
     RDKit          3D

 13 13  0  0  0  0  0  0  0  0999 V2000
   37.2640   30.1470   51.4070 C   0  0  0  0  0  0  0  0  0  0  0  0
   38.1100   30.6430   50.4090 C   0  0  0  0  0  0  0  0  0  0  0  0
   37.7670   30.4420   49.0610 C   0  0  0  0  0  0  0  0  0  0  0  0
   36.6200   29.7690   48.8200 N   0  0  0  0  0  0  0  0  0  0  0  0
   35.8180   29.3000   49.7990 C   0  0  0  0  0  0  0  0  0  0  0  0
   36.1360   29.4860   51.0780 N   0  0  0  0  0  0  0  0  0  0  0  0
   34.5870   28.5790   49.4960 C   0  0  0  0  0  0  0  0  0  0  0  0
   33.4710   28.9070   49.9950 O   0  0  0  0  0  0  0  0  0  0  0  0
   34.4780   27.4680   48.6430 O   0  0  0  0  0  0  0  0  0  0  0  0
   37.5207   30.2972   52.4660 H   0  0  0  0  0  0  0  0  0  0  0  0
   39.0306   31.1827   50.6757 H   0  0  0  0  0  0  0  0  0  0  0  0
   38.4008   30.8140   48.2425 H   0  0  0  0  0  0  0  0  0  0  0  0
   33.5969   27.0410   48.4964 H   0  0  0  0  0  0  0  0  0  0  0  0
  2  1  2  0
  3  2  1  0
  4  3  2  0
  4  5  1  0
  5  6  2  0
  6  1  1  0
  7  5  1  0
  7  8  2  0
  9  7  1  0
  1 10  1  0
  2 11  1  0
  3 12  1  0
  9 13  1  0
M  ISO  4  10  14  11  14  12  14  13   3
M  END
>  <minimizedAffinity>  (1) 
-3.39252424

>  <minimizedRMSD>  (1) 
0.342770606

$$$$
