
     RDKit          3D

 19 20  0  0  0  0  0  0  0  0999 V2000
   33.3330   28.0670   48.6210 C   0  0  0  0  0  0  0  0  0  0  0  0
   32.2020   28.0590   49.1570 O   0  0  0  0  0  0  0  0  0  0  0  0
   35.9360   29.4640   50.7210 C   0  0  0  0  0  0  0  0  0  0  0  0
   36.4860   30.5020   49.9340 C   0  0  0  0  0  0  0  0  0  0  0  0
   35.9370   30.7070   48.6590 C   0  0  0  0  0  0  0  0  0  0  0  0
   34.9230   29.9150   48.2510 N   0  0  0  0  0  0  0  0  0  0  0  0
   34.4300   28.9360   49.0420 C   0  0  0  0  0  0  0  0  0  0  0  0
   34.9190   28.7020   50.2610 N   0  0  0  0  0  0  0  0  0  0  0  0
   33.6000   27.1620   47.5070 C   0  0  0  0  0  0  0  0  0  0  0  0
   33.5660   27.5510   46.1620 C   0  0  0  0  0  0  0  0  0  0  0  0
   33.8650   26.4420   45.4600 N   0  0  0  0  0  0  0  0  0  0  0  0
   34.0820   25.3970   46.2680 C   0  0  0  0  0  0  0  0  0  0  0  0
   33.9120   25.8680   47.5170 N   0  0  0  0  0  0  0  0  0  0  0  0
   36.3429   29.2734   51.7250 H   0  0  0  0  0  0  0  0  0  0  0  0
   37.3124   31.1249   50.3069 H   0  0  0  0  0  0  0  0  0  0  0  0
   36.3264   31.4996   48.0032 H   0  0  0  0  0  0  0  0  0  0  0  0
   33.3422   28.5515   45.7634 H   0  0  0  0  0  0  0  0  0  0  0  0
   33.9198   26.4025   44.4322 H   0  0  0  0  0  0  0  0  0  0  0  0
   34.3440   24.3701   45.9732 H   0  0  0  0  0  0  0  0  0  0  0  0
  1  7  1  0
  1  2  2  0
  4  3  2  0
  5  4  1  0
  6  5  2  0
  6  7  1  0
  7  8  2  0
  8  3  1  0
  9 13  1  0
  9  1  1  0
 10  9  2  0
 11 10  1  0
 11 12  1  0
 12 13  2  0
  3 14  1  0
  4 15  1  0
  5 16  1  0
 10 17  1  0
 11 18  1  0
 12 19  1  0
M  ISO  6  14  14  15  14  16  14  17  14  18   9  19  14
M  END
>  <minimizedAffinity>  (1) 
-3.16134524

>  <minimizedRMSD>  (1) 
2.28708625

$$$$
