
     RDKit          3D

 19 20  0  0  0  0  0  0  0  0999 V2000
   35.1920   30.4350   48.9830 C   0  0  0  0  0  0  0  0  0  0  0  0
   34.3350   30.1870   49.8620 O   0  0  0  0  0  0  0  0  0  0  0  0
   33.3170   30.0890   45.8850 C   0  0  0  0  0  0  0  0  0  0  0  0
   34.3170   30.0070   44.9110 C   0  0  0  0  0  0  0  0  0  0  0  0
   35.6490   30.0690   45.3070 C   0  0  0  0  0  0  0  0  0  0  0  0
   35.8960   30.2080   46.6310 N   0  0  0  0  0  0  0  0  0  0  0  0
   34.9160   30.2860   47.5580 C   0  0  0  0  0  0  0  0  0  0  0  0
   33.6250   30.2260   47.1820 N   0  0  0  0  0  0  0  0  0  0  0  0
   36.5160   30.8910   49.4280 C   0  0  0  0  0  0  0  0  0  0  0  0
   37.3080   30.2100   50.3330 C   0  0  0  0  0  0  0  0  0  0  0  0
   38.4400   31.0260   50.4280 C   0  0  0  0  0  0  0  0  0  0  0  0
   38.2830   32.1240   49.6050 C   0  0  0  0  0  0  0  0  0  0  0  0
   37.1170   32.0080   49.0210 O   0  0  0  0  0  0  0  0  0  0  0  0
   32.2608   30.0403   45.5817 H   0  0  0  0  0  0  0  0  0  0  0  0
   34.0545   29.8953   43.8486 H   0  0  0  0  0  0  0  0  0  0  0  0
   36.4677   30.0077   44.5749 H   0  0  0  0  0  0  0  0  0  0  0  0
   37.0998   29.2617   50.8502 H   0  0  0  0  0  0  0  0  0  0  0  0
   39.3180   30.8247   51.0594 H   0  0  0  0  0  0  0  0  0  0  0  0
   39.0035   32.9435   49.4661 H   0  0  0  0  0  0  0  0  0  0  0  0
  1  9  1  0
  1  2  2  0
  3  8  2  0
  4  5  2  0
  4  3  1  0
  5  6  1  0
  6  7  2  0
  7  1  1  0
  8  7  1  0
  9 10  2  0
 10 11  1  0
 12 11  2  0
 13  9  1  0
 13 12  1  0
  3 14  1  0
  4 15  1  0
  5 16  1  0
 10 17  1  0
 11 18  1  0
 12 19  1  0
M  ISO  6  14  14  15  14  16  14  17  14  18  14  19  14
M  END
>  <minimizedAffinity>  (1) 
-3.90658879

>  <minimizedRMSD>  (1) 
5.21082449

$$$$
