
     RDKit          3D

 31 33  0  0  0  0  0  0  0  0999 V2000
   37.9280   31.5910   49.0660 C   0  0  0  0  0  0  0  0  0  0  0  0
   38.2500   32.8870   49.4010 C   0  0  0  0  0  0  0  0  0  0  0  0
   39.0360   33.2910   48.3290 C   0  0  0  0  0  0  0  0  0  0  0  0
   39.1520   32.2640   47.4270 C   0  0  0  0  0  0  0  0  0  0  0  0
   38.4780   31.2510   47.8920 O   0  0  0  0  0  0  0  0  0  0  0  0
   39.8940   32.3510   46.2120 N   0  0  0  0  0  0  0  0  0  0  0  0
   39.9810   33.5250   45.3610 C   0  0  0  0  0  0  0  0  0  0  0  0
   39.8220   32.8810   44.0010 C   0  0  0  0  0  0  0  0  0  0  0  0
   40.1190   31.4050   44.1600 C   0  0  0  0  0  0  0  0  0  0  0  0
   40.7060   31.3370   45.5550 C   0  0  0  0  0  0  0  0  0  0  0  0
   37.0950   30.6960   49.8830 C   0  0  0  0  0  0  0  0  0  0  0  0
   37.3970   30.5650   51.0940 O   0  0  0  0  0  0  0  0  0  0  0  0
   34.5950   28.1360   49.2780 C   0  0  0  0  0  0  0  0  0  0  0  0
   33.8480   28.6370   48.2190 C   0  0  0  0  0  0  0  0  0  0  0  0
   34.2070   29.8780   47.6990 C   0  0  0  0  0  0  0  0  0  0  0  0
   35.2570   30.5140   48.2580 N   0  0  0  0  0  0  0  0  0  0  0  0
   35.9670   29.9960   49.2950 C   0  0  0  0  0  0  0  0  0  0  0  0
   35.6230   28.8050   49.7940 N   0  0  0  0  0  0  0  0  0  0  0  0
   37.9580   33.4593   50.2939 H   0  0  0  0  0  0  0  0  0  0  0  0
   39.4958   34.2843   48.2200 H   0  0  0  0  0  0  0  0  0  0  0  0
   39.1723   34.2408   45.5701 H   0  0  0  0  0  0  0  0  0  0  0  0
   40.8982   34.1192   45.4862 H   0  0  0  0  0  0  0  0  0  0  0  0
   40.5274   33.3314   43.2872 H   0  0  0  0  0  0  0  0  0  0  0  0
   38.8023   33.0323   43.6171 H   0  0  0  0  0  0  0  0  0  0  0  0
   39.2004   30.8044   44.0855 H   0  0  0  0  0  0  0  0  0  0  0  0
   40.7877   31.0061   43.3830 H   0  0  0  0  0  0  0  0  0  0  0  0
   40.5686   30.3446   46.0093 H   0  0  0  0  0  0  0  0  0  0  0  0
   41.7923   31.5001   45.6124 H   0  0  0  0  0  0  0  0  0  0  0  0
   34.3286   27.1569   49.7026 H   0  0  0  0  0  0  0  0  0  0  0  0
   33.0003   28.0716   47.8047 H   0  0  0  0  0  0  0  0  0  0  0  0
   33.6528   30.3247   46.8604 H   0  0  0  0  0  0  0  0  0  0  0  0
  1  2  2  0
  1 11  1  0
  3  2  1  0
  4  5  1  0
  4  3  2  0
  5  1  1  0
  6  4  1  0
  7  6  1  0
  8  9  1  0
  8  7  1  0
  9 10  1  0
 10  6  1  0
 11 12  2  0
 13 18  2  0
 14 13  1  0
 15 14  2  0
 15 16  1  0
 16 17  2  0
 17 18  1  0
 17 11  1  0
  2 19  1  0
  3 20  1  0
  7 21  1  0
  7 22  1  0
  8 23  1  0
  8 24  1  0
  9 25  1  0
  9 26  1  0
 10 27  1  0
 10 28  1  0
 13 29  1  0
 14 30  1  0
 15 31  1  0
M  ISO  8  19  14  20  14  21  13  22  13  23  13  24  13  25  13  26  13
M  ISO  5  27  13  28  13  29  14  30  14  31  14
M  END
>  <minimizedAffinity>  (1) 
-5.86016369

>  <minimizedRMSD>  (1) 
3.34410334

$$$$
