
     RDKit          3D

 23 24  0  0  0  0  0  0  0  0999 V2000
   35.6290   30.1760   46.4590 O   0  0  0  0  0  0  0  0  0  0  0  0
   34.4160   29.8710   47.3180 P   0  0  1  0  0  0  0  0  0  0  0  0
   34.2310   28.1950   47.5540 O   0  0  0  0  0  0  0  0  0  0  0  0
   34.5310   30.5740   48.8700 O   0  0  0  0  0  0  0  0  0  0  0  0
   35.6800   30.4620   49.6480 C   0  0  0  0  0  0  0  0  0  0  0  0
   35.9070   29.5020   50.6470 C   0  0  0  0  0  0  0  0  0  0  0  0
   37.1190   29.5510   51.3150 C   0  0  0  0  0  0  0  0  0  0  0  0
   38.0320   30.5000   50.9990 N   0  0  0  0  0  0  0  0  0  0  0  0
   37.7750   31.4230   50.0160 C   0  0  0  0  0  0  0  0  0  0  0  0
   36.5980   31.3970   49.3460 N   0  0  0  0  0  0  0  0  0  0  0  0
   33.0710   30.5060   46.5090 O   0  0  0  0  0  0  0  0  0  0  0  0
   32.0920   29.5940   46.0890 C   0  0  0  0  0  0  0  0  0  0  0  0
   31.5170   29.4150   44.8480 C   0  0  0  0  0  0  0  0  0  0  0  0
   30.6300   28.4240   44.9300 N   0  0  0  0  0  0  0  0  0  0  0  0
   30.6050   27.9460   46.1880 C   0  0  0  0  0  0  0  0  0  0  0  0
   31.5080   28.6740   46.8910 N   0  0  0  0  0  0  0  0  0  0  0  0
   34.2093   27.9988   48.5241 H   0  0  0  0  0  0  0  0  0  0  0  0
   35.1513   28.7404   50.8897 H   0  0  0  0  0  0  0  0  0  0  0  0
   37.3407   28.8174   52.1041 H   0  0  0  0  0  0  0  0  0  0  0  0
   38.5278   32.1868   49.7714 H   0  0  0  0  0  0  0  0  0  0  0  0
   31.7515   29.9935   43.9423 H   0  0  0  0  0  0  0  0  0  0  0  0
   30.0525   28.0772   44.1508 H   0  0  0  0  0  0  0  0  0  0  0  0
   29.9770   27.1276   46.5700 H   0  0  0  0  0  0  0  0  0  0  0  0
  2  1  2  0
  2  3  1  0
  2  4  1  0
  4  5  1  0
  5  6  2  0
  6  7  1  0
  8  7  2  0
  9  8  1  0
 10  5  1  0
 10  9  2  0
 11  2  1  0
 12 11  1  0
 12 16  1  0
 13 14  1  0
 13 12  2  0
 14 15  1  0
 15 16  2  0
  3 17  1  0
  6 18  1  0
  7 19  1  0
  9 20  1  0
 13 21  1  0
 14 22  1  0
 15 23  1  0
M  ISO  7  17   3  18  14  19  14  20  14  21  14  22   9  23  14
M  END
>  <minimizedAffinity>  (1) 
-3.77377701

>  <minimizedRMSD>  (1) 
1.7671057

$$$$
