
     RDKit          3D

 27 29  0  0  0  0  0  0  0  0999 V2000
   35.8520   30.1700   49.9140 C   0  0  0  0  0  0  0  0  0  0  0  0
   36.7320   29.8990   50.9370 C   0  0  0  0  0  0  0  0  0  0  0  0
   37.8380   30.6890   50.6290 C   0  0  0  0  0  0  0  0  0  0  0  0
   37.5800   31.3760   49.4700 C   0  0  0  0  0  0  0  0  0  0  0  0
   36.3750   31.0500   49.0550 O   0  0  0  0  0  0  0  0  0  0  0  0
   38.4500   32.3180   48.7750 C   0  0  0  0  0  0  0  0  0  0  0  0
   38.8440   33.4750   49.4180 C   0  0  0  0  0  0  0  0  0  0  0  0
   39.6780   34.3460   48.7130 C   0  0  0  0  0  0  0  0  0  0  0  0
   40.0690   34.0510   47.4590 N   0  0  0  0  0  0  0  0  0  0  0  0
   39.6720   32.9140   46.8500 C   0  0  0  0  0  0  0  0  0  0  0  0
   38.8580   32.0400   47.5060 N   0  0  0  0  0  0  0  0  0  0  0  0
   34.5130   29.5730   49.7810 C   0  0  0  0  0  0  0  0  0  0  0  0
   33.7170   29.7080   50.7500 O   0  0  0  0  0  0  0  0  0  0  0  0
   33.8260   26.8220   47.5190 C   0  0  0  0  0  0  0  0  0  0  0  0
   33.4750   27.4510   46.3310 C   0  0  0  0  0  0  0  0  0  0  0  0
   33.4710   28.8420   46.2910 C   0  0  0  0  0  0  0  0  0  0  0  0
   33.8120   29.4960   47.4280 N   0  0  0  0  0  0  0  0  0  0  0  0
   34.1480   28.8610   48.5670 C   0  0  0  0  0  0  0  0  0  0  0  0
   34.1510   27.5260   48.6000 N   0  0  0  0  0  0  0  0  0  0  0  0
   36.5951   29.2213   51.7926 H   0  0  0  0  0  0  0  0  0  0  0  0
   38.7649   30.7514   51.2181 H   0  0  0  0  0  0  0  0  0  0  0  0
   38.5147   33.7013   50.4429 H   0  0  0  0  0  0  0  0  0  0  0  0
   40.0176   35.2794   49.1857 H   0  0  0  0  0  0  0  0  0  0  0  0
   40.0051   32.6930   45.8252 H   0  0  0  0  0  0  0  0  0  0  0  0
   33.8353   25.7231   47.5666 H   0  0  0  0  0  0  0  0  0  0  0  0
   33.2061   26.8624   45.4415 H   0  0  0  0  0  0  0  0  0  0  0  0
   33.2023   29.3880   45.3747 H   0  0  0  0  0  0  0  0  0  0  0  0
  1  2  2  0
  3  2  1  0
  4  3  2  0
  5  4  1  0
  5  1  1  0
  6  7  2  0
  6  4  1  0
  8  7  1  0
  9  8  2  0
 10  9  1  0
 10 11  2  0
 11  6  1  0
 12  1  1  0
 12 13  2  0
 14 19  2  0
 15 14  1  0
 16 15  2  0
 16 17  1  0
 17 18  2  0
 18 19  1  0
 18 12  1  0
  2 20  1  0
  3 21  1  0
  7 22  1  0
  8 23  1  0
 10 24  1  0
 14 25  1  0
 15 26  1  0
 16 27  1  0
M  ISO  8  20  14  21  14  22  14  23  14  24  14  25  14  26  14  27  14
M  END
>  <minimizedAffinity>  (1) 
-5.50093174

>  <minimizedRMSD>  (1) 
2.06767511

$$$$
