
     RDKit          3D

 33 35  0  0  0  0  0  0  0  0999 V2000
   35.4520   29.7750   50.0070 C   0  0  0  0  0  0  0  0  0  0  0  0
   36.4820   29.2440   50.7640 C   0  0  0  0  0  0  0  0  0  0  0  0
   37.5840   29.9950   50.3760 C   0  0  0  0  0  0  0  0  0  0  0  0
   37.1880   30.9140   49.4370 C   0  0  0  0  0  0  0  0  0  0  0  0
   35.9140   30.7580   49.2380 O   0  0  0  0  0  0  0  0  0  0  0  0
   38.0210   31.8720   48.7890 N   0  0  0  0  0  0  0  0  0  0  0  0
   38.0350   32.0090   47.3480 C   0  0  0  0  0  0  0  0  0  0  0  0
   39.4490   32.4470   46.9920 C   0  0  0  0  0  0  0  0  0  0  0  0
   39.6160   33.7990   47.4510 N   0  0  0  0  0  0  0  0  0  0  0  0
   39.2790   33.9780   48.8310 C   0  0  0  0  0  0  0  0  0  0  0  0
   38.8830   32.7410   49.5630 C   0  0  0  0  0  0  0  0  0  0  0  0
   34.0620   29.3120   50.0570 C   0  0  0  0  0  0  0  0  0  0  0  0
   33.3170   29.7950   50.9510 O   0  0  0  0  0  0  0  0  0  0  0  0
   31.7970   27.1160   48.2670 C   0  0  0  0  0  0  0  0  0  0  0  0
   32.6150   26.4950   47.3270 C   0  0  0  0  0  0  0  0  0  0  0  0
   33.9620   26.8290   47.3010 C   0  0  0  0  0  0  0  0  0  0  0  0
   34.4010   27.7440   48.1970 N   0  0  0  0  0  0  0  0  0  0  0  0
   33.5910   28.3320   49.0980 C   0  0  0  0  0  0  0  0  0  0  0  0
   32.2800   28.0130   49.1300 N   0  0  0  0  0  0  0  0  0  0  0  0
   36.4383   28.4245   51.4965 H   0  0  0  0  0  0  0  0  0  0  0  0
   38.6079   29.8730   50.7591 H   0  0  0  0  0  0  0  0  0  0  0  0
   37.7987   31.0476   46.8686 H   0  0  0  0  0  0  0  0  0  0  0  0
   37.2846   32.7346   47.0009 H   0  0  0  0  0  0  0  0  0  0  0  0
   40.1802   31.7905   47.4862 H   0  0  0  0  0  0  0  0  0  0  0  0
   39.6092   32.3863   45.9054 H   0  0  0  0  0  0  0  0  0  0  0  0
   40.6009   34.0694   47.3179 H   0  0  0  0  0  0  0  0  0  0  0  0
   40.1545   34.4070   49.3403 H   0  0  0  0  0  0  0  0  0  0  0  0
   38.3938   34.6309   48.8424 H   0  0  0  0  0  0  0  0  0  0  0  0
   38.3520   33.0328   50.4811 H   0  0  0  0  0  0  0  0  0  0  0  0
   39.8041   32.1799   49.7793 H   0  0  0  0  0  0  0  0  0  0  0  0
   30.7273   26.8616   48.2995 H   0  0  0  0  0  0  0  0  0  0  0  0
   32.2038   25.7575   46.6220 H   0  0  0  0  0  0  0  0  0  0  0  0
   34.6491   26.3662   46.5773 H   0  0  0  0  0  0  0  0  0  0  0  0
  1 12  1  0
  1  2  2  0
  3  2  1  0
  4  3  2  0
  5  4  1  0
  5  1  1  0
  6  4  1  0
  6 11  1  0
  7  6  1  0
  8  7  1  0
  8  9  1  0
  9 10  1  0
 10 11  1  0
 12 13  2  0
 14 19  2  0
 15 14  1  0
 16 15  2  0
 16 17  1  0
 17 18  2  0
 18 19  1  0
 18 12  1  0
  2 20  1  0
  3 21  1  0
  7 22  1  0
  7 23  1  0
  8 24  1  0
  8 25  1  0
  9 26  1  0
 10 27  1  0
 10 28  1  0
 11 29  1  0
 11 30  1  0
 14 31  1  0
 15 32  1  0
 16 33  1  0
M  ISO  8  20  14  21  14  22  13  23  13  24  13  25  13  26   5  27  13
M  ISO  6  28  13  29  13  30  13  31  14  32  14  33  14
M  END
>  <minimizedAffinity>  (1) 
-5.33494616

>  <minimizedRMSD>  (1) 
2.69486976

$$$$
