
     RDKit          3D

 23 24  0  0  0  0  0  0  0  0999 V2000
   36.5530   30.5080   50.0050 C   0  0  0  0  0  0  0  0  0  0  0  0
   37.7350   30.2950   50.6700 C   0  0  0  0  0  0  0  0  0  0  0  0
   38.5660   31.3030   50.1890 C   0  0  0  0  0  0  0  0  0  0  0  0
   37.8650   32.0540   49.2830 C   0  0  0  0  0  0  0  0  0  0  0  0
   36.6730   31.5500   49.2010 O   0  0  0  0  0  0  0  0  0  0  0  0
   39.2160   34.1530   49.0180 C   0  0  0  0  0  0  0  0  0  0  0  0
   39.7000   34.0590   50.1680 O   0  0  0  0  0  0  0  0  0  0  0  0
   38.3060   33.1820   48.5420 N   0  0  0  0  0  0  0  0  0  0  0  0
   35.3430   29.6920   50.1710 C   0  0  0  0  0  0  0  0  0  0  0  0
   35.0960   29.2460   51.3160 O   0  0  0  0  0  0  0  0  0  0  0  0
   32.8730   28.0470   48.0640 C   0  0  0  0  0  0  0  0  0  0  0  0
   32.8420   28.8730   46.9260 C   0  0  0  0  0  0  0  0  0  0  0  0
   33.6580   29.9870   46.8720 C   0  0  0  0  0  0  0  0  0  0  0  0
   34.4540   30.2210   47.9410 N   0  0  0  0  0  0  0  0  0  0  0  0
   34.4800   29.4250   49.0300 C   0  0  0  0  0  0  0  0  0  0  0  0
   33.6870   28.3400   49.0840 N   0  0  0  0  0  0  0  0  0  0  0  0
   37.9697   29.5135   51.4077 H   0  0  0  0  0  0  0  0  0  0  0  0
   39.6118   31.4688   50.4870 H   0  0  0  0  0  0  0  0  0  0  0  0
   39.5008   34.9973   48.3729 H   0  0  0  0  0  0  0  0  0  0  0  0
   37.9358   33.3013   47.5882 H   0  0  0  0  0  0  0  0  0  0  0  0
   32.2266   27.1584   48.1152 H   0  0  0  0  0  0  0  0  0  0  0  0
   32.1736   28.6342   46.0857 H   0  0  0  0  0  0  0  0  0  0  0  0
   33.6604   30.6547   45.9978 H   0  0  0  0  0  0  0  0  0  0  0  0
  1  9  1  0
  1  2  2  0
  3  2  1  0
  4  3  2  0
  5  4  1  0
  5  1  1  0
  6  7  2  0
  8  6  1  0
  8  4  1  0
  9 10  2  0
 11 16  2  0
 12 11  1  0
 13 12  2  0
 13 14  1  0
 14 15  2  0
 15 16  1  0
 15  9  1  0
  2 17  1  0
  3 18  1  0
  6 19  1  0
  8 20  1  0
 11 21  1  0
 12 22  1  0
 13 23  1  0
M  ISO  6  17  14  18  14  19   6  21  14  22  14  23  14
M  END
>  <minimizedAffinity>  (1) 
-5.19624138

>  <minimizedRMSD>  (1) 
1.76622593

$$$$
