
     RDKit          3D

 20 21  0  0  0  0  0  0  0  0999 V2000
   35.2140   30.4030   48.9670 C   0  0  0  0  0  0  0  0  0  0  0  0
   34.3700   30.0920   49.8520 O   0  0  0  0  0  0  0  0  0  0  0  0
   33.3330   30.0560   45.8800 C   0  0  0  0  0  0  0  0  0  0  0  0
   34.3150   30.0020   44.8990 C   0  0  0  0  0  0  0  0  0  0  0  0
   35.6570   30.0860   45.2900 C   0  0  0  0  0  0  0  0  0  0  0  0
   35.9220   30.2140   46.6110 N   0  0  0  0  0  0  0  0  0  0  0  0
   34.9340   30.2640   47.5480 C   0  0  0  0  0  0  0  0  0  0  0  0
   33.6320   30.1840   47.1770 N   0  0  0  0  0  0  0  0  0  0  0  0
   36.5150   30.9210   49.4100 C   0  0  0  0  0  0  0  0  0  0  0  0
   37.3960   30.2420   50.2140 C   0  0  0  0  0  0  0  0  0  0  0  0
   38.4600   31.1260   50.3510 C   0  0  0  0  0  0  0  0  0  0  0  0
   38.1790   32.2810   49.6340 C   0  0  0  0  0  0  0  0  0  0  0  0
   37.0090   32.1050   49.0950 O   0  0  0  0  0  0  0  0  0  0  0  0
   39.0480   33.3580   49.5720 O   0  0  0  0  0  0  0  0  0  0  0  0
   32.2765   29.9915   45.5805 H   0  0  0  0  0  0  0  0  0  0  0  0
   34.0443   29.8956   43.8381 H   0  0  0  0  0  0  0  0  0  0  0  0
   36.4686   30.0492   44.5484 H   0  0  0  0  0  0  0  0  0  0  0  0
   37.2862   29.2369   50.6472 H   0  0  0  0  0  0  0  0  0  0  0  0
   39.3751   30.9406   50.9325 H   0  0  0  0  0  0  0  0  0  0  0  0
   38.8041   34.1613   49.0473 H   0  0  0  0  0  0  0  0  0  0  0  0
  1  9  1  0
  1  2  2  0
  3  8  2  0
  4  5  2  0
  4  3  1  0
  5  6  1  0
  6  7  2  0
  7  1  1  0
  8  7  1  0
  9 10  2  0
 10 11  1  0
 12 11  2  0
 13  9  1  0
 13 12  1  0
 14 12  1  0
  3 15  1  0
  4 16  1  0
  5 17  1  0
 10 18  1  0
 11 19  1  0
 14 20  1  0
M  ISO  6  15  14  16  14  17  14  18  14  19  14  20   3
M  END
>  <minimizedAffinity>  (1) 
-4.25544405

>  <minimizedRMSD>  (1) 
0.120859303

$$$$
