
     RDKit          3D

 20 21  0  0  0  0  0  0  0  0999 V2000
   35.2550   30.2700   49.0110 C   0  0  0  0  0  0  0  0  0  0  0  0
   34.5330   29.8250   49.9310 O   0  0  0  0  0  0  0  0  0  0  0  0
   33.1660   30.0460   46.0490 C   0  0  0  0  0  0  0  0  0  0  0  0
   34.0840   30.0080   45.0070 C   0  0  0  0  0  0  0  0  0  0  0  0
   35.4330   30.0590   45.3040 C   0  0  0  0  0  0  0  0  0  0  0  0
   35.7830   30.1440   46.6160 N   0  0  0  0  0  0  0  0  0  0  0  0
   34.8800   30.1790   47.6090 C   0  0  0  0  0  0  0  0  0  0  0  0
   33.5560   30.1310   47.3330 N   0  0  0  0  0  0  0  0  0  0  0  0
   36.5320   30.9080   49.3800 C   0  0  0  0  0  0  0  0  0  0  0  0
   37.4850   30.3120   50.1860 C   0  0  0  0  0  0  0  0  0  0  0  0
   38.4930   31.2660   50.2550 C   0  0  0  0  0  0  0  0  0  0  0  0
   38.1100   32.3710   49.5030 C   0  0  0  0  0  0  0  0  0  0  0  0
   36.9300   32.1090   49.0000 O   0  0  0  0  0  0  0  0  0  0  0  0
   39.1810   33.7960   49.3720 S   0  0  0  0  0  0  0  0  0  0  0  0
   32.0914   30.0055   45.8175 H   0  0  0  0  0  0  0  0  0  0  0  0
   33.7432   29.9385   43.9634 H   0  0  0  0  0  0  0  0  0  0  0  0
   36.1941   30.0319   44.5103 H   0  0  0  0  0  0  0  0  0  0  0  0
   37.4527   29.3196   50.6594 H   0  0  0  0  0  0  0  0  0  0  0  0
   39.4363   31.1640   50.8116 H   0  0  0  0  0  0  0  0  0  0  0  0
   39.5115   34.2357   50.6267 H   0  0  0  0  0  0  0  0  0  0  0  0
  1  9  1  0
  1  2  2  0
  3  8  2  0
  4  5  2  0
  4  3  1  0
  5  6  1  0
  6  7  2  0
  7  1  1  0
  8  7  1  0
  9 10  2  0
 10 11  1  0
 12 11  2  0
 13  9  1  0
 13 12  1  0
 14 12  1  0
  3 15  1  0
  4 16  1  0
  5 17  1  0
 10 18  1  0
 11 19  1  0
 14 20  1  0
M  ISO  6  15  14  16  14  17  14  18  14  19  14  20  11
M  END
>  <minimizedAffinity>  (1) 
-4.11806917

>  <minimizedRMSD>  (1) 
0.275416434

$$$$
