
     RDKit          3D

 35 38  0  0  0  0  0  0  0  0999 V2000
   35.5350   29.5800   49.6840 C   0  0  0  0  0  0  0  0  0  0  0  0
   36.5580   29.2530   50.5560 C   0  0  0  0  0  0  0  0  0  0  0  0
   37.6940   29.7610   49.9250 C   0  0  0  0  0  0  0  0  0  0  0  0
   37.3150   30.3490   48.7460 C   0  0  0  0  0  0  0  0  0  0  0  0
   36.0140   30.2170   48.6420 O   0  0  0  0  0  0  0  0  0  0  0  0
   38.6180   32.3030   48.0180 C   0  0  0  0  0  0  0  0  0  0  0  0
   38.1830   31.0040   47.7740 C   0  0  0  0  0  0  0  0  0  0  0  0
   38.5560   30.3250   46.6320 C   0  0  0  0  0  0  0  0  0  0  0  0
   39.3780   30.9310   45.7010 C   0  0  0  0  0  0  0  0  0  0  0  0
   39.9100   30.5500   44.5140 N   0  0  0  0  0  0  0  0  0  0  0  0
   40.6320   31.5620   44.0570 N   0  0  0  0  0  0  0  0  0  0  0  0
   40.5790   32.5990   44.9290 C   0  0  0  0  0  0  0  0  0  0  0  0
   39.7780   32.2140   45.9920 C   0  0  0  0  0  0  0  0  0  0  0  0
   39.4500   32.9480   47.1000 C   0  0  0  0  0  0  0  0  0  0  0  0
   34.1350   29.2500   49.9180 C   0  0  0  0  0  0  0  0  0  0  0  0
   33.5340   29.8320   50.8410 O   0  0  0  0  0  0  0  0  0  0  0  0
   31.4870   27.2230   48.4400 C   0  0  0  0  0  0  0  0  0  0  0  0
   32.1780   26.4190   47.5340 C   0  0  0  0  0  0  0  0  0  0  0  0
   33.5420   26.5610   47.4200 C   0  0  0  0  0  0  0  0  0  0  0  0
   34.1640   27.4700   48.1870 N   0  0  0  0  0  0  0  0  0  0  0  0
   33.4810   28.2520   49.0720 C   0  0  0  0  0  0  0  0  0  0  0  0
   32.1380   28.1140   49.1850 N   0  0  0  0  0  0  0  0  0  0  0  0
   34.2870   25.7140   46.4620 C   0  0  0  0  0  0  0  0  0  0  0  0
   36.4917   28.7204   51.5162 H   0  0  0  0  0  0  0  0  0  0  0  0
   38.7228   29.6999   50.3096 H   0  0  0  0  0  0  0  0  0  0  0  0
   38.3060   32.8230   48.9357 H   0  0  0  0  0  0  0  0  0  0  0  0
   38.1981   29.2988   46.4623 H   0  0  0  0  0  0  0  0  0  0  0  0
   39.7770   29.6393   44.0516 H   0  0  0  0  0  0  0  0  0  0  0  0
   41.0814   33.5707   44.8133 H   0  0  0  0  0  0  0  0  0  0  0  0
   39.8159   33.9735   47.2564 H   0  0  0  0  0  0  0  0  0  0  0  0
   30.3964   27.1203   48.5399 H   0  0  0  0  0  0  0  0  0  0  0  0
   31.6405   25.6819   46.9193 H   0  0  0  0  0  0  0  0  0  0  0  0
   34.9150   25.0001   47.0151 H   0  0  0  0  0  0  0  0  0  0  0  0
   33.5755   25.1630   45.8294 H   0  0  0  0  0  0  0  0  0  0  0  0
   34.9243   26.3494   45.8294 H   0  0  0  0  0  0  0  0  0  0  0  0
  1 15  1  0
  1  2  2  0
  3  2  1  0
  4  3  2  0
  5  4  1  0
  5  1  1  0
  7  6  2  0
  7  4  1  0
  8  7  1  0
  9 13  1  0
  9  8  2  0
 10  9  1  0
 11 10  1  0
 11 12  2  0
 12 13  1  0
 13 14  2  0
 14  6  1  0
 15 16  2  0
 17 22  2  0
 18 17  1  0
 19 18  2  0
 19 20  1  0
 20 21  2  0
 21 22  1  0
 21 15  1  0
 23 19  1  0
  2 24  1  0
  3 25  1  0
  6 26  1  0
  8 27  1  0
 10 28  1  0
 12 29  1  0
 14 30  1  0
 17 31  1  0
 18 32  1  0
 23 33  1  0
 23 34  1  0
 23 35  1  0
M  ISO  8  24  14  25  14  26  14  27  14  28   9  29  14  30  14  31  14
M  ISO  4  32  14  33   8  34   8  35   8
M  END
>  <minimizedAffinity>  (1) 
-6.54378557

>  <minimizedRMSD>  (1) 
0.226747602

$$$$
