
     RDKit          3D

 40 44  0  0  0  0  0  0  0  0999 V2000
   35.6610   29.8570   49.7230 C   0  0  0  0  0  0  0  0  0  0  0  0
   36.6280   29.7840   50.7050 C   0  0  0  0  0  0  0  0  0  0  0  0
   37.7540   30.3390   50.0920 C   0  0  0  0  0  0  0  0  0  0  0  0
   37.4230   30.7090   48.8030 C   0  0  0  0  0  0  0  0  0  0  0  0
   36.1560   30.4010   48.6240 O   0  0  0  0  0  0  0  0  0  0  0  0
   38.8530   32.5670   48.0780 C   0  0  0  0  0  0  0  0  0  0  0  0
   38.2930   31.3230   47.8180 C   0  0  0  0  0  0  0  0  0  0  0  0
   38.5450   30.6410   46.6250 C   0  0  0  0  0  0  0  0  0  0  0  0
   39.3720   31.2080   45.6710 C   0  0  0  0  0  0  0  0  0  0  0  0
   39.8060   30.8270   44.4540 N   0  0  0  0  0  0  0  0  0  0  0  0
   40.5920   31.7880   43.9920 N   0  0  0  0  0  0  0  0  0  0  0  0
   40.6750   32.7910   44.8960 C   0  0  0  0  0  0  0  0  0  0  0  0
   39.9000   32.4440   45.9840 C   0  0  0  0  0  0  0  0  0  0  0  0
   39.6910   33.1620   47.1350 C   0  0  0  0  0  0  0  0  0  0  0  0
   34.2910   29.3920   49.8930 C   0  0  0  0  0  0  0  0  0  0  0  0
   33.7090   29.6430   50.9720 O   0  0  0  0  0  0  0  0  0  0  0  0
   31.8900   27.2630   48.1580 C   0  0  0  0  0  0  0  0  0  0  0  0
   32.3630   27.2610   46.8550 C   0  0  0  0  0  0  0  0  0  0  0  0
   33.4930   27.9710   46.5370 C   0  0  0  0  0  0  0  0  0  0  0  0
   34.0900   28.6490   47.5480 N   0  0  0  0  0  0  0  0  0  0  0  0
   33.6300   28.6530   48.8180 C   0  0  0  0  0  0  0  0  0  0  0  0
   32.5250   27.9510   49.1020 N   0  0  0  0  0  0  0  0  0  0  0  0
   34.1150   28.0680   45.2210 C   0  0  0  0  0  0  0  0  0  0  0  0
   34.0250   27.0520   44.2940 C   0  0  0  0  0  0  0  0  0  0  0  0
   34.6150   27.1280   43.0260 C   0  0  0  0  0  0  0  0  0  0  0  0
   35.3010   28.2380   42.6920 N   0  0  0  0  0  0  0  0  0  0  0  0
   35.3730   29.2180   43.6180 C   0  0  0  0  0  0  0  0  0  0  0  0
   34.8140   29.1480   44.8210 N   0  0  0  0  0  0  0  0  0  0  0  0
   36.5345   29.3846   51.7257 H   0  0  0  0  0  0  0  0  0  0  0  0
   38.7423   30.4613   50.5593 H   0  0  0  0  0  0  0  0  0  0  0  0
   38.6362   33.0819   49.0255 H   0  0  0  0  0  0  0  0  0  0  0  0
   38.0878   29.6569   46.4446 H   0  0  0  0  0  0  0  0  0  0  0  0
   39.5698   29.9486   43.9708 H   0  0  0  0  0  0  0  0  0  0  0  0
   41.2566   33.7179   44.7839 H   0  0  0  0  0  0  0  0  0  0  0  0
   40.1552   34.1450   47.3032 H   0  0  0  0  0  0  0  0  0  0  0  0
   30.9846   26.6924   48.4123 H   0  0  0  0  0  0  0  0  0  0  0  0
   31.8333   26.6912   46.0774 H   0  0  0  0  0  0  0  0  0  0  0  0
   33.4662   26.1430   44.5613 H   0  0  0  0  0  0  0  0  0  0  0  0
   34.5197   26.2946   42.3144 H   0  0  0  0  0  0  0  0  0  0  0  0
   35.9292   30.1313   43.3602 H   0  0  0  0  0  0  0  0  0  0  0  0
  1 15  1  0
  1  2  2  0
  3  2  1  0
  4  3  2  0
  5  4  1  0
  5  1  1  0
  7  6  2  0
  7  4  1  0
  8  7  1  0
  9 13  1  0
  9  8  2  0
 10  9  1  0
 11 10  1  0
 11 12  2  0
 12 13  1  0
 13 14  2  0
 14  6  1  0
 15 16  2  0
 17 22  2  0
 18 17  1  0
 19 18  2  0
 19 20  1  0
 20 21  2  0
 21 22  1  0
 21 15  1  0
 23 19  1  0
 24 23  2  0
 25 24  1  0
 26 25  2  0
 26 27  1  0
 27 28  2  0
 28 23  1  0
  2 29  1  0
  3 30  1  0
  6 31  1  0
  8 32  1  0
 10 33  1  0
 12 34  1  0
 14 35  1  0
 17 36  1  0
 18 37  1  0
 24 38  1  0
 25 39  1  0
 27 40  1  0
M  ISO  8  29  14  30  14  31  14  32  14  33   9  34  14  35  14  36  14
M  ISO  4  37  14  38  14  39  14  40  14
M  END
>  <minimizedAffinity>  (1) 
-6.51659775

>  <minimizedRMSD>  (1) 
1.8681308

$$$$
