
     RDKit          3D

 35 38  0  0  0  0  0  0  0  0999 V2000
   35.5990   29.7070   49.6430 C   0  0  0  0  0  0  0  0  0  0  0  0
   36.5800   29.5690   50.6140 C   0  0  0  0  0  0  0  0  0  0  0  0
   37.7090   30.0960   50.0000 C   0  0  0  0  0  0  0  0  0  0  0  0
   37.3890   30.5190   48.7310 C   0  0  0  0  0  0  0  0  0  0  0  0
   36.1120   30.2630   48.5680 O   0  0  0  0  0  0  0  0  0  0  0  0
   38.7510   32.4070   47.9770 C   0  0  0  0  0  0  0  0  0  0  0  0
   38.2730   31.1320   47.7470 C   0  0  0  0  0  0  0  0  0  0  0  0
   38.6110   30.4210   46.6130 C   0  0  0  0  0  0  0  0  0  0  0  0
   39.4530   30.9800   45.6560 C   0  0  0  0  0  0  0  0  0  0  0  0
   39.9530   30.5540   44.4780 N   0  0  0  0  0  0  0  0  0  0  0  0
   40.7090   31.5330   44.0060 N   0  0  0  0  0  0  0  0  0  0  0  0
   40.7040   32.5810   44.8580 C   0  0  0  0  0  0  0  0  0  0  0  0
   39.8950   32.2540   45.9450 C   0  0  0  0  0  0  0  0  0  0  0  0
   39.6030   33.0140   47.0450 C   0  0  0  0  0  0  0  0  0  0  0  0
   34.2100   29.2890   49.8150 C   0  0  0  0  0  0  0  0  0  0  0  0
   33.6210   29.6000   50.8660 O   0  0  0  0  0  0  0  0  0  0  0  0
   31.7620   27.1800   48.1150 C   0  0  0  0  0  0  0  0  0  0  0  0
   32.2770   27.0700   46.8190 C   0  0  0  0  0  0  0  0  0  0  0  0
   33.4530   27.7140   46.5340 C   0  0  0  0  0  0  0  0  0  0  0  0
   34.0620   28.4220   47.5060 N   0  0  0  0  0  0  0  0  0  0  0  0
   33.5590   28.5250   48.7550 C   0  0  0  0  0  0  0  0  0  0  0  0
   32.4020   27.8980   49.0580 N   0  0  0  0  0  0  0  0  0  0  0  0
   34.0010   27.5980   45.1580 C   0  0  0  0  0  0  0  0  0  0  0  0
   34.9160   28.6120   44.8700 F   0  0  0  0  0  0  0  0  0  0  0  0
   34.5790   26.3480   44.9430 F   0  0  0  0  0  0  0  0  0  0  0  0
   33.0110   27.7080   44.2020 F   0  0  0  0  0  0  0  0  0  0  0  0
   36.4865   29.1452   51.6248 H   0  0  0  0  0  0  0  0  0  0  0  0
   38.7065   30.1646   50.4586 H   0  0  0  0  0  0  0  0  0  0  0  0
   38.4629   32.9459   48.8917 H   0  0  0  0  0  0  0  0  0  0  0  0
   38.2125   29.4065   46.4648 H   0  0  0  0  0  0  0  0  0  0  0  0
   39.7799   29.6421   44.0314 H   0  0  0  0  0  0  0  0  0  0  0  0
   41.2448   33.5286   44.7183 H   0  0  0  0  0  0  0  0  0  0  0  0
   40.0075   34.0270   47.1870 H   0  0  0  0  0  0  0  0  0  0  0  0
   30.8196   26.6722   48.3680 H   0  0  0  0  0  0  0  0  0  0  0  0
   31.7530   26.4832   46.0502 H   0  0  0  0  0  0  0  0  0  0  0  0
  1 15  1  0
  1  2  2  0
  3  2  1  0
  4  3  2  0
  5  4  1  0
  5  1  1  0
  7  6  2  0
  7  4  1  0
  8  7  1  0
  9 13  1  0
  9  8  2  0
 10  9  1  0
 11 10  1  0
 11 12  2  0
 12 13  1  0
 13 14  2  0
 14  6  1  0
 15 16  2  0
 17 22  2  0
 18 17  1  0
 19 18  2  0
 19 20  1  0
 20 21  2  0
 21 22  1  0
 21 15  1  0
 23 19  1  0
 24 23  1  0
 25 23  1  0
 26 23  1  0
  2 27  1  0
  3 28  1  0
  6 29  1  0
  8 30  1  0
 10 31  1  0
 12 32  1  0
 14 33  1  0
 17 34  1  0
 18 35  1  0
M  ISO  8  27  14  28  14  29  14  30  14  31   9  32  14  33  14  34  14
M  ISO  1  35  14
M  END
>  <minimizedAffinity>  (1) 
-6.4641242

>  <minimizedRMSD>  (1) 
1.19280601

$$$$
