
     RDKit          3D

 31 33  0  0  1  0  0  0  0  0999 V2000
   38.8760   32.6850   45.4900 C   0  0  2  0  0  0  0  0  0  0  0  0
   40.2520   32.8840   45.9230 C   0  0  0  0  0  0  0  0  0  0  0  0
   39.5810   31.4970   45.9570 C   0  0  1  0  0  0  0  0  0  0  0  0
   36.7740   32.5920   42.4410 C   0  0  0  0  0  0  0  0  0  0  0  0
   37.7070   32.9520   41.4340 C   0  0  0  0  0  0  0  0  0  0  0  0
   39.0620   33.2240   41.8180 C   0  0  0  0  0  0  0  0  0  0  0  0
   39.3870   33.1230   43.1390 N   0  0  0  0  0  0  0  0  0  0  0  0
   38.4490   32.7730   44.0600 C   0  0  0  0  0  0  0  0  0  0  0  0
   37.1640   32.5070   43.7550 N   0  0  0  0  0  0  0  0  0  0  0  0
   37.9250   30.5470   47.5200 C   0  0  0  0  0  0  0  0  0  0  0  0
   37.1520   30.3520   46.5500 O   0  0  0  0  0  0  0  0  0  0  0  0
   39.2610   31.0360   47.3120 N   0  0  0  0  0  0  0  0  0  0  0  0
   37.4960   30.2860   48.9000 C   0  0  0  0  0  0  0  0  0  0  0  0
   38.0940   30.7420   50.0570 C   0  0  0  0  0  0  0  0  0  0  0  0
   37.5740   30.4100   51.2880 C   0  0  0  0  0  0  0  0  0  0  0  0
   36.4520   29.6200   51.4250 C   0  0  0  0  0  0  0  0  0  0  0  0
   35.8120   29.1360   50.3030 C   0  0  0  0  0  0  0  0  0  0  0  0
   36.3610   29.4880   49.0860 C   0  0  0  0  0  0  0  0  0  0  0  0
   37.9401   33.1921   45.7676 H   0  0  0  0  0  0  0  0  0  0  0  0
   41.0397   33.1017   45.1867 H   0  0  0  0  0  0  0  0  0  0  0  0
   40.7639   33.5304   46.6511 H   0  0  0  0  0  0  0  0  0  0  0  0
   39.7713   30.4964   45.5414 H   0  0  0  0  0  0  0  0  0  0  0  0
   35.7302   32.3794   42.1668 H   0  0  0  0  0  0  0  0  0  0  0  0
   37.3974   33.0210   40.3807 H   0  0  0  0  0  0  0  0  0  0  0  0
   39.8169   33.5058   41.0692 H   0  0  0  0  0  0  0  0  0  0  0  0
   39.9550   31.0612   48.0726 H   0  0  0  0  0  0  0  0  0  0  0  0
   38.9917   31.3747   49.9955 H   0  0  0  0  0  0  0  0  0  0  0  0
   38.0708   30.7881   52.1936 H   0  0  0  0  0  0  0  0  0  0  0  0
   36.0683   29.3764   52.4267 H   0  0  0  0  0  0  0  0  0  0  0  0
   34.9140   28.5046   50.3739 H   0  0  0  0  0  0  0  0  0  0  0  0
   35.8622   29.1076   48.1824 H   0  0  0  0  0  0  0  0  0  0  0  0
  1  2  1  0
  1  3  1  0
  2  3  1  0
  3 12  1  0
  4  9  2  0
  5  6  2  0
  5  4  1  0
  6  7  1  0
  7  8  2  0
  8  1  1  0
  9  8  1  0
 10 13  1  0
 11 10  2  0
 12 10  1  0
 13 18  1  0
 13 14  2  0
 14 15  1  0
 15 16  2  0
 17 16  1  0
 18 17  2  0
  1 19  1  1
  2 20  1  0
  2 21  1  0
  3 22  1  6
  4 23  1  0
  5 24  1  0
  6 25  1  0
 12 26  1  0
 14 27  1  0
 15 28  1  0
 16 29  1  0
 17 30  1  0
 18 31  1  0
M  ISO  8  19  13  20  13  21  13  22  13  23  14  24  14  25  14  27  14
M  ISO  4  28  14  29  14  30  14  31  14
M  END
>  <minimizedAffinity>  (1) 
-6.22507

>  <minimizedRMSD>  (1) 
3.5443418

$$$$
