
     RDKit          3D

 28 30  0  0  1  0  0  0  0  0999 V2000
   39.8670   32.2720   46.0670 C   0  0  2  0  0  0  0  0  0  0  0  0
   40.1060   33.6300   45.5930 C   0  0  0  0  0  0  0  0  0  0  0  0
   39.2210   32.6420   44.8130 C   0  0  1  0  0  0  0  0  0  0  0  0
   37.6330   30.4800   48.4220 C   0  0  0  0  0  0  0  0  0  0  0  0
   37.4900   31.4340   49.4630 C   0  0  0  0  0  0  0  0  0  0  0  0
   38.1660   32.6970   49.3470 C   0  0  0  0  0  0  0  0  0  0  0  0
   38.9150   32.9050   48.2270 N   0  0  0  0  0  0  0  0  0  0  0  0
   39.0200   31.9550   47.2580 C   0  0  0  0  0  0  0  0  0  0  0  0
   38.4050   30.7590   47.3220 N   0  0  0  0  0  0  0  0  0  0  0  0
   39.4810   30.8230   43.1640 C   0  0  0  0  0  0  0  0  0  0  0  0
   38.5550   30.2010   43.7360 O   0  0  0  0  0  0  0  0  0  0  0  0
   39.8410   32.1520   43.5790 N   0  0  0  0  0  0  0  0  0  0  0  0
   40.3320   30.3660   42.0320 C   0  0  0  0  0  0  0  0  0  0  0  0
   40.3520   31.0390   40.8050 C   0  0  0  0  0  0  0  0  0  0  0  0
   41.1290   30.6070   39.7970 C   0  0  0  0  0  0  0  0  0  0  0  0
   41.9510   29.3810   40.0800 C   0  0  0  0  0  0  0  0  0  0  0  0
   41.4260   29.0390   41.8730 S   0  0  0  0  0  0  0  0  0  0  0  0
   40.5577   31.4770   46.3845 H   0  0  0  0  0  0  0  0  0  0  0  0
   39.6548   34.4872   46.1141 H   0  0  0  0  0  0  0  0  0  0  0  0
   40.9918   34.2421   45.3680 H   0  0  0  0  0  0  0  0  0  0  0  0
   38.1880   32.6033   44.4369 H   0  0  0  0  0  0  0  0  0  0  0  0
   37.1211   29.5093   48.4973 H   0  0  0  0  0  0  0  0  0  0  0  0
   36.8715   31.2103   50.3447 H   0  0  0  0  0  0  0  0  0  0  0  0
   38.0824   33.4648   50.1302 H   0  0  0  0  0  0  0  0  0  0  0  0
   40.5000   32.7292   43.0373 H   0  0  0  0  0  0  0  0  0  0  0  0
   39.7247   31.9316   40.6640 H   0  0  0  0  0  0  0  0  0  0  0  0
   41.1613   31.1195   38.8242 H   0  0  0  0  0  0  0  0  0  0  0  0
   42.6554   28.8372   39.4334 H   0  0  0  0  0  0  0  0  0  0  0  0
  1  8  1  0
  2  1  1  0
  3  2  1  0
  3  1  1  0
  4  5  2  0
  6  5  1  0
  7  6  2  0
  8  9  2  0
  8  7  1  0
  9  4  1  0
 10 12  1  0
 10 11  2  0
 12  3  1  0
 13 10  1  0
 14 13  2  0
 15 16  2  0
 15 14  1  0
 16 17  1  0
 17 13  1  0
  1 18  1  6
  2 19  1  0
  2 20  1  0
  3 21  1  1
  4 22  1  0
  5 23  1  0
  6 24  1  0
 12 25  1  0
 14 26  1  0
 15 27  1  0
 16 28  1  0
M  ISO  8  18  13  19  13  20  13  21  13  22  14  23  14  24  14  26  14
M  ISO  2  27  14  28  14
M  END
>  <minimizedAffinity>  (1) 
-4.83688068

>  <minimizedRMSD>  (1) 
7.97349072

$$$$
