
     RDKit          3D

 23 24  0  0  1  0  0  0  0  0999 V2000
   38.3060   30.5050   47.1520 C   0  0  2  0  0  0  0  0  0  0  0  0
   36.9160   30.6130   47.5780 C   0  0  0  0  0  0  0  0  0  0  0  0
   38.0840   31.0330   48.4900 C   0  0  1  0  0  0  0  0  0  0  0  0
   40.7980   32.3310   45.1090 C   0  0  0  0  0  0  0  0  0  0  0  0
   39.9700   33.0320   44.1940 C   0  0  0  0  0  0  0  0  0  0  0  0
   38.5480   32.8640   44.2910 C   0  0  0  0  0  0  0  0  0  0  0  0
   38.0740   32.0310   45.2680 N   0  0  0  0  0  0  0  0  0  0  0  0
   38.9110   31.3900   46.1110 C   0  0  0  0  0  0  0  0  0  0  0  0
   40.2730   31.5230   46.0510 N   0  0  0  0  0  0  0  0  0  0  0  0
   37.6060   30.4370   50.8370 C   0  0  0  0  0  0  0  0  0  0  0  0
   36.7240   31.3310   50.8660 O   0  0  0  0  0  0  0  0  0  0  0  0
   38.3030   30.1240   49.6150 N   0  0  0  0  0  0  0  0  0  0  0  0
   37.9460   29.7000   52.0300 N   0  0  0  0  0  0  0  0  0  0  0  0
   38.8784   29.6649   46.7317 H   0  0  0  0  0  0  0  0  0  0  0  0
   36.2566   31.3734   47.1343 H   0  0  0  0  0  0  0  0  0  0  0  0
   36.0593   29.9276   47.6577 H   0  0  0  0  0  0  0  0  0  0  0  0
   38.4120   31.9370   49.0240 H   0  0  0  0  0  0  0  0  0  0  0  0
   41.8899   32.4496   45.0480 H   0  0  0  0  0  0  0  0  0  0  0  0
   40.4080   33.6889   43.4281 H   0  0  0  0  0  0  0  0  0  0  0  0
   37.8641   33.3856   43.6052 H   0  0  0  0  0  0  0  0  0  0  0  0
   38.9220   29.3044   49.5379 H   0  0  0  0  0  0  0  0  0  0  0  0
   38.6708   28.9690   51.9948 H   0  0  0  0  0  0  0  0  0  0  0  0
   37.4639   29.9049   52.9168 H   0  0  0  0  0  0  0  0  0  0  0  0
  1  2  1  0
  1  3  1  0
  2  3  1  0
  3 12  1  0
  4  9  2  0
  5  6  2  0
  5  4  1  0
  6  7  1  0
  7  8  2  0
  8  1  1  0
  9  8  1  0
 10 11  2  0
 10 13  1  0
 12 10  1  0
  1 14  1  1
  2 15  1  0
  2 16  1  0
  3 17  1  1
  4 18  1  0
  5 19  1  0
  6 20  1  0
 12 21  1  0
 13 22  1  0
 13 23  1  0
M  ISO  7  14  13  15  13  16  13  17  13  18  14  19  14  20  14
M  END
>  <minimizedAffinity>  (1) 
-4.77660084

>  <minimizedRMSD>  (1) 
0.236097664

$$$$
