
     RDKit          3D

 30 32  0  0  1  0  0  0  0  0999 V2000
   38.4250   31.1200   48.2190 C   0  0  2  0  0  0  0  0  0  0  0  0
   38.6940   32.5470   48.1040 C   0  0  0  0  0  0  0  0  0  0  0  0
   38.0440   31.7470   46.9580 C   0  0  1  0  0  0  0  0  0  0  0  0
   35.0950   30.2100   49.5570 C   0  0  0  0  0  0  0  0  0  0  0  0
   35.4220   29.5470   50.7720 C   0  0  0  0  0  0  0  0  0  0  0  0
   36.8150   29.4310   51.1010 C   0  0  0  0  0  0  0  0  0  0  0  0
   37.7400   29.9490   50.2560 N   0  0  0  0  0  0  0  0  0  0  0  0
   37.3570   30.5700   49.1090 C   0  0  0  0  0  0  0  0  0  0  0  0
   36.0460   30.7130   48.7380 N   0  0  0  0  0  0  0  0  0  0  0  0
   38.3970   31.8460   44.5190 C   0  0  0  0  0  0  0  0  0  0  0  0
   37.3000   32.4460   44.4020 O   0  0  0  0  0  0  0  0  0  0  0  0
   38.9340   31.5290   45.8160 N   0  0  0  0  0  0  0  0  0  0  0  0
   39.1770   31.4440   43.3270 C   0  0  0  0  0  0  0  0  0  0  0  0
   40.1510   30.4800   43.4840 C   0  0  0  0  0  0  0  0  0  0  0  0
   40.8780   30.1090   42.3630 C   0  0  0  0  0  0  0  0  0  0  0  0
   40.5880   30.7160   41.1700 C   0  0  0  0  0  0  0  0  0  0  0  0
   39.6050   31.6910   41.0080 C   0  0  0  0  0  0  0  0  0  0  0  0
   38.9380   32.0050   42.1320 N   0  0  0  0  0  0  0  0  0  0  0  0
   39.0678   30.2734   48.5019 H   0  0  0  0  0  0  0  0  0  0  0  0
   38.1009   33.2719   48.6809 H   0  0  0  0  0  0  0  0  0  0  0  0
   39.5769   33.1942   48.2120 H   0  0  0  0  0  0  0  0  0  0  0  0
   37.1188   31.7898   46.3646 H   0  0  0  0  0  0  0  0  0  0  0  0
   34.0371   30.3167   49.2752 H   0  0  0  0  0  0  0  0  0  0  0  0
   34.6412   29.1404   51.4316 H   0  0  0  0  0  0  0  0  0  0  0  0
   37.1279   28.9278   52.0278 H   0  0  0  0  0  0  0  0  0  0  0  0
   39.8916   31.1686   45.9344 H   0  0  0  0  0  0  0  0  0  0  0  0
   40.3444   30.0212   44.4649 H   0  0  0  0  0  0  0  0  0  0  0  0
   41.6678   29.3463   42.4302 H   0  0  0  0  0  0  0  0  0  0  0  0
   41.1670   30.4153   40.2843 H   0  0  0  0  0  0  0  0  0  0  0  0
   39.3923   32.1652   40.0385 H   0  0  0  0  0  0  0  0  0  0  0  0
  1  8  1  0
  2  1  1  0
  3  2  1  0
  3  1  1  0
  4  5  2  0
  5  6  1  0
  7  6  2  0
  8  7  1  0
  9  8  2  0
  9  4  1  0
 10 12  1  0
 11 10  2  0
 12  3  1  0
 13 14  2  0
 13 10  1  0
 15 14  1  0
 16 15  2  0
 17 16  1  0
 17 18  2  0
 18 13  1  0
  1 19  1  6
  2 20  1  0
  2 21  1  0
  3 22  1  6
  4 23  1  0
  5 24  1  0
  6 25  1  0
 12 26  1  0
 14 27  1  0
 15 28  1  0
 16 29  1  0
 17 30  1  0
M  ISO  8  19  13  20  13  21  13  22  13  23  14  24  14  25  14  27  14
M  ISO  3  28  14  29  14  30  14
M  END
>  <minimizedAffinity>  (1) 
-5.03376913

>  <minimizedRMSD>  (1) 
7.974051

$$$$
