
     RDKit          3D

 33 35  0  0  0  0  0  0  0  0999 V2000
   31.7180   29.5680   45.4970 C   0  0  0  0  0  0  0  0  0  0  0  0
   30.9050   28.9750   44.5680 C   0  0  0  0  0  0  0  0  0  0  0  0
   29.8110   28.5440   45.1780 N   0  0  0  0  0  0  0  0  0  0  0  0
   29.8790   28.8360   46.4920 C   0  0  0  0  0  0  0  0  0  0  0  0
   31.0550   29.4660   46.6800 N   0  0  0  0  0  0  0  0  0  0  0  0
   30.8120   27.6740   49.1580 Cl  0  0  0  0  0  0  0  0  0  0  0  0
   29.1460   28.0040   48.7460 C   0  0  0  0  0  0  0  0  0  0  0  0
   28.8820   28.5320   47.4980 C   0  0  0  0  0  0  0  0  0  0  0  0
   27.5480   28.7710   47.2340 C   0  0  0  0  0  0  0  0  0  0  0  0
   26.4880   28.5340   48.0860 C   0  0  0  0  0  0  0  0  0  0  0  0
   26.7910   28.0080   49.3240 C   0  0  0  0  0  0  0  0  0  0  0  0
   28.1280   27.7450   49.6450 C   0  0  0  0  0  0  0  0  0  0  0  0
   28.5190   27.0740   51.2230 Cl  0  0  0  0  0  0  0  0  0  0  0  0
   32.9830   30.1730   45.3350 O   0  0  0  0  0  0  0  0  0  0  0  0
   35.5210   29.9060   45.6660 O   0  0  0  0  0  0  0  0  0  0  0  0
   34.2040   29.7060   46.3960 P   0  0  2  0  0  0  0  0  0  0  0  0
   34.0040   28.0680   46.8400 O   0  0  0  0  0  0  0  0  0  0  0  0
   34.1130   30.5990   47.8390 O   0  0  0  0  0  0  0  0  0  0  0  0
   34.8760   30.2920   48.9590 C   0  0  0  0  0  0  0  0  0  0  0  0
   34.4960   29.4500   50.0080 C   0  0  0  0  0  0  0  0  0  0  0  0
   35.3910   29.2640   51.0380 C   0  0  0  0  0  0  0  0  0  0  0  0
   36.5910   29.8810   51.0200 N   0  0  0  0  0  0  0  0  0  0  0  0
   36.9380   30.7020   49.9780 C   0  0  0  0  0  0  0  0  0  0  0  0
   36.0670   30.8960   48.9540 N   0  0  0  0  0  0  0  0  0  0  0  0
   31.1239   28.8736   43.4948 H   0  0  0  0  0  0  0  0  0  0  0  0
   29.0273   28.0593   44.7179 H   0  0  0  0  0  0  0  0  0  0  0  0
   27.3059   29.1920   46.2470 H   0  0  0  0  0  0  0  0  0  0  0  0
   25.4513   28.7542   47.7914 H   0  0  0  0  0  0  0  0  0  0  0  0
   25.9922   27.7976   50.0504 H   0  0  0  0  0  0  0  0  0  0  0  0
   33.9948   27.9924   47.8271 H   0  0  0  0  0  0  0  0  0  0  0  0
   33.5149   28.9526   50.0107 H   0  0  0  0  0  0  0  0  0  0  0  0
   35.1261   28.6084   51.8806 H   0  0  0  0  0  0  0  0  0  0  0  0
   37.9180   31.2016   49.9714 H   0  0  0  0  0  0  0  0  0  0  0  0
  1  5  1  0
  2  3  1  0
  2  1  2  0
  3  4  1  0
  4  5  2  0
  4  8  1  0
  7  6  1  0
  7 12  2  0
  8  7  1  0
  9  8  2  0
  9 10  1  0
 10 11  2  0
 11 12  1  0
 12 13  1  0
 14  1  1  0
 14 16  1  0
 16 15  2  0
 16 17  1  0
 16 18  1  0
 18 19  1  0
 19 20  2  0
 20 21  1  0
 22 21  2  0
 23 22  1  0
 24 19  1  0
 24 23  2  0
  2 25  1  0
  3 26  1  0
  9 27  1  0
 10 28  1  0
 11 29  1  0
 17 30  1  0
 20 31  1  0
 21 32  1  0
 23 33  1  0
M  ISO  8  25  14  26   9  27  14  28  14  29  14  30   3  31  14  32  14
M  ISO  1  33  14
M  END
>  <minimizedAffinity>  (1) 
-5.29313612

>  <minimizedRMSD>  (1) 
1.89928091

$$$$
