
     RDKit          3D

 40 43  0  0  1  0  0  0  0  0999 V2000
   38.0900   31.1140   44.9050 C   0  0  0  0  0  0  0  0  0  0  0  0
   37.0810   30.4040   45.1480 O   0  0  0  0  0  0  0  0  0  0  0  0
   38.5220   32.1140   45.8520 N   0  0  0  0  0  0  0  0  0  0  0  0
   38.8630   30.9580   43.6620 C   0  0  0  0  0  0  0  0  0  0  0  0
   40.1260   30.4340   43.7310 C   0  0  0  0  0  0  0  0  0  0  0  0
   40.8310   30.3010   42.5450 C   0  0  0  0  0  0  0  0  0  0  0  0
   40.2290   30.6990   41.3760 C   0  0  0  0  0  0  0  0  0  0  0  0
   38.9540   31.2290   41.3030 C   0  0  0  0  0  0  0  0  0  0  0  0
   38.3350   31.3280   42.4860 N   0  0  0  0  0  0  0  0  0  0  0  0
   38.6450   34.2080   41.0150 Cl  0  0  0  0  0  0  0  0  0  0  0  0
   38.1270   33.0030   39.8550 C   0  0  0  0  0  0  0  0  0  0  0  0
   38.3090   31.6540   40.0680 C   0  0  0  0  0  0  0  0  0  0  0  0
   37.8760   30.7660   39.1080 C   0  0  0  0  0  0  0  0  0  0  0  0
   37.2570   31.1360   37.9220 C   0  0  0  0  0  0  0  0  0  0  0  0
   37.0840   32.5050   37.7270 C   0  0  0  0  0  0  0  0  0  0  0  0
   37.5080   33.4170   38.6700 C   0  0  0  0  0  0  0  0  0  0  0  0
   38.5880   31.3030   48.2060 C   0  0  2  0  0  0  0  0  0  0  0  0
   38.8120   32.7590   48.2570 C   0  0  0  0  0  0  0  0  0  0  0  0
   37.9300   32.0750   47.1800 C   0  0  1  0  0  0  0  0  0  0  0  0
   36.0010   29.1510   49.7680 C   0  0  0  0  0  0  0  0  0  0  0  0
   36.2650   29.3310   51.1650 C   0  0  0  0  0  0  0  0  0  0  0  0
   37.3480   30.2150   51.5310 C   0  0  0  0  0  0  0  0  0  0  0  0
   38.0700   30.8380   50.5520 N   0  0  0  0  0  0  0  0  0  0  0  0
   37.7520   30.6120   49.2410 C   0  0  0  0  0  0  0  0  0  0  0  0
   36.7310   29.7810   48.8220 N   0  0  0  0  0  0  0  0  0  0  0  0
   39.2211   32.8263   45.5977 H   0  0  0  0  0  0  0  0  0  0  0  0
   40.5652   30.1297   44.6925 H   0  0  0  0  0  0  0  0  0  0  0  0
   41.8497   29.8861   42.5399 H   0  0  0  0  0  0  0  0  0  0  0  0
   40.7965   30.5892   40.4401 H   0  0  0  0  0  0  0  0  0  0  0  0
   38.0310   29.6929   39.2935 H   0  0  0  0  0  0  0  0  0  0  0  0
   36.9235   30.3941   37.1815 H   0  0  0  0  0  0  0  0  0  0  0  0
   36.6014   32.8637   36.8059 H   0  0  0  0  0  0  0  0  0  0  0  0
   37.3568   34.4912   38.4874 H   0  0  0  0  0  0  0  0  0  0  0  0
   39.2811   30.4489   48.1949 H   0  0  0  0  0  0  0  0  0  0  0  0
   38.3533   33.3671   49.0506 H   0  0  0  0  0  0  0  0  0  0  0  0
   39.6835   33.4301   48.2627 H   0  0  0  0  0  0  0  0  0  0  0  0
   36.8908   32.1238   46.8226 H   0  0  0  0  0  0  0  0  0  0  0  0
   35.1836   28.4832   49.4583 H   0  0  0  0  0  0  0  0  0  0  0  0
   35.6657   28.8156   51.9300 H   0  0  0  0  0  0  0  0  0  0  0  0
   37.5897   30.3853   52.5905 H   0  0  0  0  0  0  0  0  0  0  0  0
  1  2  2  0
  1  3  1  0
  3 19  1  0
  4  5  2  0
  4  1  1  0
  6  5  1  0
  7  6  2  0
  8  7  1  0
  8  9  2  0
  9  4  1  0
 11 12  2  0
 11 10  1  0
 12  8  1  0
 13 12  1  0
 14 13  2  0
 15 14  1  0
 15 16  2  0
 16 11  1  0
 17 18  1  0
 17 24  1  0
 19 17  1  0
 19 18  1  0
 20 21  2  0
 21 22  1  0
 23 22  2  0
 24 23  1  0
 25 24  2  0
 25 20  1  0
  3 26  1  0
  5 27  1  0
  6 28  1  0
  7 29  1  0
 13 30  1  0
 14 31  1  0
 15 32  1  0
 16 33  1  0
 17 34  1  6
 18 35  1  0
 18 36  1  0
 19 37  1  6
 20 38  1  0
 21 39  1  0
 22 40  1  0
M  ISO  8  27  14  28  14  29  14  30  14  31  14  32  14  33  14  34  13
M  ISO  6  35  13  36  13  37  13  38  14  39  14  40  14
M  END
>  <minimizedAffinity>  (1) 
-5.34966516

>  <minimizedRMSD>  (1) 
1.24214935

$$$$
