
     RDKit          3D

 37 40  0  0  1  0  0  0  0  0999 V2000
   38.3790   31.8480   44.5680 C   0  0  0  0  0  0  0  0  0  0  0  0
   37.2470   32.4080   44.4490 O   0  0  0  0  0  0  0  0  0  0  0  0
   38.9290   31.5810   45.8620 N   0  0  0  0  0  0  0  0  0  0  0  0
   39.1490   31.4600   43.3780 C   0  0  0  0  0  0  0  0  0  0  0  0
   40.1150   30.4980   43.5180 C   0  0  0  0  0  0  0  0  0  0  0  0
   40.8440   30.1150   42.4090 C   0  0  0  0  0  0  0  0  0  0  0  0
   40.5550   30.7310   41.2100 C   0  0  0  0  0  0  0  0  0  0  0  0
   39.5820   31.7030   41.0590 C   0  0  0  0  0  0  0  0  0  0  0  0
   38.9260   32.0130   42.1790 N   0  0  0  0  0  0  0  0  0  0  0  0
   39.2950   32.3410   39.7810 C   0  0  0  0  0  0  0  0  0  0  0  0
   38.6380   33.5580   39.6690 C   0  0  0  0  0  0  0  0  0  0  0  0
   38.5950   33.7550   38.2860 C   0  0  0  0  0  0  0  0  0  0  0  0
   39.2030   32.6870   37.6560 C   0  0  0  0  0  0  0  0  0  0  0  0
   39.6150   31.8520   38.5880 O   0  0  0  0  0  0  0  0  0  0  0  0
   38.4260   31.1310   48.2580 C   0  0  2  0  0  0  0  0  0  0  0  0
   38.6950   32.5730   48.1560 C   0  0  0  0  0  0  0  0  0  0  0  0
   38.0520   31.7540   47.0100 C   0  0  1  0  0  0  0  0  0  0  0  0
   35.0830   30.1980   49.5470 C   0  0  0  0  0  0  0  0  0  0  0  0
   35.4030   29.5530   50.7850 C   0  0  0  0  0  0  0  0  0  0  0  0
   36.8000   29.4670   51.1450 C   0  0  0  0  0  0  0  0  0  0  0  0
   37.7430   29.9910   50.3110 N   0  0  0  0  0  0  0  0  0  0  0  0
   37.3480   30.5900   49.1460 C   0  0  0  0  0  0  0  0  0  0  0  0
   36.0350   30.7090   48.7360 N   0  0  0  0  0  0  0  0  0  0  0  0
   39.9069   31.2784   45.9761 H   0  0  0  0  0  0  0  0  0  0  0  0
   40.3069   30.0379   44.4985 H   0  0  0  0  0  0  0  0  0  0  0  0
   41.6272   29.3459   42.4800 H   0  0  0  0  0  0  0  0  0  0  0  0
   41.1314   30.4324   40.3219 H   0  0  0  0  0  0  0  0  0  0  0  0
   38.2486   34.2055   40.4684 H   0  0  0  0  0  0  0  0  0  0  0  0
   38.1478   34.6231   37.7796 H   0  0  0  0  0  0  0  0  0  0  0  0
   39.3220   32.5568   36.5702 H   0  0  0  0  0  0  0  0  0  0  0  0
   39.0689   30.2820   48.5332 H   0  0  0  0  0  0  0  0  0  0  0  0
   38.0955   33.2944   48.7306 H   0  0  0  0  0  0  0  0  0  0  0  0
   39.5716   33.2277   48.2698 H   0  0  0  0  0  0  0  0  0  0  0  0
   37.1249   31.7695   46.4181 H   0  0  0  0  0  0  0  0  0  0  0  0
   34.0280   30.2800   49.2468 H   0  0  0  0  0  0  0  0  0  0  0  0
   34.6177   29.1400   51.4352 H   0  0  0  0  0  0  0  0  0  0  0  0
   37.1006   28.9821   52.0855 H   0  0  0  0  0  0  0  0  0  0  0  0
  1  3  1  0
  2  1  2  0
  3 17  1  0
  4  5  2  0
  4  1  1  0
  6  5  1  0
  7  6  2  0
  8  7  1  0
  8  9  2  0
  9  4  1  0
 10  8  1  0
 11 10  2  0
 12 11  1  0
 13 12  2  0
 13 14  1  0
 14 10  1  0
 15 22  1  0
 16 15  1  0
 17 16  1  0
 17 15  1  0
 18 19  2  0
 19 20  1  0
 21 20  2  0
 22 21  1  0
 23 22  2  0
 23 18  1  0
  3 24  1  0
  5 25  1  0
  6 26  1  0
  7 27  1  0
 11 28  1  0
 12 29  1  0
 13 30  1  0
 15 31  1  6
 16 32  1  0
 16 33  1  0
 17 34  1  6
 18 35  1  0
 19 36  1  0
 20 37  1  0
M  ISO  8  25  14  26  14  27  14  28  14  29  14  30  14  31  13  32  13
M  ISO  5  33  13  34  13  35  14  36  14  37  14
M  END
>  <minimizedAffinity>  (1) 
-5.16156864

>  <minimizedRMSD>  (1) 
0.158691987

$$$$
