
     RDKit          3D

 32 34  0  0  1  0  0  0  0  0999 V2000
   38.4400   31.1210   48.1660 C   0  0  2  0  0  0  0  0  0  0  0  0
   38.7160   32.5650   48.0950 C   0  0  0  0  0  0  0  0  0  0  0  0
   38.0650   31.7700   46.9350 C   0  0  1  0  0  0  0  0  0  0  0  0
   35.0890   30.2410   49.4950 C   0  0  0  0  0  0  0  0  0  0  0  0
   35.4200   29.5540   50.7030 C   0  0  0  0  0  0  0  0  0  0  0  0
   36.8170   29.4160   51.0380 C   0  0  0  0  0  0  0  0  0  0  0  0
   37.7560   29.9420   50.2000 N   0  0  0  0  0  0  0  0  0  0  0  0
   37.3640   30.5830   49.0670 C   0  0  0  0  0  0  0  0  0  0  0  0
   36.0470   30.7480   48.6900 N   0  0  0  0  0  0  0  0  0  0  0  0
   38.3550   31.9010   44.4860 C   0  0  0  0  0  0  0  0  0  0  0  0
   37.2440   32.4550   44.3850 O   0  0  0  0  0  0  0  0  0  0  0  0
   38.9360   31.6260   45.7830 N   0  0  0  0  0  0  0  0  0  0  0  0
   39.1280   31.5030   43.2920 C   0  0  0  0  0  0  0  0  0  0  0  0
   40.1390   30.5800   43.4350 C   0  0  0  0  0  0  0  0  0  0  0  0
   40.8560   30.2240   42.3040 C   0  0  0  0  0  0  0  0  0  0  0  0
   40.5200   30.8130   41.1100 C   0  0  0  0  0  0  0  0  0  0  0  0
   39.4980   31.7460   40.9620 C   0  0  0  0  0  0  0  0  0  0  0  0
   38.8330   32.0550   42.0940 N   0  0  0  0  0  0  0  0  0  0  0  0
   39.1830   32.3380   39.6650 C   0  0  0  0  0  0  0  0  0  0  0  0
   38.8460   33.5540   39.6300 O   0  0  0  0  0  0  0  0  0  0  0  0
   39.0750   30.2566   48.4099 H   0  0  0  0  0  0  0  0  0  0  0  0
   38.1216   33.2768   48.6866 H   0  0  0  0  0  0  0  0  0  0  0  0
   39.5955   33.2139   48.2195 H   0  0  0  0  0  0  0  0  0  0  0  0
   37.1353   31.7965   46.3476 H   0  0  0  0  0  0  0  0  0  0  0  0
   34.0319   30.3594   49.2149 H   0  0  0  0  0  0  0  0  0  0  0  0
   34.6359   29.1437   51.3563 H   0  0  0  0  0  0  0  0  0  0  0  0
   37.1206   28.8935   51.9571 H   0  0  0  0  0  0  0  0  0  0  0  0
   39.9208   31.3416   45.8836 H   0  0  0  0  0  0  0  0  0  0  0  0
   40.3704   30.1390   44.4158 H   0  0  0  0  0  0  0  0  0  0  0  0
   41.6726   29.4892   42.3611 H   0  0  0  0  0  0  0  0  0  0  0  0
   41.0940   30.5300   40.2153 H   0  0  0  0  0  0  0  0  0  0  0  0
   39.2379   31.7404   38.7431 H   0  0  0  0  0  0  0  0  0  0  0  0
  1  8  1  0
  2  1  1  0
  3  2  1  0
  3  1  1  0
  4  5  2  0
  5  6  1  0
  7  6  2  0
  8  7  1  0
  9  8  2  0
  9  4  1  0
 10 12  1  0
 11 10  2  0
 12  3  1  0
 13 14  2  0
 13 10  1  0
 15 14  1  0
 16 15  2  0
 17 16  1  0
 17 18  2  0
 18 13  1  0
 19 17  1  0
 20 19  2  0
  1 21  1  6
  2 22  1  0
  2 23  1  0
  3 24  1  6
  4 25  1  0
  5 26  1  0
  6 27  1  0
 12 28  1  0
 14 29  1  0
 15 30  1  0
 16 31  1  0
 19 32  1  0
M  ISO  8  21  13  22  13  23  13  24  13  25  14  26  14  27  14  29  14
M  ISO  3  30  14  31  14  32   6
M  END
>  <minimizedAffinity>  (1) 
-4.98254585

>  <minimizedRMSD>  (1) 
0.106977157

$$$$
