
     RDKit          3D

 45 49  0  0  1  0  0  0  0  0999 V2000
   38.4790   31.7340   43.7940 C   0  0  0  0  0  0  0  0  0  0  0  0
   39.6140   30.9950   43.6140 C   0  0  0  0  0  0  0  0  0  0  0  0
   40.2180   31.0420   42.3670 C   0  0  0  0  0  0  0  0  0  0  0  0
   39.6480   31.8170   41.3930 C   0  0  0  0  0  0  0  0  0  0  0  0
   38.4860   32.5740   41.5770 C   0  0  0  0  0  0  0  0  0  0  0  0
   37.9470   32.4880   42.8080 N   0  0  0  0  0  0  0  0  0  0  0  0
   37.8120   31.7080   45.1140 C   0  0  0  0  0  0  0  0  0  0  0  0
   36.8480   30.9570   45.3420 O   0  0  0  0  0  0  0  0  0  0  0  0
   38.3290   32.6020   46.1440 N   0  0  0  0  0  0  0  0  0  0  0  0
   38.5540   31.4160   48.3170 C   0  0  2  0  0  0  0  0  0  0  0  0
   38.8960   32.8410   48.5690 C   0  0  0  0  0  0  0  0  0  0  0  0
   37.8860   32.3720   47.4960 C   0  0  1  0  0  0  0  0  0  0  0  0
   36.1130   29.0400   49.8150 C   0  0  0  0  0  0  0  0  0  0  0  0
   36.3690   29.2050   51.2130 C   0  0  0  0  0  0  0  0  0  0  0  0
   37.3870   30.1540   51.6110 C   0  0  0  0  0  0  0  0  0  0  0  0
   38.0710   30.8610   50.6500 N   0  0  0  0  0  0  0  0  0  0  0  0
   37.7600   30.6390   49.3450 C   0  0  0  0  0  0  0  0  0  0  0  0
   36.7970   29.7450   48.8890 N   0  0  0  0  0  0  0  0  0  0  0  0
   37.9090   33.3890   40.5100 C   0  0  0  0  0  0  0  0  0  0  0  0
   38.6800   33.8650   39.6440 O   0  0  0  0  0  0  0  0  0  0  0  0
   35.8130   34.7030   41.0080 C   0  0  0  0  0  0  0  0  0  0  0  0
   36.4500   33.6080   40.5110 C   0  0  0  0  0  0  0  0  0  0  0  0
   35.6360   32.6290   39.9660 C   0  0  0  0  0  0  0  0  0  0  0  0
   34.2580   32.7060   39.9040 C   0  0  0  0  0  0  0  0  0  0  0  0
   33.3420   31.8320   39.4030 N   0  0  0  0  0  0  0  0  0  0  0  0
   32.1520   32.4280   39.6120 C   0  0  0  0  0  0  0  0  0  0  0  0
   32.3200   33.6130   40.2120 N   0  0  0  0  0  0  0  0  0  0  0  0
   33.6460   33.8270   40.4150 C   0  0  0  0  0  0  0  0  0  0  0  0
   34.4360   34.8200   40.9650 C   0  0  0  0  0  0  0  0  0  0  0  0
   40.0330   30.3854   44.4282 H   0  0  0  0  0  0  0  0  0  0  0  0
   41.1350   30.4692   42.1646 H   0  0  0  0  0  0  0  0  0  0  0  0
   40.1330   31.8463   40.4061 H   0  0  0  0  0  0  0  0  0  0  0  0
   38.9824   33.3646   45.9150 H   0  0  0  0  0  0  0  0  0  0  0  0
   39.1628   30.5261   48.0991 H   0  0  0  0  0  0  0  0  0  0  0  0
   38.5494   33.3478   49.4817 H   0  0  0  0  0  0  0  0  0  0  0  0
   39.8103   33.4521   48.5946 H   0  0  0  0  0  0  0  0  0  0  0  0
   36.8250   32.5260   47.2499 H   0  0  0  0  0  0  0  0  0  0  0  0
   35.3438   28.3247   49.4884 H   0  0  0  0  0  0  0  0  0  0  0  0
   35.8087   28.6277   51.9632 H   0  0  0  0  0  0  0  0  0  0  0  0
   37.6123   30.3088   52.6765 H   0  0  0  0  0  0  0  0  0  0  0  0
   36.4074   35.5139   41.4543 H   0  0  0  0  0  0  0  0  0  0  0  0
   36.1189   31.7301   39.5551 H   0  0  0  0  0  0  0  0  0  0  0  0
   33.5195   30.9182   38.9622 H   0  0  0  0  0  0  0  0  0  0  0  0
   31.1786   32.0008   39.3293 H   0  0  0  0  0  0  0  0  0  0  0  0
   33.9589   35.7216   41.3768 H   0  0  0  0  0  0  0  0  0  0  0  0
  1  7  1  0
  2  1  2  0
  3  2  1  0
  4  5  1  0
  4  3  2  0
  5  6  2  0
  6  1  1  0
  7  8  2  0
  7  9  1  0
  9 12  1  0
 10 11  1  0
 10 17  1  0
 12 10  1  0
 12 11  1  0
 13 14  2  0
 14 15  1  0
 16 15  2  0
 17 16  1  0
 18 17  2  0
 18 13  1  0
 19 22  1  0
 19  5  1  0
 20 19  2  0
 22 21  2  0
 23 22  1  0
 24 23  2  0
 24 28  1  0
 25 26  1  0
 25 24  1  0
 26 27  2  0
 27 28  1  0
 28 29  2  0
 29 21  1  0
  2 30  1  0
  3 31  1  0
  4 32  1  0
  9 33  1  0
 10 34  1  6
 11 35  1  0
 11 36  1  0
 12 37  1  1
 13 38  1  0
 14 39  1  0
 15 40  1  0
 21 41  1  0
 23 42  1  0
 25 43  1  0
 26 44  1  0
 29 45  1  0
M  ISO  8  30  14  31  14  32  14  34  13  35  13  36  13  37  13  38  14
M  ISO  7  39  14  40  14  41  14  42  14  43   9  44  14  45  14
M  END
>  <minimizedAffinity>  (1) 
-5.70410967

>  <minimizedRMSD>  (1) 
4.32717371

$$$$
