
     RDKit          3D

 42 45  0  0  1  0  0  0  0  0999 V2000
   38.8830   31.0360   43.6250 C   0  0  0  0  0  0  0  0  0  0  0  0
   40.0660   30.3510   43.6600 C   0  0  0  0  0  0  0  0  0  0  0  0
   40.7810   30.2320   42.4850 C   0  0  0  0  0  0  0  0  0  0  0  0
   40.2530   30.8140   41.3460 C   0  0  0  0  0  0  0  0  0  0  0  0
   39.0570   31.5050   41.3080 C   0  0  0  0  0  0  0  0  0  0  0  0
   38.4130   31.5840   42.4830 N   0  0  0  0  0  0  0  0  0  0  0  0
   38.1070   31.1730   44.8760 C   0  0  0  0  0  0  0  0  0  0  0  0
   37.1010   30.4590   45.0990 O   0  0  0  0  0  0  0  0  0  0  0  0
   38.5530   32.1680   45.8400 N   0  0  0  0  0  0  0  0  0  0  0  0
   38.6120   31.3110   48.1630 C   0  0  2  0  0  0  0  0  0  0  0  0
   38.8300   32.7780   48.2450 C   0  0  0  0  0  0  0  0  0  0  0  0
   37.9740   32.1030   47.1630 C   0  0  1  0  0  0  0  0  0  0  0  0
   36.0230   29.1370   49.7160 C   0  0  0  0  0  0  0  0  0  0  0  0
   36.2880   29.3310   51.1140 C   0  0  0  0  0  0  0  0  0  0  0  0
   37.3600   30.2250   51.4920 C   0  0  0  0  0  0  0  0  0  0  0  0
   38.0780   30.8500   50.5080 N   0  0  0  0  0  0  0  0  0  0  0  0
   37.7700   30.6160   49.2100 C   0  0  0  0  0  0  0  0  0  0  0  0
   36.7540   29.7710   48.7760 N   0  0  0  0  0  0  0  0  0  0  0  0
   38.5540   32.0910   40.0710 C   0  0  0  0  0  0  0  0  0  0  0  0
   39.3520   32.6920   39.3130 O   0  0  0  0  0  0  0  0  0  0  0  0
   36.5960   34.2590   40.9540 Cl  0  0  0  0  0  0  0  0  0  0  0  0
   36.1450   32.9060   39.9540 C   0  0  0  0  0  0  0  0  0  0  0  0
   37.1600   32.0210   39.6520 C   0  0  0  0  0  0  0  0  0  0  0  0
   36.8220   30.9250   38.8500 C   0  0  0  0  0  0  0  0  0  0  0  0
   35.5500   30.6710   38.3440 C   0  0  0  0  0  0  0  0  0  0  0  0
   34.5900   31.5970   38.6870 C   0  0  0  0  0  0  0  0  0  0  0  0
   32.9770   31.3030   38.0640 Cl  0  0  0  0  0  0  0  0  0  0  0  0
   34.8680   32.6950   39.4750 C   0  0  0  0  0  0  0  0  0  0  0  0
   40.4368   29.9081   44.5962 H   0  0  0  0  0  0  0  0  0  0  0  0
   41.7390   29.6922   42.4552 H   0  0  0  0  0  0  0  0  0  0  0  0
   40.8226   30.7204   40.4096 H   0  0  0  0  0  0  0  0  0  0  0  0
   39.2490   32.8853   45.5911 H   0  0  0  0  0  0  0  0  0  0  0  0
   39.2941   30.4488   48.1262 H   0  0  0  0  0  0  0  0  0  0  0  0
   38.3587   33.3704   49.0431 H   0  0  0  0  0  0  0  0  0  0  0  0
   39.6952   33.4568   48.2710 H   0  0  0  0  0  0  0  0  0  0  0  0
   36.9366   32.1553   46.8010 H   0  0  0  0  0  0  0  0  0  0  0  0
   35.2118   28.4613   49.4070 H   0  0  0  0  0  0  0  0  0  0  0  0
   35.6905   28.8125   51.8783 H   0  0  0  0  0  0  0  0  0  0  0  0
   37.5946   30.3999   52.5524 H   0  0  0  0  0  0  0  0  0  0  0  0
   37.6208   30.2110   38.6008 H   0  0  0  0  0  0  0  0  0  0  0  0
   35.3282   29.7952   37.7165 H   0  0  0  0  0  0  0  0  0  0  0  0
   34.0667   33.4067   39.7230 H   0  0  0  0  0  0  0  0  0  0  0  0
  1  2  2  0
  1  7  1  0
  3  2  1  0
  4  3  2  0
  5  4  1  0
  5  6  2  0
  6  1  1  0
  7  8  2  0
  7  9  1  0
  9 12  1  0
 10 11  1  0
 10 17  1  0
 12 10  1  0
 12 11  1  0
 13 14  2  0
 14 15  1  0
 16 15  2  0
 17 16  1  0
 18 17  2  0
 18 13  1  0
 19  5  1  0
 20 19  2  0
 22 21  1  0
 23 22  2  0
 23 19  1  0
 24 23  1  0
 25 26  1  0
 25 24  2  0
 26 28  2  0
 27 26  1  0
 28 22  1  0
  2 29  1  0
  3 30  1  0
  4 31  1  0
  9 32  1  0
 10 33  1  6
 11 34  1  0
 11 35  1  0
 12 36  1  6
 13 37  1  0
 14 38  1  0
 15 39  1  0
 24 40  1  0
 25 41  1  0
 28 42  1  0
M  ISO  8  29  14  30  14  31  14  33  13  34  13  35  13  36  13  37  14
M  ISO  5  38  14  39  14  40  14  41  14  42  14
M  END
>  <minimizedAffinity>  (1) 
-5.25147104

>  <minimizedRMSD>  (1) 
2.79742527

$$$$
