
     RDKit          3D

 50 53  0  0  1  0  0  0  0  0999 V2000
   38.4200   31.8210   44.6160 C   0  0  0  0  0  0  0  0  0  0  0  0
   37.3240   32.3870   44.5730 O   0  0  0  0  0  0  0  0  0  0  0  0
   39.0160   31.4800   45.8940 N   0  0  0  0  0  0  0  0  0  0  0  0
   39.1650   31.4670   43.3940 C   0  0  0  0  0  0  0  0  0  0  0  0
   40.1900   30.5560   43.4930 C   0  0  0  0  0  0  0  0  0  0  0  0
   40.8790   30.2400   42.3280 C   0  0  0  0  0  0  0  0  0  0  0  0
   40.5020   30.8460   41.1660 C   0  0  0  0  0  0  0  0  0  0  0  0
   39.4770   31.7600   41.0580 C   0  0  0  0  0  0  0  0  0  0  0  0
   38.8260   32.0450   42.2160 N   0  0  0  0  0  0  0  0  0  0  0  0
   39.0640   32.3900   39.7920 C   0  0  0  0  0  0  0  0  0  0  0  0
   38.8600   33.6610   39.8330 O   0  0  0  0  0  0  0  0  0  0  0  0
   38.8250   31.8270   38.4380 C   0  0  0  0  0  0  0  0  0  0  0  0
   40.1090   31.5830   37.7560 C   0  0  0  0  0  0  0  0  0  0  0  0
   39.9400   30.3990   36.7940 C   0  0  0  0  0  0  0  0  0  0  0  0
   39.8050   29.1940   37.7220 C   0  0  0  0  0  0  0  0  0  0  0  0
   38.5550   29.2950   38.5530 C   0  0  0  0  0  0  0  0  0  0  0  0
   37.9000   30.6340   38.4990 C   0  0  0  0  0  0  0  0  0  0  0  0
   38.7000   31.1220   48.3370 C   0  0  2  0  0  0  0  0  0  0  0  0
   38.6620   32.5900   48.1050 C   0  0  0  0  0  0  0  0  0  0  0  0
   38.1890   31.5440   47.0740 C   0  0  1  0  0  0  0  0  0  0  0  0
   35.8770   29.1660   49.7640 C   0  0  0  0  0  0  0  0  0  0  0  0
   36.0960   29.3260   51.1760 C   0  0  0  0  0  0  0  0  0  0  0  0
   37.2230   30.1250   51.5990 C   0  0  0  0  0  0  0  0  0  0  0  0
   38.0440   30.7000   50.6600 N   0  0  0  0  0  0  0  0  0  0  0  0
   37.7600   30.4930   49.3380 C   0  0  0  0  0  0  0  0  0  0  0  0
   36.6950   29.7390   48.8560 N   0  0  0  0  0  0  0  0  0  0  0  0
   40.0050   31.1992   45.9571 H   0  0  0  0  0  0  0  0  0  0  0  0
   40.4544   30.0954   44.4563 H   0  0  0  0  0  0  0  0  0  0  0  0
   41.7088   29.5181   42.3430 H   0  0  0  0  0  0  0  0  0  0  0  0
   41.0550   30.5869   40.2511 H   0  0  0  0  0  0  0  0  0  0  0  0
   40.1190   32.5676   39.5362 H   0  0  0  0  0  0  0  0  0  0  0  0
   38.8124   33.9573   40.7764 H   0  0  0  0  0  0  0  0  0  0  0  0
   38.2911   32.5602   37.8156 H   0  0  0  0  0  0  0  0  0  0  0  0
   40.4038   32.4795   37.1909 H   0  0  0  0  0  0  0  0  0  0  0  0
   40.8888   31.3543   38.4973 H   0  0  0  0  0  0  0  0  0  0  0  0
   40.8197   30.2950   36.1418 H   0  0  0  0  0  0  0  0  0  0  0  0
   39.0781   30.5168   36.1208 H   0  0  0  0  0  0  0  0  0  0  0  0
   39.7623   28.2763   37.1170 H   0  0  0  0  0  0  0  0  0  0  0  0
   40.6743   29.1695   38.3956 H   0  0  0  0  0  0  0  0  0  0  0  0
   37.8374   28.5436   38.1919 H   0  0  0  0  0  0  0  0  0  0  0  0
   38.8522   29.1268   39.5986 H   0  0  0  0  0  0  0  0  0  0  0  0
   37.2759   30.7389   39.3987 H   0  0  0  0  0  0  0  0  0  0  0  0
   37.3377   30.6488   37.5537 H   0  0  0  0  0  0  0  0  0  0  0  0
   39.5014   30.4316   48.6387 H   0  0  0  0  0  0  0  0  0  0  0  0
   37.9350   33.2226   48.6355 H   0  0  0  0  0  0  0  0  0  0  0  0
   39.3809   33.4222   48.1278 H   0  0  0  0  0  0  0  0  0  0  0  0
   37.2683   31.2929   46.5270 H   0  0  0  0  0  0  0  0  0  0  0  0
   35.0247   28.5638   49.4163 H   0  0  0  0  0  0  0  0  0  0  0  0
   35.4267   28.8550   51.9110 H   0  0  0  0  0  0  0  0  0  0  0  0
   37.4230   30.2725   52.6706 H   0  0  0  0  0  0  0  0  0  0  0  0
  1  3  1  0
  2  1  2  0
  3 20  1  0
  4  5  2  0
  4  1  1  0
  6  5  1  0
  7  6  2  0
  8  7  1  0
  8  9  2  0
  9  4  1  0
 10 11  1  0
 10  8  1  0
 12 17  1  0
 12 10  1  0
 13 12  1  0
 14 15  1  0
 14 13  1  0
 15 16  1  0
 17 16  1  0
 18 25  1  0
 19 18  1  0
 20 19  1  0
 20 18  1  0
 21 22  2  0
 22 23  1  0
 24 23  2  0
 25 24  1  0
 26 25  2  0
 26 21  1  0
  3 27  1  0
  5 28  1  0
  6 29  1  0
  7 30  1  0
 10 31  1  0
 11 32  1  0
 12 33  1  0
 13 34  1  0
 13 35  1  0
 14 36  1  0
 14 37  1  0
 15 38  1  0
 15 39  1  0
 16 40  1  0
 16 41  1  0
 17 42  1  0
 17 43  1  0
 18 44  1  6
 19 45  1  0
 19 46  1  0
 20 47  1  6
 21 48  1  0
 22 49  1  0
 23 50  1  0
M  ISO  8  28  14  29  14  30  14  31   8  32   3  33  13  34  13  35  13
M  ISO  8  36  13  37  13  38  13  39  13  40  13  41  13  42  13  43  13
M  ISO  7  44  13  45  13  46  13  47  13  48  14  49  14  50  14
M  END
>  <minimizedAffinity>  (1) 
-5.07630682

>  <minimizedRMSD>  (1) 
0.917355835

$$$$
