
     RDKit          3D

 31 32  0  0  0  0  0  0  0  0999 V2000
   32.8500   29.8810   46.4410 O   0  0  0  0  0  0  0  0  0  0  0  0
   31.8000   28.9700   46.6000 C   0  0  0  0  0  0  0  0  0  0  0  0
   30.8560   28.5420   45.6750 C   0  0  0  0  0  0  0  0  0  0  0  0
   30.0420   27.6630   46.2690 N   0  0  0  0  0  0  0  0  0  0  0  0
   30.4280   27.5110   47.5400 C   0  0  0  0  0  0  0  0  0  0  0  0
   31.4970   28.3030   47.7490 N   0  0  0  0  0  0  0  0  0  0  0  0
   29.8630   26.6830   48.5490 N   0  0  0  0  0  0  0  0  0  0  0  0
   28.6190   27.2970   49.5660 S   0  0  0  0  0  0  0  0  0  0  0  0
   28.9580   26.9190   50.9980 O   0  0  0  0  0  0  0  0  0  0  0  0
   28.5300   28.7880   49.5070 O   0  0  0  0  0  0  0  0  0  0  0  0
   27.1410   26.5840   49.1880 O   0  0  0  0  0  0  0  0  0  0  0  0
   35.4150   29.8700   46.2930 O   0  0  0  0  0  0  0  0  0  0  0  0
   34.2910   29.5280   47.2650 P   0  0  2  0  0  0  0  0  0  0  0  0
   34.3390   27.8810   47.7070 O   0  0  0  0  0  0  0  0  0  0  0  0
   34.3750   30.4360   48.7040 O   0  0  0  0  0  0  0  0  0  0  0  0
   35.4930   30.3790   49.5400 C   0  0  0  0  0  0  0  0  0  0  0  0
   35.6790   29.4700   50.5850 C   0  0  0  0  0  0  0  0  0  0  0  0
   36.8520   29.5490   51.3220 C   0  0  0  0  0  0  0  0  0  0  0  0
   37.7710   30.4910   51.0100 N   0  0  0  0  0  0  0  0  0  0  0  0
   37.5570   31.3700   49.9740 C   0  0  0  0  0  0  0  0  0  0  0  0
   36.4200   31.3050   49.2490 N   0  0  0  0  0  0  0  0  0  0  0  0
   30.7892   28.8715   44.6276 H   0  0  0  0  0  0  0  0  0  0  0  0
   29.2486   27.1824   45.8213 H   0  0  0  0  0  0  0  0  0  0  0  0
   30.1984   25.7168   48.6706 H   0  0  0  0  0  0  0  0  0  0  0  0
   28.4443   27.4918   51.6209 H   0  0  0  0  0  0  0  0  0  0  0  0
   28.5082   29.1539   50.4266 H   0  0  0  0  0  0  0  0  0  0  0  0
   26.6627   26.3532   50.0235 H   0  0  0  0  0  0  0  0  0  0  0  0
   34.3412   27.8041   48.6940 H   0  0  0  0  0  0  0  0  0  0  0  0
   34.9161   28.7123   50.8170 H   0  0  0  0  0  0  0  0  0  0  0  0
   37.0329   28.8514   52.1530 H   0  0  0  0  0  0  0  0  0  0  0  0
   38.3159   32.1296   49.7350 H   0  0  0  0  0  0  0  0  0  0  0  0
  1  2  1  0
  1 13  1  0
  2  6  1  0
  3  4  1  0
  3  2  2  0
  4  5  1  0
  5  6  2  0
  5  7  1  0
  7  8  1  0
  8  9  1  0
 10  8  1  0
 11  8  1  0
 13 12  2  0
 13 14  1  0
 13 15  1  0
 15 16  1  0
 16 17  2  0
 17 18  1  0
 19 18  2  0
 20 19  1  0
 21 16  1  0
 21 20  2  0
  3 22  1  0
  4 23  1  0
  7 24  1  0
  9 25  1  0
 10 26  1  0
 11 27  1  0
 14 28  1  0
 17 29  1  0
 18 30  1  0
 20 31  1  0
M  ISO  8  22  14  23   9  25   3  26   3  27   3  28   3  29  14  30  14
M  ISO  1  31  14
M  END
>  <minimizedAffinity>  (1) 
-4.91155958

>  <minimizedRMSD>  (1) 
1.27372968

$$$$
