
     RDKit          3D

 22 23  0  0  0  0  0  0  0  0999 V2000
   38.4760   30.8370   49.9360 Cl  0  0  0  0  0  0  0  0  0  0  0  0
   37.0970   30.3930   48.9850 C   0  0  0  0  0  0  0  0  0  0  0  0
   37.0900   30.6500   47.6260 C   0  0  0  0  0  0  0  0  0  0  0  0
   36.0160   30.3130   46.8440 C   0  0  0  0  0  0  0  0  0  0  0  0
   34.9020   29.7010   47.3960 C   0  0  0  0  0  0  0  0  0  0  0  0
   34.8790   29.4310   48.7490 C   0  0  0  0  0  0  0  0  0  0  0  0
   33.5340   28.6630   49.5700 Cl  0  0  0  0  0  0  0  0  0  0  0  0
   35.9750   29.7850   49.4980 C   0  0  0  0  0  0  0  0  0  0  0  0
   39.5960   33.1530   46.6910 C   0  0  0  0  0  0  0  0  0  0  0  0
   40.4480   32.4340   45.8230 C   0  0  0  0  0  0  0  0  0  0  0  0
   40.1300   31.0860   45.5830 C   0  0  0  0  0  0  0  0  0  0  0  0
   39.0380   30.5650   46.1900 N   0  0  0  0  0  0  0  0  0  0  0  0
   38.2390   31.2880   47.0190 C   0  0  0  0  0  0  0  0  0  0  0  0
   38.5290   32.5850   47.2620 N   0  0  0  0  0  0  0  0  0  0  0  0
   35.9940   29.5260   50.9020 N   0  0  0  0  0  0  0  0  0  0  0  0
   36.0386   30.5308   45.7660 H   0  0  0  0  0  0  0  0  0  0  0  0
   34.0442   29.4330   46.7617 H   0  0  0  0  0  0  0  0  0  0  0  0
   39.8168   34.2096   46.9028 H   0  0  0  0  0  0  0  0  0  0  0  0
   41.3229   32.9089   45.3550 H   0  0  0  0  0  0  0  0  0  0  0  0
   40.7532   30.4697   44.9183 H   0  0  0  0  0  0  0  0  0  0  0  0
   35.1865   29.0728   51.3531 H   0  0  0  0  0  0  0  0  0  0  0  0
   36.8152   29.7923   51.4638 H   0  0  0  0  0  0  0  0  0  0  0  0
  2  8  2  0
  2  1  1  0
  3  2  1  0
  4  5  1  0
  4  3  2  0
  5  6  2  0
  6  8  1  0
  6  7  1  0
  8 15  1  0
  9 14  2  0
 10  9  1  0
 11 10  2  0
 11 12  1  0
 12 13  2  0
 13 14  1  0
 13  3  1  0
  4 16  1  0
  5 17  1  0
  9 18  1  0
 10 19  1  0
 11 20  1  0
 15 21  1  0
 15 22  1  0
M  ISO  5  16  14  17  14  18  14  19  14  20  14
M  END
>  <minimizedAffinity>  (1) 
-5.0856595

>  <minimizedRMSD>  (1) 
2.18411493

$$$$
