
     RDKit          3D

 30 32  0  0  0  0  0  0  0  0999 V2000
   38.9590   32.3040   47.9920 Cl  0  0  0  0  0  0  0  0  0  0  0  0
   37.5040   31.4190   47.6750 C   0  0  0  0  0  0  0  0  0  0  0  0
   37.2170   31.0170   46.3880 C   0  0  0  0  0  0  0  0  0  0  0  0
   36.0720   30.3130   46.0940 C   0  0  0  0  0  0  0  0  0  0  0  0
   35.1740   29.9850   47.0740 C   0  0  0  0  0  0  0  0  0  0  0  0
   35.4290   30.3730   48.3820 C   0  0  0  0  0  0  0  0  0  0  0  0
   34.3620   30.0260   49.7300 Cl  0  0  0  0  0  0  0  0  0  0  0  0
   36.5860   31.0780   48.6370 C   0  0  0  0  0  0  0  0  0  0  0  0
   38.8640   32.7840   43.6290 C   0  0  0  0  0  0  0  0  0  0  0  0
   39.9080   31.9420   43.2870 C   0  0  0  0  0  0  0  0  0  0  0  0
   40.0440   30.7340   44.0300 C   0  0  0  0  0  0  0  0  0  0  0  0
   39.1390   30.5050   45.0140 N   0  0  0  0  0  0  0  0  0  0  0  0
   38.1360   31.3460   45.3210 C   0  0  0  0  0  0  0  0  0  0  0  0
   38.0180   32.4850   44.6110 N   0  0  0  0  0  0  0  0  0  0  0  0
   36.8760   31.5100   50.0410 C   0  0  0  0  0  0  0  0  0  0  0  0
   37.8430   30.6100   50.7330 C   0  0  0  0  0  0  0  0  0  0  0  0
   37.2440   29.9400   51.9940 C   0  0  0  0  0  0  0  0  0  0  0  0
   37.7400   29.1520   50.7880 C   0  0  0  0  0  0  0  0  0  0  0  0
   35.8750   30.0090   45.0554 H   0  0  0  0  0  0  0  0  0  0  0  0
   34.2621   29.4212   46.8279 H   0  0  0  0  0  0  0  0  0  0  0  0
   38.7305   33.7246   43.0745 H   0  0  0  0  0  0  0  0  0  0  0  0
   40.6046   32.1953   42.4743 H   0  0  0  0  0  0  0  0  0  0  0  0
   40.8496   30.0167   43.8146 H   0  0  0  0  0  0  0  0  0  0  0  0
   37.2967   32.5261   50.0166 H   0  0  0  0  0  0  0  0  0  0  0  0
   35.9300   31.4742   50.6013 H   0  0  0  0  0  0  0  0  0  0  0  0
   38.6914   31.2438   50.4354 H   0  0  0  0  0  0  0  0  0  0  0  0
   37.8059   29.9264   52.9396 H   0  0  0  0  0  0  0  0  0  0  0  0
   36.3071   30.0142   52.5656 H   0  0  0  0  0  0  0  0  0  0  0  0
   37.0156   28.6339   50.1424 H   0  0  0  0  0  0  0  0  0  0  0  0
   38.4596   28.3305   50.6565 H   0  0  0  0  0  0  0  0  0  0  0  0
  2  1  1  0
  2  8  2  0
  3  2  1  0
  4  3  2  0
  4  5  1  0
  5  6  2  0
  6  8  1  0
  6  7  1  0
  8 15  1  0
  9 14  2  0
 10  9  1  0
 10 11  2  0
 11 12  1  0
 12 13  2  0
 13  3  1  0
 14 13  1  0
 15 16  1  0
 16 18  1  0
 16 17  1  0
 18 17  1  0
  4 19  1  0
  5 20  1  0
  9 21  1  0
 10 22  1  0
 11 23  1  0
 15 24  1  0
 15 25  1  0
 16 26  1  0
 17 27  1  0
 17 28  1  0
 18 29  1  0
 18 30  1  0
M  ISO  8  19  14  20  14  21  14  22  14  23  14  24   8  25   8  26  13
M  ISO  4  27  13  28  13  29  13  30  13
M  END
>  <minimizedAffinity>  (1) 
-6.18916464

>  <minimizedRMSD>  (1) 
2.02512693

$$$$
