
     RDKit          3D

 33 35  0  0  0  0  0  0  0  0999 V2000
   37.3960   31.9280   48.0270 Cl  0  0  0  0  0  0  0  0  0  0  0  0
   36.6000   30.9670   46.7990 C   0  0  0  0  0  0  0  0  0  0  0  0
   37.2140   30.7780   45.5800 C   0  0  0  0  0  0  0  0  0  0  0  0
   36.6330   30.0360   44.5910 C   0  0  0  0  0  0  0  0  0  0  0  0
   35.4010   29.4520   44.7950 C   0  0  0  0  0  0  0  0  0  0  0  0
   34.7570   29.6160   45.9920 C   0  0  0  0  0  0  0  0  0  0  0  0
   33.1970   28.9330   46.3790 Cl  0  0  0  0  0  0  0  0  0  0  0  0
   35.3800   30.3700   46.9560 C   0  0  0  0  0  0  0  0  0  0  0  0
   39.8220   33.1790   44.6040 C   0  0  0  0  0  0  0  0  0  0  0  0
   40.9990   32.5110   44.8830 C   0  0  0  0  0  0  0  0  0  0  0  0
   40.8840   31.1940   45.4220 C   0  0  0  0  0  0  0  0  0  0  0  0
   39.6390   30.6900   45.6240 N   0  0  0  0  0  0  0  0  0  0  0  0
   38.5160   31.3880   45.3340 C   0  0  0  0  0  0  0  0  0  0  0  0
   38.6220   32.6340   44.8240 N   0  0  0  0  0  0  0  0  0  0  0  0
   34.7010   30.6030   48.2910 C   0  0  0  0  0  0  0  0  0  0  0  0
   34.6340   27.7370   49.0360 Cl  0  0  0  0  0  0  0  0  0  0  0  0
   35.6190   28.9740   49.7960 C   0  0  0  0  0  0  0  0  0  0  0  0
   35.6060   30.3000   49.4040 C   0  0  0  0  0  0  0  0  0  0  0  0
   36.4290   31.1900   50.0800 C   0  0  0  0  0  0  0  0  0  0  0  0
   37.2430   30.7770   51.1140 C   0  0  0  0  0  0  0  0  0  0  0  0
   37.2690   29.4520   51.5200 C   0  0  0  0  0  0  0  0  0  0  0  0
   38.3120   28.9400   52.8400 Cl  0  0  0  0  0  0  0  0  0  0  0  0
   36.4500   28.5720   50.8470 C   0  0  0  0  0  0  0  0  0  0  0  0
   37.1498   29.9041   43.6289 H   0  0  0  0  0  0  0  0  0  0  0  0
   34.9358   28.8548   43.9969 H   0  0  0  0  0  0  0  0  0  0  0  0
   39.8748   34.1952   44.1861 H   0  0  0  0  0  0  0  0  0  0  0  0
   41.9800   32.9730   44.6982 H   0  0  0  0  0  0  0  0  0  0  0  0
   41.7792   30.6036   45.6670 H   0  0  0  0  0  0  0  0  0  0  0  0
   34.3905   31.6562   48.3571 H   0  0  0  0  0  0  0  0  0  0  0  0
   33.8280   29.9373   48.3596 H   0  0  0  0  0  0  0  0  0  0  0  0
   36.4321   32.2495   49.7842 H   0  0  0  0  0  0  0  0  0  0  0  0
   37.8825   31.5117   51.6252 H   0  0  0  0  0  0  0  0  0  0  0  0
   36.4495   27.5138   51.1473 H   0  0  0  0  0  0  0  0  0  0  0  0
  2  8  2  0
  2  1  1  0
  3  2  1  0
  4  5  1  0
  4  3  2  0
  5  6  2  0
  6  7  1  0
  6  8  1  0
  8 15  1  0
  9 14  2  0
  9 10  1  0
 10 11  2  0
 11 12  1  0
 13  3  1  0
 13 12  2  0
 14 13  1  0
 15 18  1  0
 16 17  1  0
 17 23  2  0
 18 17  1  0
 18 19  2  0
 19 20  1  0
 20 21  2  0
 21 22  1  0
 23 21  1  0
  4 24  1  0
  5 25  1  0
  9 26  1  0
 10 27  1  0
 11 28  1  0
 15 29  1  0
 15 30  1  0
 19 31  1  0
 20 32  1  0
 23 33  1  0
M  ISO  8  24  14  25  14  26  14  27  14  28  14  29   8  30   8  31  14
M  ISO  2  32  14  33  14
M  END
>  <minimizedAffinity>  (1) 
-5.56834078

>  <minimizedRMSD>  (1) 
2.66296434

$$$$
