
     RDKit          3D

 24 25  0  0  0  0  0  0  0  0999 V2000
   38.9070   31.5410   49.7690 Cl  0  0  0  0  0  0  0  0  0  0  0  0
   37.5210   30.8990   48.9450 C   0  0  0  0  0  0  0  0  0  0  0  0
   37.4710   30.9150   47.5670 C   0  0  0  0  0  0  0  0  0  0  0  0
   36.4040   30.4220   46.8730 C   0  0  0  0  0  0  0  0  0  0  0  0
   35.3190   29.8790   47.5460 C   0  0  0  0  0  0  0  0  0  0  0  0
   35.3290   29.8430   48.9230 C   0  0  0  0  0  0  0  0  0  0  0  0
   34.0310   29.1830   49.8870 Cl  0  0  0  0  0  0  0  0  0  0  0  0
   36.4280   30.3540   49.5700 C   0  0  0  0  0  0  0  0  0  0  0  0
   39.9260   33.3160   46.2450 C   0  0  0  0  0  0  0  0  0  0  0  0
   40.7180   32.5160   45.4150 C   0  0  0  0  0  0  0  0  0  0  0  0
   40.4000   31.1230   45.3090 C   0  0  0  0  0  0  0  0  0  0  0  0
   39.3410   30.6680   46.0290 N   0  0  0  0  0  0  0  0  0  0  0  0
   38.5950   31.4830   46.8280 C   0  0  0  0  0  0  0  0  0  0  0  0
   38.9060   32.7890   46.9170 N   0  0  0  0  0  0  0  0  0  0  0  0
   36.4580   30.3280   51.0730 C   0  0  0  0  0  0  0  0  0  0  0  0
   37.2130   29.2420   51.5340 O   0  0  0  0  0  0  0  0  0  0  0  0
   36.4044   30.4554   45.7735 H   0  0  0  0  0  0  0  0  0  0  0  0
   34.4598   29.4814   46.9859 H   0  0  0  0  0  0  0  0  0  0  0  0
   40.1482   34.3889   46.3428 H   0  0  0  0  0  0  0  0  0  0  0  0
   41.5636   32.9454   44.8577 H   0  0  0  0  0  0  0  0  0  0  0  0
   40.9895   30.4487   44.6703 H   0  0  0  0  0  0  0  0  0  0  0  0
   36.9068   31.2622   51.4415 H   0  0  0  0  0  0  0  0  0  0  0  0
   35.4281   30.2266   51.4458 H   0  0  0  0  0  0  0  0  0  0  0  0
   37.2155   29.2384   52.5240 H   0  0  0  0  0  0  0  0  0  0  0  0
  2  8  2  0
  2  1  1  0
  3  2  1  0
  4  5  1  0
  4  3  2  0
  5  6  2  0
  6  8  1  0
  6  7  1  0
  8 15  1  0
  9 14  2  0
 10  9  1  0
 11 10  2  0
 11 12  1  0
 12 13  2  0
 13 14  1  0
 13  3  1  0
 15 16  1  0
  4 17  1  0
  5 18  1  0
  9 19  1  0
 10 20  1  0
 11 21  1  0
 15 22  1  0
 15 23  1  0
 16 24  1  0
M  ISO  8  17  14  18  14  19  14  20  14  21  14  22   8  23   8  24   3
M  END
>  <minimizedAffinity>  (1) 
-5.14786816

>  <minimizedRMSD>  (1) 
0.675468862

$$$$
