
     RDKit          3D

 31 32  0  0  0  0  0  0  0  0999 V2000
   34.8920   28.3120   49.6280 C   0  0  0  0  0  0  0  0  0  0  0  0
   34.3470   28.4230   48.4490 C   0  0  0  0  0  0  0  0  0  0  0  0
   37.3560   30.2820   51.4670 C   0  0  0  0  0  0  0  0  0  0  0  0
   38.1580   30.7890   50.4220 C   0  0  0  0  0  0  0  0  0  0  0  0
   37.8120   30.4200   49.1050 C   0  0  0  0  0  0  0  0  0  0  0  0
   36.7350   29.6120   48.9520 N   0  0  0  0  0  0  0  0  0  0  0  0
   36.0090   29.1590   49.9640 C   0  0  0  0  0  0  0  0  0  0  0  0
   36.3130   29.4890   51.2190 N   0  0  0  0  0  0  0  0  0  0  0  0
   38.9880   32.0750   47.5670 C   0  0  0  0  0  0  0  0  0  0  0  0
   38.8070   33.0430   48.3450 O   0  0  0  0  0  0  0  0  0  0  0  0
   38.5000   30.8330   47.9600 N   0  0  0  0  0  0  0  0  0  0  0  0
   33.2150   27.6740   47.8970 C   0  0  0  0  0  0  0  0  0  0  0  0
   33.6440   26.5640   46.9930 C   0  0  0  0  0  0  0  0  0  0  0  0
   33.8530   25.2470   47.3560 C   0  0  0  0  0  0  0  0  0  0  0  0
   34.2500   24.3130   46.4190 C   0  0  0  0  0  0  0  0  0  0  0  0
   34.4510   24.6760   45.0740 C   0  0  0  0  0  0  0  0  0  0  0  0
   34.2430   25.9920   44.7030 C   0  0  0  0  0  0  0  0  0  0  0  0
   33.8450   26.9190   45.6570 C   0  0  0  0  0  0  0  0  0  0  0  0
   34.5054   27.5831   50.3554 H   0  0  0  0  0  0  0  0  0  0  0  0
   34.7943   29.1756   47.7830 H   0  0  0  0  0  0  0  0  0  0  0  0
   37.5963   30.5465   52.5073 H   0  0  0  0  0  0  0  0  0  0  0  0
   39.0173   31.4447   50.6260 H   0  0  0  0  0  0  0  0  0  0  0  0
   39.5134   32.2040   46.6092 H   0  0  0  0  0  0  0  0  0  0  0  0
   38.6785   30.0782   47.2823 H   0  0  0  0  0  0  0  0  0  0  0  0
   32.6365   27.2465   48.7292 H   0  0  0  0  0  0  0  0  0  0  0  0
   32.6123   28.3745   47.3003 H   0  0  0  0  0  0  0  0  0  0  0  0
   33.7017   24.9396   48.4013 H   0  0  0  0  0  0  0  0  0  0  0  0
   34.4115   23.2699   46.7286 H   0  0  0  0  0  0  0  0  0  0  0  0
   34.7673   23.9276   44.3325 H   0  0  0  0  0  0  0  0  0  0  0  0
   34.3920   26.3025   43.6583 H   0  0  0  0  0  0  0  0  0  0  0  0
   33.6833   27.9634   45.3519 H   0  0  0  0  0  0  0  0  0  0  0  0
  1  7  1  0
  2  1  2  0
  4  3  2  0
  5  4  1  0
  6  5  2  0
  6  7  1  0
  7  8  2  0
  8  3  1  0
  9 11  1  0
  9 10  2  0
 11  5  1  0
 12  2  1  0
 13 14  2  0
 13 12  1  0
 15 14  1  0
 16 15  2  0
 17 16  1  0
 17 18  2  0
 18 13  1  0
  1 19  1  0
  2 20  1  0
  3 21  1  0
  4 22  1  0
  9 23  1  0
 11 24  1  0
 12 25  1  0
 12 26  1  0
 14 27  1  0
 15 28  1  0
 16 29  1  0
 17 30  1  0
 18 31  1  0
M  ISO  8  21  14  22  14  23   6  25   8  26   8  27  14  28  14  29  14
M  ISO  2  30  14  31  14
M  END
>  <minimizedAffinity>  (1) 
-5.81208515

>  <minimizedRMSD>  (1) 
0.264510959

$$$$
