
     RDKit          3D

 33 34  0  0  0  0  0  0  0  0999 V2000
   34.9430   28.2500   49.6330 C   0  0  0  0  0  0  0  0  0  0  0  0
   34.3200   28.3820   48.4950 C   0  0  0  0  0  0  0  0  0  0  0  0
   37.3590   30.3480   51.4030 C   0  0  0  0  0  0  0  0  0  0  0  0
   38.1240   30.8650   50.3090 C   0  0  0  0  0  0  0  0  0  0  0  0
   37.7770   30.4710   48.9790 C   0  0  0  0  0  0  0  0  0  0  0  0
   36.7230   29.6170   48.8680 N   0  0  0  0  0  0  0  0  0  0  0  0
   36.0310   29.1550   49.9220 C   0  0  0  0  0  0  0  0  0  0  0  0
   36.3390   29.5100   51.1780 N   0  0  0  0  0  0  0  0  0  0  0  0
   38.4820   30.9420   47.9090 O   0  0  0  0  0  0  0  0  0  0  0  0
   38.3010   30.1300   45.3610 O   0  0  0  0  0  0  0  0  0  0  0  0
   37.7260   31.0790   46.3900 P   0  0  0  0  0  0  0  0  0  0  0  0
   37.9350   32.6490   45.7530 O   0  0  0  0  0  0  0  0  0  0  0  0
   36.0480   30.8610   46.5390 O   0  0  0  0  0  0  0  0  0  0  0  0
   33.1960   27.5840   47.9690 C   0  0  0  0  0  0  0  0  0  0  0  0
   33.6230   26.4900   47.0420 C   0  0  0  0  0  0  0  0  0  0  0  0
   33.8200   25.1720   47.3750 C   0  0  0  0  0  0  0  0  0  0  0  0
   34.2150   24.2710   46.4070 C   0  0  0  0  0  0  0  0  0  0  0  0
   34.4240   24.6540   45.0900 C   0  0  0  0  0  0  0  0  0  0  0  0
   34.2300   25.9690   44.7440 C   0  0  0  0  0  0  0  0  0  0  0  0
   33.8320   26.8770   45.7240 C   0  0  0  0  0  0  0  0  0  0  0  0
   34.6483   27.4717   50.3523 H   0  0  0  0  0  0  0  0  0  0  0  0
   34.6786   29.1925   47.8435 H   0  0  0  0  0  0  0  0  0  0  0  0
   37.6102   30.6405   52.4332 H   0  0  0  0  0  0  0  0  0  0  0  0
   38.9635   31.5528   50.4883 H   0  0  0  0  0  0  0  0  0  0  0  0
   38.0214   33.2977   46.4958 H   0  0  0  0  0  0  0  0  0  0  0  0
   35.8032   30.8292   47.4977 H   0  0  0  0  0  0  0  0  0  0  0  0
   32.6623   27.1323   48.8182 H   0  0  0  0  0  0  0  0  0  0  0  0
   32.5570   28.2673   47.3904 H   0  0  0  0  0  0  0  0  0  0  0  0
   33.6633   24.8355   48.4105 H   0  0  0  0  0  0  0  0  0  0  0  0
   34.3686   23.2186   46.6879 H   0  0  0  0  0  0  0  0  0  0  0  0
   34.7395   23.9176   44.3363 H   0  0  0  0  0  0  0  0  0  0  0  0
   34.3866   26.3013   43.7072 H   0  0  0  0  0  0  0  0  0  0  0  0
   33.6790   27.9302   45.4459 H   0  0  0  0  0  0  0  0  0  0  0  0
  1  7  1  0
  2  1  2  0
  4  3  2  0
  5  4  1  0
  6  5  2  0
  6  7  1  0
  7  8  2  0
  8  3  1  0
  9  5  1  0
 10 11  2  0
 11 13  1  0
 11  9  1  0
 12 11  1  0
 14  2  1  0
 15 16  2  0
 15 14  1  0
 17 16  1  0
 18 17  2  0
 19 18  1  0
 19 20  2  0
 20 15  1  0
  1 21  1  0
  2 22  1  0
  3 23  1  0
  4 24  1  0
 12 25  1  0
 13 26  1  0
 14 27  1  0
 14 28  1  0
 16 29  1  0
 17 30  1  0
 18 31  1  0
 19 32  1  0
 20 33  1  0
M  ISO  8  23  14  24  14  25   3  26   3  27   8  28   8  29  14  30  14
M  ISO  3  31  14  32  14  33  14
M  END
>  <minimizedAffinity>  (1) 
-5.61051655

>  <minimizedRMSD>  (1) 
0.641241848

$$$$
