
     RDKit          3D

 34 36  0  0  0  0  0  0  0  0999 V2000
   33.2560   27.3430   48.1470 C   0  0  0  0  0  0  0  0  0  0  0  0
   33.6830   26.3470   47.1100 C   0  0  0  0  0  0  0  0  0  0  0  0
   33.9410   25.0210   47.3320 C   0  0  0  0  0  0  0  0  0  0  0  0
   34.3280   24.2020   46.2960 C   0  0  0  0  0  0  0  0  0  0  0  0
   34.4710   24.6840   45.0030 C   0  0  0  0  0  0  0  0  0  0  0  0
   34.2160   26.0080   44.7730 C   0  0  0  0  0  0  0  0  0  0  0  0
   33.8280   26.8360   45.8010 C   0  0  0  0  0  0  0  0  0  0  0  0
   34.5810   28.5980   49.8350 C   0  0  0  0  0  0  0  0  0  0  0  0
   34.3690   28.1700   48.6220 C   0  0  0  0  0  0  0  0  0  0  0  0
   37.4770   30.1690   51.4500 C   0  0  0  0  0  0  0  0  0  0  0  0
   37.9440   30.9950   50.3890 C   0  0  0  0  0  0  0  0  0  0  0  0
   37.2570   30.9920   49.1580 C   0  0  0  0  0  0  0  0  0  0  0  0
   36.1730   30.1770   49.0760 N   0  0  0  0  0  0  0  0  0  0  0  0
   35.7620   29.4160   50.0870 C   0  0  0  0  0  0  0  0  0  0  0  0
   36.4090   29.4130   51.2580 N   0  0  0  0  0  0  0  0  0  0  0  0
   37.7110   31.8370   48.0330 C   0  0  0  0  0  0  0  0  0  0  0  0
   38.8420   32.8250   48.2810 C   0  0  0  0  0  0  0  0  0  0  0  0
   39.0120   31.6350   47.3990 C   0  0  0  0  0  0  0  0  0  0  0  0
   32.8293   26.8000   49.0032 H   0  0  0  0  0  0  0  0  0  0  0  0
   32.5161   28.0121   47.6835 H   0  0  0  0  0  0  0  0  0  0  0  0
   33.8382   24.6071   48.3460 H   0  0  0  0  0  0  0  0  0  0  0  0
   34.5288   23.1395   46.4980 H   0  0  0  0  0  0  0  0  0  0  0  0
   34.7814   24.0186   44.1839 H   0  0  0  0  0  0  0  0  0  0  0  0
   34.3222   26.4146   43.7564 H   0  0  0  0  0  0  0  0  0  0  0  0
   33.6281   27.8978   45.5947 H   0  0  0  0  0  0  0  0  0  0  0  0
   33.8853   28.3480   50.6496 H   0  0  0  0  0  0  0  0  0  0  0  0
   35.1125   28.4639   47.8665 H   0  0  0  0  0  0  0  0  0  0  0  0
   37.9984   30.1596   52.4185 H   0  0  0  0  0  0  0  0  0  0  0  0
   38.8319   31.6292   50.5282 H   0  0  0  0  0  0  0  0  0  0  0  0
   36.6801   31.8842   47.6521 H   0  0  0  0  0  0  0  0  0  0  0  0
   38.8015   33.8356   47.8486 H   0  0  0  0  0  0  0  0  0  0  0  0
   39.3548   33.2321   49.1649 H   0  0  0  0  0  0  0  0  0  0  0  0
   39.6531   30.8029   47.7254 H   0  0  0  0  0  0  0  0  0  0  0  0
   39.3434   31.4936   46.3597 H   0  0  0  0  0  0  0  0  0  0  0  0
  1  9  1  0
  2  3  2  0
  2  1  1  0
  4  3  1  0
  5  4  2  0
  6  5  1  0
  6  7  2  0
  7  2  1  0
  8 14  1  0
  9  8  2  0
 11 10  2  0
 12 11  1  0
 13 12  2  0
 13 14  1  0
 14 15  2  0
 15 10  1  0
 16 17  1  0
 16 12  1  0
 18 16  1  0
 18 17  1  0
  1 19  1  0
  1 20  1  0
  3 21  1  0
  4 22  1  0
  5 23  1  0
  6 24  1  0
  7 25  1  0
  8 26  1  0
  9 27  1  0
 10 28  1  0
 11 29  1  0
 16 30  1  0
 17 31  1  0
 17 32  1  0
 18 33  1  0
 18 34  1  0
M  ISO  8  19   8  20   8  21  14  22  14  23  14  24  14  25  14  28  14
M  ISO  6  29  14  30  13  31  13  32  13  33  13  34  13
M  END
>  <minimizedAffinity>  (1) 
-5.41468239

>  <minimizedRMSD>  (1) 
0.562366903

$$$$
