
     RDKit          3D

 28 29  0  0  0  0  0  0  0  0999 V2000
   33.2900   27.4090   47.9280 C   0  0  0  0  0  0  0  0  0  0  0  0
   33.7260   26.3430   46.9860 C   0  0  0  0  0  0  0  0  0  0  0  0
   33.9790   25.0420   47.3320 C   0  0  0  0  0  0  0  0  0  0  0  0
   34.3800   24.1180   46.3920 C   0  0  0  0  0  0  0  0  0  0  0  0
   34.5420   24.4720   45.0570 C   0  0  0  0  0  0  0  0  0  0  0  0
   34.2950   25.7620   44.6900 C   0  0  0  0  0  0  0  0  0  0  0  0
   33.8960   26.6680   45.6460 C   0  0  0  0  0  0  0  0  0  0  0  0
   34.7620   28.3460   49.7080 C   0  0  0  0  0  0  0  0  0  0  0  0
   34.4180   28.1830   48.4660 C   0  0  0  0  0  0  0  0  0  0  0  0
   37.3370   30.2600   51.4700 C   0  0  0  0  0  0  0  0  0  0  0  0
   38.1470   30.7010   50.4010 C   0  0  0  0  0  0  0  0  0  0  0  0
   37.7660   30.3140   49.0800 C   0  0  0  0  0  0  0  0  0  0  0  0
   36.6550   29.5500   48.9500 N   0  0  0  0  0  0  0  0  0  0  0  0
   35.9210   29.1580   50.0020 C   0  0  0  0  0  0  0  0  0  0  0  0
   36.2620   29.5100   51.2390 N   0  0  0  0  0  0  0  0  0  0  0  0
   38.4980   30.7000   47.9670 O   0  0  0  0  0  0  0  0  0  0  0  0
   32.7524   26.9408   48.7657 H   0  0  0  0  0  0  0  0  0  0  0  0
   32.6449   28.1036   47.3701 H   0  0  0  0  0  0  0  0  0  0  0  0
   33.8598   24.7292   48.3798 H   0  0  0  0  0  0  0  0  0  0  0  0
   34.5756   23.0812   46.7032 H   0  0  0  0  0  0  0  0  0  0  0  0
   34.8624   23.7277   44.3132 H   0  0  0  0  0  0  0  0  0  0  0  0
   34.4133   26.0747   43.6420 H   0  0  0  0  0  0  0  0  0  0  0  0
   33.7014   27.7043   45.3326 H   0  0  0  0  0  0  0  0  0  0  0  0
   34.1842   27.8766   50.5178 H   0  0  0  0  0  0  0  0  0  0  0  0
   35.0514   28.6885   47.7222 H   0  0  0  0  0  0  0  0  0  0  0  0
   37.5964   30.5385   52.5021 H   0  0  0  0  0  0  0  0  0  0  0  0
   39.0388   31.3199   50.5790 H   0  0  0  0  0  0  0  0  0  0  0  0
   38.2105   30.4170   47.0629 H   0  0  0  0  0  0  0  0  0  0  0  0
  1  9  1  0
  2  3  2  0
  2  1  1  0
  4  3  1  0
  5  4  2  0
  6  5  1  0
  6  7  2  0
  7  2  1  0
  8 14  1  0
  9  8  2  0
 11 10  2  0
 12 11  1  0
 13 12  2  0
 13 14  1  0
 14 15  2  0
 15 10  1  0
 16 12  1  0
  1 17  1  0
  1 18  1  0
  3 19  1  0
  4 20  1  0
  5 21  1  0
  6 22  1  0
  7 23  1  0
  8 24  1  0
  9 25  1  0
 10 26  1  0
 11 27  1  0
 16 28  1  0
M  ISO  8  17   8  18   8  19  14  20  14  21  14  22  14  23  14  26  14
M  ISO  2  27  14  28   3
M  END
>  <minimizedAffinity>  (1) 
-5.06662083

>  <minimizedRMSD>  (1) 
0.124188669

$$$$
