
     RDKit          3D

 30 31  0  0  0  0  0  0  0  0999 V2000
   33.2880   27.3410   48.0400 C   0  0  0  0  0  0  0  0  0  0  0  0
   33.7070   26.3020   47.0460 C   0  0  0  0  0  0  0  0  0  0  0  0
   33.9440   24.9840   47.3340 C   0  0  0  0  0  0  0  0  0  0  0  0
   34.3280   24.1080   46.3410 C   0  0  0  0  0  0  0  0  0  0  0  0
   34.4830   24.5350   45.0260 C   0  0  0  0  0  0  0  0  0  0  0  0
   34.2470   25.8560   44.7290 C   0  0  0  0  0  0  0  0  0  0  0  0
   33.8630   26.7250   45.7310 C   0  0  0  0  0  0  0  0  0  0  0  0
   34.8300   28.3320   49.7290 C   0  0  0  0  0  0  0  0  0  0  0  0
   34.4020   28.1510   48.5260 C   0  0  0  0  0  0  0  0  0  0  0  0
   37.4440   30.3070   51.3660 C   0  0  0  0  0  0  0  0  0  0  0  0
   38.1270   30.8270   50.2340 C   0  0  0  0  0  0  0  0  0  0  0  0
   37.6640   30.4780   48.9310 C   0  0  0  0  0  0  0  0  0  0  0  0
   36.5790   29.6580   48.8740 N   0  0  0  0  0  0  0  0  0  0  0  0
   35.9650   29.1900   49.9700 C   0  0  0  0  0  0  0  0  0  0  0  0
   36.3900   29.5100   51.1990 N   0  0  0  0  0  0  0  0  0  0  0  0
   38.3180   30.9770   47.7190 C   0  0  0  0  0  0  0  0  0  0  0  0
   32.8215   26.8360   48.8987 H   0  0  0  0  0  0  0  0  0  0  0  0
   32.5873   28.0188   47.5305 H   0  0  0  0  0  0  0  0  0  0  0  0
   33.8270   24.6215   48.3659 H   0  0  0  0  0  0  0  0  0  0  0  0
   34.5150   23.0536   46.5927 H   0  0  0  0  0  0  0  0  0  0  0  0
   34.7884   23.8292   44.2395 H   0  0  0  0  0  0  0  0  0  0  0  0
   34.3635   26.2195   43.6974 H   0  0  0  0  0  0  0  0  0  0  0  0
   33.6756   27.7799   45.4821 H   0  0  0  0  0  0  0  0  0  0  0  0
   34.3298   27.8322   50.5716 H   0  0  0  0  0  0  0  0  0  0  0  0
   34.9616   28.6890   47.7466 H   0  0  0  0  0  0  0  0  0  0  0  0
   37.7855   30.5625   52.3800 H   0  0  0  0  0  0  0  0  0  0  0  0
   38.9977   31.4872   50.3603 H   0  0  0  0  0  0  0  0  0  0  0  0
   39.1639   31.6224   47.9980 H   0  0  0  0  0  0  0  0  0  0  0  0
   38.6854   30.1276   47.1244 H   0  0  0  0  0  0  0  0  0  0  0  0
   37.5958   31.5557   47.1244 H   0  0  0  0  0  0  0  0  0  0  0  0
  1  9  1  0
  2  3  2  0
  2  1  1  0
  4  3  1  0
  5  4  2  0
  6  5  1  0
  6  7  2  0
  7  2  1  0
  8 14  1  0
  9  8  2  0
 11 10  2  0
 12 11  1  0
 13 12  2  0
 13 14  1  0
 14 15  2  0
 15 10  1  0
 16 12  1  0
  1 17  1  0
  1 18  1  0
  3 19  1  0
  4 20  1  0
  5 21  1  0
  6 22  1  0
  7 23  1  0
  8 24  1  0
  9 25  1  0
 10 26  1  0
 11 27  1  0
 16 28  1  0
 16 29  1  0
 16 30  1  0
M  ISO  8  17   8  18   8  19  14  20  14  21  14  22  14  23  14  26  14
M  ISO  4  27  14  28   8  29   8  30   8
M  END
>  <minimizedAffinity>  (1) 
-5.03762388

>  <minimizedRMSD>  (1) 
0.136581525

$$$$
