
     RDKit          3D

 44 47  0  0  0  0  0  0  0  0999 V2000
   32.8580   28.0300   48.4190 C   0  0  0  0  0  0  0  0  0  0  0  0
   33.2030   27.1040   47.3140 C   0  0  0  0  0  0  0  0  0  0  0  0
   33.7150   25.8370   47.4770 C   0  0  0  0  0  0  0  0  0  0  0  0
   34.0150   25.0270   46.4080 C   0  0  0  0  0  0  0  0  0  0  0  0
   33.8040   25.4750   45.0980 C   0  0  0  0  0  0  0  0  0  0  0  0
   33.2950   26.7350   44.9150 C   0  0  0  0  0  0  0  0  0  0  0  0
   33.0070   27.5190   46.0130 C   0  0  0  0  0  0  0  0  0  0  0  0
   34.9100   29.8840   45.7000 Cl  0  0  0  0  0  0  0  0  0  0  0  0
   33.1870   30.0150   45.4800 C   0  0  0  0  0  0  0  0  0  0  0  0
   32.4660   28.8470   45.6590 C   0  0  0  0  0  0  0  0  0  0  0  0
   31.0750   28.8210   45.5100 C   0  0  0  0  0  0  0  0  0  0  0  0
   30.4610   30.0180   45.1770 C   0  0  0  0  0  0  0  0  0  0  0  0
   31.1330   31.1990   44.9890 C   0  0  0  0  0  0  0  0  0  0  0  0
   30.3340   32.6990   44.5680 Cl  0  0  0  0  0  0  0  0  0  0  0  0
   32.4970   31.1640   45.1480 C   0  0  0  0  0  0  0  0  0  0  0  0
   35.0930   28.2810   49.4770 C   0  0  0  0  0  0  0  0  0  0  0  0
   34.0190   28.7670   48.9440 C   0  0  0  0  0  0  0  0  0  0  0  0
   37.3770   30.1980   51.5860 C   0  0  0  0  0  0  0  0  0  0  0  0
   38.0660   30.9720   50.6400 C   0  0  0  0  0  0  0  0  0  0  0  0
   37.7210   30.8140   49.2740 C   0  0  0  0  0  0  0  0  0  0  0  0
   36.7320   29.9100   48.9510 N   0  0  0  0  0  0  0  0  0  0  0  0
   36.1200   29.2040   49.9290 C   0  0  0  0  0  0  0  0  0  0  0  0
   36.4380   29.3480   51.2200 N   0  0  0  0  0  0  0  0  0  0  0  0
   38.3700   31.5670   48.1930 C   0  0  0  0  0  0  0  0  0  0  0  0
   38.5670   31.0410   46.9420 C   0  0  0  0  0  0  0  0  0  0  0  0
   39.2040   32.0240   46.1780 C   0  0  0  0  0  0  0  0  0  0  0  0
   39.3640   33.0990   46.9920 N   0  0  0  0  0  0  0  0  0  0  0  0
   38.8620   32.8240   48.2040 N   0  0  0  0  0  0  0  0  0  0  0  0
   32.4153   27.4456   49.2391 H   0  0  0  0  0  0  0  0  0  0  0  0
   32.1556   28.7735   48.0142 H   0  0  0  0  0  0  0  0  0  0  0  0
   33.8897   25.4605   48.4957 H   0  0  0  0  0  0  0  0  0  0  0  0
   34.4234   24.0206   46.5824 H   0  0  0  0  0  0  0  0  0  0  0  0
   34.0407   24.8321   44.2374 H   0  0  0  0  0  0  0  0  0  0  0  0
   33.1175   27.1182   43.8993 H   0  0  0  0  0  0  0  0  0  0  0  0
   30.4970   27.8957   45.6503 H   0  0  0  0  0  0  0  0  0  0  0  0
   29.3677   30.0212   45.0560 H   0  0  0  0  0  0  0  0  0  0  0  0
   33.0659   32.0944   45.0042 H   0  0  0  0  0  0  0  0  0  0  0  0
   35.2255   27.1944   49.5854 H   0  0  0  0  0  0  0  0  0  0  0  0
   33.9672   29.8636   48.8748 H   0  0  0  0  0  0  0  0  0  0  0  0
   37.6249   30.3023   52.6526 H   0  0  0  0  0  0  0  0  0  0  0  0
   38.8496   31.6795   50.9487 H   0  0  0  0  0  0  0  0  0  0  0  0
   38.2783   30.0351   46.6032 H   0  0  0  0  0  0  0  0  0  0  0  0
   39.5141   31.9425   45.1258 H   0  0  0  0  0  0  0  0  0  0  0  0
   39.8039   33.9896   46.7197 H   0  0  0  0  0  0  0  0  0  0  0  0
  1 17  1  0
  2  3  2  0
  2  1  1  0
  4  3  1  0
  5  4  2  0
  6  5  1  0
  6  7  2  0
  7  2  1  0
  9 10  2  0
  9  8  1  0
 10  7  1  0
 11 10  1  0
 12 11  2  0
 13 15  2  0
 13 12  1  0
 14 13  1  0
 15  9  1  0
 16 22  1  0
 17 16  2  0
 19 18  2  0
 20 19  1  0
 21 20  2  0
 21 22  1  0
 22 23  2  0
 23 18  1  0
 24 28  2  0
 24 20  1  0
 25 24  1  0
 26 25  2  0
 26 27  1  0
 27 28  1  0
  1 29  1  0
  1 30  1  0
  3 31  1  0
  4 32  1  0
  5 33  1  0
  6 34  1  0
 11 35  1  0
 12 36  1  0
 15 37  1  0
 16 38  1  0
 17 39  1  0
 18 40  1  0
 19 41  1  0
 25 42  1  0
 26 43  1  0
 27 44  1  0
M  ISO  8  29   8  30   8  31  14  32  14  33  14  34  14  35  14  36  14
M  ISO  6  37  14  40  14  41  14  42  14  43  14  44   9
M  END
>  <minimizedAffinity>  (1) 
-6.66317415

>  <minimizedRMSD>  (1) 
1.22309589

$$$$
