
     RDKit          3D

 49 52  0  0  0  0  0  0  0  0999 V2000
   32.7940   27.8920   48.8000 C   0  0  0  0  0  0  0  0  0  0  0  0
   33.0550   27.1560   47.5320 C   0  0  0  0  0  0  0  0  0  0  0  0
   33.5730   25.8800   47.4290 C   0  0  0  0  0  0  0  0  0  0  0  0
   33.7750   25.2920   46.2010 C   0  0  0  0  0  0  0  0  0  0  0  0
   33.4660   25.9580   45.0280 C   0  0  0  0  0  0  0  0  0  0  0  0
   32.9500   27.2290   45.1190 C   0  0  0  0  0  0  0  0  0  0  0  0
   32.7490   27.8140   46.3580 C   0  0  0  0  0  0  0  0  0  0  0  0
   32.2060   29.1400   46.2130 N   0  0  0  0  0  0  0  0  0  0  0  0
   32.8580   30.4320   46.1040 C   0  0  0  0  0  0  0  0  0  0  0  0
   32.3640   31.2100   44.8790 C   0  0  0  0  0  0  0  0  0  0  0  0
   30.8710   31.3120   44.8240 C   0  0  0  0  0  0  0  0  0  0  0  0
   30.2290   29.9480   44.9670 C   0  0  0  0  0  0  0  0  0  0  0  0
   30.7570   29.2070   46.1730 C   0  0  0  0  0  0  0  0  0  0  0  0
   35.2350   28.3750   49.1310 C   0  0  0  0  0  0  0  0  0  0  0  0
   33.9640   28.6410   49.3000 C   0  0  0  0  0  0  0  0  0  0  0  0
   37.3770   30.1470   51.4940 C   0  0  0  0  0  0  0  0  0  0  0  0
   38.0950   31.0090   50.6380 C   0  0  0  0  0  0  0  0  0  0  0  0
   37.8180   30.9590   49.2660 C   0  0  0  0  0  0  0  0  0  0  0  0
   36.8630   30.0710   48.8240 N   0  0  0  0  0  0  0  0  0  0  0  0
   36.2140   29.2710   49.7150 C   0  0  0  0  0  0  0  0  0  0  0  0
   36.4630   29.3060   51.0160 N   0  0  0  0  0  0  0  0  0  0  0  0
   38.4910   31.8040   48.2740 C   0  0  0  0  0  0  0  0  0  0  0  0
   38.8120   31.3720   47.0150 C   0  0  0  0  0  0  0  0  0  0  0  0
   39.4290   32.4260   46.3520 C   0  0  0  0  0  0  0  0  0  0  0  0
   39.4600   33.4650   47.2390 N   0  0  0  0  0  0  0  0  0  0  0  0
   38.8980   33.0810   48.3810 N   0  0  0  0  0  0  0  0  0  0  0  0
   32.4922   27.1650   49.5683 H   0  0  0  0  0  0  0  0  0  0  0  0
   32.0052   28.6290   48.5888 H   0  0  0  0  0  0  0  0  0  0  0  0
   33.8284   25.3244   48.3434 H   0  0  0  0  0  0  0  0  0  0  0  0
   34.1895   24.2743   46.1511 H   0  0  0  0  0  0  0  0  0  0  0  0
   33.6289   25.4832   44.0492 H   0  0  0  0  0  0  0  0  0  0  0  0
   32.6957   27.7837   44.2037 H   0  0  0  0  0  0  0  0  0  0  0  0
   32.6434   31.0180   47.0098 H   0  0  0  0  0  0  0  0  0  0  0  0
   33.9394   30.2641   45.9927 H   0  0  0  0  0  0  0  0  0  0  0  0
   32.7853   32.2255   44.9135 H   0  0  0  0  0  0  0  0  0  0  0  0
   32.6934   30.6637   43.9829 H   0  0  0  0  0  0  0  0  0  0  0  0
   30.5242   31.9605   45.6421 H   0  0  0  0  0  0  0  0  0  0  0  0
   30.5839   31.7344   43.8498 H   0  0  0  0  0  0  0  0  0  0  0  0
   29.1416   30.0750   45.0742 H   0  0  0  0  0  0  0  0  0  0  0  0
   30.4698   29.3593   44.0696 H   0  0  0  0  0  0  0  0  0  0  0  0
   30.4055   29.7202   47.0802 H   0  0  0  0  0  0  0  0  0  0  0  0
   30.3834   28.1742   46.1117 H   0  0  0  0  0  0  0  0  0  0  0  0
   35.5530   27.4912   48.5585 H   0  0  0  0  0  0  0  0  0  0  0  0
   33.7385   29.5403   49.8920 H   0  0  0  0  0  0  0  0  0  0  0  0
   37.5763   30.1706   52.5755 H   0  0  0  0  0  0  0  0  0  0  0  0
   38.8512   31.7010   51.0372 H   0  0  0  0  0  0  0  0  0  0  0  0
   38.6167   30.3711   46.6027 H   0  0  0  0  0  0  0  0  0  0  0  0
   39.8144   32.4243   45.3217 H   0  0  0  0  0  0  0  0  0  0  0  0
   39.8558   34.3974   47.0525 H   0  0  0  0  0  0  0  0  0  0  0  0
  1 15  1  0
  2  1  1  0
  3  2  2  0
  4  3  1  0
  5  6  1  0
  5  4  2  0
  6  7  2  0
  7  2  1  0
  8  7  1  0
  9  8  1  0
 10  9  1  0
 11 10  1  0
 11 12  1  0
 12 13  1  0
 13  8  1  0
 14 15  2  0
 14 20  1  0
 17 16  2  0
 18 17  1  0
 19 18  2  0
 19 20  1  0
 20 21  2  0
 21 16  1  0
 22 26  2  0
 22 18  1  0
 23 22  1  0
 24 23  2  0
 24 25  1  0
 25 26  1  0
  1 27  1  0
  1 28  1  0
  3 29  1  0
  4 30  1  0
  5 31  1  0
  6 32  1  0
  9 33  1  0
  9 34  1  0
 10 35  1  0
 10 36  1  0
 11 37  1  0
 11 38  1  0
 12 39  1  0
 12 40  1  0
 13 41  1  0
 13 42  1  0
 14 43  1  0
 15 44  1  0
 16 45  1  0
 17 46  1  0
 23 47  1  0
 24 48  1  0
 25 49  1  0
M  ISO  8  27   8  28   8  29  14  30  14  31  14  32  14  33  13  34  13
M  ISO  8  35  13  36  13  37  13  38  13  39  13  40  13  41  13  42  13
M  ISO  5  45  14  46  14  47  14  48  14  49   9
M  END
>  <minimizedAffinity>  (1) 
-6.45451307

>  <minimizedRMSD>  (1) 
1.34138167

$$$$
