
     RDKit          3D

 45 48  0  0  0  0  0  0  0  0999 V2000
   32.8560   27.8550   48.5570 C   0  0  0  0  0  0  0  0  0  0  0  0
   33.2070   26.9760   47.4160 C   0  0  0  0  0  0  0  0  0  0  0  0
   33.8100   25.7390   47.5500 C   0  0  0  0  0  0  0  0  0  0  0  0
   34.1020   24.9850   46.4380 C   0  0  0  0  0  0  0  0  0  0  0  0
   33.8090   25.4280   45.1570 C   0  0  0  0  0  0  0  0  0  0  0  0
   33.2140   26.6460   45.0250 C   0  0  0  0  0  0  0  0  0  0  0  0
   32.9100   27.4220   46.1300 C   0  0  0  0  0  0  0  0  0  0  0  0
   32.9310   29.8900   45.6470 C   0  0  0  0  0  0  0  0  0  0  0  0
   32.2730   28.7170   45.8810 C   0  0  0  0  0  0  0  0  0  0  0  0
   30.8780   28.6750   45.8960 C   0  0  0  0  0  0  0  0  0  0  0  0
   30.1300   29.8180   45.6770 C   0  0  0  0  0  0  0  0  0  0  0  0
   30.8390   30.9920   45.4430 C   0  0  0  0  0  0  0  0  0  0  0  0
   32.2170   31.0560   45.4230 C   0  0  0  0  0  0  0  0  0  0  0  0
   35.5370   29.8240   45.6480 N   0  0  0  0  0  0  0  0  0  0  0  0
   34.3620   29.8550   45.6470 C   0  0  0  0  0  0  0  0  0  0  0  0
   35.2260   28.2490   49.1940 C   0  0  0  0  0  0  0  0  0  0  0  0
   33.9880   28.6280   49.0770 C   0  0  0  0  0  0  0  0  0  0  0  0
   37.3270   30.1640   51.4910 C   0  0  0  0  0  0  0  0  0  0  0  0
   38.0390   30.9980   50.6050 C   0  0  0  0  0  0  0  0  0  0  0  0
   37.7670   30.8720   49.2200 C   0  0  0  0  0  0  0  0  0  0  0  0
   36.8320   29.9500   48.8190 N   0  0  0  0  0  0  0  0  0  0  0  0
   36.1900   29.1840   49.7390 C   0  0  0  0  0  0  0  0  0  0  0  0
   36.4300   29.2870   51.0390 N   0  0  0  0  0  0  0  0  0  0  0  0
   38.4480   31.6870   48.2190 C   0  0  0  0  0  0  0  0  0  0  0  0
   38.7520   31.1900   46.9600 C   0  0  0  0  0  0  0  0  0  0  0  0
   39.3920   32.2120   46.2580 C   0  0  0  0  0  0  0  0  0  0  0  0
   39.4540   33.2820   47.1100 N   0  0  0  0  0  0  0  0  0  0  0  0
   38.8880   32.9540   48.2680 N   0  0  0  0  0  0  0  0  0  0  0  0
   32.4616   27.2276   49.3699 H   0  0  0  0  0  0  0  0  0  0  0  0
   32.1152   28.5795   48.1879 H   0  0  0  0  0  0  0  0  0  0  0  0
   34.0573   25.3563   48.5512 H   0  0  0  0  0  0  0  0  0  0  0  0
   34.5812   24.0034   46.5680 H   0  0  0  0  0  0  0  0  0  0  0  0
   34.0494   24.8153   44.2757 H   0  0  0  0  0  0  0  0  0  0  0  0
   32.9701   27.0205   44.0199 H   0  0  0  0  0  0  0  0  0  0  0  0
   30.3662   27.7198   46.0846 H   0  0  0  0  0  0  0  0  0  0  0  0
   29.0302   29.7996   45.6874 H   0  0  0  0  0  0  0  0  0  0  0  0
   30.2714   31.9172   45.2647 H   0  0  0  0  0  0  0  0  0  0  0  0
   32.7352   32.0077   45.2342 H   0  0  0  0  0  0  0  0  0  0  0  0
   35.5355   27.2395   48.8857 H   0  0  0  0  0  0  0  0  0  0  0  0
   33.7626   29.6525   49.4082 H   0  0  0  0  0  0  0  0  0  0  0  0
   37.5144   30.2379   52.5724 H   0  0  0  0  0  0  0  0  0  0  0  0
   38.7800   31.7214   50.9759 H   0  0  0  0  0  0  0  0  0  0  0  0
   38.5301   30.1798   46.5854 H   0  0  0  0  0  0  0  0  0  0  0  0
   39.7710   32.1670   45.2263 H   0  0  0  0  0  0  0  0  0  0  0  0
   39.8729   34.1967   46.8890 H   0  0  0  0  0  0  0  0  0  0  0  0
  1 17  1  0
  2  3  2  0
  2  1  1  0
  4  3  1  0
  5  4  2  0
  6  5  1  0
  6  7  2  0
  7  2  1  0
  8  9  2  0
  9 10  1  0
  9  7  1  0
 11 10  2  0
 12 11  1  0
 13 12  2  0
 13  8  1  0
 15  8  1  0
 15 14  3  0
 16 22  1  0
 17 16  2  0
 19 18  2  0
 20 19  1  0
 21 20  2  0
 21 22  1  0
 22 23  2  0
 23 18  1  0
 24 28  2  0
 24 20  1  0
 25 24  1  0
 26 25  2  0
 26 27  1  0
 27 28  1  0
  1 29  1  0
  1 30  1  0
  3 31  1  0
  4 32  1  0
  5 33  1  0
  6 34  1  0
 10 35  1  0
 11 36  1  0
 12 37  1  0
 13 38  1  0
 16 39  1  0
 17 40  1  0
 18 41  1  0
 19 42  1  0
 25 43  1  0
 26 44  1  0
 27 45  1  0
M  ISO  8  29   8  30   8  31  14  32  14  33  14  34  14  35  14  36  14
M  ISO  7  37  14  38  14  41  14  42  14  43  14  44  14  45   9
M  END
>  <minimizedAffinity>  (1) 
-6.30964279

>  <minimizedRMSD>  (1) 
1.4753865

$$$$
