
     RDKit          3D

 40 42  0  0  0  0  0  0  0  0999 V2000
   32.7940   27.8560   48.7430 C   0  0  0  0  0  0  0  0  0  0  0  0
   33.0820   27.1060   47.4850 C   0  0  0  0  0  0  0  0  0  0  0  0
   33.6770   25.8510   47.4730 C   0  0  0  0  0  0  0  0  0  0  0  0
   33.9220   25.2030   46.2880 C   0  0  0  0  0  0  0  0  0  0  0  0
   33.5810   25.7860   45.0730 C   0  0  0  0  0  0  0  0  0  0  0  0
   33.0020   27.0100   45.0940 C   0  0  0  0  0  0  0  0  0  0  0  0
   32.7480   27.6750   46.2650 C   0  0  0  0  0  0  0  0  0  0  0  0
   32.1550   28.9280   46.2780 O   0  0  0  0  0  0  0  0  0  0  0  0
   32.2910   31.5310   46.0620 O   0  0  0  0  0  0  0  0  0  0  0  0
   33.0170   30.2670   45.6870 P   0  0  0  0  0  0  0  0  0  0  0  0
   33.1130   30.1220   43.9860 O   0  0  0  0  0  0  0  0  0  0  0  0
   34.5770   30.3520   46.3240 O   0  0  0  0  0  0  0  0  0  0  0  0
   35.2030   28.3520   49.0810 C   0  0  0  0  0  0  0  0  0  0  0  0
   33.9420   28.6280   49.2420 C   0  0  0  0  0  0  0  0  0  0  0  0
   37.3240   30.1370   51.4680 C   0  0  0  0  0  0  0  0  0  0  0  0
   38.0390   31.0030   50.6220 C   0  0  0  0  0  0  0  0  0  0  0  0
   37.7660   30.9490   49.2310 C   0  0  0  0  0  0  0  0  0  0  0  0
   36.8280   30.0610   48.7870 N   0  0  0  0  0  0  0  0  0  0  0  0
   36.1820   29.2590   49.6620 C   0  0  0  0  0  0  0  0  0  0  0  0
   36.4200   29.2910   50.9770 N   0  0  0  0  0  0  0  0  0  0  0  0
   38.4570   31.8100   48.2670 C   0  0  0  0  0  0  0  0  0  0  0  0
   38.7960   31.3680   47.0030 C   0  0  0  0  0  0  0  0  0  0  0  0
   39.4330   32.4260   46.3540 C   0  0  0  0  0  0  0  0  0  0  0  0
   39.4590   33.4610   47.2370 N   0  0  0  0  0  0  0  0  0  0  0  0
   38.8770   33.0740   48.3580 N   0  0  0  0  0  0  0  0  0  0  0  0
   32.4964   27.1344   49.5181 H   0  0  0  0  0  0  0  0  0  0  0  0
   31.9947   28.5763   48.5143 H   0  0  0  0  0  0  0  0  0  0  0  0
   33.9548   25.3713   48.4231 H   0  0  0  0  0  0  0  0  0  0  0  0
   34.3942   24.2096   46.3000 H   0  0  0  0  0  0  0  0  0  0  0  0
   33.7758   25.2682   44.1222 H   0  0  0  0  0  0  0  0  0  0  0  0
   32.7269   27.4855   44.1410 H   0  0  0  0  0  0  0  0  0  0  0  0
   33.6441   29.3198   43.7526 H   0  0  0  0  0  0  0  0  0  0  0  0
   34.5302   30.3495   47.3129 H   0  0  0  0  0  0  0  0  0  0  0  0
   35.5202   27.4592   48.5221 H   0  0  0  0  0  0  0  0  0  0  0  0
   33.7089   29.5383   49.8139 H   0  0  0  0  0  0  0  0  0  0  0  0
   37.5140   30.1585   52.5513 H   0  0  0  0  0  0  0  0  0  0  0  0
   38.7870   31.7009   51.0263 H   0  0  0  0  0  0  0  0  0  0  0  0
   38.6004   30.3690   46.5862 H   0  0  0  0  0  0  0  0  0  0  0  0
   39.8351   32.4239   45.3301 H   0  0  0  0  0  0  0  0  0  0  0  0
   39.8648   34.3911   47.0607 H   0  0  0  0  0  0  0  0  0  0  0  0
  1 14  1  0
  2  1  1  0
  3  2  2  0
  4  3  1  0
  5  6  1  0
  5  4  2  0
  6  7  2  0
  7  8  1  0
  7  2  1  0
 10  9  2  0
 10  8  1  0
 10 12  1  0
 11 10  1  0
 13 14  2  0
 13 19  1  0
 16 15  2  0
 17 16  1  0
 18 17  2  0
 18 19  1  0
 19 20  2  0
 20 15  1  0
 21 25  2  0
 21 17  1  0
 22 21  1  0
 23 22  2  0
 23 24  1  0
 24 25  1  0
  1 26  1  0
  1 27  1  0
  3 28  1  0
  4 29  1  0
  5 30  1  0
  6 31  1  0
 11 32  1  0
 12 33  1  0
 13 34  1  0
 14 35  1  0
 15 36  1  0
 16 37  1  0
 22 38  1  0
 23 39  1  0
 24 40  1  0
M  ISO  8  26   8  27   8  28  14  29  14  30  14  31  14  32   3  33   3
M  ISO  5  36  14  37  14  38  14  39  14  40   9
M  END
>  <minimizedAffinity>  (1) 
-6.16994238

>  <minimizedRMSD>  (1) 
1.01996517

$$$$
