
     RDKit          3D

 37 39  0  0  0  0  0  0  0  0999 V2000
   35.0030   28.3940   49.4700 C   0  0  0  0  0  0  0  0  0  0  0  0
   34.2540   28.8020   48.4750 C   0  0  0  0  0  0  0  0  0  0  0  0
   37.3980   30.1580   51.5830 C   0  0  0  0  0  0  0  0  0  0  0  0
   38.1040   30.9300   50.6250 C   0  0  0  0  0  0  0  0  0  0  0  0
   37.7250   30.8190   49.2800 C   0  0  0  0  0  0  0  0  0  0  0  0
   36.6920   29.9680   48.9710 N   0  0  0  0  0  0  0  0  0  0  0  0
   36.0650   29.2620   49.9340 C   0  0  0  0  0  0  0  0  0  0  0  0
   36.4080   29.3540   51.2110 N   0  0  0  0  0  0  0  0  0  0  0  0
   38.3810   31.5710   48.2080 C   0  0  0  0  0  0  0  0  0  0  0  0
   38.5980   31.0440   46.9540 C   0  0  0  0  0  0  0  0  0  0  0  0
   39.2380   32.0290   46.1930 C   0  0  0  0  0  0  0  0  0  0  0  0
   39.3820   33.1060   47.0150 N   0  0  0  0  0  0  0  0  0  0  0  0
   38.8710   32.8190   48.1980 N   0  0  0  0  0  0  0  0  0  0  0  0
   33.1350   28.0860   47.8330 C   0  0  0  0  0  0  0  0  0  0  0  0
   33.5560   26.9410   46.9760 C   0  0  0  0  0  0  0  0  0  0  0  0
   33.7010   25.6390   47.4570 C   0  0  0  0  0  0  0  0  0  0  0  0
   34.0990   24.6150   46.6190 C   0  0  0  0  0  0  0  0  0  0  0  0
   34.3630   24.8560   45.2880 C   0  0  0  0  0  0  0  0  0  0  0  0
   34.2160   26.1220   44.8370 C   0  0  0  0  0  0  0  0  0  0  0  0
   33.8180   27.1740   45.6460 C   0  0  0  0  0  0  0  0  0  0  0  0
   33.7130   28.4860   44.9570 C   0  0  0  0  0  0  0  0  0  0  0  0
   32.5350   29.1410   45.2100 F   0  0  0  0  0  0  0  0  0  0  0  0
   33.8660   28.2680   43.5730 F   0  0  0  0  0  0  0  0  0  0  0  0
   34.7220   29.3490   45.3250 F   0  0  0  0  0  0  0  0  0  0  0  0
   34.8290   27.4155   49.9414 H   0  0  0  0  0  0  0  0  0  0  0  0
   34.4876   29.7977   48.0699 H   0  0  0  0  0  0  0  0  0  0  0  0
   37.6733   30.2258   52.6458 H   0  0  0  0  0  0  0  0  0  0  0  0
   38.9249   31.5963   50.9287 H   0  0  0  0  0  0  0  0  0  0  0  0
   38.3198   30.0356   46.6137 H   0  0  0  0  0  0  0  0  0  0  0  0
   39.5595   31.9497   45.1440 H   0  0  0  0  0  0  0  0  0  0  0  0
   39.8197   34.0013   46.7549 H   0  0  0  0  0  0  0  0  0  0  0  0
   32.4729   27.7012   48.6226 H   0  0  0  0  0  0  0  0  0  0  0  0
   32.6336   28.8087   47.1725 H   0  0  0  0  0  0  0  0  0  0  0  0
   33.4959   25.4253   48.5164 H   0  0  0  0  0  0  0  0  0  0  0  0
   34.2064   23.5959   47.0188 H   0  0  0  0  0  0  0  0  0  0  0  0
   34.6824   24.0461   44.6157 H   0  0  0  0  0  0  0  0  0  0  0  0
   34.4224   26.3268   43.7761 H   0  0  0  0  0  0  0  0  0  0  0  0
  1  7  1  0
  2  1  2  0
  4  3  2  0
  5  4  1  0
  6  5  2  0
  6  7  1  0
  7  8  2  0
  8  3  1  0
  9  5  1  0
 10  9  1  0
 11 10  2  0
 11 12  1  0
 12 13  1  0
 13  9  2  0
 14  2  1  0
 15 16  2  0
 15 14  1  0
 17 16  1  0
 18 17  2  0
 19 18  1  0
 19 20  2  0
 20 15  1  0
 21 22  1  0
 21 24  1  0
 21 20  1  0
 23 21  1  0
  1 25  1  0
  2 26  1  0
  3 27  1  0
  4 28  1  0
 10 29  1  0
 11 30  1  0
 12 31  1  0
 14 32  1  0
 14 33  1  0
 16 34  1  0
 17 35  1  0
 18 36  1  0
 19 37  1  0
M  ISO  8  27  14  28  14  29  14  30  14  31   9  32   8  33   8  34  14
M  ISO  3  35  14  36  14  37  14
M  END
>  <minimizedAffinity>  (1) 
-6.08359957

>  <minimizedRMSD>  (1) 
0.220851541

$$$$
