
     RDKit          3D

 26 27  0  0  0  0  0  0  0  0999 V2000
   35.5480   30.1020   46.3780 O   0  0  0  0  0  0  0  0  0  0  0  0
   34.3910   29.7730   47.2910 P   0  0  1  0  0  0  0  0  0  0  0  0
   34.2900   28.1140   47.6310 O   0  0  0  0  0  0  0  0  0  0  0  0
   34.5210   30.5720   48.8050 O   0  0  0  0  0  0  0  0  0  0  0  0
   35.6620   30.4630   49.5960 C   0  0  0  0  0  0  0  0  0  0  0  0
   35.8620   29.5290   50.6170 C   0  0  0  0  0  0  0  0  0  0  0  0
   37.0630   29.5740   51.2990 C   0  0  0  0  0  0  0  0  0  0  0  0
   38.0010   30.5020   50.9730 N   0  0  0  0  0  0  0  0  0  0  0  0
   37.7700   31.4050   49.9670 C   0  0  0  0  0  0  0  0  0  0  0  0
   36.6000   31.3780   49.2850 N   0  0  0  0  0  0  0  0  0  0  0  0
   32.9860   30.3060   46.4930 O   0  0  0  0  0  0  0  0  0  0  0  0
   32.0020   29.3360   46.2460 C   0  0  0  0  0  0  0  0  0  0  0  0
   31.3300   29.0490   45.0820 C   0  0  0  0  0  0  0  0  0  0  0  0
   30.4810   28.0480   45.3090 N   0  0  0  0  0  0  0  0  0  0  0  0
   30.5820   27.6760   46.5890 C   0  0  0  0  0  0  0  0  0  0  0  0
   31.5140   28.4700   47.1490 N   0  0  0  0  0  0  0  0  0  0  0  0
   29.8810   26.6260   47.3690 C   0  0  0  0  0  0  0  0  0  0  0  0
   34.2817   27.9780   48.6116 H   0  0  0  0  0  0  0  0  0  0  0  0
   35.0913   28.7854   50.8683 H   0  0  0  0  0  0  0  0  0  0  0  0
   37.2606   28.8561   52.1087 H   0  0  0  0  0  0  0  0  0  0  0  0
   38.5362   32.1525   49.7135 H   0  0  0  0  0  0  0  0  0  0  0  0
   31.4704   29.5625   44.1194 H   0  0  0  0  0  0  0  0  0  0  0  0
   29.8494   27.6288   44.6117 H   0  0  0  0  0  0  0  0  0  0  0  0
   30.0105   26.8199   48.4440 H   0  0  0  0  0  0  0  0  0  0  0  0
   28.8095   26.6386   47.1206 H   0  0  0  0  0  0  0  0  0  0  0  0
   30.3034   25.6412   47.1206 H   0  0  0  0  0  0  0  0  0  0  0  0
  2  1  2  0
  2  3  1  0
  2  4  1  0
  4  5  1  0
  5  6  2  0
  6  7  1  0
  8  7  2  0
  9  8  1  0
 10  5  1  0
 10  9  2  0
 11  2  1  0
 12 11  1  0
 12 16  1  0
 13 14  1  0
 13 12  2  0
 14 15  1  0
 15 16  2  0
 15 17  1  0
  3 18  1  0
  6 19  1  0
  7 20  1  0
  9 21  1  0
 13 22  1  0
 14 23  1  0
 17 24  1  0
 17 25  1  0
 17 26  1  0
M  ISO  8  18   3  19  14  20  14  21  14  22  14  23   9  24   8  25   8
M  ISO  1  26   8
M  END
>  <minimizedAffinity>  (1) 
-3.92177463

>  <minimizedRMSD>  (1) 
0.292127818

$$$$
