
     RDKit          3D

 41 44  0  0  0  0  0  0  0  0999 V2000
   34.9990   28.3910   49.4420 C   0  0  0  0  0  0  0  0  0  0  0  0
   34.2950   28.7620   48.4130 C   0  0  0  0  0  0  0  0  0  0  0  0
   37.3850   30.1520   51.5660 C   0  0  0  0  0  0  0  0  0  0  0  0
   38.0880   30.9290   50.6290 C   0  0  0  0  0  0  0  0  0  0  0  0
   37.7180   30.8260   49.2710 C   0  0  0  0  0  0  0  0  0  0  0  0
   36.6900   29.9680   48.9450 N   0  0  0  0  0  0  0  0  0  0  0  0
   36.0620   29.2550   49.9110 C   0  0  0  0  0  0  0  0  0  0  0  0
   36.4070   29.3480   51.1940 N   0  0  0  0  0  0  0  0  0  0  0  0
   38.3790   31.5830   48.2210 C   0  0  0  0  0  0  0  0  0  0  0  0
   38.5970   31.0520   46.9580 C   0  0  0  0  0  0  0  0  0  0  0  0
   39.2450   32.0270   46.1970 C   0  0  0  0  0  0  0  0  0  0  0  0
   39.3970   33.1130   47.0240 N   0  0  0  0  0  0  0  0  0  0  0  0
   38.8790   32.8300   48.2130 N   0  0  0  0  0  0  0  0  0  0  0  0
   33.1820   28.0360   47.7860 C   0  0  0  0  0  0  0  0  0  0  0  0
   33.6140   26.9310   46.9030 C   0  0  0  0  0  0  0  0  0  0  0  0
   33.8150   25.6360   47.3490 C   0  0  0  0  0  0  0  0  0  0  0  0
   34.2170   24.6350   46.4980 C   0  0  0  0  0  0  0  0  0  0  0  0
   34.4340   24.8970   45.1560 C   0  0  0  0  0  0  0  0  0  0  0  0
   34.2360   26.1730   44.7090 C   0  0  0  0  0  0  0  0  0  0  0  0
   33.8350   27.1740   45.5580 C   0  0  0  0  0  0  0  0  0  0  0  0
   33.6400   28.5410   45.0030 C   0  0  0  0  0  0  0  0  0  0  0  0
   34.9360   29.3800   44.8170 C   0  0  0  0  0  0  0  0  0  0  0  0
   34.1440   28.8930   43.6440 C   0  0  0  0  0  0  0  0  0  0  0  0
   34.7902   27.4366   49.9475 H   0  0  0  0  0  0  0  0  0  0  0  0
   34.5632   29.7284   47.9612 H   0  0  0  0  0  0  0  0  0  0  0  0
   37.6555   30.2154   52.6303 H   0  0  0  0  0  0  0  0  0  0  0  0
   38.9024   31.5975   50.9449 H   0  0  0  0  0  0  0  0  0  0  0  0
   38.3113   30.0457   46.6179 H   0  0  0  0  0  0  0  0  0  0  0  0
   39.5679   31.9426   45.1489 H   0  0  0  0  0  0  0  0  0  0  0  0
   39.8419   34.0046   46.7633 H   0  0  0  0  0  0  0  0  0  0  0  0
   32.5488   27.6170   48.5819 H   0  0  0  0  0  0  0  0  0  0  0  0
   32.6422   28.7581   47.1558 H   0  0  0  0  0  0  0  0  0  0  0  0
   33.6488   25.4026   48.4110 H   0  0  0  0  0  0  0  0  0  0  0  0
   34.3677   23.6169   46.8862 H   0  0  0  0  0  0  0  0  0  0  0  0
   34.7566   24.1007   44.4691 H   0  0  0  0  0  0  0  0  0  0  0  0
   34.4015   26.4028   43.6461 H   0  0  0  0  0  0  0  0  0  0  0  0
   32.6628   28.6483   45.4966 H   0  0  0  0  0  0  0  0  0  0  0  0
   34.9454   30.4496   45.0738 H   0  0  0  0  0  0  0  0  0  0  0  0
   35.9813   29.2971   45.1495 H   0  0  0  0  0  0  0  0  0  0  0  0
   33.5864   29.6146   43.0289 H   0  0  0  0  0  0  0  0  0  0  0  0
   34.3930   28.3051   42.7483 H   0  0  0  0  0  0  0  0  0  0  0  0
  1  7  1  0
  2  1  2  0
  4  3  2  0
  5  4  1  0
  6  5  2  0
  6  7  1  0
  7  8  2  0
  8  3  1  0
  9  5  1  0
 10  9  1  0
 11 10  2  0
 11 12  1  0
 12 13  1  0
 13  9  2  0
 14  2  1  0
 15 16  2  0
 15 14  1  0
 17 16  1  0
 18 17  2  0
 19 18  1  0
 19 20  2  0
 20 15  1  0
 21 20  1  0
 22 21  1  0
 23 22  1  0
 23 21  1  0
  1 24  1  0
  2 25  1  0
  3 26  1  0
  4 27  1  0
 10 28  1  0
 11 29  1  0
 12 30  1  0
 14 31  1  0
 14 32  1  0
 16 33  1  0
 17 34  1  0
 18 35  1  0
 19 36  1  0
 21 37  1  0
 22 38  1  0
 22 39  1  0
 23 40  1  0
 23 41  1  0
M  ISO  8  26  14  27  14  28  14  29  14  30   9  31   8  32   8  33  14
M  ISO  8  34  14  35  14  36  14  37  13  38  13  39  13  40  13  41  13
M  END
>  <minimizedAffinity>  (1) 
-6.06944466

>  <minimizedRMSD>  (1) 
0.217643514

$$$$
