
     RDKit          3D

 36 39  0  0  0  0  0  0  0  0999 V2000
   34.9980   30.0320   46.9500 C   0  0  0  0  0  0  0  0  0  0  0  0
   36.3500   30.4870   46.8810 C   0  0  0  0  0  0  0  0  0  0  0  0
   36.8570   30.8040   45.6210 C   0  0  0  0  0  0  0  0  0  0  0  0
   36.0590   30.6690   44.5260 N   0  0  0  0  0  0  0  0  0  0  0  0
   34.7820   30.2350   44.6280 C   0  0  0  0  0  0  0  0  0  0  0  0
   34.2550   29.9190   45.8300 N   0  0  0  0  0  0  0  0  0  0  0  0
   38.2110   31.2690   45.4500 C   0  0  0  0  0  0  0  0  0  0  0  0
   39.2400   30.4490   45.7980 C   0  0  0  0  0  0  0  0  0  0  0  0
   40.5680   30.8090   45.6510 C   0  0  0  0  0  0  0  0  0  0  0  0
   40.8310   32.0740   45.1220 C   0  0  0  0  0  0  0  0  0  0  0  0
   39.8210   32.9610   44.7460 C   0  0  0  0  0  0  0  0  0  0  0  0
   38.5160   32.5110   44.9300 C   0  0  0  0  0  0  0  0  0  0  0  0
   36.9740   30.5200   48.1710 C   0  0  0  0  0  0  0  0  0  0  0  0
   36.8670   29.4330   49.0590 C   0  0  0  0  0  0  0  0  0  0  0  0
   37.4380   29.3760   50.3090 C   0  0  0  0  0  0  0  0  0  0  0  0
   38.1720   30.4450   50.7450 C   0  0  0  0  0  0  0  0  0  0  0  0
   38.3280   31.5510   49.9410 C   0  0  0  0  0  0  0  0  0  0  0  0
   39.0780   32.6280   50.3780 C   0  0  0  0  0  0  0  0  0  0  0  0
   39.2600   33.7450   49.5870 C   0  0  0  0  0  0  0  0  0  0  0  0
   38.6630   33.7390   48.3430 C   0  0  0  0  0  0  0  0  0  0  0  0
   37.9220   32.6580   47.9290 C   0  0  0  0  0  0  0  0  0  0  0  0
   37.7310   31.5430   48.7040 C   0  0  0  0  0  0  0  0  0  0  0  0
   34.5591   29.7716   47.9244 H   0  0  0  0  0  0  0  0  0  0  0  0
   34.1662   30.1385   43.7217 H   0  0  0  0  0  0  0  0  0  0  0  0
   39.0060   29.4579   46.2138 H   0  0  0  0  0  0  0  0  0  0  0  0
   41.3820   30.1274   45.9387 H   0  0  0  0  0  0  0  0  0  0  0  0
   41.8786   32.3848   44.9962 H   0  0  0  0  0  0  0  0  0  0  0  0
   40.0423   33.9548   44.3297 H   0  0  0  0  0  0  0  0  0  0  0  0
   37.6879   33.1776   44.6473 H   0  0  0  0  0  0  0  0  0  0  0  0
   36.2819   28.5624   48.7278 H   0  0  0  0  0  0  0  0  0  0  0  0
   37.3071   28.4885   50.9455 H   0  0  0  0  0  0  0  0  0  0  0  0
   38.6387   30.4205   51.7408 H   0  0  0  0  0  0  0  0  0  0  0  0
   39.5389   32.5939   51.3762 H   0  0  0  0  0  0  0  0  0  0  0  0
   39.8552   34.6027   49.9336 H   0  0  0  0  0  0  0  0  0  0  0  0
   38.7811   34.6066   47.6771 H   0  0  0  0  0  0  0  0  0  0  0  0
   37.4612   32.6887   46.9306 H   0  0  0  0  0  0  0  0  0  0  0  0
  2  1  2  0
  2 13  1  0
  3  2  1  0
  4  5  1  0
  4  3  2  0
  5  6  2  0
  6  1  1  0
  7  3  1  0
  7  8  2  0
  9  8  1  0
 10  9  2  0
 11 12  2  0
 11 10  1  0
 12  7  1  0
 13 22  1  0
 13 14  2  0
 14 15  1  0
 15 16  2  0
 17 18  2  0
 17 16  1  0
 19 18  1  0
 20 19  2  0
 21 20  1  0
 21 22  2  0
 22 17  1  0
  1 23  1  0
  5 24  1  0
  8 25  1  0
  9 26  1  0
 10 27  1  0
 11 28  1  0
 12 29  1  0
 14 30  1  0
 15 31  1  0
 16 32  1  0
 18 33  1  0
 19 34  1  0
 20 35  1  0
 21 36  1  0
M  ISO  8  23  14  24  14  25  14  26  14  27  14  28  14  29  14  30  14
M  ISO  6  31  14  32  14  33  14  34  14  35  14  36  14
M  END
>  <minimizedAffinity>  (1) 
-6.42117834

>  <minimizedRMSD>  (1) 
3.82449985

$$$$
