
     RDKit          3D

 28 30  0  0  0  0  0  0  0  0999 V2000
   35.2270   30.0420   46.8470 C   0  0  0  0  0  0  0  0  0  0  0  0
   36.5400   30.5800   46.7860 C   0  0  0  0  0  0  0  0  0  0  0  0
   37.0800   30.8240   45.5120 C   0  0  0  0  0  0  0  0  0  0  0  0
   36.3370   30.5390   44.4000 N   0  0  0  0  0  0  0  0  0  0  0  0
   35.0770   30.0210   44.5150 C   0  0  0  0  0  0  0  0  0  0  0  0
   34.5370   29.7790   45.7220 N   0  0  0  0  0  0  0  0  0  0  0  0
   38.4100   31.3610   45.3380 C   0  0  0  0  0  0  0  0  0  0  0  0
   38.5270   32.6660   44.9460 C   0  0  0  0  0  0  0  0  0  0  0  0
   39.7550   33.2850   44.7660 C   0  0  0  0  0  0  0  0  0  0  0  0
   40.8760   32.5060   45.0060 C   0  0  0  0  0  0  0  0  0  0  0  0
   40.8330   31.1700   45.4080 C   0  0  0  0  0  0  0  0  0  0  0  0
   39.5540   30.6170   45.5670 C   0  0  0  0  0  0  0  0  0  0  0  0
   37.1850   30.8000   48.0610 C   0  0  0  0  0  0  0  0  0  0  0  0
   37.7740   32.0100   48.4560 C   0  0  0  0  0  0  0  0  0  0  0  0
   38.3740   32.1830   49.6810 C   0  0  0  0  0  0  0  0  0  0  0  0
   38.3680   31.1020   50.5050 N   0  0  0  0  0  0  0  0  0  0  0  0
   37.8090   29.9320   50.1440 C   0  0  0  0  0  0  0  0  0  0  0  0
   37.2200   29.7600   48.9430 N   0  0  0  0  0  0  0  0  0  0  0  0
   34.7685   29.8378   47.8258 H   0  0  0  0  0  0  0  0  0  0  0  0
   34.4970   29.7991   43.6071 H   0  0  0  0  0  0  0  0  0  0  0  0
   37.6109   33.2477   44.7664 H   0  0  0  0  0  0  0  0  0  0  0  0
   39.8349   34.3357   44.4503 H   0  0  0  0  0  0  0  0  0  0  0  0
   41.8638   32.9708   44.8709 H   0  0  0  0  0  0  0  0  0  0  0  0
   41.7474   30.5860   45.5892 H   0  0  0  0  0  0  0  0  0  0  0  0
   39.4580   29.5672   45.8811 H   0  0  0  0  0  0  0  0  0  0  0  0
   37.7551   32.8576   47.7552 H   0  0  0  0  0  0  0  0  0  0  0  0
   38.8314   33.1388   49.9764 H   0  0  0  0  0  0  0  0  0  0  0  0
   37.8333   29.0895   50.8508 H   0  0  0  0  0  0  0  0  0  0  0  0
  2  1  2  0
  2 13  1  0
  3  2  1  0
  4  5  1  0
  4  3  2  0
  5  6  2  0
  6  1  1  0
  7  3  1  0
  7 12  1  0
  8  7  2  0
  9  8  1  0
  9 10  2  0
 10 11  1  0
 11 12  2  0
 13 14  2  0
 13 18  1  0
 14 15  1  0
 15 16  2  0
 17 16  1  0
 18 17  2  0
  1 19  1  0
  5 20  1  0
  8 21  1  0
  9 22  1  0
 10 23  1  0
 11 24  1  0
 12 25  1  0
 14 26  1  0
 15 27  1  0
 17 28  1  0
M  ISO  8  19  14  20  14  21  14  22  14  23  14  24  14  25  14  26  14
M  ISO  2  27  14  28  14
M  END
>  <minimizedAffinity>  (1) 
-5.69653749

>  <minimizedRMSD>  (1) 
3.86019683

$$$$
