
     RDKit          3D

 27 29  0  0  0  0  0  0  0  0999 V2000
   35.4430   30.1210   47.4210 C   0  0  0  0  0  0  0  0  0  0  0  0
   36.7420   30.6710   47.2090 C   0  0  0  0  0  0  0  0  0  0  0  0
   37.1690   30.8360   45.8860 C   0  0  0  0  0  0  0  0  0  0  0  0
   36.3390   30.4660   44.8600 N   0  0  0  0  0  0  0  0  0  0  0  0
   35.1140   29.9460   45.1090 C   0  0  0  0  0  0  0  0  0  0  0  0
   34.6700   29.7750   46.3750 N   0  0  0  0  0  0  0  0  0  0  0  0
   38.4610   31.3860   45.5610 C   0  0  0  0  0  0  0  0  0  0  0  0
   38.5040   32.6710   45.0480 C   0  0  0  0  0  0  0  0  0  0  0  0
   39.7000   33.2780   44.7260 C   0  0  0  0  0  0  0  0  0  0  0  0
   40.8710   32.5420   44.9350 C   0  0  0  0  0  0  0  0  0  0  0  0
   40.8900   31.2370   45.4490 C   0  0  0  0  0  0  0  0  0  0  0  0
   39.6370   30.6820   45.7570 C   0  0  0  0  0  0  0  0  0  0  0  0
   37.4460   30.9420   48.4180 C   0  0  0  0  0  0  0  0  0  0  0  0
   37.6420   29.8510   49.2790 C   0  0  0  0  0  0  0  0  0  0  0  0
   38.3120   30.2960   50.3810 N   0  0  0  0  0  0  0  0  0  0  0  0
   38.5180   31.6220   50.1960 C   0  0  0  0  0  0  0  0  0  0  0  0
   38.0060   32.0370   49.0200 N   0  0  0  0  0  0  0  0  0  0  0  0
   35.0706   29.9787   48.4462 H   0  0  0  0  0  0  0  0  0  0  0  0
   34.4683   29.6574   44.2665 H   0  0  0  0  0  0  0  0  0  0  0  0
   37.5635   33.2202   44.8937 H   0  0  0  0  0  0  0  0  0  0  0  0
   39.7317   34.3002   44.3210 H   0  0  0  0  0  0  0  0  0  0  0  0
   41.8320   33.0136   44.6818 H   0  0  0  0  0  0  0  0  0  0  0  0
   41.8279   30.6827   45.6014 H   0  0  0  0  0  0  0  0  0  0  0  0
   39.5888   29.6614   46.1646 H   0  0  0  0  0  0  0  0  0  0  0  0
   37.3128   28.8173   49.0970 H   0  0  0  0  0  0  0  0  0  0  0  0
   38.6037   29.7343   51.1936 H   0  0  0  0  0  0  0  0  0  0  0  0
   39.0362   32.2758   50.9129 H   0  0  0  0  0  0  0  0  0  0  0  0
  2  1  2  0
  2 13  1  0
  3  2  1  0
  4  5  1  0
  4  3  2  0
  5  6  2  0
  6  1  1  0
  7 12  1  0
  7  3  1  0
  8  7  2  0
  9 10  2  0
  9  8  1  0
 10 11  1  0
 11 12  2  0
 13 17  1  0
 13 14  2  0
 14 15  1  0
 16 15  1  0
 17 16  2  0
  1 18  1  0
  5 19  1  0
  8 20  1  0
  9 21  1  0
 10 22  1  0
 11 23  1  0
 12 24  1  0
 14 25  1  0
 15 26  1  0
 16 27  1  0
M  ISO  8  18  14  19  14  20  14  21  14  22  14  23  14  24  14  25  14
M  ISO  2  26   9  27  14
M  END
>  <minimizedAffinity>  (1) 
-5.66016293

>  <minimizedRMSD>  (1) 
3.45502877

$$$$
