
     RDKit          3D

 30 32  0  0  0  0  0  0  0  0999 V2000
   38.0960   30.6380   50.4490 C   0  0  0  0  0  0  0  0  0  0  0  0
   37.2310   30.4400   49.3520 C   0  0  0  0  0  0  0  0  0  0  0  0
   36.0420   29.7660   49.5390 C   0  0  0  0  0  0  0  0  0  0  0  0
   35.7240   29.3020   50.7870 N   0  0  0  0  0  0  0  0  0  0  0  0
   36.5810   29.5080   51.8330 C   0  0  0  0  0  0  0  0  0  0  0  0
   37.7510   30.1690   51.6580 N   0  0  0  0  0  0  0  0  0  0  0  0
   35.1070   29.5220   48.4680 C   0  0  0  0  0  0  0  0  0  0  0  0
   34.5070   30.6000   47.8790 C   0  0  0  0  0  0  0  0  0  0  0  0
   33.5970   30.4670   46.8350 C   0  0  0  0  0  0  0  0  0  0  0  0
   33.3130   29.1710   46.4020 C   0  0  0  0  0  0  0  0  0  0  0  0
   33.8940   28.0280   46.9640 C   0  0  0  0  0  0  0  0  0  0  0  0
   34.7880   28.2630   48.0000 C   0  0  0  0  0  0  0  0  0  0  0  0
   37.9880   33.3950   49.2780 Cl  0  0  0  0  0  0  0  0  0  0  0  0
   38.1600   32.2930   47.9110 C   0  0  0  0  0  0  0  0  0  0  0  0
   37.7600   30.9810   48.1170 C   0  0  0  0  0  0  0  0  0  0  0  0
   37.8920   30.0970   47.0370 C   0  0  0  0  0  0  0  0  0  0  0  0
   38.3980   30.5120   45.8170 C   0  0  0  0  0  0  0  0  0  0  0  0
   38.7920   31.8340   45.6410 C   0  0  0  0  0  0  0  0  0  0  0  0
   38.6660   32.7150   46.6990 C   0  0  0  0  0  0  0  0  0  0  0  0
   39.0473   31.1735   50.3140 H   0  0  0  0  0  0  0  0  0  0  0  0
   36.3163   29.1312   52.8320 H   0  0  0  0  0  0  0  0  0  0  0  0
   34.7524   31.6084   48.2435 H   0  0  0  0  0  0  0  0  0  0  0  0
   33.1224   31.3444   46.3714 H   0  0  0  0  0  0  0  0  0  0  0  0
   32.5965   29.0411   45.5775 H   0  0  0  0  0  0  0  0  0  0  0  0
   33.6585   27.0137   46.6093 H   0  0  0  0  0  0  0  0  0  0  0  0
   35.2699   27.3959   48.4753 H   0  0  0  0  0  0  0  0  0  0  0  0
   37.5860   29.0478   47.1620 H   0  0  0  0  0  0  0  0  0  0  0  0
   38.4884   29.7960   44.9868 H   0  0  0  0  0  0  0  0  0  0  0  0
   39.1971   32.1731   44.6762 H   0  0  0  0  0  0  0  0  0  0  0  0
   38.9726   33.7639   46.5730 H   0  0  0  0  0  0  0  0  0  0  0  0
  1  6  2  0
  2  3  2  0
  2  1  1  0
  3  4  1  0
  4  5  2  0
  6  5  1  0
  7  3  1  0
  8  7  2  0
  9  8  1  0
 10  9  2  0
 10 11  1  0
 11 12  2  0
 12  7  1  0
 14 15  2  0
 14 13  1  0
 15  2  1  0
 16 15  1  0
 17 16  2  0
 18 17  1  0
 18 19  2  0
 19 14  1  0
  1 20  1  0
  5 21  1  0
  8 22  1  0
  9 23  1  0
 10 24  1  0
 11 25  1  0
 12 26  1  0
 16 27  1  0
 17 28  1  0
 18 29  1  0
 19 30  1  0
M  ISO  8  20  14  21  14  22  14  23  14  24  14  25  14  26  14  27  14
M  ISO  3  28  14  29  14  30  14
M  END
>  <minimizedAffinity>  (1) 
-5.34697294

>  <minimizedRMSD>  (1) 
4.5500412

$$$$
