
     RDKit          3D

 26 27  0  0  0  0  0  0  0  0999 V2000
   35.5260   29.7820   49.8970 C   0  0  0  0  0  0  0  0  0  0  0  0
   36.7780   30.2690   49.3700 C   0  0  0  0  0  0  0  0  0  0  0  0
   36.7350   30.6110   48.0100 C   0  0  0  0  0  0  0  0  0  0  0  0
   35.5870   30.4760   47.2730 N   0  0  0  0  0  0  0  0  0  0  0  0
   34.4410   30.0050   47.8410 C   0  0  0  0  0  0  0  0  0  0  0  0
   34.4130   29.6640   49.1380 N   0  0  0  0  0  0  0  0  0  0  0  0
   37.8970   31.1350   47.3280 C   0  0  0  0  0  0  0  0  0  0  0  0
   38.3370   32.3790   47.6710 C   0  0  0  0  0  0  0  0  0  0  0  0
   39.4510   32.9790   47.0860 C   0  0  0  0  0  0  0  0  0  0  0  0
   40.1110   32.2320   46.1050 C   0  0  0  0  0  0  0  0  0  0  0  0
   39.7140   30.9460   45.6970 C   0  0  0  0  0  0  0  0  0  0  0  0
   38.5920   30.4390   46.3450 C   0  0  0  0  0  0  0  0  0  0  0  0
   37.9040   30.2710   50.2980 C   0  0  0  0  0  0  0  0  0  0  0  0
   37.4120   30.0260   51.7330 C   0  0  0  0  0  0  0  0  0  0  0  0
   35.4750   29.4955   50.9578 H   0  0  0  0  0  0  0  0  0  0  0  0
   33.5315   29.9037   47.2307 H   0  0  0  0  0  0  0  0  0  0  0  0
   37.7876   32.9349   48.4451 H   0  0  0  0  0  0  0  0  0  0  0  0
   39.7916   33.9830   47.3793 H   0  0  0  0  0  0  0  0  0  0  0  0
   40.9941   32.6773   45.6234 H   0  0  0  0  0  0  0  0  0  0  0  0
   40.2520   30.3815   44.9212 H   0  0  0  0  0  0  0  0  0  0  0  0
   38.2365   29.4363   46.0654 H   0  0  0  0  0  0  0  0  0  0  0  0
   38.6089   29.4753   50.0151 H   0  0  0  0  0  0  0  0  0  0  0  0
   38.4034   31.2500   50.2529 H   0  0  0  0  0  0  0  0  0  0  0  0
   38.1615   30.3992   52.4463 H   0  0  0  0  0  0  0  0  0  0  0  0
   36.4608   30.5557   51.8899 H   0  0  0  0  0  0  0  0  0  0  0  0
   37.2615   28.9477   51.8899 H   0  0  0  0  0  0  0  0  0  0  0  0
  2  1  2  0
  2 13  1  0
  3  2  1  0
  4  5  1  0
  4  3  2  0
  5  6  2  0
  6  1  1  0
  7  8  2  0
  7  3  1  0
  9  8  1  0
 10  9  2  0
 11 10  1  0
 11 12  2  0
 12  7  1  0
 13 14  1  0
  1 15  1  0
  5 16  1  0
  8 17  1  0
  9 18  1  0
 10 19  1  0
 11 20  1  0
 12 21  1  0
 13 22  1  0
 13 23  1  0
 14 24  1  0
 14 25  1  0
 14 26  1  0
M  ISO  8  15  14  16  14  17  14  18  14  19  14  20  14  21  14  22   8
M  ISO  4  23   8  24   8  25   8  26   8
M  END
>  <minimizedAffinity>  (1) 
-5.25045204

>  <minimizedRMSD>  (1) 
1.74787605

$$$$
