
     RDKit          3D

 30 32  0  0  0  0  0  0  0  0999 V2000
   35.2680   29.9940   45.2810 C   0  0  0  0  0  0  0  0  0  0  0  0
   35.4730   29.8690   46.6930 C   0  0  0  0  0  0  0  0  0  0  0  0
   36.5870   30.5240   47.2330 C   0  0  0  0  0  0  0  0  0  0  0  0
   37.4140   31.2400   46.4100 N   0  0  0  0  0  0  0  0  0  0  0  0
   37.1820   31.3290   45.0850 C   0  0  0  0  0  0  0  0  0  0  0  0
   36.1220   30.7150   44.5260 N   0  0  0  0  0  0  0  0  0  0  0  0
   36.8840   30.4540   48.6470 C   0  0  0  0  0  0  0  0  0  0  0  0
   36.9580   31.6190   49.3590 C   0  0  0  0  0  0  0  0  0  0  0  0
   37.2210   31.6330   50.7150 C   0  0  0  0  0  0  0  0  0  0  0  0
   37.4130   30.3960   51.3330 C   0  0  0  0  0  0  0  0  0  0  0  0
   37.3540   29.1650   50.6660 C   0  0  0  0  0  0  0  0  0  0  0  0
   37.0830   29.2540   49.3050 C   0  0  0  0  0  0  0  0  0  0  0  0
   33.9970   30.5480   49.0280 F   0  0  0  0  0  0  0  0  0  0  0  0
   33.7400   29.3350   48.4780 C   0  0  0  0  0  0  0  0  0  0  0  0
   34.5000   29.0470   47.3370 C   0  0  0  0  0  0  0  0  0  0  0  0
   34.2790   27.8050   46.7240 C   0  0  0  0  0  0  0  0  0  0  0  0
   33.3490   26.8890   47.2190 C   0  0  0  0  0  0  0  0  0  0  0  0
   32.6170   27.2100   48.3510 C   0  0  0  0  0  0  0  0  0  0  0  0
   32.8160   28.4270   48.9710 C   0  0  0  0  0  0  0  0  0  0  0  0
   34.4073   29.4981   44.8086 H   0  0  0  0  0  0  0  0  0  0  0  0
   37.8679   31.9111   44.4520 H   0  0  0  0  0  0  0  0  0  0  0  0
   36.8034   32.5743   48.8360 H   0  0  0  0  0  0  0  0  0  0  0  0
   37.2765   32.5745   51.2812 H   0  0  0  0  0  0  0  0  0  0  0  0
   37.6241   30.3870   52.4125 H   0  0  0  0  0  0  0  0  0  0  0  0
   37.5097   28.2042   51.1785 H   0  0  0  0  0  0  0  0  0  0  0  0
   37.0239   28.3229   48.7223 H   0  0  0  0  0  0  0  0  0  0  0  0
   34.8567   27.5445   45.8249 H   0  0  0  0  0  0  0  0  0  0  0  0
   33.1988   25.9225   46.7157 H   0  0  0  0  0  0  0  0  0  0  0  0
   31.8810   26.4984   48.7535 H   0  0  0  0  0  0  0  0  0  0  0  0
   32.2331   28.6799   49.8690 H   0  0  0  0  0  0  0  0  0  0  0  0
  1  2  2  0
  2  3  1  0
  2 15  1  0
  3  7  1  0
  4  3  2  0
  5  4  1  0
  6  5  2  0
  6  1  1  0
  7 12  1  0
  7  8  2  0
  8  9  1  0
  9 10  2  0
 11 10  1  0
 12 11  2  0
 14 19  2  0
 14 13  1  0
 15 14  1  0
 16 17  1  0
 16 15  2  0
 17 18  2  0
 18 19  1  0
  1 20  1  0
  5 21  1  0
  8 22  1  0
  9 23  1  0
 10 24  1  0
 11 25  1  0
 12 26  1  0
 16 27  1  0
 17 28  1  0
 18 29  1  0
 19 30  1  0
M  ISO  8  20  14  21  14  22  14  23  14  24  14  25  14  26  14  27  14
M  ISO  3  28  14  29  14  30  14
M  END
>  <minimizedAffinity>  (1) 
-5.00414658

>  <minimizedRMSD>  (1) 
6.35868788

$$$$
