
     RDKit          3D

 30 32  0  0  0  0  0  0  0  0999 V2000
   35.9410   30.6270   48.1410 C   0  0  0  0  0  0  0  0  0  0  0  0
   34.9240   29.7120   47.7760 C   0  0  0  0  0  0  0  0  0  0  0  0
   34.6460   28.6580   48.6240 C   0  0  0  0  0  0  0  0  0  0  0  0
   35.3550   28.5240   49.7850 N   0  0  0  0  0  0  0  0  0  0  0  0
   36.3330   29.4260   50.1080 C   0  0  0  0  0  0  0  0  0  0  0  0
   36.6110   30.4640   49.2820 N   0  0  0  0  0  0  0  0  0  0  0  0
   33.6250   27.6830   48.3310 C   0  0  0  0  0  0  0  0  0  0  0  0
   32.3580   27.9000   48.7930 C   0  0  0  0  0  0  0  0  0  0  0  0
   31.3240   26.9870   48.5440 C   0  0  0  0  0  0  0  0  0  0  0  0
   31.6380   25.8470   47.8060 C   0  0  0  0  0  0  0  0  0  0  0  0
   32.9120   25.5710   47.3090 C   0  0  0  0  0  0  0  0  0  0  0  0
   33.8560   26.5300   47.6090 C   0  0  0  0  0  0  0  0  0  0  0  0
   34.2960   30.0040   46.4980 C   0  0  0  0  0  0  0  0  0  0  0  0
   33.0080   30.5210   46.2870 C   0  0  0  0  0  0  0  0  0  0  0  0
   32.5640   30.7540   45.0020 C   0  0  0  0  0  0  0  0  0  0  0  0
   33.3990   30.4720   43.9350 C   0  0  0  0  0  0  0  0  0  0  0  0
   34.6720   29.9630   44.0850 C   0  0  0  0  0  0  0  0  0  0  0  0
   35.1070   29.7330   45.3850 C   0  0  0  0  0  0  0  0  0  0  0  0
   36.1789   31.4746   47.4814 H   0  0  0  0  0  0  0  0  0  0  0  0
   36.8973   29.3074   51.0448 H   0  0  0  0  0  0  0  0  0  0  0  0
   32.1447   28.8103   49.3726 H   0  0  0  0  0  0  0  0  0  0  0  0
   30.3042   27.1634   48.9166 H   0  0  0  0  0  0  0  0  0  0  0  0
   30.8348   25.1231   47.6038 H   0  0  0  0  0  0  0  0  0  0  0  0
   33.1434   24.6662   46.7278 H   0  0  0  0  0  0  0  0  0  0  0  0
   34.8792   26.3619   47.2420 H   0  0  0  0  0  0  0  0  0  0  0  0
   32.3544   30.7398   47.1443 H   0  0  0  0  0  0  0  0  0  0  0  0
   31.5566   31.1598   44.8272 H   0  0  0  0  0  0  0  0  0  0  0  0
   33.0291   30.6633   42.9169 H   0  0  0  0  0  0  0  0  0  0  0  0
   35.3128   29.7491   43.2169 H   0  0  0  0  0  0  0  0  0  0  0  0
   36.1164   29.3267   45.5462 H   0  0  0  0  0  0  0  0  0  0  0  0
  1  6  2  0
  2  1  1  0
  2  3  2  0
  3  4  1  0
  4  5  2  0
  6  5  1  0
  7  3  1  0
  7  8  2  0
  9  8  1  0
 10  9  2  0
 11 12  2  0
 11 10  1  0
 12  7  1  0
 13  2  1  0
 14 13  2  0
 15 14  1  0
 16 17  1  0
 16 15  2  0
 17 18  2  0
 18 13  1  0
  1 19  1  0
  5 20  1  0
  8 21  1  0
  9 22  1  0
 10 23  1  0
 11 24  1  0
 12 25  1  0
 14 26  1  0
 15 27  1  0
 16 28  1  0
 17 29  1  0
 18 30  1  0
M  ISO  8  19  14  20  14  21  14  22  14  23  14  24  14  25  14  26  14
M  ISO  4  27  14  28  14  29  14  30  14
M  END
>  <minimizedAffinity>  (1) 
-4.72585869

>  <minimizedRMSD>  (1) 
7.57272243

$$$$
