
     RDKit          3D

 24 25  0  0  0  0  0  0  0  0999 V2000
   35.6190   30.1680   46.4550 O   0  0  0  0  0  0  0  0  0  0  0  0
   34.4150   29.8630   47.3100 P   0  0  1  0  0  0  0  0  0  0  0  0
   34.2390   28.1930   47.5600 O   0  0  0  0  0  0  0  0  0  0  0  0
   34.5260   30.5740   48.8680 O   0  0  0  0  0  0  0  0  0  0  0  0
   35.6730   30.4660   49.6390 C   0  0  0  0  0  0  0  0  0  0  0  0
   35.9000   29.5120   50.6310 C   0  0  0  0  0  0  0  0  0  0  0  0
   37.1110   29.5490   51.3100 C   0  0  0  0  0  0  0  0  0  0  0  0
   38.0220   30.4960   50.9950 N   0  0  0  0  0  0  0  0  0  0  0  0
   37.7730   31.4200   50.0190 C   0  0  0  0  0  0  0  0  0  0  0  0
   36.5920   31.4020   49.3400 N   0  0  0  0  0  0  0  0  0  0  0  0
   33.0640   30.4990   46.5000 O   0  0  0  0  0  0  0  0  0  0  0  0
   32.0850   29.5810   46.1080 C   0  0  0  0  0  0  0  0  0  0  0  0
   31.4840   29.4030   44.8740 C   0  0  0  0  0  0  0  0  0  0  0  0
   30.6010   28.4010   44.9650 N   0  0  0  0  0  0  0  0  0  0  0  0
   30.6040   27.9180   46.2180 C   0  0  0  0  0  0  0  0  0  0  0  0
   31.5140   28.6520   46.8930 N   0  0  0  0  0  0  0  0  0  0  0  0
   29.8350   26.8720   46.7460 O   0  0  0  0  0  0  0  0  0  0  0  0
   34.2192   28.0051   48.5318 H   0  0  0  0  0  0  0  0  0  0  0  0
   35.1413   28.7518   50.8688 H   0  0  0  0  0  0  0  0  0  0  0  0
   37.3269   28.8129   52.0983 H   0  0  0  0  0  0  0  0  0  0  0  0
   38.5298   32.1818   49.7806 H   0  0  0  0  0  0  0  0  0  0  0  0
   31.6969   29.9886   43.9675 H   0  0  0  0  0  0  0  0  0  0  0  0
   30.0116   28.0547   44.1946 H   0  0  0  0  0  0  0  0  0  0  0  0
   29.9363   26.6140   47.6964 H   0  0  0  0  0  0  0  0  0  0  0  0
  2  1  2  0
  2  3  1  0
  2  4  1  0
  4  5  1  0
  5  6  2  0
  6  7  1  0
  8  7  2  0
  9  8  1  0
 10  5  1  0
 10  9  2  0
 11  2  1  0
 12 11  1  0
 12 16  1  0
 13 14  1  0
 13 12  2  0
 14 15  1  0
 15 17  1  0
 15 16  2  0
  3 18  1  0
  6 19  1  0
  7 20  1  0
  9 21  1  0
 13 22  1  0
 14 23  1  0
 17 24  1  0
M  ISO  7  18   3  19  14  20  14  21  14  22  14  23   9  24   3
M  END
>  <minimizedAffinity>  (1) 
-3.89002109

>  <minimizedRMSD>  (1) 
0.0244901553

$$$$
