
     RDKit          3D

 35 37  0  0  1  0  0  0  0  0999 V2000
   35.0160   29.9150   46.7540 C   0  0  0  0  0  0  0  0  0  0  0  0
   36.3000   30.5240   46.8250 C   0  0  0  0  0  0  0  0  0  0  0  0
   36.9600   30.6800   45.5950 C   0  0  0  0  0  0  0  0  0  0  0  0
   36.3580   30.2570   44.4520 N   0  0  0  0  0  0  0  0  0  0  0  0
   35.1480   29.6910   44.4450 C   0  0  0  0  0  0  0  0  0  0  0  0
   34.4780   29.5210   45.5990 N   0  0  0  0  0  0  0  0  0  0  0  0
   36.7580   30.8880   48.1230 N   0  0  0  0  0  0  0  0  0  0  0  0
   37.1810   32.1110   48.8060 C   0  0  0  0  0  0  0  0  0  0  0  0
   38.5040   31.6940   49.4070 C   0  0  0  0  0  0  0  0  0  0  0  0
   38.3430   30.2050   49.7140 C   0  0  0  0  0  0  0  0  0  0  0  0
   36.9380   29.8890   49.1520 C   0  0  1  0  0  0  0  0  0  0  0  0
   35.9520   29.9540   50.2760 C   0  0  0  0  0  0  0  0  0  0  0  0
   36.6090   30.4230   51.4400 F   0  0  0  0  0  0  0  0  0  0  0  0
   35.2870   28.8330   50.6030 F   0  0  0  0  0  0  0  0  0  0  0  0
   35.0030   30.9670   49.9850 F   0  0  0  0  0  0  0  0  0  0  0  0
   38.2750   31.2700   45.5140 C   0  0  0  0  0  0  0  0  0  0  0  0
   38.3960   32.5650   45.1380 C   0  0  0  0  0  0  0  0  0  0  0  0
   39.6170   33.2110   45.0330 C   0  0  0  0  0  0  0  0  0  0  0  0
   40.7550   32.4610   45.3380 C   0  0  0  0  0  0  0  0  0  0  0  0
   40.7120   31.1230   45.7330 C   0  0  0  0  0  0  0  0  0  0  0  0
   39.4420   30.5660   45.8070 C   0  0  0  0  0  0  0  0  0  0  0  0
   34.4476   29.7640   47.6836 H   0  0  0  0  0  0  0  0  0  0  0  0
   34.6994   29.3639   43.4954 H   0  0  0  0  0  0  0  0  0  0  0  0
   37.3086   32.9415   48.0961 H   0  0  0  0  0  0  0  0  0  0  0  0
   36.4548   32.4799   49.5452 H   0  0  0  0  0  0  0  0  0  0  0  0
   39.3229   31.8553   48.6905 H   0  0  0  0  0  0  0  0  0  0  0  0
   38.7539   32.2779   50.3051 H   0  0  0  0  0  0  0  0  0  0  0  0
   39.1160   29.6099   49.2058 H   0  0  0  0  0  0  0  0  0  0  0  0
   38.4480   29.9670   50.7828 H   0  0  0  0  0  0  0  0  0  0  0  0
   36.8039   28.8856   48.7217 H   0  0  0  0  0  0  0  0  0  0  0  0
   37.4819   33.1308   44.9049 H   0  0  0  0  0  0  0  0  0  0  0  0
   39.6869   34.2644   44.7241 H   0  0  0  0  0  0  0  0  0  0  0  0
   41.7371   32.9507   45.2630 H   0  0  0  0  0  0  0  0  0  0  0  0
   41.6206   30.5497   45.9692 H   0  0  0  0  0  0  0  0  0  0  0  0
   39.3521   29.5133   46.1131 H   0  0  0  0  0  0  0  0  0  0  0  0
  1  2  2  0
  2  7  1  0
  3  2  1  0
  4  3  2  0
  5  4  1  0
  5  6  2  0
  6  1  1  0
  7  8  1  0
  7 11  1  0
  8  9  1  0
  9 10  1  0
 11 10  1  0
 11 12  1  0
 12 14  1  0
 12 13  1  0
 15 12  1  0
 16  3  1  0
 16 21  1  0
 17 16  2  0
 18 17  1  0
 18 19  2  0
 19 20  1  0
 20 21  2  0
  1 22  1  0
  5 23  1  0
  8 24  1  0
  8 25  1  0
  9 26  1  0
  9 27  1  0
 10 28  1  0
 10 29  1  0
 11 30  1  6
 17 31  1  0
 18 32  1  0
 19 33  1  0
 20 34  1  0
 21 35  1  0
M  ISO  8  22  14  23  14  24  13  25  13  26  13  27  13  28  13  29  13
M  ISO  6  30  13  31  14  32  14  33  14  34  14  35  14
M  END
>  <minimizedAffinity>  (1) 
-6.15530586

>  <minimizedRMSD>  (1) 
0.987403393

$$$$
