
     RDKit          3D

 42 45  0  0  1  0  0  0  0  0999 V2000
   37.1310   31.6660   48.1380 N   0  0  0  0  0  0  0  0  0  0  0  0
   38.2230   32.5790   48.5440 C   0  0  0  0  0  0  0  0  0  0  0  0
   38.8570   31.8410   49.7020 C   0  0  0  0  0  0  0  0  0  0  0  0
   37.6710   31.1700   50.3760 C   0  0  0  0  0  0  0  0  0  0  0  0
   36.5140   31.4690   49.4360 C   0  0  2  0  0  0  0  0  0  0  0  0
   35.6600   30.2600   49.4890 C   0  0  0  0  0  0  0  0  0  0  0  0
   36.1280   28.9710   49.3370 C   0  0  0  0  0  0  0  0  0  0  0  0
   35.3430   27.8370   49.3850 C   0  0  0  0  0  0  0  0  0  0  0  0
   33.9880   27.9720   49.5990 C   0  0  0  0  0  0  0  0  0  0  0  0
   33.4540   29.2530   49.7600 C   0  0  0  0  0  0  0  0  0  0  0  0
   34.3000   30.3160   49.6990 C   0  0  0  0  0  0  0  0  0  0  0  0
   35.3450   30.5170   47.0440 C   0  0  0  0  0  0  0  0  0  0  0  0
   36.6590   31.0580   46.9560 C   0  0  0  0  0  0  0  0  0  0  0  0
   37.3260   30.9210   45.7360 C   0  0  0  0  0  0  0  0  0  0  0  0
   36.6890   30.2830   44.7120 N   0  0  0  0  0  0  0  0  0  0  0  0
   35.4490   29.7860   44.8330 C   0  0  0  0  0  0  0  0  0  0  0  0
   34.7810   29.9040   46.0010 N   0  0  0  0  0  0  0  0  0  0  0  0
   38.6480   31.4360   45.5330 C   0  0  0  0  0  0  0  0  0  0  0  0
   38.7950   32.7070   45.0310 C   0  0  0  0  0  0  0  0  0  0  0  0
   40.0240   33.2960   44.8000 C   0  0  0  0  0  0  0  0  0  0  0  0
   41.1390   32.5320   45.1050 C   0  0  0  0  0  0  0  0  0  0  0  0
   41.0750   31.2300   45.6190 C   0  0  0  0  0  0  0  0  0  0  0  0
   39.7860   30.7260   45.8160 C   0  0  0  0  0  0  0  0  0  0  0  0
   38.9426   32.7261   47.7252 H   0  0  0  0  0  0  0  0  0  0  0  0
   37.8741   33.5885   48.8071 H   0  0  0  0  0  0  0  0  0  0  0  0
   39.5821   31.0948   49.3449 H   0  0  0  0  0  0  0  0  0  0  0  0
   39.4211   32.5008   50.3776 H   0  0  0  0  0  0  0  0  0  0  0  0
   37.8327   30.0859   50.4684 H   0  0  0  0  0  0  0  0  0  0  0  0
   37.4971   31.5338   51.3994 H   0  0  0  0  0  0  0  0  0  0  0  0
   35.9015   32.3501   49.6778 H   0  0  0  0  0  0  0  0  0  0  0  0
   37.2062   28.8374   49.1649 H   0  0  0  0  0  0  0  0  0  0  0  0
   35.7915   26.8411   49.2545 H   0  0  0  0  0  0  0  0  0  0  0  0
   33.3378   27.0858   49.6423 H   0  0  0  0  0  0  0  0  0  0  0  0
   32.3772   29.3980   49.9316 H   0  0  0  0  0  0  0  0  0  0  0  0
   33.8565   31.3141   49.8296 H   0  0  0  0  0  0  0  0  0  0  0  0
   34.7854   30.6056   47.9869 H   0  0  0  0  0  0  0  0  0  0  0  0
   34.9748   29.2809   43.9786 H   0  0  0  0  0  0  0  0  0  0  0  0
   37.8879   33.2853   44.8012 H   0  0  0  0  0  0  0  0  0  0  0  0
   40.1120   34.3154   44.3962 H   0  0  0  0  0  0  0  0  0  0  0  0
   42.1320   32.9732   44.9337 H   0  0  0  0  0  0  0  0  0  0  0  0
   41.9769   30.6448   45.8515 H   0  0  0  0  0  0  0  0  0  0  0  0
   39.6795   29.7079   46.2186 H   0  0  0  0  0  0  0  0  0  0  0  0
  1  2  1  0
  1  5  1  0
  2  3  1  0
  3  4  1  0
  5  6  1  0
  5  4  1  0
  6 11  2  0
  7  8  2  0
  7  6  1  0
  8  9  1  0
  9 10  2  0
 11 10  1  0
 13 12  2  0
 13  1  1  0
 14 13  1  0
 15 16  1  0
 15 14  2  0
 16 17  2  0
 17 12  1  0
 18 14  1  0
 18 23  1  0
 19 18  2  0
 20 19  1  0
 20 21  2  0
 21 22  1  0
 22 23  2  0
  2 24  1  0
  2 25  1  0
  3 26  1  0
  3 27  1  0
  4 28  1  0
  4 29  1  0
  5 30  1  1
  7 31  1  0
  8 32  1  0
  9 33  1  0
 10 34  1  0
 11 35  1  0
 12 36  1  0
 16 37  1  0
 19 38  1  0
 20 39  1  0
 21 40  1  0
 22 41  1  0
 23 42  1  0
M  ISO  8  24  13  25  13  26  13  27  13  28  13  29  13  30  13  31  14
M  ISO  8  32  14  33  14  34  14  35  14  36  14  37  14  38  14  39  14
M  ISO  3  40  14  41  14  42  14
M  END
>  <minimizedAffinity>  (1) 
-5.73755741

>  <minimizedRMSD>  (1) 
1.15714693

$$$$
