
     RDKit          3D

 33 35  0  0  1  0  0  0  0  0999 V2000
   34.9000   30.1900   47.6630 C   0  0  0  0  0  0  0  0  0  0  0  0
   36.2050   30.7480   47.4690 C   0  0  0  0  0  0  0  0  0  0  0  0
   36.7360   30.6810   46.1810 C   0  0  0  0  0  0  0  0  0  0  0  0
   36.0060   30.0960   45.1790 N   0  0  0  0  0  0  0  0  0  0  0  0
   34.7810   29.5870   45.4190 C   0  0  0  0  0  0  0  0  0  0  0  0
   34.2350   29.6310   46.6370 N   0  0  0  0  0  0  0  0  0  0  0  0
   36.8070   31.3020   48.6260 N   0  0  0  0  0  0  0  0  0  0  0  0
   37.4170   32.5680   49.0450 C   0  0  0  0  0  0  0  0  0  0  0  0
   38.7460   32.0800   49.6340 C   0  0  0  0  0  0  0  0  0  0  0  0
   38.3860   30.7550   50.2820 C   0  0  0  0  0  0  0  0  0  0  0  0
   36.9460   30.5260   49.8530 C   0  0  2  0  0  0  0  0  0  0  0  0
   36.8280   29.1540   49.6280 O   0  0  0  0  0  0  0  0  0  0  0  0
   38.0410   31.2120   45.8720 C   0  0  0  0  0  0  0  0  0  0  0  0
   38.1240   32.4380   45.2540 C   0  0  0  0  0  0  0  0  0  0  0  0
   39.3200   33.0370   44.9130 C   0  0  0  0  0  0  0  0  0  0  0  0
   40.4780   32.3240   45.2330 C   0  0  0  0  0  0  0  0  0  0  0  0
   40.4670   31.0710   45.8640 C   0  0  0  0  0  0  0  0  0  0  0  0
   39.2050   30.5490   46.1660 C   0  0  0  0  0  0  0  0  0  0  0  0
   34.4377   30.2192   48.6607 H   0  0  0  0  0  0  0  0  0  0  0  0
   34.2190   29.1254   44.5937 H   0  0  0  0  0  0  0  0  0  0  0  0
   37.5783   33.2401   48.1892 H   0  0  0  0  0  0  0  0  0  0  0  0
   36.8027   33.1548   49.7438 H   0  0  0  0  0  0  0  0  0  0  0  0
   39.4975   31.9388   48.8432 H   0  0  0  0  0  0  0  0  0  0  0  0
   39.1871   32.7960   50.3431 H   0  0  0  0  0  0  0  0  0  0  0  0
   39.0379   29.9486   49.9151 H   0  0  0  0  0  0  0  0  0  0  0  0
   38.5093   30.7666   51.3750 H   0  0  0  0  0  0  0  0  0  0  0  0
   36.1747   30.8280   50.5768 H   0  0  0  0  0  0  0  0  0  0  0  0
   36.7872   28.6796   50.4960 H   0  0  0  0  0  0  0  0  0  0  0  0
   37.1893   32.9684   45.0194 H   0  0  0  0  0  0  0  0  0  0  0  0
   39.3590   34.0186   44.4181 H   0  0  0  0  0  0  0  0  0  0  0  0
   41.4507   32.7690   44.9764 H   0  0  0  0  0  0  0  0  0  0  0  0
   41.3946   30.5318   46.1065 H   0  0  0  0  0  0  0  0  0  0  0  0
   39.1437   29.5676   46.6590 H   0  0  0  0  0  0  0  0  0  0  0  0
  2  1  2  0
  2  7  1  0
  3  2  1  0
  4  5  1  0
  4  3  2  0
  5  6  2  0
  6  1  1  0
  7  8  1  0
  7 11  1  0
  8  9  1  0
  9 10  1  0
 11 10  1  0
 12 11  1  0
 13 18  1  0
 13  3  1  0
 14 13  2  0
 15 16  2  0
 15 14  1  0
 16 17  1  0
 17 18  2  0
  1 19  1  0
  5 20  1  0
  8 21  1  0
  8 22  1  0
  9 23  1  0
  9 24  1  0
 10 25  1  0
 10 26  1  0
 11 27  1  1
 12 28  1  0
 14 29  1  0
 15 30  1  0
 16 31  1  0
 17 32  1  0
 18 33  1  0
M  ISO  8  19  14  20  14  21  13  22  13  23  13  24  13  25  13  26  13
M  ISO  7  27  13  28   3  29  14  30  14  31  14  32  14  33  14
M  END
>  <minimizedAffinity>  (1) 
-5.45362568

>  <minimizedRMSD>  (1) 
0.175572425

$$$$
