
     RDKit          3D

 42 45  0  0  1  0  0  0  0  0999 V2000
   37.1760   31.7730   48.2040 N   0  0  0  0  0  0  0  0  0  0  0  0
   38.2840   32.7070   48.5350 C   0  0  0  0  0  0  0  0  0  0  0  0
   38.8890   32.0240   49.7570 C   0  0  0  0  0  0  0  0  0  0  0  0
   37.6940   31.4350   50.4650 C   0  0  0  0  0  0  0  0  0  0  0  0
   36.5370   31.6200   49.5020 C   0  0  2  0  0  0  0  0  0  0  0  0
   37.9440   29.0520   49.8270 Cl  0  0  0  0  0  0  0  0  0  0  0  0
   36.1850   29.2170   49.7350 C   0  0  0  0  0  0  0  0  0  0  0  0
   35.5950   30.4810   49.5880 C   0  0  0  0  0  0  0  0  0  0  0  0
   34.2210   30.4850   49.5270 C   0  0  0  0  0  0  0  0  0  0  0  0
   33.5090   29.3060   49.6100 C   0  0  0  0  0  0  0  0  0  0  0  0
   34.1100   28.0720   49.7550 C   0  0  0  0  0  0  0  0  0  0  0  0
   35.4880   28.0420   49.8170 C   0  0  0  0  0  0  0  0  0  0  0  0
   35.3950   30.5340   47.1890 C   0  0  0  0  0  0  0  0  0  0  0  0
   36.7000   31.1010   47.0490 C   0  0  0  0  0  0  0  0  0  0  0  0
   37.3560   30.9090   45.8320 C   0  0  0  0  0  0  0  0  0  0  0  0
   36.7390   30.2020   44.8450 N   0  0  0  0  0  0  0  0  0  0  0  0
   35.5040   29.6840   45.0270 C   0  0  0  0  0  0  0  0  0  0  0  0
   34.8420   29.8460   46.1770 N   0  0  0  0  0  0  0  0  0  0  0  0
   38.6640   31.4520   45.5850 C   0  0  0  0  0  0  0  0  0  0  0  0
   38.7790   32.7100   45.0410 C   0  0  0  0  0  0  0  0  0  0  0  0
   39.9960   33.3100   44.7740 C   0  0  0  0  0  0  0  0  0  0  0  0
   41.1330   32.5790   45.0810 C   0  0  0  0  0  0  0  0  0  0  0  0
   41.0950   31.3050   45.6310 C   0  0  0  0  0  0  0  0  0  0  0  0
   39.8210   30.7720   45.8710 C   0  0  0  0  0  0  0  0  0  0  0  0
   39.0104   32.7791   47.7121 H   0  0  0  0  0  0  0  0  0  0  0  0
   37.9639   33.7449   48.7091 H   0  0  0  0  0  0  0  0  0  0  0  0
   39.5949   31.2357   49.4566 H   0  0  0  0  0  0  0  0  0  0  0  0
   39.4627   32.7154   50.3917 H   0  0  0  0  0  0  0  0  0  0  0  0
   37.8560   30.3673   50.6742 H   0  0  0  0  0  0  0  0  0  0  0  0
   37.5069   31.9208   51.4340 H   0  0  0  0  0  0  0  0  0  0  0  0
   35.9075   32.4945   49.7236 H   0  0  0  0  0  0  0  0  0  0  0  0
   33.6841   31.4380   49.4108 H   0  0  0  0  0  0  0  0  0  0  0  0
   32.4112   29.3517   49.5582 H   0  0  0  0  0  0  0  0  0  0  0  0
   33.5143   27.1495   49.8186 H   0  0  0  0  0  0  0  0  0  0  0  0
   36.0197   27.0858   49.9309 H   0  0  0  0  0  0  0  0  0  0  0  0
   34.8410   30.6620   48.1307 H   0  0  0  0  0  0  0  0  0  0  0  0
   35.0332   29.1165   44.2107 H   0  0  0  0  0  0  0  0  0  0  0  0
   37.8588   33.2655   44.8071 H   0  0  0  0  0  0  0  0  0  0  0  0
   40.0587   34.3184   44.3391 H   0  0  0  0  0  0  0  0  0  0  0  0
   42.1151   33.0313   44.8786 H   0  0  0  0  0  0  0  0  0  0  0  0
   42.0126   30.7455   45.8652 H   0  0  0  0  0  0  0  0  0  0  0  0
   39.7455   29.7651   46.3075 H   0  0  0  0  0  0  0  0  0  0  0  0
  1  2  1  0
  1  5  1  0
  2  3  1  0
  3  4  1  0
  5  8  1  0
  5  4  1  0
  7 12  2  0
  7  6  1  0
  8  7  1  0
  9  8  2  0
  9 10  1  0
 10 11  2  0
 11 12  1  0
 14 13  2  0
 14  1  1  0
 15 14  1  0
 16 17  1  0
 16 15  2  0
 17 18  2  0
 18 13  1  0
 19 15  1  0
 19 24  1  0
 20 19  2  0
 21 20  1  0
 21 22  2  0
 22 23  1  0
 23 24  2  0
  2 25  1  0
  2 26  1  0
  3 27  1  0
  3 28  1  0
  4 29  1  0
  4 30  1  0
  5 31  1  1
  9 32  1  0
 10 33  1  0
 11 34  1  0
 12 35  1  0
 13 36  1  0
 17 37  1  0
 20 38  1  0
 21 39  1  0
 22 40  1  0
 23 41  1  0
 24 42  1  0
M  ISO  8  25  13  26  13  27  13  28  13  29  13  30  13  31  13  32  14
M  ISO  8  33  14  34  14  35  14  36  14  37  14  38  14  39  14  40  14
M  ISO  2  41  14  42  14
M  END
>  <minimizedAffinity>  (1) 
-5.40877819

>  <minimizedRMSD>  (1) 
1.35092342

$$$$
