
     RDKit          3D

 37 39  0  0  1  0  0  0  0  0999 V2000
   35.0060   30.0180   46.7550 C   0  0  0  0  0  0  0  0  0  0  0  0
   36.3140   30.5580   46.8660 C   0  0  0  0  0  0  0  0  0  0  0  0
   37.0550   30.7050   45.6780 C   0  0  0  0  0  0  0  0  0  0  0  0
   36.4870   30.3260   44.5030 N   0  0  0  0  0  0  0  0  0  0  0  0
   35.2400   29.8180   44.4520 C   0  0  0  0  0  0  0  0  0  0  0  0
   34.5100   29.6660   45.5540 N   0  0  0  0  0  0  0  0  0  0  0  0
   36.7500   30.8800   48.1920 N   0  0  0  0  0  0  0  0  0  0  0  0
   37.1690   32.0570   48.9420 C   0  0  0  0  0  0  0  0  0  0  0  0
   38.4610   31.5500   49.5900 C   0  0  0  0  0  0  0  0  0  0  0  0
   38.2120   30.0600   49.8250 C   0  0  0  0  0  0  0  0  0  0  0  0
   36.8670   29.8180   49.2200 C   0  0  1  0  0  0  0  0  0  0  0  0
   34.7610   29.1840   50.4010 C   0  0  0  0  0  0  0  0  0  0  0  0
   34.5370   28.1600   49.6960 O   0  0  0  0  0  0  0  0  0  0  0  0
   35.8540   30.0930   50.2330 N   0  0  0  0  0  0  0  0  0  0  0  0
   38.3750   31.2450   45.6730 C   0  0  0  0  0  0  0  0  0  0  0  0
   38.5810   32.5230   46.1470 C   0  0  0  0  0  0  0  0  0  0  0  0
   39.8210   33.1300   46.1860 C   0  0  0  0  0  0  0  0  0  0  0  0
   40.8880   32.3970   45.7200 C   0  0  0  0  0  0  0  0  0  0  0  0
   40.7690   31.1150   45.2300 C   0  0  0  0  0  0  0  0  0  0  0  0
   39.4790   30.5830   45.2300 C   0  0  0  0  0  0  0  0  0  0  0  0
   39.3500   29.2900   44.7370 O   0  0  0  0  0  0  0  0  0  0  0  0
   34.3922   29.8860   47.6583 H   0  0  0  0  0  0  0  0  0  0  0  0
   34.8172   29.5232   43.4802 H   0  0  0  0  0  0  0  0  0  0  0  0
   37.3598   32.9123   48.2771 H   0  0  0  0  0  0  0  0  0  0  0  0
   36.4199   32.4280   49.6570 H   0  0  0  0  0  0  0  0  0  0  0  0
   39.3182   31.6996   48.9171 H   0  0  0  0  0  0  0  0  0  0  0  0
   38.7007   32.0859   50.5202 H   0  0  0  0  0  0  0  0  0  0  0  0
   38.9805   29.4517   49.3256 H   0  0  0  0  0  0  0  0  0  0  0  0
   38.2524   29.7869   50.8898 H   0  0  0  0  0  0  0  0  0  0  0  0
   36.7457   28.7962   48.8312 H   0  0  0  0  0  0  0  0  0  0  0  0
   34.0535   29.3959   51.2162 H   0  0  0  0  0  0  0  0  0  0  0  0
   35.9246   30.9345   50.8227 H   0  0  0  0  0  0  0  0  0  0  0  0
   37.7120   33.0892   46.5135 H   0  0  0  0  0  0  0  0  0  0  0  0
   39.9495   34.1521   46.5717 H   0  0  0  0  0  0  0  0  0  0  0  0
   41.8866   32.8579   45.7397 H   0  0  0  0  0  0  0  0  0  0  0  0
   41.6360   30.5467   44.8620 H   0  0  0  0  0  0  0  0  0  0  0  0
   38.4602   28.8568   44.7106 H   0  0  0  0  0  0  0  0  0  0  0  0
  1  2  2  0
  2  7  1  0
  3  2  1  0
  4  3  2  0
  5  4  1  0
  5  6  2  0
  6  1  1  0
  7  8  1  0
  7 11  1  0
  8  9  1  0
  9 10  1  0
 11 10  1  0
 11 14  1  0
 13 12  2  0
 14 12  1  0
 15  3  1  0
 15 16  2  0
 16 17  1  0
 18 17  2  0
 19 20  2  0
 19 18  1  0
 20 15  1  0
 21 20  1  0
  1 22  1  0
  5 23  1  0
  8 24  1  0
  8 25  1  0
  9 26  1  0
  9 27  1  0
 10 28  1  0
 10 29  1  0
 11 30  1  6
 12 31  1  0
 14 32  1  0
 16 33  1  0
 17 34  1  0
 18 35  1  0
 19 36  1  0
 21 37  1  0
M  ISO  8  22  14  23  14  24  13  25  13  26  13  27  13  28  13  29  13
M  ISO  7  30  13  31   6  33  14  34  14  35  14  36  14  37   3
M  END
>  <minimizedAffinity>  (1) 
-5.79884481

>  <minimizedRMSD>  (1) 
0.540794551

$$$$
