
     RDKit          3D

 40 42  0  0  1  0  0  0  0  0999 V2000
   34.9560   29.9490   46.5950 C   0  0  0  0  0  0  0  0  0  0  0  0
   36.2420   30.5280   46.7050 C   0  0  0  0  0  0  0  0  0  0  0  0
   36.9560   30.7490   45.5180 C   0  0  0  0  0  0  0  0  0  0  0  0
   36.3860   30.4000   44.3400 N   0  0  0  0  0  0  0  0  0  0  0  0
   35.1680   29.8530   44.2700 C   0  0  0  0  0  0  0  0  0  0  0  0
   34.4580   29.6280   45.3850 N   0  0  0  0  0  0  0  0  0  0  0  0
   36.6850   30.8170   48.0500 N   0  0  0  0  0  0  0  0  0  0  0  0
   37.1600   31.9120   48.8320 C   0  0  0  0  0  0  0  0  0  0  0  0
   38.4090   31.3610   49.4610 C   0  0  0  0  0  0  0  0  0  0  0  0
   38.0690   29.8890   49.6890 C   0  0  0  0  0  0  0  0  0  0  0  0
   36.7300   29.7260   49.0700 C   0  0  1  0  0  0  0  0  0  0  0  0
   34.6240   29.1380   50.2630 C   0  0  0  0  0  0  0  0  0  0  0  0
   34.3470   28.1210   49.5530 O   0  0  0  0  0  0  0  0  0  0  0  0
   35.7280   30.0320   50.0770 N   0  0  0  0  0  0  0  0  0  0  0  0
   38.2630   31.3310   45.5210 C   0  0  0  0  0  0  0  0  0  0  0  0
   38.5030   32.3870   46.3560 C   0  0  0  0  0  0  0  0  0  0  0  0
   39.7350   33.0080   46.4480 C   0  0  0  0  0  0  0  0  0  0  0  0
   40.7620   32.5260   45.6470 C   0  0  0  0  0  0  0  0  0  0  0  0
   40.5960   31.4620   44.7740 C   0  0  0  0  0  0  0  0  0  0  0  0
   39.3200   30.9000   44.7520 C   0  0  0  0  0  0  0  0  0  0  0  0
   39.0930   29.7640   43.8150 C   0  0  0  0  0  0  0  0  0  0  0  0
   39.2440   28.5740   44.5200 O   0  0  0  0  0  0  0  0  0  0  0  0
   34.3606   29.7602   47.5005 H   0  0  0  0  0  0  0  0  0  0  0  0
   34.7452   29.5855   43.2904 H   0  0  0  0  0  0  0  0  0  0  0  0
   37.3871   32.7816   48.1979 H   0  0  0  0  0  0  0  0  0  0  0  0
   36.4253   32.2700   49.5682 H   0  0  0  0  0  0  0  0  0  0  0  0
   39.2700   31.4662   48.7846 H   0  0  0  0  0  0  0  0  0  0  0  0
   38.6921   31.8852   50.3857 H   0  0  0  0  0  0  0  0  0  0  0  0
   38.8075   29.2374   49.1991 H   0  0  0  0  0  0  0  0  0  0  0  0
   38.0778   29.6140   50.7540 H   0  0  0  0  0  0  0  0  0  0  0  0
   36.5552   28.7201   48.6607 H   0  0  0  0  0  0  0  0  0  0  0  0
   33.9488   29.3533   51.1043 H   0  0  0  0  0  0  0  0  0  0  0  0
   35.8106   30.8831   50.6513 H   0  0  0  0  0  0  0  0  0  0  0  0
   37.6790   32.7591   46.9826 H   0  0  0  0  0  0  0  0  0  0  0  0
   39.8960   33.8544   47.1319 H   0  0  0  0  0  0  0  0  0  0  0  0
   41.7485   33.0087   45.7078 H   0  0  0  0  0  0  0  0  0  0  0  0
   41.4145   31.0869   44.1421 H   0  0  0  0  0  0  0  0  0  0  0  0
   39.8264   29.8060   42.9962 H   0  0  0  0  0  0  0  0  0  0  0  0
   38.0810   29.8237   43.3881 H   0  0  0  0  0  0  0  0  0  0  0  0
   39.2203   28.7609   45.4919 H   0  0  0  0  0  0  0  0  0  0  0  0
  1  2  2  0
  2  7  1  0
  3 15  1  0
  3  2  1  0
  4  3  2  0
  5  4  1  0
  5  6  2  0
  6  1  1  0
  7  8  1  0
  7 11  1  0
  8  9  1  0
  9 10  1  0
 11 10  1  0
 11 14  1  0
 13 12  2  0
 14 12  1  0
 15 16  2  0
 16 17  1  0
 18 17  2  0
 19 18  1  0
 20 19  2  0
 20 15  1  0
 21 22  1  0
 21 20  1  0
  1 23  1  0
  5 24  1  0
  8 25  1  0
  8 26  1  0
  9 27  1  0
  9 28  1  0
 10 29  1  0
 10 30  1  0
 11 31  1  6
 12 32  1  0
 14 33  1  0
 16 34  1  0
 17 35  1  0
 18 36  1  0
 19 37  1  0
 21 38  1  0
 21 39  1  0
 22 40  1  0
M  ISO  8  23  14  24  14  25  13  26  13  27  13  28  13  29  13  30  13
M  ISO  8  31  13  32   6  34  14  35  14  36  14  37  14  38   8  39   8
M  ISO  1  40   3
M  END
>  <minimizedAffinity>  (1) 
-5.46593571

>  <minimizedRMSD>  (1) 
0.421830595

$$$$
