
     RDKit          3D

 41 43  0  0  1  0  0  0  0  0999 V2000
   34.8720   30.0650   46.8700 C   0  0  0  0  0  0  0  0  0  0  0  0
   36.1880   30.5790   46.9430 C   0  0  0  0  0  0  0  0  0  0  0  0
   36.8860   30.7440   45.7390 C   0  0  0  0  0  0  0  0  0  0  0  0
   36.2730   30.4060   44.5790 N   0  0  0  0  0  0  0  0  0  0  0  0
   35.0220   29.9210   44.5530 C   0  0  0  0  0  0  0  0  0  0  0  0
   34.3290   29.7510   45.6800 N   0  0  0  0  0  0  0  0  0  0  0  0
   36.6750   30.8630   48.2740 N   0  0  0  0  0  0  0  0  0  0  0  0
   37.1010   31.9690   49.0690 C   0  0  0  0  0  0  0  0  0  0  0  0
   38.4220   31.5060   49.6160 C   0  0  0  0  0  0  0  0  0  0  0  0
   38.2120   30.0010   49.8110 C   0  0  0  0  0  0  0  0  0  0  0  0
   36.8590   29.7500   49.2560 C   0  0  1  0  0  0  0  0  0  0  0  0
   34.8020   29.0190   50.4470 C   0  0  0  0  0  0  0  0  0  0  0  0
   34.4980   28.0860   49.6420 O   0  0  0  0  0  0  0  0  0  0  0  0
   35.8900   29.9410   50.3160 N   0  0  0  0  0  0  0  0  0  0  0  0
   38.2210   31.2580   45.7030 C   0  0  0  0  0  0  0  0  0  0  0  0
   38.4630   32.4790   46.2680 C   0  0  0  0  0  0  0  0  0  0  0  0
   39.7170   33.0600   46.3050 C   0  0  0  0  0  0  0  0  0  0  0  0
   40.7640   32.3470   45.7320 C   0  0  0  0  0  0  0  0  0  0  0  0
   40.6020   31.1050   45.1380 C   0  0  0  0  0  0  0  0  0  0  0  0
   39.3050   30.6110   45.1540 C   0  0  0  0  0  0  0  0  0  0  0  0
   39.0740   29.2830   44.5170 C   0  0  0  0  0  0  0  0  0  0  0  0
   38.9100   29.3500   43.0890 N   0  0  0  0  0  0  0  0  0  0  0  0
   34.2893   29.9212   47.7918 H   0  0  0  0  0  0  0  0  0  0  0  0
   34.5616   29.6600   43.5887 H   0  0  0  0  0  0  0  0  0  0  0  0
   37.2230   32.8733   48.4547 H   0  0  0  0  0  0  0  0  0  0  0  0
   36.3795   32.2414   49.8534 H   0  0  0  0  0  0  0  0  0  0  0  0
   39.2352   31.7015   48.9015 H   0  0  0  0  0  0  0  0  0  0  0  0
   38.7112   32.0247   50.5419 H   0  0  0  0  0  0  0  0  0  0  0  0
   38.9722   29.4262   49.2618 H   0  0  0  0  0  0  0  0  0  0  0  0
   38.3000   29.6952   50.8640 H   0  0  0  0  0  0  0  0  0  0  0  0
   36.7436   28.7449   48.8241 H   0  0  0  0  0  0  0  0  0  0  0  0
   34.1645   29.1309   51.3364 H   0  0  0  0  0  0  0  0  0  0  0  0
   35.9827   30.7322   50.9690 H   0  0  0  0  0  0  0  0  0  0  0  0
   37.6194   33.0256   46.7147 H   0  0  0  0  0  0  0  0  0  0  0  0
   39.8794   34.0445   46.7681 H   0  0  0  0  0  0  0  0  0  0  0  0
   41.7706   32.7903   45.7509 H   0  0  0  0  0  0  0  0  0  0  0  0
   41.4393   30.5519   44.6874 H   0  0  0  0  0  0  0  0  0  0  0  0
   39.9361   28.6365   44.7381 H   0  0  0  0  0  0  0  0  0  0  0  0
   38.1358   28.8853   44.9312 H   0  0  0  0  0  0  0  0  0  0  0  0
   37.9787   29.7305   42.8678 H   0  0  0  0  0  0  0  0  0  0  0  0
   39.6350   29.9623   42.6885 H   0  0  0  0  0  0  0  0  0  0  0  0
  1  2  2  0
  2  7  1  0
  3  2  1  0
  4  3  2  0
  5  4  1  0
  5  6  2  0
  6  1  1  0
  7  8  1  0
  7 11  1  0
  8  9  1  0
  9 10  1  0
 11 10  1  0
 11 14  1  0
 13 12  2  0
 14 12  1  0
 15  3  1  0
 15 16  2  0
 16 17  1  0
 18 17  2  0
 19 20  2  0
 19 18  1  0
 20 15  1  0
 21 20  1  0
 22 21  1  0
  1 23  1  0
  5 24  1  0
  8 25  1  0
  8 26  1  0
  9 27  1  0
  9 28  1  0
 10 29  1  0
 10 30  1  0
 11 31  1  6
 12 32  1  0
 14 33  1  0
 16 34  1  0
 17 35  1  0
 18 36  1  0
 19 37  1  0
 21 38  1  0
 21 39  1  0
 22 40  1  0
 22 41  1  0
M  ISO  8  23  14  24  14  25  13  26  13  27  13  28  13  29  13  30  13
M  ISO  8  31  13  32   6  34  14  35  14  36  14  37  14  38   8  39   8
M  ISO  2  40   5  41   5
M  END
>  <minimizedAffinity>  (1) 
-5.36039066

>  <minimizedRMSD>  (1) 
0.129172564

$$$$
