
     RDKit          3D

 28 30  0  0  1  0  0  0  0  0999 V2000
   37.9070   31.3360   47.6470 C   0  0  0  0  0  0  0  0  0  0  0  0
   36.9360   31.2420   48.6190 C   0  0  1  0  0  0  0  0  0  0  0  0
   37.0070   32.2340   49.6050 C   0  0  0  0  0  0  0  0  0  0  0  0
   37.9950   33.2280   49.5790 C   0  0  0  0  0  0  0  0  0  0  0  0
   38.9300   33.2310   48.5500 C   0  0  0  0  0  0  0  0  0  0  0  0
   38.8850   32.2690   47.5680 C   0  0  0  0  0  0  0  0  0  0  0  0
   34.8130   30.3300   47.8050 C   0  0  0  0  0  0  0  0  0  0  0  0
   35.9240   30.2380   48.6610 C   0  0  0  0  0  0  0  0  0  0  0  0
   35.9780   29.1420   49.5270 C   0  0  0  0  0  0  0  0  0  0  0  0
   34.9710   28.2350   49.4990 N   0  0  0  0  0  0  0  0  0  0  0  0
   33.9070   28.3570   48.6540 C   0  0  0  0  0  0  0  0  0  0  0  0
   33.8370   29.4030   47.8140 N   0  0  0  0  0  0  0  0  0  0  0  0
   38.1120   29.9530   50.4250 C   0  0  0  0  0  0  0  0  0  0  0  0
   38.0790   30.9520   49.6470 O   0  0  0  0  0  0  0  0  0  0  0  0
   37.0710   28.9940   50.4140 N   0  0  0  0  0  0  0  0  0  0  0  0
   37.9050   30.3780   46.6200 O   0  0  0  0  0  0  0  0  0  0  0  0
   39.8330   32.3130   46.5660 O   0  0  0  0  0  0  0  0  0  0  0  0
   36.0401   32.7581   49.5869 H   0  0  0  0  0  0  0  0  0  0  0  0
   37.2794   31.6558   50.5003 H   0  0  0  0  0  0  0  0  0  0  0  0
   38.0302   33.9974   50.3643 H   0  0  0  0  0  0  0  0  0  0  0  0
   39.7096   34.0065   48.5211 H   0  0  0  0  0  0  0  0  0  0  0  0
   34.7393   31.1802   47.1109 H   0  0  0  0  0  0  0  0  0  0  0  0
   33.1083   27.6007   48.6605 H   0  0  0  0  0  0  0  0  0  0  0  0
   39.0418   29.4100   50.1999 H   0  0  0  0  0  0  0  0  0  0  0  0
   38.0113   30.4129   51.4191 H   0  0  0  0  0  0  0  0  0  0  0  0
   37.1089   28.1869   51.0527 H   0  0  0  0  0  0  0  0  0  0  0  0
   38.5892   30.4168   45.9056 H   0  0  0  0  0  0  0  0  0  0  0  0
   40.5222   33.0237   46.5675 H   0  0  0  0  0  0  0  0  0  0  0  0
  2  1  1  0
  2  8  1  0
  2  3  1  0
  2 14  1  1
  4  3  1  0
  5  4  2  0
  6  1  2  0
  6  5  1  0
  7 12  2  0
  7  8  1  0
  8  9  2  0
  9 15  1  0
 10  9  1  0
 11 10  2  0
 12 11  1  0
 14 13  1  0
 15 13  1  0
 16  1  1  0
 17  6  1  0
  3 18  1  0
  3 19  1  0
  4 20  1  0
  5 21  1  0
  7 22  1  0
 11 23  1  0
 13 24  1  0
 13 25  1  0
 15 26  1  0
 16 27  1  0
 17 28  1  0
M  ISO  8  18  13  19  13  20  13  21  13  22  14  23  14  24  13  25  13
M  ISO  2  27   3  28   3
M  END
>  <minimizedAffinity>  (1) 
-6.02862549

>  <minimizedRMSD>  (1) 
2.21036649

$$$$
