
     RDKit          3D

 25 26  0  0  0  0  0  0  0  0999 V2000
   37.9960   31.3970   47.6360 C   0  0  0  0  0  0  0  0  0  0  0  0
   37.0730   31.3260   48.6720 C   0  0  0  0  0  0  0  0  0  0  0  0
   37.1940   32.3520   49.6180 C   0  0  0  0  0  0  0  0  0  0  0  0
   38.1750   33.3480   49.4990 C   0  0  0  0  0  0  0  0  0  0  0  0
   39.0570   33.3280   48.4150 C   0  0  0  0  0  0  0  0  0  0  0  0
   38.9550   32.3280   47.4730 C   0  0  0  0  0  0  0  0  0  0  0  0
   34.9370   30.3510   47.9850 C   0  0  0  0  0  0  0  0  0  0  0  0
   36.0770   30.3130   48.7920 C   0  0  0  0  0  0  0  0  0  0  0  0
   36.1970   29.2550   49.7050 C   0  0  0  0  0  0  0  0  0  0  0  0
   35.1950   28.3320   49.7490 N   0  0  0  0  0  0  0  0  0  0  0  0
   34.1060   28.4060   48.9490 C   0  0  0  0  0  0  0  0  0  0  0  0
   33.9790   29.4120   48.0710 N   0  0  0  0  0  0  0  0  0  0  0  0
   37.3800   29.1560   50.5880 C   0  0  0  0  0  0  0  0  0  0  0  0
   37.9470   30.4020   46.6360 O   0  0  0  0  0  0  0  0  0  0  0  0
   39.8480   32.3380   46.4090 O   0  0  0  0  0  0  0  0  0  0  0  0
   36.5038   32.3774   50.4741 H   0  0  0  0  0  0  0  0  0  0  0  0
   38.2497   34.1421   50.2565 H   0  0  0  0  0  0  0  0  0  0  0  0
   39.8280   34.1061   48.3146 H   0  0  0  0  0  0  0  0  0  0  0  0
   34.8205   31.1705   47.2606 H   0  0  0  0  0  0  0  0  0  0  0  0
   33.3217   27.6379   49.0191 H   0  0  0  0  0  0  0  0  0  0  0  0
   37.0564   29.1831   51.6390 H   0  0  0  0  0  0  0  0  0  0  0  0
   37.9067   28.2106   50.3908 H   0  0  0  0  0  0  0  0  0  0  0  0
   38.0565   30.0007   50.3908 H   0  0  0  0  0  0  0  0  0  0  0  0
   38.5906   30.4238   45.8841 H   0  0  0  0  0  0  0  0  0  0  0  0
   40.5324   33.0504   46.3438 H   0  0  0  0  0  0  0  0  0  0  0  0
  1  2  2  0
  2  8  1  0
  2  3  1  0
  4  3  2  0
  5  4  1  0
  6  1  1  0
  6  5  2  0
  7 12  2  0
  7  8  1  0
  8  9  2  0
  9 10  1  0
  9 13  1  0
 11 10  2  0
 12 11  1  0
 14  1  1  0
 15  6  1  0
  3 16  1  0
  4 17  1  0
  5 18  1  0
  7 19  1  0
 11 20  1  0
 13 21  1  0
 13 22  1  0
 13 23  1  0
 14 24  1  0
 15 25  1  0
M  ISO  8  16  14  17  14  18  14  19  14  20  14  21   8  22   8  23   8
M  ISO  2  24   3  25   3
M  END
>  <minimizedAffinity>  (1) 
-5.7835288

>  <minimizedRMSD>  (1) 
1.95288241

$$$$
