
     RDKit          3D

 15 15  0  0  0  0  0  0  0  0999 V2000
   37.4900   31.7440   48.9980 C   0  0  0  0  0  0  0  0  0  0  0  0
   38.4810   32.7430   48.9820 C   0  0  0  0  0  0  0  0  0  0  0  0
   39.0760   33.0560   47.7590 C   0  0  0  0  0  0  0  0  0  0  0  0
   38.6570   32.3720   46.6570 N   0  0  0  0  0  0  0  0  0  0  0  0
   37.7010   31.4170   46.7030 C   0  0  0  0  0  0  0  0  0  0  0  0
   37.1350   31.1190   47.8660 N   0  0  0  0  0  0  0  0  0  0  0  0
   36.9940   31.5480   50.2850 O   0  0  0  0  0  0  0  0  0  0  0  0
   37.4710   30.4240   50.9880 C   0  0  0  0  0  0  0  0  0  0  0  0
   37.1870   30.1000   52.1700 O   0  0  0  0  0  0  0  0  0  0  0  0
   38.3690   29.6330   50.1800 N   0  0  0  0  0  0  0  0  0  0  0  0
   38.7777   33.2616   49.9056 H   0  0  0  0  0  0  0  0  0  0  0  0
   39.8562   33.8281   47.6869 H   0  0  0  0  0  0  0  0  0  0  0  0
   37.3954   30.8923   45.7858 H   0  0  0  0  0  0  0  0  0  0  0  0
   38.7943   28.7791   50.5683 H   0  0  0  0  0  0  0  0  0  0  0  0
   38.5843   29.9227   49.2153 H   0  0  0  0  0  0  0  0  0  0  0  0
  1  7  1  0
  2  1  2  0
  3  2  1  0
  4  5  1  0
  4  3  2  0
  5  6  2  0
  6  1  1  0
  7  8  1  0
  8  9  2  0
 10  8  1  0
  2 11  1  0
  3 12  1  0
  5 13  1  0
 10 14  1  0
 10 15  1  0
M  ISO  3  11  14  12  14  13  14
M  END
>  <minimizedAffinity>  (1) 
-3.90355682

>  <minimizedRMSD>  (1) 
3.10341382

$$$$
