
     RDKit          3D

 38 41  0  0  0  0  0  0  0  0999 V2000
   38.0850   31.3020   47.7750 C   0  0  0  0  0  0  0  0  0  0  0  0
   37.0870   31.3010   48.7310 C   0  0  0  0  0  0  0  0  0  0  0  0
   37.1240   32.4110   49.5920 C   0  0  0  0  0  0  0  0  0  0  0  0
   38.0950   33.4160   49.4690 C   0  0  0  0  0  0  0  0  0  0  0  0
   39.0670   33.3130   48.4540 C   0  0  0  0  0  0  0  0  0  0  0  0
   39.0460   32.2230   47.5960 C   0  0  0  0  0  0  0  0  0  0  0  0
   34.9660   30.3070   48.0470 C   0  0  0  0  0  0  0  0  0  0  0  0
   36.0990   30.2860   48.8610 C   0  0  0  0  0  0  0  0  0  0  0  0
   36.2110   29.2430   49.7890 C   0  0  0  0  0  0  0  0  0  0  0  0
   35.2230   28.3180   49.8460 N   0  0  0  0  0  0  0  0  0  0  0  0
   34.1340   28.3790   49.0310 C   0  0  0  0  0  0  0  0  0  0  0  0
   34.0120   29.3670   48.1410 N   0  0  0  0  0  0  0  0  0  0  0  0
   37.3960   29.1680   50.6820 C   0  0  0  0  0  0  0  0  0  0  0  0
   38.1330   30.2320   46.8660 O   0  0  0  0  0  0  0  0  0  0  0  0
   40.0250   32.1930   46.6320 O   0  0  0  0  0  0  0  0  0  0  0  0
   40.5720   31.1800   44.4110 C   0  0  0  0  0  0  0  0  0  0  0  0
   39.8710   31.9740   45.2930 C   0  0  0  0  0  0  0  0  0  0  0  0
   38.7940   32.7200   44.7990 C   0  0  0  0  0  0  0  0  0  0  0  0
   38.4310   32.6670   43.4470 C   0  0  0  0  0  0  0  0  0  0  0  0
   37.4830   33.2410   42.6860 N   0  0  0  0  0  0  0  0  0  0  0  0
   37.5880   32.8290   41.4130 C   0  0  0  0  0  0  0  0  0  0  0  0
   38.6370   31.9660   41.3680 N   0  0  0  0  0  0  0  0  0  0  0  0
   39.1670   31.8560   42.6090 C   0  0  0  0  0  0  0  0  0  0  0  0
   40.2310   31.1130   43.0750 C   0  0  0  0  0  0  0  0  0  0  0  0
   36.3683   32.4944   50.3869 H   0  0  0  0  0  0  0  0  0  0  0  0
   38.0976   34.2744   50.1568 H   0  0  0  0  0  0  0  0  0  0  0  0
   39.8366   34.0910   48.3428 H   0  0  0  0  0  0  0  0  0  0  0  0
   34.8514   31.1147   47.3091 H   0  0  0  0  0  0  0  0  0  0  0  0
   33.3506   27.6104   49.1061 H   0  0  0  0  0  0  0  0  0  0  0  0
   37.0663   29.1889   51.7312 H   0  0  0  0  0  0  0  0  0  0  0  0
   37.9428   28.2335   50.4880 H   0  0  0  0  0  0  0  0  0  0  0  0
   38.0562   30.0262   50.4880 H   0  0  0  0  0  0  0  0  0  0  0  0
   38.8364   30.2050   46.1699 H   0  0  0  0  0  0  0  0  0  0  0  0
   41.4218   30.5867   44.7797 H   0  0  0  0  0  0  0  0  0  0  0  0
   38.2216   33.3604   45.4862 H   0  0  0  0  0  0  0  0  0  0  0  0
   36.7749   33.9044   43.0317 H   0  0  0  0  0  0  0  0  0  0  0  0
   36.9492   33.1311   40.5700 H   0  0  0  0  0  0  0  0  0  0  0  0
   40.8033   30.4723   42.3880 H   0  0  0  0  0  0  0  0  0  0  0  0
  1  2  2  0
  2  8  1  0
  2  3  1  0
  4  3  2  0
  5  4  1  0
  6  1  1  0
  6  5  2  0
  7 12  2  0
  7  8  1  0
  8  9  2  0
  9 10  1  0
  9 13  1  0
 11 10  2  0
 12 11  1  0
 14  1  1  0
 15  6  1  0
 16 17  2  0
 17 15  1  0
 18 17  1  0
 19 18  2  0
 20 19  1  0
 21 20  1  0
 22 21  2  0
 22 23  1  0
 23 24  2  0
 23 19  1  0
 24 16  1  0
  3 25  1  0
  4 26  1  0
  5 27  1  0
  7 28  1  0
 11 29  1  0
 13 30  1  0
 13 31  1  0
 13 32  1  0
 14 33  1  0
 16 34  1  0
 18 35  1  0
 20 36  1  0
 21 37  1  0
 24 38  1  0
M  ISO  8  25  14  26  14  27  14  28  14  29  14  30   8  31   8  32   8
M  ISO  6  33   3  34  14  35  14  36   9  37  14  38  14
M  END
>  <minimizedAffinity>  (1) 
-7.05229759

>  <minimizedRMSD>  (1) 
2.81335139

$$$$
