
     RDKit          3D

 26 27  0  0  0  0  0  0  0  0999 V2000
   36.5940   30.2980   48.2730 C   0  0  0  0  0  0  0  0  0  0  0  0
   37.0570   31.5240   48.7510 C   0  0  0  0  0  0  0  0  0  0  0  0
   37.3890   31.6250   50.0960 C   0  0  0  0  0  0  0  0  0  0  0  0
   37.2430   30.5100   50.8680 N   0  0  0  0  0  0  0  0  0  0  0  0
   36.7900   29.3240   50.3800 C   0  0  0  0  0  0  0  0  0  0  0  0
   36.4690   29.2310   49.0800 N   0  0  0  0  0  0  0  0  0  0  0  0
   36.3030   30.3440   46.9230 O   0  0  0  0  0  0  0  0  0  0  0  0
   32.9100   30.9870   45.3730 N   0  0  0  0  0  0  0  0  0  0  0  0
   33.1520   30.6990   46.7510 C   0  0  0  0  0  0  0  0  0  0  0  0
   34.0120   29.5050   47.0100 C   0  0  0  0  0  0  0  0  0  0  0  0
   35.3330   29.5780   46.2810 C   0  0  0  0  0  0  0  0  0  0  0  0
   35.1460   30.1090   44.8770 C   0  0  0  0  0  0  0  0  0  0  0  0
   33.7030   30.1790   44.4730 C   0  0  0  0  0  0  0  0  0  0  0  0
   37.1567   32.3894   48.0794 H   0  0  0  0  0  0  0  0  0  0  0  0
   37.7563   32.5698   50.5230 H   0  0  0  0  0  0  0  0  0  0  0  0
   36.6880   28.4518   51.0425 H   0  0  0  0  0  0  0  0  0  0  0  0
   31.9139   30.8173   45.1734 H   0  0  0  0  0  0  0  0  0  0  0  0
   33.6419   31.5752   47.2008 H   0  0  0  0  0  0  0  0  0  0  0  0
   32.1706   30.4696   47.1918 H   0  0  0  0  0  0  0  0  0  0  0  0
   34.2079   29.4384   48.0904 H   0  0  0  0  0  0  0  0  0  0  0  0
   33.4746   28.6184   46.6425 H   0  0  0  0  0  0  0  0  0  0  0  0
   35.6998   28.5411   46.2623 H   0  0  0  0  0  0  0  0  0  0  0  0
   35.5763   31.1199   44.8227 H   0  0  0  0  0  0  0  0  0  0  0  0
   35.6509   29.4150   44.1889 H   0  0  0  0  0  0  0  0  0  0  0  0
   33.6407   30.6121   43.4638 H   0  0  0  0  0  0  0  0  0  0  0  0
   33.2998   29.1560   44.5022 H   0  0  0  0  0  0  0  0  0  0  0  0
  1  2  2  0
  1  6  1  0
  2  3  1  0
  3  4  2  0
  5  4  1  0
  6  5  2  0
  7  1  1  0
  8  9  1  0
  9 10  1  0
 11  7  1  0
 11 10  1  0
 12 11  1  0
 13 12  1  0
 13  8  1  0
  2 14  1  0
  3 15  1  0
  5 16  1  0
  8 17  1  0
  9 18  1  0
  9 19  1  0
 10 20  1  0
 10 21  1  0
 11 22  1  0
 12 23  1  0
 12 24  1  0
 13 25  1  0
 13 26  1  0
M  ISO  8  14  14  15  14  16  14  17   5  18  13  19  13  20  13  21  13
M  ISO  5  22  13  23  13  24  13  25  13  26  13
M  END
>  <minimizedAffinity>  (1) 
-3.27510977

>  <minimizedRMSD>  (1) 
7.23900986

$$$$
