
     RDKit          3D

 26 27  0  0  0  0  0  0  0  0999 V2000
   38.0460   30.5420   47.6490 C   0  0  0  0  0  0  0  0  0  0  0  0
   37.3610   30.2380   51.3770 C   0  0  0  0  0  0  0  0  0  0  0  0
   37.9980   30.6060   50.1720 C   0  0  0  0  0  0  0  0  0  0  0  0
   37.4440   30.1960   48.9750 C   0  0  0  0  0  0  0  0  0  0  0  0
   36.2940   29.4450   49.0010 N   0  0  0  0  0  0  0  0  0  0  0  0
   35.7160   29.1140   50.1650 C   0  0  0  0  0  0  0  0  0  0  0  0
   36.2370   29.5030   51.3540 N   0  0  0  0  0  0  0  0  0  0  0  0
   38.2760   32.0450   47.5690 C   0  0  0  0  0  0  0  0  0  0  0  0
   40.3780   33.7240   47.0150 F   0  0  0  0  0  0  0  0  0  0  0  0
   39.6760   33.2070   45.9550 C   0  0  0  0  0  0  0  0  0  0  0  0
   38.5880   32.3430   46.1260 C   0  0  0  0  0  0  0  0  0  0  0  0
   37.9590   31.8860   44.9810 C   0  0  0  0  0  0  0  0  0  0  0  0
   38.4190   32.2900   43.7690 C   0  0  0  0  0  0  0  0  0  0  0  0
   39.4950   33.1460   43.6030 C   0  0  0  0  0  0  0  0  0  0  0  0
   40.1310   33.6080   44.7380 C   0  0  0  0  0  0  0  0  0  0  0  0
   39.0065   30.0181   47.5351 H   0  0  0  0  0  0  0  0  0  0  0  0
   37.3610   30.2340   46.8453 H   0  0  0  0  0  0  0  0  0  0  0  0
   37.7876   30.5550   52.3401 H   0  0  0  0  0  0  0  0  0  0  0  0
   38.9185   31.2081   50.1861 H   0  0  0  0  0  0  0  0  0  0  0  0
   34.7957   28.5115   50.1544 H   0  0  0  0  0  0  0  0  0  0  0  0
   37.3721   32.5869   47.8840 H   0  0  0  0  0  0  0  0  0  0  0  0
   39.0950   32.3623   48.2313 H   0  0  0  0  0  0  0  0  0  0  0  0
   37.0982   31.2048   45.0518 H   0  0  0  0  0  0  0  0  0  0  0  0
   37.9086   31.9166   42.8689 H   0  0  0  0  0  0  0  0  0  0  0  0
   39.8317   33.4478   42.6002 H   0  0  0  0  0  0  0  0  0  0  0  0
   40.9913   34.2890   44.6591 H   0  0  0  0  0  0  0  0  0  0  0  0
  1  4  1  0
  3  2  2  0
  4  5  2  0
  4  3  1  0
  5  6  1  0
  6  7  2  0
  7  2  1  0
  8  1  1  0
 10 11  2  0
 10  9  1  0
 11  8  1  0
 12 11  1  0
 13 12  2  0
 14 13  1  0
 14 15  2  0
 15 10  1  0
  1 16  1  0
  1 17  1  0
  2 18  1  0
  3 19  1  0
  6 20  1  0
  8 21  1  0
  8 22  1  0
 12 23  1  0
 13 24  1  0
 14 25  1  0
 15 26  1  0
M  ISO  8  16   8  17   8  18  14  19  14  20  14  21   8  22   8  23  14
M  ISO  3  24  14  25  14  26  14
M  END
>  <minimizedAffinity>  (1) 
-5.36749506

>  <minimizedRMSD>  (1) 
1.42171645

$$$$
