
     RDKit          3D

 29 31  0  0  0  0  0  0  0  0999 V2000
   38.3800   32.3190   47.7150 C   0  0  0  0  0  0  0  0  0  0  0  0
   38.9230   32.6420   46.3880 N   0  0  0  0  0  0  0  0  0  0  0  0
   40.0670   33.2440   46.0560 C   0  0  0  0  0  0  0  0  0  0  0  0
   40.1500   33.3300   44.6990 N   0  0  0  0  0  0  0  0  0  0  0  0
   39.0100   32.7560   44.2190 C   0  0  0  0  0  0  0  0  0  0  0  0
   38.5690   32.5690   42.9240 C   0  0  0  0  0  0  0  0  0  0  0  0
   37.3690   31.9550   42.7380 N   0  0  0  0  0  0  0  0  0  0  0  0
   36.6020   31.5260   43.7420 C   0  0  0  0  0  0  0  0  0  0  0  0
   37.0340   31.7090   45.0050 N   0  0  0  0  0  0  0  0  0  0  0  0
   38.2220   32.3150   45.2730 C   0  0  0  0  0  0  0  0  0  0  0  0
   39.3120   32.9910   41.7850 N   0  0  0  0  0  0  0  0  0  0  0  0
   38.3900   30.8020   47.8090 C   0  0  0  0  0  0  0  0  0  0  0  0
   37.3350   30.2280   51.4230 C   0  0  0  0  0  0  0  0  0  0  0  0
   38.0730   30.7080   50.3290 C   0  0  0  0  0  0  0  0  0  0  0  0
   37.6890   30.3570   49.0450 C   0  0  0  0  0  0  0  0  0  0  0  0
   36.5980   29.5510   48.8970 N   0  0  0  0  0  0  0  0  0  0  0  0
   35.9050   29.1020   49.9620 C   0  0  0  0  0  0  0  0  0  0  0  0
   36.2660   29.4350   51.2170 N   0  0  0  0  0  0  0  0  0  0  0  0
   37.3534   32.7020   47.8123 H   0  0  0  0  0  0  0  0  0  0  0  0
   38.9748   32.7782   48.5184 H   0  0  0  0  0  0  0  0  0  0  0  0
   40.8227   33.6122   46.7654 H   0  0  0  0  0  0  0  0  0  0  0  0
   35.6385   31.0339   43.5430 H   0  0  0  0  0  0  0  0  0  0  0  0
   38.9400   32.8286   40.8384 H   0  0  0  0  0  0  0  0  0  0  0  0
   40.2215   33.4587   41.9077 H   0  0  0  0  0  0  0  0  0  0  0  0
   37.8796   30.3805   46.9305 H   0  0  0  0  0  0  0  0  0  0  0  0
   39.4323   30.4521   47.8427 H   0  0  0  0  0  0  0  0  0  0  0  0
   37.6297   30.4994   52.4474 H   0  0  0  0  0  0  0  0  0  0  0  0
   38.9471   31.3561   50.4899 H   0  0  0  0  0  0  0  0  0  0  0  0
   35.0307   28.4533   49.8044 H   0  0  0  0  0  0  0  0  0  0  0  0
  1 12  1  0
  2  1  1  0
  3  2  1  0
  4  3  2  0
  5  4  1  0
  5 10  2  0
  6  5  1  0
  7  6  2  0
  7  8  1  0
  8  9  2  0
  9 10  1  0
 10  2  1  0
 11  6  1  0
 12 15  1  0
 14 13  2  0
 15 14  1  0
 16 15  2  0
 16 17  1  0
 17 18  2  0
 18 13  1  0
  1 19  1  0
  1 20  1  0
  3 21  1  0
  8 22  1  0
 11 23  1  0
 11 24  1  0
 12 25  1  0
 12 26  1  0
 13 27  1  0
 14 28  1  0
 17 29  1  0
M  ISO  8  19   8  20   8  21  14  22  14  25   8  26   8  27  14  28  14
M  ISO  1  29  14
M  END
>  <minimizedAffinity>  (1) 
-5.33300829

>  <minimizedRMSD>  (1) 
1.15110576

$$$$
