
     RDKit          3D

 26 27  0  0  0  0  0  0  0  0999 V2000
   38.0080   30.5920   47.7730 C   0  0  0  0  0  0  0  0  0  0  0  0
   37.2750   30.1570   51.4690 C   0  0  0  0  0  0  0  0  0  0  0  0
   37.9460   30.5790   50.3000 C   0  0  0  0  0  0  0  0  0  0  0  0
   37.4050   30.2170   49.0770 C   0  0  0  0  0  0  0  0  0  0  0  0
   36.2530   29.4700   49.0560 N   0  0  0  0  0  0  0  0  0  0  0  0
   35.6440   29.0880   50.1990 C   0  0  0  0  0  0  0  0  0  0  0  0
   36.1500   29.4280   51.4060 N   0  0  0  0  0  0  0  0  0  0  0  0
   38.7190   31.9330   47.8940 C   0  0  0  0  0  0  0  0  0  0  0  0
   38.9440   32.3760   46.4770 C   0  0  0  0  0  0  0  0  0  0  0  0
   37.9630   32.1100   45.5180 C   0  0  0  0  0  0  0  0  0  0  0  0
   38.0600   32.4670   44.1970 C   0  0  0  0  0  0  0  0  0  0  0  0
   39.2050   33.1280   43.8030 C   0  0  0  0  0  0  0  0  0  0  0  0
   40.2110   33.4160   44.7190 C   0  0  0  0  0  0  0  0  0  0  0  0
   40.0620   33.0350   46.0340 C   0  0  0  0  0  0  0  0  0  0  0  0
   37.2158   30.6670   47.0135 H   0  0  0  0  0  0  0  0  0  0  0  0
   38.7365   29.8226   47.4777 H   0  0  0  0  0  0  0  0  0  0  0  0
   37.6835   30.4319   52.4526 H   0  0  0  0  0  0  0  0  0  0  0  0
   38.8682   31.1757   50.3587 H   0  0  0  0  0  0  0  0  0  0  0  0
   34.7217   28.4908   50.1475 H   0  0  0  0  0  0  0  0  0  0  0  0
   38.0903   32.6580   48.4316 H   0  0  0  0  0  0  0  0  0  0  0  0
   39.6593   31.8553   48.4594 H   0  0  0  0  0  0  0  0  0  0  0  0
   37.0552   31.5806   45.8431 H   0  0  0  0  0  0  0  0  0  0  0  0
   37.2575   32.2356   43.4811 H   0  0  0  0  0  0  0  0  0  0  0  0
   39.3236   33.4308   42.7522 H   0  0  0  0  0  0  0  0  0  0  0  0
   41.1197   33.9446   44.3953 H   0  0  0  0  0  0  0  0  0  0  0  0
   40.8639   33.2663   46.7505 H   0  0  0  0  0  0  0  0  0  0  0  0
  1  8  1  0
  1  4  1  0
  3  2  2  0
  4  3  1  0
  5  4  2  0
  5  6  1  0
  6  7  2  0
  7  2  1  0
  9  8  1  0
 10  9  2  0
 11 10  1  0
 12 11  2  0
 12 13  1  0
 13 14  2  0
 14  9  1  0
  1 15  1  0
  1 16  1  0
  2 17  1  0
  3 18  1  0
  6 19  1  0
  8 20  1  0
  8 21  1  0
 10 22  1  0
 11 23  1  0
 12 24  1  0
 13 25  1  0
 14 26  1  0
M  ISO  8  15   8  16   8  17  14  18  14  19  14  20   8  21   8  22  14
M  ISO  4  23  14  24  14  25  14  26  14
M  END
>  <minimizedAffinity>  (1) 
-5.31941605

>  <minimizedRMSD>  (1) 
1.1464349

$$$$
