
     RDKit          3D

 26 27  0  0  0  0  0  0  0  0999 V2000
   37.1400   30.7610   47.7590 C   0  0  0  0  0  0  0  0  0  0  0  0
   37.2440   29.8350   51.4240 C   0  0  0  0  0  0  0  0  0  0  0  0
   37.6430   30.3080   50.1520 C   0  0  0  0  0  0  0  0  0  0  0  0
   36.7510   30.2760   49.0970 C   0  0  0  0  0  0  0  0  0  0  0  0
   35.5140   29.7840   49.3310 N   0  0  0  0  0  0  0  0  0  0  0  0
   35.1270   29.3330   50.5300 C   0  0  0  0  0  0  0  0  0  0  0  0
   35.9920   29.3570   51.5860 N   0  0  0  0  0  0  0  0  0  0  0  0
   38.4320   31.5370   47.7650 C   0  0  0  0  0  0  0  0  0  0  0  0
   40.1240   33.9120   47.2530 Cl  0  0  0  0  0  0  0  0  0  0  0  0
   39.9170   32.5730   46.1750 C   0  0  0  0  0  0  0  0  0  0  0  0
   39.1240   31.4710   46.4260 C   0  0  0  0  0  0  0  0  0  0  0  0
   38.9860   30.4210   45.5380 C   0  0  0  0  0  0  0  0  0  0  0  0
   39.6820   30.4950   44.3480 C   0  0  0  0  0  0  0  0  0  0  0  0
   40.4930   31.5620   44.0240 C   0  0  0  0  0  0  0  0  0  0  0  0
   40.6000   32.5980   44.9560 C   0  0  0  0  0  0  0  0  0  0  0  0
   36.3412   31.4137   47.3771 H   0  0  0  0  0  0  0  0  0  0  0  0
   37.2902   29.8780   47.1205 H   0  0  0  0  0  0  0  0  0  0  0  0
   37.9455   29.8564   52.2710 H   0  0  0  0  0  0  0  0  0  0  0  0
   38.6599   30.7000   50.0031 H   0  0  0  0  0  0  0  0  0  0  0  0
   34.1080   28.9414   50.6653 H   0  0  0  0  0  0  0  0  0  0  0  0
   38.2159   32.5888   48.0040 H   0  0  0  0  0  0  0  0  0  0  0  0
   39.0977   31.0923   48.5193 H   0  0  0  0  0  0  0  0  0  0  0  0
   38.3451   29.5579   45.7709 H   0  0  0  0  0  0  0  0  0  0  0  0
   39.5856   29.6685   43.6285 H   0  0  0  0  0  0  0  0  0  0  0  0
   41.0355   31.5966   43.0677 H   0  0  0  0  0  0  0  0  0  0  0  0
   41.2420   33.4602   44.7227 H   0  0  0  0  0  0  0  0  0  0  0  0
  1  8  1  0
  1  4  1  0
  2  7  2  0
  3  2  1  0
  4  5  1  0
  4  3  2  0
  5  6  2  0
  6  7  1  0
 10 11  2  0
 10  9  1  0
 11  8  1  0
 12 11  1  0
 13 12  2  0
 14 13  1  0
 14 15  2  0
 15 10  1  0
  1 16  1  0
  1 17  1  0
  2 18  1  0
  3 19  1  0
  6 20  1  0
  8 21  1  0
  8 22  1  0
 12 23  1  0
 13 24  1  0
 14 25  1  0
 15 26  1  0
M  ISO  8  16   8  17   8  18  14  19  14  20  14  21   8  22   8  23  14
M  ISO  3  24  14  25  14  26  14
M  END
>  <minimizedAffinity>  (1) 
-5.2063098

>  <minimizedRMSD>  (1) 
2.00108647

$$$$
