
     RDKit          3D

 14 14  0  0  0  0  0  0  0  0999 V2000
   35.8690   29.9070   49.8490 C   0  0  0  0  0  0  0  0  0  0  0  0
   35.8310   30.5240   48.5990 C   0  0  0  0  0  0  0  0  0  0  0  0
   34.9900   29.9910   47.6110 C   0  0  0  0  0  0  0  0  0  0  0  0
   34.2550   28.8910   47.9450 N   0  0  0  0  0  0  0  0  0  0  0  0
   34.3130   28.3140   49.1650 C   0  0  0  0  0  0  0  0  0  0  0  0
   35.1170   28.8270   50.1040 N   0  0  0  0  0  0  0  0  0  0  0  0
   36.7390   30.5450   50.7110 O   0  0  0  0  0  0  0  0  0  0  0  0
   37.3850   29.9890   51.8120 C   0  0  0  0  0  0  0  0  0  0  0  0
   36.4481   31.4108   48.3920 H   0  0  0  0  0  0  0  0  0  0  0  0
   34.9257   30.4408   46.6092 H   0  0  0  0  0  0  0  0  0  0  0  0
   33.7021   27.4263   49.3858 H   0  0  0  0  0  0  0  0  0  0  0  0
   36.9336   30.3775   52.7368 H   0  0  0  0  0  0  0  0  0  0  0  0
   37.2800   28.8944   51.7845 H   0  0  0  0  0  0  0  0  0  0  0  0
   38.4518   30.2558   51.7845 H   0  0  0  0  0  0  0  0  0  0  0  0
  1  6  2  0
  1  7  1  0
  2  1  1  0
  3  4  1  0
  3  2  2  0
  4  5  2  0
  5  6  1  0
  7  8  1  0
  2  9  1  0
  3 10  1  0
  5 11  1  0
  8 12  1  0
  8 13  1  0
  8 14  1  0
M  ISO  6   9  14  10  14  11  14  12   8  13   8  14   8
M  END
>  <minimizedAffinity>  (1) 
-2.88686347

>  <minimizedRMSD>  (1) 
2.37925696

$$$$
