
     RDKit          3D

 30 31  0  0  0  0  0  0  0  0999 V2000
   37.5120   30.8120   47.4630 C   0  0  0  0  0  0  0  0  0  0  0  0
   37.5110   30.2990   51.2180 C   0  0  0  0  0  0  0  0  0  0  0  0
   37.8940   30.7360   49.9410 C   0  0  0  0  0  0  0  0  0  0  0  0
   37.1820   30.3600   48.8290 C   0  0  0  0  0  0  0  0  0  0  0  0
   36.0960   29.5490   49.0370 N   0  0  0  0  0  0  0  0  0  0  0  0
   35.7380   29.1360   50.2600 C   0  0  0  0  0  0  0  0  0  0  0  0
   36.4390   29.5050   51.3580 N   0  0  0  0  0  0  0  0  0  0  0  0
   38.4660   31.9490   47.4480 C   0  0  0  0  0  0  0  0  0  0  0  0
   39.6570   31.8110   46.6720 N   0  0  0  0  0  0  0  0  0  0  0  0
   39.9970   33.0530   46.0650 C   0  0  0  0  0  0  0  0  0  0  0  0
   39.5760   33.2080   44.6290 C   0  0  0  0  0  0  0  0  0  0  0  0
   40.3220   32.1550   43.9220 N   0  0  0  0  0  0  0  0  0  0  0  0
   39.6840   30.9220   44.3420 C   0  0  0  0  0  0  0  0  0  0  0  0
   39.6570   30.6810   45.7980 C   0  0  0  0  0  0  0  0  0  0  0  0
   37.9591   29.9709   46.9129 H   0  0  0  0  0  0  0  0  0  0  0  0
   36.5787   31.1566   46.9937 H   0  0  0  0  0  0  0  0  0  0  0  0
   38.0884   30.6068   52.1022 H   0  0  0  0  0  0  0  0  0  0  0  0
   38.7739   31.3867   49.8296 H   0  0  0  0  0  0  0  0  0  0  0  0
   34.8585   28.4853   50.3743 H   0  0  0  0  0  0  0  0  0  0  0  0
   37.9245   32.8261   47.0640 H   0  0  0  0  0  0  0  0  0  0  0  0
   38.8204   32.0258   48.4865 H   0  0  0  0  0  0  0  0  0  0  0  0
   39.5208   33.8562   46.6465 H   0  0  0  0  0  0  0  0  0  0  0  0
   41.0961   33.0983   46.0644 H   0  0  0  0  0  0  0  0  0  0  0  0
   38.4916   33.0580   44.5214 H   0  0  0  0  0  0  0  0  0  0  0  0
   39.7854   34.2127   44.2332 H   0  0  0  0  0  0  0  0  0  0  0  0
   41.3148   32.1641   44.1961 H   0  0  0  0  0  0  0  0  0  0  0  0
   38.6445   30.9395   43.9827 H   0  0  0  0  0  0  0  0  0  0  0  0
   40.2893   30.1094   43.9139 H   0  0  0  0  0  0  0  0  0  0  0  0
   38.7477   30.1013   46.0153 H   0  0  0  0  0  0  0  0  0  0  0  0
   40.6117   30.1763   46.0072 H   0  0  0  0  0  0  0  0  0  0  0  0
  1  4  1  0
  2  7  2  0
  3  2  1  0
  4  5  1  0
  4  3  2  0
  5  6  2  0
  6  7  1  0
  8  1  1  0
  9  8  1  0
 10  9  1  0
 11 10  1  0
 12 13  1  0
 12 11  1  0
 13 14  1  0
 14  9  1  0
  1 15  1  0
  1 16  1  0
  2 17  1  0
  3 18  1  0
  6 19  1  0
  8 20  1  0
  8 21  1  0
 10 22  1  0
 10 23  1  0
 11 24  1  0
 11 25  1  0
 12 26  1  0
 13 27  1  0
 13 28  1  0
 14 29  1  0
 14 30  1  0
M  ISO  8  15   8  16   8  17  14  18  14  19  14  20   8  21   8  22  13
M  ISO  8  23  13  24  13  25  13  26   5  27  13  28  13  29  13  30  13
M  END
>  <minimizedAffinity>  (1) 
-4.62418747

>  <minimizedRMSD>  (1) 
3.85321879

$$$$
