
     RDKit          3D

 23 24  0  0  0  0  0  0  0  0999 V2000
   36.6770   30.5970   47.3390 C   0  0  0  0  0  0  0  0  0  0  0  0
   34.7250   28.5430   49.8570 C   0  0  0  0  0  0  0  0  0  0  0  0
   35.7660   29.3070   49.3140 C   0  0  0  0  0  0  0  0  0  0  0  0
   35.6340   29.7770   48.0160 C   0  0  0  0  0  0  0  0  0  0  0  0
   34.5080   29.4780   47.3340 N   0  0  0  0  0  0  0  0  0  0  0  0
   33.5140   28.7370   47.8810 C   0  0  0  0  0  0  0  0  0  0  0  0
   33.6230   28.2710   49.1420 N   0  0  0  0  0  0  0  0  0  0  0  0
   37.9470   30.6200   48.1700 C   0  0  0  0  0  0  0  0  0  0  0  0
   38.5220   31.9570   48.3010 C   0  0  0  0  0  0  0  0  0  0  0  0
   39.1530   32.8640   47.4740 C   0  0  0  0  0  0  0  0  0  0  0  0
   39.4920   33.9870   48.1350 N   0  0  0  0  0  0  0  0  0  0  0  0
   39.0650   33.7690   49.3870 C   0  0  0  0  0  0  0  0  0  0  0  0
   38.4840   32.5680   49.5140 N   0  0  0  0  0  0  0  0  0  0  0  0
   36.8963   30.1633   46.3522 H   0  0  0  0  0  0  0  0  0  0  0  0
   36.3054   31.6258   47.2229 H   0  0  0  0  0  0  0  0  0  0  0  0
   34.8124   28.1605   50.8847 H   0  0  0  0  0  0  0  0  0  0  0  0
   36.6676   29.5291   49.9037 H   0  0  0  0  0  0  0  0  0  0  0  0
   32.6119   28.5140   47.2924 H   0  0  0  0  0  0  0  0  0  0  0  0
   37.7145   30.2388   49.1753 H   0  0  0  0  0  0  0  0  0  0  0  0
   38.6886   29.9931   47.6532 H   0  0  0  0  0  0  0  0  0  0  0  0
   39.3542   32.6908   46.4065 H   0  0  0  0  0  0  0  0  0  0  0  0
   39.9693   34.8211   47.7643 H   0  0  0  0  0  0  0  0  0  0  0  0
   39.1779   34.4891   50.2108 H   0  0  0  0  0  0  0  0  0  0  0  0
  1  4  1  0
  1  8  1  0
  3  2  2  0
  4  3  1  0
  5  6  1  0
  5  4  2  0
  6  7  2  0
  7  2  1  0
  8  9  1  0
  9 13  1  0
 10 11  1  0
 10  9  2  0
 11 12  1  0
 12 13  2  0
  1 14  1  0
  1 15  1  0
  2 16  1  0
  3 17  1  0
  6 18  1  0
  8 19  1  0
  8 20  1  0
 10 21  1  0
 11 22  1  0
 12 23  1  0
M  ISO  8  14   8  15   8  16  14  17  14  18  14  19   8  20   8  21  14
M  ISO  2  22   9  23  14
M  END
>  <minimizedAffinity>  (1) 
-4.47814274

>  <minimizedRMSD>  (1) 
2.8505547

$$$$
