
     RDKit          3D

 17 17  0  0  0  0  0  0  0  0999 V2000
   37.3420   30.0590   51.5270 C   0  0  0  0  0  0  0  0  0  0  0  0
   37.9070   30.7670   50.4670 C   0  0  0  0  0  0  0  0  0  0  0  0
   37.2480   30.8580   49.2520 C   0  0  0  0  0  0  0  0  0  0  0  0
   36.0450   30.2380   49.1340 N   0  0  0  0  0  0  0  0  0  0  0  0
   35.5070   29.5500   50.1780 C   0  0  0  0  0  0  0  0  0  0  0  0
   36.1490   29.4610   51.3670 N   0  0  0  0  0  0  0  0  0  0  0  0
   37.7610   31.5840   48.0670 C   0  0  0  0  0  0  0  0  0  0  0  0
   38.7850   32.6310   48.4950 C   0  0  0  0  0  0  0  0  0  0  0  0
   38.2150   33.8430   48.7640 O   0  0  0  0  0  0  0  0  0  0  0  0
   37.8701   29.9902   52.4895 H   0  0  0  0  0  0  0  0  0  0  0  0
   38.8833   31.2569   50.5965 H   0  0  0  0  0  0  0  0  0  0  0  0
   34.5317   29.0567   50.0535 H   0  0  0  0  0  0  0  0  0  0  0  0
   36.9242   32.0817   47.5551 H   0  0  0  0  0  0  0  0  0  0  0  0
   38.2431   30.8666   47.3867 H   0  0  0  0  0  0  0  0  0  0  0  0
   39.2971   32.2736   49.4005 H   0  0  0  0  0  0  0  0  0  0  0  0
   39.4878   32.7708   47.6604 H   0  0  0  0  0  0  0  0  0  0  0  0
   38.1555   33.9695   49.7441 H   0  0  0  0  0  0  0  0  0  0  0  0
  2  1  2  0
  3  2  1  0
  4  3  2  0
  4  5  1  0
  5  6  2  0
  6  1  1  0
  7  8  1  0
  7  3  1  0
  8  9  1  0
  1 10  1  0
  2 11  1  0
  5 12  1  0
  7 13  1  0
  7 14  1  0
  8 15  1  0
  8 16  1  0
  9 17  1  0
M  ISO  8  10  14  11  14  12  14  13   8  14   8  15   8  16   8  17   3
M  END
>  <minimizedAffinity>  (1) 
-3.7180841

>  <minimizedRMSD>  (1) 
0.573709965

$$$$
