
     RDKit          3D

 17 17  0  0  0  0  0  0  0  0999 V2000
   37.0510   29.4080   51.1700 C   0  0  0  0  0  0  0  0  0  0  0  0
   37.6980   30.0190   50.0970 C   0  0  0  0  0  0  0  0  0  0  0  0
   36.9140   30.4890   49.0570 C   0  0  0  0  0  0  0  0  0  0  0  0
   35.5520   30.3240   49.1510 N   0  0  0  0  0  0  0  0  0  0  0  0
   34.9650   29.7310   50.2000 C   0  0  0  0  0  0  0  0  0  0  0  0
   35.7220   29.2700   51.2170 N   0  0  0  0  0  0  0  0  0  0  0  0
   37.4290   31.1610   47.8360 C   0  0  0  0  0  0  0  0  0  0  0  0
   38.7560   31.8370   48.1590 C   0  0  0  0  0  0  0  0  0  0  0  0
   38.4660   33.3640   49.0900 S   0  0  0  0  0  0  0  0  0  0  0  0
   37.6546   29.0263   52.0067 H   0  0  0  0  0  0  0  0  0  0  0  0
   38.7928   30.1240   50.0772 H   0  0  0  0  0  0  0  0  0  0  0  0
   33.8710   29.6208   50.2315 H   0  0  0  0  0  0  0  0  0  0  0  0
   36.7040   31.9160   47.4979 H   0  0  0  0  0  0  0  0  0  0  0  0
   37.5770   30.4174   47.0390 H   0  0  0  0  0  0  0  0  0  0  0  0
   39.3745   31.1554   48.7614 H   0  0  0  0  0  0  0  0  0  0  0  0
   39.2741   32.0807   47.2197 H   0  0  0  0  0  0  0  0  0  0  0  0
   38.5167   33.0968   50.4327 H   0  0  0  0  0  0  0  0  0  0  0  0
  1  6  2  0
  2  1  1  0
  3  4  1  0
  3  2  2  0
  4  5  2  0
  5  6  1  0
  7  8  1  0
  7  3  1  0
  8  9  1  0
  1 10  1  0
  2 11  1  0
  5 12  1  0
  7 13  1  0
  7 14  1  0
  8 15  1  0
  8 16  1  0
  9 17  1  0
M  ISO  8  10  14  11  14  12  14  13   8  14   8  15   8  16   8  17  11
M  END
>  <minimizedAffinity>  (1) 
-3.37803721

>  <minimizedRMSD>  (1) 
1.04320729

$$$$
