
     RDKit          3D

 28 30  0  0  0  0  0  0  0  0999 V2000
   34.8010   29.1730   47.3680 C   0  0  0  0  0  0  0  0  0  0  0  0
   34.5570   30.2350   48.4120 C   0  0  0  0  0  0  0  0  0  0  0  0
   36.8850   29.6850   51.3280 C   0  0  0  0  0  0  0  0  0  0  0  0
   35.7820   29.5300   50.5040 C   0  0  0  0  0  0  0  0  0  0  0  0
   35.6700   30.2970   49.3700 C   0  0  0  0  0  0  0  0  0  0  0  0
   36.6760   31.1870   49.1170 N   0  0  0  0  0  0  0  0  0  0  0  0
   37.7490   31.3340   49.9250 C   0  0  0  0  0  0  0  0  0  0  0  0
   37.8540   30.5750   51.0420 N   0  0  0  0  0  0  0  0  0  0  0  0
   34.8320   29.9030   45.7130 S   0  0  0  0  0  0  0  0  0  0  0  0
   37.0150   31.4620   46.1930 N   0  0  0  0  0  0  0  0  0  0  0  0
   36.5040   30.4660   45.4260 C   0  0  0  0  0  0  0  0  0  0  0  0
   37.4260   30.0630   44.5300 N   0  0  0  0  0  0  0  0  0  0  0  0
   38.5620   30.7980   44.7000 C   0  0  0  0  0  0  0  0  0  0  0  0
   39.8050   30.8460   44.1040 C   0  0  0  0  0  0  0  0  0  0  0  0
   40.7580   31.7030   44.4960 N   0  0  0  0  0  0  0  0  0  0  0  0
   40.4700   32.5400   45.5130 C   0  0  0  0  0  0  0  0  0  0  0  0
   39.2610   32.5150   46.1150 N   0  0  0  0  0  0  0  0  0  0  0  0
   38.2760   31.6710   45.7540 C   0  0  0  0  0  0  0  0  0  0  0  0
   35.7671   28.6860   47.5665 H   0  0  0  0  0  0  0  0  0  0  0  0
   33.9864   28.4353   47.4152 H   0  0  0  0  0  0  0  0  0  0  0  0
   34.4551   31.2111   47.9153 H   0  0  0  0  0  0  0  0  0  0  0  0
   33.6367   29.9835   48.9596 H   0  0  0  0  0  0  0  0  0  0  0  0
   36.9708   29.0681   52.2347 H   0  0  0  0  0  0  0  0  0  0  0  0
   35.0011   28.7975   50.7563 H   0  0  0  0  0  0  0  0  0  0  0  0
   38.5323   32.0654   49.6772 H   0  0  0  0  0  0  0  0  0  0  0  0
   36.5369   31.9597   46.9576 H   0  0  0  0  0  0  0  0  0  0  0  0
   40.0222   30.1551   43.2761 H   0  0  0  0  0  0  0  0  0  0  0  0
   41.2317   33.2547   45.8580 H   0  0  0  0  0  0  0  0  0  0  0  0
  1  2  1  0
  2  5  1  0
  4  3  2  0
  5  4  1  0
  6  5  2  0
  6  7  1  0
  7  8  2  0
  8  3  1  0
  9  1  1  0
 11  9  1  0
 11 10  1  0
 12 13  1  0
 12 11  2  0
 13 18  2  0
 14 15  2  0
 14 13  1  0
 15 16  1  0
 16 17  2  0
 18 17  1  0
 18 10  1  0
  1 19  1  0
  1 20  1  0
  2 21  1  0
  2 22  1  0
  3 23  1  0
  4 24  1  0
  7 25  1  0
 10 26  1  0
 14 27  1  0
 16 28  1  0
M  ISO  8  19   8  20   8  21   8  22   8  23  14  24  14  25  14  26   9
M  ISO  2  27  14  28  14
M  END
>  <minimizedAffinity>  (1) 
-4.79231596

>  <minimizedRMSD>  (1) 
5.44840813

$$$$
