
     RDKit          3D

 20 20  0  0  0  0  0  0  0  0999 V2000
   37.2250   31.5520   48.9270 C   0  0  0  0  0  0  0  0  0  0  0  0
   38.2350   32.4930   49.1790 C   0  0  0  0  0  0  0  0  0  0  0  0
   39.0300   32.9290   48.1220 C   0  0  0  0  0  0  0  0  0  0  0  0
   38.7730   32.4030   46.8760 N   0  0  0  0  0  0  0  0  0  0  0  0
   37.7870   31.4950   46.6660 C   0  0  0  0  0  0  0  0  0  0  0  0
   37.0340   31.0830   47.6780 N   0  0  0  0  0  0  0  0  0  0  0  0
   36.5240   31.2200   50.0720 O   0  0  0  0  0  0  0  0  0  0  0  0
   35.7250   30.0860   49.9990 C   0  0  0  0  0  0  0  0  0  0  0  0
   36.2310   29.4380   51.0310 C   0  0  0  0  0  0  0  0  0  0  0  0
   37.3310   29.9460   51.8890 C   0  0  0  0  0  0  0  0  0  0  0  0
   38.3963   32.8803   50.1958 H   0  0  0  0  0  0  0  0  0  0  0  0
   39.8324   33.6653   48.2767 H   0  0  0  0  0  0  0  0  0  0  0  0
   37.6114   31.0995   45.6547 H   0  0  0  0  0  0  0  0  0  0  0  0
   34.6585   30.3183   50.1351 H   0  0  0  0  0  0  0  0  0  0  0  0
   35.7359   29.5488   49.0392 H   0  0  0  0  0  0  0  0  0  0  0  0
   35.3850   29.2592   51.7109 H   0  0  0  0  0  0  0  0  0  0  0  0
   36.7403   28.6083   50.5190 H   0  0  0  0  0  0  0  0  0  0  0  0
   37.0585   29.8202   52.9473 H   0  0  0  0  0  0  0  0  0  0  0  0
   38.2513   29.3817   51.6777 H   0  0  0  0  0  0  0  0  0  0  0  0
   37.4982   31.0125   51.6777 H   0  0  0  0  0  0  0  0  0  0  0  0
  1  2  2  0
  1  7  1  0
  3  2  1  0
  4  3  2  0
  5  4  1  0
  5  6  2  0
  6  1  1  0
  8  7  1  0
  8  9  1  0
  9 10  1  0
  2 11  1  0
  3 12  1  0
  5 13  1  0
  8 14  1  0
  8 15  1  0
  9 16  1  0
  9 17  1  0
 10 18  1  0
 10 19  1  0
 10 20  1  0
M  ISO  8  11  14  12  14  13  14  14   8  15   8  16   8  17   8  18   8
M  ISO  2  19   8  20   8
M  END
>  <minimizedAffinity>  (1) 
-3.93439245

>  <minimizedRMSD>  (1) 
3.37254572

$$$$
