
     RDKit          3D

 39 40  0  0  1  0  0  0  0  0999 V2000
   39.1590   32.1920   46.6270 C   0  0  2  0  0  0  0  0  0  0  0  0
   40.1810   33.2150   46.2920 C   0  0  0  0  0  0  0  0  0  0  0  0
   40.0440   33.6380   44.8410 C   0  0  0  0  0  0  0  0  0  0  0  0
   39.6300   32.4640   44.0020 C   0  0  0  0  0  0  0  0  0  0  0  0
   38.1390   32.4080   44.2970 C   0  0  0  0  0  0  0  0  0  0  0  0
   37.9940   32.1300   45.7380 C   0  0  1  0  0  0  0  0  0  0  0  0
   38.5780   32.6130   48.2800 S   0  0  0  0  0  0  0  0  0  0  0  0
   38.2400   31.3190   49.3610 C   0  0  0  0  0  0  0  0  0  0  0  0
   36.9010   31.3730   50.0630 C   0  0  0  0  0  0  0  0  0  0  0  0
   34.8510   28.3050   49.5250 C   0  0  0  0  0  0  0  0  0  0  0  0
   35.7680   29.1980   50.0770 C   0  0  0  0  0  0  0  0  0  0  0  0
   35.9440   30.4190   49.4830 C   0  0  0  0  0  0  0  0  0  0  0  0
   35.2100   30.7140   48.3630 N   0  0  0  0  0  0  0  0  0  0  0  0
   34.3380   29.8370   47.8560 C   0  0  0  0  0  0  0  0  0  0  0  0
   34.1380   28.6370   48.4090 N   0  0  0  0  0  0  0  0  0  0  0  0
   37.4990   30.6890   45.7400 C   0  0  0  0  0  0  0  0  0  0  0  0
   36.4090   30.5590   44.7330 C   0  0  0  0  0  0  0  0  0  0  0  0
   39.6382   31.2065   46.5313 H   0  0  0  0  0  0  0  0  0  0  0  0
   40.0429   34.0925   46.9408 H   0  0  0  0  0  0  0  0  0  0  0  0
   41.1820   32.7864   46.4477 H   0  0  0  0  0  0  0  0  0  0  0  0
   39.2833   34.4287   44.7621 H   0  0  0  0  0  0  0  0  0  0  0  0
   41.0126   34.0157   44.4815 H   0  0  0  0  0  0  0  0  0  0  0  0
   40.1393   31.5418   44.3183 H   0  0  0  0  0  0  0  0  0  0  0  0
   39.8778   32.5596   42.9345 H   0  0  0  0  0  0  0  0  0  0  0  0
   37.6685   33.3709   44.0489 H   0  0  0  0  0  0  0  0  0  0  0  0
   37.6492   31.6278   43.6958 H   0  0  0  0  0  0  0  0  0  0  0  0
   37.3600   32.9285   46.1509 H   0  0  0  0  0  0  0  0  0  0  0  0
   38.2813   30.3816   48.7870 H   0  0  0  0  0  0  0  0  0  0  0  0
   38.9952   31.3933   50.1573 H   0  0  0  0  0  0  0  0  0  0  0  0
   37.0459   31.1308   51.1262 H   0  0  0  0  0  0  0  0  0  0  0  0
   36.4910   32.3865   49.9419 H   0  0  0  0  0  0  0  0  0  0  0  0
   34.7001   27.3215   49.9939 H   0  0  0  0  0  0  0  0  0  0  0  0
   36.3412   28.9260   50.9756 H   0  0  0  0  0  0  0  0  0  0  0  0
   33.7677   30.1113   46.9563 H   0  0  0  0  0  0  0  0  0  0  0  0
   38.3265   30.0126   45.4797 H   0  0  0  0  0  0  0  0  0  0  0  0
   37.1217   30.4229   46.7384 H   0  0  0  0  0  0  0  0  0  0  0  0
   35.4446   30.4440   45.2494 H   0  0  0  0  0  0  0  0  0  0  0  0
   36.3824   31.4603   44.1030 H   0  0  0  0  0  0  0  0  0  0  0  0
   36.5951   29.6767   44.1030 H   0  0  0  0  0  0  0  0  0  0  0  0
  1  7  1  0
  2  1  1  0
  3  2  1  0
  4  5  1  0
  4  3  1  0
  5  6  1  0
  6 16  1  0
  6  1  1  0
  7  8  1  0
  8  9  1  0
 10 11  2  0
 12  9  1  0
 12 11  1  0
 13 12  2  0
 14 13  1  0
 14 15  2  0
 15 10  1  0
 17 16  1  0
  1 18  1  1
  2 19  1  0
  2 20  1  0
  3 21  1  0
  3 22  1  0
  4 23  1  0
  4 24  1  0
  5 25  1  0
  5 26  1  0
  6 27  1  1
  8 28  1  0
  8 29  1  0
  9 30  1  0
  9 31  1  0
 10 32  1  0
 11 33  1  0
 14 34  1  0
 16 35  1  0
 16 36  1  0
 17 37  1  0
 17 38  1  0
 17 39  1  0
M  ISO  8  18  13  19  13  20  13  21  13  22  13  23  13  24  13  25  13
M  ISO  8  26  13  27  13  28   8  29   8  30   8  31   8  32  14  33  14
M  ISO  6  34  14  35   8  36   8  37   8  38   8  39   8
M  END
>  <minimizedAffinity>  (1) 
-5.08537436

>  <minimizedRMSD>  (1) 
2.75167179

$$$$
