
     RDKit          3D

 43 45  0  0  1  0  0  0  0  0999 V2000
   38.4120   31.1970   48.5870 C   0  0  2  0  0  0  0  0  0  0  0  0
   38.4130   31.9520   49.9070 C   0  0  0  0  0  0  0  0  0  0  0  0
   38.7080   33.4010   49.6930 C   0  0  0  0  0  0  0  0  0  0  0  0
   39.6580   33.5620   48.5160 C   0  0  0  0  0  0  0  0  0  0  0  0
   38.7330   33.4010   47.3430 C   0  0  0  0  0  0  0  0  0  0  0  0
   38.1600   32.0060   47.4110 C   0  0  1  0  0  0  0  0  0  0  0  0
   38.9060   31.4300   46.2040 C   0  0  0  0  0  0  0  0  0  0  0  0
   40.1380   31.9120   45.8020 C   0  0  0  0  0  0  0  0  0  0  0  0
   40.8830   31.4570   44.7400 C   0  0  0  0  0  0  0  0  0  0  0  0
   40.3430   30.4210   44.0120 C   0  0  0  0  0  0  0  0  0  0  0  0
   39.1230   29.8900   44.3540 C   0  0  0  0  0  0  0  0  0  0  0  0
   38.4300   30.3960   45.4320 C   0  0  0  0  0  0  0  0  0  0  0  0
   37.1270   29.9220   48.7530 S   0  0  0  0  0  0  0  0  0  0  0  0
   35.5860   30.3780   47.9310 C   0  0  0  0  0  0  0  0  0  0  0  0
   34.4140   29.8520   48.6830 C   0  0  0  0  0  0  0  0  0  0  0  0
   33.4820   26.4060   47.5930 C   0  0  0  0  0  0  0  0  0  0  0  0
   34.1230   27.4340   48.2710 C   0  0  0  0  0  0  0  0  0  0  0  0
   33.7670   28.7300   48.0390 C   0  0  0  0  0  0  0  0  0  0  0  0
   32.7630   28.9340   47.1220 N   0  0  0  0  0  0  0  0  0  0  0  0
   32.1660   27.9300   46.4880 C   0  0  0  0  0  0  0  0  0  0  0  0
   32.5050   26.6580   46.7040 N   0  0  0  0  0  0  0  0  0  0  0  0
   39.4206   30.7922   48.4174 H   0  0  0  0  0  0  0  0  0  0  0  0
   37.4249   31.8518   50.3798 H   0  0  0  0  0  0  0  0  0  0  0  0
   39.1940   31.5265   50.5543 H   0  0  0  0  0  0  0  0  0  0  0  0
   37.7711   33.9378   49.4829 H   0  0  0  0  0  0  0  0  0  0  0  0
   39.1758   33.8153   50.5983 H   0  0  0  0  0  0  0  0  0  0  0  0
   40.1319   34.5547   48.5179 H   0  0  0  0  0  0  0  0  0  0  0  0
   40.4954   32.8487   48.5214 H   0  0  0  0  0  0  0  0  0  0  0  0
   39.2897   33.5338   46.4036 H   0  0  0  0  0  0  0  0  0  0  0  0
   37.9310   34.1532   47.3735 H   0  0  0  0  0  0  0  0  0  0  0  0
   37.0603   32.0168   47.4341 H   0  0  0  0  0  0  0  0  0  0  0  0
   40.5632   32.7396   46.3887 H   0  0  0  0  0  0  0  0  0  0  0  0
   41.8584   31.8972   44.4856 H   0  0  0  0  0  0  0  0  0  0  0  0
   40.8925   30.0152   43.1498 H   0  0  0  0  0  0  0  0  0  0  0  0
   38.6996   29.0613   43.7675 H   0  0  0  0  0  0  0  0  0  0  0  0
   37.4550   29.9544   45.6859 H   0  0  0  0  0  0  0  0  0  0  0  0
   35.5809   29.9581   46.9143 H   0  0  0  0  0  0  0  0  0  0  0  0
   35.5174   31.4751   47.8907 H   0  0  0  0  0  0  0  0  0  0  0  0
   34.7552   29.5318   49.6785 H   0  0  0  0  0  0  0  0  0  0  0  0
   33.6739   30.6641   48.7347 H   0  0  0  0  0  0  0  0  0  0  0  0
   33.7792   25.3648   47.7868 H   0  0  0  0  0  0  0  0  0  0  0  0
   34.9180   27.2033   48.9953 H   0  0  0  0  0  0  0  0  0  0  0  0
   31.3690   28.1545   45.7639 H   0  0  0  0  0  0  0  0  0  0  0  0
  1 13  1  0
  1  2  1  0
  3  2  1  0
  4  3  1  0
  5  6  1  0
  5  4  1  0
  6  1  1  0
  7  6  1  0
  8  7  2  0
  9  8  1  0
 10 11  1  0
 10  9  2  0
 11 12  2  0
 12  7  1  0
 14 15  1  0
 14 13  1  0
 16 17  2  0
 18 17  1  0
 18 15  1  0
 19 18  2  0
 20 21  2  0
 20 19  1  0
 21 16  1  0
  1 22  1  6
  2 23  1  0
  2 24  1  0
  3 25  1  0
  3 26  1  0
  4 27  1  0
  4 28  1  0
  5 29  1  0
  5 30  1  0
  6 31  1  6
  8 32  1  0
  9 33  1  0
 10 34  1  0
 11 35  1  0
 12 36  1  0
 14 37  1  0
 14 38  1  0
 15 39  1  0
 15 40  1  0
 16 41  1  0
 17 42  1  0
 20 43  1  0
M  ISO  8  22  13  23  13  24  13  25  13  26  13  27  13  28  13  29  13
M  ISO  8  30  13  31  13  32  14  33  14  34  14  35  14  36  14  37   8
M  ISO  6  38   8  39   8  40   8  41  14  42  14  43  14
M  END
>  <minimizedAffinity>  (1) 
-4.61114073

>  <minimizedRMSD>  (1) 
1.48541844

$$$$
