
     RDKit          3D

 35 36  0  0  1  0  0  0  0  0999 V2000
   39.0400   31.5130   47.0620 C   0  0  2  0  0  0  0  0  0  0  0  0
   39.6960   32.8690   46.9980 C   0  0  0  0  0  0  0  0  0  0  0  0
   40.3840   33.0330   45.6790 C   0  0  0  0  0  0  0  0  0  0  0  0
   40.7820   31.7150   45.0660 C   0  0  0  0  0  0  0  0  0  0  0  0
   39.5790   30.9010   44.6950 C   0  0  0  0  0  0  0  0  0  0  0  0
   38.4870   31.1730   45.7030 C   0  0  2  0  0  0  0  0  0  0  0  0
   37.5140   32.0900   45.1930 N   0  0  0  0  0  0  0  0  0  0  0  0
   37.6470   31.6600   48.2140 S   0  0  0  0  0  0  0  0  0  0  0  0
   36.6160   30.1750   48.1950 C   0  0  0  0  0  0  0  0  0  0  0  0
   35.4200   30.3880   47.3350 C   0  0  0  0  0  0  0  0  0  0  0  0
   33.1030   28.0760   49.0860 C   0  0  0  0  0  0  0  0  0  0  0  0
   34.1840   28.8990   48.8200 C   0  0  0  0  0  0  0  0  0  0  0  0
   34.2980   29.5050   47.6060 C   0  0  0  0  0  0  0  0  0  0  0  0
   33.3070   29.2640   46.6770 N   0  0  0  0  0  0  0  0  0  0  0  0
   32.2850   28.4760   46.9520 C   0  0  0  0  0  0  0  0  0  0  0  0
   32.1480   27.8690   48.1330 N   0  0  0  0  0  0  0  0  0  0  0  0
   39.7564   30.7408   47.3788 H   0  0  0  0  0  0  0  0  0  0  0  0
   38.9311   33.6513   47.1115 H   0  0  0  0  0  0  0  0  0  0  0  0
   40.4349   32.9556   47.8083 H   0  0  0  0  0  0  0  0  0  0  0  0
   39.7029   33.5516   44.9883 H   0  0  0  0  0  0  0  0  0  0  0  0
   41.3034   33.6115   45.8521 H   0  0  0  0  0  0  0  0  0  0  0  0
   41.3781   31.9061   44.1615 H   0  0  0  0  0  0  0  0  0  0  0  0
   41.3679   31.1507   45.8065 H   0  0  0  0  0  0  0  0  0  0  0  0
   39.2348   31.1845   43.6894 H   0  0  0  0  0  0  0  0  0  0  0  0
   39.8335   29.8308   44.6944 H   0  0  0  0  0  0  0  0  0  0  0  0
   37.9293   30.2393   45.8679 H   0  0  0  0  0  0  0  0  0  0  0  0
   37.0287   32.5474   45.9780 H   0  0  0  0  0  0  0  0  0  0  0  0
   37.9833   32.8034   44.6170 H   0  0  0  0  0  0  0  0  0  0  0  0
   37.2015   29.3317   47.8000 H   0  0  0  0  0  0  0  0  0  0  0  0
   36.2849   29.9559   49.2208 H   0  0  0  0  0  0  0  0  0  0  0  0
   35.7233   30.2413   46.2879 H   0  0  0  0  0  0  0  0  0  0  0  0
   35.0660   31.4068   47.5513 H   0  0  0  0  0  0  0  0  0  0  0  0
   33.0135   27.5878   50.0676 H   0  0  0  0  0  0  0  0  0  0  0  0
   34.9518   29.0636   49.5904 H   0  0  0  0  0  0  0  0  0  0  0  0
   31.5182   28.3134   46.1802 H   0  0  0  0  0  0  0  0  0  0  0  0
  1  8  1  0
  2  1  1  0
  3  2  1  0
  4  3  1  0
  5  4  1  0
  5  6  1  0
  6  1  1  0
  7  6  1  0
  9  8  1  0
 10 13  1  0
 10  9  1  0
 12 11  2  0
 13 12  1  0
 14 15  1  0
 14 13  2  0
 15 16  2  0
 16 11  1  0
  1 17  1  1
  2 18  1  0
  2 19  1  0
  3 20  1  0
  3 21  1  0
  4 22  1  0
  4 23  1  0
  5 24  1  0
  5 25  1  0
  6 26  1  1
  7 27  1  0
  7 28  1  0
  9 29  1  0
  9 30  1  0
 10 31  1  0
 10 32  1  0
 11 33  1  0
 12 34  1  0
 15 35  1  0
M  ISO  8  17  13  18  13  19  13  20  13  21  13  22  13  23  13  24  13
M  ISO  8  25  13  26  13  27   5  28   5  29   8  30   8  31   8  32   8
M  ISO  3  33  14  34  14  35  14
M  END
>  <minimizedAffinity>  (1) 
-4.3239255

>  <minimizedRMSD>  (1) 
1.80303812

$$$$
