
     RDKit          3D

 47 50  0  0  1  0  0  0  0  0999 V2000
   38.5480   32.2110   48.6910 C   0  0  2  0  0  0  0  0  0  0  0  0
   39.0270   33.0650   49.8540 C   0  0  0  0  0  0  0  0  0  0  0  0
   39.6970   34.3120   49.3640 C   0  0  0  0  0  0  0  0  0  0  0  0
   40.4200   34.0400   48.0630 C   0  0  0  0  0  0  0  0  0  0  0  0
   39.3170   34.0150   47.0570 C   0  0  0  0  0  0  0  0  0  0  0  0
   38.3580   32.9190   47.4440 C   0  0  1  0  0  0  0  0  0  0  0  0
   39.4580   30.9200   46.2220 C   0  0  0  0  0  0  0  0  0  0  0  0
   38.5720   31.9720   46.3010 C   0  0  0  0  0  0  0  0  0  0  0  0
   37.8390   32.1340   45.1110 C   0  0  0  0  0  0  0  0  0  0  0  0
   37.9600   31.3580   43.9810 C   0  0  0  0  0  0  0  0  0  0  0  0
   37.3780   31.3390   42.7830 N   0  0  0  0  0  0  0  0  0  0  0  0
   37.8960   30.3380   42.0540 C   0  0  0  0  0  0  0  0  0  0  0  0
   38.8620   29.6670   42.8070 C   0  0  0  0  0  0  0  0  0  0  0  0
   38.8770   30.3280   44.0070 C   0  0  0  0  0  0  0  0  0  0  0  0
   39.6200   30.1130   45.1210 C   0  0  0  0  0  0  0  0  0  0  0  0
   36.9730   31.4760   49.2310 S   0  0  0  0  0  0  0  0  0  0  0  0
   36.6260   29.8960   48.4470 C   0  0  0  0  0  0  0  0  0  0  0  0
   35.6300   30.1520   47.3470 C   0  0  0  0  0  0  0  0  0  0  0  0
   32.9840   27.9500   48.8070 C   0  0  0  0  0  0  0  0  0  0  0  0
   34.1780   28.6540   48.6610 C   0  0  0  0  0  0  0  0  0  0  0  0
   34.3930   29.4030   47.5460 C   0  0  0  0  0  0  0  0  0  0  0  0
   33.3940   29.4220   46.6100 N   0  0  0  0  0  0  0  0  0  0  0  0
   32.2620   28.7420   46.7700 C   0  0  0  0  0  0  0  0  0  0  0  0
   32.0300   28.0010   47.8520 N   0  0  0  0  0  0  0  0  0  0  0  0
   39.3282   31.4700   48.4625 H   0  0  0  0  0  0  0  0  0  0  0  0
   38.1635   33.3415   50.4768 H   0  0  0  0  0  0  0  0  0  0  0  0
   39.7541   32.4834   50.4397 H   0  0  0  0  0  0  0  0  0  0  0  0
   38.9387   35.0923   49.2021 H   0  0  0  0  0  0  0  0  0  0  0  0
   40.4260   34.6472   50.1165 H   0  0  0  0  0  0  0  0  0  0  0  0
   41.1408   34.8398   47.8379 H   0  0  0  0  0  0  0  0  0  0  0  0
   41.0066   33.1097   48.0824 H   0  0  0  0  0  0  0  0  0  0  0  0
   39.7286   33.8148   46.0568 H   0  0  0  0  0  0  0  0  0  0  0  0
   38.7991   34.9852   47.0339 H   0  0  0  0  0  0  0  0  0  0  0  0
   37.3607   33.3501   47.6159 H   0  0  0  0  0  0  0  0  0  0  0  0
   40.0811   30.7106   47.1040 H   0  0  0  0  0  0  0  0  0  0  0  0
   37.1049   32.9527   45.0813 H   0  0  0  0  0  0  0  0  0  0  0  0
   36.6456   31.9901   42.4659 H   0  0  0  0  0  0  0  0  0  0  0  0
   37.6049   30.0855   41.0237 H   0  0  0  0  0  0  0  0  0  0  0  0
   39.4726   28.8033   42.5050 H   0  0  0  0  0  0  0  0  0  0  0  0
   40.3525   29.2926   45.1435 H   0  0  0  0  0  0  0  0  0  0  0  0
   37.5505   29.4729   48.0270 H   0  0  0  0  0  0  0  0  0  0  0  0
   36.2241   29.1784   49.1774 H   0  0  0  0  0  0  0  0  0  0  0  0
   36.0760   29.8529   46.3870 H   0  0  0  0  0  0  0  0  0  0  0  0
   35.3836   31.2240   47.3536 H   0  0  0  0  0  0  0  0  0  0  0  0
   32.8165   27.3456   49.7107 H   0  0  0  0  0  0  0  0  0  0  0  0
   34.9460   28.6040   49.4469 H   0  0  0  0  0  0  0  0  0  0  0  0
   31.4938   28.7933   45.9844 H   0  0  0  0  0  0  0  0  0  0  0  0
  1 16  1  0
  1  2  1  0
  3  2  1  0
  4  3  1  0
  5  6  1  0
  5  4  1  0
  6  1  1  0
  7  8  2  0
  8  6  1  0
  9  8  1  0
 10 14  1  0
 10  9  2  0
 11 10  1  0
 12 11  1  0
 12 13  2  0
 13 14  1  0
 14 15  2  0
 15  7  1  0
 17 16  1  0
 18 21  1  0
 18 17  1  0
 20 19  2  0
 21 20  1  0
 22 23  1  0
 22 21  2  0
 23 24  2  0
 24 19  1  0
  1 25  1  6
  2 26  1  0
  2 27  1  0
  3 28  1  0
  3 29  1  0
  4 30  1  0
  4 31  1  0
  5 32  1  0
  5 33  1  0
  6 34  1  1
  7 35  1  0
  9 36  1  0
 11 37  1  0
 12 38  1  0
 13 39  1  0
 15 40  1  0
 17 41  1  0
 17 42  1  0
 18 43  1  0
 18 44  1  0
 19 45  1  0
 20 46  1  0
 23 47  1  0
M  ISO  8  25  13  26  13  27  13  28  13  29  13  30  13  31  13  32  13
M  ISO  8  33  13  34  13  35  14  36  14  37   9  38  14  39  14  40  14
M  ISO  7  41   8  42   8  43   8  44   8  45  14  46  14  47  14
M  END
>  <minimizedAffinity>  (1) 
-4.02364969

>  <minimizedRMSD>  (1) 
1.69667757

$$$$
