
     RDKit          3D

 27 28  0  0  1  0  0  0  0  0999 V2000
   35.5210   30.5850   49.7240 C   0  0  2  0  0  0  0  0  0  0  0  0
   36.4970   31.2810   48.7970 C   0  0  0  0  0  0  0  0  0  0  0  0
   37.9020   30.7880   48.9660 C   0  0  0  0  0  0  0  0  0  0  0  0
   38.3760   30.8870   50.3920 C   0  0  0  0  0  0  0  0  0  0  0  0
   37.3820   30.3670   51.3850 C   0  0  0  0  0  0  0  0  0  0  0  0
   36.1790   29.7170   50.7380 C   0  0  2  0  0  0  0  0  0  0  0  0
   34.6010   29.7300   48.9180 C   0  0  0  0  0  0  0  0  0  0  0  0
   34.5390   30.0090   47.5420 C   0  0  0  0  0  0  0  0  0  0  0  0
   33.6570   29.2100   46.7900 C   0  0  0  0  0  0  0  0  0  0  0  0
   32.9180   28.2230   47.4130 N   0  0  0  0  0  0  0  0  0  0  0  0
   33.0240   28.0040   48.7490 C   0  0  0  0  0  0  0  0  0  0  0  0
   33.8600   28.7550   49.4830 N   0  0  0  0  0  0  0  0  0  0  0  0
   36.6260   28.5400   50.1220 O   0  0  0  0  0  0  0  0  0  0  0  0
   34.9845   31.3809   50.2613 H   0  0  0  0  0  0  0  0  0  0  0  0
   36.4745   32.3604   49.0075 H   0  0  0  0  0  0  0  0  0  0  0  0
   36.1890   31.0632   47.7637 H   0  0  0  0  0  0  0  0  0  0  0  0
   37.9476   29.7352   48.6506 H   0  0  0  0  0  0  0  0  0  0  0  0
   38.5568   31.4214   48.3495 H   0  0  0  0  0  0  0  0  0  0  0  0
   39.3053   30.3070   50.4920 H   0  0  0  0  0  0  0  0  0  0  0  0
   38.5274   31.9542   50.6113 H   0  0  0  0  0  0  0  0  0  0  0  0
   37.8812   29.6225   52.0226 H   0  0  0  0  0  0  0  0  0  0  0  0
   37.0169   31.2279   51.9642 H   0  0  0  0  0  0  0  0  0  0  0  0
   35.4254   29.5227   51.5154 H   0  0  0  0  0  0  0  0  0  0  0  0
   35.1433   30.8038   47.0804 H   0  0  0  0  0  0  0  0  0  0  0  0
   33.5563   29.3716   45.7066 H   0  0  0  0  0  0  0  0  0  0  0  0
   32.4269   27.2140   49.2279 H   0  0  0  0  0  0  0  0  0  0  0  0
   36.8769   27.8794   50.8154 H   0  0  0  0  0  0  0  0  0  0  0  0
  1  6  1  0
  2  3  1  0
  2  1  1  0
  3  4  1  0
  4  5  1  0
  6  5  1  0
  7 12  1  0
  7  1  1  0
  8  7  2  0
  9 10  2  0
  9  8  1  0
 10 11  1  0
 11 12  2  0
 13  6  1  0
  1 14  1  1
  2 15  1  0
  2 16  1  0
  3 17  1  0
  3 18  1  0
  4 19  1  0
  4 20  1  0
  5 21  1  0
  5 22  1  0
  6 23  1  1
  8 24  1  0
  9 25  1  0
 11 26  1  0
 13 27  1  0
M  ISO  8  14  13  15  13  16  13  17  13  18  13  19  13  20  13  21  13
M  ISO  6  22  13  23  13  24  14  25  14  26  14  27   3
M  END
>  <minimizedAffinity>  (1) 
-4.73349094

>  <minimizedRMSD>  (1) 
0.535080612

$$$$
