
     RDKit          3D

 40 42  0  0  1  0  0  0  0  0999 V2000
   36.4530   30.7600   49.0220 C   0  0  2  0  0  0  0  0  0  0  0  0
   37.4580   31.5880   49.7670 C   0  0  0  0  0  0  0  0  0  0  0  0
   38.3030   30.7720   50.7200 C   0  0  0  0  0  0  0  0  0  0  0  0
   37.4210   30.0130   51.7080 C   0  0  0  0  0  0  0  0  0  0  0  0
   36.1400   29.4950   51.1110 C   0  0  0  0  0  0  0  0  0  0  0  0
   36.3290   29.3830   49.5870 C   0  0  1  0  0  0  0  0  0  0  0  0
   36.8070   30.6560   47.5810 C   0  0  0  0  0  0  0  0  0  0  0  0
   38.1710   30.8210   47.2790 C   0  0  0  0  0  0  0  0  0  0  0  0
   38.5330   30.7240   45.9300 C   0  0  0  0  0  0  0  0  0  0  0  0
   37.5490   30.4750   44.9980 N   0  0  0  0  0  0  0  0  0  0  0  0
   36.2350   30.3210   45.3470 C   0  0  0  0  0  0  0  0  0  0  0  0
   35.8840   30.4150   46.6450 N   0  0  0  0  0  0  0  0  0  0  0  0
   34.0000   28.4630   49.1490 C   0  0  0  0  0  0  0  0  0  0  0  0
   33.2300   29.1670   49.9040 O   0  0  0  0  0  0  0  0  0  0  0  0
   35.3940   28.5500   48.9260 N   0  0  0  0  0  0  0  0  0  0  0  0
   33.1660   27.4530   48.4750 C   0  0  0  0  0  0  0  0  0  0  0  0
   31.7980   27.4250   48.5720 C   0  0  0  0  0  0  0  0  0  0  0  0
   30.9820   26.4890   47.9560 C   0  0  0  0  0  0  0  0  0  0  0  0
   31.5410   25.5140   47.1920 C   0  0  0  0  0  0  0  0  0  0  0  0
   32.9080   25.4930   47.0590 C   0  0  0  0  0  0  0  0  0  0  0  0
   33.6730   26.4440   47.6900 C   0  0  0  0  0  0  0  0  0  0  0  0
   35.4873   31.2751   49.1319 H   0  0  0  0  0  0  0  0  0  0  0  0
   38.1222   32.0741   49.0373 H   0  0  0  0  0  0  0  0  0  0  0  0
   36.9007   32.3228   50.3666 H   0  0  0  0  0  0  0  0  0  0  0  0
   38.9031   30.0518   50.1445 H   0  0  0  0  0  0  0  0  0  0  0  0
   38.9595   31.4525   51.2822 H   0  0  0  0  0  0  0  0  0  0  0  0
   37.9930   29.1572   52.0958 H   0  0  0  0  0  0  0  0  0  0  0  0
   37.1395   30.7261   52.4968 H   0  0  0  0  0  0  0  0  0  0  0  0
   35.9072   28.5053   51.5309 H   0  0  0  0  0  0  0  0  0  0  0  0
   35.3100   30.1792   51.3412 H   0  0  0  0  0  0  0  0  0  0  0  0
   37.2655   28.8393   49.3935 H   0  0  0  0  0  0  0  0  0  0  0  0
   38.9164   31.0166   48.0640 H   0  0  0  0  0  0  0  0  0  0  0  0
   39.5817   30.8441   45.6204 H   0  0  0  0  0  0  0  0  0  0  0  0
   35.4742   30.1229   44.5776 H   0  0  0  0  0  0  0  0  0  0  0  0
   35.7750   27.9330   48.1945 H   0  0  0  0  0  0  0  0  0  0  0  0
   31.3136   28.2012   49.1826 H   0  0  0  0  0  0  0  0  0  0  0  0
   29.8905   26.5351   48.0846 H   0  0  0  0  0  0  0  0  0  0  0  0
   30.9144   24.7604   46.6925 H   0  0  0  0  0  0  0  0  0  0  0  0
   33.3898   24.7155   46.4479 H   0  0  0  0  0  0  0  0  0  0  0  0
   34.7640   26.3951   47.5585 H   0  0  0  0  0  0  0  0  0  0  0  0
  1  6  1  0
  1  2  1  0
  2  3  1  0
  3  4  1  0
  5  4  1  0
  6  5  1  0
  7  1  1  0
  8  7  2  0
  9  8  1  0
 10 11  1  0
 10  9  2  0
 11 12  2  0
 12  7  1  0
 13 14  2  0
 15 13  1  0
 15  6  1  0
 16 17  2  0
 16 13  1  0
 18 17  1  0
 19 18  2  0
 20 19  1  0
 20 21  2  0
 21 16  1  0
  1 22  1  6
  2 23  1  0
  2 24  1  0
  3 25  1  0
  3 26  1  0
  4 27  1  0
  4 28  1  0
  5 29  1  0
  5 30  1  0
  6 31  1  1
  8 32  1  0
  9 33  1  0
 11 34  1  0
 15 35  1  0
 17 36  1  0
 18 37  1  0
 19 38  1  0
 20 39  1  0
 21 40  1  0
M  ISO  8  22  13  23  13  24  13  25  13  26  13  27  13  28  13  29  13
M  ISO  8  30  13  31  13  32  14  33  14  34  14  36  14  37  14  38  14
M  ISO  2  39  14  40  14
M  END
>  <minimizedAffinity>  (1) 
-6.29012537

>  <minimizedRMSD>  (1) 
0.509644508

$$$$
