
     RDKit          3D

 43 45  0  0  1  0  0  0  0  0999 V2000
   36.5370   30.8320   48.8720 C   0  0  2  0  0  0  0  0  0  0  0  0
   37.4520   31.5230   49.8340 C   0  0  0  0  0  0  0  0  0  0  0  0
   38.0820   30.5770   50.8310 C   0  0  0  0  0  0  0  0  0  0  0  0
   37.0190   29.7900   51.5890 C   0  0  0  0  0  0  0  0  0  0  0  0
   35.8080   29.4400   50.7640 C   0  0  0  0  0  0  0  0  0  0  0  0
   36.2260   29.4360   49.2820 C   0  0  1  0  0  0  0  0  0  0  0  0
   37.1120   30.8150   47.4990 C   0  0  0  0  0  0  0  0  0  0  0  0
   38.4960   31.0380   47.4200 C   0  0  0  0  0  0  0  0  0  0  0  0
   39.0540   31.0240   46.1370 C   0  0  0  0  0  0  0  0  0  0  0  0
   38.2380   30.7950   45.0540 N   0  0  0  0  0  0  0  0  0  0  0  0
   36.8890   30.5810   45.1920 C   0  0  0  0  0  0  0  0  0  0  0  0
   36.3450   30.5940   46.4220 N   0  0  0  0  0  0  0  0  0  0  0  0
   33.9900   28.4140   48.6590 C   0  0  0  0  0  0  0  0  0  0  0  0
   33.2140   28.6950   49.6150 O   0  0  0  0  0  0  0  0  0  0  0  0
   35.3510   28.7310   48.4190 N   0  0  0  0  0  0  0  0  0  0  0  0
   33.1260   27.6130   47.7440 C   0  0  0  0  0  0  0  0  0  0  0  0
   33.8170   26.4080   47.2070 C   0  0  0  0  0  0  0  0  0  0  0  0
   32.9510   25.2260   47.6310 C   0  0  0  0  0  0  0  0  0  0  0  0
   31.5730   25.8460   47.6260 C   0  0  0  0  0  0  0  0  0  0  0  0
   31.8550   27.1360   48.4070 C   0  0  0  0  0  0  0  0  0  0  0  0
   35.6016   31.4109   48.8768 H   0  0  0  0  0  0  0  0  0  0  0  0
   38.2530   32.0161   49.2637 H   0  0  0  0  0  0  0  0  0  0  0  0
   36.8482   32.2462   50.4018 H   0  0  0  0  0  0  0  0  0  0  0  0
   38.7357   29.8733   50.2949 H   0  0  0  0  0  0  0  0  0  0  0  0
   38.6615   31.1683   51.5553 H   0  0  0  0  0  0  0  0  0  0  0  0
   37.4730   28.8553   51.9500 H   0  0  0  0  0  0  0  0  0  0  0  0
   36.6693   30.4362   52.4076 H   0  0  0  0  0  0  0  0  0  0  0  0
   35.4368   28.4447   51.0497 H   0  0  0  0  0  0  0  0  0  0  0  0
   35.0060   30.1738   50.9326 H   0  0  0  0  0  0  0  0  0  0  0  0
   37.1433   28.8380   49.1771 H   0  0  0  0  0  0  0  0  0  0  0  0
   39.1077   31.2140   48.3171 H   0  0  0  0  0  0  0  0  0  0  0  0
   40.1316   31.1940   45.9964 H   0  0  0  0  0  0  0  0  0  0  0  0
   36.2606   30.4011   44.3073 H   0  0  0  0  0  0  0  0  0  0  0  0
   35.7457   28.4151   47.5216 H   0  0  0  0  0  0  0  0  0  0  0  0
   32.8872   28.3084   46.9259 H   0  0  0  0  0  0  0  0  0  0  0  0
   34.8263   26.3196   47.6353 H   0  0  0  0  0  0  0  0  0  0  0  0
   33.9383   26.4570   46.1148 H   0  0  0  0  0  0  0  0  0  0  0  0
   33.0215   24.3973   46.9110 H   0  0  0  0  0  0  0  0  0  0  0  0
   33.2395   24.7812   48.5948 H   0  0  0  0  0  0  0  0  0  0  0  0
   31.2241   26.0560   46.6042 H   0  0  0  0  0  0  0  0  0  0  0  0
   30.7798   25.2129   48.0503 H   0  0  0  0  0  0  0  0  0  0  0  0
   32.0108   26.9329   49.4768 H   0  0  0  0  0  0  0  0  0  0  0  0
   31.0328   27.8663   48.3817 H   0  0  0  0  0  0  0  0  0  0  0  0
  1  6  1  0
  1  2  1  0
  2  3  1  0
  3  4  1  0
  5  4  1  0
  6  5  1  0
  7  1  1  0
  8  7  2  0
  9  8  1  0
 10 11  1  0
 10  9  2  0
 11 12  2  0
 12  7  1  0
 13 14  2  0
 15 13  1  0
 15  6  1  0
 16 20  1  0
 16 13  1  0
 17 18  1  0
 17 16  1  0
 19 18  1  0
 19 20  1  0
  1 21  1  6
  2 22  1  0
  2 23  1  0
  3 24  1  0
  3 25  1  0
  4 26  1  0
  4 27  1  0
  5 28  1  0
  5 29  1  0
  6 30  1  1
  8 31  1  0
  9 32  1  0
 11 33  1  0
 15 34  1  0
 16 35  1  0
 17 36  1  0
 17 37  1  0
 18 38  1  0
 18 39  1  0
 19 40  1  0
 19 41  1  0
 20 42  1  0
 20 43  1  0
M  ISO  8  21  13  22  13  23  13  24  13  25  13  26  13  27  13  28  13
M  ISO  8  29  13  30  13  31  14  32  14  33  14  35  13  36  13  37  13
M  ISO  6  38  13  39  13  40  13  41  13  42  13  43  13
M  END
>  <minimizedAffinity>  (1) 
-6.06964064

>  <minimizedRMSD>  (1) 
1.05604672

$$$$
