
     RDKit          3D

 47 51  0  0  1  0  0  0  0  0999 V2000
   36.9600   31.3340   48.1350 C   0  0  1  0  0  0  0  0  0  0  0  0
   38.2560   31.5710   48.7950 C   0  0  0  0  0  0  0  0  0  0  0  0
   38.2670   30.6970   47.5920 C   0  0  2  0  0  0  0  0  0  0  0  0
   38.9810   31.3620   46.4700 C   0  0  0  0  0  0  0  0  0  0  0  0
   39.4460   32.6240   46.8650 C   0  0  0  0  0  0  0  0  0  0  0  0
   40.2120   33.3970   46.0190 C   0  0  0  0  0  0  0  0  0  0  0  0
   40.5460   32.9400   44.7390 C   0  0  0  0  0  0  0  0  0  0  0  0
   40.0730   31.6970   44.3840 C   0  0  0  0  0  0  0  0  0  0  0  0
   40.3170   31.1310   43.1460 C   0  0  0  0  0  0  0  0  0  0  0  0
   39.8380   29.8890   42.7700 C   0  0  0  0  0  0  0  0  0  0  0  0
   39.0770   29.1620   43.6620 C   0  0  0  0  0  0  0  0  0  0  0  0
   38.8310   29.7190   44.8950 C   0  0  0  0  0  0  0  0  0  0  0  0
   39.3180   30.9470   45.2330 C   0  0  0  0  0  0  0  0  0  0  0  0
   35.1150   29.1570   50.5970 C   0  0  0  0  0  0  0  0  0  0  0  0
   36.0290   30.1260   50.0720 C   0  0  0  0  0  0  0  0  0  0  0  0
   36.0250   30.3480   48.7140 C   0  0  0  0  0  0  0  0  0  0  0  0
   35.1350   29.6180   47.9480 N   0  0  0  0  0  0  0  0  0  0  0  0
   34.2940   28.7220   48.4660 C   0  0  0  0  0  0  0  0  0  0  0  0
   34.2650   28.4720   49.7920 N   0  0  0  0  0  0  0  0  0  0  0  0
   33.3940   27.9930   47.6450 N   0  0  0  0  0  0  0  0  0  0  0  0
   32.2660   27.2590   48.1850 C   0  0  0  0  0  0  0  0  0  0  0  0
   31.0320   27.9120   47.5990 C   0  0  0  0  0  0  0  0  0  0  0  0
   31.0320   27.8000   46.1690 N   0  0  0  0  0  0  0  0  0  0  0  0
   32.2530   27.2750   45.6450 C   0  0  0  0  0  0  0  0  0  0  0  0
   33.5030   27.9060   46.2020 C   0  0  0  0  0  0  0  0  0  0  0  0
   36.1646   32.0041   47.7769 H   0  0  0  0  0  0  0  0  0  0  0  0
   38.7151   32.5692   48.7425 H   0  0  0  0  0  0  0  0  0  0  0  0
   38.6157   31.4453   49.8269 H   0  0  0  0  0  0  0  0  0  0  0  0
   38.5298   29.6683   47.3043 H   0  0  0  0  0  0  0  0  0  0  0  0
   39.1955   33.0037   47.8665 H   0  0  0  0  0  0  0  0  0  0  0  0
   40.5646   34.3838   46.3535 H   0  0  0  0  0  0  0  0  0  0  0  0
   41.1560   33.5439   44.0511 H   0  0  0  0  0  0  0  0  0  0  0  0
   40.9229   31.6974   42.4234 H   0  0  0  0  0  0  0  0  0  0  0  0
   40.0613   29.4856   41.7713 H   0  0  0  0  0  0  0  0  0  0  0  0
   38.6807   28.1709   43.3961 H   0  0  0  0  0  0  0  0  0  0  0  0
   38.2272   29.1609   45.6257 H   0  0  0  0  0  0  0  0  0  0  0  0
   35.1018   28.9633   51.6797 H   0  0  0  0  0  0  0  0  0  0  0  0
   36.7136   30.6763   50.7342 H   0  0  0  0  0  0  0  0  0  0  0  0
   32.3185   26.2016   47.8865 H   0  0  0  0  0  0  0  0  0  0  0  0
   32.2547   27.2844   49.2846 H   0  0  0  0  0  0  0  0  0  0  0  0
   30.1357   27.4165   48.0004 H   0  0  0  0  0  0  0  0  0  0  0  0
   31.0318   28.9778   47.8711 H   0  0  0  0  0  0  0  0  0  0  0  0
   30.2611   27.1766   45.8896 H   0  0  0  0  0  0  0  0  0  0  0  0
   32.2854   26.1980   45.8666 H   0  0  0  0  0  0  0  0  0  0  0  0
   32.2481   27.4965   44.5676 H   0  0  0  0  0  0  0  0  0  0  0  0
   34.3751   27.2907   45.9359 H   0  0  0  0  0  0  0  0  0  0  0  0
   33.6259   28.9145   45.7804 H   0  0  0  0  0  0  0  0  0  0  0  0
  1 16  1  0
  1  2  1  0
  3  1  1  0
  3  2  1  0
  4  5  2  0
  4  3  1  0
  6  5  1  0
  7  6  2  0
  8  7  1  0
  8 13  2  0
  9  8  1  0
 10  9  2  0
 10 11  1  0
 11 12  2  0
 12 13  1  0
 13  4  1  0
 15 14  2  0
 16 15  1  0
 17 18  1  0
 17 16  2  0
 18 19  2  0
 19 14  1  0
 20 21  1  0
 20 18  1  0
 22 21  1  0
 23 22  1  0
 24 23  1  0
 24 25  1  0
 25 20  1  0
  1 26  1  6
  2 27  1  0
  2 28  1  0
  3 29  1  1
  5 30  1  0
  6 31  1  0
  7 32  1  0
  9 33  1  0
 10 34  1  0
 11 35  1  0
 12 36  1  0
 14 37  1  0
 15 38  1  0
 21 39  1  0
 21 40  1  0
 22 41  1  0
 22 42  1  0
 23 43  1  0
 24 44  1  0
 24 45  1  0
 25 46  1  0
 25 47  1  0
M  ISO  8  26  13  27  13  28  13  29  13  30  14  31  14  32  14  33  14
M  ISO  8  34  14  35  14  36  14  37  14  38  14  39  13  40  13  41  13
M  ISO  6  42  13  43   5  44  13  45  13  46  13  47  13
M  END
>  <minimizedAffinity>  (1) 
-7.27734804

>  <minimizedRMSD>  (1) 
4.95965576

$$$$
