
     RDKit          3D

 34 37  0  0  1  0  0  0  0  0999 V2000
   37.5950   32.0350   48.2240 C   0  0  1  0  0  0  0  0  0  0  0  0
   38.8150   32.8060   48.5230 C   0  0  0  0  0  0  0  0  0  0  0  0
   38.9790   31.6120   47.6580 C   0  0  2  0  0  0  0  0  0  0  0  0
   39.3410   32.0110   46.2750 C   0  0  0  0  0  0  0  0  0  0  0  0
   39.8020   33.3330   46.2540 C   0  0  0  0  0  0  0  0  0  0  0  0
   40.2750   33.8960   45.0880 C   0  0  0  0  0  0  0  0  0  0  0  0
   40.3090   33.1650   43.8960 C   0  0  0  0  0  0  0  0  0  0  0  0
   39.8510   31.8690   43.9480 C   0  0  0  0  0  0  0  0  0  0  0  0
   39.8080   31.0320   42.8570 C   0  0  0  0  0  0  0  0  0  0  0  0
   39.3410   29.7350   42.8830 C   0  0  0  0  0  0  0  0  0  0  0  0
   38.8820   29.2280   44.0840 C   0  0  0  0  0  0  0  0  0  0  0  0
   38.9130   30.0470   45.1900 C   0  0  0  0  0  0  0  0  0  0  0  0
   39.3880   31.3300   45.1100 C   0  0  0  0  0  0  0  0  0  0  0  0
   35.3420   29.6540   50.0860 C   0  0  0  0  0  0  0  0  0  0  0  0
   35.8290   30.5360   49.0840 C   0  0  0  0  0  0  0  0  0  0  0  0
   37.0740   31.1020   49.2440 C   0  0  0  0  0  0  0  0  0  0  0  0
   37.7500   30.7630   50.3730 N   0  0  0  0  0  0  0  0  0  0  0  0
   37.2900   29.9300   51.3190 C   0  0  0  0  0  0  0  0  0  0  0  0
   36.0710   29.3640   51.1800 N   0  0  0  0  0  0  0  0  0  0  0  0
   38.0220   29.6170   52.4520 O   0  0  0  0  0  0  0  0  0  0  0  0
   36.6023   32.3117   47.8394 H   0  0  0  0  0  0  0  0  0  0  0  0
   38.9403   33.8090   48.0890 H   0  0  0  0  0  0  0  0  0  0  0  0
   39.2926   33.1355   49.4575 H   0  0  0  0  0  0  0  0  0  0  0  0
   39.5184   30.6534   47.6469 H   0  0  0  0  0  0  0  0  0  0  0  0
   39.7865   33.9290   47.1784 H   0  0  0  0  0  0  0  0  0  0  0  0
   40.6314   34.9367   45.0951 H   0  0  0  0  0  0  0  0  0  0  0  0
   40.6844   33.6059   42.9608 H   0  0  0  0  0  0  0  0  0  0  0  0
   40.1718   31.4252   41.8963 H   0  0  0  0  0  0  0  0  0  0  0  0
   39.3339   29.1196   41.9713 H   0  0  0  0  0  0  0  0  0  0  0  0
   38.5022   28.1980   44.1542 H   0  0  0  0  0  0  0  0  0  0  0  0
   38.5500   29.6647   46.1554 H   0  0  0  0  0  0  0  0  0  0  0  0
   34.3481   29.1984   49.9652 H   0  0  0  0  0  0  0  0  0  0  0  0
   35.2216   30.7628   48.1954 H   0  0  0  0  0  0  0  0  0  0  0  0
   37.6478   28.9977   53.1277 H   0  0  0  0  0  0  0  0  0  0  0  0
  1  2  1  0
  1 16  1  0
  3  1  1  0
  3  2  1  0
  4  3  1  0
  5  4  2  0
  6  5  1  0
  7  8  1  0
  7  6  2  0
  8 13  2  0
  9 10  2  0
  9  8  1  0
 10 11  1  0
 11 12  2  0
 13 12  1  0
 13  4  1  0
 14 19  2  0
 15 16  2  0
 15 14  1  0
 16 17  1  0
 17 18  2  0
 18 20  1  0
 19 18  1  0
  1 21  1  6
  2 22  1  0
  2 23  1  0
  3 24  1  1
  5 25  1  0
  6 26  1  0
  7 27  1  0
  9 28  1  0
 10 29  1  0
 11 30  1  0
 12 31  1  0
 14 32  1  0
 15 33  1  0
 20 34  1  0
M  ISO  8  21  13  22  13  23  13  24  13  25  14  26  14  27  14  28  14
M  ISO  6  29  14  30  14  31  14  32  14  33  14  34   3
M  END
>  <minimizedAffinity>  (1) 
-6.61281204

>  <minimizedRMSD>  (1) 
0.28883332

$$$$
