
     RDKit          3D

 40 43  0  0  1  0  0  0  0  0999 V2000
   36.7620   30.9630   45.9410 C   0  0  1  0  0  0  0  0  0  0  0  0
   37.9640   31.6890   46.3890 C   0  0  0  0  0  0  0  0  0  0  0  0
   38.1880   30.3810   45.7200 C   0  0  2  0  0  0  0  0  0  0  0  0
   38.8390   30.5800   44.3980 C   0  0  0  0  0  0  0  0  0  0  0  0
   39.1030   31.9380   44.1800 C   0  0  0  0  0  0  0  0  0  0  0  0
   39.7780   32.3600   43.0540 C   0  0  0  0  0  0  0  0  0  0  0  0
   40.2200   31.4400   42.0970 C   0  0  0  0  0  0  0  0  0  0  0  0
   39.9500   30.1120   42.3340 C   0  0  0  0  0  0  0  0  0  0  0  0
   40.3090   29.1010   41.4730 C   0  0  0  0  0  0  0  0  0  0  0  0
   40.0250   27.7670   41.7000 C   0  0  0  0  0  0  0  0  0  0  0  0
   39.3500   27.4050   42.8420 C   0  0  0  0  0  0  0  0  0  0  0  0
   38.9840   28.4050   43.7150 C   0  0  0  0  0  0  0  0  0  0  0  0
   39.2810   29.7200   43.4550 C   0  0  0  0  0  0  0  0  0  0  0  0
   33.9870   28.9880   47.5490 C   0  0  0  0  0  0  0  0  0  0  0  0
   34.7400   29.7060   46.5650 C   0  0  0  0  0  0  0  0  0  0  0  0
   35.9720   30.2080   46.9340 C   0  0  0  0  0  0  0  0  0  0  0  0
   36.3960   29.9850   48.2290 N   0  0  0  0  0  0  0  0  0  0  0  0
   35.6700   29.3100   49.1200 C   0  0  0  0  0  0  0  0  0  0  0  0
   34.4620   28.8020   48.8060 N   0  0  0  0  0  0  0  0  0  0  0  0
   38.3560   29.6770   49.9470 N   0  0  0  0  0  0  0  0  0  0  0  0
   37.4200   29.6080   50.8620 C   0  0  0  0  0  0  0  0  0  0  0  0
   36.1640   29.1070   50.4500 N   0  0  0  0  0  0  0  0  0  0  0  0
   37.6010   30.0040   52.2370 N   0  0  0  0  0  0  0  0  0  0  0  0
   39.2770   30.0580   50.3050 H   0  0  0  0  0  0  0  0  0  0  0  0
   35.8907   31.2490   45.3336 H   0  0  0  0  0  0  0  0  0  0  0  0
   38.2581   32.6161   45.8751 H   0  0  0  0  0  0  0  0  0  0  0  0
   38.2786   32.1086   47.3559 H   0  0  0  0  0  0  0  0  0  0  0  0
   38.6339   29.3977   45.9303 H   0  0  0  0  0  0  0  0  0  0  0  0
   38.7664   32.6801   44.9190 H   0  0  0  0  0  0  0  0  0  0  0  0
   39.9713   33.4328   42.9064 H   0  0  0  0  0  0  0  0  0  0  0  0
   40.7596   31.7642   41.1949 H   0  0  0  0  0  0  0  0  0  0  0  0
   40.8514   29.3683   40.5541 H   0  0  0  0  0  0  0  0  0  0  0  0
   40.3363   27.0020   40.9734 H   0  0  0  0  0  0  0  0  0  0  0  0
   39.1105   26.3520   43.0511 H   0  0  0  0  0  0  0  0  0  0  0  0
   38.4439   28.1456   44.6375 H   0  0  0  0  0  0  0  0  0  0  0  0
   33.0022   28.5785   47.2798 H   0  0  0  0  0  0  0  0  0  0  0  0
   34.3491   29.8529   45.5473 H   0  0  0  0  0  0  0  0  0  0  0  0
   35.5884   28.5820   51.1237 H   0  0  0  0  0  0  0  0  0  0  0  0
   36.8199   29.9225   52.9035 H   0  0  0  0  0  0  0  0  0  0  0  0
   38.5113   30.3683   52.5525 H   0  0  0  0  0  0  0  0  0  0  0  0
  1  2  1  0
  1 16  1  0
  3  1  1  0
  3  2  1  0
  4  3  1  0
  5  4  2  0
  6  5  1  0
  7  8  1  0
  7  6  2  0
  8 13  2  0
  9 10  2  0
  9  8  1  0
 10 11  1  0
 11 12  2  0
 13 12  1  0
 13  4  1  0
 14 19  2  0
 15 16  2  0
 15 14  1  0
 16 17  1  0
 17 18  2  0
 18 22  1  0
 19 18  1  0
 20 24  1  0
 20 21  2  0
 21 23  1  0
 22 21  1  0
  1 25  1  6
  2 26  1  0
  2 27  1  0
  3 28  1  1
  5 29  1  0
  6 30  1  0
  7 31  1  0
  9 32  1  0
 10 33  1  0
 11 34  1  0
 12 35  1  0
 14 36  1  0
 15 37  1  0
 22 38  1  0
 23 39  1  0
 23 40  1  0
M  ISO  8  25  13  26  13  27  13  28  13  29  14  30  14  31  14  32  14
M  ISO  5  33  14  34  14  35  14  36  14  37  14
M  END
>  <minimizedAffinity>  (1) 
-6.21860504

>  <minimizedRMSD>  (1) 
2.80004168

$$$$
