
     RDKit          3D

 36 39  0  0  1  0  0  0  0  0999 V2000
   37.4880   32.0040   48.1070 C   0  0  1  0  0  0  0  0  0  0  0  0
   38.7430   32.6680   48.4930 C   0  0  0  0  0  0  0  0  0  0  0  0
   38.8580   31.5040   47.5720 C   0  0  2  0  0  0  0  0  0  0  0  0
   39.3120   31.9470   46.2290 C   0  0  0  0  0  0  0  0  0  0  0  0
   39.7690   33.2680   46.2830 C   0  0  0  0  0  0  0  0  0  0  0  0
   40.3240   33.8750   45.1730 C   0  0  0  0  0  0  0  0  0  0  0  0
   40.4440   33.1830   43.9670 C   0  0  0  0  0  0  0  0  0  0  0  0
   39.9840   31.8860   43.9470 C   0  0  0  0  0  0  0  0  0  0  0  0
   40.0250   31.0900   42.8180 C   0  0  0  0  0  0  0  0  0  0  0  0
   39.5550   29.7890   42.7790 C   0  0  0  0  0  0  0  0  0  0  0  0
   39.0120   29.2400   43.9260 C   0  0  0  0  0  0  0  0  0  0  0  0
   38.9670   30.0240   45.0490 C   0  0  0  0  0  0  0  0  0  0  0  0
   39.4410   31.3050   45.0510 C   0  0  0  0  0  0  0  0  0  0  0  0
   35.0680   29.5740   49.6760 C   0  0  0  0  0  0  0  0  0  0  0  0
   35.6570   30.4690   48.7380 C   0  0  0  0  0  0  0  0  0  0  0  0
   36.8580   31.0610   49.0550 C   0  0  0  0  0  0  0  0  0  0  0  0
   37.4010   30.7380   50.2650 N   0  0  0  0  0  0  0  0  0  0  0  0
   36.8390   29.8930   51.1450 C   0  0  0  0  0  0  0  0  0  0  0  0
   35.6560   29.3000   50.8500 N   0  0  0  0  0  0  0  0  0  0  0  0
   37.5440   29.6230   52.4420 C   0  0  0  0  0  0  0  0  0  0  0  0
   36.5355   32.3742   47.6999 H   0  0  0  0  0  0  0  0  0  0  0  0
   38.9579   33.6788   48.1162 H   0  0  0  0  0  0  0  0  0  0  0  0
   39.2022   32.9166   49.4612 H   0  0  0  0  0  0  0  0  0  0  0  0
   39.3224   30.5077   47.5302 H   0  0  0  0  0  0  0  0  0  0  0  0
   39.6852   33.8321   47.2236 H   0  0  0  0  0  0  0  0  0  0  0  0
   40.6752   34.9152   45.2405 H   0  0  0  0  0  0  0  0  0  0  0  0
   40.8852   33.6518   43.0750 H   0  0  0  0  0  0  0  0  0  0  0  0
   40.4553   31.5143   41.8989 H   0  0  0  0  0  0  0  0  0  0  0  0
   39.6124   29.2014   41.8509 H   0  0  0  0  0  0  0  0  0  0  0  0
   38.6291   28.2088   43.9367 H   0  0  0  0  0  0  0  0  0  0  0  0
   38.5377   29.6106   45.9736 H   0  0  0  0  0  0  0  0  0  0  0  0
   34.1079   29.0959   49.4319 H   0  0  0  0  0  0  0  0  0  0  0  0
   35.1618   30.6828   47.7793 H   0  0  0  0  0  0  0  0  0  0  0  0
   36.8792   29.8776   53.2806 H   0  0  0  0  0  0  0  0  0  0  0  0
   37.8135   28.5580   52.4980 H   0  0  0  0  0  0  0  0  0  0  0  0
   38.4560   30.2355   52.4980 H   0  0  0  0  0  0  0  0  0  0  0  0
  1  2  1  0
  1 16  1  0
  3  1  1  0
  3  2  1  0
  4  5  2  0
  4  3  1  0
  6  5  1  0
  7  6  2  0
  8  7  1  0
  8 13  2  0
  9  8  1  0
 10  9  2  0
 10 11  1  0
 11 12  2  0
 12 13  1  0
 13  4  1  0
 14 19  2  0
 15 16  2  0
 15 14  1  0
 16 17  1  0
 17 18  2  0
 18 20  1  0
 19 18  1  0
  1 21  1  6
  2 22  1  0
  2 23  1  0
  3 24  1  1
  5 25  1  0
  6 26  1  0
  7 27  1  0
  9 28  1  0
 10 29  1  0
 11 30  1  0
 12 31  1  0
 14 32  1  0
 15 33  1  0
 20 34  1  0
 20 35  1  0
 20 36  1  0
M  ISO  8  21  13  22  13  23  13  24  13  25  14  26  14  27  14  28  14
M  ISO  8  29  14  30  14  31  14  32  14  33  14  34   8  35   8  36   8
M  END
>  <minimizedAffinity>  (1) 
-6.15056372

>  <minimizedRMSD>  (1) 
0.433272898

$$$$
