
     RDKit          3D

 35 36  0  0  0  0  0  0  0  0999 V2000
   36.1810   30.2860   46.1200 C   0  0  0  0  0  0  0  0  0  0  0  0
   35.2060   30.3730   47.0110 C   0  0  0  0  0  0  0  0  0  0  0  0
   34.8970   29.3130   48.0040 C   0  0  0  0  0  0  0  0  0  0  0  0
   35.3590   29.6120   49.3420 N   0  0  0  0  0  0  0  0  0  0  0  0
   36.4100   28.7970   49.8070 C   0  0  0  0  0  0  0  0  0  0  0  0
   37.6250   29.4440   50.3510 C   0  0  0  0  0  0  0  0  0  0  0  0
   37.3870   30.8240   50.9130 C   0  0  0  0  0  0  0  0  0  0  0  0
   36.5160   31.6590   50.0100 C   0  0  0  0  0  0  0  0  0  0  0  0
   35.2370   30.9350   49.7810 C   0  0  0  0  0  0  0  0  0  0  0  0
   37.1190   31.0520   46.7940 O   0  0  0  0  0  0  0  0  0  0  0  0
   37.9790   31.8210   46.0240 C   0  0  0  0  0  0  0  0  0  0  0  0
   39.0620   32.2880   46.7750 C   0  0  0  0  0  0  0  0  0  0  0  0
   40.0040   33.0810   46.1040 C   0  0  0  0  0  0  0  0  0  0  0  0
   39.8100   33.3460   44.7730 N   0  0  0  0  0  0  0  0  0  0  0  0
   38.7390   32.8640   44.0960 C   0  0  0  0  0  0  0  0  0  0  0  0
   37.8460   32.1190   44.7170 N   0  0  0  0  0  0  0  0  0  0  0  0
   35.9016   30.7251   45.1509 H   0  0  0  0  0  0  0  0  0  0  0  0
   36.4946   29.2690   45.8417 H   0  0  0  0  0  0  0  0  0  0  0  0
   35.4165   31.2797   47.5971 H   0  0  0  0  0  0  0  0  0  0  0  0
   34.3204   30.3180   46.3609 H   0  0  0  0  0  0  0  0  0  0  0  0
   33.8060   29.1760   48.0366 H   0  0  0  0  0  0  0  0  0  0  0  0
   35.4264   28.4055   47.6782 H   0  0  0  0  0  0  0  0  0  0  0  0
   35.9978   28.1607   50.6040 H   0  0  0  0  0  0  0  0  0  0  0  0
   36.7653   28.2790   48.9040 H   0  0  0  0  0  0  0  0  0  0  0  0
   38.0253   28.8079   51.1542 H   0  0  0  0  0  0  0  0  0  0  0  0
   38.3267   29.5591   49.5118 H   0  0  0  0  0  0  0  0  0  0  0  0
   36.8949   30.7287   51.8922 H   0  0  0  0  0  0  0  0  0  0  0  0
   38.3614   31.3262   51.0045 H   0  0  0  0  0  0  0  0  0  0  0  0
   36.3122   32.6296   50.4858 H   0  0  0  0  0  0  0  0  0  0  0  0
   37.0264   31.8321   49.0511 H   0  0  0  0  0  0  0  0  0  0  0  0
   34.6648   31.4910   49.0237 H   0  0  0  0  0  0  0  0  0  0  0  0
   34.7431   30.8810   50.7624 H   0  0  0  0  0  0  0  0  0  0  0  0
   39.1700   32.0447   47.8423 H   0  0  0  0  0  0  0  0  0  0  0  0
   40.8802   33.4820   46.6345 H   0  0  0  0  0  0  0  0  0  0  0  0
   38.6149   33.0947   43.0276 H   0  0  0  0  0  0  0  0  0  0  0  0
  1 10  1  0
  1  2  1  0
  2  3  1  0
  3  4  1  0
  4  9  1  0
  4  5  1  0
  5  6  1  0
  6  7  1  0
  8  7  1  0
  9  8  1  0
 11 12  2  0
 11 10  1  0
 13 12  1  0
 14 13  2  0
 15 16  2  0
 15 14  1  0
 16 11  1  0
  1 17  1  0
  1 18  1  0
  2 19  1  0
  2 20  1  0
  3 21  1  0
  3 22  1  0
  5 23  1  0
  5 24  1  0
  6 25  1  0
  6 26  1  0
  7 27  1  0
  7 28  1  0
  8 29  1  0
  8 30  1  0
  9 31  1  0
  9 32  1  0
 12 33  1  0
 13 34  1  0
 15 35  1  0
M  ISO  8  17   8  18   8  19   8  20   8  21   8  22   8  23  13  24  13
M  ISO  8  25  13  26  13  27  13  28  13  29  13  30  13  31  13  32  13
M  ISO  3  33  14  34  14  35  14
M  END
>  <minimizedAffinity>  (1) 
-4.39873171

>  <minimizedRMSD>  (1) 
3.94056821

$$$$
