
     RDKit          3D

 32 33  0  0  0  0  0  0  0  0999 V2000
   37.0140   29.6090   51.1620 C   0  0  0  0  0  0  0  0  0  0  0  0
   35.7450   29.5490   50.7570 C   0  0  0  0  0  0  0  0  0  0  0  0
   35.2460   28.4690   49.8330 C   0  0  0  0  0  0  0  0  0  0  0  0
   34.4270   28.8720   48.7920 N   0  0  0  0  0  0  0  0  0  0  0  0
   33.8960   27.9820   47.8530 C   0  0  0  0  0  0  0  0  0  0  0  0
   34.1320   28.6720   46.5280 C   0  0  0  0  0  0  0  0  0  0  0  0
   33.8240   30.1290   46.9070 C   0  0  0  0  0  0  0  0  0  0  0  0
   34.4600   30.1910   48.3070 C   0  0  0  0  0  0  0  0  0  0  0  0
   37.6150   29.5460   49.9300 O   0  0  0  0  0  0  0  0  0  0  0  0
   38.0230   30.7290   49.3410 C   0  0  0  0  0  0  0  0  0  0  0  0
   38.0270   30.6630   47.9500 C   0  0  0  0  0  0  0  0  0  0  0  0
   38.4170   31.7860   47.2360 C   0  0  0  0  0  0  0  0  0  0  0  0
   38.7800   32.9060   47.9560 N   0  0  0  0  0  0  0  0  0  0  0  0
   38.7680   32.9430   49.3060 C   0  0  0  0  0  0  0  0  0  0  0  0
   38.3870   31.8480   49.9730 N   0  0  0  0  0  0  0  0  0  0  0  0
   37.2391   30.5491   51.6870 H   0  0  0  0  0  0  0  0  0  0  0  0
   37.3240   28.8432   51.8883 H   0  0  0  0  0  0  0  0  0  0  0  0
   35.1349   29.4778   51.6696 H   0  0  0  0  0  0  0  0  0  0  0  0
   35.6649   30.4453   50.1244 H   0  0  0  0  0  0  0  0  0  0  0  0
   36.1245   27.9738   49.3937 H   0  0  0  0  0  0  0  0  0  0  0  0
   34.6184   27.8187   50.4601 H   0  0  0  0  0  0  0  0  0  0  0  0
   34.4192   27.0151   47.8900 H   0  0  0  0  0  0  0  0  0  0  0  0
   32.8342   27.7577   48.0326 H   0  0  0  0  0  0  0  0  0  0  0  0
   33.4473   28.3019   45.7506 H   0  0  0  0  0  0  0  0  0  0  0  0
   35.1337   28.5129   46.1023 H   0  0  0  0  0  0  0  0  0  0  0  0
   34.2981   30.8387   46.2131 H   0  0  0  0  0  0  0  0  0  0  0  0
   32.7577   30.3971   46.8741 H   0  0  0  0  0  0  0  0  0  0  0  0
   35.4973   30.5513   48.2426 H   0  0  0  0  0  0  0  0  0  0  0  0
   33.9213   30.8838   48.9702 H   0  0  0  0  0  0  0  0  0  0  0  0
   37.7277   29.7413   47.4296 H   0  0  0  0  0  0  0  0  0  0  0  0
   38.4363   31.7842   46.1362 H   0  0  0  0  0  0  0  0  0  0  0  0
   39.0653   33.8543   49.8456 H   0  0  0  0  0  0  0  0  0  0  0  0
  2  1  1  0
  3  2  1  0
  4  3  1  0
  5  4  1  0
  6  7  1  0
  6  5  1  0
  7  8  1  0
  8  4  1  0
  9  1  1  0
 10  9  1  0
 10 15  1  0
 11 10  2  0
 12 11  1  0
 12 13  2  0
 13 14  1  0
 14 15  2  0
  1 16  1  0
  1 17  1  0
  2 18  1  0
  2 19  1  0
  3 20  1  0
  3 21  1  0
  5 22  1  0
  5 23  1  0
  6 24  1  0
  6 25  1  0
  7 26  1  0
  7 27  1  0
  8 28  1  0
  8 29  1  0
 11 30  1  0
 12 31  1  0
 14 32  1  0
M  ISO  8  16   8  17   8  18   8  19   8  20   8  21   8  22  13  23  13
M  ISO  8  24  13  25  13  26  13  27  13  28  13  29  13  30  14  31  14
M  ISO  1  32  14
M  END
>  <minimizedAffinity>  (1) 
-4.27766085

>  <minimizedRMSD>  (1) 
4.83013582

$$$$
