
     RDKit          3D

 43 46  0  0  1  0  0  0  0  0999 V2000
   37.4480   32.0080   48.2570 C   0  0  1  0  0  0  0  0  0  0  0  0
   38.7250   32.6480   48.6660 C   0  0  0  0  0  0  0  0  0  0  0  0
   38.8850   31.5170   47.7730 C   0  0  2  0  0  0  0  0  0  0  0  0
   39.3140   31.9600   46.4060 C   0  0  0  0  0  0  0  0  0  0  0  0
   39.7780   33.2800   46.4540 C   0  0  0  0  0  0  0  0  0  0  0  0
   40.3190   33.8590   45.3330 C   0  0  0  0  0  0  0  0  0  0  0  0
   40.4200   33.1580   44.1250 C   0  0  0  0  0  0  0  0  0  0  0  0
   39.9510   31.8530   44.1130 C   0  0  0  0  0  0  0  0  0  0  0  0
   39.9760   31.0640   42.9960 C   0  0  0  0  0  0  0  0  0  0  0  0
   39.4990   29.7780   42.9700 C   0  0  0  0  0  0  0  0  0  0  0  0
   38.9660   29.2400   44.1190 C   0  0  0  0  0  0  0  0  0  0  0  0
   38.9390   30.0280   45.2480 C   0  0  0  0  0  0  0  0  0  0  0  0
   39.4280   31.3230   45.2360 C   0  0  0  0  0  0  0  0  0  0  0  0
   34.9610   29.7780   50.0090 C   0  0  0  0  0  0  0  0  0  0  0  0
   35.5250   30.6900   49.0690 C   0  0  0  0  0  0  0  0  0  0  0  0
   36.8340   31.0500   49.2110 C   0  0  0  0  0  0  0  0  0  0  0  0
   37.5180   30.4890   50.2730 N   0  0  0  0  0  0  0  0  0  0  0  0
   36.9780   29.6360   51.1460 C   0  0  0  0  0  0  0  0  0  0  0  0
   35.6980   29.2630   51.0370 N   0  0  0  0  0  0  0  0  0  0  0  0
   37.8540   29.1090   52.2480 C   0  0  0  0  0  0  0  0  0  0  0  0
   38.4900   27.8030   51.7260 C   0  0  0  0  0  0  0  0  0  0  0  0
   39.7500   25.9060   52.6360 C   0  0  0  0  0  0  0  0  0  0  0  0
   39.7070   25.3710   51.5050 O   0  0  0  0  0  0  0  0  0  0  0  0
   39.1410   27.1840   52.8620 N   0  0  0  0  0  0  0  0  0  0  0  0
   36.5041   32.3740   47.8269 H   0  0  0  0  0  0  0  0  0  0  0  0
   38.9584   33.6572   48.2957 H   0  0  0  0  0  0  0  0  0  0  0  0
   39.1555   32.8833   49.6505 H   0  0  0  0  0  0  0  0  0  0  0  0
   39.3961   30.5429   47.7673 H   0  0  0  0  0  0  0  0  0  0  0  0
   39.7091   33.8534   47.3902 H   0  0  0  0  0  0  0  0  0  0  0  0
   40.6811   34.8964   45.3848 H   0  0  0  0  0  0  0  0  0  0  0  0
   40.8520   33.6217   43.2259 H   0  0  0  0  0  0  0  0  0  0  0  0
   40.4003   31.4820   42.0712 H   0  0  0  0  0  0  0  0  0  0  0  0
   39.5420   29.1855   42.0442 H   0  0  0  0  0  0  0  0  0  0  0  0
   38.5737   28.2125   44.1351 H   0  0  0  0  0  0  0  0  0  0  0  0
   38.5198   29.6196   46.1794 H   0  0  0  0  0  0  0  0  0  0  0  0
   33.9068   29.4821   49.9036 H   0  0  0  0  0  0  0  0  0  0  0  0
   34.9176   31.0951   48.2462 H   0  0  0  0  0  0  0  0  0  0  0  0
   38.6381   29.8411   52.4914 H   0  0  0  0  0  0  0  0  0  0  0  0
   37.2708   28.9260   53.1625 H   0  0  0  0  0  0  0  0  0  0  0  0
   37.7137   27.1364   51.3224 H   0  0  0  0  0  0  0  0  0  0  0  0
   39.2065   28.0038   50.9159 H   0  0  0  0  0  0  0  0  0  0  0  0
   40.2596   25.3909   53.4637 H   0  0  0  0  0  0  0  0  0  0  0  0
   39.1652   27.6390   53.7857 H   0  0  0  0  0  0  0  0  0  0  0  0
  1  2  1  0
  1 16  1  0
  3  1  1  0
  3  2  1  0
  4  5  2  0
  4  3  1  0
  6  5  1  0
  7  6  2  0
  8  7  1  0
  8 13  2  0
  9  8  1  0
 10  9  2  0
 10 11  1  0
 11 12  2  0
 13 12  1  0
 13  4  1  0
 14 19  2  0
 15 16  2  0
 15 14  1  0
 16 17  1  0
 17 18  2  0
 18 20  1  0
 19 18  1  0
 21 20  1  0
 21 24  1  0
 22 24  1  0
 23 22  2  0
  1 25  1  6
  2 26  1  0
  2 27  1  0
  3 28  1  1
  5 29  1  0
  6 30  1  0
  7 31  1  0
  9 32  1  0
 10 33  1  0
 11 34  1  0
 12 35  1  0
 14 36  1  0
 15 37  1  0
 20 38  1  0
 20 39  1  0
 21 40  1  0
 21 41  1  0
 22 42  1  0
 24 43  1  0
M  ISO  8  25  13  26  13  27  13  28  13  29  14  30  14  31  14  32  14
M  ISO  8  33  14  34  14  35  14  36  14  37  14  38   8  39   8  40   8
M  ISO  2  41   8  42   6
M  END
>  <minimizedAffinity>  (1) 
-5.8630867

>  <minimizedRMSD>  (1) 
1.70617747

$$$$
