
     RDKit          3D

 40 43  0  0  1  0  0  0  0  0999 V2000
   36.8750   31.2940   47.2890 C   0  0  1  0  0  0  0  0  0  0  0  0
   38.0080   31.9750   47.9710 C   0  0  0  0  0  0  0  0  0  0  0  0
   38.4000   30.8640   47.1300 C   0  0  2  0  0  0  0  0  0  0  0  0
   39.0970   31.3330   45.8870 C   0  0  0  0  0  0  0  0  0  0  0  0
   39.5990   32.6290   46.0830 C   0  0  0  0  0  0  0  0  0  0  0  0
   40.3710   33.2180   45.1140 C   0  0  0  0  0  0  0  0  0  0  0  0
   40.6760   32.5540   43.9180 C   0  0  0  0  0  0  0  0  0  0  0  0
   40.1640   31.2740   43.7600 C   0  0  0  0  0  0  0  0  0  0  0  0
   40.3750   30.5240   42.6360 C   0  0  0  0  0  0  0  0  0  0  0  0
   39.8640   29.2620   42.4580 C   0  0  0  0  0  0  0  0  0  0  0  0
   39.0900   28.7150   43.4680 C   0  0  0  0  0  0  0  0  0  0  0  0
   38.8740   29.4640   44.6000 C   0  0  0  0  0  0  0  0  0  0  0  0
   39.4090   30.7310   44.7380 C   0  0  0  0  0  0  0  0  0  0  0  0
   34.4420   28.5800   48.2660 C   0  0  0  0  0  0  0  0  0  0  0  0
   35.1750   29.5170   47.4710 C   0  0  0  0  0  0  0  0  0  0  0  0
   36.1030   30.3040   48.0860 C   0  0  0  0  0  0  0  0  0  0  0  0
   36.2610   30.1290   49.4470 N   0  0  0  0  0  0  0  0  0  0  0  0
   35.5700   29.2510   50.1780 C   0  0  0  0  0  0  0  0  0  0  0  0
   34.6470   28.4600   49.5950 N   0  0  0  0  0  0  0  0  0  0  0  0
   35.8640   29.1700   51.6430 C   0  0  0  0  0  0  0  0  0  0  0  0
   37.1770   29.9440   51.8850 C   0  0  0  0  0  0  0  0  0  0  0  0
   38.1410   29.0990   52.3780 O   0  0  0  0  0  0  0  0  0  0  0  0
   36.0348   31.6286   46.6628 H   0  0  0  0  0  0  0  0  0  0  0  0
   38.2782   32.9966   47.6656 H   0  0  0  0  0  0  0  0  0  0  0  0
   38.2046   32.2128   49.0269 H   0  0  0  0  0  0  0  0  0  0  0  0
   38.9392   29.9109   47.2342 H   0  0  0  0  0  0  0  0  0  0  0  0
   39.3736   33.1719   47.0128 H   0  0  0  0  0  0  0  0  0  0  0  0
   40.7592   34.2338   45.2793 H   0  0  0  0  0  0  0  0  0  0  0  0
   41.2934   33.0262   43.1397 H   0  0  0  0  0  0  0  0  0  0  0  0
   40.9875   30.9553   41.8305 H   0  0  0  0  0  0  0  0  0  0  0  0
   40.0647   28.6986   41.5348 H   0  0  0  0  0  0  0  0  0  0  0  0
   38.6596   27.7078   43.3668 H   0  0  0  0  0  0  0  0  0  0  0  0
   38.2624   29.0463   45.4133 H   0  0  0  0  0  0  0  0  0  0  0  0
   33.6906   27.9396   47.7809 H   0  0  0  0  0  0  0  0  0  0  0  0
   34.9941   29.6004   46.3892 H   0  0  0  0  0  0  0  0  0  0  0  0
   35.0451   29.6268   52.2181 H   0  0  0  0  0  0  0  0  0  0  0  0
   35.9612   28.1229   51.9658 H   0  0  0  0  0  0  0  0  0  0  0  0
   37.5242   30.3767   50.9352 H   0  0  0  0  0  0  0  0  0  0  0  0
   36.9926   30.7444   52.6167 H   0  0  0  0  0  0  0  0  0  0  0  0
   38.1207   29.1168   53.3676 H   0  0  0  0  0  0  0  0  0  0  0  0
  1  2  1  0
  1 16  1  0
  3  1  1  0
  3  2  1  0
  4  5  2  0
  4  3  1  0
  6  5  1  0
  7  6  2  0
  8  7  1  0
  8 13  2  0
  9  8  1  0
 10  9  2  0
 10 11  1  0
 11 12  2  0
 12 13  1  0
 13  4  1  0
 14 19  2  0
 15 16  2  0
 15 14  1  0
 16 17  1  0
 17 18  2  0
 18 20  1  0
 19 18  1  0
 20 21  1  0
 21 22  1  0
  1 23  1  6
  2 24  1  0
  2 25  1  0
  3 26  1  1
  5 27  1  0
  6 28  1  0
  7 29  1  0
  9 30  1  0
 10 31  1  0
 11 32  1  0
 12 33  1  0
 14 34  1  0
 15 35  1  0
 20 36  1  0
 20 37  1  0
 21 38  1  0
 21 39  1  0
 22 40  1  0
M  ISO  8  23  13  24  13  25  13  26  13  27  14  28  14  29  14  30  14
M  ISO  8  31  14  32  14  33  14  34  14  35  14  36   8  37   8  38   8
M  ISO  2  39   8  40   3
M  END
>  <minimizedAffinity>  (1) 
-5.79330778

>  <minimizedRMSD>  (1) 
0.289867789

$$$$
