
     RDKit          3D

 37 39  0  0  1  0  0  0  0  0999 V2000
   37.4020   31.4110   48.3170 C   0  0  0  0  0  0  0  0  0  0  0  0
   37.2390   32.1090   49.5260 C   0  0  0  0  0  0  0  0  0  0  0  0
   38.0570   33.2160   49.8410 C   0  0  0  0  0  0  0  0  0  0  0  0
   39.0490   33.6180   48.9170 C   0  0  0  0  0  0  0  0  0  0  0  0
   39.1750   32.8950   47.7280 C   0  0  0  0  0  0  0  0  0  0  0  0
   38.3650   31.8270   47.4570 C   0  0  0  0  0  0  0  0  0  0  0  0
   38.6870   31.2630   46.1570 C   0  0  0  0  0  0  0  0  0  0  0  0
   38.3070   32.3210   45.1340 C   0  0  0  0  0  0  0  0  0  0  0  0
   39.2420   31.9120   43.9940 C   0  0  0  0  0  0  0  0  0  0  0  0
   40.5490   31.8470   44.7500 C   0  0  0  0  0  0  0  0  0  0  0  0
   40.2180   31.1260   46.0050 C   0  0  0  0  0  0  0  0  0  0  0  0
   36.5320   30.2920   48.0670 C   0  0  0  0  0  0  0  0  0  0  0  0
   36.7530   29.2800   48.8350 O   0  0  0  0  0  0  0  0  0  0  0  0
   33.1490   30.3610   46.7680 C   0  0  0  0  0  0  0  0  0  0  0  0
   33.3030   30.1600   45.4060 C   0  0  0  0  0  0  0  0  0  0  0  0
   34.5800   29.9870   44.9160 C   0  0  0  0  0  0  0  0  0  0  0  0
   35.6730   30.0110   45.7530 N   0  0  0  0  0  0  0  0  0  0  0  0
   35.4750   30.2100   47.0660 C   0  0  0  0  0  0  0  0  0  0  0  0
   34.2410   30.3740   47.5160 N   0  0  0  0  0  0  0  0  0  0  0  0
   36.4632   31.7884   50.2369 H   0  0  0  0  0  0  0  0  0  0  0  0
   37.9247   33.7568   50.7897 H   0  0  0  0  0  0  0  0  0  0  0  0
   39.7036   34.4764   49.1285 H   0  0  0  0  0  0  0  0  0  0  0  0
   39.9407   33.1906   46.9956 H   0  0  0  0  0  0  0  0  0  0  0  0
   38.1810   30.2937   46.0371 H   0  0  0  0  0  0  0  0  0  0  0  0
   37.2486   32.2498   44.8430 H   0  0  0  0  0  0  0  0  0  0  0  0
   38.4094   33.3619   45.4748 H   0  0  0  0  0  0  0  0  0  0  0  0
   39.2681   32.6671   43.1945 H   0  0  0  0  0  0  0  0  0  0  0  0
   38.9604   30.9879   43.4679 H   0  0  0  0  0  0  0  0  0  0  0  0
   41.3051   31.2949   44.1724 H   0  0  0  0  0  0  0  0  0  0  0  0
   40.9719   32.8445   44.9401 H   0  0  0  0  0  0  0  0  0  0  0  0
   40.5051   30.0669   45.9289 H   0  0  0  0  0  0  0  0  0  0  0  0
   40.7564   31.5384   46.8711 H   0  0  0  0  0  0  0  0  0  0  0  0
   37.2524   29.8951   47.3366 H   0  0  0  0  0  0  0  0  0  0  0  0
   36.6910   29.5641   49.7813 H   0  0  0  0  0  0  0  0  0  0  0  0
   32.1532   30.5049   47.2127 H   0  0  0  0  0  0  0  0  0  0  0  0
   32.4317   30.1390   44.7349 H   0  0  0  0  0  0  0  0  0  0  0  0
   34.7282   29.8270   43.8378 H   0  0  0  0  0  0  0  0  0  0  0  0
  1  2  2  0
  2  3  1  0
  4  3  2  0
  5  4  1  0
  6  5  2  0
  6  1  1  0
  7  6  1  0
  8  7  1  0
  9 10  1  0
  9  8  1  0
 10 11  1  0
 11  7  1  0
 12  1  1  0
 12 13  1  0
 14 19  2  0
 15 14  1  0
 16 15  2  0
 16 17  1  0
 17 18  2  0
 18 19  1  0
 18 12  1  0
  2 20  1  0
  3 21  1  0
  4 22  1  0
  5 23  1  0
  7 24  1  0
  8 25  1  0
  8 26  1  0
  9 27  1  0
  9 28  1  0
 10 29  1  0
 10 30  1  0
 11 31  1  0
 11 32  1  0
 12 33  1  0
 13 34  1  0
 14 35  1  0
 15 36  1  0
 16 37  1  0
M  ISO  8  20  14  21  14  22  14  23  14  24  13  25  13  26  13  27  13
M  ISO  8  28  13  29  13  30  13  31  13  32  13  33   8  34   3  35  14
M  ISO  2  36  14  37  14
M  END
>  <minimizedAffinity>  (1) 
-5.77823687

>  <minimizedRMSD>  (1) 
2.60785294

$$$$
