
     RDKit          3D

 34 36  0  0  1  0  0  0  0  0999 V2000
   36.7470   30.8850   48.6550 C   0  0  0  0  0  0  0  0  0  0  0  0
   36.7940   31.5950   49.8690 C   0  0  0  0  0  0  0  0  0  0  0  0
   37.5220   32.7810   50.0220 C   0  0  0  0  0  0  0  0  0  0  0  0
   38.2290   33.2670   48.8970 C   0  0  0  0  0  0  0  0  0  0  0  0
   38.1750   32.5550   47.6980 C   0  0  0  0  0  0  0  0  0  0  0  0
   37.4460   31.3930   47.5980 C   0  0  0  0  0  0  0  0  0  0  0  0
   39.9750   30.8300   46.7800 F   0  0  0  0  0  0  0  0  0  0  0  0
   38.8970   30.5910   45.9930 C   0  0  0  0  0  0  0  0  0  0  0  0
   37.5390   30.8110   46.2740 C   0  0  0  0  0  0  0  0  0  0  0  0
   36.6350   30.4770   45.2900 C   0  0  0  0  0  0  0  0  0  0  0  0
   37.0260   29.9510   44.0830 C   0  0  0  0  0  0  0  0  0  0  0  0
   38.3580   29.7320   43.8040 C   0  0  0  0  0  0  0  0  0  0  0  0
   39.2950   30.0550   44.7650 C   0  0  0  0  0  0  0  0  0  0  0  0
   35.9670   29.6640   48.6040 C   0  0  0  0  0  0  0  0  0  0  0  0
   36.3990   28.7380   49.3850 O   0  0  0  0  0  0  0  0  0  0  0  0
   33.0150   30.5370   46.6950 C   0  0  0  0  0  0  0  0  0  0  0  0
   32.5600   29.3050   46.1880 C   0  0  0  0  0  0  0  0  0  0  0  0
   33.2800   28.1580   46.5160 C   0  0  0  0  0  0  0  0  0  0  0  0
   34.3960   28.2630   47.3120 N   0  0  0  0  0  0  0  0  0  0  0  0
   34.7940   29.4440   47.7690 C   0  0  0  0  0  0  0  0  0  0  0  0
   34.1010   30.5640   47.4580 N   0  0  0  0  0  0  0  0  0  0  0  0
   36.2365   31.2025   50.7322 H   0  0  0  0  0  0  0  0  0  0  0  0
   37.5436   33.3160   50.9829 H   0  0  0  0  0  0  0  0  0  0  0  0
   38.8146   34.1956   48.9666 H   0  0  0  0  0  0  0  0  0  0  0  0
   38.7232   32.9284   46.8205 H   0  0  0  0  0  0  0  0  0  0  0  0
   35.5629   30.6370   45.4773 H   0  0  0  0  0  0  0  0  0  0  0  0
   36.2656   29.7010   43.3285 H   0  0  0  0  0  0  0  0  0  0  0  0
   38.6676   29.3091   42.8369 H   0  0  0  0  0  0  0  0  0  0  0  0
   40.3634   29.8892   44.5627 H   0  0  0  0  0  0  0  0  0  0  0  0
   36.6126   29.2853   47.7979 H   0  0  0  0  0  0  0  0  0  0  0  0
   36.2702   29.0141   50.3270 H   0  0  0  0  0  0  0  0  0  0  0  0
   32.4764   31.4673   46.4614 H   0  0  0  0  0  0  0  0  0  0  0  0
   31.6638   29.2496   45.5526 H   0  0  0  0  0  0  0  0  0  0  0  0
   32.9578   27.1755   46.1407 H   0  0  0  0  0  0  0  0  0  0  0  0
  1  2  2  0
  2  3  1  0
  4  3  2  0
  5  4  1  0
  6  5  2  0
  6  1  1  0
  8  9  2  0
  8  7  1  0
  9  6  1  0
 10  9  1  0
 11 10  2  0
 12 11  1  0
 12 13  2  0
 13  8  1  0
 14  1  1  0
 14 15  1  0
 16 21  2  0
 17 18  2  0
 17 16  1  0
 18 19  1  0
 19 20  2  0
 20 14  1  0
 21 20  1  0
  2 22  1  0
  3 23  1  0
  4 24  1  0
  5 25  1  0
 10 26  1  0
 11 27  1  0
 12 28  1  0
 13 29  1  0
 14 30  1  0
 15 31  1  0
 16 32  1  0
 17 33  1  0
 18 34  1  0
M  ISO  8  22  14  23  14  24  14  25  14  26  14  27  14  28  14  29  14
M  ISO  5  30   8  31   3  32  14  33  14  34  14
M  END
>  <minimizedAffinity>  (1) 
-5.58150625

>  <minimizedRMSD>  (1) 
1.59731245

$$$$
