
     RDKit          3D

 25 26  0  0  0  0  0  0  0  0999 V2000
   36.0830   29.6010   49.0410 C   0  0  0  0  0  0  0  0  0  0  0  0
   36.1640   29.5630   50.4490 C   0  0  0  0  0  0  0  0  0  0  0  0
   37.1880   30.2590   51.1250 C   0  0  0  0  0  0  0  0  0  0  0  0
   38.1240   30.9870   50.3920 C   0  0  0  0  0  0  0  0  0  0  0  0
   38.0020   30.9950   49.0010 C   0  0  0  0  0  0  0  0  0  0  0  0
   37.0070   30.3180   48.3380 C   0  0  0  0  0  0  0  0  0  0  0  0
   34.9860   28.8520   48.4360 C   0  0  0  0  0  0  0  0  0  0  0  0
   34.6650   27.7740   49.0550 O   0  0  0  0  0  0  0  0  0  0  0  0
   32.8960   30.9040   46.2930 C   0  0  0  0  0  0  0  0  0  0  0  0
   32.8670   30.2150   45.0900 C   0  0  0  0  0  0  0  0  0  0  0  0
   33.5640   29.0270   44.9980 C   0  0  0  0  0  0  0  0  0  0  0  0
   34.2650   28.5520   46.0750 N   0  0  0  0  0  0  0  0  0  0  0  0
   34.2710   29.2470   47.2230 C   0  0  0  0  0  0  0  0  0  0  0  0
   33.5910   30.4020   47.3120 N   0  0  0  0  0  0  0  0  0  0  0  0
   36.9840   30.3910   46.8800 C   0  0  0  0  0  0  0  0  0  0  0  0
   35.4237   28.9868   51.0235 H   0  0  0  0  0  0  0  0  0  0  0  0
   37.2475   30.2275   52.2229 H   0  0  0  0  0  0  0  0  0  0  0  0
   38.9333   31.5378   50.8936 H   0  0  0  0  0  0  0  0  0  0  0  0
   38.7332   31.5673   48.4112 H   0  0  0  0  0  0  0  0  0  0  0  0
   32.3517   31.8534   46.4042 H   0  0  0  0  0  0  0  0  0  0  0  0
   32.3026   30.6054   44.2303 H   0  0  0  0  0  0  0  0  0  0  0  0
   33.5565   28.4593   44.0559 H   0  0  0  0  0  0  0  0  0  0  0  0
   36.6670   31.3971   46.5682 H   0  0  0  0  0  0  0  0  0  0  0  0
   37.9905   30.1853   46.4867 H   0  0  0  0  0  0  0  0  0  0  0  0
   36.2772   29.6455   46.4867 H   0  0  0  0  0  0  0  0  0  0  0  0
  1  2  2  0
  2  3  1  0
  4  3  2  0
  5  4  1  0
  6  5  2  0
  6  1  1  0
  7  1  1  0
  7  8  2  0
  9 14  2  0
 10  9  1  0
 11 10  2  0
 11 12  1  0
 12 13  2  0
 13 14  1  0
 13  7  1  0
 15  6  1  0
  2 16  1  0
  3 17  1  0
  4 18  1  0
  5 19  1  0
  9 20  1  0
 10 21  1  0
 11 22  1  0
 15 23  1  0
 15 24  1  0
 15 25  1  0
M  ISO  8  16  14  17  14  18  14  19  14  20  14  21  14  22  14  23   8
M  ISO  2  24   8  25   8
M  END
>  <minimizedAffinity>  (1) 
-4.76371193

>  <minimizedRMSD>  (1) 
0.389277399

$$$$
