
     RDKit          3D

 24 25  0  0  0  0  0  0  0  0999 V2000
   36.0850   29.6470   49.1010 C   0  0  0  0  0  0  0  0  0  0  0  0
   36.3660   29.6360   50.4670 C   0  0  0  0  0  0  0  0  0  0  0  0
   37.4340   30.3450   51.0140 C   0  0  0  0  0  0  0  0  0  0  0  0
   38.2620   31.0960   50.1790 C   0  0  0  0  0  0  0  0  0  0  0  0
   37.9710   31.0960   48.8280 C   0  0  0  0  0  0  0  0  0  0  0  0
   36.9160   30.3930   48.3100 C   0  0  0  0  0  0  0  0  0  0  0  0
   36.6630   30.4290   46.9110 N   0  0  0  0  0  0  0  0  0  0  0  0
   34.9490   28.8760   48.6250 C   0  0  0  0  0  0  0  0  0  0  0  0
   34.6020   27.9230   49.4050 O   0  0  0  0  0  0  0  0  0  0  0  0
   32.8990   30.6830   46.2260 C   0  0  0  0  0  0  0  0  0  0  0  0
   32.8440   29.8300   45.1260 C   0  0  0  0  0  0  0  0  0  0  0  0
   33.5190   28.6090   45.1940 C   0  0  0  0  0  0  0  0  0  0  0  0
   34.2050   28.3000   46.3380 N   0  0  0  0  0  0  0  0  0  0  0  0
   34.2360   29.1360   47.3680 C   0  0  0  0  0  0  0  0  0  0  0  0
   33.5840   30.3190   47.3050 N   0  0  0  0  0  0  0  0  0  0  0  0
   35.7219   29.0469   51.1364 H   0  0  0  0  0  0  0  0  0  0  0  0
   37.6229   30.3127   52.0972 H   0  0  0  0  0  0  0  0  0  0  0  0
   39.1131   31.6658   50.5803 H   0  0  0  0  0  0  0  0  0  0  0  0
   38.6074   31.6796   48.1466 H   0  0  0  0  0  0  0  0  0  0  0  0
   35.8706   29.9018   46.5172 H   0  0  0  0  0  0  0  0  0  0  0  0
   37.2721   30.9823   46.2916 H   0  0  0  0  0  0  0  0  0  0  0  0
   32.3786   31.6518   46.2016 H   0  0  0  0  0  0  0  0  0  0  0  0
   32.2814   30.1118   44.2237 H   0  0  0  0  0  0  0  0  0  0  0  0
   33.4998   27.9095   44.3453 H   0  0  0  0  0  0  0  0  0  0  0  0
  1  2  2  0
  2  3  1  0
  4  3  2  0
  5  4  1  0
  6  5  2  0
  6  1  1  0
  7  6  1  0
  8  1  1  0
  8  9  2  0
 10 15  2  0
 11 12  2  0
 11 10  1  0
 12 13  1  0
 13 14  2  0
 14  8  1  0
 15 14  1  0
  2 16  1  0
  3 17  1  0
  4 18  1  0
  5 19  1  0
  7 20  1  0
  7 21  1  0
 10 22  1  0
 11 23  1  0
 12 24  1  0
M  ISO  7  16  14  17  14  18  14  19  14  22  14  23  14  24  14
M  END
>  <minimizedAffinity>  (1) 
-4.73014832

>  <minimizedRMSD>  (1) 
0.192143664

$$$$
