
     RDKit          3D

 46 48  0  0  1  0  0  0  0  0999 V2000
   36.9580   30.9000   49.0210 C   0  0  0  0  0  0  0  0  0  0  0  0
   36.6940   31.8090   50.0600 C   0  0  0  0  0  0  0  0  0  0  0  0
   37.3140   33.0490   50.1380 C   0  0  0  0  0  0  0  0  0  0  0  0
   38.2360   33.4290   49.1590 C   0  0  0  0  0  0  0  0  0  0  0  0
   38.4860   32.5250   48.1430 C   0  0  0  0  0  0  0  0  0  0  0  0
   37.8530   31.2950   48.0930 C   0  0  0  0  0  0  0  0  0  0  0  0
   36.2680   29.6380   49.0230 C   0  0  0  0  0  0  0  0  0  0  0  0
   36.7780   28.7430   49.7790 O   0  0  0  0  0  0  0  0  0  0  0  0
   33.5350   30.2300   46.7010 C   0  0  0  0  0  0  0  0  0  0  0  0
   32.8410   29.0230   46.6810 C   0  0  0  0  0  0  0  0  0  0  0  0
   33.3090   27.9850   47.4760 C   0  0  0  0  0  0  0  0  0  0  0  0
   34.4210   28.1790   48.2390 N   0  0  0  0  0  0  0  0  0  0  0  0
   35.0640   29.3360   48.2400 C   0  0  0  0  0  0  0  0  0  0  0  0
   34.6070   30.3510   47.4650 N   0  0  0  0  0  0  0  0  0  0  0  0
   38.2470   30.4820   46.9780 C   0  0  0  0  0  0  0  0  0  0  0  0
   38.9460   30.8360   45.9150 C   0  0  0  0  0  0  0  0  0  0  0  0
   39.4400   30.1150   44.7450 C   0  0  0  0  0  0  0  0  0  0  0  0
   37.9230   30.3840   42.7350 C   0  0  2  0  0  0  0  0  0  0  0  0
   38.3990   29.5290   43.8390 C   0  0  1  0  0  0  0  0  0  0  0  0
   38.8420   28.2940   43.3900 O   0  0  0  0  0  0  0  0  0  0  0  0
   39.9480   28.3600   42.5620 C   0  0  0  0  0  0  0  0  0  0  0  0
   39.6160   29.2650   41.3980 C   0  0  2  0  0  0  0  0  0  0  0  0
   38.1390   29.6030   41.4260 C   0  0  2  0  0  0  0  0  0  0  0  0
   38.6350   31.5650   42.5530 O   0  0  0  0  0  0  0  0  0  0  0  0
   39.9270   28.5930   40.2230 O   0  0  0  0  0  0  0  0  0  0  0  0
   37.7740   30.4140   40.3650 O   0  0  0  0  0  0  0  0  0  0  0  0
   35.9703   31.5280   50.8393 H   0  0  0  0  0  0  0  0  0  0  0  0
   37.0799   33.7309   50.9688 H   0  0  0  0  0  0  0  0  0  0  0  0
   38.7412   34.4054   49.1951 H   0  0  0  0  0  0  0  0  0  0  0  0
   39.2060   32.7899   47.3547 H   0  0  0  0  0  0  0  0  0  0  0  0
   33.1940   31.0759   46.0861 H   0  0  0  0  0  0  0  0  0  0  0  0
   31.9470   28.8953   46.0530 H   0  0  0  0  0  0  0  0  0  0  0  0
   32.7875   27.0166   47.4896 H   0  0  0  0  0  0  0  0  0  0  0  0
   37.9260   29.4305   47.0133 H   0  0  0  0  0  0  0  0  0  0  0  0
   39.2136   31.9029   45.9097 H   0  0  0  0  0  0  0  0  0  0  0  0
   40.0461   30.8149   44.1510 H   0  0  0  0  0  0  0  0  0  0  0  0
   39.9997   29.2561   45.1438 H   0  0  0  0  0  0  0  0  0  0  0  0
   36.8820   30.6380   42.9836 H   0  0  0  0  0  0  0  0  0  0  0  0
   37.4922   29.4243   44.4528 H   0  0  0  0  0  0  0  0  0  0  0  0
   40.8050   28.7682   43.1179 H   0  0  0  0  0  0  0  0  0  0  0  0
   40.2097   27.3554   42.1984 H   0  0  0  0  0  0  0  0  0  0  0  0
   40.1932   30.1993   41.4603 H   0  0  0  0  0  0  0  0  0  0  0  0
   37.5369   28.6850   41.3570 H   0  0  0  0  0  0  0  0  0  0  0  0
   38.8670   31.9498   43.4352 H   0  0  0  0  0  0  0  0  0  0  0  0
   40.3326   27.7167   40.4415 H   0  0  0  0  0  0  0  0  0  0  0  0
   37.3934   31.2596   40.7117 H   0  0  0  0  0  0  0  0  0  0  0  0
  1  7  1  0
  1  2  2  0
  2  3  1  0
  4  3  2  0
  5  4  1  0
  6  5  2  0
  6  1  1  0
  7  8  2  0
  9 14  2  0
 10  9  1  0
 10 11  2  0
 11 12  1  0
 12 13  2  0
 13  7  1  0
 14 13  1  0
 15  6  1  0
 16 15  2  0
 17 16  1  0
 18 24  1  0
 18 19  1  0
 19 17  1  0
 20 19  1  0
 21 20  1  0
 22 25  1  0
 22 23  1  0
 22 21  1  0
 23 26  1  0
 23 18  1  0
  2 27  1  0
  3 28  1  0
  4 29  1  0
  5 30  1  0
  9 31  1  0
 10 32  1  0
 11 33  1  0
 15 34  1  0
 16 35  1  0
 17 36  1  0
 17 37  1  0
 18 38  1  1
 19 39  1  1
 21 40  1  0
 21 41  1  0
 22 42  1  1
 23 43  1  1
 24 44  1  0
 25 45  1  0
 26 46  1  0
M  ISO  8  27  14  28  14  29  14  30  14  31  14  32  14  33  14  36   8
M  ISO  8  37   8  38  13  39  13  40  13  41  13  42  13  43  13  44   3
M  ISO  2  45   3  46   3
M  END
>  <minimizedAffinity>  (1) 
-6.0367074

>  <minimizedRMSD>  (1) 
1.71812439

$$$$
