
     RDKit          3D

 44 46  0  0  0  0  0  0  0  0999 V2000
   36.9740   30.9210   49.1670 C   0  0  0  0  0  0  0  0  0  0  0  0
   36.6200   31.8760   50.1340 C   0  0  0  0  0  0  0  0  0  0  0  0
   37.1930   33.1290   50.1920 C   0  0  0  0  0  0  0  0  0  0  0  0
   38.1650   33.4860   49.2620 C   0  0  0  0  0  0  0  0  0  0  0  0
   38.5040   32.5440   48.3180 C   0  0  0  0  0  0  0  0  0  0  0  0
   37.9290   31.3070   48.2720 C   0  0  0  0  0  0  0  0  0  0  0  0
   36.3180   29.6310   49.1910 C   0  0  0  0  0  0  0  0  0  0  0  0
   36.8550   28.7790   49.9870 O   0  0  0  0  0  0  0  0  0  0  0  0
   33.6260   30.0570   46.8030 C   0  0  0  0  0  0  0  0  0  0  0  0
   32.9620   28.8280   46.8160 C   0  0  0  0  0  0  0  0  0  0  0  0
   33.4440   27.8400   47.6570 C   0  0  0  0  0  0  0  0  0  0  0  0
   34.5320   28.0970   48.4310 N   0  0  0  0  0  0  0  0  0  0  0  0
   35.1450   29.2770   48.3980 C   0  0  0  0  0  0  0  0  0  0  0  0
   34.6850   30.2370   47.5880 N   0  0  0  0  0  0  0  0  0  0  0  0
   38.3860   30.4360   47.2230 C   0  0  0  0  0  0  0  0  0  0  0  0
   38.3910   30.6850   45.9250 C   0  0  0  0  0  0  0  0  0  0  0  0
   38.7850   29.9480   44.7390 C   0  0  0  0  0  0  0  0  0  0  0  0
   39.2910   30.7590   43.6440 N   0  0  0  0  0  0  0  0  0  0  0  0
   40.5610   31.2770   44.1280 C   0  0  0  0  0  0  0  0  0  0  0  0
   40.4040   32.5600   44.9080 C   0  0  0  0  0  0  0  0  0  0  0  0
   40.2540   33.6530   43.8410 C   0  0  0  0  0  0  0  0  0  0  0  0
   39.2150   33.1130   42.8780 C   0  0  0  0  0  0  0  0  0  0  0  0
   38.4430   31.9350   43.4720 C   0  0  0  0  0  0  0  0  0  0  0  0
   35.8527   31.6132   50.8771 H   0  0  0  0  0  0  0  0  0  0  0  0
   36.8834   33.8429   50.9695 H   0  0  0  0  0  0  0  0  0  0  0  0
   38.6412   34.4774   49.2808 H   0  0  0  0  0  0  0  0  0  0  0  0
   39.2695   32.7982   47.5701 H   0  0  0  0  0  0  0  0  0  0  0  0
   33.2761   30.8693   46.1490 H   0  0  0  0  0  0  0  0  0  0  0  0
   32.0837   28.6510   46.1779 H   0  0  0  0  0  0  0  0  0  0  0  0
   32.9520   26.8571   47.6988 H   0  0  0  0  0  0  0  0  0  0  0  0
   38.7739   29.4551   47.5350 H   0  0  0  0  0  0  0  0  0  0  0  0
   38.0055   31.6876   45.6880 H   0  0  0  0  0  0  0  0  0  0  0  0
   39.5727   29.2362   45.0271 H   0  0  0  0  0  0  0  0  0  0  0  0
   37.8710   29.4650   44.3631 H   0  0  0  0  0  0  0  0  0  0  0  0
   41.0239   30.5221   44.7806 H   0  0  0  0  0  0  0  0  0  0  0  0
   41.1887   31.4943   43.2512 H   0  0  0  0  0  0  0  0  0  0  0  0
   39.5099   32.5176   45.5474 H   0  0  0  0  0  0  0  0  0  0  0  0
   41.2580   32.7466   45.5757 H   0  0  0  0  0  0  0  0  0  0  0  0
   39.9095   34.5937   44.2954 H   0  0  0  0  0  0  0  0  0  0  0  0
   41.2071   33.8786   43.3404 H   0  0  0  0  0  0  0  0  0  0  0  0
   39.7207   32.7797   41.9598 H   0  0  0  0  0  0  0  0  0  0  0  0
   38.4965   33.9184   42.6658 H   0  0  0  0  0  0  0  0  0  0  0  0
   38.0422   32.2308   44.4527 H   0  0  0  0  0  0  0  0  0  0  0  0
   37.6333   31.6722   42.7753 H   0  0  0  0  0  0  0  0  0  0  0  0
  1  7  1  0
  1  2  2  0
  2  3  1  0
  4  3  2  0
  5  4  1  0
  6  5  2  0
  6  1  1  0
  7  8  2  0
  9 10  2  0
  9 14  1  0
 10 11  1  0
 11 12  2  0
 13 12  1  0
 13  7  1  0
 14 13  2  0
 15  6  1  0
 16 15  2  0
 17 16  1  0
 18 19  1  0
 18 17  1  0
 19 20  1  0
 21 20  1  0
 22 23  1  0
 22 21  1  0
 23 18  1  0
  2 24  1  0
  3 25  1  0
  4 26  1  0
  5 27  1  0
  9 28  1  0
 10 29  1  0
 11 30  1  0
 15 31  1  0
 16 32  1  0
 17 33  1  0
 17 34  1  0
 19 35  1  0
 19 36  1  0
 20 37  1  0
 20 38  1  0
 21 39  1  0
 21 40  1  0
 22 41  1  0
 22 42  1  0
 23 43  1  0
 23 44  1  0
M  ISO  8  24  14  25  14  26  14  27  14  28  14  29  14  30  14  33   8
M  ISO  8  34   8  35  13  36  13  37  13  38  13  39  13  40  13  41  13
M  ISO  3  42  13  43  13  44  13
M  END
>  <minimizedAffinity>  (1) 
-5.97850466

>  <minimizedRMSD>  (1) 
1.47669935

$$$$
