
     RDKit          3D

 41 43  0  0  1  0  0  0  0  0999 V2000
   36.8810   30.9000   49.0020 C   0  0  0  0  0  0  0  0  0  0  0  0
   36.6430   31.7770   50.0630 C   0  0  0  0  0  0  0  0  0  0  0  0
   37.2710   33.0010   50.1630 C   0  0  0  0  0  0  0  0  0  0  0  0
   38.1800   33.3930   49.1780 C   0  0  0  0  0  0  0  0  0  0  0  0
   38.4030   32.5260   48.1450 C   0  0  0  0  0  0  0  0  0  0  0  0
   37.7610   31.3050   48.0670 C   0  0  0  0  0  0  0  0  0  0  0  0
   36.1680   29.6330   48.9870 C   0  0  0  0  0  0  0  0  0  0  0  0
   36.6770   28.7300   49.7590 O   0  0  0  0  0  0  0  0  0  0  0  0
   33.4190   30.2870   46.7170 C   0  0  0  0  0  0  0  0  0  0  0  0
   32.7670   29.0580   46.6180 C   0  0  0  0  0  0  0  0  0  0  0  0
   33.2720   27.9850   47.3400 C   0  0  0  0  0  0  0  0  0  0  0  0
   34.3840   28.1690   48.1210 N   0  0  0  0  0  0  0  0  0  0  0  0
   34.9720   29.3510   48.1860 C   0  0  0  0  0  0  0  0  0  0  0  0
   34.4870   30.4010   47.4860 N   0  0  0  0  0  0  0  0  0  0  0  0
   38.1090   30.4990   46.9200 C   0  0  0  0  0  0  0  0  0  0  0  0
   38.9600   30.7970   45.9570 C   0  0  0  0  0  0  0  0  0  0  0  0
   39.4150   30.0810   44.7650 C   0  0  0  0  0  0  0  0  0  0  0  0
   39.7690   32.5100   43.1420 Cl  0  0  0  0  0  0  0  0  0  0  0  0
   38.5450   31.2520   42.9200 C   0  0  0  0  0  0  0  0  0  0  0  0
   38.3860   30.1110   43.6910 C   0  0  0  0  0  0  0  0  0  0  0  0
   37.3820   29.2230   43.3910 C   0  0  0  0  0  0  0  0  0  0  0  0
   36.5460   29.4790   42.3270 C   0  0  0  0  0  0  0  0  0  0  0  0
   36.6860   30.6060   41.5470 C   0  0  0  0  0  0  0  0  0  0  0  0
   37.7020   31.5150   41.8420 C   0  0  0  0  0  0  0  0  0  0  0  0
   37.8170   32.9200   40.8090 Cl  0  0  0  0  0  0  0  0  0  0  0  0
   35.9297   31.4810   50.8463 H   0  0  0  0  0  0  0  0  0  0  0  0
   37.0570   33.6646   51.0138 H   0  0  0  0  0  0  0  0  0  0  0  0
   38.6969   34.3625   49.2314 H   0  0  0  0  0  0  0  0  0  0  0  0
   39.1133   32.8082   47.3539 H   0  0  0  0  0  0  0  0  0  0  0  0
   36.8043   29.2847   48.1601 H   0  0  0  0  0  0  0  0  0  0  0  0
   36.5332   28.9851   50.7047 H   0  0  0  0  0  0  0  0  0  0  0  0
   33.0456   31.1573   46.1573 H   0  0  0  0  0  0  0  0  0  0  0  0
   31.8755   28.9418   45.9841 H   0  0  0  0  0  0  0  0  0  0  0  0
   32.7861   26.9996   47.2862 H   0  0  0  0  0  0  0  0  0  0  0  0
   37.6063   29.5239   46.8402 H   0  0  0  0  0  0  0  0  0  0  0  0
   39.4228   31.7880   46.0744 H   0  0  0  0  0  0  0  0  0  0  0  0
   40.3357   30.5539   44.3925 H   0  0  0  0  0  0  0  0  0  0  0  0
   39.6000   29.0320   45.0395 H   0  0  0  0  0  0  0  0  0  0  0  0
   37.2467   28.3143   43.9960 H   0  0  0  0  0  0  0  0  0  0  0  0
   35.7439   28.7635   42.0933 H   0  0  0  0  0  0  0  0  0  0  0  0
   36.0051   30.7867   40.7022 H   0  0  0  0  0  0  0  0  0  0  0  0
  1  2  2  0
  2  3  1  0
  4  3  2  0
  5  4  1  0
  6  5  2  0
  6  1  1  0
  7  1  1  0
  7  8  1  0
  9 14  2  0
 10  9  1  0
 10 11  2  0
 11 12  1  0
 12 13  2  0
 13  7  1  0
 14 13  1  0
 15  6  1  0
 16 15  2  0
 17 16  1  0
 19 18  1  0
 19 20  2  0
 20 17  1  0
 21 20  1  0
 22 21  2  0
 23 24  2  0
 23 22  1  0
 24 19  1  0
 25 24  1  0
  2 26  1  0
  3 27  1  0
  4 28  1  0
  5 29  1  0
  7 30  1  0
  8 31  1  0
  9 32  1  0
 10 33  1  0
 11 34  1  0
 15 35  1  0
 16 36  1  0
 17 37  1  0
 17 38  1  0
 21 39  1  0
 22 40  1  0
 23 41  1  0
M  ISO  8  26  14  27  14  28  14  29  14  30   8  31   3  32  14  33  14
M  ISO  6  34  14  37   8  38   8  39  14  40  14  41  14
M  END
>  <minimizedAffinity>  (1) 
-5.95284462

>  <minimizedRMSD>  (1) 
2.92537546

$$$$
