
     RDKit          3D

 43 45  0  0  1  0  0  0  0  0999 V2000
   36.9120   30.9010   48.9440 C   0  0  0  0  0  0  0  0  0  0  0  0
   36.7580   31.7740   50.0240 C   0  0  0  0  0  0  0  0  0  0  0  0
   37.4230   32.9900   50.0850 C   0  0  0  0  0  0  0  0  0  0  0  0
   38.2780   33.3760   49.0500 C   0  0  0  0  0  0  0  0  0  0  0  0
   38.4160   32.5060   47.9980 C   0  0  0  0  0  0  0  0  0  0  0  0
   37.7410   31.2990   47.9620 C   0  0  0  0  0  0  0  0  0  0  0  0
   36.1760   29.6430   48.9570 C   0  0  0  0  0  0  0  0  0  0  0  0
   36.6670   28.7630   49.7570 O   0  0  0  0  0  0  0  0  0  0  0  0
   33.3950   30.3090   46.7390 C   0  0  0  0  0  0  0  0  0  0  0  0
   32.7680   29.0830   46.5840 C   0  0  0  0  0  0  0  0  0  0  0  0
   33.3080   28.0140   47.2520 C   0  0  0  0  0  0  0  0  0  0  0  0
   34.4150   28.1790   48.0290 N   0  0  0  0  0  0  0  0  0  0  0  0
   34.9970   29.3590   48.1630 C   0  0  0  0  0  0  0  0  0  0  0  0
   34.4670   30.4230   47.5040 N   0  0  0  0  0  0  0  0  0  0  0  0
   38.0040   30.5090   46.7810 C   0  0  0  0  0  0  0  0  0  0  0  0
   37.5270   30.6950   45.5560 C   0  0  0  0  0  0  0  0  0  0  0  0
   37.7230   30.0080   44.2900 C   0  0  0  0  0  0  0  0  0  0  0  0
   39.1290   29.6080   44.0760 N   0  0  0  0  0  0  0  0  0  0  0  0
   39.0880   28.4080   43.2270 C   0  0  0  0  0  0  0  0  0  0  0  0
   40.2800   28.4680   42.3340 C   0  0  0  0  0  0  0  0  0  0  0  0
   40.8390   29.8660   42.4930 C   0  0  0  0  0  0  0  0  0  0  0  0
   39.7140   30.5990   43.1720 C   0  0  0  0  0  0  0  0  0  0  0  0
   36.0899   31.4888   50.8500 H   0  0  0  0  0  0  0  0  0  0  0  0
   37.2765   33.6522   50.9510 H   0  0  0  0  0  0  0  0  0  0  0  0
   38.8166   34.3347   49.0771 H   0  0  0  0  0  0  0  0  0  0  0  0
   39.0795   32.7748   47.1629 H   0  0  0  0  0  0  0  0  0  0  0  0
   36.8137   29.2615   48.1460 H   0  0  0  0  0  0  0  0  0  0  0  0
   36.5102   29.0441   50.6932 H   0  0  0  0  0  0  0  0  0  0  0  0
   32.9975   31.1944   46.2213 H   0  0  0  0  0  0  0  0  0  0  0  0
   31.8747   28.9719   45.9517 H   0  0  0  0  0  0  0  0  0  0  0  0
   32.8459   27.0200   47.1602 H   0  0  0  0  0  0  0  0  0  0  0  0
   38.6800   29.6513   46.9126 H   0  0  0  0  0  0  0  0  0  0  0  0
   36.8380   31.5494   45.4838 H   0  0  0  0  0  0  0  0  0  0  0  0
   37.0936   29.1060   44.2768 H   0  0  0  0  0  0  0  0  0  0  0  0
   37.4472   30.7050   43.4849 H   0  0  0  0  0  0  0  0  0  0  0  0
   39.1274   27.5023   43.8501 H   0  0  0  0  0  0  0  0  0  0  0  0
   38.1582   28.3725   42.6404 H   0  0  0  0  0  0  0  0  0  0  0  0
   39.9863   28.2886   41.2892 H   0  0  0  0  0  0  0  0  0  0  0  0
   41.0233   27.7006   42.5958 H   0  0  0  0  0  0  0  0  0  0  0  0
   41.7440   29.8622   43.1183 H   0  0  0  0  0  0  0  0  0  0  0  0
   41.1453   30.3237   41.5408 H   0  0  0  0  0  0  0  0  0  0  0  0
   40.0961   31.4628   43.7357 H   0  0  0  0  0  0  0  0  0  0  0  0
   38.9808   30.9987   42.4560 H   0  0  0  0  0  0  0  0  0  0  0  0
  1  7  1  0
  1  2  2  0
  2  3  1  0
  4  3  2  0
  5  4  1  0
  6  5  2  0
  6  1  1  0
  7  8  1  0
  9 14  2  0
 10  9  1  0
 10 11  2  0
 11 12  1  0
 12 13  2  0
 13  7  1  0
 14 13  1  0
 15  6  1  0
 16 15  2  0
 17 16  1  0
 18 17  1  0
 19 18  1  0
 20 21  1  0
 20 19  1  0
 21 22  1  0
 22 18  1  0
  2 23  1  0
  3 24  1  0
  4 25  1  0
  5 26  1  0
  7 27  1  0
  8 28  1  0
  9 29  1  0
 10 30  1  0
 11 31  1  0
 15 32  1  0
 16 33  1  0
 17 34  1  0
 17 35  1  0
 19 36  1  0
 19 37  1  0
 20 38  1  0
 20 39  1  0
 21 40  1  0
 21 41  1  0
 22 42  1  0
 22 43  1  0
M  ISO  8  23  14  24  14  25  14  26  14  27   8  28   3  29  14  30  14
M  ISO  8  31  14  34   8  35   8  36  13  37  13  38  13  39  13  40  13
M  ISO  3  41  13  42  13  43  13
M  END
>  <minimizedAffinity>  (1) 
-5.70677948

>  <minimizedRMSD>  (1) 
1.34900105

$$$$
