
     RDKit          3D

 35 36  0  0  1  0  0  0  0  0999 V2000
   37.0910   30.9470   49.0430 C   0  0  0  0  0  0  0  0  0  0  0  0
   36.8120   31.8580   50.0630 C   0  0  0  0  0  0  0  0  0  0  0  0
   37.4090   33.1150   50.1020 C   0  0  0  0  0  0  0  0  0  0  0  0
   38.3120   33.4750   49.0950 C   0  0  0  0  0  0  0  0  0  0  0  0
   38.5710   32.5710   48.1070 C   0  0  0  0  0  0  0  0  0  0  0  0
   37.9600   31.3260   48.0990 C   0  0  0  0  0  0  0  0  0  0  0  0
   36.4960   29.6270   49.0260 C   0  0  2  0  0  0  0  0  0  0  0  0
   33.6280   30.0320   46.8310 C   0  0  0  0  0  0  0  0  0  0  0  0
   32.8990   28.8690   47.0170 C   0  0  0  0  0  0  0  0  0  0  0  0
   33.3550   27.9550   47.9490 C   0  0  0  0  0  0  0  0  0  0  0  0
   34.5080   28.2280   48.6500 N   0  0  0  0  0  0  0  0  0  0  0  0
   35.1600   29.3500   48.4270 C   0  0  0  0  0  0  0  0  0  0  0  0
   34.7290   30.2520   47.5270 N   0  0  0  0  0  0  0  0  0  0  0  0
   36.9600   28.8600   49.9480 O   0  0  0  0  0  0  0  0  0  0  0  0
   38.3450   30.4590   47.0090 C   0  0  0  0  0  0  0  0  0  0  0  0
   38.8860   30.8950   45.8660 C   0  0  0  0  0  0  0  0  0  0  0  0
   39.3510   30.0940   44.7100 C   0  0  0  0  0  0  0  0  0  0  0  0
   39.4630   31.1390   43.2550 S   0  0  0  0  0  0  0  0  0  0  0  0
   37.8720   31.6860   42.6480 C   0  0  0  0  0  0  0  0  0  0  0  0
   36.1031   31.5758   50.8554 H   0  0  0  0  0  0  0  0  0  0  0  0
   37.1737   33.8175   50.9151 H   0  0  0  0  0  0  0  0  0  0  0  0
   38.7999   34.4609   49.1002 H   0  0  0  0  0  0  0  0  0  0  0  0
   39.2755   32.8335   47.3040 H   0  0  0  0  0  0  0  0  0  0  0  0
   36.8643   29.2457   48.0622 H   0  0  0  0  0  0  0  0  0  0  0  0
   33.2875   30.7782   46.0980 H   0  0  0  0  0  0  0  0  0  0  0  0
   31.9827   28.6778   46.4393 H   0  0  0  0  0  0  0  0  0  0  0  0
   32.8029   27.0206   48.1282 H   0  0  0  0  0  0  0  0  0  0  0  0
   36.7327   29.2358   50.8353 H   0  0  0  0  0  0  0  0  0  0  0  0
   38.1838   29.3772   47.1260 H   0  0  0  0  0  0  0  0  0  0  0  0
   38.9999   31.9851   45.7728 H   0  0  0  0  0  0  0  0  0  0  0  0
   40.3415   29.6708   44.9332 H   0  0  0  0  0  0  0  0  0  0  0  0
   38.6357   29.2803   44.5196 H   0  0  0  0  0  0  0  0  0  0  0  0
   37.2130   31.9126   43.4991 H   0  0  0  0  0  0  0  0  0  0  0  0
   38.0043   32.5903   42.0358 H   0  0  0  0  0  0  0  0  0  0  0  0
   37.4202   30.8916   42.0358 H   0  0  0  0  0  0  0  0  0  0  0  0
  1  2  2  0
  2  3  1  0
  4  3  2  0
  5  4  1  0
  6  5  2  0
  6  1  1  0
  7  1  1  0
  7 14  1  0
  8  9  2  0
  8 13  1  0
  9 10  1  0
 10 11  2  0
 12 11  1  0
 12  7  1  0
 13 12  2  0
 15  6  1  0
 16 15  2  0
 17 16  1  0
 18 17  1  0
 19 18  1  0
  2 20  1  0
  3 21  1  0
  4 22  1  0
  5 23  1  0
  7 24  1  6
  8 25  1  0
  9 26  1  0
 10 27  1  0
 14 28  1  0
 15 29  1  0
 16 30  1  0
 17 31  1  0
 17 32  1  0
 19 33  1  0
 19 34  1  0
 19 35  1  0
M  ISO  8  20  14  21  14  22  14  23  14  24   8  25  14  26  14  27  14
M  ISO  6  28   3  31   8  32   8  33   8  34   8  35   8
M  END
>  <minimizedAffinity>  (1) 
-5.21291399

>  <minimizedRMSD>  (1) 
0.172346473

$$$$
