
     RDKit          3D

 40 42  0  0  0  0  0  0  0  0999 V2000
   35.0480   28.2620   49.5490 O   0  0  0  0  0  0  0  0  0  0  0  0
   37.5550   30.2620   51.2230 C   0  0  0  0  0  0  0  0  0  0  0  0
   38.0540   30.9880   50.1360 C   0  0  0  0  0  0  0  0  0  0  0  0
   37.5080   30.7580   48.8800 C   0  0  0  0  0  0  0  0  0  0  0  0
   36.5150   29.8360   48.7780 N   0  0  0  0  0  0  0  0  0  0  0  0
   36.0570   29.1530   49.8470 C   0  0  0  0  0  0  0  0  0  0  0  0
   36.5870   29.3730   51.0840 N   0  0  0  0  0  0  0  0  0  0  0  0
   37.8870   31.3980   47.6670 N   0  0  0  0  0  0  0  0  0  0  0  0
   38.6870   32.5940   47.5830 C   0  0  0  0  0  0  0  0  0  0  0  0
   39.6360   32.5860   46.4080 C   0  0  0  0  0  0  0  0  0  0  0  0
   40.0180   31.1430   46.0910 C   0  0  0  0  0  0  0  0  0  0  0  0
   38.7530   30.4570   45.5890 C   0  0  0  0  0  0  0  0  0  0  0  0
   37.5340   30.9550   46.3400 C   0  0  0  0  0  0  0  0  0  0  0  0
   34.2760   28.5250   48.3810 C   0  0  0  0  0  0  0  0  0  0  0  0
   33.3390   27.4000   48.0860 C   0  0  0  0  0  0  0  0  0  0  0  0
   31.9290   27.8570   47.9090 C   0  0  0  0  0  0  0  0  0  0  0  0
   31.0640   27.5680   48.9340 C   0  0  0  0  0  0  0  0  0  0  0  0
   29.7340   27.9310   48.9030 C   0  0  0  0  0  0  0  0  0  0  0  0
   29.2640   28.5890   47.8370 N   0  0  0  0  0  0  0  0  0  0  0  0
   30.1210   28.8700   46.8340 C   0  0  0  0  0  0  0  0  0  0  0  0
   31.4090   28.5210   46.8610 N   0  0  0  0  0  0  0  0  0  0  0  0
   37.9807   30.4362   52.2222 H   0  0  0  0  0  0  0  0  0  0  0  0
   38.8601   31.7239   50.2731 H   0  0  0  0  0  0  0  0  0  0  0  0
   38.0150   33.4594   47.4854 H   0  0  0  0  0  0  0  0  0  0  0  0
   39.2954   32.6487   48.4978 H   0  0  0  0  0  0  0  0  0  0  0  0
   39.1451   33.0386   45.5338 H   0  0  0  0  0  0  0  0  0  0  0  0
   40.5384   33.1650   46.6538 H   0  0  0  0  0  0  0  0  0  0  0  0
   40.7966   31.1185   45.3143 H   0  0  0  0  0  0  0  0  0  0  0  0
   40.4183   30.6344   46.9804 H   0  0  0  0  0  0  0  0  0  0  0  0
   38.6282   30.6710   44.5173 H   0  0  0  0  0  0  0  0  0  0  0  0
   38.8505   29.3740   45.7554 H   0  0  0  0  0  0  0  0  0  0  0  0
   37.0898   31.7956   45.7868 H   0  0  0  0  0  0  0  0  0  0  0  0
   36.8151   30.1271   46.4276 H   0  0  0  0  0  0  0  0  0  0  0  0
   33.6937   29.4453   48.5359 H   0  0  0  0  0  0  0  0  0  0  0  0
   34.9624   28.6381   47.5289 H   0  0  0  0  0  0  0  0  0  0  0  0
   33.6665   26.9023   47.1613 H   0  0  0  0  0  0  0  0  0  0  0  0
   33.3610   26.7146   48.9461 H   0  0  0  0  0  0  0  0  0  0  0  0
   31.4453   27.0270   49.8126 H   0  0  0  0  0  0  0  0  0  0  0  0
   29.0686   27.6830   49.7431 H   0  0  0  0  0  0  0  0  0  0  0  0
   29.7415   29.4109   45.9546 H   0  0  0  0  0  0  0  0  0  0  0  0
  1  6  1  0
  3  2  2  0
  4  3  1  0
  5  4  2  0
  5  6  1  0
  6  7  2  0
  7  2  1  0
  8  4  1  0
  9  8  1  0
 10  9  1  0
 11 10  1  0
 12 11  1  0
 12 13  1  0
 13  8  1  0
 14  1  1  0
 15 14  1  0
 16 15  1  0
 16 17  2  0
 18 17  1  0
 19 18  2  0
 20 21  2  0
 20 19  1  0
 21 16  1  0
  2 22  1  0
  3 23  1  0
  9 24  1  0
  9 25  1  0
 10 26  1  0
 10 27  1  0
 11 28  1  0
 11 29  1  0
 12 30  1  0
 12 31  1  0
 13 32  1  0
 13 33  1  0
 14 34  1  0
 14 35  1  0
 15 36  1  0
 15 37  1  0
 17 38  1  0
 18 39  1  0
 20 40  1  0
M  ISO  8  22  14  23  14  24  13  25  13  26  13  27  13  28  13  29  13
M  ISO  8  30  13  31  13  32  13  33  13  34   8  35   8  36   8  37   8
M  ISO  3  38  14  39  14  40  14
M  END
>  <minimizedAffinity>  (1) 
-6.06889534

>  <minimizedRMSD>  (1) 
0.879445076

$$$$
