
     RDKit          3D

 35 37  0  0  0  0  0  0  0  0999 V2000
   37.1710   30.1240   51.4480 C   0  0  0  0  0  0  0  0  0  0  0  0
   37.7310   30.7600   50.3350 C   0  0  0  0  0  0  0  0  0  0  0  0
   37.2200   30.5150   49.0760 C   0  0  0  0  0  0  0  0  0  0  0  0
   36.1770   29.6450   49.0040 N   0  0  0  0  0  0  0  0  0  0  0  0
   35.6440   29.0360   50.0830 C   0  0  0  0  0  0  0  0  0  0  0  0
   36.1570   29.2870   51.3120 N   0  0  0  0  0  0  0  0  0  0  0  0
   37.7220   31.1210   47.8470 C   0  0  0  0  0  0  0  0  0  0  0  0
   38.7900   31.9860   47.9740 C   0  0  0  0  0  0  0  0  0  0  0  0
   39.2850   32.5750   46.8140 C   0  0  0  0  0  0  0  0  0  0  0  0
   38.7060   32.2840   45.5940 C   0  0  0  0  0  0  0  0  0  0  0  0
   37.6400   31.4210   45.4590 C   0  0  0  0  0  0  0  0  0  0  0  0
   37.1630   30.8440   46.6340 C   0  0  0  0  0  0  0  0  0  0  0  0
   34.5950   28.1980   49.7590 O   0  0  0  0  0  0  0  0  0  0  0  0
   33.7280   28.5950   48.7080 C   0  0  0  0  0  0  0  0  0  0  0  0
   32.8150   27.4710   48.3250 C   0  0  0  0  0  0  0  0  0  0  0  0
   31.3840   27.8660   48.3410 C   0  0  0  0  0  0  0  0  0  0  0  0
   30.7040   27.7390   49.5350 C   0  0  0  0  0  0  0  0  0  0  0  0
   29.3660   28.0800   49.6550 C   0  0  0  0  0  0  0  0  0  0  0  0
   28.7120   28.5430   48.5950 N   0  0  0  0  0  0  0  0  0  0  0  0
   29.3800   28.6680   47.4280 C   0  0  0  0  0  0  0  0  0  0  0  0
   30.6790   28.3410   47.2920 N   0  0  0  0  0  0  0  0  0  0  0  0
   37.5799   30.3230   52.4496 H   0  0  0  0  0  0  0  0  0  0  0  0
   38.5757   31.4530   50.4624 H   0  0  0  0  0  0  0  0  0  0  0  0
   39.2342   32.2022   48.9568 H   0  0  0  0  0  0  0  0  0  0  0  0
   40.1353   33.2706   46.8686 H   0  0  0  0  0  0  0  0  0  0  0  0
   39.1135   32.7619   44.6909 H   0  0  0  0  0  0  0  0  0  0  0  0
   37.1913   31.2003   44.4792 H   0  0  0  0  0  0  0  0  0  0  0  0
   36.3136   30.1470   46.5822 H   0  0  0  0  0  0  0  0  0  0  0  0
   33.1253   29.4529   49.0410 H   0  0  0  0  0  0  0  0  0  0  0  0
   34.3347   28.8729   47.8335 H   0  0  0  0  0  0  0  0  0  0  0  0
   32.9596   26.6426   49.0341 H   0  0  0  0  0  0  0  0  0  0  0  0
   33.0667   27.1736   47.2963 H   0  0  0  0  0  0  0  0  0  0  0  0
   31.2391   27.3563   50.4166 H   0  0  0  0  0  0  0  0  0  0  0  0
   28.8497   27.9683   50.6199 H   0  0  0  0  0  0  0  0  0  0  0  0
   28.8396   29.0535   46.5509 H   0  0  0  0  0  0  0  0  0  0  0  0
  2  1  2  0
  3  2  1  0
  4  3  2  0
  4  5  1  0
  5  6  2  0
  6  1  1  0
  7  8  2  0
  7  3  1  0
  9  8  1  0
 10  9  2  0
 11 10  1  0
 11 12  2  0
 12  7  1  0
 13  5  1  0
 14 13  1  0
 15 16  1  0
 15 14  1  0
 16 17  2  0
 17 18  1  0
 19 18  2  0
 20 19  1  0
 21 20  2  0
 21 16  1  0
  1 22  1  0
  2 23  1  0
  8 24  1  0
  9 25  1  0
 10 26  1  0
 11 27  1  0
 12 28  1  0
 14 29  1  0
 14 30  1  0
 15 31  1  0
 15 32  1  0
 17 33  1  0
 18 34  1  0
 20 35  1  0
M  ISO  8  22  14  23  14  24  14  25  14  26  14  27  14  28  14  29   8
M  ISO  6  30   8  31   8  32   8  33  14  34  14  35  14
M  END
>  <minimizedAffinity>  (1) 
-5.95751762

>  <minimizedRMSD>  (1) 
0.515621603

$$$$
