
     RDKit          3D

 32 34  0  0  0  0  0  0  0  0999 V2000
   34.9810   28.2470   49.5520 O   0  0  0  0  0  0  0  0  0  0  0  0
   37.4130   30.2240   51.3590 C   0  0  0  0  0  0  0  0  0  0  0  0
   37.9480   30.9940   50.2980 C   0  0  0  0  0  0  0  0  0  0  0  0
   37.4300   30.7770   49.0190 C   0  0  0  0  0  0  0  0  0  0  0  0
   36.4490   29.8440   48.8800 N   0  0  0  0  0  0  0  0  0  0  0  0
   35.9670   29.1320   49.9170 C   0  0  0  0  0  0  0  0  0  0  0  0
   36.4580   29.3280   51.1710 N   0  0  0  0  0  0  0  0  0  0  0  0
   37.9360   31.5300   47.9040 C   0  0  0  0  0  0  0  0  0  0  0  0
   38.8760   32.5280   47.9270 C   0  0  0  0  0  0  0  0  0  0  0  0
   39.0090   32.9180   46.6360 N   0  0  0  0  0  0  0  0  0  0  0  0
   38.1750   32.1810   45.8520 C   0  0  0  0  0  0  0  0  0  0  0  0
   37.5140   31.3220   46.6490 N   0  0  0  0  0  0  0  0  0  0  0  0
   34.2540   28.5320   48.3600 C   0  0  0  0  0  0  0  0  0  0  0  0
   33.3170   27.3950   48.0410 C   0  0  0  0  0  0  0  0  0  0  0  0
   31.9090   27.8500   47.8990 C   0  0  0  0  0  0  0  0  0  0  0  0
   31.0480   27.5570   48.9360 C   0  0  0  0  0  0  0  0  0  0  0  0
   29.7240   27.9230   48.9230 C   0  0  0  0  0  0  0  0  0  0  0  0
   29.2540   28.5900   47.8670 N   0  0  0  0  0  0  0  0  0  0  0  0
   30.0940   28.8800   46.8470 C   0  0  0  0  0  0  0  0  0  0  0  0
   31.3980   28.5270   46.8440 N   0  0  0  0  0  0  0  0  0  0  0  0
   37.8052   30.3762   52.3754 H   0  0  0  0  0  0  0  0  0  0  0  0
   38.7416   31.7351   50.4743 H   0  0  0  0  0  0  0  0  0  0  0  0
   39.4074   32.9261   48.8040 H   0  0  0  0  0  0  0  0  0  0  0  0
   39.6427   33.6573   46.3001 H   0  0  0  0  0  0  0  0  0  0  0  0
   38.0618   32.2717   44.7616 H   0  0  0  0  0  0  0  0  0  0  0  0
   33.6719   29.4547   48.5006 H   0  0  0  0  0  0  0  0  0  0  0  0
   34.9621   28.6596   47.5279 H   0  0  0  0  0  0  0  0  0  0  0  0
   33.6352   26.9280   47.0972 H   0  0  0  0  0  0  0  0  0  0  0  0
   33.3579   26.6797   48.8757 H   0  0  0  0  0  0  0  0  0  0  0  0
   31.4366   27.0091   49.8071 H   0  0  0  0  0  0  0  0  0  0  0  0
   29.0642   27.6712   49.7664 H   0  0  0  0  0  0  0  0  0  0  0  0
   29.6969   29.4285   45.9801 H   0  0  0  0  0  0  0  0  0  0  0  0
  1  6  1  0
  3  2  2  0
  4  3  1  0
  5  4  2  0
  5  6  1  0
  6  7  2  0
  7  2  1  0
  8  9  2  0
  8  4  1  0
 10  9  1  0
 11 10  1  0
 11 12  2  0
 12  8  1  0
 13  1  1  0
 14 13  1  0
 15 14  1  0
 15 16  2  0
 17 16  1  0
 18 17  2  0
 19 18  1  0
 20 19  2  0
 20 15  1  0
  2 21  1  0
  3 22  1  0
  9 23  1  0
 10 24  1  0
 11 25  1  0
 13 26  1  0
 13 27  1  0
 14 28  1  0
 14 29  1  0
 16 30  1  0
 17 31  1  0
 19 32  1  0
M  ISO  8  21  14  22  14  23  14  24   9  25  14  26   8  27   8  28   8
M  ISO  4  29   8  30  14  31  14  32  14
M  END
>  <minimizedAffinity>  (1) 
-5.58911848

>  <minimizedRMSD>  (1) 
0.915410876

$$$$
