
     RDKit          3D

 35 37  0  0  0  0  0  0  0  0999 V2000
   37.3310   30.1750   51.5130 C   0  0  0  0  0  0  0  0  0  0  0  0
   38.0740   30.8650   50.5170 C   0  0  0  0  0  0  0  0  0  0  0  0
   37.7110   30.6520   49.2010 C   0  0  0  0  0  0  0  0  0  0  0  0
   36.6650   29.7930   48.9730 N   0  0  0  0  0  0  0  0  0  0  0  0
   35.9890   29.1600   49.9290 C   0  0  0  0  0  0  0  0  0  0  0  0
   36.3330   29.3600   51.2150 N   0  0  0  0  0  0  0  0  0  0  0  0
   38.9420   33.2670   49.0010 F   0  0  0  0  0  0  0  0  0  0  0  0
   38.9180   32.4770   47.9360 C   0  0  0  0  0  0  0  0  0  0  0  0
   38.3360   31.2560   48.0500 C   0  0  0  0  0  0  0  0  0  0  0  0
   38.3720   30.5190   46.8670 C   0  0  0  0  0  0  0  0  0  0  0  0
   38.9410   30.9860   45.7050 C   0  0  0  0  0  0  0  0  0  0  0  0
   39.5150   32.2270   45.6430 C   0  0  0  0  0  0  0  0  0  0  0  0
   39.4970   32.9800   46.7900 C   0  0  0  0  0  0  0  0  0  0  0  0
   34.9970   28.3620   49.4410 O   0  0  0  0  0  0  0  0  0  0  0  0
   34.4470   28.6570   48.1630 C   0  0  0  0  0  0  0  0  0  0  0  0
   33.5650   27.5320   47.7080 C   0  0  0  0  0  0  0  0  0  0  0  0
   32.1270   27.9040   47.6970 C   0  0  0  0  0  0  0  0  0  0  0  0
   31.3540   27.5110   48.7850 C   0  0  0  0  0  0  0  0  0  0  0  0
   30.0180   27.8050   48.8710 C   0  0  0  0  0  0  0  0  0  0  0  0
   29.4410   28.4820   47.8890 N   0  0  0  0  0  0  0  0  0  0  0  0
   30.1970   28.8680   46.8200 C   0  0  0  0  0  0  0  0  0  0  0  0
   31.5180   28.5960   46.7030 N   0  0  0  0  0  0  0  0  0  0  0  0
   37.5957   30.3243   52.5702 H   0  0  0  0  0  0  0  0  0  0  0  0
   38.9018   31.5391   50.7823 H   0  0  0  0  0  0  0  0  0  0  0  0
   37.9233   29.5147   46.8627 H   0  0  0  0  0  0  0  0  0  0  0  0
   38.9346   30.3495   44.8079 H   0  0  0  0  0  0  0  0  0  0  0  0
   39.9703   32.6038   44.7153 H   0  0  0  0  0  0  0  0  0  0  0  0
   39.9444   33.9849   46.7953 H   0  0  0  0  0  0  0  0  0  0  0  0
   33.8538   29.5811   48.2269 H   0  0  0  0  0  0  0  0  0  0  0  0
   35.2661   28.7866   47.4403 H   0  0  0  0  0  0  0  0  0  0  0  0
   33.8617   27.2411   46.6895 H   0  0  0  0  0  0  0  0  0  0  0  0
   33.6896   26.7018   48.4188 H   0  0  0  0  0  0  0  0  0  0  0  0
   31.8295   26.9472   49.6011 H   0  0  0  0  0  0  0  0  0  0  0  0
   29.4321   27.4829   49.7445 H   0  0  0  0  0  0  0  0  0  0  0  0
   29.7070   29.4297   46.0110 H   0  0  0  0  0  0  0  0  0  0  0  0
  2  1  2  0
  3  2  1  0
  4  3  2  0
  4  5  1  0
  5  6  2  0
  6  1  1  0
  8  9  2  0
  8  7  1  0
  9  3  1  0
 10  9  1  0
 11 10  2  0
 12 11  1  0
 12 13  2  0
 13  8  1  0
 14  5  1  0
 15 14  1  0
 16 15  1  0
 17 16  1  0
 17 18  2  0
 18 19  1  0
 20 19  2  0
 21 20  1  0
 22 21  2  0
 22 17  1  0
  1 23  1  0
  2 24  1  0
 10 25  1  0
 11 26  1  0
 12 27  1  0
 13 28  1  0
 15 29  1  0
 15 30  1  0
 16 31  1  0
 16 32  1  0
 18 33  1  0
 19 34  1  0
 21 35  1  0
M  ISO  8  23  14  24  14  25  14  26  14  27  14  28  14  29   8  30   8
M  ISO  5  31   8  32   8  33  14  34  14  35  14
M  END
>  <minimizedAffinity>  (1) 
-6.2351284

>  <minimizedRMSD>  (1) 
0.935564697

$$$$
