
     RDKit          3D

 36 38  0  0  0  0  0  0  0  0999 V2000
   38.9030   31.9370   46.2320 C   0  0  0  0  0  0  0  0  0  0  0  0
   40.1550   31.3630   46.0690 C   0  0  0  0  0  0  0  0  0  0  0  0
   40.7350   31.2850   44.7890 C   0  0  0  0  0  0  0  0  0  0  0  0
   39.9960   31.8010   43.7620 N   0  0  0  0  0  0  0  0  0  0  0  0
   38.7640   32.3610   43.9600 C   0  0  0  0  0  0  0  0  0  0  0  0
   38.2370   32.4230   45.1720 N   0  0  0  0  0  0  0  0  0  0  0  0
   38.0510   32.8850   42.7960 C   0  0  0  0  0  0  0  0  0  0  0  0
   38.7150   33.4320   41.7370 C   0  0  0  0  0  0  0  0  0  0  0  0
   38.1440   33.9480   40.6040 C   0  0  0  0  0  0  0  0  0  0  0  0
   36.7660   33.8960   40.5610 C   0  0  0  0  0  0  0  0  0  0  0  0
   36.1500   34.3980   39.4550 N   0  0  0  0  0  0  0  0  0  0  0  0
   34.8170   34.3790   39.3480 C   0  0  0  0  0  0  0  0  0  0  0  0
   34.0060   33.8520   40.3510 C   0  0  0  0  0  0  0  0  0  0  0  0
   34.6650   33.3540   41.4550 C   0  0  0  0  0  0  0  0  0  0  0  0
   36.0360   33.3570   41.5980 C   0  0  0  0  0  0  0  0  0  0  0  0
   36.6770   32.8490   42.7190 C   0  0  0  0  0  0  0  0  0  0  0  0
   38.5030   31.9220   47.5490 O   0  0  0  0  0  0  0  0  0  0  0  0
   37.3110   31.3000   47.8440 C   0  0  0  0  0  0  0  0  0  0  0  0
   37.7670   30.4030   48.7430 C   0  0  0  0  0  0  0  0  0  0  0  0
   38.1210   30.9070   50.1050 C   0  0  0  0  0  0  0  0  0  0  0  0
   37.2860   30.0110   51.4140 S   0  0  0  0  0  0  0  0  0  0  0  0
   40.6957   30.9680   46.9417 H   0  0  0  0  0  0  0  0  0  0  0  0
   41.7252   30.8350   44.6250 H   0  0  0  0  0  0  0  0  0  0  0  0
   39.8129   33.4614   41.7990 H   0  0  0  0  0  0  0  0  0  0  0  0
   38.7425   34.3742   39.7853 H   0  0  0  0  0  0  0  0  0  0  0  0
   34.3476   34.7911   38.4425 H   0  0  0  0  0  0  0  0  0  0  0  0
   32.9093   33.8344   40.2673 H   0  0  0  0  0  0  0  0  0  0  0  0
   34.0608   32.9291   42.2701 H   0  0  0  0  0  0  0  0  0  0  0  0
   36.0892   32.4190   43.5433 H   0  0  0  0  0  0  0  0  0  0  0  0
   36.5803   31.9937   48.2855 H   0  0  0  0  0  0  0  0  0  0  0  0
   36.7677   30.8795   46.9849 H   0  0  0  0  0  0  0  0  0  0  0  0
   36.9876   29.6369   48.8679 H   0  0  0  0  0  0  0  0  0  0  0  0
   38.7178   30.0443   48.3220 H   0  0  0  0  0  0  0  0  0  0  0  0
   39.2071   30.8052   50.2464 H   0  0  0  0  0  0  0  0  0  0  0  0
   37.7993   31.9572   50.1642 H   0  0  0  0  0  0  0  0  0  0  0  0
   37.7163   30.4728   52.6299 H   0  0  0  0  0  0  0  0  0  0  0  0
  1 17  1  0
  2  1  2  0
  3  2  1  0
  4  5  1  0
  4  3  2  0
  5  6  2  0
  6  1  1  0
  7  5  1  0
  8  7  2  0
  9  8  1  0
 10  9  2  0
 10 15  1  0
 11 10  1  0
 12 11  2  0
 12 13  1  0
 13 14  2  0
 14 15  1  0
 15 16  2  0
 16  7  1  0
 17 18  1  0
 18 19  1  0
 19 20  1  0
 20 21  1  0
  2 22  1  0
  3 23  1  0
  8 24  1  0
  9 25  1  0
 12 26  1  0
 13 27  1  0
 14 28  1  0
 16 29  1  0
 18 30  1  0
 18 31  1  0
 19 32  1  0
 19 33  1  0
 20 34  1  0
 20 35  1  0
 21 36  1  0
M  ISO  8  22  14  23  14  24  14  25  14  26  14  27  14  28  14  29  14
M  ISO  7  30   8  31   8  32   8  33   8  34   8  35   8  36  11
M  END
>  <minimizedAffinity>  (1) 
-4.71257496

>  <minimizedRMSD>  (1) 
1.58326364

$$$$
