
     RDKit          3D

 44 47  0  0  0  0  0  0  0  0999 V2000
   34.4480   29.1030   47.7210 C   0  0  0  0  0  0  0  0  0  0  0  0
   33.7390   28.0590   46.9310 C   0  0  0  0  0  0  0  0  0  0  0  0
   32.3180   27.8820   47.3530 C   0  0  0  0  0  0  0  0  0  0  0  0
   32.0240   26.8050   48.1670 C   0  0  0  0  0  0  0  0  0  0  0  0
   30.7510   26.5610   48.6050 C   0  0  0  0  0  0  0  0  0  0  0  0
   29.7670   27.3840   48.2370 N   0  0  0  0  0  0  0  0  0  0  0  0
   30.0610   28.4400   47.4380 C   0  0  0  0  0  0  0  0  0  0  0  0
   31.3070   28.7030   46.9930 N   0  0  0  0  0  0  0  0  0  0  0  0
   28.9470   29.3130   47.0630 C   0  0  0  0  0  0  0  0  0  0  0  0
   27.8970   29.5440   47.9340 C   0  0  0  0  0  0  0  0  0  0  0  0
   26.8290   30.3620   47.6130 C   0  0  0  0  0  0  0  0  0  0  0  0
   26.8660   30.9520   46.3440 C   0  0  0  0  0  0  0  0  0  0  0  0
   27.9340   30.6970   45.4950 C   0  0  0  0  0  0  0  0  0  0  0  0
   28.9460   29.8960   45.8560 N   0  0  0  0  0  0  0  0  0  0  0  0
   35.1160   28.5210   48.8450 O   0  0  0  0  0  0  0  0  0  0  0  0
   37.2670   30.0680   51.2890 C   0  0  0  0  0  0  0  0  0  0  0  0
   38.0830   30.8660   50.4450 C   0  0  0  0  0  0  0  0  0  0  0  0
   37.8350   30.8160   49.0810 C   0  0  0  0  0  0  0  0  0  0  0  0
   36.8080   29.9870   48.6790 N   0  0  0  0  0  0  0  0  0  0  0  0
   36.0680   29.2560   49.4960 C   0  0  0  0  0  0  0  0  0  0  0  0
   36.3060   29.3010   50.8200 N   0  0  0  0  0  0  0  0  0  0  0  0
   38.8500   33.5230   49.2140 F   0  0  0  0  0  0  0  0  0  0  0  0
   39.0290   32.8170   48.1140 C   0  0  0  0  0  0  0  0  0  0  0  0
   38.5470   31.5470   48.0660 C   0  0  0  0  0  0  0  0  0  0  0  0
   38.7950   30.9060   46.8620 C   0  0  0  0  0  0  0  0  0  0  0  0
   39.4640   31.4900   45.8100 C   0  0  0  0  0  0  0  0  0  0  0  0
   39.9330   32.7770   45.9070 C   0  0  0  0  0  0  0  0  0  0  0  0
   39.7070   33.4390   47.0780 C   0  0  0  0  0  0  0  0  0  0  0  0
   33.7173   29.8432   48.0789 H   0  0  0  0  0  0  0  0  0  0  0  0
   35.1968   29.5864   47.0763 H   0  0  0  0  0  0  0  0  0  0  0  0
   34.2660   27.1021   47.0597 H   0  0  0  0  0  0  0  0  0  0  0  0
   33.7351   28.3836   45.8800 H   0  0  0  0  0  0  0  0  0  0  0  0
   32.8344   26.1261   48.4708 H   0  0  0  0  0  0  0  0  0  0  0  0
   30.5411   25.6970   49.2526 H   0  0  0  0  0  0  0  0  0  0  0  0
   27.9123   29.0579   48.9206 H   0  0  0  0  0  0  0  0  0  0  0  0
   25.9994   30.5386   48.3135 H   0  0  0  0  0  0  0  0  0  0  0  0
   26.0508   31.6159   46.0206 H   0  0  0  0  0  0  0  0  0  0  0  0
   27.9502   31.1647   44.4995 H   0  0  0  0  0  0  0  0  0  0  0  0
   37.4444   30.0916   52.3743 H   0  0  0  0  0  0  0  0  0  0  0  0
   38.8819   31.5001   50.8570 H   0  0  0  0  0  0  0  0  0  0  0  0
   38.4372   29.8729   46.7404 H   0  0  0  0  0  0  0  0  0  0  0  0
   39.6244   30.9202   44.8828 H   0  0  0  0  0  0  0  0  0  0  0  0
   40.4693   33.2548   45.0739 H   0  0  0  0  0  0  0  0  0  0  0  0
   40.0648   34.4719   47.2005 H   0  0  0  0  0  0  0  0  0  0  0  0
  1 15  1  0
  2  3  1  0
  2  1  1  0
  3  4  2  0
  4  5  1  0
  6  5  2  0
  7  6  1  0
  8  3  1  0
  8  7  2  0
  9  7  1  0
  9 10  2  0
 11 10  1  0
 12 11  2  0
 13 14  2  0
 13 12  1  0
 14  9  1  0
 15 20  1  0
 17 16  2  0
 18 17  1  0
 19 18  2  0
 19 20  1  0
 20 21  2  0
 21 16  1  0
 23 22  1  0
 24 23  2  0
 24 18  1  0
 25 24  1  0
 26 27  1  0
 26 25  2  0
 27 28  2  0
 28 23  1  0
  1 29  1  0
  1 30  1  0
  2 31  1  0
  2 32  1  0
  4 33  1  0
  5 34  1  0
 10 35  1  0
 11 36  1  0
 12 37  1  0
 13 38  1  0
 16 39  1  0
 17 40  1  0
 25 41  1  0
 26 42  1  0
 27 43  1  0
 28 44  1  0
M  ISO  8  29   8  30   8  31   8  32   8  33  14  34  14  35  14  36  14
M  ISO  8  37  14  38  14  39  14  40  14  41  14  42  14  43  14  44  14
M  END
>  <minimizedAffinity>  (1) 
-6.88753986

>  <minimizedRMSD>  (1) 
1.22814882

$$$$
