
     RDKit          3D

 38 40  0  0  0  0  0  0  0  0999 V2000
   37.1460   30.0150   51.2820 C   0  0  0  0  0  0  0  0  0  0  0  0
   37.9540   30.7870   50.4230 C   0  0  0  0  0  0  0  0  0  0  0  0
   37.7140   30.7140   49.0690 C   0  0  0  0  0  0  0  0  0  0  0  0
   36.6950   29.8820   48.6710 N   0  0  0  0  0  0  0  0  0  0  0  0
   35.9480   29.1630   49.5040 C   0  0  0  0  0  0  0  0  0  0  0  0
   36.1720   29.2280   50.8260 N   0  0  0  0  0  0  0  0  0  0  0  0
   38.8040   33.3920   49.1880 F   0  0  0  0  0  0  0  0  0  0  0  0
   38.9470   32.6750   48.0800 C   0  0  0  0  0  0  0  0  0  0  0  0
   38.4320   31.4260   48.0430 C   0  0  0  0  0  0  0  0  0  0  0  0
   38.6470   30.7720   46.8240 C   0  0  0  0  0  0  0  0  0  0  0  0
   39.3140   31.3520   45.7830 C   0  0  0  0  0  0  0  0  0  0  0  0
   39.8170   32.6170   45.8690 C   0  0  0  0  0  0  0  0  0  0  0  0
   39.6230   33.2800   47.0440 C   0  0  0  0  0  0  0  0  0  0  0  0
   35.0000   28.4180   48.8590 O   0  0  0  0  0  0  0  0  0  0  0  0
   34.2430   29.0240   47.8220 C   0  0  0  0  0  0  0  0  0  0  0  0
   33.3700   28.0020   47.1450 C   0  0  0  0  0  0  0  0  0  0  0  0
   31.9550   28.0920   47.5630 C   0  0  0  0  0  0  0  0  0  0  0  0
   31.6000   27.5130   48.7810 C   0  0  0  0  0  0  0  0  0  0  0  0
   30.3160   27.5450   49.2520 C   0  0  0  0  0  0  0  0  0  0  0  0
   29.3740   28.1430   48.5360 N   0  0  0  0  0  0  0  0  0  0  0  0
   29.7200   28.7120   47.3410 C   0  0  0  0  0  0  0  0  0  0  0  0
   30.9840   28.7020   46.8380 N   0  0  0  0  0  0  0  0  0  0  0  0
   28.7320   29.4100   46.4600 C   0  0  0  0  0  0  0  0  0  0  0  0
   28.0080   28.4420   45.7520 F   0  0  0  0  0  0  0  0  0  0  0  0
   29.3280   30.2810   45.5890 F   0  0  0  0  0  0  0  0  0  0  0  0
   27.7930   30.0830   47.2140 F   0  0  0  0  0  0  0  0  0  0  0  0
   37.3256   30.0638   52.3661 H   0  0  0  0  0  0  0  0  0  0  0  0
   38.7529   31.4290   50.8225 H   0  0  0  0  0  0  0  0  0  0  0  0
   38.2628   29.7488   46.6996 H   0  0  0  0  0  0  0  0  0  0  0  0
   39.4492   30.7841   44.8507 H   0  0  0  0  0  0  0  0  0  0  0  0
   40.3545   33.0807   45.0287 H   0  0  0  0  0  0  0  0  0  0  0  0
   40.0082   34.3032   47.1653 H   0  0  0  0  0  0  0  0  0  0  0  0
   33.6099   29.8152   48.2501 H   0  0  0  0  0  0  0  0  0  0  0  0
   34.9327   29.4525   47.0799 H   0  0  0  0  0  0  0  0  0  0  0  0
   33.7466   26.9985   47.3924 H   0  0  0  0  0  0  0  0  0  0  0  0
   33.4093   28.1967   46.0631 H   0  0  0  0  0  0  0  0  0  0  0  0
   32.3760   27.0155   49.3812 H   0  0  0  0  0  0  0  0  0  0  0  0
   30.0673   27.0785   50.2166 H   0  0  0  0  0  0  0  0  0  0  0  0
  2  1  2  0
  3  2  1  0
  4  3  2  0
  4  5  1  0
  5  6  2  0
  6  1  1  0
  8  7  1  0
  9  8  2  0
  9  3  1  0
 10  9  1  0
 11 12  1  0
 11 10  2  0
 12 13  2  0
 13  8  1  0
 14  5  1  0
 15 14  1  0
 16 17  1  0
 16 15  1  0
 17 18  2  0
 18 19  1  0
 20 19  2  0
 21 20  1  0
 22 21  2  0
 22 17  1  0
 23 26  1  0
 23 21  1  0
 24 23  1  0
 25 23  1  0
  1 27  1  0
  2 28  1  0
 10 29  1  0
 11 30  1  0
 12 31  1  0
 13 32  1  0
 15 33  1  0
 15 34  1  0
 16 35  1  0
 16 36  1  0
 18 37  1  0
 19 38  1  0
M  ISO  8  27  14  28  14  29  14  30  14  31  14  32  14  33   8  34   8
M  ISO  4  35   8  36   8  37  14  38  14
M  END
>  <minimizedAffinity>  (1) 
-6.41837168

>  <minimizedRMSD>  (1) 
0.750956059

$$$$
