
     RDKit          3D

 37 39  0  0  0  0  0  0  0  0999 V2000
   37.3310   30.1770   51.5120 C   0  0  0  0  0  0  0  0  0  0  0  0
   38.0700   30.8650   50.5090 C   0  0  0  0  0  0  0  0  0  0  0  0
   37.7030   30.6460   49.1870 C   0  0  0  0  0  0  0  0  0  0  0  0
   36.6630   29.7890   48.9730 N   0  0  0  0  0  0  0  0  0  0  0  0
   35.9870   29.1580   49.9260 C   0  0  0  0  0  0  0  0  0  0  0  0
   36.3270   29.3550   51.2140 N   0  0  0  0  0  0  0  0  0  0  0  0
   38.9470   33.2490   48.9900 F   0  0  0  0  0  0  0  0  0  0  0  0
   38.9190   32.4680   47.9240 C   0  0  0  0  0  0  0  0  0  0  0  0
   38.3300   31.2480   48.0400 C   0  0  0  0  0  0  0  0  0  0  0  0
   38.3590   30.5140   46.8580 C   0  0  0  0  0  0  0  0  0  0  0  0
   38.9230   30.9660   45.6900 C   0  0  0  0  0  0  0  0  0  0  0  0
   39.5070   32.2120   45.6310 C   0  0  0  0  0  0  0  0  0  0  0  0
   39.4970   32.9610   46.7710 C   0  0  0  0  0  0  0  0  0  0  0  0
   34.9980   28.3600   49.4340 O   0  0  0  0  0  0  0  0  0  0  0  0
   34.4330   28.6500   48.1670 C   0  0  0  0  0  0  0  0  0  0  0  0
   33.5540   27.5320   47.7150 C   0  0  0  0  0  0  0  0  0  0  0  0
   32.1150   27.8900   47.7550 C   0  0  0  0  0  0  0  0  0  0  0  0
   31.3700   27.4850   48.8470 C   0  0  0  0  0  0  0  0  0  0  0  0
   30.0350   27.7610   48.9850 C   0  0  0  0  0  0  0  0  0  0  0  0
   29.4290   28.4450   48.0340 N   0  0  0  0  0  0  0  0  0  0  0  0
   30.1520   28.8490   46.9530 C   0  0  0  0  0  0  0  0  0  0  0  0
   31.4660   28.5910   46.7930 N   0  0  0  0  0  0  0  0  0  0  0  0
   29.5390   29.5970   45.8890 N   0  0  0  0  0  0  0  0  0  0  0  0
   37.5981   30.3294   52.5681 H   0  0  0  0  0  0  0  0  0  0  0  0
   38.8971   31.5418   50.7695 H   0  0  0  0  0  0  0  0  0  0  0  0
   37.9034   29.5128   46.8592 H   0  0  0  0  0  0  0  0  0  0  0  0
   38.9081   30.3276   44.7943 H   0  0  0  0  0  0  0  0  0  0  0  0
   39.9626   32.5876   44.7029 H   0  0  0  0  0  0  0  0  0  0  0  0
   39.9516   33.9627   46.7718 H   0  0  0  0  0  0  0  0  0  0  0  0
   33.8370   29.5717   48.2395 H   0  0  0  0  0  0  0  0  0  0  0  0
   35.2461   28.7787   47.4374 H   0  0  0  0  0  0  0  0  0  0  0  0
   33.7203   26.6649   48.3711 H   0  0  0  0  0  0  0  0  0  0  0  0
   33.8131   27.3039   46.6706 H   0  0  0  0  0  0  0  0  0  0  0  0
   31.8724   26.9146   49.6421 H   0  0  0  0  0  0  0  0  0  0  0  0
   29.4799   27.4190   49.8710 H   0  0  0  0  0  0  0  0  0  0  0  0
   30.1008   29.8946   45.0786 H   0  0  0  0  0  0  0  0  0  0  0  0
   28.5381   29.8352   45.9372 H   0  0  0  0  0  0  0  0  0  0  0  0
  2  1  2  0
  3  2  1  0
  4  3  2  0
  4  5  1  0
  5  6  2  0
  6  1  1  0
  8  9  2  0
  8  7  1  0
  9  3  1  0
 10  9  1  0
 11 10  2  0
 12 11  1  0
 12 13  2  0
 13  8  1  0
 14  5  1  0
 15 14  1  0
 16 17  1  0
 16 15  1  0
 17 18  2  0
 18 19  1  0
 20 19  2  0
 21 20  1  0
 22 21  2  0
 22 17  1  0
 23 21  1  0
  1 24  1  0
  2 25  1  0
 10 26  1  0
 11 27  1  0
 12 28  1  0
 13 29  1  0
 15 30  1  0
 15 31  1  0
 16 32  1  0
 16 33  1  0
 18 34  1  0
 19 35  1  0
 23 36  1  0
 23 37  1  0
M  ISO  8  24  14  25  14  26  14  27  14  28  14  29  14  30   8  31   8
M  ISO  4  32   8  33   8  34  14  35  14
M  END
>  <minimizedAffinity>  (1) 
-6.37670708

>  <minimizedRMSD>  (1) 
0.0695071816

$$$$
