
     RDKit          3D

 36 38  0  0  0  0  0  0  0  0999 V2000
   37.3310   30.1790   51.5060 C   0  0  0  0  0  0  0  0  0  0  0  0
   38.0680   30.8690   50.5180 C   0  0  0  0  0  0  0  0  0  0  0  0
   37.7120   30.6570   49.2010 C   0  0  0  0  0  0  0  0  0  0  0  0
   36.6690   29.7910   48.9720 N   0  0  0  0  0  0  0  0  0  0  0  0
   35.9960   29.1570   49.9280 C   0  0  0  0  0  0  0  0  0  0  0  0
   36.3390   29.3600   51.2210 N   0  0  0  0  0  0  0  0  0  0  0  0
   38.9410   33.2630   49.0060 F   0  0  0  0  0  0  0  0  0  0  0  0
   38.9180   32.4840   47.9450 C   0  0  0  0  0  0  0  0  0  0  0  0
   38.3380   31.2640   48.0500 C   0  0  0  0  0  0  0  0  0  0  0  0
   38.3650   30.5130   46.8640 C   0  0  0  0  0  0  0  0  0  0  0  0
   38.9370   30.9920   45.7020 C   0  0  0  0  0  0  0  0  0  0  0  0
   39.5090   32.2320   45.6510 C   0  0  0  0  0  0  0  0  0  0  0  0
   39.4950   32.9820   46.7880 C   0  0  0  0  0  0  0  0  0  0  0  0
   35.0070   28.3540   49.4450 O   0  0  0  0  0  0  0  0  0  0  0  0
   34.4440   28.6520   48.1800 C   0  0  0  0  0  0  0  0  0  0  0  0
   33.5630   27.5310   47.7070 C   0  0  0  0  0  0  0  0  0  0  0  0
   32.1200   27.8950   47.7300 C   0  0  0  0  0  0  0  0  0  0  0  0
   31.3570   27.4950   48.8190 C   0  0  0  0  0  0  0  0  0  0  0  0
   30.0270   27.7820   48.9270 C   0  0  0  0  0  0  0  0  0  0  0  0
   29.4340   28.4740   47.9510 N   0  0  0  0  0  0  0  0  0  0  0  0
   30.1770   28.8700   46.8790 C   0  0  0  0  0  0  0  0  0  0  0  0
   31.5060   28.5930   46.7520 N   0  0  0  0  0  0  0  0  0  0  0  0
   29.5060   29.5770   45.9130 O   0  0  0  0  0  0  0  0  0  0  0  0
   37.5976   30.3325   52.5621 H   0  0  0  0  0  0  0  0  0  0  0  0
   38.8914   31.5471   50.7868 H   0  0  0  0  0  0  0  0  0  0  0  0
   37.9153   29.5091   46.8603 H   0  0  0  0  0  0  0  0  0  0  0  0
   38.9321   30.3630   44.7996 H   0  0  0  0  0  0  0  0  0  0  0  0
   39.9647   32.6111   44.7244 H   0  0  0  0  0  0  0  0  0  0  0  0
   39.9433   33.9865   46.7876 H   0  0  0  0  0  0  0  0  0  0  0  0
   33.8452   29.5713   48.2600 H   0  0  0  0  0  0  0  0  0  0  0  0
   35.2604   28.7867   47.4552 H   0  0  0  0  0  0  0  0  0  0  0  0
   33.7181   26.6600   48.3607 H   0  0  0  0  0  0  0  0  0  0  0  0
   33.8358   27.3068   46.6652 H   0  0  0  0  0  0  0  0  0  0  0  0
   31.8427   26.9254   49.6250 H   0  0  0  0  0  0  0  0  0  0  0  0
   29.4528   27.4486   49.8040 H   0  0  0  0  0  0  0  0  0  0  0  0
   29.9870   29.8945   45.1080 H   0  0  0  0  0  0  0  0  0  0  0  0
  2  1  2  0
  3  2  1  0
  4  3  2  0
  4  5  1  0
  5  6  2  0
  6  1  1  0
  8  9  2  0
  8  7  1  0
  9  3  1  0
 10  9  1  0
 11 10  2  0
 12 11  1  0
 12 13  2  0
 13  8  1  0
 14  5  1  0
 15 14  1  0
 16 17  1  0
 16 15  1  0
 17 18  2  0
 18 19  1  0
 20 19  2  0
 21 20  1  0
 22 21  2  0
 22 17  1  0
 23 21  1  0
  1 24  1  0
  2 25  1  0
 10 26  1  0
 11 27  1  0
 12 28  1  0
 13 29  1  0
 15 30  1  0
 15 31  1  0
 16 32  1  0
 16 33  1  0
 18 34  1  0
 19 35  1  0
 23 36  1  0
M  ISO  8  24  14  25  14  26  14  27  14  28  14  29  14  30   8  31   8
M  ISO  5  32   8  33   8  34  14  35  14  36   3
M  END
>  <minimizedAffinity>  (1) 
-6.36586857

>  <minimizedRMSD>  (1) 
0.0315397568

$$$$
