
     RDKit          3D

 36 38  0  0  0  0  0  0  0  0999 V2000
   37.3320   30.1750   51.5050 C   0  0  0  0  0  0  0  0  0  0  0  0
   38.0740   30.8630   50.5100 C   0  0  0  0  0  0  0  0  0  0  0  0
   37.7140   30.6550   49.1960 C   0  0  0  0  0  0  0  0  0  0  0  0
   36.6620   29.7940   48.9750 N   0  0  0  0  0  0  0  0  0  0  0  0
   35.9890   29.1660   49.9230 C   0  0  0  0  0  0  0  0  0  0  0  0
   36.3360   29.3650   51.2110 N   0  0  0  0  0  0  0  0  0  0  0  0
   38.9340   33.2650   49.0020 F   0  0  0  0  0  0  0  0  0  0  0  0
   38.9200   32.4840   47.9340 C   0  0  0  0  0  0  0  0  0  0  0  0
   38.3430   31.2610   48.0450 C   0  0  0  0  0  0  0  0  0  0  0  0
   38.3830   30.5230   46.8700 C   0  0  0  0  0  0  0  0  0  0  0  0
   38.9450   30.9710   45.7070 C   0  0  0  0  0  0  0  0  0  0  0  0
   39.5180   32.2180   45.6440 C   0  0  0  0  0  0  0  0  0  0  0  0
   39.5020   32.9770   46.7760 C   0  0  0  0  0  0  0  0  0  0  0  0
   34.9930   28.3690   49.4440 O   0  0  0  0  0  0  0  0  0  0  0  0
   34.4540   28.6550   48.1560 C   0  0  0  0  0  0  0  0  0  0  0  0
   33.5750   27.5300   47.7040 C   0  0  0  0  0  0  0  0  0  0  0  0
   32.1330   27.8920   47.7100 C   0  0  0  0  0  0  0  0  0  0  0  0
   31.3530   27.4890   48.7760 C   0  0  0  0  0  0  0  0  0  0  0  0
   30.0190   27.7800   48.8600 C   0  0  0  0  0  0  0  0  0  0  0  0
   29.4410   28.4680   47.9000 N   0  0  0  0  0  0  0  0  0  0  0  0
   30.2000   28.8770   46.8340 C   0  0  0  0  0  0  0  0  0  0  0  0
   31.5190   28.6010   46.7280 N   0  0  0  0  0  0  0  0  0  0  0  0
   29.6170   29.8260   45.4120 S   0  0  0  0  0  0  0  0  0  0  0  0
   37.5988   30.3239   52.5617 H   0  0  0  0  0  0  0  0  0  0  0  0
   38.9029   31.5351   50.7767 H   0  0  0  0  0  0  0  0  0  0  0  0
   37.9359   29.5180   46.8749 H   0  0  0  0  0  0  0  0  0  0  0  0
   38.9383   30.3279   44.8146 H   0  0  0  0  0  0  0  0  0  0  0  0
   39.9730   32.5902   44.7142 H   0  0  0  0  0  0  0  0  0  0  0  0
   39.9510   33.9812   46.7709 H   0  0  0  0  0  0  0  0  0  0  0  0
   33.8624   29.5810   48.2067 H   0  0  0  0  0  0  0  0  0  0  0  0
   35.2796   28.7768   47.4394 H   0  0  0  0  0  0  0  0  0  0  0  0
   33.7257   26.6731   48.3770 H   0  0  0  0  0  0  0  0  0  0  0  0
   33.8526   27.2864   46.6679 H   0  0  0  0  0  0  0  0  0  0  0  0
   31.8217   26.9128   49.5874 H   0  0  0  0  0  0  0  0  0  0  0  0
   29.4327   27.4401   49.7264 H   0  0  0  0  0  0  0  0  0  0  0  0
   28.9373   30.9324   45.8489 H   0  0  0  0  0  0  0  0  0  0  0  0
  2  1  2  0
  3  2  1  0
  4  3  2  0
  4  5  1  0
  5  6  2  0
  6  1  1  0
  8  9  2  0
  8  7  1  0
  9  3  1  0
 10  9  1  0
 11 10  2  0
 12 11  1  0
 12 13  2  0
 13  8  1  0
 14  5  1  0
 15 14  1  0
 16 17  1  0
 16 15  1  0
 17 18  2  0
 18 19  1  0
 20 19  2  0
 21 20  1  0
 22 21  2  0
 22 17  1  0
 23 21  1  0
  1 24  1  0
  2 25  1  0
 10 26  1  0
 11 27  1  0
 12 28  1  0
 13 29  1  0
 15 30  1  0
 15 31  1  0
 16 32  1  0
 16 33  1  0
 18 34  1  0
 19 35  1  0
 23 36  1  0
M  ISO  8  24  14  25  14  26  14  27  14  28  14  29  14  30   8  31   8
M  ISO  5  32   8  33   8  34  14  35  14  36  11
M  END
>  <minimizedAffinity>  (1) 
-6.35610676

>  <minimizedRMSD>  (1) 
0.0182606596

$$$$
