
     RDKit          3D

 38 40  0  0  0  0  0  0  0  0999 V2000
   37.3330   30.1770   51.5190 C   0  0  0  0  0  0  0  0  0  0  0  0
   38.0690   30.8660   50.5260 C   0  0  0  0  0  0  0  0  0  0  0  0
   37.7030   30.6540   49.2020 C   0  0  0  0  0  0  0  0  0  0  0  0
   36.6630   29.7930   48.9850 N   0  0  0  0  0  0  0  0  0  0  0  0
   35.9840   29.1530   49.9370 C   0  0  0  0  0  0  0  0  0  0  0  0
   36.3350   29.3570   51.2250 N   0  0  0  0  0  0  0  0  0  0  0  0
   38.9440   33.2640   49.0140 F   0  0  0  0  0  0  0  0  0  0  0  0
   38.9120   32.4750   47.9470 C   0  0  0  0  0  0  0  0  0  0  0  0
   38.3310   31.2630   48.0510 C   0  0  0  0  0  0  0  0  0  0  0  0
   38.3540   30.5210   46.8710 C   0  0  0  0  0  0  0  0  0  0  0  0
   38.9180   30.9870   45.7130 C   0  0  0  0  0  0  0  0  0  0  0  0
   39.5000   32.2310   45.6530 C   0  0  0  0  0  0  0  0  0  0  0  0
   39.4880   32.9730   46.7970 C   0  0  0  0  0  0  0  0  0  0  0  0
   34.9970   28.3580   49.4530 O   0  0  0  0  0  0  0  0  0  0  0  0
   34.4450   28.6440   48.1780 C   0  0  0  0  0  0  0  0  0  0  0  0
   33.5590   27.5270   47.7100 C   0  0  0  0  0  0  0  0  0  0  0  0
   32.1150   27.8920   47.7400 C   0  0  0  0  0  0  0  0  0  0  0  0
   31.3770   27.4740   48.8430 C   0  0  0  0  0  0  0  0  0  0  0  0
   30.0380   27.7600   48.9630 C   0  0  0  0  0  0  0  0  0  0  0  0
   29.4310   28.4570   48.0010 N   0  0  0  0  0  0  0  0  0  0  0  0
   30.1640   28.8570   46.9320 C   0  0  0  0  0  0  0  0  0  0  0  0
   31.4760   28.5950   46.7790 N   0  0  0  0  0  0  0  0  0  0  0  0
   29.4510   29.6360   45.8710 C   0  0  0  0  0  0  0  0  0  0  0  0
   37.5998   30.3281   52.5754 H   0  0  0  0  0  0  0  0  0  0  0  0
   38.8961   31.5411   50.7908 H   0  0  0  0  0  0  0  0  0  0  0  0
   37.9001   29.5190   46.8698 H   0  0  0  0  0  0  0  0  0  0  0  0
   38.9050   30.3536   44.8137 H   0  0  0  0  0  0  0  0  0  0  0  0
   39.9541   32.6101   44.7256 H   0  0  0  0  0  0  0  0  0  0  0  0
   39.9408   33.9755   46.8027 H   0  0  0  0  0  0  0  0  0  0  0  0
   33.8533   29.5691   48.2420 H   0  0  0  0  0  0  0  0  0  0  0  0
   35.2690   28.7610   47.4588 H   0  0  0  0  0  0  0  0  0  0  0  0
   33.7160   26.6555   48.3625 H   0  0  0  0  0  0  0  0  0  0  0  0
   33.8254   27.3046   46.6662 H   0  0  0  0  0  0  0  0  0  0  0  0
   31.8770   26.9011   49.6378 H   0  0  0  0  0  0  0  0  0  0  0  0
   29.4730   27.4179   49.8427 H   0  0  0  0  0  0  0  0  0  0  0  0
   28.7801   30.3690   46.3427 H   0  0  0  0  0  0  0  0  0  0  0  0
   30.1870   30.1621   45.2453 H   0  0  0  0  0  0  0  0  0  0  0  0
   28.8620   28.9493   45.2453 H   0  0  0  0  0  0  0  0  0  0  0  0
  2  1  2  0
  3  2  1  0
  4  3  2  0
  4  5  1  0
  5  6  2  0
  6  1  1  0
  8  9  2  0
  8  7  1  0
  9  3  1  0
 10  9  1  0
 11 10  2  0
 12 11  1  0
 12 13  2  0
 13  8  1  0
 14  5  1  0
 15 14  1  0
 16 17  1  0
 16 15  1  0
 17 18  2  0
 18 19  1  0
 20 19  2  0
 21 20  1  0
 22 21  2  0
 22 17  1  0
 23 21  1  0
  1 24  1  0
  2 25  1  0
 10 26  1  0
 11 27  1  0
 12 28  1  0
 13 29  1  0
 15 30  1  0
 15 31  1  0
 16 32  1  0
 16 33  1  0
 18 34  1  0
 19 35  1  0
 23 36  1  0
 23 37  1  0
 23 38  1  0
M  ISO  8  24  14  25  14  26  14  27  14  28  14  29  14  30   8  31   8
M  ISO  7  32   8  33   8  34  14  35  14  36   8  37   8  38   8
M  END
>  <minimizedAffinity>  (1) 
-6.38100576

>  <minimizedRMSD>  (1) 
0.0542288609

$$$$
