
     RDKit          3D

 40 42  0  0  1  0  0  0  0  0999 V2000
   38.7230   31.7380   46.6020 C   0  0  0  0  0  0  0  0  0  0  0  0
   39.7120   32.7160   46.4500 C   0  0  0  0  0  0  0  0  0  0  0  0
   40.5980   32.6120   45.3820 C   0  0  0  0  0  0  0  0  0  0  0  0
   40.4510   31.5500   44.5320 N   0  0  0  0  0  0  0  0  0  0  0  0
   39.4720   30.6130   44.7120 C   0  0  0  0  0  0  0  0  0  0  0  0
   38.6400   30.7260   45.7310 N   0  0  0  0  0  0  0  0  0  0  0  0
   37.9190   31.9750   47.7070 O   0  0  0  0  0  0  0  0  0  0  0  0
   37.0070   30.9940   48.0360 C   0  0  0  0  0  0  0  0  0  0  0  0
   37.7340   30.3140   48.9380 C   0  0  0  0  0  0  0  0  0  0  0  0
   37.9440   30.9360   50.2780 C   0  0  0  0  0  0  0  0  0  0  0  0
   37.2740   29.9390   51.6130 S   0  0  0  0  0  0  0  0  0  0  0  0
   39.3300   29.4660   43.7770 C   0  0  0  0  0  0  0  0  0  0  0  0
   38.8160   30.0170   42.4760 C   0  0  2  0  0  0  0  0  0  0  0  0
   38.3700   28.9610   41.4980 C   0  0  0  0  0  0  0  0  0  0  0  0
   39.5180   28.4120   40.8530 N   0  0  0  0  0  0  0  0  0  0  0  0
   40.4710   27.4690   40.3680 C   0  0  0  0  0  0  0  0  0  0  0  0
   40.5000   26.2530   40.0270 O   0  0  0  0  0  0  0  0  0  0  0  0
   41.4890   28.5510   40.4230 C   0  0  0  0  0  0  0  0  0  0  0  0
   40.3100   29.4490   40.2610 C   0  0  2  0  0  0  0  0  0  0  0  0
   40.1900   30.7560   41.5440 S   0  0  0  0  0  0  0  0  0  0  0  0
   37.7330   31.0200   42.7610 C   0  0  0  0  0  0  0  0  0  0  0  0
   39.7877   33.5515   47.1615 H   0  0  0  0  0  0  0  0  0  0  0  0
   41.3904   33.3589   45.2263 H   0  0  0  0  0  0  0  0  0  0  0  0
   36.0922   31.4150   48.4786 H   0  0  0  0  0  0  0  0  0  0  0  0
   36.6316   30.3990   47.1904 H   0  0  0  0  0  0  0  0  0  0  0  0
   37.2341   29.3477   49.1002 H   0  0  0  0  0  0  0  0  0  0  0  0
   38.7406   30.2615   48.4976 H   0  0  0  0  0  0  0  0  0  0  0  0
   39.0241   31.0644   50.4417 H   0  0  0  0  0  0  0  0  0  0  0  0
   37.4159   31.9009   50.2846 H   0  0  0  0  0  0  0  0  0  0  0  0
   37.6392   30.4824   52.8164 H   0  0  0  0  0  0  0  0  0  0  0  0
   40.3057   28.9821   43.6226 H   0  0  0  0  0  0  0  0  0  0  0  0
   38.6389   28.7129   44.1834 H   0  0  0  0  0  0  0  0  0  0  0  0
   37.8321   28.1652   42.0341 H   0  0  0  0  0  0  0  0  0  0  0  0
   37.7000   29.4073   40.7484 H   0  0  0  0  0  0  0  0  0  0  0  0
   42.0272   28.6453   41.3777 H   0  0  0  0  0  0  0  0  0  0  0  0
   42.3760   28.5867   39.7735 H   0  0  0  0  0  0  0  0  0  0  0  0
   40.1721   29.9393   39.2860 H   0  0  0  0  0  0  0  0  0  0  0  0
   37.6131   31.1310   43.8488 H   0  0  0  0  0  0  0  0  0  0  0  0
   38.0070   31.9904   42.3214 H   0  0  0  0  0  0  0  0  0  0  0  0
   36.7865   30.6725   42.3214 H   0  0  0  0  0  0  0  0  0  0  0  0
  1  7  1  0
  2  1  2  0
  3  2  1  0
  4  5  1  0
  4  3  2  0
  5  6  2  0
  6  1  1  0
  7  8  1  0
  8  9  1  0
  9 10  1  0
 10 11  1  0
 12  5  1  0
 13 21  1  1
 13 12  1  0
 14 13  1  0
 15 14  1  0
 16 18  1  0
 16 15  1  0
 17 16  2  0
 19 18  1  0
 19 15  1  0
 19 20  1  0
 20 13  1  0
  2 22  1  0
  3 23  1  0
  8 24  1  0
  8 25  1  0
  9 26  1  0
  9 27  1  0
 10 28  1  0
 10 29  1  0
 11 30  1  0
 12 31  1  0
 12 32  1  0
 14 33  1  0
 14 34  1  0
 18 35  1  0
 18 36  1  0
 19 37  1  6
 21 38  1  0
 21 39  1  0
 21 40  1  0
M  ISO  8  22  14  23  14  24   8  25   8  26   8  27   8  28   8  29   8
M  ISO  8  30  11  31   8  32   8  33  13  34  13  35  13  36  13  37  13
M  ISO  3  38   8  39   8  40   8
M  END
>  <minimizedAffinity>  (1) 
-4.58267021

>  <minimizedRMSD>  (1) 
3.1675334

$$$$
