
     RDKit          3D

 40 42  0  0  0  0  0  0  0  0999 V2000
   34.9740   28.3780   49.3600 O   0  0  0  0  0  0  0  0  0  0  0  0
   37.3040   30.1580   51.4680 C   0  0  0  0  0  0  0  0  0  0  0  0
   38.0480   30.8390   50.4930 C   0  0  0  0  0  0  0  0  0  0  0  0
   37.7040   30.6450   49.1670 C   0  0  0  0  0  0  0  0  0  0  0  0
   36.6520   29.7930   48.9280 N   0  0  0  0  0  0  0  0  0  0  0  0
   35.9660   29.1620   49.8690 C   0  0  0  0  0  0  0  0  0  0  0  0
   36.2980   29.3480   51.1570 N   0  0  0  0  0  0  0  0  0  0  0  0
   38.9230   33.2620   48.9920 F   0  0  0  0  0  0  0  0  0  0  0  0
   38.9200   32.4730   47.9240 C   0  0  0  0  0  0  0  0  0  0  0  0
   38.3500   31.2570   48.0160 C   0  0  0  0  0  0  0  0  0  0  0  0
   38.4060   30.5190   46.8410 C   0  0  0  0  0  0  0  0  0  0  0  0
   38.9870   30.9910   45.6950 C   0  0  0  0  0  0  0  0  0  0  0  0
   39.5540   32.2350   45.6500 C   0  0  0  0  0  0  0  0  0  0  0  0
   39.5110   32.9760   46.7950 C   0  0  0  0  0  0  0  0  0  0  0  0
   34.3990   28.7160   48.1120 C   0  0  0  0  0  0  0  0  0  0  0  0
   33.5220   27.6060   47.6070 C   0  0  0  0  0  0  0  0  0  0  0  0
   32.0700   27.9050   47.7780 C   0  0  0  0  0  0  0  0  0  0  0  0
   31.4710   27.4920   48.9520 C   0  0  0  0  0  0  0  0  0  0  0  0
   30.1380   27.7250   49.1940 C   0  0  0  0  0  0  0  0  0  0  0  0
   29.4050   28.3650   48.2790 N   0  0  0  0  0  0  0  0  0  0  0  0
   30.0160   28.7580   47.1400 C   0  0  0  0  0  0  0  0  0  0  0  0
   31.3080   28.5480   46.8730 N   0  0  0  0  0  0  0  0  0  0  0  0
   29.1740   29.4720   46.1320 C   0  0  0  0  0  0  0  0  0  0  0  0
   27.8700   29.6770   46.7590 N   0  0  0  0  0  0  0  0  0  0  0  0
   37.5628   30.2997   52.5277 H   0  0  0  0  0  0  0  0  0  0  0  0
   38.8773   31.5051   50.7734 H   0  0  0  0  0  0  0  0  0  0  0  0
   37.9644   29.5116   46.8308 H   0  0  0  0  0  0  0  0  0  0  0  0
   38.9981   30.3590   44.7947 H   0  0  0  0  0  0  0  0  0  0  0  0
   40.0232   32.6204   44.7328 H   0  0  0  0  0  0  0  0  0  0  0  0
   39.9534   33.9830   46.8116 H   0  0  0  0  0  0  0  0  0  0  0  0
   33.7945   29.6275   48.2292 H   0  0  0  0  0  0  0  0  0  0  0  0
   35.2084   28.8821   47.3859 H   0  0  0  0  0  0  0  0  0  0  0  0
   33.7610   26.6868   48.1619 H   0  0  0  0  0  0  0  0  0  0  0  0
   33.7157   27.4892   46.5305 H   0  0  0  0  0  0  0  0  0  0  0  0
   32.0724   26.9663   49.7082 H   0  0  0  0  0  0  0  0  0  0  0  0
   29.6783   27.3868   50.1344 H   0  0  0  0  0  0  0  0  0  0  0  0
   29.0680   28.8615   45.2231 H   0  0  0  0  0  0  0  0  0  0  0  0
   29.6299   30.4281   45.8351 H   0  0  0  0  0  0  0  0  0  0  0  0
   27.9752   29.6605   47.7835 H   0  0  0  0  0  0  0  0  0  0  0  0
   27.4884   30.5883   46.4677 H   0  0  0  0  0  0  0  0  0  0  0  0
  1  6  1  0
  3  2  2  0
  4  3  1  0
  5  4  2  0
  5  6  1  0
  6  7  2  0
  7  2  1  0
  9 10  2  0
  9  8  1  0
 10  4  1  0
 11 10  1  0
 12 11  2  0
 13 12  1  0
 13 14  2  0
 14  9  1  0
 15  1  1  0
 16 17  1  0
 16 15  1  0
 17 18  2  0
 18 19  1  0
 20 19  2  0
 21 20  1  0
 22 21  2  0
 22 17  1  0
 23 24  1  0
 23 21  1  0
  2 25  1  0
  3 26  1  0
 11 27  1  0
 12 28  1  0
 13 29  1  0
 14 30  1  0
 15 31  1  0
 15 32  1  0
 16 33  1  0
 16 34  1  0
 18 35  1  0
 19 36  1  0
 23 37  1  0
 23 38  1  0
 24 39  1  0
 24 40  1  0
M  ISO  8  25  14  26  14  27  14  28  14  29  14  30  14  31   8  32   8
M  ISO  8  33   8  34   8  35  14  36  14  37   8  38   8  39   5  40   5
M  END
>  <minimizedAffinity>  (1) 
-6.2379384

>  <minimizedRMSD>  (1) 
0.50973171

$$$$
