
     RDKit          3D

 23 24  0  0  0  0  0  0  0  0999 V2000
   37.6840   33.1170   49.8060 C   0  0  0  0  0  0  0  0  0  0  0  0
   38.4800   33.0670   48.6540 C   0  0  0  0  0  0  0  0  0  0  0  0
   38.3290   31.9820   47.8040 C   0  0  0  0  0  0  0  0  0  0  0  0
   37.4190   31.0310   48.1410 N   0  0  0  0  0  0  0  0  0  0  0  0
   36.6640   31.1080   49.2650 C   0  0  0  0  0  0  0  0  0  0  0  0
   36.7950   32.1440   50.0920 N   0  0  0  0  0  0  0  0  0  0  0  0
   39.0840   31.7910   46.5730 C   0  0  0  0  0  0  0  0  0  0  0  0
   38.9040   30.6110   45.8900 C   0  0  0  0  0  0  0  0  0  0  0  0
   39.6080   30.3890   44.7060 C   0  0  0  0  0  0  0  0  0  0  0  0
   40.4820   31.3350   44.2080 C   0  0  0  0  0  0  0  0  0  0  0  0
   40.6640   32.5190   44.8910 C   0  0  0  0  0  0  0  0  0  0  0  0
   39.9560   32.7390   46.0790 C   0  0  0  0  0  0  0  0  0  0  0  0
   35.7120   30.0060   49.5100 C   0  0  0  0  0  0  0  0  0  0  0  0
   35.7720   29.5410   50.8190 F   0  0  0  0  0  0  0  0  0  0  0  0
   34.4040   30.4020   49.2940 F   0  0  0  0  0  0  0  0  0  0  0  0
   35.9060   28.9100   48.7050 F   0  0  0  0  0  0  0  0  0  0  0  0
   37.7866   33.9698   50.4932 H   0  0  0  0  0  0  0  0  0  0  0  0
   39.2034   33.8650   48.4305 H   0  0  0  0  0  0  0  0  0  0  0  0
   38.2106   29.8483   46.2741 H   0  0  0  0  0  0  0  0  0  0  0  0
   39.4644   29.4448   44.1602 H   0  0  0  0  0  0  0  0  0  0  0  0
   41.0293   31.1454   43.2728 H   0  0  0  0  0  0  0  0  0  0  0  0
   41.3573   33.2819   44.5071 H   0  0  0  0  0  0  0  0  0  0  0  0
   40.0974   33.6824   46.6268 H   0  0  0  0  0  0  0  0  0  0  0  0
  1  6  2  0
  2  1  1  0
  3  4  1  0
  3  2  2  0
  4  5  2  0
  5 13  1  0
  5  6  1  0
  7  3  1  0
  8  7  2  0
  9  8  1  0
 10  9  2  0
 10 11  1  0
 11 12  2  0
 12  7  1  0
 13 14  1  0
 15 13  1  0
 16 13  1  0
  1 17  1  0
  2 18  1  0
  8 19  1  0
  9 20  1  0
 10 21  1  0
 11 22  1  0
 12 23  1  0
M  ISO  7  17  14  18  14  19  14  20  14  21  14  22  14  23  14
M  END
>  <minimizedAffinity>  (1) 
-5.8690896

>  <minimizedRMSD>  (1) 
2.22777414

$$$$
