
     RDKit          3D

 29 30  0  0  0  0  0  0  0  0999 V2000
   37.8730   32.8640   49.3580 C   0  0  0  0  0  0  0  0  0  0  0  0
   38.4440   32.5320   48.1180 C   0  0  0  0  0  0  0  0  0  0  0  0
   38.1770   31.2840   47.5870 C   0  0  0  0  0  0  0  0  0  0  0  0
   37.3690   30.4280   48.2940 N   0  0  0  0  0  0  0  0  0  0  0  0
   36.8420   30.7900   49.4840 C   0  0  0  0  0  0  0  0  0  0  0  0
   37.0970   31.9960   49.9990 N   0  0  0  0  0  0  0  0  0  0  0  0
   38.7750   30.9560   46.3040 C   0  0  0  0  0  0  0  0  0  0  0  0
   37.9940   31.2610   45.0820 C   0  0  0  0  0  0  0  0  0  0  0  0
   38.5690   32.4110   44.2810 C   0  0  0  0  0  0  0  0  0  0  0  0
   39.9450   31.9840   43.8130 C   0  0  0  0  0  0  0  0  0  0  0  0
   40.7480   31.3310   44.9060 C   0  0  0  0  0  0  0  0  0  0  0  0
   40.1030   31.7200   46.2090 C   0  0  0  0  0  0  0  0  0  0  0  0
   35.9820   29.8070   50.1780 C   0  0  0  0  0  0  0  0  0  0  0  0
   36.2810   29.6830   51.5270 F   0  0  0  0  0  0  0  0  0  0  0  0
   34.6430   30.1720   50.1100 F   0  0  0  0  0  0  0  0  0  0  0  0
   36.0470   28.5410   49.6430 F   0  0  0  0  0  0  0  0  0  0  0  0
   38.0699   33.8509   49.8022 H   0  0  0  0  0  0  0  0  0  0  0  0
   39.0870   33.2468   47.5835 H   0  0  0  0  0  0  0  0  0  0  0  0
   38.8616   29.8594   46.3081 H   0  0  0  0  0  0  0  0  0  0  0  0
   37.9767   30.3646   44.4447 H   0  0  0  0  0  0  0  0  0  0  0  0
   36.9846   31.5574   45.4033 H   0  0  0  0  0  0  0  0  0  0  0  0
   37.9259   32.6263   43.4149 H   0  0  0  0  0  0  0  0  0  0  0  0
   38.6293   33.3229   44.8932 H   0  0  0  0  0  0  0  0  0  0  0  0
   39.8300   31.2695   42.9846 H   0  0  0  0  0  0  0  0  0  0  0  0
   40.4856   32.8877   43.4951 H   0  0  0  0  0  0  0  0  0  0  0  0
   40.7317   30.2376   44.7866 H   0  0  0  0  0  0  0  0  0  0  0  0
   41.7985   31.6555   44.8725 H   0  0  0  0  0  0  0  0  0  0  0  0
   40.7568   31.4454   47.0499 H   0  0  0  0  0  0  0  0  0  0  0  0
   39.9327   32.8059   46.2515 H   0  0  0  0  0  0  0  0  0  0  0  0
  1  6  2  0
  2  1  1  0
  3  2  2  0
  3  4  1  0
  4  5  2  0
  5  6  1  0
  5 13  1  0
  7  3  1  0
  8  7  1  0
  9  8  1  0
 10  9  1  0
 10 11  1  0
 11 12  1  0
 12  7  1  0
 13 14  1  0
 15 13  1  0
 16 13  1  0
  1 17  1  0
  2 18  1  0
  7 19  1  0
  8 20  1  0
  8 21  1  0
  9 22  1  0
  9 23  1  0
 10 24  1  0
 10 25  1  0
 11 26  1  0
 11 27  1  0
 12 28  1  0
 12 29  1  0
M  ISO  8  17  14  18  14  19  13  20  13  21  13  22  13  23  13  24  13
M  ISO  5  25  13  26  13  27  13  28  13  29  13
M  END
>  <minimizedAffinity>  (1) 
-5.82761765

>  <minimizedRMSD>  (1) 
1.60427403

$$$$
