
     RDKit          3D

 28 29  0  0  0  0  0  0  0  0999 V2000
   37.6110   32.5790   49.7110 C   0  0  0  0  0  0  0  0  0  0  0  0
   38.3150   32.6200   48.5080 C   0  0  0  0  0  0  0  0  0  0  0  0
   37.9280   31.7490   47.4930 C   0  0  0  0  0  0  0  0  0  0  0  0
   36.8870   30.9110   47.7330 N   0  0  0  0  0  0  0  0  0  0  0  0
   36.2340   30.9010   48.9000 C   0  0  0  0  0  0  0  0  0  0  0  0
   36.5950   31.7310   49.8830 N   0  0  0  0  0  0  0  0  0  0  0  0
   38.5010   31.6200   46.1960 N   0  0  0  0  0  0  0  0  0  0  0  0
   38.2300   32.4630   45.0750 C   0  0  0  0  0  0  0  0  0  0  0  0
   39.4340   33.0870   44.4480 C   0  0  0  0  0  0  0  0  0  0  0  0
   40.4870   32.0490   44.1330 C   0  0  0  0  0  0  0  0  0  0  0  0
   40.7580   31.3250   45.4520 C   0  0  0  0  0  0  0  0  0  0  0  0
   39.4540   30.6160   45.7850 C   0  0  0  0  0  0  0  0  0  0  0  0
   35.1040   29.9510   49.0840 C   0  0  0  0  0  0  0  0  0  0  0  0
   34.2580   30.2950   50.1100 F   0  0  0  0  0  0  0  0  0  0  0  0
   34.3200   29.8830   47.9250 F   0  0  0  0  0  0  0  0  0  0  0  0
   35.5200   28.6520   49.3020 F   0  0  0  0  0  0  0  0  0  0  0  0
   37.8972   33.2553   50.5299 H   0  0  0  0  0  0  0  0  0  0  0  0
   39.1515   33.3199   48.3651 H   0  0  0  0  0  0  0  0  0  0  0  0
   37.7208   31.8593   44.3093 H   0  0  0  0  0  0  0  0  0  0  0  0
   37.6169   33.2931   45.4559 H   0  0  0  0  0  0  0  0  0  0  0  0
   39.1340   33.5880   43.5158 H   0  0  0  0  0  0  0  0  0  0  0  0
   39.8604   33.8110   45.1579 H   0  0  0  0  0  0  0  0  0  0  0  0
   40.1153   31.3423   43.3764 H   0  0  0  0  0  0  0  0  0  0  0  0
   41.4002   32.5065   43.7247 H   0  0  0  0  0  0  0  0  0  0  0  0
   41.5746   30.5976   45.3334 H   0  0  0  0  0  0  0  0  0  0  0  0
   41.0675   32.0178   46.2484 H   0  0  0  0  0  0  0  0  0  0  0  0
   39.0793   30.0847   44.8977 H   0  0  0  0  0  0  0  0  0  0  0  0
   39.6095   29.8806   46.5882 H   0  0  0  0  0  0  0  0  0  0  0  0
  1  6  2  0
  2  1  1  0
  3  4  1  0
  3  2  2  0
  4  5  2  0
  5 13  1  0
  5  6  1  0
  7  3  1  0
  8  7  1  0
  9  8  1  0
 10  9  1  0
 10 11  1  0
 11 12  1  0
 12  7  1  0
 13 16  1  0
 13 14  1  0
 15 13  1  0
  1 17  1  0
  2 18  1  0
  8 19  1  0
  8 20  1  0
  9 21  1  0
  9 22  1  0
 10 23  1  0
 10 24  1  0
 11 25  1  0
 11 26  1  0
 12 27  1  0
 12 28  1  0
M  ISO  8  17  14  18  14  19  13  20  13  21  13  22  13  23  13  24  13
M  ISO  4  25  13  26  13  27  13  28  13
M  END
>  <minimizedAffinity>  (1) 
-5.55165577

>  <minimizedRMSD>  (1) 
1.8626883

$$$$
