
     RDKit          3D

 21 22  0  0  0  0  0  0  0  0999 V2000
   38.3090   31.2870   50.2270 C   0  0  0  0  0  0  0  0  0  0  0  0
   38.4270   31.5540   48.8520 C   0  0  0  0  0  0  0  0  0  0  0  0
   37.4210   31.0710   48.0290 C   0  0  0  0  0  0  0  0  0  0  0  0
   36.3880   30.3770   48.5650 N   0  0  0  0  0  0  0  0  0  0  0  0
   36.3130   30.1420   49.8950 C   0  0  0  0  0  0  0  0  0  0  0  0
   37.2660   30.5940   50.7180 N   0  0  0  0  0  0  0  0  0  0  0  0
   37.4820   31.3110   46.5910 C   0  0  0  0  0  0  0  0  0  0  0  0
   36.7130   30.5490   45.7350 C   0  0  0  0  0  0  0  0  0  0  0  0
   36.8200   30.8310   44.3870 C   0  0  0  0  0  0  0  0  0  0  0  0
   37.6440   31.8080   43.9800 N   0  0  0  0  0  0  0  0  0  0  0  0
   38.3930   32.5530   44.7970 C   0  0  0  0  0  0  0  0  0  0  0  0
   38.2890   32.2770   46.1220 N   0  0  0  0  0  0  0  0  0  0  0  0
   35.1470   29.3740   50.3980 C   0  0  0  0  0  0  0  0  0  0  0  0
   35.2340   29.1070   51.7590 F   0  0  0  0  0  0  0  0  0  0  0  0
   33.9680   30.0740   50.2070 F   0  0  0  0  0  0  0  0  0  0  0  0
   34.9760   28.1720   49.7540 F   0  0  0  0  0  0  0  0  0  0  0  0
   39.0854   31.6522   50.9154 H   0  0  0  0  0  0  0  0  0  0  0  0
   39.2787   32.1204   48.4473 H   0  0  0  0  0  0  0  0  0  0  0  0
   36.0477   29.7563   46.1078 H   0  0  0  0  0  0  0  0  0  0  0  0
   36.2339   30.2587   43.6529 H   0  0  0  0  0  0  0  0  0  0  0  0
   39.0560   33.3447   44.4180 H   0  0  0  0  0  0  0  0  0  0  0  0
  1  6  2  0
  2  1  1  0
  3  4  1  0
  3  2  2  0
  4  5  2  0
  5 13  1  0
  5  6  1  0
  7  3  1  0
  8  7  2  0
  9  8  1  0
 10  9  2  0
 10 11  1  0
 11 12  2  0
 12  7  1  0
 13 14  1  0
 15 13  1  0
 16 13  1  0
  1 17  1  0
  2 18  1  0
  8 19  1  0
  9 20  1  0
 11 21  1  0
M  ISO  5  17  14  18  14  19  14  20  14  21  14
M  END
>  <minimizedAffinity>  (1) 
-5.40674925

>  <minimizedRMSD>  (1) 
0.433260053

$$$$
