
     RDKit          3D

 34 35  0  0  0  0  0  0  0  0999 V2000
   38.2570   32.0640   46.7640 C   0  0  0  0  0  0  0  0  0  0  0  0
   39.4780   32.7070   47.0020 C   0  0  0  0  0  0  0  0  0  0  0  0
   40.1630   33.3060   45.9280 C   0  0  0  0  0  0  0  0  0  0  0  0
   39.5650   33.2110   44.6980 N   0  0  0  0  0  0  0  0  0  0  0  0
   38.3800   32.5780   44.5150 C   0  0  0  0  0  0  0  0  0  0  0  0
   37.7420   32.0180   45.5310 N   0  0  0  0  0  0  0  0  0  0  0  0
   37.8620   32.5460   43.1890 N   0  0  0  0  0  0  0  0  0  0  0  0
   36.4290   32.5120   42.9730 C   0  0  0  0  0  0  0  0  0  0  0  0
   36.0830   33.5310   41.9020 C   0  0  0  0  0  0  0  0  0  0  0  0
   36.9240   33.4860   40.8090 O   0  0  0  0  0  0  0  0  0  0  0  0
   38.2610   33.7170   41.1710 C   0  0  0  0  0  0  0  0  0  0  0  0
   38.7360   32.5490   42.0310 C   0  0  0  0  0  0  0  0  0  0  0  0
   37.7410   31.5440   47.9260 O   0  0  0  0  0  0  0  0  0  0  0  0
   36.6110   30.7560   47.8130 C   0  0  0  0  0  0  0  0  0  0  0  0
   36.8780   29.8820   48.8060 C   0  0  0  0  0  0  0  0  0  0  0  0
   37.8270   30.3160   49.8740 C   0  0  0  0  0  0  0  0  0  0  0  0
   37.2400   29.9340   51.5240 S   0  0  0  0  0  0  0  0  0  0  0  0
   39.8977   32.7436   48.0181 H   0  0  0  0  0  0  0  0  0  0  0  0
   41.1246   33.8216   46.0678 H   0  0  0  0  0  0  0  0  0  0  0  0
   36.1267   31.5075   42.6420 H   0  0  0  0  0  0  0  0  0  0  0  0
   35.8996   32.7502   43.9073 H   0  0  0  0  0  0  0  0  0  0  0  0
   35.0553   33.3407   41.5590 H   0  0  0  0  0  0  0  0  0  0  0  0
   36.1931   34.5274   42.3549 H   0  0  0  0  0  0  0  0  0  0  0  0
   38.8834   33.7899   40.2669 H   0  0  0  0  0  0  0  0  0  0  0  0
   38.3429   34.6585   41.7338 H   0  0  0  0  0  0  0  0  0  0  0  0
   38.6465   31.6022   41.4783 H   0  0  0  0  0  0  0  0  0  0  0  0
   39.7935   32.6527   42.3156 H   0  0  0  0  0  0  0  0  0  0  0  0
   35.6882   31.3253   47.9986 H   0  0  0  0  0  0  0  0  0  0  0  0
   36.4336   30.3137   46.8216 H   0  0  0  0  0  0  0  0  0  0  0  0
   35.9231   29.6372   49.2942 H   0  0  0  0  0  0  0  0  0  0  0  0
   37.3836   29.0411   48.3087 H   0  0  0  0  0  0  0  0  0  0  0  0
   38.7893   29.8068   49.7169 H   0  0  0  0  0  0  0  0  0  0  0  0
   37.9268   31.4092   49.8034 H   0  0  0  0  0  0  0  0  0  0  0  0
   38.0870   30.4852   52.4490 H   0  0  0  0  0  0  0  0  0  0  0  0
  1  2  2  0
  1 13  1  0
  3  2  1  0
  4  3  2  0
  5  4  1  0
  5  6  2  0
  6  1  1  0
  7  5  1  0
  8  7  1  0
  9  8  1  0
 10 11  1  0
 10  9  1  0
 11 12  1  0
 12  7  1  0
 14 13  1  0
 14 15  1  0
 15 16  1  0
 16 17  1  0
  2 18  1  0
  3 19  1  0
  8 20  1  0
  8 21  1  0
  9 22  1  0
  9 23  1  0
 11 24  1  0
 11 25  1  0
 12 26  1  0
 12 27  1  0
 14 28  1  0
 14 29  1  0
 15 30  1  0
 15 31  1  0
 16 32  1  0
 16 33  1  0
 17 34  1  0
M  ISO  8  18  14  19  14  20  13  21  13  22  13  23  13  24  13  25  13
M  ISO  8  26  13  27  13  28   8  29   8  30   8  31   8  32   8  33   8
M  ISO  1  34  11
M  END
>  <minimizedAffinity>  (1) 
-4.52560711

>  <minimizedRMSD>  (1) 
0.724684536

$$$$
