
     RDKit          3D

 15 15  0  0  0  0  0  0  0  0999 V2000
   38.2980   31.2970   50.0990 C   0  0  0  0  0  0  0  0  0  0  0  0
   38.3870   31.5040   48.7200 C   0  0  0  0  0  0  0  0  0  0  0  0
   37.3730   30.9810   47.9300 C   0  0  0  0  0  0  0  0  0  0  0  0
   36.3630   30.3030   48.5390 N   0  0  0  0  0  0  0  0  0  0  0  0
   36.3180   30.1290   49.8670 C   0  0  0  0  0  0  0  0  0  0  0  0
   37.2780   30.6210   50.6480 N   0  0  0  0  0  0  0  0  0  0  0  0
   35.1540   29.3670   50.4060 C   0  0  0  0  0  0  0  0  0  0  0  0
   35.2790   29.1230   51.7670 F   0  0  0  0  0  0  0  0  0  0  0  0
   33.9700   30.0780   50.2560 F   0  0  0  0  0  0  0  0  0  0  0  0
   34.9440   28.1630   49.8010 F   0  0  0  0  0  0  0  0  0  0  0  0
   37.3950   31.1540   46.4890 C   0  0  0  0  0  0  0  0  0  0  0  0
   37.9020   32.1820   45.9810 O   0  0  0  0  0  0  0  0  0  0  0  0
   39.0862   31.6995   50.7523 H   0  0  0  0  0  0  0  0  0  0  0  0
   39.2274   32.0594   48.2782 H   0  0  0  0  0  0  0  0  0  0  0  0
   36.9642   30.3784   45.8387 H   0  0  0  0  0  0  0  0  0  0  0  0
  1  6  2  0
  2  1  1  0
  3  4  1  0
  3  2  2  0
  4  5  2  0
  5  7  1  0
  5  6  1  0
  7  8  1  0
  9  7  1  0
 10  7  1  0
 11  3  1  0
 12 11  2  0
  1 13  1  0
  2 14  1  0
 11 15  1  0
M  ISO  3  13  14  14  14  15   6
M  END
>  <minimizedAffinity>  (1) 
-4.48781395

>  <minimizedRMSD>  (1) 
0.29922539

$$$$
