
     RDKit          3D

 28 28  0  0  0  0  0  0  0  0999 V2000
   38.4390   32.3340   46.2330 C   0  0  0  0  0  0  0  0  0  0  0  0
   39.7720   32.6990   46.3100 C   0  0  0  0  0  0  0  0  0  0  0  0
   40.4840   32.9720   45.1240 C   0  0  0  0  0  0  0  0  0  0  0  0
   39.7860   32.8540   43.9410 N   0  0  0  0  0  0  0  0  0  0  0  0
   38.4820   32.4950   43.9170 C   0  0  0  0  0  0  0  0  0  0  0  0
   37.8450   32.2470   45.0360 N   0  0  0  0  0  0  0  0  0  0  0  0
   35.7730   33.0520   43.4590 N   0  0  0  0  0  0  0  0  0  0  0  0
   36.5330   32.9420   42.4340 C   0  0  0  0  0  0  0  0  0  0  0  0
   37.8290   32.3950   42.6470 N   0  0  0  0  0  0  0  0  0  0  0  0
   36.2320   33.3090   41.0900 N   0  0  0  0  0  0  0  0  0  0  0  0
   34.8170   33.4190   43.4950 H   0  0  0  0  0  0  0  0  0  0  0  0
   37.8960   32.1060   47.4740 O   0  0  0  0  0  0  0  0  0  0  0  0
   37.0540   31.0270   47.6130 C   0  0  0  0  0  0  0  0  0  0  0  0
   37.7640   30.3290   48.5220 C   0  0  0  0  0  0  0  0  0  0  0  0
   38.0650   30.9820   49.8290 C   0  0  0  0  0  0  0  0  0  0  0  0
   37.2870   30.1470   51.2180 S   0  0  0  0  0  0  0  0  0  0  0  0
   40.2711   32.7754   47.2873 H   0  0  0  0  0  0  0  0  0  0  0  0
   41.5442   33.2647   45.1418 H   0  0  0  0  0  0  0  0  0  0  0  0
   38.3078   31.9167   41.8706 H   0  0  0  0  0  0  0  0  0  0  0  0
   35.3124   33.7118   40.8598 H   0  0  0  0  0  0  0  0  0  0  0  0
   36.9341   33.1714   40.3490 H   0  0  0  0  0  0  0  0  0  0  0  0
   36.0657   31.3203   47.9968 H   0  0  0  0  0  0  0  0  0  0  0  0
   36.8120   30.4898   46.6841 H   0  0  0  0  0  0  0  0  0  0  0  0
   37.2024   29.4082   48.7384 H   0  0  0  0  0  0  0  0  0  0  0  0
   38.7488   30.1894   48.0521 H   0  0  0  0  0  0  0  0  0  0  0  0
   39.1544   30.9782   49.9816 H   0  0  0  0  0  0  0  0  0  0  0  0
   37.6631   32.0052   49.7893 H   0  0  0  0  0  0  0  0  0  0  0  0
   37.7697   30.6651   52.3908 H   0  0  0  0  0  0  0  0  0  0  0  0
  1  2  2  0
  1 12  1  0
  3  2  1  0
  4  3  2  0
  5  4  1  0
  5  6  2  0
  6  1  1  0
  7 11  1  0
  8  9  1  0
  8  7  2  0
  9  5  1  0
 10  8  1  0
 12 13  1  0
 13 14  1  0
 14 15  1  0
 15 16  1  0
  2 17  1  0
  3 18  1  0
  9 19  1  0
 10 20  1  0
 10 21  1  0
 13 22  1  0
 13 23  1  0
 14 24  1  0
 14 25  1  0
 15 26  1  0
 15 27  1  0
 16 28  1  0
M  ISO  8  17  14  18  14  22   8  23   8  24   8  25   8  26   8  27   8
M  ISO  1  28  11
M  END
>  <minimizedAffinity>  (1) 
-4.50043631

>  <minimizedRMSD>  (1) 
0.390202165

$$$$
