
     RDKit          3D

 31 32  0  0  0  0  0  0  0  0999 V2000
   38.6830   32.3220   46.3500 C   0  0  0  0  0  0  0  0  0  0  0  0
   39.9890   32.6890   46.1000 C   0  0  0  0  0  0  0  0  0  0  0  0
   40.3780   32.9930   44.7870 C   0  0  0  0  0  0  0  0  0  0  0  0
   39.4030   32.8980   43.8250 N   0  0  0  0  0  0  0  0  0  0  0  0
   38.1340   32.5340   44.1100 C   0  0  0  0  0  0  0  0  0  0  0  0
   37.7630   32.2450   45.3530 N   0  0  0  0  0  0  0  0  0  0  0  0
   38.8790   33.9730   41.5610 Cl  0  0  0  0  0  0  0  0  0  0  0  0
   37.3840   33.0760   41.8120 C   0  0  0  0  0  0  0  0  0  0  0  0
   37.1470   32.4550   43.0220 C   0  0  0  0  0  0  0  0  0  0  0  0
   35.9620   31.7490   43.2120 C   0  0  0  0  0  0  0  0  0  0  0  0
   35.0660   31.6900   42.1910 C   0  0  0  0  0  0  0  0  0  0  0  0
   35.2500   32.2910   40.9630 C   0  0  0  0  0  0  0  0  0  0  0  0
   36.4350   32.9920   40.7880 C   0  0  0  0  0  0  0  0  0  0  0  0
   38.4570   32.0540   47.6930 O   0  0  0  0  0  0  0  0  0  0  0  0
   37.3180   31.3470   48.0220 C   0  0  0  0  0  0  0  0  0  0  0  0
   37.8630   30.4630   48.8840 C   0  0  0  0  0  0  0  0  0  0  0  0
   38.1440   30.9120   50.2780 C   0  0  0  0  0  0  0  0  0  0  0  0
   37.2420   29.9400   51.5050 S   0  0  0  0  0  0  0  0  0  0  0  0
   40.7180   32.7427   46.9220 H   0  0  0  0  0  0  0  0  0  0  0  0
   41.4080   33.2912   44.5415 H   0  0  0  0  0  0  0  0  0  0  0  0
   35.7547   31.2487   44.1695 H   0  0  0  0  0  0  0  0  0  0  0  0
   34.1351   31.1272   42.3546 H   0  0  0  0  0  0  0  0  0  0  0  0
   34.4970   32.2184   40.1644 H   0  0  0  0  0  0  0  0  0  0  0  0
   36.6313   33.4902   39.8271 H   0  0  0  0  0  0  0  0  0  0  0  0
   36.5623   31.9833   48.5058 H   0  0  0  0  0  0  0  0  0  0  0  0
   36.7713   30.9076   47.1746 H   0  0  0  0  0  0  0  0  0  0  0  0
   37.1750   29.6073   48.9505 H   0  0  0  0  0  0  0  0  0  0  0  0
   38.8570   30.2524   48.4625 H   0  0  0  0  0  0  0  0  0  0  0  0
   39.2224   30.8130   50.4712 H   0  0  0  0  0  0  0  0  0  0  0  0
   37.8147   31.9577   50.3681 H   0  0  0  0  0  0  0  0  0  0  0  0
   37.6107   30.3373   52.7632 H   0  0  0  0  0  0  0  0  0  0  0  0
  1 14  1  0
  2  1  2  0
  3  2  1  0
  4  5  1  0
  4  3  2  0
  5  6  2  0
  6  1  1  0
  7  8  1  0
  8  9  2  0
  9 10  1  0
  9  5  1  0
 11 10  2  0
 12 11  1  0
 13 12  2  0
 13  8  1  0
 14 15  1  0
 15 16  1  0
 16 17  1  0
 17 18  1  0
  2 19  1  0
  3 20  1  0
 10 21  1  0
 11 22  1  0
 12 23  1  0
 13 24  1  0
 15 25  1  0
 15 26  1  0
 16 27  1  0
 16 28  1  0
 17 29  1  0
 17 30  1  0
 18 31  1  0
M  ISO  8  19  14  20  14  21  14  22  14  23  14  24  14  25   8  26   8
M  ISO  5  27   8  28   8  29   8  30   8  31  11
M  END
>  <minimizedAffinity>  (1) 
-4.3021059

>  <minimizedRMSD>  (1) 
0.451698273

$$$$
