
     RDKit          3D

 32 34  0  0  0  0  0  0  0  0999 V2000
   35.7200   28.7660   49.0500 C   0  0  0  0  0  0  0  0  0  0  0  0
   35.7280   29.9640   48.2910 C   0  0  0  0  0  0  0  0  0  0  0  0
   34.6090   30.2400   47.5050 C   0  0  0  0  0  0  0  0  0  0  0  0
   33.5870   29.3570   47.5130 N   0  0  0  0  0  0  0  0  0  0  0  0
   33.5950   28.2270   48.2380 C   0  0  0  0  0  0  0  0  0  0  0  0
   34.6550   27.9320   49.0040 N   0  0  0  0  0  0  0  0  0  0  0  0
   32.4670   27.3530   48.1840 N   0  0  0  0  0  0  0  0  0  0  0  0
   31.1260   27.7710   48.5750 C   0  0  0  0  0  0  0  0  0  0  0  0
   30.2310   26.6690   48.1280 C   0  0  0  0  0  0  0  0  0  0  0  0
   31.0800   25.7550   47.2720 C   0  0  0  0  0  0  0  0  0  0  0  0
   32.4790   25.9770   47.7500 C   0  0  0  0  0  0  0  0  0  0  0  0
   36.8120   30.9270   50.9800 Cl  0  0  0  0  0  0  0  0  0  0  0  0
   37.4420   31.4090   49.4350 C   0  0  0  0  0  0  0  0  0  0  0  0
   36.8510   30.8920   48.3080 C   0  0  0  0  0  0  0  0  0  0  0  0
   37.3410   31.2650   47.0760 C   0  0  0  0  0  0  0  0  0  0  0  0
   38.3940   32.1330   46.9680 C   0  0  0  0  0  0  0  0  0  0  0  0
   39.0050   32.6670   48.0860 C   0  0  0  0  0  0  0  0  0  0  0  0
   38.5090   32.2880   49.3160 C   0  0  0  0  0  0  0  0  0  0  0  0
   36.5852   28.5129   49.6804 H   0  0  0  0  0  0  0  0  0  0  0  0
   34.5602   31.1536   46.8942 H   0  0  0  0  0  0  0  0  0  0  0  0
   31.0644   27.9003   49.6656 H   0  0  0  0  0  0  0  0  0  0  0  0
   30.8476   28.7360   48.1262 H   0  0  0  0  0  0  0  0  0  0  0  0
   29.8380   26.1209   48.9970 H   0  0  0  0  0  0  0  0  0  0  0  0
   29.3685   27.0567   47.5661 H   0  0  0  0  0  0  0  0  0  0  0  0
   30.9865   26.0219   46.2090 H   0  0  0  0  0  0  0  0  0  0  0  0
   30.7736   24.7020   47.3575 H   0  0  0  0  0  0  0  0  0  0  0  0
   32.7220   25.3027   48.5844 H   0  0  0  0  0  0  0  0  0  0  0  0
   33.2351   25.7761   46.9767 H   0  0  0  0  0  0  0  0  0  0  0  0
   36.8788   30.8589   46.1642 H   0  0  0  0  0  0  0  0  0  0  0  0
   38.7616   32.4113   45.9693 H   0  0  0  0  0  0  0  0  0  0  0  0
   39.8510   33.3647   47.9990 H   0  0  0  0  0  0  0  0  0  0  0  0
   38.9720   32.6937   50.2276 H   0  0  0  0  0  0  0  0  0  0  0  0
  2 14  1  0
  2  1  2  0
  3  4  2  0
  3  2  1  0
  4  5  1  0
  5  6  2  0
  6  1  1  0
  7  5  1  0
  7  8  1  0
  9  8  1  0
 10 11  1  0
 10  9  1  0
 11  7  1  0
 13 12  1  0
 14 13  2  0
 15 14  1  0
 16 15  2  0
 16 17  1  0
 17 18  2  0
 18 13  1  0
  1 19  1  0
  3 20  1  0
  8 21  1  0
  8 22  1  0
  9 23  1  0
  9 24  1  0
 10 25  1  0
 10 26  1  0
 11 27  1  0
 11 28  1  0
 15 29  1  0
 16 30  1  0
 17 31  1  0
 18 32  1  0
M  ISO  8  19  14  20  14  21  13  22  13  23  13  24  13  25  13  26  13
M  ISO  6  27  13  28  13  29  14  30  14  31  14  32  14
M  END
>  <minimizedAffinity>  (1) 
-5.75892162

>  <minimizedRMSD>  (1) 
4.82541895

$$$$
