
     RDKit          3D

 28 29  0  0  0  0  0  0  0  0999 V2000
   38.9290   33.0290   48.1160 C   0  0  0  0  0  0  0  0  0  0  0  0
   39.2660   32.3910   46.9170 C   0  0  0  0  0  0  0  0  0  0  0  0
   38.6470   31.1580   46.6250 C   0  0  0  0  0  0  0  0  0  0  0  0
   37.7590   30.6510   47.5210 N   0  0  0  0  0  0  0  0  0  0  0  0
   37.4680   31.3060   48.6650 C   0  0  0  0  0  0  0  0  0  0  0  0
   38.0390   32.4730   48.9650 N   0  0  0  0  0  0  0  0  0  0  0  0
   36.5150   30.7050   49.5680 N   0  0  0  0  0  0  0  0  0  0  0  0
   35.1290   30.4290   49.1880 C   0  0  0  0  0  0  0  0  0  0  0  0
   34.5960   29.5830   50.2790 C   0  0  0  0  0  0  0  0  0  0  0  0
   35.7780   29.2130   51.1510 C   0  0  0  0  0  0  0  0  0  0  0  0
   36.7820   30.3040   50.9290 C   0  0  0  0  0  0  0  0  0  0  0  0
   40.2110   32.8690   45.9000 C   0  0  0  0  0  0  0  0  0  0  0  0
   40.9270   31.7320   45.1980 C   0  0  0  0  0  0  0  0  0  0  0  0
   39.3940   33.9932   48.3692 H   0  0  0  0  0  0  0  0  0  0  0  0
   38.8772   30.6191   45.6941 H   0  0  0  0  0  0  0  0  0  0  0  0
   34.5559   31.3645   49.1086 H   0  0  0  0  0  0  0  0  0  0  0  0
   35.0591   29.9337   48.2083 H   0  0  0  0  0  0  0  0  0  0  0  0
   33.8516   30.1422   50.8648 H   0  0  0  0  0  0  0  0  0  0  0  0
   34.0984   28.6863   49.8810 H   0  0  0  0  0  0  0  0  0  0  0  0
   35.4798   29.1717   52.2090 H   0  0  0  0  0  0  0  0  0  0  0  0
   36.1829   28.2219   50.8985 H   0  0  0  0  0  0  0  0  0  0  0  0
   37.8094   29.9263   51.0375 H   0  0  0  0  0  0  0  0  0  0  0  0
   36.6995   31.1285   51.6524 H   0  0  0  0  0  0  0  0  0  0  0  0
   39.6578   33.4544   45.1508 H   0  0  0  0  0  0  0  0  0  0  0  0
   40.9705   33.4810   46.4085 H   0  0  0  0  0  0  0  0  0  0  0  0
   41.3561   31.0506   45.9474 H   0  0  0  0  0  0  0  0  0  0  0  0
   40.2122   31.1816   44.5686 H   0  0  0  0  0  0  0  0  0  0  0  0
   41.7322   32.1388   44.5686 H   0  0  0  0  0  0  0  0  0  0  0  0
  1  6  2  0
  2  1  1  0
  3  2  2  0
  3  4  1  0
  4  5  2  0
  5  6  1  0
  5  7  1  0
  7 11  1  0
  8  7  1  0
  8  9  1  0
  9 10  1  0
 11 10  1  0
 12  2  1  0
 13 12  1  0
  1 14  1  0
  3 15  1  0
  8 16  1  0
  8 17  1  0
  9 18  1  0
  9 19  1  0
 10 20  1  0
 10 21  1  0
 11 22  1  0
 11 23  1  0
 12 24  1  0
 12 25  1  0
 13 26  1  0
 13 27  1  0
 13 28  1  0
M  ISO  8  14  14  15  14  16  13  17  13  18  13  19  13  20  13  21  13
M  ISO  7  22  13  23  13  24   8  25   8  26   8  27   8  28   8
M  END
>  <minimizedAffinity>  (1) 
-5.06637144

>  <minimizedRMSD>  (1) 
1.69032824

$$$$
