
     RDKit          3D

 36 38  0  0  0  0  0  0  0  0999 V2000
   38.7910   32.3940   47.4220 C   0  0  0  0  0  0  0  0  0  0  0  0
   38.7910   31.6650   46.2270 C   0  0  0  0  0  0  0  0  0  0  0  0
   37.9420   30.5600   46.1300 C   0  0  0  0  0  0  0  0  0  0  0  0
   37.1660   30.2540   47.1930 N   0  0  0  0  0  0  0  0  0  0  0  0
   37.1750   30.9580   48.3300 C   0  0  0  0  0  0  0  0  0  0  0  0
   37.9840   32.0160   48.4320 N   0  0  0  0  0  0  0  0  0  0  0  0
   36.3290   30.5830   49.4190 N   0  0  0  0  0  0  0  0  0  0  0  0
   34.8690   30.5400   49.3000 C   0  0  0  0  0  0  0  0  0  0  0  0
   34.4040   29.8130   50.5040 C   0  0  0  0  0  0  0  0  0  0  0  0
   35.6470   29.3080   51.2050 C   0  0  0  0  0  0  0  0  0  0  0  0
   36.7490   30.2040   50.7460 C   0  0  0  0  0  0  0  0  0  0  0  0
   39.5740   31.9190   45.0660 N   0  0  0  0  0  0  0  0  0  0  0  0
   40.2750   30.9080   44.3030 C   0  0  0  0  0  0  0  0  0  0  0  0
   40.5230   31.3500   42.8970 C   0  0  0  0  0  0  0  0  0  0  0  0
   39.3100   31.9880   42.3890 N   0  0  0  0  0  0  0  0  0  0  0  0
   39.2490   33.2850   43.0450 C   0  0  0  0  0  0  0  0  0  0  0  0
   39.8000   33.2050   44.4600 C   0  0  0  0  0  0  0  0  0  0  0  0
   39.4461   33.2703   47.5355 H   0  0  0  0  0  0  0  0  0  0  0  0
   37.9061   29.9547   45.2122 H   0  0  0  0  0  0  0  0  0  0  0  0
   34.4532   31.5582   49.2793 H   0  0  0  0  0  0  0  0  0  0  0  0
   34.5459   30.0473   48.3711 H   0  0  0  0  0  0  0  0  0  0  0  0
   33.8434   30.4906   51.1647 H   0  0  0  0  0  0  0  0  0  0  0  0
   33.7333   28.9837   50.2348 H   0  0  0  0  0  0  0  0  0  0  0  0
   35.5270   29.3727   52.2965 H   0  0  0  0  0  0  0  0  0  0  0  0
   35.8509   28.2531   50.9694 H   0  0  0  0  0  0  0  0  0  0  0  0
   37.7090   29.6676   50.7186 H   0  0  0  0  0  0  0  0  0  0  0  0
   36.9125   31.0649   51.4109 H   0  0  0  0  0  0  0  0  0  0  0  0
   41.2408   30.7015   44.7874 H   0  0  0  0  0  0  0  0  0  0  0  0
   39.6480   30.0047   44.2731 H   0  0  0  0  0  0  0  0  0  0  0  0
   41.3563   32.0677   42.8755 H   0  0  0  0  0  0  0  0  0  0  0  0
   40.7831   30.4839   42.2707 H   0  0  0  0  0  0  0  0  0  0  0  0
   39.3651   32.1038   41.3670 H   0  0  0  0  0  0  0  0  0  0  0  0
   39.8432   34.0087   42.4677 H   0  0  0  0  0  0  0  0  0  0  0  0
   38.1974   33.6038   43.0953 H   0  0  0  0  0  0  0  0  0  0  0  0
   40.8830   33.3950   44.4284 H   0  0  0  0  0  0  0  0  0  0  0  0
   39.2757   33.9580   45.0667 H   0  0  0  0  0  0  0  0  0  0  0  0
  1  6  2  0
  2  1  1  0
  3  2  2  0
  3  4  1  0
  4  5  2  0
  5  6  1  0
  5  7  1  0
  7 11  1  0
  8  7  1  0
  8  9  1  0
  9 10  1  0
 11 10  1  0
 12  2  1  0
 13 12  1  0
 14 13  1  0
 15 14  1  0
 15 16  1  0
 16 17  1  0
 17 12  1  0
  1 18  1  0
  3 19  1  0
  8 20  1  0
  8 21  1  0
  9 22  1  0
  9 23  1  0
 10 24  1  0
 10 25  1  0
 11 26  1  0
 11 27  1  0
 13 28  1  0
 13 29  1  0
 14 30  1  0
 14 31  1  0
 15 32  1  0
 16 33  1  0
 16 34  1  0
 17 35  1  0
 17 36  1  0
M  ISO  8  18  14  19  14  20  13  21  13  22  13  23  13  24  13  25  13
M  ISO  8  26  13  27  13  28  13  29  13  30  13  31  13  32   5  33  13
M  ISO  3  34  13  35  13  36  13
M  END
>  <minimizedAffinity>  (1) 
-4.94001007

>  <minimizedRMSD>  (1) 
3.54970264

$$$$
