
     RDKit          3D

 23 24  0  0  0  0  0  0  0  0999 V2000
   38.1070   33.1870   49.4430 C   0  0  0  0  0  0  0  0  0  0  0  0
   38.8420   33.1840   48.2270 C   0  0  0  0  0  0  0  0  0  0  0  0
   38.5330   32.2040   47.2510 C   0  0  0  0  0  0  0  0  0  0  0  0
   37.5440   31.3310   47.5540 N   0  0  0  0  0  0  0  0  0  0  0  0
   36.8610   31.3510   48.7100 C   0  0  0  0  0  0  0  0  0  0  0  0
   37.1470   32.2710   49.6330 N   0  0  0  0  0  0  0  0  0  0  0  0
   35.8370   30.3660   48.9200 N   0  0  0  0  0  0  0  0  0  0  0  0
   34.6920   30.2120   48.0520 C   0  0  0  0  0  0  0  0  0  0  0  0
   34.0310   28.9640   48.5260 C   0  0  0  0  0  0  0  0  0  0  0  0
   35.0120   28.2990   49.4780 C   0  0  0  0  0  0  0  0  0  0  0  0
   35.8340   29.4130   50.0270 C   0  0  0  0  0  0  0  0  0  0  0  0
   39.8290   34.1150   48.0170 O   0  0  0  0  0  0  0  0  0  0  0  0
   38.3237   33.9338   50.2210 H   0  0  0  0  0  0  0  0  0  0  0  0
   39.0712   32.1552   46.2929 H   0  0  0  0  0  0  0  0  0  0  0  0
   35.0095   30.1100   47.0038 H   0  0  0  0  0  0  0  0  0  0  0  0
   34.0194   31.0817   48.0880 H   0  0  0  0  0  0  0  0  0  0  0  0
   33.0943   29.2042   49.0503 H   0  0  0  0  0  0  0  0  0  0  0  0
   33.7766   28.3014   47.6856 H   0  0  0  0  0  0  0  0  0  0  0  0
   34.4751   27.7805   50.2860 H   0  0  0  0  0  0  0  0  0  0  0  0
   35.6288   27.5416   48.9721 H   0  0  0  0  0  0  0  0  0  0  0  0
   36.8534   29.0764   50.2667 H   0  0  0  0  0  0  0  0  0  0  0  0
   35.4438   29.8288   50.9677 H   0  0  0  0  0  0  0  0  0  0  0  0
   40.3403   34.1117   47.1693 H   0  0  0  0  0  0  0  0  0  0  0  0
  1  6  2  0
  2  1  1  0
  3  4  1  0
  3  2  2  0
  4  5  2  0
  5  7  1  0
  5  6  1  0
  7 11  1  0
  8  9  1  0
  8  7  1  0
  9 10  1  0
 10 11  1  0
 12  2  1  0
  1 13  1  0
  3 14  1  0
  8 15  1  0
  8 16  1  0
  9 17  1  0
  9 18  1  0
 10 19  1  0
 10 20  1  0
 11 21  1  0
 11 22  1  0
 12 23  1  0
M  ISO  8  13  14  14  14  15  13  16  13  17  13  18  13  19  13  20  13
M  ISO  3  21  13  22  13  23   3
M  END
>  <minimizedAffinity>  (1) 
-4.75031233

>  <minimizedRMSD>  (1) 
0.178923741

$$$$
