
     RDKit          3D

 25 26  0  0  0  0  0  0  0  0999 V2000
   37.5750   33.0890   49.9510 C   0  0  0  0  0  0  0  0  0  0  0  0
   38.5170   33.1450   48.9060 C   0  0  0  0  0  0  0  0  0  0  0  0
   38.4200   32.1910   47.8920 C   0  0  0  0  0  0  0  0  0  0  0  0
   37.4310   31.2600   47.9600 N   0  0  0  0  0  0  0  0  0  0  0  0
   36.5490   31.2360   48.9740 C   0  0  0  0  0  0  0  0  0  0  0  0
   36.6150   32.1350   49.9570 N   0  0  0  0  0  0  0  0  0  0  0  0
   35.5310   30.2190   48.9760 N   0  0  0  0  0  0  0  0  0  0  0  0
   34.5530   30.0690   47.9210 C   0  0  0  0  0  0  0  0  0  0  0  0
   33.9080   28.7470   48.2030 C   0  0  0  0  0  0  0  0  0  0  0  0
   34.7190   28.0870   49.2860 C   0  0  0  0  0  0  0  0  0  0  0  0
   35.3510   29.2190   50.0270 C   0  0  0  0  0  0  0  0  0  0  0  0
   39.5770   34.1790   48.8750 C   0  0  0  0  0  0  0  0  0  0  0  0
   37.6196   33.8250   50.7673 H   0  0  0  0  0  0  0  0  0  0  0  0
   39.1309   32.1921   47.0526 H   0  0  0  0  0  0  0  0  0  0  0  0
   35.0406   30.0627   46.9350 H   0  0  0  0  0  0  0  0  0  0  0  0
   33.8275   30.8955   47.8985 H   0  0  0  0  0  0  0  0  0  0  0  0
   32.8727   28.8962   48.5434 H   0  0  0  0  0  0  0  0  0  0  0  0
   33.8777   28.1226   47.2979 H   0  0  0  0  0  0  0  0  0  0  0  0
   34.0708   27.5000   49.9533 H   0  0  0  0  0  0  0  0  0  0  0  0
   35.4639   27.3864   48.8807 H   0  0  0  0  0  0  0  0  0  0  0  0
   36.3162   28.9205   50.4621 H   0  0  0  0  0  0  0  0  0  0  0  0
   34.7521   29.5772   50.8773 H   0  0  0  0  0  0  0  0  0  0  0  0
   39.8549   34.4501   49.9042 H   0  0  0  0  0  0  0  0  0  0  0  0
   40.4588   33.7845   48.3489 H   0  0  0  0  0  0  0  0  0  0  0  0
   39.2045   35.0703   48.3489 H   0  0  0  0  0  0  0  0  0  0  0  0
  1  6  2  0
  2  1  1  0
  3  4  1  0
  3  2  2  0
  4  5  2  0
  5  7  1  0
  5  6  1  0
  7 11  1  0
  8  9  1  0
  8  7  1  0
  9 10  1  0
 10 11  1  0
 12  2  1  0
  1 13  1  0
  3 14  1  0
  8 15  1  0
  8 16  1  0
  9 17  1  0
  9 18  1  0
 10 19  1  0
 10 20  1  0
 11 21  1  0
 11 22  1  0
 12 23  1  0
 12 24  1  0
 12 25  1  0
M  ISO  8  13  14  14  14  15  13  16  13  17  13  18  13  19  13  20  13
M  ISO  5  21  13  22  13  23   8  24   8  25   8
M  END
>  <minimizedAffinity>  (1) 
-4.72970247

>  <minimizedRMSD>  (1) 
0.51051116

$$$$
