
     RDKit          3D

 23 24  0  0  0  0  0  0  0  0999 V2000
   38.0240   33.1430   49.5150 C   0  0  0  0  0  0  0  0  0  0  0  0
   38.8280   33.1290   48.3700 C   0  0  0  0  0  0  0  0  0  0  0  0
   38.5860   32.1390   47.4090 C   0  0  0  0  0  0  0  0  0  0  0  0
   37.5830   31.2320   47.6200 N   0  0  0  0  0  0  0  0  0  0  0  0
   36.8310   31.2860   48.7440 C   0  0  0  0  0  0  0  0  0  0  0  0
   37.0530   32.2250   49.6660 N   0  0  0  0  0  0  0  0  0  0  0  0
   35.7960   30.3160   48.9170 N   0  0  0  0  0  0  0  0  0  0  0  0
   34.6700   30.1840   47.9910 C   0  0  0  0  0  0  0  0  0  0  0  0
   34.0170   28.9060   48.3770 C   0  0  0  0  0  0  0  0  0  0  0  0
   34.9050   28.2460   49.3920 C   0  0  0  0  0  0  0  0  0  0  0  0
   35.7040   29.3510   49.9950 C   0  0  0  0  0  0  0  0  0  0  0  0
   40.1520   34.2690   48.0160 S   0  0  0  0  0  0  0  0  0  0  0  0
   38.1862   33.9049   50.2917 H   0  0  0  0  0  0  0  0  0  0  0  0
   39.1955   32.0911   46.4946 H   0  0  0  0  0  0  0  0  0  0  0  0
   35.0253   30.1402   46.9509 H   0  0  0  0  0  0  0  0  0  0  0  0
   33.9804   31.0392   48.0472 H   0  0  0  0  0  0  0  0  0  0  0  0
   33.0273   29.1048   48.8139 H   0  0  0  0  0  0  0  0  0  0  0  0
   33.8757   28.2577   47.4997 H   0  0  0  0  0  0  0  0  0  0  0  0
   34.3019   27.7423   50.1618 H   0  0  0  0  0  0  0  0  0  0  0  0
   35.5469   27.4775   48.9367 H   0  0  0  0  0  0  0  0  0  0  0  0
   36.7016   28.9984   50.2957 H   0  0  0  0  0  0  0  0  0  0  0  0
   35.2505   29.7643   50.9079 H   0  0  0  0  0  0  0  0  0  0  0  0
   40.6855   34.7284   49.1912 H   0  0  0  0  0  0  0  0  0  0  0  0
  1  6  2  0
  2  1  1  0
  3  4  1  0
  3  2  2  0
  4  5  2  0
  5  7  1  0
  5  6  1  0
  7 11  1  0
  8  9  1  0
  8  7  1  0
  9 10  1  0
 10 11  1  0
 12  2  1  0
  1 13  1  0
  3 14  1  0
  8 15  1  0
  8 16  1  0
  9 17  1  0
  9 18  1  0
 10 19  1  0
 10 20  1  0
 11 21  1  0
 11 22  1  0
 12 23  1  0
M  ISO  8  13  14  14  14  15  13  16  13  17  13  18  13  19  13  20  13
M  ISO  3  21  13  22  13  23  11
M  END
>  <minimizedAffinity>  (1) 
-4.00952911

>  <minimizedRMSD>  (1) 
0.102233589

$$$$
