
     RDKit          3D

 35 36  0  0  0  0  0  0  0  0999 V2000
   38.4670   32.3520   46.3140 C   0  0  0  0  0  0  0  0  0  0  0  0
   39.8050   32.6910   46.4080 C   0  0  0  0  0  0  0  0  0  0  0  0
   40.5300   32.9620   45.2340 C   0  0  0  0  0  0  0  0  0  0  0  0
   39.8340   32.8680   44.0470 N   0  0  0  0  0  0  0  0  0  0  0  0
   38.5260   32.5330   44.0040 C   0  0  0  0  0  0  0  0  0  0  0  0
   37.8560   32.2810   45.1050 N   0  0  0  0  0  0  0  0  0  0  0  0
   37.8220   32.4440   42.6950 C   0  0  0  0  0  0  0  0  0  0  0  0
   38.3970   33.4680   41.7530 C   0  0  0  0  0  0  0  0  0  0  0  0
   37.4890   33.6120   40.5550 C   0  0  0  0  0  0  0  0  0  0  0  0
   36.2350   34.0710   40.9870 O   0  0  0  0  0  0  0  0  0  0  0  0
   35.6210   33.0260   41.6640 C   0  0  0  0  0  0  0  0  0  0  0  0
   36.3770   32.8090   42.9610 C   0  0  0  0  0  0  0  0  0  0  0  0
   37.8870   32.1140   47.5480 O   0  0  0  0  0  0  0  0  0  0  0  0
   37.0570   31.0260   47.6630 C   0  0  0  0  0  0  0  0  0  0  0  0
   37.7600   30.3070   48.5600 C   0  0  0  0  0  0  0  0  0  0  0  0
   38.0880   30.9560   49.8640 C   0  0  0  0  0  0  0  0  0  0  0  0
   37.2920   30.1280   51.2590 S   0  0  0  0  0  0  0  0  0  0  0  0
   40.2964   32.7479   47.3905 H   0  0  0  0  0  0  0  0  0  0  0  0
   41.5954   33.2344   45.2609 H   0  0  0  0  0  0  0  0  0  0  0  0
   37.9240   31.4405   42.2561 H   0  0  0  0  0  0  0  0  0  0  0  0
   38.4802   34.4358   42.2691 H   0  0  0  0  0  0  0  0  0  0  0  0
   39.3945   33.1437   41.4216 H   0  0  0  0  0  0  0  0  0  0  0  0
   37.3744   32.6367   40.0593 H   0  0  0  0  0  0  0  0  0  0  0  0
   37.9230   34.3291   39.8427 H   0  0  0  0  0  0  0  0  0  0  0  0
   34.5735   33.2835   41.8796 H   0  0  0  0  0  0  0  0  0  0  0  0
   35.6336   32.1112   41.0532 H   0  0  0  0  0  0  0  0  0  0  0  0
   35.8983   31.9941   43.5238 H   0  0  0  0  0  0  0  0  0  0  0  0
   36.3537   33.7442   43.5397 H   0  0  0  0  0  0  0  0  0  0  0  0
   36.0648   31.3050   48.0472 H   0  0  0  0  0  0  0  0  0  0  0  0
   36.8301   30.5071   46.7200 H   0  0  0  0  0  0  0  0  0  0  0  0
   37.1794   29.3993   48.7814 H   0  0  0  0  0  0  0  0  0  0  0  0
   38.7351   30.1389   48.0795 H   0  0  0  0  0  0  0  0  0  0  0  0
   39.1779   30.9267   50.0099 H   0  0  0  0  0  0  0  0  0  0  0  0
   37.7160   31.9906   49.8289 H   0  0  0  0  0  0  0  0  0  0  0  0
   37.7819   30.6376   52.4325 H   0  0  0  0  0  0  0  0  0  0  0  0
  1  2  2  0
  1 13  1  0
  3  2  1  0
  4  3  2  0
  5  4  1  0
  5  6  2  0
  6  1  1  0
  7 12  1  0
  7  5  1  0
  8  7  1  0
  9 10  1  0
  9  8  1  0
 10 11  1  0
 11 12  1  0
 13 14  1  0
 14 15  1  0
 15 16  1  0
 16 17  1  0
  2 18  1  0
  3 19  1  0
  7 20  1  0
  8 21  1  0
  8 22  1  0
  9 23  1  0
  9 24  1  0
 11 25  1  0
 11 26  1  0
 12 27  1  0
 12 28  1  0
 14 29  1  0
 14 30  1  0
 15 31  1  0
 15 32  1  0
 16 33  1  0
 16 34  1  0
 17 35  1  0
M  ISO  8  18  14  19  14  20  13  21  13  22  13  23  13  24  13  25  13
M  ISO  8  26  13  27  13  28  13  29   8  30   8  31   8  32   8  33   8
M  ISO  2  34   8  35  11
M  END
>  <minimizedAffinity>  (1) 
-4.20355606

>  <minimizedRMSD>  (1) 
0.368125916

$$$$
