
     RDKit          3D

 22 23  0  0  0  0  0  0  0  0999 V2000
   38.2070   31.2460   48.2630 C   0  0  0  0  0  0  0  0  0  0  0  0
   38.7350   32.5020   48.3900 C   0  0  0  0  0  0  0  0  0  0  0  0
   39.4310   33.1760   47.4130 C   0  0  0  0  0  0  0  0  0  0  0  0
   39.6260   32.5590   46.1970 C   0  0  0  0  0  0  0  0  0  0  0  0
   39.0910   31.2820   46.0640 C   0  0  0  0  0  0  0  0  0  0  0  0
   38.4200   30.6750   47.0570 N   0  0  0  0  0  0  0  0  0  0  0  0
   37.7790   30.6950   50.6760 C   0  0  0  0  0  0  0  0  0  0  0  0
   37.4800   30.5620   49.3090 C   0  0  0  0  0  0  0  0  0  0  0  0
   36.4300   29.7280   48.9450 C   0  0  0  0  0  0  0  0  0  0  0  0
   35.7420   29.0800   49.9330 N   0  0  0  0  0  0  0  0  0  0  0  0
   36.0550   29.2300   51.2280 C   0  0  0  0  0  0  0  0  0  0  0  0
   37.0700   30.0330   51.6190 N   0  0  0  0  0  0  0  0  0  0  0  0
   40.3520   33.1370   45.0310 C   0  0  0  0  0  0  0  0  0  0  0  0
   38.5912   33.0151   49.3523 H   0  0  0  0  0  0  0  0  0  0  0  0
   39.8235   34.1866   47.5991 H   0  0  0  0  0  0  0  0  0  0  0  0
   39.2222   30.7494   45.1105 H   0  0  0  0  0  0  0  0  0  0  0  0
   38.6063   31.3507   50.9853 H   0  0  0  0  0  0  0  0  0  0  0  0
   36.1588   29.5924   47.8876 H   0  0  0  0  0  0  0  0  0  0  0  0
   35.4736   28.6882   51.9886 H   0  0  0  0  0  0  0  0  0  0  0  0
   41.1655   33.7846   45.3899 H   0  0  0  0  0  0  0  0  0  0  0  0
   40.7726   32.3239   44.4212 H   0  0  0  0  0  0  0  0  0  0  0  0
   39.6538   33.7292   44.4212 H   0  0  0  0  0  0  0  0  0  0  0  0
  1  2  2  0
  1  8  1  0
  3  2  1  0
  4  3  2  0
  5  4  1  0
  5  6  2  0
  6  1  1  0
  7 12  2  0
  8  7  1  0
  9  8  2  0
  9 10  1  0
 10 11  2  0
 11 12  1  0
 13  4  1  0
  2 14  1  0
  3 15  1  0
  5 16  1  0
  7 17  1  0
  9 18  1  0
 11 19  1  0
 13 20  1  0
 13 21  1  0
 13 22  1  0
M  ISO  8  14  14  15  14  16  14  17  14  18  14  19  14  20   8  21   8
M  ISO  1  22   8
M  END
>  <minimizedAffinity>  (1) 
-5.02584076

>  <minimizedRMSD>  (1) 
1.3465606

$$$$
