
     RDKit          3D

 35 37  0  0  0  0  0  0  0  0999 V2000
   36.7060   30.8030   47.9000 C   0  0  0  0  0  0  0  0  0  0  0  0
   37.6800   31.7500   47.9020 C   0  0  0  0  0  0  0  0  0  0  0  0
   38.2350   32.2900   46.7600 C   0  0  0  0  0  0  0  0  0  0  0  0
   37.8030   31.8710   45.5310 C   0  0  0  0  0  0  0  0  0  0  0  0
   36.8030   30.8970   45.5420 C   0  0  0  0  0  0  0  0  0  0  0  0
   36.2880   30.3960   46.6770 N   0  0  0  0  0  0  0  0  0  0  0  0
   36.8710   29.9370   50.2650 C   0  0  0  0  0  0  0  0  0  0  0  0
   36.1260   30.2380   49.1010 C   0  0  0  0  0  0  0  0  0  0  0  0
   34.7650   29.9690   49.1300 C   0  0  0  0  0  0  0  0  0  0  0  0
   34.2190   29.4350   50.2650 N   0  0  0  0  0  0  0  0  0  0  0  0
   34.9630   29.1670   51.3450 C   0  0  0  0  0  0  0  0  0  0  0  0
   36.2930   29.4120   51.3610 N   0  0  0  0  0  0  0  0  0  0  0  0
   38.2450   32.3020   44.2840 O   0  0  0  0  0  0  0  0  0  0  0  0
   40.1040   31.0140   43.6430 C   0  0  0  0  0  0  0  0  0  0  0  0
   38.7790   31.3770   43.4030 C   0  0  0  0  0  0  0  0  0  0  0  0
   38.1610   30.7820   42.3320 C   0  0  0  0  0  0  0  0  0  0  0  0
   38.8120   29.8770   41.5410 C   0  0  0  0  0  0  0  0  0  0  0  0
   40.1310   29.5230   41.7880 C   0  0  0  0  0  0  0  0  0  0  0  0
   40.7790   30.1060   42.8590 C   0  0  0  0  0  0  0  0  0  0  0  0
   41.1810   32.8030   45.0610 N   0  0  0  0  0  0  0  0  0  0  0  0
   40.8610   31.5890   44.7610 C   0  0  0  0  0  0  0  0  0  0  0  0
   41.4030   30.7490   45.7800 N   0  0  0  0  0  0  0  0  0  0  0  0
   40.9130   33.6210   44.4860 H   0  0  0  0  0  0  0  0  0  0  0  0
   38.0491   32.1085   48.8743 H   0  0  0  0  0  0  0  0  0  0  0  0
   39.0220   33.0547   46.8372 H   0  0  0  0  0  0  0  0  0  0  0  0
   36.4205   30.5240   44.5805 H   0  0  0  0  0  0  0  0  0  0  0  0
   37.9525   30.1375   50.2746 H   0  0  0  0  0  0  0  0  0  0  0  0
   34.1349   30.1819   48.2539 H   0  0  0  0  0  0  0  0  0  0  0  0
   34.4830   28.7389   52.2374 H   0  0  0  0  0  0  0  0  0  0  0  0
   37.1161   31.0396   42.1044 H   0  0  0  0  0  0  0  0  0  0  0  0
   38.2805   29.4208   40.6928 H   0  0  0  0  0  0  0  0  0  0  0  0
   40.6482   28.7950   41.1456 H   0  0  0  0  0  0  0  0  0  0  0  0
   41.8243   29.8473   43.0834 H   0  0  0  0  0  0  0  0  0  0  0  0
   41.9328   31.1625   46.5605 H   0  0  0  0  0  0  0  0  0  0  0  0
   41.2643   29.7294   45.7347 H   0  0  0  0  0  0  0  0  0  0  0  0
  1  2  2  0
  1  8  1  0
  3  2  1  0
  4  5  1  0
  4  3  2  0
  5  6  2  0
  6  1  1  0
  7 12  2  0
  8  9  2  0
  8  7  1  0
  9 10  1  0
 10 11  2  0
 11 12  1  0
 13  4  1  0
 14 21  1  0
 15 14  2  0
 15 13  1  0
 16 15  1  0
 17 18  1  0
 17 16  2  0
 18 19  2  0
 19 14  1  0
 21 20  2  0
 21 22  1  0
 23 20  1  0
  2 24  1  0
  3 25  1  0
  5 26  1  0
  7 27  1  0
  9 28  1  0
 11 29  1  0
 16 30  1  0
 17 31  1  0
 18 32  1  0
 19 33  1  0
 22 34  1  0
 22 35  1  0
M  ISO  8  24  14  25  14  26  14  27  14  28  14  29  14  30  14  31  14
M  ISO  2  32  14  33  14
M  END
>  <minimizedAffinity>  (1) 
-5.47684956

>  <minimizedRMSD>  (1) 
4.16870451

$$$$
