
     RDKit          3D

 41 45  0  0  0  0  0  0  0  0999 V2000
   36.7730   29.6540   49.9680 O   0  0  0  0  0  0  0  0  0  0  0  0
   32.9030   28.2490   49.1000 C   0  0  0  0  0  0  0  0  0  0  0  0
   33.1210   29.0870   50.1390 C   0  0  0  0  0  0  0  0  0  0  0  0
   34.3460   29.5930   50.4930 C   0  0  0  0  0  0  0  0  0  0  0  0
   35.4580   29.2520   49.7720 C   0  0  0  0  0  0  0  0  0  0  0  0
   35.2390   28.3820   48.6920 C   0  0  0  0  0  0  0  0  0  0  0  0
   34.0070   27.9120   48.3850 N   0  0  0  0  0  0  0  0  0  0  0  0
   30.4620   27.8090   49.5560 C   0  0  0  0  0  0  0  0  0  0  0  0
   31.6040   27.7290   48.7450 C   0  0  0  0  0  0  0  0  0  0  0  0
   31.4420   27.0990   47.5200 C   0  0  0  0  0  0  0  0  0  0  0  0
   30.2180   26.6030   47.1730 N   0  0  0  0  0  0  0  0  0  0  0  0
   29.1610   26.7120   47.9980 C   0  0  0  0  0  0  0  0  0  0  0  0
   29.2830   27.3140   49.1850 N   0  0  0  0  0  0  0  0  0  0  0  0
   37.4240   30.5110   49.1080 C   0  0  0  0  0  0  0  0  0  0  0  0
   38.1660   31.5240   49.7180 C   0  0  0  0  0  0  0  0  0  0  0  0
   38.7430   32.2780   48.6990 C   0  0  0  0  0  0  0  0  0  0  0  0
   38.3430   31.7120   47.5350 N   0  0  0  0  0  0  0  0  0  0  0  0
   37.5730   30.6810   47.7830 N   0  0  0  0  0  0  0  0  0  0  0  0
   39.9510   32.8160   45.9870 C   0  0  0  0  0  0  0  0  0  0  0  0
   38.7340   32.2090   46.2610 C   0  0  0  0  0  0  0  0  0  0  0  0
   37.7670   32.0330   45.2750 C   0  0  0  0  0  0  0  0  0  0  0  0
   38.0350   32.4800   43.9840 C   0  0  0  0  0  0  0  0  0  0  0  0
   37.3650   32.4860   42.7960 N   0  0  0  0  0  0  0  0  0  0  0  0
   38.1300   33.0650   41.8510 C   0  0  0  0  0  0  0  0  0  0  0  0
   39.3390   33.4640   42.3780 C   0  0  0  0  0  0  0  0  0  0  0  0
   39.2530   33.0840   43.7230 C   0  0  0  0  0  0  0  0  0  0  0  0
   40.2240   33.2620   44.7090 C   0  0  0  0  0  0  0  0  0  0  0  0
   32.2523   29.3847   50.7446 H   0  0  0  0  0  0  0  0  0  0  0  0
   34.4342   30.2713   51.3545 H   0  0  0  0  0  0  0  0  0  0  0  0
   36.0958   28.0723   48.0756 H   0  0  0  0  0  0  0  0  0  0  0  0
   30.5439   28.3000   50.5369 H   0  0  0  0  0  0  0  0  0  0  0  0
   32.2945   26.9995   46.8320 H   0  0  0  0  0  0  0  0  0  0  0  0
   28.1871   26.3018   47.6927 H   0  0  0  0  0  0  0  0  0  0  0  0
   38.2745   31.6945   50.7993 H   0  0  0  0  0  0  0  0  0  0  0  0
   39.3935   33.1573   48.8160 H   0  0  0  0  0  0  0  0  0  0  0  0
   40.6967   32.9417   46.7859 H   0  0  0  0  0  0  0  0  0  0  0  0
   36.8079   31.5492   45.5118 H   0  0  0  0  0  0  0  0  0  0  0  0
   36.4196   32.1062   42.6449 H   0  0  0  0  0  0  0  0  0  0  0  0
   37.8305   33.2009   40.8013 H   0  0  0  0  0  0  0  0  0  0  0  0
   40.1738   33.9628   41.8640 H   0  0  0  0  0  0  0  0  0  0  0  0
   41.1835   33.7458   44.4740 H   0  0  0  0  0  0  0  0  0  0  0  0
  2  3  2  0
  3  4  1  0
  5  1  1  0
  5  4  2  0
  6  5  1  0
  7  6  2  0
  7  2  1  0
  9  2  1  0
  9  8  2  0
 10  9  1  0
 11 10  2  0
 11 12  1  0
 12 13  2  0
 13  8  1  0
 14 15  1  0
 14  1  1  0
 16 15  2  0
 17 18  1  0
 17 16  1  0
 18 14  2  0
 19 20  2  0
 20 17  1  0
 21 20  1  0
 22 21  2  0
 23 22  1  0
 24 25  2  0
 24 23  1  0
 25 26  1  0
 26 22  1  0
 26 27  2  0
 27 19  1  0
  3 28  1  0
  4 29  1  0
  6 30  1  0
  8 31  1  0
 10 32  1  0
 12 33  1  0
 15 34  1  0
 16 35  1  0
 19 36  1  0
 21 37  1  0
 23 38  1  0
 24 39  1  0
 25 40  1  0
 27 41  1  0
M  ISO  8  28  14  29  14  30  14  31  14  32  14  33  14  34  14  35  14
M  ISO  6  36  14  37  14  38   9  39  14  40  14  41  14
M  END
>  <minimizedAffinity>  (1) 
-6.32931948

>  <minimizedRMSD>  (1) 
2.38239384

$$$$
