
     RDKit          3D

 41 44  0  0  1  0  0  0  0  0999 V2000
   32.6880   28.1530   49.0520 C   0  0  0  0  0  0  0  0  0  0  0  0
   32.9750   29.0730   49.9960 C   0  0  0  0  0  0  0  0  0  0  0  0
   34.2460   29.4480   50.3800 C   0  0  0  0  0  0  0  0  0  0  0  0
   35.3280   28.8630   49.7790 C   0  0  0  0  0  0  0  0  0  0  0  0
   35.0370   27.9040   48.7960 C   0  0  0  0  0  0  0  0  0  0  0  0
   33.7720   27.5780   48.4620 N   0  0  0  0  0  0  0  0  0  0  0  0
   30.2760   27.6390   49.5690 C   0  0  0  0  0  0  0  0  0  0  0  0
   31.3650   27.7710   48.6620 C   0  0  0  0  0  0  0  0  0  0  0  0
   31.0740   27.5040   47.3480 C   0  0  0  0  0  0  0  0  0  0  0  0
   29.8050   27.1390   46.9840 N   0  0  0  0  0  0  0  0  0  0  0  0
   28.8190   27.0330   47.8940 C   0  0  0  0  0  0  0  0  0  0  0  0
   29.0470   27.2810   49.1940 N   0  0  0  0  0  0  0  0  0  0  0  0
   36.6750   29.1060   50.0270 O   0  0  0  0  0  0  0  0  0  0  0  0
   37.3900   30.0740   49.3290 C   0  0  0  0  0  0  0  0  0  0  0  0
   37.7850   31.1510   50.1220 C   0  0  0  0  0  0  0  0  0  0  0  0
   38.4810   32.0250   49.2890 C   0  0  0  0  0  0  0  0  0  0  0  0
   38.4860   31.4710   48.0690 N   0  0  0  0  0  0  0  0  0  0  0  0
   37.8450   30.3310   48.1040 N   0  0  0  0  0  0  0  0  0  0  0  0
   40.0940   31.1150   46.3210 N   0  0  0  0  0  0  0  0  0  0  0  0
   39.0780   31.9890   46.8760 C   0  0  1  0  0  0  0  0  0  0  0  0
   38.1070   32.2590   45.7590 C   0  0  0  0  0  0  0  0  0  0  0  0
   38.7930   33.1100   44.8150 N   0  0  0  0  0  0  0  0  0  0  0  0
   40.0590   32.6320   44.3750 C   0  0  0  0  0  0  0  0  0  0  0  0
   40.8710   31.8790   45.3680 C   0  0  0  0  0  0  0  0  0  0  0  0
   32.1286   29.5630   50.4995 H   0  0  0  0  0  0  0  0  0  0  0  0
   34.3885   30.2093   51.1611 H   0  0  0  0  0  0  0  0  0  0  0  0
   35.8690   27.4016   48.2809 H   0  0  0  0  0  0  0  0  0  0  0  0
   30.4574   27.8428   50.6346 H   0  0  0  0  0  0  0  0  0  0  0  0
   31.8621   27.5833   46.5847 H   0  0  0  0  0  0  0  0  0  0  0  0
   27.8106   26.7386   47.5678 H   0  0  0  0  0  0  0  0  0  0  0  0
   37.5860   31.2846   51.1956 H   0  0  0  0  0  0  0  0  0  0  0  0
   38.9375   32.9834   49.5771 H   0  0  0  0  0  0  0  0  0  0  0  0
   40.7063   30.7691   47.0736 H   0  0  0  0  0  0  0  0  0  0  0  0
   39.5117   32.9373   47.2263 H   0  0  0  0  0  0  0  0  0  0  0  0
   37.8121   31.3159   45.2757 H   0  0  0  0  0  0  0  0  0  0  0  0
   37.1919   32.7396   46.1353 H   0  0  0  0  0  0  0  0  0  0  0  0
   38.1891   33.2196   43.9879 H   0  0  0  0  0  0  0  0  0  0  0  0
   39.8842   31.9682   43.5154 H   0  0  0  0  0  0  0  0  0  0  0  0
   40.6453   33.5344   44.1471 H   0  0  0  0  0  0  0  0  0  0  0  0
   41.5247   31.1836   44.8212 H   0  0  0  0  0  0  0  0  0  0  0  0
   41.4304   32.6278   45.9481 H   0  0  0  0  0  0  0  0  0  0  0  0
  1  2  2  0
  2  3  1  0
  4 13  1  0
  4  3  2  0
  5  4  1  0
  6  5  2  0
  6  1  1  0
  8  1  1  0
  8  7  2  0
  9  8  1  0
 10  9  2  0
 10 11  1  0
 11 12  2  0
 12  7  1  0
 14 13  1  0
 14 15  1  0
 16 15  2  0
 17 18  1  0
 17 16  1  0
 18 14  2  0
 19 20  1  0
 20 17  1  0
 21 20  1  0
 22 21  1  0
 23 22  1  0
 23 24  1  0
 24 19  1  0
  2 25  1  0
  3 26  1  0
  5 27  1  0
  7 28  1  0
  9 29  1  0
 11 30  1  0
 15 31  1  0
 16 32  1  0
 19 33  1  0
 20 34  1  1
 21 35  1  0
 21 36  1  0
 22 37  1  0
 23 38  1  0
 23 39  1  0
 24 40  1  0
 24 41  1  0
M  ISO  8  25  14  26  14  27  14  28  14  29  14  30  14  31  14  32  14
M  ISO  8  33   5  34  13  35  13  36  13  37   5  38  13  39  13  40  13
M  ISO  1  41  13
M  END
>  <minimizedAffinity>  (1) 
-6.24822998

>  <minimizedRMSD>  (1) 
2.07325983

$$$$
