
     RDKit          3D

 34 37  0  0  0  0  0  0  0  0999 V2000
   34.0030   28.4220   48.7110 C   0  0  0  0  0  0  0  0  0  0  0  0
   34.8450   28.2680   49.7550 C   0  0  0  0  0  0  0  0  0  0  0  0
   35.7430   29.2140   50.1940 C   0  0  0  0  0  0  0  0  0  0  0  0
   35.8230   30.4200   49.5530 C   0  0  0  0  0  0  0  0  0  0  0  0
   34.9550   30.5840   48.4730 C   0  0  0  0  0  0  0  0  0  0  0  0
   34.0970   29.6290   48.0830 N   0  0  0  0  0  0  0  0  0  0  0  0
   31.6880   27.4550   48.5440 C   0  0  0  0  0  0  0  0  0  0  0  0
   33.0720   27.4330   48.2600 C   0  0  0  0  0  0  0  0  0  0  0  0
   33.5110   26.3720   47.4960 C   0  0  0  0  0  0  0  0  0  0  0  0
   32.6340   25.4200   47.0590 N   0  0  0  0  0  0  0  0  0  0  0  0
   31.3250   25.5010   47.3660 C   0  0  0  0  0  0  0  0  0  0  0  0
   30.8450   26.5090   48.1040 N   0  0  0  0  0  0  0  0  0  0  0  0
   36.6710   31.4830   49.8630 O   0  0  0  0  0  0  0  0  0  0  0  0
   37.5790   31.9740   48.9290 C   0  0  0  0  0  0  0  0  0  0  0  0
   38.3510   33.0480   49.3960 C   0  0  0  0  0  0  0  0  0  0  0  0
   39.2090   33.4440   48.3860 C   0  0  0  0  0  0  0  0  0  0  0  0
   38.9410   32.6210   47.3620 N   0  0  0  0  0  0  0  0  0  0  0  0
   37.9970   31.7640   47.6670 N   0  0  0  0  0  0  0  0  0  0  0  0
   39.5340   32.5800   46.0600 C   0  0  0  0  0  0  0  0  0  0  0  0
   40.7720   32.4090   45.4870 C   0  0  0  0  0  0  0  0  0  0  0  0
   40.5980   32.4890   44.1640 N   0  0  0  0  0  0  0  0  0  0  0  0
   39.3030   32.7020   43.8780 C   0  0  0  0  0  0  0  0  0  0  0  0
   38.6380   32.7600   45.0440 N   0  0  0  0  0  0  0  0  0  0  0  0
   34.8106   27.3115   50.2972 H   0  0  0  0  0  0  0  0  0  0  0  0
   36.3930   29.0016   51.0557 H   0  0  0  0  0  0  0  0  0  0  0  0
   34.9749   31.5342   47.9191 H   0  0  0  0  0  0  0  0  0  0  0  0
   31.2861   28.2805   49.1498 H   0  0  0  0  0  0  0  0  0  0  0  0
   34.5768   26.2916   47.2362 H   0  0  0  0  0  0  0  0  0  0  0  0
   30.6370   24.7233   47.0030 H   0  0  0  0  0  0  0  0  0  0  0  0
   38.2851   33.4993   50.3970 H   0  0  0  0  0  0  0  0  0  0  0  0
   39.9496   34.2568   48.4163 H   0  0  0  0  0  0  0  0  0  0  0  0
   41.7219   32.2392   46.0150 H   0  0  0  0  0  0  0  0  0  0  0  0
   41.3489   32.4001   43.4646 H   0  0  0  0  0  0  0  0  0  0  0  0
   38.8671   32.8092   42.8738 H   0  0  0  0  0  0  0  0  0  0  0  0
  1  2  2  0
  2  3  1  0
  4 13  1  0
  4  3  2  0
  5  4  1  0
  6  5  2  0
  6  1  1  0
  8  7  2  0
  8  1  1  0
  9  8  1  0
 10 11  1  0
 10  9  2  0
 11 12  2  0
 12  7  1  0
 14 15  1  0
 14 13  1  0
 16 15  2  0
 17 18  1  0
 17 16  1  0
 18 14  2  0
 19 17  1  0
 20 19  2  0
 21 20  1  0
 22 21  1  0
 22 23  2  0
 23 19  1  0
  2 24  1  0
  3 25  1  0
  5 26  1  0
  7 27  1  0
  9 28  1  0
 11 29  1  0
 15 30  1  0
 16 31  1  0
 20 32  1  0
 21 33  1  0
 22 34  1  0
M  ISO  8  24  14  25  14  26  14  27  14  28  14  29  14  30  14  31  14
M  ISO  3  32  14  33   9  34  14
M  END
>  <minimizedAffinity>  (1) 
-6.14849234

>  <minimizedRMSD>  (1) 
1.77912068

$$$$
