
     RDKit          3D

 30 32  0  0  0  0  0  0  0  0999 V2000
   34.0630   28.8240   48.3100 C   0  0  0  0  0  0  0  0  0  0  0  0
   34.6650   28.3810   49.4320 C   0  0  0  0  0  0  0  0  0  0  0  0
   35.9020   28.8010   49.8780 C   0  0  0  0  0  0  0  0  0  0  0  0
   36.6020   29.7280   49.1640 C   0  0  0  0  0  0  0  0  0  0  0  0
   35.9850   30.1900   48.0010 C   0  0  0  0  0  0  0  0  0  0  0  0
   34.7810   29.7470   47.6170 N   0  0  0  0  0  0  0  0  0  0  0  0
   31.9290   27.5210   48.5630 C   0  0  0  0  0  0  0  0  0  0  0  0
   32.7790   28.3930   47.8410 C   0  0  0  0  0  0  0  0  0  0  0  0
   32.3020   28.8320   46.6140 C   0  0  0  0  0  0  0  0  0  0  0  0
   31.0820   28.4170   46.1770 N   0  0  0  0  0  0  0  0  0  0  0  0
   30.3140   27.5750   46.9250 C   0  0  0  0  0  0  0  0  0  0  0  0
   30.7360   27.1230   48.1250 N   0  0  0  0  0  0  0  0  0  0  0  0
   37.8580   30.2550   49.4730 O   0  0  0  0  0  0  0  0  0  0  0  0
   38.4070   31.2970   48.7280 C   0  0  0  0  0  0  0  0  0  0  0  0
   38.4230   32.5240   49.3830 C   0  0  0  0  0  0  0  0  0  0  0  0
   38.9950   33.4550   48.5190 C   0  0  0  0  0  0  0  0  0  0  0  0
   39.2980   32.7800   47.4000 N   0  0  0  0  0  0  0  0  0  0  0  0
   38.9550   31.5220   47.5210 N   0  0  0  0  0  0  0  0  0  0  0  0
   39.9050   33.1520   46.1360 C   0  0  0  0  0  0  0  0  0  0  0  0
   34.1323   27.6311   50.0353 H   0  0  0  0  0  0  0  0  0  0  0  0
   36.3221   28.3888   50.8073 H   0  0  0  0  0  0  0  0  0  0  0  0
   36.5017   30.9387   47.3825 H   0  0  0  0  0  0  0  0  0  0  0  0
   32.2731   27.1516   49.5403 H   0  0  0  0  0  0  0  0  0  0  0  0
   32.9075   29.5125   45.9973 H   0  0  0  0  0  0  0  0  0  0  0  0
   29.3321   27.2580   46.5437 H   0  0  0  0  0  0  0  0  0  0  0  0
   38.0514   32.7231   50.3990 H   0  0  0  0  0  0  0  0  0  0  0  0
   39.1636   34.5243   48.7142 H   0  0  0  0  0  0  0  0  0  0  0  0
   40.8289   33.7182   46.3255 H   0  0  0  0  0  0  0  0  0  0  0  0
   40.1425   32.2442   45.5620 H   0  0  0  0  0  0  0  0  0  0  0  0
   39.2039   33.7757   45.5620 H   0  0  0  0  0  0  0  0  0  0  0  0
  1  2  2  0
  2  3  1  0
  4 13  1  0
  4  3  2  0
  5  4  1  0
  6  5  2  0
  6  1  1  0
  8  1  1  0
  8  7  2  0
  9  8  1  0
 10  9  2  0
 10 11  1  0
 11 12  2  0
 12  7  1  0
 14 15  1  0
 14 13  1  0
 16 15  2  0
 17 18  1  0
 17 16  1  0
 18 14  2  0
 19 17  1  0
  2 20  1  0
  3 21  1  0
  5 22  1  0
  7 23  1  0
  9 24  1  0
 11 25  1  0
 15 26  1  0
 16 27  1  0
 19 28  1  0
 19 29  1  0
 19 30  1  0
M  ISO  8  20  14  21  14  22  14  23  14  24  14  25  14  26  14  27  14
M  ISO  3  28   8  29   8  30   8
M  END
>  <minimizedAffinity>  (1) 
-5.38044786

>  <minimizedRMSD>  (1) 
0.495031923

$$$$
