
     RDKit          3D

 43 46  0  0  0  0  0  0  0  0999 V2000
   38.4100   31.4220   48.8100 C   0  0  0  0  0  0  0  0  0  0  0  0
   38.4520   32.6350   49.4540 C   0  0  0  0  0  0  0  0  0  0  0  0
   39.0390   33.5470   48.5790 C   0  0  0  0  0  0  0  0  0  0  0  0
   39.3310   32.8900   47.4610 N   0  0  0  0  0  0  0  0  0  0  0  0
   38.9590   31.6670   47.6180 N   0  0  0  0  0  0  0  0  0  0  0  0
   39.9630   33.4010   46.2740 C   0  0  0  0  0  0  0  0  0  0  0  0
   40.7410   32.3140   45.6100 C   0  0  0  0  0  0  0  0  0  0  0  0
   40.3790   31.9760   44.2300 C   0  0  0  0  0  0  0  0  0  0  0  0
   40.5720   30.8670   43.4380 C   0  0  0  0  0  0  0  0  0  0  0  0
   40.0820   30.7910   42.1550 C   0  0  0  0  0  0  0  0  0  0  0  0
   39.3680   31.8170   41.5790 C   0  0  0  0  0  0  0  0  0  0  0  0
   39.1570   32.9440   42.3450 C   0  0  0  0  0  0  0  0  0  0  0  0
   39.6520   33.0140   43.6390 C   0  0  0  0  0  0  0  0  0  0  0  0
   37.8550   30.3900   49.5400 O   0  0  0  0  0  0  0  0  0  0  0  0
   34.1290   28.8590   48.3310 C   0  0  0  0  0  0  0  0  0  0  0  0
   34.7450   28.4090   49.4640 C   0  0  0  0  0  0  0  0  0  0  0  0
   35.9620   28.8630   49.9210 C   0  0  0  0  0  0  0  0  0  0  0  0
   36.6350   29.8220   49.2350 C   0  0  0  0  0  0  0  0  0  0  0  0
   36.0170   30.2900   48.0760 C   0  0  0  0  0  0  0  0  0  0  0  0
   34.8200   29.8260   47.6500 N   0  0  0  0  0  0  0  0  0  0  0  0
   32.0120   27.5700   48.5840 C   0  0  0  0  0  0  0  0  0  0  0  0
   32.8660   28.3990   47.8400 C   0  0  0  0  0  0  0  0  0  0  0  0
   32.4400   28.7640   46.5890 C   0  0  0  0  0  0  0  0  0  0  0  0
   31.2330   28.3210   46.1200 N   0  0  0  0  0  0  0  0  0  0  0  0
   30.4430   27.5140   46.8910 C   0  0  0  0  0  0  0  0  0  0  0  0
   30.8230   27.1300   48.1310 N   0  0  0  0  0  0  0  0  0  0  0  0
   38.0898   32.8468   50.4708 H   0  0  0  0  0  0  0  0  0  0  0  0
   39.2260   34.6128   48.7768 H   0  0  0  0  0  0  0  0  0  0  0  0
   39.1937   33.7749   45.5823 H   0  0  0  0  0  0  0  0  0  0  0  0
   40.6435   34.2206   46.5480 H   0  0  0  0  0  0  0  0  0  0  0  0
   41.7984   32.6170   45.6097 H   0  0  0  0  0  0  0  0  0  0  0  0
   40.5147   31.4083   46.1918 H   0  0  0  0  0  0  0  0  0  0  0  0
   41.1360   30.0143   43.8440 H   0  0  0  0  0  0  0  0  0  0  0  0
   40.2672   29.8787   41.5691 H   0  0  0  0  0  0  0  0  0  0  0  0
   38.9822   31.7412   40.5517 H   0  0  0  0  0  0  0  0  0  0  0  0
   38.5934   33.7916   41.9280 H   0  0  0  0  0  0  0  0  0  0  0  0
   39.4645   33.9255   44.2255 H   0  0  0  0  0  0  0  0  0  0  0  0
   34.2344   27.6314   50.0510 H   0  0  0  0  0  0  0  0  0  0  0  0
   36.3903   28.4473   50.8450 H   0  0  0  0  0  0  0  0  0  0  0  0
   36.5230   31.0674   47.4847 H   0  0  0  0  0  0  0  0  0  0  0  0
   32.3313   27.2634   49.5910 H   0  0  0  0  0  0  0  0  0  0  0  0
   33.0687   29.4133   45.9619 H   0  0  0  0  0  0  0  0  0  0  0  0
   29.4768   27.1694   46.4939 H   0  0  0  0  0  0  0  0  0  0  0  0
  1  2  1  0
  1 14  1  0
  3  2  2  0
  4  5  1  0
  4  3  1  0
  5  1  2  0
  6  4  1  0
  7  6  1  0
  8  7  1  0
  9  8  2  0
 10  9  1  0
 11 10  2  0
 11 12  1  0
 12 13  2  0
 13  8  1  0
 15 16  2  0
 16 17  1  0
 18 14  1  0
 18 17  2  0
 19 18  1  0
 20 19  2  0
 20 15  1  0
 22 15  1  0
 22 21  2  0
 23 22  1  0
 24 23  2  0
 24 25  1  0
 25 26  2  0
 26 21  1  0
  2 27  1  0
  3 28  1  0
  6 29  1  0
  6 30  1  0
  7 31  1  0
  7 32  1  0
  9 33  1  0
 10 34  1  0
 11 35  1  0
 12 36  1  0
 13 37  1  0
 16 38  1  0
 17 39  1  0
 19 40  1  0
 21 41  1  0
 23 42  1  0
 25 43  1  0
M  ISO  8  27  14  28  14  29   8  30   8  31   8  32   8  33  14  34  14
M  ISO  8  35  14  36  14  37  14  38  14  39  14  40  14  41  14  42  14
M  ISO  1  43  14
M  END
>  <minimizedAffinity>  (1) 
-6.4493022

>  <minimizedRMSD>  (1) 
1.47261226

$$$$
