
     RDKit          3D

 47 50  0  0  0  0  0  0  0  0999 V2000
   38.4620   31.5100   48.7830 C   0  0  0  0  0  0  0  0  0  0  0  0
   38.5480   32.7510   49.3850 C   0  0  0  0  0  0  0  0  0  0  0  0
   39.1390   33.6110   48.4700 C   0  0  0  0  0  0  0  0  0  0  0  0
   39.3860   32.8790   47.3660 N   0  0  0  0  0  0  0  0  0  0  0  0
   38.9890   31.6530   47.5520 N   0  0  0  0  0  0  0  0  0  0  0  0
   40.0040   33.3750   46.1410 C   0  0  0  0  0  0  0  0  0  0  0  0
   40.8040   32.2440   45.5600 C   0  0  0  0  0  0  0  0  0  0  0  0
   40.3430   31.9170   44.1410 C   0  0  0  0  0  0  0  0  0  0  0  0
   39.5120   33.0040   43.5490 C   0  0  0  0  0  0  0  0  0  0  0  0
   38.1480   32.6130   43.0980 C   0  0  0  0  0  0  0  0  0  0  0  0
   38.0100   31.2690   42.7540 O   0  0  0  0  0  0  0  0  0  0  0  0
   38.2400   30.5650   43.9590 C   0  0  0  0  0  0  0  0  0  0  0  0
   39.7480   30.5510   44.1060 C   0  0  0  0  0  0  0  0  0  0  0  0
   37.8860   30.5300   49.5810 O   0  0  0  0  0  0  0  0  0  0  0  0
   34.1820   28.9220   48.3640 C   0  0  0  0  0  0  0  0  0  0  0  0
   34.8640   28.4140   49.4280 C   0  0  0  0  0  0  0  0  0  0  0  0
   36.0770   28.8810   49.8900 C   0  0  0  0  0  0  0  0  0  0  0  0
   36.6760   29.9310   49.2610 C   0  0  0  0  0  0  0  0  0  0  0  0
   35.9890   30.4610   48.1700 C   0  0  0  0  0  0  0  0  0  0  0  0
   34.8070   29.9660   47.7610 N   0  0  0  0  0  0  0  0  0  0  0  0
   32.0620   27.6430   48.6620 C   0  0  0  0  0  0  0  0  0  0  0  0
   32.9330   28.4280   47.9030 C   0  0  0  0  0  0  0  0  0  0  0  0
   32.5200   28.7200   46.6260 C   0  0  0  0  0  0  0  0  0  0  0  0
   31.3210   28.2560   46.1560 N   0  0  0  0  0  0  0  0  0  0  0  0
   30.5210   27.5000   46.9440 C   0  0  0  0  0  0  0  0  0  0  0  0
   30.8790   27.1770   48.2200 N   0  0  0  0  0  0  0  0  0  0  0  0
   38.2110   33.0090   50.3998 H   0  0  0  0  0  0  0  0  0  0  0  0
   39.3616   34.6782   48.6169 H   0  0  0  0  0  0  0  0  0  0  0  0
   39.2281   33.6930   45.4290 H   0  0  0  0  0  0  0  0  0  0  0  0
   40.6475   34.2422   46.3507 H   0  0  0  0  0  0  0  0  0  0  0  0
   41.8658   32.5302   45.5359 H   0  0  0  0  0  0  0  0  0  0  0  0
   40.6580   31.3534   46.1889 H   0  0  0  0  0  0  0  0  0  0  0  0
   41.2114   31.8816   43.4667 H   0  0  0  0  0  0  0  0  0  0  0  0
   39.4021   33.7938   44.3067 H   0  0  0  0  0  0  0  0  0  0  0  0
   40.0443   33.3217   42.6403 H   0  0  0  0  0  0  0  0  0  0  0  0
   37.4420   32.8322   43.9126 H   0  0  0  0  0  0  0  0  0  0  0  0
   37.9466   33.1896   42.1831 H   0  0  0  0  0  0  0  0  0  0  0  0
   37.7710   31.0835   44.8082 H   0  0  0  0  0  0  0  0  0  0  0  0
   37.8113   29.5521   43.9410 H   0  0  0  0  0  0  0  0  0  0  0  0
   40.0040   30.0332   45.0421 H   0  0  0  0  0  0  0  0  0  0  0  0
   40.1594   30.0357   43.2255 H   0  0  0  0  0  0  0  0  0  0  0  0
   34.4119   27.5645   49.9608 H   0  0  0  0  0  0  0  0  0  0  0  0
   36.5573   28.4092   50.7599 H   0  0  0  0  0  0  0  0  0  0  0  0
   36.4273   31.3109   47.6263 H   0  0  0  0  0  0  0  0  0  0  0  0
   32.3627   27.3887   49.6891 H   0  0  0  0  0  0  0  0  0  0  0  0
   33.1595   29.3332   45.9741 H   0  0  0  0  0  0  0  0  0  0  0  0
   29.5612   27.1382   46.5466 H   0  0  0  0  0  0  0  0  0  0  0  0
  1  2  1  0
  1 14  1  0
  3  2  2  0
  4  5  1  0
  4  3  1  0
  5  1  2  0
  6  4  1  0
  7  6  1  0
  8  7  1  0
  9  8  1  0
 10  9  1  0
 11 10  1  0
 11 12  1  0
 12 13  1  0
 13  8  1  0
 15 16  2  0
 16 17  1  0
 18 14  1  0
 18 17  2  0
 19 18  1  0
 20 19  2  0
 20 15  1  0
 22 15  1  0
 22 21  2  0
 23 22  1  0
 24 23  2  0
 24 25  1  0
 25 26  2  0
 26 21  1  0
  2 27  1  0
  3 28  1  0
  6 29  1  0
  6 30  1  0
  7 31  1  0
  7 32  1  0
  8 33  1  0
  9 34  1  0
  9 35  1  0
 10 36  1  0
 10 37  1  0
 12 38  1  0
 12 39  1  0
 13 40  1  0
 13 41  1  0
 16 42  1  0
 17 43  1  0
 19 44  1  0
 21 45  1  0
 23 46  1  0
 25 47  1  0
M  ISO  8  27  14  28  14  29   8  30   8  31   8  32   8  33  13  34  13
M  ISO  8  35  13  36  13  37  13  38  13  39  13  40  13  41  13  42  14
M  ISO  5  43  14  44  14  45  14  46  14  47  14
M  END
>  <minimizedAffinity>  (1) 
-6.28708363

>  <minimizedRMSD>  (1) 
1.33429527

$$$$
