
     RDKit          3D

 24 24  0  0  0  0  0  0  0  0999 V2000
   37.1470   31.1320   47.9280 C   0  0  0  0  0  0  0  0  0  0  0  0
   37.6730   30.2750   48.8300 C   0  0  0  0  0  0  0  0  0  0  0  0
   38.0520   30.8190   50.1660 C   0  0  0  0  0  0  0  0  0  0  0  0
   37.2440   29.9400   51.5160 S   0  0  0  0  0  0  0  0  0  0  0  0
   38.2400   31.9430   47.7310 O   0  0  0  0  0  0  0  0  0  0  0  0
   38.5280   32.2910   46.4140 C   0  0  0  0  0  0  0  0  0  0  0  0
   39.8250   32.7740   46.2800 C   0  0  0  0  0  0  0  0  0  0  0  0
   40.2730   33.1700   45.0070 C   0  0  0  0  0  0  0  0  0  0  0  0
   39.3840   33.0500   43.9750 N   0  0  0  0  0  0  0  0  0  0  0  0
   38.1240   32.5720   44.1510 C   0  0  0  0  0  0  0  0  0  0  0  0
   37.7050   32.2020   45.3360 N   0  0  0  0  0  0  0  0  0  0  0  0
   37.1840   32.4550   43.0050 C   0  0  0  0  0  0  0  0  0  0  0  0
   36.8423   30.6202   47.0032 H   0  0  0  0  0  0  0  0  0  0  0  0
   36.2295   31.6477   48.2478 H   0  0  0  0  0  0  0  0  0  0  0  0
   36.9322   29.4794   48.9977 H   0  0  0  0  0  0  0  0  0  0  0  0
   38.6241   29.9506   48.3826 H   0  0  0  0  0  0  0  0  0  0  0  0
   39.1416   30.7303   50.2880 H   0  0  0  0  0  0  0  0  0  0  0  0
   37.7277   31.8693   50.2062 H   0  0  0  0  0  0  0  0  0  0  0  0
   37.6940   30.4296   52.7138 H   0  0  0  0  0  0  0  0  0  0  0  0
   40.4889   32.8451   47.1542 H   0  0  0  0  0  0  0  0  0  0  0  0
   41.2902   33.5578   44.8491 H   0  0  0  0  0  0  0  0  0  0  0  0
   36.1589   32.3274   43.3831 H   0  0  0  0  0  0  0  0  0  0  0  0
   37.2379   33.3668   42.3920 H   0  0  0  0  0  0  0  0  0  0  0  0
   37.4597   31.5842   42.3920 H   0  0  0  0  0  0  0  0  0  0  0  0
  1  2  1  0
  2  3  1  0
  3  4  1  0
  5  1  1  0
  6  5  1  0
  7  6  2  0
  8  7  1  0
  9 10  1  0
  9  8  2  0
 10 11  2  0
 11  6  1  0
 12 10  1  0
  1 13  1  0
  1 14  1  0
  2 15  1  0
  2 16  1  0
  3 17  1  0
  3 18  1  0
  4 19  1  0
  7 20  1  0
  8 21  1  0
 12 22  1  0
 12 23  1  0
 12 24  1  0
M  ISO  8  13   8  14   8  15   8  16   8  17   8  18   8  19  11  20  14
M  ISO  4  21  14  22   8  23   8  24   8
M  END
>  <minimizedAffinity>  (1) 
-3.79188347

>  <minimizedRMSD>  (1) 
0.167463303

$$$$
