
     RDKit          3D

 35 37  0  0  0  0  0  0  0  0999 V2000
   37.4680   29.2150   50.8890 Br  0  0  0  0  0  0  0  0  0  0  0  0
   36.0350   29.2870   49.6290 C   0  0  0  0  0  0  0  0  0  0  0  0
   36.0110   30.2640   48.6630 C   0  0  0  0  0  0  0  0  0  0  0  0
   34.9370   30.2550   47.7800 C   0  0  0  0  0  0  0  0  0  0  0  0
   33.9150   29.3350   47.8210 C   0  0  0  0  0  0  0  0  0  0  0  0
   33.9910   28.3730   48.8170 C   0  0  0  0  0  0  0  0  0  0  0  0
   35.0440   28.3590   49.7060 C   0  0  0  0  0  0  0  0  0  0  0  0
   38.0320   33.2040   49.4230 C   0  0  0  0  0  0  0  0  0  0  0  0
   39.0370   33.1890   48.4300 C   0  0  0  0  0  0  0  0  0  0  0  0
   39.0060   32.1580   47.5060 C   0  0  0  0  0  0  0  0  0  0  0  0
   38.0180   31.2150   47.5910 N   0  0  0  0  0  0  0  0  0  0  0  0
   37.0650   31.2670   48.5680 C   0  0  0  0  0  0  0  0  0  0  0  0
   37.0850   32.2600   49.4700 N   0  0  0  0  0  0  0  0  0  0  0  0
   32.8300   29.3650   46.8910 N   0  0  0  0  0  0  0  0  0  0  0  0
   32.7590   30.5830   46.1150 C   0  0  0  0  0  0  0  0  0  0  0  0
   31.6480   30.6530   45.1400 C   0  0  0  0  0  0  0  0  0  0  0  0
   30.4990   29.7270   45.4260 C   0  0  0  0  0  0  0  0  0  0  0  0
   30.9290   28.3270   45.7580 C   0  0  0  0  0  0  0  0  0  0  0  0
   31.9520   28.2120   46.8330 C   0  0  0  0  0  0  0  0  0  0  0  0
   34.9024   31.0309   47.0011 H   0  0  0  0  0  0  0  0  0  0  0  0
   33.2011   27.6118   48.8984 H   0  0  0  0  0  0  0  0  0  0  0  0
   35.0834   27.5868   50.4884 H   0  0  0  0  0  0  0  0  0  0  0  0
   38.0281   34.0086   50.1731 H   0  0  0  0  0  0  0  0  0  0  0  0
   39.8143   33.9665   48.3923 H   0  0  0  0  0  0  0  0  0  0  0  0
   39.7663   32.0978   46.7134 H   0  0  0  0  0  0  0  0  0  0  0  0
   32.6495   31.4247   46.8146 H   0  0  0  0  0  0  0  0  0  0  0  0
   33.6845   30.6175   45.5215 H   0  0  0  0  0  0  0  0  0  0  0  0
   32.0487   30.4043   44.1462 H   0  0  0  0  0  0  0  0  0  0  0  0
   31.2452   31.6747   45.2024 H   0  0  0  0  0  0  0  0  0  0  0  0
   29.9314   30.1287   46.2783 H   0  0  0  0  0  0  0  0  0  0  0  0
   29.8915   29.6714   44.5107 H   0  0  0  0  0  0  0  0  0  0  0  0
   30.0385   27.7646   46.0752 H   0  0  0  0  0  0  0  0  0  0  0  0
   31.4006   27.9303   44.8468 H   0  0  0  0  0  0  0  0  0  0  0  0
   31.4375   28.1116   47.8001 H   0  0  0  0  0  0  0  0  0  0  0  0
   32.5721   27.3310   46.6109 H   0  0  0  0  0  0  0  0  0  0  0  0
  2  7  2  0
  2  1  1  0
  3  2  1  0
  4  5  1  0
  4  3  2  0
  5  6  2  0
  6  7  1  0
  8 13  2  0
  9  8  1  0
 10 11  1  0
 10  9  2  0
 11 12  2  0
 12  3  1  0
 12 13  1  0
 14  5  1  0
 15 14  1  0
 16 17  1  0
 16 15  1  0
 17 18  1  0
 18 19  1  0
 19 14  1  0
  4 20  1  0
  6 21  1  0
  7 22  1  0
  8 23  1  0
  9 24  1  0
 10 25  1  0
 15 26  1  0
 15 27  1  0
 16 28  1  0
 16 29  1  0
 17 30  1  0
 17 31  1  0
 18 32  1  0
 18 33  1  0
 19 34  1  0
 19 35  1  0
M  ISO  8  20  14  21  14  22  14  23  14  24  14  25  14  26  13  27  13
M  ISO  8  28  13  29  13  30  13  31  13  32  13  33  13  34  13  35  13
M  END
>  <minimizedAffinity>  (1) 
-5.88724232

>  <minimizedRMSD>  (1) 
0.933315516

$$$$
