
     RDKit          3D

 27 29  0  0  0  0  0  0  0  0999 V2000
   37.3150   29.3550   51.0570 Br  0  0  0  0  0  0  0  0  0  0  0  0
   35.9730   29.3390   49.7070 C   0  0  0  0  0  0  0  0  0  0  0  0
   35.9920   30.2560   48.6590 C   0  0  0  0  0  0  0  0  0  0  0  0
   34.9900   30.1830   47.7210 C   0  0  0  0  0  0  0  0  0  0  0  0
   33.9740   29.2410   47.7800 C   0  0  0  0  0  0  0  0  0  0  0  0
   33.9790   28.3480   48.8230 C   0  0  0  0  0  0  0  0  0  0  0  0
   34.9790   28.4070   49.7750 C   0  0  0  0  0  0  0  0  0  0  0  0
   37.9980   33.1930   49.4380 C   0  0  0  0  0  0  0  0  0  0  0  0
   39.0270   33.1890   48.4710 C   0  0  0  0  0  0  0  0  0  0  0  0
   39.0080   32.1440   47.5440 C   0  0  0  0  0  0  0  0  0  0  0  0
   38.0140   31.2120   47.6310 N   0  0  0  0  0  0  0  0  0  0  0  0
   37.0490   31.2570   48.5750 C   0  0  0  0  0  0  0  0  0  0  0  0
   37.0350   32.2600   49.4940 N   0  0  0  0  0  0  0  0  0  0  0  0
   32.9280   29.1940   46.7650 C   0  0  0  0  0  0  0  0  0  0  0  0
   32.5030   30.2780   46.0190 C   0  0  0  0  0  0  0  0  0  0  0  0
   31.5290   29.8240   45.2000 N   0  0  0  0  0  0  0  0  0  0  0  0
   31.3490   28.4960   45.4270 C   0  0  0  0  0  0  0  0  0  0  0  0
   32.2270   28.1260   46.4020 N   0  0  0  0  0  0  0  0  0  0  0  0
   34.9942   30.9020   46.8885 H   0  0  0  0  0  0  0  0  0  0  0  0
   33.1885   27.5870   48.9007 H   0  0  0  0  0  0  0  0  0  0  0  0
   34.9734   27.6864   50.6061 H   0  0  0  0  0  0  0  0  0  0  0  0
   37.9851   34.0020   50.1833 H   0  0  0  0  0  0  0  0  0  0  0  0
   39.8032   33.9682   48.4488 H   0  0  0  0  0  0  0  0  0  0  0  0
   39.7773   32.0736   46.7609 H   0  0  0  0  0  0  0  0  0  0  0  0
   32.8834   31.3083   46.0803 H   0  0  0  0  0  0  0  0  0  0  0  0
   31.0083   30.3912   44.5159 H   0  0  0  0  0  0  0  0  0  0  0  0
   30.6275   27.8403   44.9176 H   0  0  0  0  0  0  0  0  0  0  0  0
  2  7  2  0
  2  1  1  0
  3  2  1  0
  4  5  1  0
  4  3  2  0
  5  6  2  0
  6  7  1  0
  8 13  2  0
  9  8  1  0
 10 11  1  0
 10  9  2  0
 11 12  2  0
 12  3  1  0
 12 13  1  0
 14  5  1  0
 15 14  2  0
 16 17  1  0
 16 15  1  0
 17 18  2  0
 18 14  1  0
  4 19  1  0
  6 20  1  0
  7 21  1  0
  8 22  1  0
  9 23  1  0
 10 24  1  0
 15 25  1  0
 16 26  1  0
 17 27  1  0
M  ISO  8  19  14  20  14  21  14  22  14  23  14  24  14  25  14  26   9
M  ISO  1  27  14
M  END
>  <minimizedAffinity>  (1) 
-5.79675531

>  <minimizedRMSD>  (1) 
0.362973779

$$$$
