
     RDKit          3D

 27 29  0  0  0  0  0  0  0  0999 V2000
   37.3270   29.3560   51.0680 Br  0  0  0  0  0  0  0  0  0  0  0  0
   35.9690   29.3370   49.7150 C   0  0  0  0  0  0  0  0  0  0  0  0
   35.9860   30.2440   48.6690 C   0  0  0  0  0  0  0  0  0  0  0  0
   34.9820   30.1680   47.7420 C   0  0  0  0  0  0  0  0  0  0  0  0
   33.9640   29.2420   47.7950 C   0  0  0  0  0  0  0  0  0  0  0  0
   33.9670   28.3540   48.8390 C   0  0  0  0  0  0  0  0  0  0  0  0
   34.9660   28.4030   49.7940 C   0  0  0  0  0  0  0  0  0  0  0  0
   37.9930   33.1990   49.4400 C   0  0  0  0  0  0  0  0  0  0  0  0
   39.0300   33.1710   48.4580 C   0  0  0  0  0  0  0  0  0  0  0  0
   39.0070   32.1190   47.5440 C   0  0  0  0  0  0  0  0  0  0  0  0
   38.0160   31.1820   47.6290 N   0  0  0  0  0  0  0  0  0  0  0  0
   37.0500   31.2440   48.5740 C   0  0  0  0  0  0  0  0  0  0  0  0
   37.0420   32.2560   49.4810 N   0  0  0  0  0  0  0  0  0  0  0  0
   32.9280   29.2190   46.7730 C   0  0  0  0  0  0  0  0  0  0  0  0
   32.5130   30.3000   46.0270 C   0  0  0  0  0  0  0  0  0  0  0  0
   31.5030   29.8710   45.1580 C   0  0  0  0  0  0  0  0  0  0  0  0
   31.3470   28.5480   45.4110 N   0  0  0  0  0  0  0  0  0  0  0  0
   32.1940   28.1710   46.3690 N   0  0  0  0  0  0  0  0  0  0  0  0
   34.9885   30.8861   46.9087 H   0  0  0  0  0  0  0  0  0  0  0  0
   33.1711   27.5988   48.9176 H   0  0  0  0  0  0  0  0  0  0  0  0
   34.9568   27.6848   50.6271 H   0  0  0  0  0  0  0  0  0  0  0  0
   37.9748   34.0133   50.1794 H   0  0  0  0  0  0  0  0  0  0  0  0
   39.8113   33.9446   48.4247 H   0  0  0  0  0  0  0  0  0  0  0  0
   39.7780   32.0439   46.7630 H   0  0  0  0  0  0  0  0  0  0  0  0
   32.9074   31.3242   46.1014 H   0  0  0  0  0  0  0  0  0  0  0  0
   30.9523   30.4786   44.4249 H   0  0  0  0  0  0  0  0  0  0  0  0
   30.6759   27.9283   44.9352 H   0  0  0  0  0  0  0  0  0  0  0  0
  2  7  2  0
  2  1  1  0
  3  2  1  0
  4  5  1  0
  4  3  2  0
  5  6  2  0
  6  7  1  0
  8 13  2  0
  9  8  1  0
 10 11  1  0
 10  9  2  0
 11 12  2  0
 12  3  1  0
 12 13  1  0
 14  5  1  0
 15 14  1  0
 16 17  1  0
 16 15  2  0
 17 18  1  0
 18 14  2  0
  4 19  1  0
  6 20  1  0
  7 21  1  0
  8 22  1  0
  9 23  1  0
 10 24  1  0
 15 25  1  0
 16 26  1  0
 17 27  1  0
M  ISO  8  19  14  20  14  21  14  22  14  23  14  24  14  25  14  26  14
M  ISO  1  27   9
M  END
>  <minimizedAffinity>  (1) 
-5.79538488

>  <minimizedRMSD>  (1) 
0.604384482

$$$$
