
     RDKit          3D

 26 27  0  0  0  0  0  0  0  0999 V2000
   37.2800   29.3470   51.0540 Br  0  0  0  0  0  0  0  0  0  0  0  0
   35.9510   29.3120   49.6770 C   0  0  0  0  0  0  0  0  0  0  0  0
   35.9830   30.2210   48.6280 C   0  0  0  0  0  0  0  0  0  0  0  0
   34.9970   30.1300   47.6830 C   0  0  0  0  0  0  0  0  0  0  0  0
   33.9840   29.1930   47.7170 C   0  0  0  0  0  0  0  0  0  0  0  0
   33.9770   28.3050   48.7670 C   0  0  0  0  0  0  0  0  0  0  0  0
   34.9620   28.3740   49.7390 C   0  0  0  0  0  0  0  0  0  0  0  0
   37.9780   33.1670   49.4370 C   0  0  0  0  0  0  0  0  0  0  0  0
   39.0130   33.1620   48.4750 C   0  0  0  0  0  0  0  0  0  0  0  0
   39.0030   32.1260   47.5530 C   0  0  0  0  0  0  0  0  0  0  0  0
   38.0160   31.1690   47.6030 N   0  0  0  0  0  0  0  0  0  0  0  0
   37.0350   31.2220   48.5570 C   0  0  0  0  0  0  0  0  0  0  0  0
   37.0220   32.2290   49.4750 N   0  0  0  0  0  0  0  0  0  0  0  0
   32.9750   29.2000   46.6310 C   0  0  0  0  0  0  0  0  0  0  0  0
   32.7090   30.5830   46.0840 C   0  0  0  0  0  0  0  0  0  0  0  0
   35.0128   30.8454   46.8476 H   0  0  0  0  0  0  0  0  0  0  0  0
   33.1895   27.5400   48.8352 H   0  0  0  0  0  0  0  0  0  0  0  0
   34.9464   27.6599   50.5755 H   0  0  0  0  0  0  0  0  0  0  0  0
   37.9563   33.9734   50.1848 H   0  0  0  0  0  0  0  0  0  0  0  0
   39.7887   33.9417   48.4582 H   0  0  0  0  0  0  0  0  0  0  0  0
   39.7848   32.0695   46.7812 H   0  0  0  0  0  0  0  0  0  0  0  0
   33.3373   28.5621   45.8113 H   0  0  0  0  0  0  0  0  0  0  0  0
   32.0315   28.8257   47.0549 H   0  0  0  0  0  0  0  0  0  0  0  0
   32.5735   31.2874   46.9180 H   0  0  0  0  0  0  0  0  0  0  0  0
   33.5619   30.9039   45.4679 H   0  0  0  0  0  0  0  0  0  0  0  0
   31.7979   30.5646   45.4679 H   0  0  0  0  0  0  0  0  0  0  0  0
  2  7  2  0
  2  1  1  0
  3  2  1  0
  4  5  1  0
  4  3  2  0
  5  6  2  0
  6  7  1  0
  8 13  2  0
  9  8  1  0
 10 11  1  0
 10  9  2  0
 11 12  2  0
 12  3  1  0
 12 13  1  0
 14  5  1  0
 15 14  1  0
  4 16  1  0
  6 17  1  0
  7 18  1  0
  8 19  1  0
  9 20  1  0
 10 21  1  0
 14 22  1  0
 14 23  1  0
 15 24  1  0
 15 25  1  0
 15 26  1  0
M  ISO  8  16  14  17  14  18  14  19  14  20  14  21  14  22   8  23   8
M  ISO  3  24   8  25   8  26   8
M  END
>  <minimizedAffinity>  (1) 
-5.56106091

>  <minimizedRMSD>  (1) 
0.381245226

$$$$
