
     RDKit          3D

 22 23  0  0  0  0  0  0  0  0999 V2000
   37.4520   29.1980   50.8920 Br  0  0  0  0  0  0  0  0  0  0  0  0
   36.0120   29.2900   49.6560 C   0  0  0  0  0  0  0  0  0  0  0  0
   35.9820   30.2720   48.6770 C   0  0  0  0  0  0  0  0  0  0  0  0
   34.8980   30.2680   47.8200 C   0  0  0  0  0  0  0  0  0  0  0  0
   33.8640   29.3520   47.8890 C   0  0  0  0  0  0  0  0  0  0  0  0
   33.9340   28.4000   48.8730 C   0  0  0  0  0  0  0  0  0  0  0  0
   35.0090   28.3770   49.7500 C   0  0  0  0  0  0  0  0  0  0  0  0
   38.0190   33.1980   49.4210 C   0  0  0  0  0  0  0  0  0  0  0  0
   39.0390   33.1600   48.4200 C   0  0  0  0  0  0  0  0  0  0  0  0
   38.9920   32.1140   47.5050 C   0  0  0  0  0  0  0  0  0  0  0  0
   37.9940   31.1870   47.6050 N   0  0  0  0  0  0  0  0  0  0  0  0
   37.0480   31.2560   48.5660 C   0  0  0  0  0  0  0  0  0  0  0  0
   37.0760   32.2600   49.4570 N   0  0  0  0  0  0  0  0  0  0  0  0
   32.8410   29.5190   46.9140 N   0  0  0  0  0  0  0  0  0  0  0  0
   34.8549   31.0389   47.0366 H   0  0  0  0  0  0  0  0  0  0  0  0
   33.1341   27.6508   48.9677 H   0  0  0  0  0  0  0  0  0  0  0  0
   35.0504   27.6071   50.5345 H   0  0  0  0  0  0  0  0  0  0  0  0
   38.0137   34.0075   50.1658 H   0  0  0  0  0  0  0  0  0  0  0  0
   39.8275   33.9257   48.3755 H   0  0  0  0  0  0  0  0  0  0  0  0
   39.7489   32.0342   46.7108 H   0  0  0  0  0  0  0  0  0  0  0  0
   32.0354   28.8774   46.8977 H   0  0  0  0  0  0  0  0  0  0  0  0
   32.9061   30.2815   46.2246 H   0  0  0  0  0  0  0  0  0  0  0  0
  2  7  2  0
  2  1  1  0
  3  2  1  0
  4  5  1  0
  4  3  2  0
  5  6  2  0
  6  7  1  0
  8 13  2  0
  9  8  1  0
 10 11  1  0
 10  9  2  0
 11 12  2  0
 12  3  1  0
 12 13  1  0
 14  5  1  0
  4 15  1  0
  6 16  1  0
  7 17  1  0
  8 18  1  0
  9 19  1  0
 10 20  1  0
 14 21  1  0
 14 22  1  0
M  ISO  6  15  14  16  14  17  14  18  14  19  14  20  14
M  END
>  <minimizedAffinity>  (1) 
-5.53317451

>  <minimizedRMSD>  (1) 
0.192810491

$$$$
