
     RDKit          3D

 21 22  0  0  0  0  0  0  0  0999 V2000
   37.2800   29.3230   51.0340 Br  0  0  0  0  0  0  0  0  0  0  0  0
   35.9450   29.3150   49.6790 C   0  0  0  0  0  0  0  0  0  0  0  0
   35.9670   30.2380   48.6360 C   0  0  0  0  0  0  0  0  0  0  0  0
   34.9700   30.1670   47.6960 C   0  0  0  0  0  0  0  0  0  0  0  0
   33.9470   29.2420   47.7190 C   0  0  0  0  0  0  0  0  0  0  0  0
   33.9560   28.3440   48.7660 C   0  0  0  0  0  0  0  0  0  0  0  0
   34.9550   28.3810   49.7430 C   0  0  0  0  0  0  0  0  0  0  0  0
   37.9830   33.1760   49.4420 C   0  0  0  0  0  0  0  0  0  0  0  0
   39.0130   33.1580   48.4780 C   0  0  0  0  0  0  0  0  0  0  0  0
   38.9990   32.1100   47.5430 C   0  0  0  0  0  0  0  0  0  0  0  0
   38.0010   31.1780   47.6160 N   0  0  0  0  0  0  0  0  0  0  0  0
   37.0300   31.2400   48.5660 C   0  0  0  0  0  0  0  0  0  0  0  0
   37.0230   32.2360   49.4740 N   0  0  0  0  0  0  0  0  0  0  0  0
   33.0000   29.2760   46.7110 O   0  0  0  0  0  0  0  0  0  0  0  0
   34.9876   30.8945   46.8711 H   0  0  0  0  0  0  0  0  0  0  0  0
   33.1626   27.5850   48.8333 H   0  0  0  0  0  0  0  0  0  0  0  0
   34.9419   27.6527   50.5673 H   0  0  0  0  0  0  0  0  0  0  0  0
   37.9652   33.9830   50.1893 H   0  0  0  0  0  0  0  0  0  0  0  0
   39.7942   33.9322   48.4594 H   0  0  0  0  0  0  0  0  0  0  0  0
   39.7757   32.0403   46.7672 H   0  0  0  0  0  0  0  0  0  0  0  0
   32.2571   28.6217   46.7075 H   0  0  0  0  0  0  0  0  0  0  0  0
  2  7  2  0
  2  1  1  0
  3  2  1  0
  4  5  1  0
  4  3  2  0
  5  6  2  0
  6  7  1  0
  8 13  2  0
  9  8  1  0
 10 11  1  0
 10  9  2  0
 11 12  2  0
 12  3  1  0
 12 13  1  0
 14  5  1  0
  4 15  1  0
  6 16  1  0
  7 17  1  0
  8 18  1  0
  9 19  1  0
 10 20  1  0
 14 21  1  0
M  ISO  7  15  14  16  14  17  14  18  14  19  14  20  14  21   3
M  END
>  <minimizedAffinity>  (1) 
-5.47143698

>  <minimizedRMSD>  (1) 
0.0548798703

$$$$
