
     RDKit          3D

 43 46  0  0  0  0  0  0  0  0999 V2000
   37.3340   29.1510   50.7750 Br  0  0  0  0  0  0  0  0  0  0  0  0
   35.9510   29.2870   49.4600 C   0  0  0  0  0  0  0  0  0  0  0  0
   35.9650   30.2980   48.5120 C   0  0  0  0  0  0  0  0  0  0  0  0
   34.9430   30.3290   47.6060 C   0  0  0  0  0  0  0  0  0  0  0  0
   33.9140   29.4220   47.5860 C   0  0  0  0  0  0  0  0  0  0  0  0
   33.9250   28.4310   48.5360 C   0  0  0  0  0  0  0  0  0  0  0  0
   34.9370   28.3690   49.4620 C   0  0  0  0  0  0  0  0  0  0  0  0
   32.8280   29.4560   46.6240 C   0  0  0  0  0  0  0  0  0  0  0  0
   32.0800   28.3550   46.2370 C   0  0  0  0  0  0  0  0  0  0  0  0
   31.0480   28.4400   45.3110 C   0  0  0  0  0  0  0  0  0  0  0  0
   30.7510   29.6210   44.7600 N   0  0  0  0  0  0  0  0  0  0  0  0
   31.4730   30.7050   45.1290 C   0  0  0  0  0  0  0  0  0  0  0  0
   32.4580   30.6030   46.0190 N   0  0  0  0  0  0  0  0  0  0  0  0
   31.1230   31.9440   44.5190 N   0  0  0  0  0  0  0  0  0  0  0  0
   31.5860   33.1890   45.0490 C   0  0  0  0  0  0  0  0  0  0  0  0
   31.7770   34.2730   44.0370 C   0  0  0  0  0  0  0  0  0  0  0  0
   30.9500   34.1460   42.8120 C   0  0  0  0  0  0  0  0  0  0  0  0
   29.7350   33.2730   42.9970 C   0  0  0  0  0  0  0  0  0  0  0  0
   30.2730   31.9000   43.3310 C   0  0  0  0  0  0  0  0  0  0  0  0
   37.9850   33.1670   49.5130 C   0  0  0  0  0  0  0  0  0  0  0  0
   39.0350   33.1830   48.5320 C   0  0  0  0  0  0  0  0  0  0  0  0
   39.0160   32.2110   47.5590 C   0  0  0  0  0  0  0  0  0  0  0  0
   38.0130   31.2840   47.5700 N   0  0  0  0  0  0  0  0  0  0  0  0
   37.0380   31.2850   48.4960 C   0  0  0  0  0  0  0  0  0  0  0  0
   37.0290   32.2370   49.4750 N   0  0  0  0  0  0  0  0  0  0  0  0
   34.9453   31.1271   46.8490 H   0  0  0  0  0  0  0  0  0  0  0  0
   33.1189   27.6827   48.5555 H   0  0  0  0  0  0  0  0  0  0  0  0
   34.9322   27.5689   50.2169 H   0  0  0  0  0  0  0  0  0  0  0  0
   32.3127   27.3756   46.6805 H   0  0  0  0  0  0  0  0  0  0  0  0
   30.4787   27.5408   45.0329 H   0  0  0  0  0  0  0  0  0  0  0  0
   30.8520   33.5389   45.7898 H   0  0  0  0  0  0  0  0  0  0  0  0
   32.5788   32.9906   45.4790 H   0  0  0  0  0  0  0  0  0  0  0  0
   31.5313   35.2325   44.5155 H   0  0  0  0  0  0  0  0  0  0  0  0
   32.8240   34.2019   43.7073 H   0  0  0  0  0  0  0  0  0  0  0  0
   31.5721   33.7131   42.0148 H   0  0  0  0  0  0  0  0  0  0  0  0
   30.5898   35.1538   42.5578 H   0  0  0  0  0  0  0  0  0  0  0  0
   29.1106   33.6520   43.8195 H   0  0  0  0  0  0  0  0  0  0  0  0
   29.1028   33.2564   42.0970 H   0  0  0  0  0  0  0  0  0  0  0  0
   29.4295   31.2190   43.5175 H   0  0  0  0  0  0  0  0  0  0  0  0
   30.8759   31.5444   42.4824 H   0  0  0  0  0  0  0  0  0  0  0  0
   37.9692   33.9306   50.3047 H   0  0  0  0  0  0  0  0  0  0  0  0
   39.8266   33.9463   48.5583 H   0  0  0  0  0  0  0  0  0  0  0  0
   39.7963   32.1807   46.7842 H   0  0  0  0  0  0  0  0  0  0  0  0
  2  7  2  0
  2  1  1  0
  3  2  1  0
  4  3  2  0
  5  4  1  0
  5  6  2  0
  6  7  1  0
  8  5  1  0
  9  8  2  0
 10  9  1  0
 11 12  1  0
 11 10  2  0
 12 13  2  0
 13  8  1  0
 14 15  1  0
 14 12  1  0
 16 15  1  0
 17 18  1  0
 17 16  1  0
 18 19  1  0
 19 14  1  0
 21 20  2  0
 22 23  2  0
 22 21  1  0
 23 24  1  0
 24  3  1  0
 24 25  2  0
 25 20  1  0
  4 26  1  0
  6 27  1  0
  7 28  1  0
  9 29  1  0
 10 30  1  0
 15 31  1  0
 15 32  1  0
 16 33  1  0
 16 34  1  0
 17 35  1  0
 17 36  1  0
 18 37  1  0
 18 38  1  0
 19 39  1  0
 19 40  1  0
 20 41  1  0
 21 42  1  0
 22 43  1  0
M  ISO  8  26  14  27  14  28  14  29  14  30  14  31  13  32  13  33  13
M  ISO  8  34  13  35  13  36  13  37  13  38  13  39  13  40  13  41  14
M  ISO  2  42  14  43  14
M  END
>  <minimizedAffinity>  (1) 
-6.94486904

>  <minimizedRMSD>  (1) 
0.336171985

$$$$
