
     RDKit          3D

 34 37  0  0  0  0  0  0  0  0999 V2000
   37.4370   29.1520   50.8210 Br  0  0  0  0  0  0  0  0  0  0  0  0
   36.0420   29.3030   49.5340 C   0  0  0  0  0  0  0  0  0  0  0  0
   36.0350   30.3400   48.6090 C   0  0  0  0  0  0  0  0  0  0  0  0
   34.9950   30.3820   47.7120 C   0  0  0  0  0  0  0  0  0  0  0  0
   33.9680   29.4570   47.6840 C   0  0  0  0  0  0  0  0  0  0  0  0
   34.0080   28.4440   48.6160 C   0  0  0  0  0  0  0  0  0  0  0  0
   35.0390   28.3770   49.5280 C   0  0  0  0  0  0  0  0  0  0  0  0
   38.0100   33.2410   49.5800 C   0  0  0  0  0  0  0  0  0  0  0  0
   39.0670   33.2490   48.6320 C   0  0  0  0  0  0  0  0  0  0  0  0
   39.0800   32.2580   47.6770 C   0  0  0  0  0  0  0  0  0  0  0  0
   38.0880   31.3270   47.6900 N   0  0  0  0  0  0  0  0  0  0  0  0
   37.0890   31.3330   48.5990 C   0  0  0  0  0  0  0  0  0  0  0  0
   37.0640   32.3010   49.5420 N   0  0  0  0  0  0  0  0  0  0  0  0
   32.8750   29.5010   46.7420 C   0  0  0  0  0  0  0  0  0  0  0  0
   32.0750   28.4210   46.4090 C   0  0  0  0  0  0  0  0  0  0  0  0
   31.0350   28.4920   45.5030 C   0  0  0  0  0  0  0  0  0  0  0  0
   30.7810   29.6720   44.9100 N   0  0  0  0  0  0  0  0  0  0  0  0
   31.5450   30.7300   45.2190 C   0  0  0  0  0  0  0  0  0  0  0  0
   32.5530   30.6340   46.1060 N   0  0  0  0  0  0  0  0  0  0  0  0
   31.1800   31.9600   44.5140 C   0  0  0  0  0  0  0  0  0  0  0  0
   30.1300   31.6670   43.5480 C   0  0  0  0  0  0  0  0  0  0  0  0
   29.8030   33.3510   42.7560 S   0  0  0  0  0  0  0  0  0  0  0  0
   31.1390   34.1050   43.8800 C   0  0  0  0  0  0  0  0  0  0  0  0
   31.5050   33.2360   44.4850 N   0  0  0  0  0  0  0  0  0  0  0  0
   34.9787   31.1979   46.9744 H   0  0  0  0  0  0  0  0  0  0  0  0
   33.2127   27.6842   48.6326 H   0  0  0  0  0  0  0  0  0  0  0  0
   35.0540   27.5612   50.2657 H   0  0  0  0  0  0  0  0  0  0  0  0
   37.9706   34.0199   50.3558 H   0  0  0  0  0  0  0  0  0  0  0  0
   39.8495   34.0216   48.6599 H   0  0  0  0  0  0  0  0  0  0  0  0
   39.8761   32.2195   46.9188 H   0  0  0  0  0  0  0  0  0  0  0  0
   32.2788   27.4541   46.8922 H   0  0  0  0  0  0  0  0  0  0  0  0
   30.4285   27.6039   45.2718 H   0  0  0  0  0  0  0  0  0  0  0  0
   29.6465   30.7027   43.3326 H   0  0  0  0  0  0  0  0  0  0  0  0
   31.4746   35.1516   43.9255 H   0  0  0  0  0  0  0  0  0  0  0  0
  2  1  1  0
  3  2  2  0
  4  3  1  0
  5  4  2  0
  5  6  1  0
  6  7  2  0
  7  2  1  0
  9  8  2  0
 10 11  2  0
 10  9  1  0
 11 12  1  0
 12  3  1  0
 12 13  2  0
 13  8  1  0
 14  5  1  0
 15 14  2  0
 16 15  1  0
 17 18  1  0
 17 16  2  0
 18 19  2  0
 19 14  1  0
 20 18  1  0
 21 20  2  0
 22 21  1  0
 22 23  1  0
 23 24  2  0
 24 20  1  0
  4 25  1  0
  6 26  1  0
  7 27  1  0
  8 28  1  0
  9 29  1  0
 10 30  1  0
 15 31  1  0
 16 32  1  0
 21 33  1  0
 23 34  1  0
M  ISO  8  25  14  26  14  27  14  28  14  29  14  30  14  31  14  32  14
M  ISO  2  33  14  34  14
M  END
>  <minimizedAffinity>  (1) 
-6.34695053

>  <minimizedRMSD>  (1) 
0.367831856

$$$$
