
     RDKit          3D

 30 32  0  0  0  0  0  0  0  0999 V2000
   37.4240   29.1850   50.8540 Br  0  0  0  0  0  0  0  0  0  0  0  0
   36.0160   29.2630   49.5690 C   0  0  0  0  0  0  0  0  0  0  0  0
   36.0070   30.2520   48.5850 C   0  0  0  0  0  0  0  0  0  0  0  0
   34.9570   30.2450   47.6930 C   0  0  0  0  0  0  0  0  0  0  0  0
   33.9330   29.3160   47.7310 C   0  0  0  0  0  0  0  0  0  0  0  0
   33.9740   28.3640   48.7050 C   0  0  0  0  0  0  0  0  0  0  0  0
   35.0100   28.3480   49.6080 C   0  0  0  0  0  0  0  0  0  0  0  0
   37.9960   33.1730   49.4520 C   0  0  0  0  0  0  0  0  0  0  0  0
   39.0280   33.1750   48.4560 C   0  0  0  0  0  0  0  0  0  0  0  0
   39.0080   32.1610   47.5080 C   0  0  0  0  0  0  0  0  0  0  0  0
   38.0230   31.2250   47.5670 N   0  0  0  0  0  0  0  0  0  0  0  0
   37.0650   31.2460   48.5120 C   0  0  0  0  0  0  0  0  0  0  0  0
   37.0540   32.2290   49.4600 N   0  0  0  0  0  0  0  0  0  0  0  0
   32.8250   29.3180   46.7780 C   0  0  0  0  0  0  0  0  0  0  0  0
   32.0470   28.2270   46.4810 C   0  0  0  0  0  0  0  0  0  0  0  0
   31.0090   28.2610   45.5780 C   0  0  0  0  0  0  0  0  0  0  0  0
   30.7240   29.3940   44.9470 N   0  0  0  0  0  0  0  0  0  0  0  0
   31.4730   30.4820   45.2200 C   0  0  0  0  0  0  0  0  0  0  0  0
   32.4850   30.4310   46.1070 N   0  0  0  0  0  0  0  0  0  0  0  0
   31.2570   31.7900   44.5880 C   0  0  0  0  0  0  0  0  0  0  0  0
   31.6310   32.8750   45.0600 O   0  0  0  0  0  0  0  0  0  0  0  0
   34.9318   31.0178   46.9106 H   0  0  0  0  0  0  0  0  0  0  0  0
   33.1776   27.6079   48.7686 H   0  0  0  0  0  0  0  0  0  0  0  0
   35.0263   27.5711   50.3866 H   0  0  0  0  0  0  0  0  0  0  0  0
   37.9813   33.9607   50.2196 H   0  0  0  0  0  0  0  0  0  0  0  0
   39.8069   33.9516   48.4437 H   0  0  0  0  0  0  0  0  0  0  0  0
   39.7762   32.1153   46.7220 H   0  0  0  0  0  0  0  0  0  0  0  0
   32.2642   27.2768   46.9908 H   0  0  0  0  0  0  0  0  0  0  0  0
   30.4185   27.3543   45.3800 H   0  0  0  0  0  0  0  0  0  0  0  0
   30.7246   31.8093   43.6256 H   0  0  0  0  0  0  0  0  0  0  0  0
  2  7  2  0
  2  1  1  0
  3  2  1  0
  4  5  1  0
  4  3  2  0
  5  6  2  0
  6  7  1  0
  8 13  2  0
  9  8  1  0
 10 11  1  0
 10  9  2  0
 11 12  2  0
 12  3  1  0
 12 13  1  0
 14  5  1  0
 15 14  2  0
 16 15  1  0
 17 18  1  0
 17 16  2  0
 18 19  2  0
 19 14  1  0
 20 21  2  0
 20 18  1  0
  4 22  1  0
  6 23  1  0
  7 24  1  0
  8 25  1  0
  9 26  1  0
 10 27  1  0
 15 28  1  0
 16 29  1  0
 20 30  1  0
M  ISO  8  22  14  23  14  24  14  25  14  26  14  27  14  28  14  29  14
M  ISO  1  30   6
M  END
>  <minimizedAffinity>  (1) 
-5.91208649

>  <minimizedRMSD>  (1) 
0.189897075

$$$$
