
     RDKit          3D

 27 29  0  0  0  0  0  0  0  0999 V2000
   36.2690   30.1970   46.7560 C   0  0  0  0  0  0  0  0  0  0  0  0
   37.1120   30.7700   47.6950 C   0  0  0  0  0  0  0  0  0  0  0  0
   38.0720   31.6560   47.2920 C   0  0  0  0  0  0  0  0  0  0  0  0
   38.1850   31.9670   45.9420 C   0  0  0  0  0  0  0  0  0  0  0  0
   39.0410   32.8010   45.3060 N   0  0  0  0  0  0  0  0  0  0  0  0
   38.7630   32.7700   44.0020 C   0  0  0  0  0  0  0  0  0  0  0  0
   37.7460   31.9320   43.7890 N   0  0  0  0  0  0  0  0  0  0  0  0
   37.3660   31.4190   44.9740 C   0  0  0  0  0  0  0  0  0  0  0  0
   36.3870   30.5140   45.3850 C   0  0  0  0  0  0  0  0  0  0  0  0
   38.8740   33.6370   41.6340 C   0  0  0  0  0  0  0  0  0  0  0  0
   37.7660   33.1170   41.3620 O   0  0  0  0  0  0  0  0  0  0  0  0
   39.3920   33.4770   42.9460 N   0  0  0  0  0  0  0  0  0  0  0  0
   37.5350   30.2370   51.3960 C   0  0  0  0  0  0  0  0  0  0  0  0
   37.8250   30.6620   50.0940 C   0  0  0  0  0  0  0  0  0  0  0  0
   36.9080   30.3760   49.0780 C   0  0  0  0  0  0  0  0  0  0  0  0
   35.7750   29.6990   49.3890 N   0  0  0  0  0  0  0  0  0  0  0  0
   35.5170   29.2980   50.6660 C   0  0  0  0  0  0  0  0  0  0  0  0
   36.3830   29.5630   51.6550 N   0  0  0  0  0  0  0  0  0  0  0  0
   35.4970   29.4851   47.0834 H   0  0  0  0  0  0  0  0  0  0  0  0
   38.7472   32.1174   48.0276 H   0  0  0  0  0  0  0  0  0  0  0  0
   39.7799   33.3628   45.7524 H   0  0  0  0  0  0  0  0  0  0  0  0
   35.7135   30.0519   44.6482 H   0  0  0  0  0  0  0  0  0  0  0  0
   39.4316   34.2039   40.8739 H   0  0  0  0  0  0  0  0  0  0  0  0
   40.3034   33.9120   43.1483 H   0  0  0  0  0  0  0  0  0  0  0  0
   38.2414   30.4491   52.2121 H   0  0  0  0  0  0  0  0  0  0  0  0
   38.7539   31.2090   49.8751 H   0  0  0  0  0  0  0  0  0  0  0  0
   34.5886   28.7512   50.8876 H   0  0  0  0  0  0  0  0  0  0  0  0
  1  2  2  0
  2 15  1  0
  3  2  1  0
  4  3  2  0
  5  4  1  0
  6  5  1  0
  7  6  2  0
  7  8  1  0
  8  9  2  0
  8  4  1  0
  9  1  1  0
 10 12  1  0
 11 10  2  0
 12  6  1  0
 13 18  2  0
 14 13  1  0
 15 16  1  0
 15 14  2  0
 16 17  2  0
 17 18  1  0
  1 19  1  0
  3 20  1  0
  5 21  1  0
  9 22  1  0
 10 23  1  0
 12 24  1  0
 13 25  1  0
 14 26  1  0
 17 27  1  0
M  ISO  8  19  14  20  14  21   9  22  14  23   6  25  14  26  14  27  14
M  END
>  <minimizedAffinity>  (1) 
-5.61610985

>  <minimizedRMSD>  (1) 
1.30515528

$$$$
