
     RDKit          3D

 34 37  0  0  0  0  0  0  0  0999 V2000
   36.1480   30.1790   46.8400 C   0  0  0  0  0  0  0  0  0  0  0  0
   37.0340   30.7390   47.7480 C   0  0  0  0  0  0  0  0  0  0  0  0
   38.0180   31.6190   47.3310 C   0  0  0  0  0  0  0  0  0  0  0  0
   38.0520   31.8980   45.9590 C   0  0  0  0  0  0  0  0  0  0  0  0
   38.9350   32.7350   45.3230 N   0  0  0  0  0  0  0  0  0  0  0  0
   38.5930   32.6900   44.0300 C   0  0  0  0  0  0  0  0  0  0  0  0
   37.5620   31.8820   43.8310 N   0  0  0  0  0  0  0  0  0  0  0  0
   37.1910   31.3620   45.0260 C   0  0  0  0  0  0  0  0  0  0  0  0
   36.2230   30.4860   45.4900 C   0  0  0  0  0  0  0  0  0  0  0  0
   37.5350   30.2130   51.4360 C   0  0  0  0  0  0  0  0  0  0  0  0
   37.8110   30.6320   50.1390 C   0  0  0  0  0  0  0  0  0  0  0  0
   36.8880   30.3660   49.1430 C   0  0  0  0  0  0  0  0  0  0  0  0
   35.7640   29.7050   49.5180 N   0  0  0  0  0  0  0  0  0  0  0  0
   35.5050   29.3020   50.7810 C   0  0  0  0  0  0  0  0  0  0  0  0
   36.3950   29.5610   51.7220 N   0  0  0  0  0  0  0  0  0  0  0  0
   39.2680   33.4190   43.0540 O   0  0  0  0  0  0  0  0  0  0  0  0
   40.4980   30.8760   41.9890 Cl  0  0  0  0  0  0  0  0  0  0  0  0
   39.5060   31.9900   41.0690 C   0  0  0  0  0  0  0  0  0  0  0  0
   39.0280   33.1020   41.7200 C   0  0  0  0  0  0  0  0  0  0  0  0
   38.2400   34.0280   41.0690 C   0  0  0  0  0  0  0  0  0  0  0  0
   37.9060   33.8630   39.7380 C   0  0  0  0  0  0  0  0  0  0  0  0
   38.3850   32.7460   39.0790 C   0  0  0  0  0  0  0  0  0  0  0  0
   39.1680   31.8330   39.7400 C   0  0  0  0  0  0  0  0  0  0  0  0
   35.3751   29.4817   47.1957 H   0  0  0  0  0  0  0  0  0  0  0  0
   38.7309   32.0722   48.0355 H   0  0  0  0  0  0  0  0  0  0  0  0
   39.6973   33.2807   45.7496 H   0  0  0  0  0  0  0  0  0  0  0  0
   35.5112   30.0323   44.7846 H   0  0  0  0  0  0  0  0  0  0  0  0
   38.2591   30.4179   52.2383 H   0  0  0  0  0  0  0  0  0  0  0  0
   38.7455   31.1649   49.9092 H   0  0  0  0  0  0  0  0  0  0  0  0
   34.5728   28.7695   51.0207 H   0  0  0  0  0  0  0  0  0  0  0  0
   37.8727   34.9089   41.6159 H   0  0  0  0  0  0  0  0  0  0  0  0
   37.2766   34.5999   39.2175 H   0  0  0  0  0  0  0  0  0  0  0  0
   38.1372   32.5882   38.0190 H   0  0  0  0  0  0  0  0  0  0  0  0
   39.5366   30.9513   39.1953 H   0  0  0  0  0  0  0  0  0  0  0  0
  1  2  2  0
  2 12  1  0
  3  2  1  0
  4  3  2  0
  5  4  1  0
  6  5  1  0
  7  6  2  0
  7  8  1  0
  8  9  2  0
  8  4  1  0
  9  1  1  0
 10 15  2  0
 11 10  1  0
 12 13  1  0
 12 11  2  0
 13 14  2  0
 14 15  1  0
 16  6  1  0
 18 19  2  0
 18 17  1  0
 19 16  1  0
 20 19  1  0
 21 20  2  0
 22 21  1  0
 22 23  2  0
 23 18  1  0
  1 24  1  0
  3 25  1  0
  5 26  1  0
  9 27  1  0
 10 28  1  0
 11 29  1  0
 14 30  1  0
 20 31  1  0
 21 32  1  0
 22 33  1  0
 23 34  1  0
M  ISO  8  24  14  25  14  26   9  27  14  28  14  29  14  30  14  31  14
M  ISO  3  32  14  33  14  34  14
M  END
>  <minimizedAffinity>  (1) 
-5.81626177

>  <minimizedRMSD>  (1) 
1.56942213

$$$$
