
     RDKit          3D

 34 37  0  0  0  0  0  0  0  0999 V2000
   36.0220   30.1170   46.9590 C   0  0  0  0  0  0  0  0  0  0  0  0
   36.9220   30.6690   47.8760 C   0  0  0  0  0  0  0  0  0  0  0  0
   37.9010   31.5340   47.4430 C   0  0  0  0  0  0  0  0  0  0  0  0
   37.9590   31.8320   46.0890 C   0  0  0  0  0  0  0  0  0  0  0  0
   38.8290   32.6500   45.4350 N   0  0  0  0  0  0  0  0  0  0  0  0
   38.4920   32.6180   44.1490 C   0  0  0  0  0  0  0  0  0  0  0  0
   37.4370   31.8100   43.9500 N   0  0  0  0  0  0  0  0  0  0  0  0
   37.0910   31.3090   45.1520 C   0  0  0  0  0  0  0  0  0  0  0  0
   36.0990   30.4290   45.6090 C   0  0  0  0  0  0  0  0  0  0  0  0
   37.4480   30.1390   51.5540 C   0  0  0  0  0  0  0  0  0  0  0  0
   37.7110   30.5560   50.2580 C   0  0  0  0  0  0  0  0  0  0  0  0
   36.7700   30.2880   49.2690 C   0  0  0  0  0  0  0  0  0  0  0  0
   35.6230   29.6230   49.6190 N   0  0  0  0  0  0  0  0  0  0  0  0
   35.4010   29.2290   50.9020 C   0  0  0  0  0  0  0  0  0  0  0  0
   36.3000   29.4860   51.8450 N   0  0  0  0  0  0  0  0  0  0  0  0
   39.1910   33.3580   43.1860 O   0  0  0  0  0  0  0  0  0  0  0  0
   39.0900   33.1060   41.8270 C   0  0  0  0  0  0  0  0  0  0  0  0
   38.4730   33.9880   40.9350 C   0  0  0  0  0  0  0  0  0  0  0  0
   38.3880   33.7090   39.5870 C   0  0  0  0  0  0  0  0  0  0  0  0
   38.9380   32.5170   39.1600 C   0  0  0  0  0  0  0  0  0  0  0  0
   39.5610   31.6100   40.0160 C   0  0  0  0  0  0  0  0  0  0  0  0
   39.6320   31.9210   41.3710 C   0  0  0  0  0  0  0  0  0  0  0  0
   35.2425   29.4261   47.3126 H   0  0  0  0  0  0  0  0  0  0  0  0
   38.6175   31.9768   48.1505 H   0  0  0  0  0  0  0  0  0  0  0  0
   39.5993   33.1894   45.8551 H   0  0  0  0  0  0  0  0  0  0  0  0
   35.3840   29.9874   44.8992 H   0  0  0  0  0  0  0  0  0  0  0  0
   38.1785   30.3408   52.3513 H   0  0  0  0  0  0  0  0  0  0  0  0
   38.6436   31.0873   50.0171 H   0  0  0  0  0  0  0  0  0  0  0  0
   34.4739   28.6958   51.1591 H   0  0  0  0  0  0  0  0  0  0  0  0
   38.0453   34.9266   41.3172 H   0  0  0  0  0  0  0  0  0  0  0  0
   37.9044   34.4040   38.8848 H   0  0  0  0  0  0  0  0  0  0  0  0
   38.8818   32.2702   38.0895 H   0  0  0  0  0  0  0  0  0  0  0  0
   39.9860   30.6717   39.6302 H   0  0  0  0  0  0  0  0  0  0  0  0
   40.1167   31.2272   42.0737 H   0  0  0  0  0  0  0  0  0  0  0  0
  1  2  2  0
  2 12  1  0
  3  2  1  0
  4  3  2  0
  5  4  1  0
  6  5  1  0
  7  6  2  0
  7  8  1  0
  8  9  2  0
  8  4  1  0
  9  1  1  0
 10 15  2  0
 11 10  1  0
 12 13  1  0
 12 11  2  0
 13 14  2  0
 14 15  1  0
 16  6  1  0
 17 16  1  0
 18 17  2  0
 19 18  1  0
 20 19  2  0
 20 21  1  0
 21 22  2  0
 22 17  1  0
  1 23  1  0
  3 24  1  0
  5 25  1  0
  9 26  1  0
 10 27  1  0
 11 28  1  0
 14 29  1  0
 18 30  1  0
 19 31  1  0
 20 32  1  0
 21 33  1  0
 22 34  1  0
M  ISO  8  23  14  24  14  25   9  26  14  27  14  28  14  29  14  30  14
M  ISO  4  31  14  32  14  33  14  34  14
M  END
>  <minimizedAffinity>  (1) 
-5.55504942

>  <minimizedRMSD>  (1) 
1.57433915

$$$$
