
     RDKit          3D

 36 39  0  0  1  0  0  0  0  0999 V2000
   36.1990   30.1890   46.9250 C   0  0  0  0  0  0  0  0  0  0  0  0
   37.0460   30.7430   47.8620 C   0  0  0  0  0  0  0  0  0  0  0  0
   38.0390   31.6480   47.4920 C   0  0  0  0  0  0  0  0  0  0  0  0
   38.1130   31.9510   46.1250 C   0  0  0  0  0  0  0  0  0  0  0  0
   38.9930   32.8030   45.5200 N   0  0  0  0  0  0  0  0  0  0  0  0
   38.6990   32.7840   44.2120 C   0  0  0  0  0  0  0  0  0  0  0  0
   37.6840   31.9640   43.9880 N   0  0  0  0  0  0  0  0  0  0  0  0
   37.2890   31.4240   45.1620 C   0  0  0  0  0  0  0  0  0  0  0  0
   36.3120   30.5240   45.5740 C   0  0  0  0  0  0  0  0  0  0  0  0
   37.4510   30.1440   51.5450 C   0  0  0  0  0  0  0  0  0  0  0  0
   37.7570   30.5840   50.2640 C   0  0  0  0  0  0  0  0  0  0  0  0
   36.8640   30.3440   49.2460 C   0  0  0  0  0  0  0  0  0  0  0  0
   35.7280   29.6820   49.5790 N   0  0  0  0  0  0  0  0  0  0  0  0
   35.4330   29.2550   50.8240 C   0  0  0  0  0  0  0  0  0  0  0  0
   36.3000   29.4930   51.7910 N   0  0  0  0  0  0  0  0  0  0  0  0
   39.4290   33.5630   43.3070 O   0  0  0  0  0  0  0  0  0  0  0  0
   39.4450   31.7900   41.7030 N   0  0  0  0  0  0  0  0  0  0  0  0
   39.0120   31.6340   40.3450 C   0  0  0  0  0  0  0  0  0  0  0  0
   38.2840   32.9050   39.9380 C   0  0  0  0  0  0  0  0  0  0  0  0
   38.0640   33.5820   41.2960 C   0  0  0  0  0  0  0  0  0  0  0  0
   39.3960   33.1970   41.9510 C   0  0  1  0  0  0  0  0  0  0  0  0
   35.4258   29.4753   47.2455 H   0  0  0  0  0  0  0  0  0  0  0  0
   38.7228   32.0971   48.2273 H   0  0  0  0  0  0  0  0  0  0  0  0
   39.7351   33.3512   45.9779 H   0  0  0  0  0  0  0  0  0  0  0  0
   35.6292   30.0766   44.8367 H   0  0  0  0  0  0  0  0  0  0  0  0
   38.1575   30.3298   52.3674 H   0  0  0  0  0  0  0  0  0  0  0  0
   38.6991   31.1163   50.0665 H   0  0  0  0  0  0  0  0  0  0  0  0
   34.4931   28.7215   51.0287 H   0  0  0  0  0  0  0  0  0  0  0  0
   40.4051   31.4357   41.8192 H   0  0  0  0  0  0  0  0  0  0  0  0
   39.8822   31.4760   39.6910 H   0  0  0  0  0  0  0  0  0  0  0  0
   38.3451   30.7641   40.2529 H   0  0  0  0  0  0  0  0  0  0  0  0
   38.9028   33.5272   39.2747 H   0  0  0  0  0  0  0  0  0  0  0  0
   37.3583   32.7286   39.3705 H   0  0  0  0  0  0  0  0  0  0  0  0
   37.9460   34.6717   41.2031 H   0  0  0  0  0  0  0  0  0  0  0  0
   37.1563   33.2830   41.8407 H   0  0  0  0  0  0  0  0  0  0  0  0
   40.2819   33.7134   41.5527 H   0  0  0  0  0  0  0  0  0  0  0  0
  1  2  2  0
  2 12  1  0
  3  2  1  0
  4  3  2  0
  5  4  1  0
  6  5  1  0
  7  6  2  0
  7  8  1  0
  8  9  2  0
  8  4  1  0
  9  1  1  0
 10 15  2  0
 11 10  1  0
 12 13  1  0
 12 11  2  0
 13 14  2  0
 14 15  1  0
 16  6  1  0
 17 21  1  0
 18 17  1  0
 19 18  1  0
 19 20  1  0
 20 21  1  0
 21 16  1  0
  1 22  1  0
  3 23  1  0
  5 24  1  0
  9 25  1  0
 10 26  1  0
 11 27  1  0
 14 28  1  0
 17 29  1  0
 18 30  1  0
 18 31  1  0
 19 32  1  0
 19 33  1  0
 20 34  1  0
 20 35  1  0
 21 36  1  6
M  ISO  8  22  14  23  14  24   9  25  14  26  14  27  14  28  14  29   5
M  ISO  7  30  13  31  13  32  13  33  13  34  13  35  13  36  13
M  END
>  <minimizedAffinity>  (1) 
-5.39453125

>  <minimizedRMSD>  (1) 
1.2995379

$$$$
