
     RDKit          3D

 37 40  0  0  1  0  0  0  0  0999 V2000
   36.2320   30.1900   46.8640 C   0  0  0  0  0  0  0  0  0  0  0  0
   37.0760   30.7470   47.8080 C   0  0  0  0  0  0  0  0  0  0  0  0
   38.0640   31.6580   47.4340 C   0  0  0  0  0  0  0  0  0  0  0  0
   38.1490   31.9670   46.0830 C   0  0  0  0  0  0  0  0  0  0  0  0
   39.0270   32.8250   45.4780 N   0  0  0  0  0  0  0  0  0  0  0  0
   38.7240   32.7950   44.1630 C   0  0  0  0  0  0  0  0  0  0  0  0
   37.7110   31.9690   43.9250 N   0  0  0  0  0  0  0  0  0  0  0  0
   37.3300   31.4360   45.1120 C   0  0  0  0  0  0  0  0  0  0  0  0
   36.3480   30.5240   45.5200 C   0  0  0  0  0  0  0  0  0  0  0  0
   37.4980   30.1610   51.4990 C   0  0  0  0  0  0  0  0  0  0  0  0
   37.8050   30.5970   50.2120 C   0  0  0  0  0  0  0  0  0  0  0  0
   36.9060   30.3590   49.1930 C   0  0  0  0  0  0  0  0  0  0  0  0
   35.7500   29.6980   49.5190 N   0  0  0  0  0  0  0  0  0  0  0  0
   35.4620   29.2790   50.7680 C   0  0  0  0  0  0  0  0  0  0  0  0
   36.3280   29.5110   51.7390 N   0  0  0  0  0  0  0  0  0  0  0  0
   39.4430   33.5730   43.2370 O   0  0  0  0  0  0  0  0  0  0  0  0
   39.5670   31.8500   41.7250 N   0  0  0  0  0  0  0  0  0  0  0  0
   39.2650   33.2840   41.8580 C   0  0  1  0  0  0  0  0  0  0  0  0
   37.8000   33.4170   41.5190 C   0  0  0  0  0  0  0  0  0  0  0  0
   37.6190   33.1330   40.1680 O   0  0  0  0  0  0  0  0  0  0  0  0
   38.0710   31.8940   39.7800 C   0  0  0  0  0  0  0  0  0  0  0  0
   39.4500   31.5700   40.3060 C   0  0  0  0  0  0  0  0  0  0  0  0
   35.4596   29.4739   47.1811 H   0  0  0  0  0  0  0  0  0  0  0  0
   38.7424   32.1093   48.1730 H   0  0  0  0  0  0  0  0  0  0  0  0
   39.7666   33.3794   45.9325 H   0  0  0  0  0  0  0  0  0  0  0  0
   35.6710   30.0738   44.7791 H   0  0  0  0  0  0  0  0  0  0  0  0
   38.2037   30.3430   52.3230 H   0  0  0  0  0  0  0  0  0  0  0  0
   38.7500   31.1231   50.0113 H   0  0  0  0  0  0  0  0  0  0  0  0
   34.5194   28.7514   50.9757 H   0  0  0  0  0  0  0  0  0  0  0  0
   40.5215   31.6491   42.0559 H   0  0  0  0  0  0  0  0  0  0  0  0
   39.8809   33.9413   41.2266 H   0  0  0  0  0  0  0  0  0  0  0  0
   37.2155   32.7099   42.1259 H   0  0  0  0  0  0  0  0  0  0  0  0
   37.4612   34.4417   41.7316 H   0  0  0  0  0  0  0  0  0  0  0  0
   37.3680   31.1337   40.1513 H   0  0  0  0  0  0  0  0  0  0  0  0
   38.1337   31.8989   38.6818 H   0  0  0  0  0  0  0  0  0  0  0  0
   39.6538   30.5025   40.1361 H   0  0  0  0  0  0  0  0  0  0  0  0
   40.1756   32.2018   39.7727 H   0  0  0  0  0  0  0  0  0  0  0  0
  1  2  2  0
  2 12  1  0
  3  2  1  0
  4  3  2  0
  5  4  1  0
  6  5  1  0
  7  6  2  0
  7  8  1  0
  8  9  2  0
  8  4  1  0
  9  1  1  0
 10 15  2  0
 11 10  1  0
 12 13  1  0
 12 11  2  0
 13 14  2  0
 14 15  1  0
 16  6  1  0
 17 18  1  0
 18 16  1  0
 19 18  1  0
 20 19  1  0
 21 20  1  0
 21 22  1  0
 22 17  1  0
  1 23  1  0
  3 24  1  0
  5 25  1  0
  9 26  1  0
 10 27  1  0
 11 28  1  0
 14 29  1  0
 17 30  1  0
 18 31  1  6
 19 32  1  0
 19 33  1  0
 21 34  1  0
 21 35  1  0
 22 36  1  0
 22 37  1  0
M  ISO  8  23  14  24  14  25   9  26  14  27  14  28  14  29  14  30   5
M  ISO  7  31  13  32  13  33  13  34  13  35  13  36  13  37  13
M  END
>  <minimizedAffinity>  (1) 
-5.5439167

>  <minimizedRMSD>  (1) 
1.25840843

$$$$
