
     RDKit          3D

 32 33  0  0  1  0  0  0  0  0999 V2000
   45.2540   35.5250   44.3210 C   0  0  0  0  0  0  0  0  0  0  0  0
   46.1970   34.7930   43.5950 C   0  0  0  0  0  0  0  0  0  0  0  0
   46.6960   33.5970   44.1070 C   0  0  0  0  0  0  0  0  0  0  0  0
   46.2310   33.2070   45.2950 N   0  0  0  0  0  0  0  0  0  0  0  0
   45.3180   33.9190   45.9930 C   0  0  0  0  0  0  0  0  0  0  0  0
   44.8230   35.0800   45.5150 N   0  0  0  0  0  0  0  0  0  0  0  0
   48.6420   33.7510   42.5750 C   0  0  2  0  0  0  0  0  0  0  0  0
   47.6740   32.8850   43.2990 C   0  0  2  0  0  0  0  0  0  0  0  0
   47.1070   32.1500   42.2160 O   0  0  0  0  0  0  0  0  0  0  0  0
   48.2330   31.6980   41.5560 C   0  0  0  0  0  0  0  0  0  0  0  0
   49.3640   32.6500   41.7710 C   0  0  1  0  0  0  0  0  0  0  0  0
   49.4670   34.4870   43.3690 O   0  0  0  0  0  0  0  0  0  0  0  0
   49.8620   33.2080   40.5990 O   0  0  0  0  0  0  0  0  0  0  0  0
   44.7370   36.8170   43.7510 C   0  0  0  0  0  0  0  0  0  0  0  0
   45.3280   39.1720   44.6230 C   0  0  0  0  0  0  0  0  0  0  0  0
   45.5720   39.5290   43.4360 O   0  0  0  0  0  0  0  0  0  0  0  0
   44.9080   37.8210   44.7930 N   0  0  0  0  0  0  0  0  0  0  0  0
   45.4490   40.0300   45.7500 N   0  0  0  0  0  0  0  0  0  0  0  0
   46.5456   35.1610   42.6188 H   0  0  0  0  0  0  0  0  0  0  0  0
   44.9723   33.5453   46.9681 H   0  0  0  0  0  0  0  0  0  0  0  0
   48.1880   34.5615   41.9859 H   0  0  0  0  0  0  0  0  0  0  0  0
   48.1436   32.2609   44.0736 H   0  0  0  0  0  0  0  0  0  0  0  0
   48.0193   31.6224   40.4796 H   0  0  0  0  0  0  0  0  0  0  0  0
   48.5116   30.7094   41.9497 H   0  0  0  0  0  0  0  0  0  0  0  0
   50.2357   32.1696   42.2393 H   0  0  0  0  0  0  0  0  0  0  0  0
   49.2607   34.3030   44.3196 H   0  0  0  0  0  0  0  0  0  0  0  0
   50.5041   33.9275   40.8229 H   0  0  0  0  0  0  0  0  0  0  0  0
   45.3122   37.0955   42.8557 H   0  0  0  0  0  0  0  0  0  0  0  0
   43.6825   36.7280   43.4507 H   0  0  0  0  0  0  0  0  0  0  0  0
   44.7031   37.5217   45.7570 H   0  0  0  0  0  0  0  0  0  0  0  0
   45.7528   41.0061   45.6239 H   0  0  0  0  0  0  0  0  0  0  0  0
   45.2328   39.6756   46.6926 H   0  0  0  0  0  0  0  0  0  0  0  0
  1  6  2  0
  2  3  2  0
  2  1  1  0
  3  4  1  0
  4  5  2  0
  6  5  1  0
  7  8  1  0
  7 12  1  0
  8  3  1  0
  9  8  1  0
 10 11  1  0
 10  9  1  0
 11  7  1  0
 13 11  1  0
 14  1  1  0
 14 17  1  0
 15 17  1  0
 15 18  1  0
 16 15  2  0
  2 19  1  0
  5 20  1  0
  7 21  1  6
  8 22  1  1
 10 23  1  0
 10 24  1  0
 11 25  1  1
 12 26  1  0
 13 27  1  0
 14 28  1  0
 14 29  1  0
 17 30  1  0
 18 31  1  0
 18 32  1  0
M  ISO  8  19  14  20  14  21  13  22  13  23  13  24  13  25  13  26   3
M  ISO  3  27   3  28   8  29   8
M  END
>  <minimizedAffinity>  (1) 
-5.46328545

>  <minimizedRMSD>  (1) 
0.132913187

$$$$
