
     RDKit          3D

 43 46  0  0  1  0  0  0  0  0999 V2000
   46.0370   33.0870   46.1690 C   0  0  0  0  0  0  0  0  0  0  0  0
   46.8370   32.1600   45.8500 C   0  0  0  0  0  0  0  0  0  0  0  0
   44.5290   35.9450   44.3960 C   0  0  0  0  0  0  0  0  0  0  0  0
   45.1630   35.9180   43.1610 C   0  0  0  0  0  0  0  0  0  0  0  0
   46.0720   34.9340   42.9780 C   0  0  0  0  0  0  0  0  0  0  0  0
   46.3340   34.0310   43.9690 N   0  0  0  0  0  0  0  0  0  0  0  0
   45.6980   34.0890   45.1570 C   0  0  0  0  0  0  0  0  0  0  0  0
   44.8090   35.0500   45.3370 N   0  0  0  0  0  0  0  0  0  0  0  0
   46.8200   34.7760   41.7330 C   0  0  0  0  0  0  0  0  0  0  0  0
   48.0350   35.3520   41.4720 C   0  0  0  0  0  0  0  0  0  0  0  0
   48.7330   35.1960   40.2940 C   0  0  0  0  0  0  0  0  0  0  0  0
   48.2010   34.4120   39.2850 C   0  0  0  0  0  0  0  0  0  0  0  0
   46.9880   33.8100   39.4860 C   0  0  0  0  0  0  0  0  0  0  0  0
   46.3340   34.0040   40.6920 C   0  0  0  0  0  0  0  0  0  0  0  0
   47.1120   31.1280   46.9220 C   0  0  0  0  0  0  0  0  0  0  0  0
   46.8940   31.7190   48.2800 C   0  0  1  0  0  0  0  0  0  0  0  0
   46.2530   30.8010   49.2680 C   0  0  0  0  0  0  0  0  0  0  0  0
   47.6480   31.1970   49.4360 C   0  0  1  0  0  0  0  0  0  0  0  0
   48.7700   30.2420   49.1740 C   0  0  2  0  0  0  0  0  0  0  0  0
   49.7320   30.0940   50.3800 C   0  0  0  0  0  0  0  0  0  0  0  0
   50.1910   30.8010   49.1740 C   0  0  1  0  0  0  0  0  0  0  0  0
   51.1520   30.0560   48.3490 N   0  0  0  0  0  0  0  0  0  0  0  0
   45.6075   33.1386   47.1804 H   0  0  0  0  0  0  0  0  0  0  0  0
   47.3036   32.1076   44.8552 H   0  0  0  0  0  0  0  0  0  0  0  0
   43.7792   36.7237   44.5995 H   0  0  0  0  0  0  0  0  0  0  0  0
   44.9385   36.6553   42.3761 H   0  0  0  0  0  0  0  0  0  0  0  0
   48.4836   35.9811   42.2549 H   0  0  0  0  0  0  0  0  0  0  0  0
   49.7057   35.6909   40.1566 H   0  0  0  0  0  0  0  0  0  0  0  0
   48.7435   34.2750   38.3379 H   0  0  0  0  0  0  0  0  0  0  0  0
   46.5395   33.1820   38.7022 H   0  0  0  0  0  0  0  0  0  0  0  0
   45.3610   33.5102   40.8319 H   0  0  0  0  0  0  0  0  0  0  0  0
   46.4336   30.2730   46.7852 H   0  0  0  0  0  0  0  0  0  0  0  0
   48.1576   30.7963   46.8397 H   0  0  0  0  0  0  0  0  0  0  0  0
   46.7254   32.7301   47.8810 H   0  0  0  0  0  0  0  0  0  0  0  0
   45.4857   31.1836   49.9571 H   0  0  0  0  0  0  0  0  0  0  0  0
   45.7185   29.8416   49.2059 H   0  0  0  0  0  0  0  0  0  0  0  0
   48.2091   31.6319   50.2763 H   0  0  0  0  0  0  0  0  0  0  0  0
   48.1981   29.5936   48.4939 H   0  0  0  0  0  0  0  0  0  0  0  0
   49.5410   30.6564   51.3058 H   0  0  0  0  0  0  0  0  0  0  0  0
   50.1085   29.2455   50.9701 H   0  0  0  0  0  0  0  0  0  0  0  0
   50.6230   31.7947   48.9845 H   0  0  0  0  0  0  0  0  0  0  0  0
   51.8074   29.5479   48.9598 H   0  0  0  0  0  0  0  0  0  0  0  0
   50.6458   29.3843   47.7544 H   0  0  0  0  0  0  0  0  0  0  0  0
  2  1  2  0
  2 15  1  0
  3  8  2  0
  4  3  1  0
  5  4  2  0
  5  6  1  0
  6  7  2  0
  7  8  1  0
  7  1  1  0
  9  5  1  0
 10  9  2  0
 11 10  1  0
 12 13  1  0
 12 11  2  0
 13 14  2  0
 14  9  1  0
 15 16  1  0
 16 17  1  0
 16 18  1  0
 17 18  1  0
 19 21  1  0
 19 18  1  0
 19 20  1  0
 21 20  1  0
 22 21  1  0
  1 23  1  0
  2 24  1  0
  3 25  1  0
  4 26  1  0
 10 27  1  0
 11 28  1  0
 12 29  1  0
 13 30  1  0
 14 31  1  0
 15 32  1  0
 15 33  1  0
 16 34  1  6
 17 35  1  0
 17 36  1  0
 18 37  1  1
 19 38  1  6
 20 39  1  0
 20 40  1  0
 21 41  1  1
 22 42  1  0
 22 43  1  0
M  ISO  8  25  14  26  14  27  14  28  14  29  14  30  14  31  14  32   8
M  ISO  8  33   8  34  13  35  13  36  13  37  13  38  13  39  13  40  13
M  ISO  3  41  13  42   5  43   5
M  END
>  <minimizedAffinity>  (1) 
-6.17645931

>  <minimizedRMSD>  (1) 
0.619474471

$$$$
