
     RDKit          3D

 42 44  0  0  0  0  0  0  0  0999 V2000
   46.0380   33.8720   40.5040 C   0  0  0  0  0  0  0  0  0  0  0  0
   46.6160   33.6280   39.2760 C   0  0  0  0  0  0  0  0  0  0  0  0
   47.8780   34.0430   38.9170 C   0  0  0  0  0  0  0  0  0  0  0  0
   48.5810   34.7580   39.8950 C   0  0  0  0  0  0  0  0  0  0  0  0
   48.0500   35.0260   41.1310 C   0  0  0  0  0  0  0  0  0  0  0  0
   46.7920   34.5940   41.4440 C   0  0  0  0  0  0  0  0  0  0  0  0
   46.3380   34.9130   42.7350 N   0  0  0  0  0  0  0  0  0  0  0  0
   45.4240   35.9770   43.0330 C   0  0  0  0  0  0  0  0  0  0  0  0
   44.7660   35.7750   44.3760 C   0  0  0  0  0  0  0  0  0  0  0  0
   44.4480   34.4210   44.6870 N   0  0  0  0  0  0  0  0  0  0  0  0
   45.5320   33.5170   44.5740 C   0  0  0  0  0  0  0  0  0  0  0  0
   46.7290   34.2090   43.9670 C   0  0  0  0  0  0  0  0  0  0  0  0
   44.6890   33.4330   40.8770 C   0  0  0  0  0  0  0  0  0  0  0  0
   43.7560   33.4100   39.6870 C   0  0  0  0  0  0  0  0  0  0  0  0
   40.7720   35.7220   39.6430 C   0  0  0  0  0  0  0  0  0  0  0  0
   41.9980   35.1230   39.2700 C   0  0  0  0  0  0  0  0  0  0  0  0
   42.4770   34.0690   40.0520 C   0  0  0  0  0  0  0  0  0  0  0  0
   41.7370   33.6760   41.1340 N   0  0  0  0  0  0  0  0  0  0  0  0
   40.5820   34.2660   41.4580 C   0  0  0  0  0  0  0  0  0  0  0  0
   40.0960   35.2850   40.7200 N   0  0  0  0  0  0  0  0  0  0  0  0
   39.8280   33.8390   42.5890 N   0  0  0  0  0  0  0  0  0  0  0  0
   46.0299   33.0648   38.5349 H   0  0  0  0  0  0  0  0  0  0  0  0
   48.3065   33.8274   37.9271 H   0  0  0  0  0  0  0  0  0  0  0  0
   49.5946   35.1172   39.6637 H   0  0  0  0  0  0  0  0  0  0  0  0
   48.6375   35.5893   41.8710 H   0  0  0  0  0  0  0  0  0  0  0  0
   45.9741   36.9295   43.0432 H   0  0  0  0  0  0  0  0  0  0  0  0
   44.6406   35.9881   42.2609 H   0  0  0  0  0  0  0  0  0  0  0  0
   45.4479   36.1534   45.1518 H   0  0  0  0  0  0  0  0  0  0  0  0
   43.8097   36.3172   44.3375 H   0  0  0  0  0  0  0  0  0  0  0  0
   44.1021   34.3874   45.6566 H   0  0  0  0  0  0  0  0  0  0  0  0
   45.7976   33.1419   45.5734 H   0  0  0  0  0  0  0  0  0  0  0  0
   45.2346   32.6803   43.9248 H   0  0  0  0  0  0  0  0  0  0  0  0
   47.4994   33.4607   43.7291 H   0  0  0  0  0  0  0  0  0  0  0  0
   47.1251   34.9395   44.6877 H   0  0  0  0  0  0  0  0  0  0  0  0
   44.7491   32.4201   41.3018 H   0  0  0  0  0  0  0  0  0  0  0  0
   44.2883   34.1471   41.6115 H   0  0  0  0  0  0  0  0  0  0  0  0
   43.5614   32.3680   39.3930 H   0  0  0  0  0  0  0  0  0  0  0  0
   44.2193   33.9464   38.8458 H   0  0  0  0  0  0  0  0  0  0  0  0
   40.3679   36.5531   39.0464 H   0  0  0  0  0  0  0  0  0  0  0  0
   42.5572   35.4763   38.3911 H   0  0  0  0  0  0  0  0  0  0  0  0
   38.9403   34.3063   42.8224 H   0  0  0  0  0  0  0  0  0  0  0  0
   40.1707   33.0630   43.1732 H   0  0  0  0  0  0  0  0  0  0  0  0
  1 13  1  0
  1  6  1  0
  2  1  2  0
  3  2  1  0
  3  4  2  0
  4  5  1  0
  5  6  2  0
  6  7  1  0
  7  8  1  0
  7 12  1  0
  8  9  1  0
  9 10  1  0
 11 10  1  0
 12 11  1  0
 14 17  1  0
 14 13  1  0
 15 20  2  0
 16 15  1  0
 16 17  2  0
 17 18  1  0
 18 19  2  0
 19 21  1  0
 20 19  1  0
  2 22  1  0
  3 23  1  0
  4 24  1  0
  5 25  1  0
  8 26  1  0
  8 27  1  0
  9 28  1  0
  9 29  1  0
 10 30  1  0
 11 31  1  0
 11 32  1  0
 12 33  1  0
 12 34  1  0
 13 35  1  0
 13 36  1  0
 14 37  1  0
 14 38  1  0
 15 39  1  0
 16 40  1  0
 21 41  1  0
 21 42  1  0
M  ISO  8  22  14  23  14  24  14  25  14  26  13  27  13  28  13  29  13
M  ISO  8  30   5  31  13  32  13  33  13  34  13  35   8  36   8  37   8
M  ISO  3  38   8  39  14  40  14
M  END
>  <minimizedAffinity>  (1) 
-6.03716803

>  <minimizedRMSD>  (1) 
0.398490816

$$$$
