
     RDKit          3D

 20 21  0  0  0  0  0  0  0  0999 V2000
   44.4790   35.6920   45.1840 C   0  0  0  0  0  0  0  0  0  0  0  0
   45.0650   35.5470   43.9080 C   0  0  0  0  0  0  0  0  0  0  0  0
   45.8780   34.4640   43.6960 C   0  0  0  0  0  0  0  0  0  0  0  0
   46.0610   33.5940   44.7480 N   0  0  0  0  0  0  0  0  0  0  0  0
   45.4880   33.7620   45.9490 C   0  0  0  0  0  0  0  0  0  0  0  0
   44.6920   34.8230   46.1600 N   0  0  0  0  0  0  0  0  0  0  0  0
   46.5340   34.2340   42.3880 C   0  0  0  0  0  0  0  0  0  0  0  0
   46.2190   33.1750   41.5790 C   0  0  0  0  0  0  0  0  0  0  0  0
   47.3420   33.4260   40.1350 S   0  0  0  0  0  0  0  0  0  0  0  0
   48.0560   34.9770   40.9300 C   0  0  0  0  0  0  0  0  0  0  0  0
   47.4580   35.0080   41.9000 N   0  0  0  0  0  0  0  0  0  0  0  0
   49.0780   35.7800   40.3230 N   0  0  0  0  0  0  0  0  0  0  0  0
   44.7610   36.5420   42.9500 N   0  0  0  0  0  0  0  0  0  0  0  0
   43.8240   36.5551   45.3737 H   0  0  0  0  0  0  0  0  0  0  0  0
   45.6687   33.0360   46.7554 H   0  0  0  0  0  0  0  0  0  0  0  0
   45.4822   32.3757   41.7471 H   0  0  0  0  0  0  0  0  0  0  0  0
   49.4294   36.6186   40.8069 H   0  0  0  0  0  0  0  0  0  0  0  0
   49.4604   35.5180   39.4032 H   0  0  0  0  0  0  0  0  0  0  0  0
   45.1620   36.4847   42.0030 H   0  0  0  0  0  0  0  0  0  0  0  0
   44.1386   37.3239   43.1993 H   0  0  0  0  0  0  0  0  0  0  0  0
  1  6  2  0
  2  1  1  0
  3  2  2  0
  3  4  1  0
  4  5  2  0
  5  6  1  0
  7  3  1  0
  8  7  2  0
  9 10  1  0
  9  8  1  0
 10 11  2  0
 11  7  1  0
 12 10  1  0
 13  2  1  0
  1 14  1  0
  5 15  1  0
  8 16  1  0
 12 17  1  0
 12 18  1  0
 13 19  1  0
 13 20  1  0
M  ISO  3  14  14  15  14  16  14
M  END
>  <minimizedAffinity>  (1) 
-4.6108017

>  <minimizedRMSD>  (1) 
0.586600661

$$$$
