
     RDKit          3D

 36 37  0  0  1  0  0  0  0  0999 V2000
   45.8410   31.2880   46.6390 C   0  0  2  0  0  0  0  0  0  0  0  0
   45.7330   30.6120   47.9660 C   0  0  0  0  0  0  0  0  0  0  0  0
   44.9910   29.3400   47.7550 C   0  0  0  0  0  0  0  0  0  0  0  0
   44.5170   29.0840   46.3640 C   0  0  0  0  0  0  0  0  0  0  0  0
   45.6680   29.1860   45.3940 C   0  0  0  0  0  0  0  0  0  0  0  0
   46.5180   30.3340   45.6760 C   0  0  2  0  0  0  0  0  0  0  0  0
   47.7490   29.7600   46.2750 C   0  0  0  0  0  0  0  0  0  0  0  0
   48.8450   29.5710   45.3780 N   0  0  0  0  0  0  0  0  0  0  0  0
   46.4770   32.6190   46.6750 C   0  0  0  0  0  0  0  0  0  0  0  0
   47.3760   32.9210   47.4990 O   0  0  0  0  0  0  0  0  0  0  0  0
   44.6060   35.3430   45.1240 C   0  0  0  0  0  0  0  0  0  0  0  0
   45.1470   35.4450   43.8180 C   0  0  0  0  0  0  0  0  0  0  0  0
   46.1700   34.5530   43.5040 C   0  0  0  0  0  0  0  0  0  0  0  0
   46.5130   33.7090   44.4790 N   0  0  0  0  0  0  0  0  0  0  0  0
   46.0120   33.6090   45.6930 C   0  0  0  0  0  0  0  0  0  0  0  0
   45.0250   34.4580   46.0250 N   0  0  0  0  0  0  0  0  0  0  0  0
   46.7310   34.6440   42.1650 C   0  0  0  0  0  0  0  0  0  0  0  0
   47.4450   33.4940   41.8800 F   0  0  0  0  0  0  0  0  0  0  0  0
   47.5740   35.7090   42.1650 F   0  0  0  0  0  0  0  0  0  0  0  0
   45.7430   34.7330   41.1910 F   0  0  0  0  0  0  0  0  0  0  0  0
   44.8235   31.5158   46.2884 H   0  0  0  0  0  0  0  0  0  0  0  0
   46.7366   30.4009   48.3638 H   0  0  0  0  0  0  0  0  0  0  0  0
   45.2080   31.2540   48.6887 H   0  0  0  0  0  0  0  0  0  0  0  0
   45.6547   28.5112   48.0425 H   0  0  0  0  0  0  0  0  0  0  0  0
   44.0817   29.4211   48.3686 H   0  0  0  0  0  0  0  0  0  0  0  0
   44.0831   28.0748   46.3080 H   0  0  0  0  0  0  0  0  0  0  0  0
   43.7576   29.8347   46.0999 H   0  0  0  0  0  0  0  0  0  0  0  0
   45.2660   29.2834   44.3747 H   0  0  0  0  0  0  0  0  0  0  0  0
   46.2794   28.2772   45.4950 H   0  0  0  0  0  0  0  0  0  0  0  0
   46.7339   30.9188   44.7697 H   0  0  0  0  0  0  0  0  0  0  0  0
   48.0813   30.4357   47.0769 H   0  0  0  0  0  0  0  0  0  0  0  0
   47.4714   28.7548   46.6249 H   0  0  0  0  0  0  0  0  0  0  0  0
   49.7091   29.4220   45.9183 H   0  0  0  0  0  0  0  0  0  0  0  0
   48.6651   28.7486   44.7845 H   0  0  0  0  0  0  0  0  0  0  0  0
   43.7968   36.0320   45.4078 H   0  0  0  0  0  0  0  0  0  0  0  0
   44.7799   36.1866   43.0933 H   0  0  0  0  0  0  0  0  0  0  0  0
  1  9  1  0
  1  2  1  0
  3  2  1  0
  4  3  1  0
  5  6  1  0
  5  4  1  0
  6  7  1  0
  6  1  1  0
  8  7  1  0
  9 10  2  0
 11 16  2  0
 12 11  1  0
 13 12  2  0
 13 14  1  0
 14 15  2  0
 15 16  1  0
 15  9  1  0
 17 13  1  0
 18 17  1  0
 19 17  1  0
 20 17  1  0
  1 21  1  6
  2 22  1  0
  2 23  1  0
  3 24  1  0
  3 25  1  0
  4 26  1  0
  4 27  1  0
  5 28  1  0
  5 29  1  0
  6 30  1  6
  7 31  1  0
  7 32  1  0
  8 33  1  0
  8 34  1  0
 11 35  1  0
 12 36  1  0
M  ISO  8  21  13  22  13  23  13  24  13  25  13  26  13  27  13  28  13
M  ISO  8  29  13  30  13  31   8  32   8  33   5  34   5  35  14  36  14
M  END
>  <minimizedAffinity>  (1) 
-5.05145884

>  <minimizedRMSD>  (1) 
0.468781918

$$$$
