
     RDKit          3D

 30 31  0  0  0  0  0  0  0  0999 V2000
   45.8500   33.9570   42.9740 C   0  0  0  0  0  0  0  0  0  0  0  0
   45.1620   35.1540   42.4200 C   0  0  0  0  0  0  0  0  0  0  0  0
   45.1280   36.2910   43.3840 C   0  0  0  0  0  0  0  0  0  0  0  0
   44.5000   35.9070   44.7100 C   0  0  0  0  0  0  0  0  0  0  0  0
   45.0060   34.6000   45.2480 C   0  0  0  0  0  0  0  0  0  0  0  0
   46.1680   34.0780   44.4480 C   0  0  0  0  0  0  0  0  0  0  0  0
   47.1220   33.6600   42.2860 C   0  0  0  0  0  0  0  0  0  0  0  0
   48.2700   34.2710   42.8390 C   0  0  0  0  0  0  0  0  0  0  0  0
   49.5090   34.0360   42.2410 C   0  0  0  0  0  0  0  0  0  0  0  0
   49.5340   33.2220   41.1470 N   0  0  0  0  0  0  0  0  0  0  0  0
   48.4040   32.6430   40.6320 C   0  0  0  0  0  0  0  0  0  0  0  0
   47.2060   32.8650   41.2030 N   0  0  0  0  0  0  0  0  0  0  0  0
   48.5700   31.8120   39.4960 N   0  0  0  0  0  0  0  0  0  0  0  0
   50.7130   34.6100   42.7310 N   0  0  0  0  0  0  0  0  0  0  0  0
   45.1259   33.1448   42.8124 H   0  0  0  0  0  0  0  0  0  0  0  0
   45.6926   35.4771   41.5122 H   0  0  0  0  0  0  0  0  0  0  0  0
   44.1219   34.8702   42.2016 H   0  0  0  0  0  0  0  0  0  0  0  0
   46.1583   36.6303   43.5663 H   0  0  0  0  0  0  0  0  0  0  0  0
   44.5133   37.0881   42.9404 H   0  0  0  0  0  0  0  0  0  0  0  0
   44.7218   36.6962   45.4434 H   0  0  0  0  0  0  0  0  0  0  0  0
   43.4193   35.7935   44.5390 H   0  0  0  0  0  0  0  0  0  0  0  0
   45.3276   34.7446   46.2900 H   0  0  0  0  0  0  0  0  0  0  0  0
   44.1898   33.8654   45.1840 H   0  0  0  0  0  0  0  0  0  0  0  0
   46.4426   33.0845   44.8322 H   0  0  0  0  0  0  0  0  0  0  0  0
   46.9950   34.7956   44.5533 H   0  0  0  0  0  0  0  0  0  0  0  0
   48.1886   34.9194   43.7238 H   0  0  0  0  0  0  0  0  0  0  0  0
   47.7524   31.3527   39.0700 H   0  0  0  0  0  0  0  0  0  0  0  0
   49.5082   31.6674   39.0964 H   0  0  0  0  0  0  0  0  0  0  0  0
   51.6073   34.4110   42.2602 H   0  0  0  0  0  0  0  0  0  0  0  0
   50.6915   35.2250   43.5570 H   0  0  0  0  0  0  0  0  0  0  0  0
  1  6  1  0
  2  1  1  0
  2  3  1  0
  3  4  1  0
  4  5  1  0
  6  5  1  0
  7  8  2  0
  7  1  1  0
  9 14  1  0
  9  8  1  0
 10  9  2  0
 11 10  1  0
 11 12  2  0
 12  7  1  0
 13 11  1  0
  1 15  1  0
  2 16  1  0
  2 17  1  0
  3 18  1  0
  3 19  1  0
  4 20  1  0
  4 21  1  0
  5 22  1  0
  5 23  1  0
  6 24  1  0
  6 25  1  0
  8 26  1  0
 13 27  1  0
 13 28  1  0
 14 29  1  0
 14 30  1  0
M  ISO  8  15  13  16  13  17  13  18  13  19  13  20  13  21  13  22  13
M  ISO  4  23  13  24  13  25  13  26  14
M  END
>  <minimizedAffinity>  (1) 
-4.76245785

>  <minimizedRMSD>  (1) 
1.10253525

$$$$
