
     RDKit          3D

 22 23  0  0  0  0  0  0  0  0999 V2000
   44.0570   33.3230   41.0090 Cl  0  0  0  0  0  0  0  0  0  0  0  0
   45.6970   33.8000   40.6970 C   0  0  0  0  0  0  0  0  0  0  0  0
   46.4460   34.4430   41.6340 C   0  0  0  0  0  0  0  0  0  0  0  0
   47.7390   34.7710   41.2680 C   0  0  0  0  0  0  0  0  0  0  0  0
   48.2620   34.4810   40.0490 C   0  0  0  0  0  0  0  0  0  0  0  0
   47.5000   33.8310   39.1030 C   0  0  0  0  0  0  0  0  0  0  0  0
   46.2000   33.4940   39.4540 C   0  0  0  0  0  0  0  0  0  0  0  0
   44.5590   36.1280   44.4380 C   0  0  0  0  0  0  0  0  0  0  0  0
   45.1140   35.8800   43.1770 C   0  0  0  0  0  0  0  0  0  0  0  0
   45.8560   34.7350   42.9250 C   0  0  0  0  0  0  0  0  0  0  0  0
   45.9990   33.8890   43.9740 N   0  0  0  0  0  0  0  0  0  0  0  0
   45.4610   34.1330   45.1850 C   0  0  0  0  0  0  0  0  0  0  0  0
   44.7500   35.2380   45.4210 N   0  0  0  0  0  0  0  0  0  0  0  0
   48.5560   35.4430   42.2160 N   0  0  0  0  0  0  0  0  0  0  0  0
   49.2985   34.7662   39.8158 H   0  0  0  0  0  0  0  0  0  0  0  0
   47.9055   33.5888   38.1095 H   0  0  0  0  0  0  0  0  0  0  0  0
   45.5611   32.9733   38.7255 H   0  0  0  0  0  0  0  0  0  0  0  0
   43.9738   37.0416   44.6194 H   0  0  0  0  0  0  0  0  0  0  0  0
   44.9584   36.6090   42.3681 H   0  0  0  0  0  0  0  0  0  0  0  0
   45.6109   33.4060   45.9968 H   0  0  0  0  0  0  0  0  0  0  0  0
   49.5231   35.7001   41.9720 H   0  0  0  0  0  0  0  0  0  0  0  0
   48.1813   35.6732   43.1474 H   0  0  0  0  0  0  0  0  0  0  0  0
  2  1  1  0
  2  3  2  0
  3 10  1  0
  4  3  1  0
  4 14  1  0
  5  4  2  0
  6  7  2  0
  6  5  1  0
  7  2  1  0
  8 13  2  0
  9  8  1  0
 10  9  2  0
 10 11  1  0
 11 12  2  0
 12 13  1  0
  5 15  1  0
  6 16  1  0
  7 17  1  0
  8 18  1  0
  9 19  1  0
 12 20  1  0
 14 21  1  0
 14 22  1  0
M  ISO  6  15  14  16  14  17  14  18  14  19  14  20  14
M  END
>  <minimizedAffinity>  (1) 
-4.62359381

>  <minimizedRMSD>  (1) 
0.698689878

$$$$
