
     RDKit          3D

 30 32  0  0  0  0  0  0  0  0999 V2000
   46.1310   31.4250   45.1170 C   0  0  0  0  0  0  0  0  0  0  0  0
   46.0800   32.7740   45.3730 C   0  0  0  0  0  0  0  0  0  0  0  0
   45.8160   33.2060   46.6650 C   0  0  0  0  0  0  0  0  0  0  0  0
   45.6140   32.2570   47.6530 C   0  0  0  0  0  0  0  0  0  0  0  0
   45.3450   32.3850   48.9740 N   0  0  0  0  0  0  0  0  0  0  0  0
   45.2320   31.1470   49.5260 C   0  0  0  0  0  0  0  0  0  0  0  0
   45.4300   30.2160   48.5510 C   0  0  0  0  0  0  0  0  0  0  0  0
   45.6680   30.8990   47.3820 C   0  0  0  0  0  0  0  0  0  0  0  0
   45.9290   30.4870   46.1030 C   0  0  0  0  0  0  0  0  0  0  0  0
   47.7630   34.6010   42.7070 C   0  0  0  0  0  0  0  0  0  0  0  0
   46.8050   35.4470   42.2060 C   0  0  0  0  0  0  0  0  0  0  0  0
   45.5500   35.3860   42.8010 C   0  0  0  0  0  0  0  0  0  0  0  0
   45.3370   34.5250   43.8120 N   0  0  0  0  0  0  0  0  0  0  0  0
   46.3040   33.7090   44.2760 C   0  0  0  0  0  0  0  0  0  0  0  0
   47.5190   33.7590   43.7100 N   0  0  0  0  0  0  0  0  0  0  0  0
   49.0580   34.6880   42.0670 C   0  0  0  0  0  0  0  0  0  0  0  0
   50.1360   34.1620   42.4920 O   0  0  0  0  0  0  0  0  0  0  0  0
   48.8870   35.4630   40.8940 N   0  0  0  0  0  0  0  0  0  0  0  0
   44.4610   36.2020   42.3870 N   0  0  0  0  0  0  0  0  0  0  0  0
   46.3398   31.0845   44.0921 H   0  0  0  0  0  0  0  0  0  0  0  0
   45.7682   34.2797   46.8994 H   0  0  0  0  0  0  0  0  0  0  0  0
   45.2424   33.2765   49.4795 H   0  0  0  0  0  0  0  0  0  0  0  0
   45.0167   30.9331   50.5833 H   0  0  0  0  0  0  0  0  0  0  0  0
   45.4042   29.1234   48.6758 H   0  0  0  0  0  0  0  0  0  0  0  0
   45.9769   29.4141   45.8653 H   0  0  0  0  0  0  0  0  0  0  0  0
   47.0192   36.1373   41.3768 H   0  0  0  0  0  0  0  0  0  0  0  0
   47.9576   35.8369   40.6548 H   0  0  0  0  0  0  0  0  0  0  0  0
   49.6921   35.6527   40.2802 H   0  0  0  0  0  0  0  0  0  0  0  0
   43.5487   36.1214   42.8584 H   0  0  0  0  0  0  0  0  0  0  0  0
   44.5847   36.8735   41.6159 H   0  0  0  0  0  0  0  0  0  0  0  0
  1  2  2  0
  1  9  1  0
  2  3  1  0
  3  4  2  0
  4  5  1  0
  5  6  1  0
  7  6  2  0
  8  4  1  0
  8  7  1  0
  9  8  2  0
 10 15  2  0
 11 10  1  0
 11 12  2  0
 12 13  1  0
 13 14  2  0
 14  2  1  0
 15 14  1  0
 16 17  2  0
 16 10  1  0
 18 16  1  0
 19 12  1  0
  1 20  1  0
  3 21  1  0
  5 22  1  0
  6 23  1  0
  7 24  1  0
  9 25  1  0
 11 26  1  0
 18 27  1  0
 18 28  1  0
 19 29  1  0
 19 30  1  0
M  ISO  7  20  14  21  14  22   9  23  14  24  14  25  14  26  14
M  END
>  <minimizedAffinity>  (1) 
-6.20239305

>  <minimizedRMSD>  (1) 
1.08925068

$$$$
