
     RDKit          3D

 25 26  0  0  0  0  0  0  0  0999 V2000
   46.3670   34.3870   41.5120 C   0  0  0  0  0  0  0  0  0  0  0  0
   47.6760   34.7440   41.2810 C   0  0  0  0  0  0  0  0  0  0  0  0
   48.2790   34.4680   40.0720 C   0  0  0  0  0  0  0  0  0  0  0  0
   47.5470   33.8320   39.1110 C   0  0  0  0  0  0  0  0  0  0  0  0
   46.2310   33.4520   39.2900 C   0  0  0  0  0  0  0  0  0  0  0  0
   45.6800   33.7580   40.5310 C   0  0  0  0  0  0  0  0  0  0  0  0
   44.6150   36.1230   44.3750 C   0  0  0  0  0  0  0  0  0  0  0  0
   45.1130   35.9000   43.0730 C   0  0  0  0  0  0  0  0  0  0  0  0
   45.8160   34.7240   42.8080 C   0  0  0  0  0  0  0  0  0  0  0  0
   45.9740   33.8620   43.8320 N   0  0  0  0  0  0  0  0  0  0  0  0
   45.4920   34.0890   45.0770 C   0  0  0  0  0  0  0  0  0  0  0  0
   44.8120   35.2190   45.3510 N   0  0  0  0  0  0  0  0  0  0  0  0
   48.4700   35.4460   42.3550 C   0  0  0  0  0  0  0  0  0  0  0  0
   49.1620   34.4670   43.1090 N   0  0  0  0  0  0  0  0  0  0  0  0
   49.3249   34.7535   39.8863 H   0  0  0  0  0  0  0  0  0  0  0  0
   48.0287   33.6114   38.1470 H   0  0  0  0  0  0  0  0  0  0  0  0
   45.6563   32.9411   38.5034 H   0  0  0  0  0  0  0  0  0  0  0  0
   44.6347   33.4745   40.7235 H   0  0  0  0  0  0  0  0  0  0  0  0
   44.0594   37.0468   44.5937 H   0  0  0  0  0  0  0  0  0  0  0  0
   44.9492   36.6429   42.2784 H   0  0  0  0  0  0  0  0  0  0  0  0
   45.6570   33.3451   45.8704 H   0  0  0  0  0  0  0  0  0  0  0  0
   49.1903   36.1372   41.8931 H   0  0  0  0  0  0  0  0  0  0  0  0
   47.7975   36.0215   43.0081 H   0  0  0  0  0  0  0  0  0  0  0  0
   49.0313   34.6519   44.1138 H   0  0  0  0  0  0  0  0  0  0  0  0
   48.7922   33.5332   42.8808 H   0  0  0  0  0  0  0  0  0  0  0  0
  1  9  1  0
  2  1  2  0
  2 13  1  0
  3  2  1  0
  4  5  1  0
  4  3  2  0
  5  6  2  0
  6  1  1  0
  7 12  2  0
  8  7  1  0
  9  8  2  0
  9 10  1  0
 10 11  2  0
 11 12  1  0
 13 14  1  0
  3 15  1  0
  4 16  1  0
  5 17  1  0
  6 18  1  0
  7 19  1  0
  8 20  1  0
 11 21  1  0
 13 22  1  0
 13 23  1  0
 14 24  1  0
 14 25  1  0
M  ISO  8  15  14  16  14  17  14  18  14  19  14  20  14  21  14  22   8
M  ISO  3  23   8  24   5  25   5
M  END
>  <minimizedAffinity>  (1) 
-4.76274395

>  <minimizedRMSD>  (1) 
0.272390336

$$$$
