
     RDKit          3D

 47 50  0  0  1  0  0  0  0  0999 V2000
   42.8100   34.3190   38.9800 C   0  0  1  0  0  0  0  0  0  0  0  0
   43.0380   35.1660   40.2210 C   0  0  1  0  0  0  0  0  0  0  0  0
   41.7830   35.6250   40.6780 O   0  0  0  0  0  0  0  0  0  0  0  0
   40.9020   35.9160   39.6350 C   0  0  0  0  0  0  0  0  0  0  0  0
   40.4540   34.6640   38.9070 C   0  0  2  0  0  0  0  0  0  0  0  0
   41.5380   33.5720   39.2080 C   0  0  1  0  0  0  0  0  0  0  0  0
   42.7070   35.1290   37.8390 O   0  0  0  0  0  0  0  0  0  0  0  0
   40.5160   34.8690   37.5390 O   0  0  0  0  0  0  0  0  0  0  0  0
   43.4400   34.2600   41.2200 O   0  0  0  0  0  0  0  0  0  0  0  0
   44.5910   34.3390   41.9000 C   0  0  0  0  0  0  0  0  0  0  0  0
   45.8140   34.4860   41.2310 C   0  0  0  0  0  0  0  0  0  0  0  0
   46.9770   34.5630   41.9780 C   0  0  0  0  0  0  0  0  0  0  0  0
   46.8990   34.4950   43.3590 N   0  0  0  0  0  0  0  0  0  0  0  0
   45.7000   34.3530   43.9690 C   0  0  0  0  0  0  0  0  0  0  0  0
   44.5540   34.2750   43.2420 N   0  0  0  0  0  0  0  0  0  0  0  0
   48.3200   34.6980   41.3400 C   0  0  0  0  0  0  0  0  0  0  0  0
   49.0510   36.0240   41.5340 C   0  0  0  0  0  0  0  0  0  0  0  0
   49.5150   34.6770   42.1210 C   0  0  0  0  0  0  0  0  0  0  0  0
   41.2810   32.5200   38.4190 O   0  0  0  0  0  0  0  0  0  0  0  0
   40.3100   31.5990   38.4540 C   0  0  0  0  0  0  0  0  0  0  0  0
   39.8540   31.0370   37.3400 O   0  0  0  0  0  0  0  0  0  0  0  0
   39.5140   30.9560   39.5610 C   0  0  0  0  0  0  0  0  0  0  0  0
   38.4410   31.5730   40.0860 C   0  0  0  0  0  0  0  0  0  0  0  0
   37.6930   30.9650   41.1080 C   0  0  0  0  0  0  0  0  0  0  0  0
   38.0340   29.7270   41.6010 C   0  0  0  0  0  0  0  0  0  0  0  0
   39.1220   29.0520   41.1020 C   0  0  0  0  0  0  0  0  0  0  0  0
   39.7960   29.7040   40.1150 C   0  0  0  0  0  0  0  0  0  0  0  0
   43.6514   33.6310   38.8106 H   0  0  0  0  0  0  0  0  0  0  0  0
   43.7427   35.9859   40.0181 H   0  0  0  0  0  0  0  0  0  0  0  0
   40.0174   36.4230   40.0478 H   0  0  0  0  0  0  0  0  0  0  0  0
   41.4279   36.5595   38.9143 H   0  0  0  0  0  0  0  0  0  0  0  0
   39.4353   34.3901   39.2188 H   0  0  0  0  0  0  0  0  0  0  0  0
   41.5714   33.1283   40.2140 H   0  0  0  0  0  0  0  0  0  0  0  0
   42.5870   36.0725   38.1138 H   0  0  0  0  0  0  0  0  0  0  0  0
   40.7977   35.8005   37.3573 H   0  0  0  0  0  0  0  0  0  0  0  0
   45.8490   34.5392   40.1328 H   0  0  0  0  0  0  0  0  0  0  0  0
   45.6517   34.3000   45.0667 H   0  0  0  0  0  0  0  0  0  0  0  0
   47.9937   34.0995   40.4767 H   0  0  0  0  0  0  0  0  0  0  0  0
   49.5966   36.4921   40.7014 H   0  0  0  0  0  0  0  0  0  0  0  0
   48.8088   37.0264   41.9168 H   0  0  0  0  0  0  0  0  0  0  0  0
   49.4542   34.5053   43.2058 H   0  0  0  0  0  0  0  0  0  0  0  0
   50.4516   34.1019   42.0753 H   0  0  0  0  0  0  0  0  0  0  0  0
   38.1457   32.5642   39.7114 H   0  0  0  0  0  0  0  0  0  0  0  0
   36.8185   31.4886   41.5216 H   0  0  0  0  0  0  0  0  0  0  0  0
   37.4308   29.2735   42.4013 H   0  0  0  0  0  0  0  0  0  0  0  0
   39.4250   28.0612   41.4715 H   0  0  0  0  0  0  0  0  0  0  0  0
   40.6711   29.1806   39.7023 H   0  0  0  0  0  0  0  0  0  0  0  0
  1  6  1  0
  1  2  1  0
  2  3  1  0
  2  9  1  0
  4  3  1  0
  5  6  1  0
  5  4  1  0
  7  1  1  0
  8  5  1  0
  9 10  1  0
 10 15  1  0
 11 10  2  0
 11 12  1  0
 12 13  2  0
 13 14  1  0
 15 14  2  0
 16 17  1  0
 16 12  1  0
 16 18  1  0
 17 18  1  0
 19 20  1  0
 19  6  1  0
 20 22  1  0
 21 20  2  0
 22 23  2  0
 22 27  1  0
 23 24  1  0
 24 25  2  0
 26 25  1  0
 27 26  2  0
  1 28  1  6
  2 29  1  6
  4 30  1  0
  4 31  1  0
  5 32  1  1
  6 33  1  1
  7 34  1  0
  8 35  1  0
 11 36  1  0
 14 37  1  0
 16 38  1  0
 17 39  1  0
 17 40  1  0
 18 41  1  0
 18 42  1  0
 23 43  1  0
 24 44  1  0
 25 45  1  0
 26 46  1  0
 27 47  1  0
M  ISO  8  28  13  29  13  30  13  31  13  32  13  33  13  34   3  35   3
M  ISO  8  36  14  37  14  38  13  39  13  40  13  41  13  42  13  43  14
M  ISO  4  44  14  45  14  46  14  47  14
M  END
>  <minimizedAffinity>  (1) 
-6.38700724

>  <minimizedRMSD>  (1) 
2.00031233

$$$$
