
     RDKit          3D

 31 33  0  0  1  0  0  0  0  0999 V2000
   45.5830   35.3720   43.3690 C   0  0  0  0  0  0  0  0  0  0  0  0
   46.0650   34.1500   43.8800 C   0  0  0  0  0  0  0  0  0  0  0  0
   45.6770   33.8060   45.1460 C   0  0  0  0  0  0  0  0  0  0  0  0
   44.8650   34.5920   45.8890 N   0  0  0  0  0  0  0  0  0  0  0  0
   44.4080   35.7820   45.3590 C   0  0  0  0  0  0  0  0  0  0  0  0
   44.7610   36.1650   44.1230 N   0  0  0  0  0  0  0  0  0  0  0  0
   46.1370   32.6180   45.6930 C   0  0  0  0  0  0  0  0  0  0  0  0
   46.0710   31.3090   45.2960 C   0  0  0  0  0  0  0  0  0  0  0  0
   46.5930   30.3150   46.0010 C   0  0  0  0  0  0  0  0  0  0  0  0
   47.2380   30.6670   47.2040 C   0  0  0  0  0  0  0  0  0  0  0  0
   47.0420   32.5330   47.2560 S   0  0  0  0  0  0  0  0  0  0  0  0
   46.8570   33.3890   42.9990 C   0  0  0  0  0  0  0  0  0  0  0  0
   46.2160   32.6710   42.1190 O   0  0  0  0  0  0  0  0  0  0  0  0
   48.2680   33.0940   42.7330 C   0  0  0  0  0  0  0  0  0  0  0  0
   48.9700   34.3000   42.7150 C   0  0  0  0  0  0  0  0  0  0  0  0
   50.3520   34.3780   42.4910 C   0  0  0  0  0  0  0  0  0  0  0  0
   50.9500   33.1240   42.2860 C   0  0  0  0  0  0  0  0  0  0  0  0
   50.2730   31.9470   42.3010 C   0  0  0  0  0  0  0  0  0  0  0  0
   48.8970   31.9050   42.5290 C   0  0  0  0  0  0  0  0  0  0  0  0
   45.8698   35.6909   42.3561 H   0  0  0  0  0  0  0  0  0  0  0  0
   43.7458   36.4244   45.9581 H   0  0  0  0  0  0  0  0  0  0  0  0
   45.5622   31.0718   44.3500 H   0  0  0  0  0  0  0  0  0  0  0  0
   46.5263   29.2698   45.6647 H   0  0  0  0  0  0  0  0  0  0  0  0
   47.7342   30.0096   47.9331 H   0  0  0  0  0  0  0  0  0  0  0  0
   46.8818   34.2322   42.2930 H   0  0  0  0  0  0  0  0  0  0  0  0
   45.6344   32.0195   42.5852 H   0  0  0  0  0  0  0  0  0  0  0  0
   48.4130   35.2333   42.8845 H   0  0  0  0  0  0  0  0  0  0  0  0
   50.9110   35.3253   42.4772 H   0  0  0  0  0  0  0  0  0  0  0  0
   52.0340   33.0933   42.1019 H   0  0  0  0  0  0  0  0  0  0  0  0
   50.8201   31.0081   42.1300 H   0  0  0  0  0  0  0  0  0  0  0  0
   48.3456   30.9533   42.5432 H   0  0  0  0  0  0  0  0  0  0  0  0
  1  2  2  0
  1  6  1  0
  2  3  1  0
  3  7  1  0
  3  4  2  0
  5  4  1  0
  6  5  2  0
  7 11  1  0
  8  7  2  0
  8  9  1  0
  9 10  2  0
 10 11  1  0
 12 13  1  0
 12  2  1  0
 14 12  1  0
 15 14  2  0
 16 15  1  0
 17 18  1  0
 17 16  2  0
 18 19  2  0
 19 14  1  0
  1 20  1  0
  5 21  1  0
  8 22  1  0
  9 23  1  0
 10 24  1  0
 12 25  1  0
 13 26  1  0
 15 27  1  0
 16 28  1  0
 17 29  1  0
 18 30  1  0
 19 31  1  0
M  ISO  8  20  14  21  14  22  14  23  14  24  14  25   8  26   3  27  14
M  ISO  4  28  14  29  14  30  14  31  14
M  END
>  <minimizedAffinity>  (1) 
-5.16998959

>  <minimizedRMSD>  (1) 
3.09693646

$$$$
