
     RDKit          3D

 22 23  0  0  0  0  0  0  0  0999 V2000
   47.3270   34.9760   41.9340 C   0  0  0  0  0  0  0  0  0  0  0  0
   48.4200   35.6310   41.9290 O   0  0  0  0  0  0  0  0  0  0  0  0
   44.6660   35.9920   44.2720 C   0  0  0  0  0  0  0  0  0  0  0  0
   45.5490   35.9570   43.1710 C   0  0  0  0  0  0  0  0  0  0  0  0
   46.4810   34.9060   43.0920 C   0  0  0  0  0  0  0  0  0  0  0  0
   46.4740   33.9790   44.0920 N   0  0  0  0  0  0  0  0  0  0  0  0
   45.6190   34.0490   45.1210 C   0  0  0  0  0  0  0  0  0  0  0  0
   44.7070   35.0550   45.2200 N   0  0  0  0  0  0  0  0  0  0  0  0
   47.0780   34.3310   40.6350 C   0  0  0  0  0  0  0  0  0  0  0  0
   48.0350   34.4040   39.6400 C   0  0  0  0  0  0  0  0  0  0  0  0
   47.8850   33.8270   38.3740 C   0  0  0  0  0  0  0  0  0  0  0  0
   46.6970   33.1380   38.1110 C   0  0  0  0  0  0  0  0  0  0  0  0
   45.7200   33.0510   39.0990 C   0  0  0  0  0  0  0  0  0  0  0  0
   45.9190   33.6390   40.3300 C   0  0  0  0  0  0  0  0  0  0  0  0
   43.9310   36.8068   44.3493 H   0  0  0  0  0  0  0  0  0  0  0  0
   45.5092   36.7335   42.3929 H   0  0  0  0  0  0  0  0  0  0  0  0
   45.6546   33.2765   45.9033 H   0  0  0  0  0  0  0  0  0  0  0  0
   48.9673   34.9465   39.8557 H   0  0  0  0  0  0  0  0  0  0  0  0
   48.6741   33.9125   37.6124 H   0  0  0  0  0  0  0  0  0  0  0  0
   46.5354   32.6678   37.1298 H   0  0  0  0  0  0  0  0  0  0  0  0
   44.7839   32.5100   38.8963 H   0  0  0  0  0  0  0  0  0  0  0  0
   45.1318   33.5555   41.0938 H   0  0  0  0  0  0  0  0  0  0  0  0
  1  5  1  0
  2  1  2  0
  3  8  2  0
  4  3  1  0
  5  4  2  0
  5  6  1  0
  6  7  2  0
  7  8  1  0
  9  1  1  0
 10  9  2  0
 11 10  1  0
 12 11  2  0
 12 13  1  0
 13 14  2  0
 14  9  1  0
  3 15  1  0
  4 16  1  0
  7 17  1  0
 10 18  1  0
 11 19  1  0
 12 20  1  0
 13 21  1  0
 14 22  1  0
M  ISO  8  15  14  16  14  17  14  18  14  19  14  20  14  21  14  22  14
M  END
>  <minimizedAffinity>  (1) 
-4.55314398

>  <minimizedRMSD>  (1) 
0.624195397

$$$$
