
     RDKit          3D

 31 33  0  0  0  0  0  0  0  0999 V2000
   45.1720   36.1800   43.4960 C   0  0  0  0  0  0  0  0  0  0  0  0
   45.7950   34.9870   43.1140 C   0  0  0  0  0  0  0  0  0  0  0  0
   45.8090   33.9350   44.0350 C   0  0  0  0  0  0  0  0  0  0  0  0
   45.2300   34.1260   45.2250 N   0  0  0  0  0  0  0  0  0  0  0  0
   44.6290   35.2860   45.5870 C   0  0  0  0  0  0  0  0  0  0  0  0
   44.6140   36.2860   44.7140 N   0  0  0  0  0  0  0  0  0  0  0  0
   46.4490   32.6910   43.6560 C   0  0  0  0  0  0  0  0  0  0  0  0
   45.6740   31.6290   43.2290 C   0  0  0  0  0  0  0  0  0  0  0  0
   46.3060   30.4650   42.8700 C   0  0  0  0  0  0  0  0  0  0  0  0
   47.6960   30.2940   42.9130 C   0  0  0  0  0  0  0  0  0  0  0  0
   48.4110   31.4060   43.3520 C   0  0  0  0  0  0  0  0  0  0  0  0
   47.7670   32.5300   43.6960 N   0  0  0  0  0  0  0  0  0  0  0  0
   46.3930   34.8540   41.8120 C   0  0  0  0  0  0  0  0  0  0  0  0
   47.5670   35.2900   41.6820 O   0  0  0  0  0  0  0  0  0  0  0  0
   45.5990   34.2230   40.7340 C   0  0  0  0  0  0  0  0  0  0  0  0
   46.2710   33.4090   39.8170 C   0  0  0  0  0  0  0  0  0  0  0  0
   45.3370   32.9400   38.8850 C   0  0  0  0  0  0  0  0  0  0  0  0
   44.0050   33.1680   38.7950 C   0  0  0  0  0  0  0  0  0  0  0  0
   43.4830   33.9910   39.7710 C   0  0  0  0  0  0  0  0  0  0  0  0
   44.2660   34.5370   40.7620 C   0  0  0  0  0  0  0  0  0  0  0  0
   45.1389   37.0309   42.7997 H   0  0  0  0  0  0  0  0  0  0  0  0
   44.1657   35.3958   46.5786 H   0  0  0  0  0  0  0  0  0  0  0  0
   44.5785   31.7148   43.1783 H   0  0  0  0  0  0  0  0  0  0  0  0
   45.6881   29.6208   42.5302 H   0  0  0  0  0  0  0  0  0  0  0  0
   48.1856   29.3529   42.6221 H   0  0  0  0  0  0  0  0  0  0  0  0
   49.5082   31.3615   43.4166 H   0  0  0  0  0  0  0  0  0  0  0  0
   47.3463   33.1773   39.8261 H   0  0  0  0  0  0  0  0  0  0  0  0
   45.7495   32.2841   38.1042 H   0  0  0  0  0  0  0  0  0  0  0  0
   43.3840   32.7284   38.0006 H   0  0  0  0  0  0  0  0  0  0  0  0
   42.4068   34.2180   39.7567 H   0  0  0  0  0  0  0  0  0  0  0  0
   43.8429   35.1925   41.5375 H   0  0  0  0  0  0  0  0  0  0  0  0
  1  6  2  0
  2  1  1  0
  2  3  2  0
  3  4  1  0
  4  5  2  0
  6  5  1  0
  7 12  1  0
  7  3  1  0
  8  7  2  0
  9 10  2  0
  9  8  1  0
 10 11  1  0
 11 12  2  0
 13  2  1  0
 14 13  2  0
 15 20  1  0
 15 13  1  0
 16 15  2  0
 17 16  1  0
 18 17  2  0
 18 19  1  0
 19 20  2  0
  1 21  1  0
  5 22  1  0
  8 23  1  0
  9 24  1  0
 10 25  1  0
 11 26  1  0
 16 27  1  0
 17 28  1  0
 18 29  1  0
 19 30  1  0
 20 31  1  0
M  ISO  8  21  14  22  14  23  14  24  14  25  14  26  14  27  14  28  14
M  ISO  3  29  14  30  14  31  14
M  END
>  <minimizedAffinity>  (1) 
-4.65135145

>  <minimizedRMSD>  (1) 
0.736743093

$$$$
