
     RDKit          3D

 39 41  0  0  0  0  0  0  0  0999 V2000
   47.2330   34.6100   41.0130 C   0  0  0  0  0  0  0  0  0  0  0  0
   48.5200   34.0030   41.3990 C   0  0  0  0  0  0  0  0  0  0  0  0
   48.7460   32.7130   40.9540 C   0  0  0  0  0  0  0  0  0  0  0  0
   49.9380   32.0590   41.2700 C   0  0  0  0  0  0  0  0  0  0  0  0
   50.8490   32.7500   42.0270 N   0  0  0  0  0  0  0  0  0  0  0  0
   50.5850   34.0220   42.4450 C   0  0  0  0  0  0  0  0  0  0  0  0
   49.4420   34.6140   42.1260 N   0  0  0  0  0  0  0  0  0  0  0  0
   47.5250   31.8490   39.9650 S   0  0  0  0  0  0  0  0  0  0  0  0
   47.9000   32.1520   38.2530 C   0  0  0  0  0  0  0  0  0  0  0  0
   48.3810   33.3590   37.8430 C   0  0  0  0  0  0  0  0  0  0  0  0
   48.6810   33.6320   36.5410 C   0  0  0  0  0  0  0  0  0  0  0  0
   48.5060   32.6730   35.5530 C   0  0  0  0  0  0  0  0  0  0  0  0
   48.0180   31.4390   35.9400 C   0  0  0  0  0  0  0  0  0  0  0  0
   47.7290   31.2090   37.2660 C   0  0  0  0  0  0  0  0  0  0  0  0
   46.3590   34.9420   42.1800 C   0  0  0  0  0  0  0  0  0  0  0  0
   44.9020   34.9270   41.8670 C   0  0  0  0  0  0  0  0  0  0  0  0
   43.9790   35.4910   42.7940 C   0  0  0  0  0  0  0  0  0  0  0  0
   42.3580   35.2360   41.9760 S   0  0  0  0  0  0  0  0  0  0  0  0
   43.2150   34.3950   40.4940 C   0  0  0  0  0  0  0  0  0  0  0  0
   44.3110   34.4470   40.8100 N   0  0  0  0  0  0  0  0  0  0  0  0
   42.5140   33.9020   39.3900 O   0  0  0  0  0  0  0  0  0  0  0  0
   40.5430   34.2920   37.6640 O   0  0  0  0  0  0  0  0  0  0  0  0
   41.6010   35.0200   38.4900 P   0  0  0  0  0  0  0  0  0  0  0  0
   40.8460   36.0720   39.5720 O   0  0  0  0  0  0  0  0  0  0  0  0
   42.6330   35.9060   37.4810 O   0  0  0  0  0  0  0  0  0  0  0  0
   47.4375   35.5362   40.4559 H   0  0  0  0  0  0  0  0  0  0  0  0
   46.6942   33.8690   40.4043 H   0  0  0  0  0  0  0  0  0  0  0  0
   50.1380   31.0333   40.9265 H   0  0  0  0  0  0  0  0  0  0  0  0
   51.3271   34.5612   43.0521 H   0  0  0  0  0  0  0  0  0  0  0  0
   48.5340   34.1474   38.5947 H   0  0  0  0  0  0  0  0  0  0  0  0
   49.0669   34.6258   36.2701 H   0  0  0  0  0  0  0  0  0  0  0  0
   48.7467   32.8870   34.5012 H   0  0  0  0  0  0  0  0  0  0  0  0
   47.8617   30.6463   35.1935 H   0  0  0  0  0  0  0  0  0  0  0  0
   47.3412   30.2199   37.5513 H   0  0  0  0  0  0  0  0  0  0  0  0
   46.5498   34.2070   42.9758 H   0  0  0  0  0  0  0  0  0  0  0  0
   46.6095   35.9689   42.4845 H   0  0  0  0  0  0  0  0  0  0  0  0
   44.1880   35.9644   43.7647 H   0  0  0  0  0  0  0  0  0  0  0  0
   41.0473   35.7915   40.4998 H   0  0  0  0  0  0  0  0  0  0  0  0
   43.2560   36.4409   38.0340 H   0  0  0  0  0  0  0  0  0  0  0  0
  1  2  1  0
  1 15  1  0
  2  7  2  0
  3  4  2  0
  3  2  1  0
  4  5  1  0
  5  6  2  0
  7  6  1  0
  8  3  1  0
  9  8  1  0
 10  9  2  0
 11 10  1  0
 12 13  1  0
 12 11  2  0
 13 14  2  0
 14  9  1  0
 16 15  1  0
 16 17  2  0
 18 17  1  0
 19 20  2  0
 19 18  1  0
 20 16  1  0
 21 19  1  0
 22 23  2  0
 23 21  1  0
 23 24  1  0
 25 23  1  0
  1 26  1  0
  1 27  1  0
  4 28  1  0
  6 29  1  0
 10 30  1  0
 11 31  1  0
 12 32  1  0
 13 33  1  0
 14 34  1  0
 15 35  1  0
 15 36  1  0
 17 37  1  0
 24 38  1  0
 25 39  1  0
M  ISO  8  26   8  27   8  28  14  29  14  30  14  31  14  32  14  33  14
M  ISO  6  34  14  35   8  36   8  37  14  38   3  39   3
M  END
>  <minimizedAffinity>  (1) 
-4.96656656

>  <minimizedRMSD>  (1) 
0.436815947

$$$$
