
     RDKit          3D

 38 40  0  0  1  0  0  0  0  0999 V2000
   44.5250   35.2490   45.7430 C   0  0  0  0  0  0  0  0  0  0  0  0
   44.4550   35.6650   44.4000 C   0  0  0  0  0  0  0  0  0  0  0  0
   45.2220   34.9550   43.4810 C   0  0  0  0  0  0  0  0  0  0  0  0
   45.9770   33.9300   43.9060 N   0  0  0  0  0  0  0  0  0  0  0  0
   46.0320   33.5490   45.1850 C   0  0  0  0  0  0  0  0  0  0  0  0
   45.2970   34.2160   46.1120 N   0  0  0  0  0  0  0  0  0  0  0  0
   46.8170   32.2650   47.1960 C   0  0  1  0  0  0  0  0  0  0  0  0
   46.8430   32.4480   45.7080 C   0  0  1  0  0  0  0  0  0  0  0  0
   46.2210   31.0950   45.2970 C   0  0  0  0  0  0  0  0  0  0  0  0
   46.5540   30.1880   46.2590 O   0  0  0  0  0  0  0  0  0  0  0  0
   47.3020   30.8150   47.2570 C   0  0  0  0  0  0  0  0  0  0  0  0
   47.5950   33.1440   47.8930 O   0  0  0  0  0  0  0  0  0  0  0  0
   45.1440   35.3720   42.1610 O   0  0  0  0  0  0  0  0  0  0  0  0
   44.7160   32.8390   41.4700 O   0  0  0  0  0  0  0  0  0  0  0  0
   45.1100   34.2040   40.8980 P   0  0  1  0  0  0  0  0  0  0  0  0
   44.0280   34.7090   39.7450 O   0  0  0  0  0  0  0  0  0  0  0  0
   46.6800   34.1080   40.2960 O   0  0  0  0  0  0  0  0  0  0  0  0
   47.8350   34.1370   41.0310 C   0  0  0  0  0  0  0  0  0  0  0  0
   48.5110   33.0420   41.5250 C   0  0  0  0  0  0  0  0  0  0  0  0
   49.6760   33.1230   42.2640 C   0  0  0  0  0  0  0  0  0  0  0  0
   50.2020   34.3760   42.5320 C   0  0  0  0  0  0  0  0  0  0  0  0
   49.5640   35.5090   42.0620 C   0  0  0  0  0  0  0  0  0  0  0  0
   48.3930   35.3720   41.3210 C   0  0  0  0  0  0  0  0  0  0  0  0
   43.9355   35.7811   46.5042 H   0  0  0  0  0  0  0  0  0  0  0  0
   43.8238   36.5114   44.0914 H   0  0  0  0  0  0  0  0  0  0  0  0
   45.8445   32.4604   47.6714 H   0  0  0  0  0  0  0  0  0  0  0  0
   47.8441   32.7007   45.3286 H   0  0  0  0  0  0  0  0  0  0  0  0
   45.1270   31.1883   45.2298 H   0  0  0  0  0  0  0  0  0  0  0  0
   46.5965   30.7759   44.3135 H   0  0  0  0  0  0  0  0  0  0  0  0
   48.3790   30.7497   47.0430 H   0  0  0  0  0  0  0  0  0  0  0  0
   47.1701   30.3566   48.2482 H   0  0  0  0  0  0  0  0  0  0  0  0
   47.4672   32.9996   48.8640 H   0  0  0  0  0  0  0  0  0  0  0  0
   43.2254   35.0836   40.1872 H   0  0  0  0  0  0  0  0  0  0  0  0
   48.0983   32.0435   41.3186 H   0  0  0  0  0  0  0  0  0  0  0  0
   50.1740   32.2134   42.6309 H   0  0  0  0  0  0  0  0  0  0  0  0
   51.1276   34.4697   43.1189 H   0  0  0  0  0  0  0  0  0  0  0  0
   49.9766   36.5070   42.2710 H   0  0  0  0  0  0  0  0  0  0  0  0
   47.8917   36.2788   40.9517 H   0  0  0  0  0  0  0  0  0  0  0  0
  1  6  2  0
  2  1  1  0
  3  4  1  0
  3  2  2  0
  4  5  2  0
  5  8  1  0
  5  6  1  0
  7 11  1  0
  7 12  1  0
  8  7  1  0
  9  8  1  0
  9 10  1  0
 10 11  1  0
 13  3  1  0
 15 14  2  0
 15 13  1  0
 16 15  1  0
 17 15  1  0
 17 18  1  0
 18 23  1  0
 18 19  2  0
 19 20  1  0
 20 21  2  0
 22 21  1  0
 23 22  2  0
  1 24  1  0
  2 25  1  0
  7 26  1  1
  8 27  1  6
  9 28  1  0
  9 29  1  0
 11 30  1  0
 11 31  1  0
 12 32  1  0
 16 33  1  0
 19 34  1  0
 20 35  1  0
 21 36  1  0
 22 37  1  0
 23 38  1  0
M  ISO  8  24  14  25  14  26  13  27  13  28  13  29  13  30  13  31  13
M  ISO  7  32   3  33   3  34  14  35  14  36  14  37  14  38  14
M  END
>  <minimizedAffinity>  (1) 
-6.43285036

>  <minimizedRMSD>  (1) 
2.77223086

$$$$
