
     RDKit          3D

 26 27  0  0  0  0  0  0  0  0999 V2000
   47.1700   32.6940   48.0010 O   0  0  0  0  0  0  0  0  0  0  0  0
   45.7510   32.5090   47.4540 P   0  0  1  0  0  0  0  0  0  0  0  0
   44.7120   33.7130   47.9880 O   0  0  0  0  0  0  0  0  0  0  0  0
   45.8790   32.4980   45.7690 O   0  0  0  0  0  0  0  0  0  0  0  0
   44.6750   35.6560   44.6600 C   0  0  0  0  0  0  0  0  0  0  0  0
   44.4310   35.4820   43.2830 C   0  0  0  0  0  0  0  0  0  0  0  0
   44.7100   34.2020   42.7620 C   0  0  0  0  0  0  0  0  0  0  0  0
   45.1810   33.2400   43.5860 N   0  0  0  0  0  0  0  0  0  0  0  0
   45.3960   33.4710   44.9090 C   0  0  0  0  0  0  0  0  0  0  0  0
   45.1430   34.6710   45.4310 N   0  0  0  0  0  0  0  0  0  0  0  0
   45.1880   31.0340   48.0530 O   0  0  0  0  0  0  0  0  0  0  0  0
   45.5870   29.8620   47.3880 C   0  0  0  0  0  0  0  0  0  0  0  0
   44.6100   29.2270   46.6540 C   0  0  0  0  0  0  0  0  0  0  0  0
   44.9000   28.0670   45.9630 C   0  0  0  0  0  0  0  0  0  0  0  0
   46.2050   27.6070   46.0640 C   0  0  0  0  0  0  0  0  0  0  0  0
   47.2040   28.2240   46.7920 C   0  0  0  0  0  0  0  0  0  0  0  0
   46.8880   29.3850   47.4760 C   0  0  0  0  0  0  0  0  0  0  0  0
   44.7017   33.7249   48.9779 H   0  0  0  0  0  0  0  0  0  0  0  0
   44.4731   36.6367   45.1154 H   0  0  0  0  0  0  0  0  0  0  0  0
   44.0457   36.2966   42.6521 H   0  0  0  0  0  0  0  0  0  0  0  0
   44.5459   33.9885   41.6955 H   0  0  0  0  0  0  0  0  0  0  0  0
   43.5935   29.6459   46.6179 H   0  0  0  0  0  0  0  0  0  0  0  0
   44.1409   27.5388   45.3675 H   0  0  0  0  0  0  0  0  0  0  0  0
   46.4631   26.6835   45.5250 H   0  0  0  0  0  0  0  0  0  0  0  0
   48.2205   27.8050   46.8270 H   0  0  0  0  0  0  0  0  0  0  0  0
   47.6457   29.9146   48.0722 H   0  0  0  0  0  0  0  0  0  0  0  0
  2  3  1  0
  2  1  2  0
  2 11  1  0
  4  2  1  0
  5 10  2  0
  6  5  1  0
  7  6  2  0
  7  8  1  0
  8  9  2  0
  9 10  1  0
  9  4  1  0
 12 17  1  0
 12 11  1  0
 13 12  2  0
 14 15  2  0
 14 13  1  0
 15 16  1  0
 16 17  2  0
  3 18  1  0
  5 19  1  0
  6 20  1  0
  7 21  1  0
 13 22  1  0
 14 23  1  0
 15 24  1  0
 16 25  1  0
 17 26  1  0
M  ISO  8  18   3  19  14  20  14  21  14  22  14  23  14  24  14  25  14
M  ISO  1  26  14
M  END
>  <minimizedAffinity>  (1) 
-4.44310284

>  <minimizedRMSD>  (1) 
1.87005138

$$$$
