
     RDKit          3D

 36 38  0  0  0  0  0  0  0  0999 V2000
   45.8890   34.6760   43.5450 C   0  0  0  0  0  0  0  0  0  0  0  0
   47.1230   34.5460   42.8890 C   0  0  0  0  0  0  0  0  0  0  0  0
   47.9550   33.5320   43.3470 C   0  0  0  0  0  0  0  0  0  0  0  0
   47.5350   32.7460   44.3810 N   0  0  0  0  0  0  0  0  0  0  0  0
   46.3530   32.9110   44.9700 C   0  0  0  0  0  0  0  0  0  0  0  0
   45.5190   33.8770   44.5590 N   0  0  0  0  0  0  0  0  0  0  0  0
   45.9290   29.9800   44.2110 Cl  0  0  0  0  0  0  0  0  0  0  0  0
   45.7460   30.6810   45.8260 C   0  0  0  0  0  0  0  0  0  0  0  0
   45.9610   32.0320   46.0760 C   0  0  0  0  0  0  0  0  0  0  0  0
   45.8110   32.5480   47.3390 C   0  0  0  0  0  0  0  0  0  0  0  0
   45.4390   31.6920   48.3720 C   0  0  0  0  0  0  0  0  0  0  0  0
   45.2350   30.3630   48.0840 C   0  0  0  0  0  0  0  0  0  0  0  0
   44.7690   29.3340   49.4190 Cl  0  0  0  0  0  0  0  0  0  0  0  0
   45.3770   29.8110   46.8200 C   0  0  0  0  0  0  0  0  0  0  0  0
   47.4370   35.4490   41.8090 C   0  0  0  0  0  0  0  0  0  0  0  0
   48.4910   34.8000   40.9320 C   0  0  0  0  0  0  0  0  0  0  0  0
   47.9630   34.3210   39.6560 C   0  0  0  0  0  0  0  0  0  0  0  0
   48.5440   34.6630   38.4500 C   0  0  0  0  0  0  0  0  0  0  0  0
   48.1200   34.2610   37.2040 C   0  0  0  0  0  0  0  0  0  0  0  0
   47.0070   33.4410   37.1940 C   0  0  0  0  0  0  0  0  0  0  0  0
   46.3440   33.0340   38.3360 C   0  0  0  0  0  0  0  0  0  0  0  0
   46.8620   33.5010   39.5160 C   0  0  0  0  0  0  0  0  0  0  0  0
   45.1967   35.4646   43.2151 H   0  0  0  0  0  0  0  0  0  0  0  0
   48.9382   33.3649   42.8830 H   0  0  0  0  0  0  0  0  0  0  0  0
   45.9815   33.6176   47.5313 H   0  0  0  0  0  0  0  0  0  0  0  0
   45.3110   32.0707   49.3968 H   0  0  0  0  0  0  0  0  0  0  0  0
   45.2045   28.7420   46.6265 H   0  0  0  0  0  0  0  0  0  0  0  0
   46.5319   35.6480   41.2163 H   0  0  0  0  0  0  0  0  0  0  0  0
   47.8140   36.4012   42.2105 H   0  0  0  0  0  0  0  0  0  0  0  0
   49.2800   35.5390   40.7286 H   0  0  0  0  0  0  0  0  0  0  0  0
   48.8752   33.9246   41.4761 H   0  0  0  0  0  0  0  0  0  0  0  0
   49.4274   35.3173   38.4894 H   0  0  0  0  0  0  0  0  0  0  0  0
   48.6310   34.5705   36.2804 H   0  0  0  0  0  0  0  0  0  0  0  0
   46.6277   33.0928   36.2219 H   0  0  0  0  0  0  0  0  0  0  0  0
   45.4605   32.3797   38.3005 H   0  0  0  0  0  0  0  0  0  0  0  0
   46.3510   33.1925   40.4400 H   0  0  0  0  0  0  0  0  0  0  0  0
  1  6  2  0
  2  3  2  0
  2  1  1  0
  3  4  1  0
  4  5  2  0
  5  9  1  0
  6  5  1  0
  7  8  1  0
  8  9  2  0
  8 14  1  0
  9 10  1  0
 10 11  2  0
 12 11  1  0
 12 13  1  0
 14 12  2  0
 15  2  1  0
 16 15  1  0
 17 16  1  0
 18 17  2  0
 19 18  1  0
 20 19  2  0
 20 21  1  0
 21 22  2  0
 22 17  1  0
  1 23  1  0
  3 24  1  0
 10 25  1  0
 11 26  1  0
 14 27  1  0
 15 28  1  0
 15 29  1  0
 16 30  1  0
 16 31  1  0
 18 32  1  0
 19 33  1  0
 20 34  1  0
 21 35  1  0
 22 36  1  0
M  ISO  8  23  14  24  14  25  14  26  14  27  14  28   8  29   8  30   8
M  ISO  6  31   8  32  14  33  14  34  14  35  14  36  14
M  END
>  <minimizedAffinity>  (1) 
-5.18084955

>  <minimizedRMSD>  (1) 
1.71814263

$$$$
