
     RDKit          3D

 39 41  0  0  0  0  0  0  0  0999 V2000
   45.6010   29.9330   44.7560 Br  0  0  0  0  0  0  0  0  0  0  0  0
   45.6610   30.5870   46.5790 C   0  0  0  0  0  0  0  0  0  0  0  0
   46.3470   31.7620   46.7680 C   0  0  0  0  0  0  0  0  0  0  0  0
   46.3700   32.2040   48.0920 C   0  0  0  0  0  0  0  0  0  0  0  0
   45.7620   31.5300   49.1330 C   0  0  0  0  0  0  0  0  0  0  0  0
   45.0940   30.3580   48.8620 C   0  0  0  0  0  0  0  0  0  0  0  0
   45.0370   29.8700   47.5640 C   0  0  0  0  0  0  0  0  0  0  0  0
   47.0270   32.5600   45.7530 C   0  0  0  0  0  0  0  0  0  0  0  0
   44.5480   35.3140   45.3950 C   0  0  0  0  0  0  0  0  0  0  0  0
   44.7630   35.7290   44.0760 C   0  0  0  0  0  0  0  0  0  0  0  0
   45.7350   35.0690   43.3520 C   0  0  0  0  0  0  0  0  0  0  0  0
   46.4370   34.0610   43.9240 N   0  0  0  0  0  0  0  0  0  0  0  0
   46.2100   33.6730   45.2110 C   0  0  0  0  0  0  0  0  0  0  0  0
   45.2580   34.3250   45.9130 N   0  0  0  0  0  0  0  0  0  0  0  0
   44.3580   28.6810   47.2970 O   0  0  0  0  0  0  0  0  0  0  0  0
   44.0980   26.1060   47.0240 O   0  0  0  0  0  0  0  0  0  0  0  0
   44.9480   27.1490   47.7600 P   0  0  2  0  0  0  0  0  0  0  0  0
   44.7450   27.0180   49.4130 O   0  0  0  0  0  0  0  0  0  0  0  0
   46.5450   26.9290   47.2880 O   0  0  0  0  0  0  0  0  0  0  0  0
   47.3800   26.1210   48.0470 C   0  0  0  0  0  0  0  0  0  0  0  0
   47.0520   24.8580   48.4920 C   0  0  0  0  0  0  0  0  0  0  0  0
   47.8900   24.0750   49.2400 C   0  0  0  0  0  0  0  0  0  0  0  0
   49.1430   24.5980   49.5640 C   0  0  0  0  0  0  0  0  0  0  0  0
   49.5270   25.8480   49.1500 C   0  0  0  0  0  0  0  0  0  0  0  0
   48.6310   26.5900   48.3950 C   0  0  0  0  0  0  0  0  0  0  0  0
   46.9013   33.1401   48.3185 H   0  0  0  0  0  0  0  0  0  0  0  0
   45.8109   31.9227   50.1593 H   0  0  0  0  0  0  0  0  0  0  0  0
   44.6034   29.8058   49.6771 H   0  0  0  0  0  0  0  0  0  0  0  0
   47.9372   32.9856   46.2006 H   0  0  0  0  0  0  0  0  0  0  0  0
   47.2432   31.8857   44.9112 H   0  0  0  0  0  0  0  0  0  0  0  0
   43.7824   35.8142   46.0062 H   0  0  0  0  0  0  0  0  0  0  0  0
   44.1797   36.5498   43.6332 H   0  0  0  0  0  0  0  0  0  0  0  0
   45.9397   35.3610   42.3114 H   0  0  0  0  0  0  0  0  0  0  0  0
   45.4809   27.4929   49.8745 H   0  0  0  0  0  0  0  0  0  0  0  0
   46.0615   24.4568   48.2315 H   0  0  0  0  0  0  0  0  0  0  0  0
   47.5871   23.0714   49.5731 H   0  0  0  0  0  0  0  0  0  0  0  0
   49.8384   23.9938   50.1651 H   0  0  0  0  0  0  0  0  0  0  0  0
   50.5173   26.2504   49.4094 H   0  0  0  0  0  0  0  0  0  0  0  0
   48.9295   27.5941   48.0594 H   0  0  0  0  0  0  0  0  0  0  0  0
  1  2  1  0
  2  3  2  0
  2  7  1  0
  3  4  1  0
  4  5  2  0
  6  5  1  0
  7  6  2  0
  8  3  1  0
  9 14  2  0
 10  9  1  0
 11 12  1  0
 11 10  2  0
 12 13  2  0
 13  8  1  0
 13 14  1  0
 15  7  1  0
 15 17  1  0
 17 16  2  0
 17 18  1  0
 19 17  1  0
 19 20  1  0
 20 25  1  0
 20 21  2  0
 21 22  1  0
 22 23  2  0
 24 23  1  0
 25 24  2  0
  4 26  1  0
  5 27  1  0
  6 28  1  0
  8 29  1  0
  8 30  1  0
  9 31  1  0
 10 32  1  0
 11 33  1  0
 18 34  1  0
 21 35  1  0
 22 36  1  0
 23 37  1  0
 24 38  1  0
 25 39  1  0
M  ISO  8  26  14  27  14  28  14  29   8  30   8  31  14  32  14  33  14
M  ISO  6  34   3  35  14  36  14  37  14  38  14  39  14
M  END
>  <minimizedAffinity>  (1) 
-5.31726122

>  <minimizedRMSD>  (1) 
0.408146381

$$$$
