
     RDKit          3D

 23 24  0  0  0  0  0  0  0  0999 V2000
   45.7030   33.1730   42.2000 C   0  0  0  0  0  0  0  0  0  0  0  0
   44.3720   35.8870   44.3750 C   0  0  0  0  0  0  0  0  0  0  0  0
   44.7290   35.1450   43.2310 C   0  0  0  0  0  0  0  0  0  0  0  0
   45.3460   33.9190   43.4050 C   0  0  0  0  0  0  0  0  0  0  0  0
   45.5820   33.4830   44.6700 N   0  0  0  0  0  0  0  0  0  0  0  0
   45.2300   34.2170   45.7630 C   0  0  0  0  0  0  0  0  0  0  0  0
   44.6300   35.4080   45.5990 N   0  0  0  0  0  0  0  0  0  0  0  0
   46.7970   33.9510   41.5380 C   0  0  0  0  0  0  0  0  0  0  0  0
   47.6110   34.7390   42.3110 C   0  0  0  0  0  0  0  0  0  0  0  0
   48.6630   35.5220   41.8920 C   0  0  0  0  0  0  0  0  0  0  0  0
   48.8990   35.4870   40.5140 C   0  0  0  0  0  0  0  0  0  0  0  0
   48.1030   34.7040   39.6910 C   0  0  0  0  0  0  0  0  0  0  0  0
   47.0600   33.9410   40.1880 C   0  0  0  0  0  0  0  0  0  0  0  0
   46.0576   32.1661   42.4655 H   0  0  0  0  0  0  0  0  0  0  0  0
   44.8373   33.0500   41.5326 H   0  0  0  0  0  0  0  0  0  0  0  0
   43.8792   36.8640   44.2621 H   0  0  0  0  0  0  0  0  0  0  0  0
   44.5217   35.5321   42.2224 H   0  0  0  0  0  0  0  0  0  0  0  0
   45.4360   33.8364   46.7743 H   0  0  0  0  0  0  0  0  0  0  0  0
   47.3988   34.7462   43.3903 H   0  0  0  0  0  0  0  0  0  0  0  0
   49.2683   36.1256   42.5843 H   0  0  0  0  0  0  0  0  0  0  0  0
   49.7174   36.0815   40.0820 H   0  0  0  0  0  0  0  0  0  0  0  0
   48.3067   34.6888   38.6101 H   0  0  0  0  0  0  0  0  0  0  0  0
   46.4464   33.3315   39.5084 H   0  0  0  0  0  0  0  0  0  0  0  0
  1  4  1  0
  2  7  2  0
  3  4  2  0
  3  2  1  0
  4  5  1  0
  5  6  2  0
  7  6  1  0
  8  1  1  0
  8  9  2  0
 10  9  1  0
 11 10  2  0
 12 13  2  0
 12 11  1  0
 13  8  1  0
  1 14  1  0
  1 15  1  0
  2 16  1  0
  3 17  1  0
  6 18  1  0
  9 19  1  0
 10 20  1  0
 11 21  1  0
 12 22  1  0
 13 23  1  0
M  ISO  8  14   8  15   8  16  14  17  14  18  14  19  14  20  14  21  14
M  ISO  2  22  14  23  14
M  END
>  <minimizedAffinity>  (1) 
-4.56555986

>  <minimizedRMSD>  (1) 
2.0384376

$$$$
