
     RDKit          3D

 36 38  0  0  1  0  0  0  0  0999 V2000
   46.7520   34.5790   42.2840 N   0  0  0  0  0  0  0  0  0  0  0  0
   48.2120   34.5430   42.3230 C   0  0  0  0  0  0  0  0  0  0  0  0
   48.6290   35.3090   41.0680 C   0  0  0  0  0  0  0  0  0  0  0  0
   48.1950   34.5750   39.8310 C   0  0  0  0  0  0  0  0  0  0  0  0
   46.8680   33.9160   39.9310 C   0  0  0  0  0  0  0  0  0  0  0  0
   46.0150   34.3960   41.0730 C   0  0  1  0  0  0  0  0  0  0  0  0
   44.4670   36.0030   44.8790 C   0  0  0  0  0  0  0  0  0  0  0  0
   45.1470   35.9100   43.6450 C   0  0  0  0  0  0  0  0  0  0  0  0
   45.9960   34.8030   43.4860 C   0  0  0  0  0  0  0  0  0  0  0  0
   46.1030   33.9070   44.5230 N   0  0  0  0  0  0  0  0  0  0  0  0
   45.4350   34.0360   45.6840 C   0  0  0  0  0  0  0  0  0  0  0  0
   44.6070   35.1080   45.8470 N   0  0  0  0  0  0  0  0  0  0  0  0
   45.0100   33.4460   41.2750 O   0  0  0  0  0  0  0  0  0  0  0  0
   43.6640   33.6130   41.1220 C   0  0  0  0  0  0  0  0  0  0  0  0
   42.6180   32.7610   41.3920 C   0  0  0  0  0  0  0  0  0  0  0  0
   41.3140   33.1470   41.1550 C   0  0  0  0  0  0  0  0  0  0  0  0
   41.0130   34.3860   40.6440 C   0  0  0  0  0  0  0  0  0  0  0  0
   42.0380   35.2570   40.3650 C   0  0  0  0  0  0  0  0  0  0  0  0
   43.3510   34.8720   40.6030 C   0  0  0  0  0  0  0  0  0  0  0  0
   48.5922   35.0381   43.2287 H   0  0  0  0  0  0  0  0  0  0  0  0
   48.6118   33.5186   42.3487 H   0  0  0  0  0  0  0  0  0  0  0  0
   48.1614   36.3046   41.0802 H   0  0  0  0  0  0  0  0  0  0  0  0
   49.7249   35.4030   41.0581 H   0  0  0  0  0  0  0  0  0  0  0  0
   48.9455   33.8014   39.6111 H   0  0  0  0  0  0  0  0  0  0  0  0
   48.1059   35.3315   39.0374 H   0  0  0  0  0  0  0  0  0  0  0  0
   46.3220   34.1001   38.9940 H   0  0  0  0  0  0  0  0  0  0  0  0
   47.0628   32.8490   40.1144 H   0  0  0  0  0  0  0  0  0  0  0  0
   45.6034   35.3816   40.8099 H   0  0  0  0  0  0  0  0  0  0  0  0
   43.7916   36.8553   45.0444 H   0  0  0  0  0  0  0  0  0  0  0  0
   45.0188   36.6624   42.8529 H   0  0  0  0  0  0  0  0  0  0  0  0
   45.5541   33.2921   46.4855 H   0  0  0  0  0  0  0  0  0  0  0  0
   42.8231   31.7608   41.8014 H   0  0  0  0  0  0  0  0  0  0  0  0
   40.4969   32.4460   41.3806 H   0  0  0  0  0  0  0  0  0  0  0  0
   39.9678   34.6761   40.4611 H   0  0  0  0  0  0  0  0  0  0  0  0
   41.8199   36.2543   39.9552 H   0  0  0  0  0  0  0  0  0  0  0  0
   44.1653   35.5762   40.3772 H   0  0  0  0  0  0  0  0  0  0  0  0
  1  2  1  0
  1  9  1  0
  3  2  1  0
  4  5  1  0
  4  3  1  0
  5  6  1  0
  6 13  1  0
  6  1  1  0
  7 12  2  0
  8  7  1  0
  9  8  2  0
  9 10  1  0
 10 11  2  0
 11 12  1  0
 14 13  1  0
 14 15  2  0
 16 15  1  0
 17 16  2  0
 18 19  2  0
 18 17  1  0
 19 14  1  0
  2 20  1  0
  2 21  1  0
  3 22  1  0
  3 23  1  0
  4 24  1  0
  4 25  1  0
  5 26  1  0
  5 27  1  0
  6 28  1  6
  7 29  1  0
  8 30  1  0
 11 31  1  0
 15 32  1  0
 16 33  1  0
 17 34  1  0
 18 35  1  0
 19 36  1  0
M  ISO  8  20  13  21  13  22  13  23  13  24  13  25  13  26  13  27  13
M  ISO  8  28  13  29  14  30  14  31  14  32  14  33  14  34  14  35  14
M  ISO  1  36  14
M  END
>  <minimizedAffinity>  (1) 
-5.73652744

>  <minimizedRMSD>  (1) 
0.463464439

$$$$
