
     RDKit          3D

 27 28  0  0  0  0  0  0  0  0999 V2000
   46.2470   35.1700   42.1810 C   0  0  0  0  0  0  0  0  0  0  0  0
   46.0390   34.6670   43.5450 C   0  0  0  0  0  0  0  0  0  0  0  0
   46.9330   33.6640   43.9600 C   0  0  0  0  0  0  0  0  0  0  0  0
   46.7830   33.1490   45.2460 C   0  0  0  0  0  0  0  0  0  0  0  0
   45.7920   33.6190   46.0590 N   0  0  0  0  0  0  0  0  0  0  0  0
   44.9570   34.5870   45.6070 C   0  0  0  0  0  0  0  0  0  0  0  0
   45.0680   35.1090   44.3750 N   0  0  0  0  0  0  0  0  0  0  0  0
   48.2180   33.0710   42.8770 S   0  0  0  0  0  0  0  0  0  0  0  0
   45.6240   34.2880   41.1190 C   0  0  0  0  0  0  0  0  0  0  0  0
   44.1580   34.3630   41.1600 C   0  0  0  0  0  0  0  0  0  0  0  0
   43.4210   33.1860   41.2030 C   0  0  0  0  0  0  0  0  0  0  0  0
   42.0300   33.1880   41.2440 C   0  0  0  0  0  0  0  0  0  0  0  0
   41.3810   34.4160   41.2380 C   0  0  0  0  0  0  0  0  0  0  0  0
   42.0580   35.6180   41.1960 C   0  0  0  0  0  0  0  0  0  0  0  0
   43.4260   35.5240   41.1590 C   0  0  0  0  0  0  0  0  0  0  0  0
   45.8028   36.1736   42.1068 H   0  0  0  0  0  0  0  0  0  0  0  0
   47.3318   35.1842   41.9994 H   0  0  0  0  0  0  0  0  0  0  0  0
   47.4634   32.3634   45.6064 H   0  0  0  0  0  0  0  0  0  0  0  0
   44.1624   34.9569   46.2717 H   0  0  0  0  0  0  0  0  0  0  0  0
   49.2600   32.5901   43.6252 H   0  0  0  0  0  0  0  0  0  0  0  0
   45.9350   33.2467   41.2895 H   0  0  0  0  0  0  0  0  0  0  0  0
   45.9634   34.6374   40.1327 H   0  0  0  0  0  0  0  0  0  0  0  0
   43.9532   32.2233   41.2047 H   0  0  0  0  0  0  0  0  0  0  0  0
   41.4622   32.2465   41.2800 H   0  0  0  0  0  0  0  0  0  0  0  0
   40.2815   34.4312   41.2680 H   0  0  0  0  0  0  0  0  0  0  0  0
   41.5358   36.5861   41.1924 H   0  0  0  0  0  0  0  0  0  0  0  0
   43.9895   36.4681   41.1254 H   0  0  0  0  0  0  0  0  0  0  0  0
  1  2  1  0
  2  3  2  0
  2  7  1  0
  3  4  1  0
  4  5  2  0
  6  5  1  0
  7  6  2  0
  8  3  1  0
  9 10  1  0
  9  1  1  0
 10 11  2  0
 11 12  1  0
 13 12  2  0
 14 13  1  0
 15 10  1  0
 15 14  2  0
  1 16  1  0
  1 17  1  0
  4 18  1  0
  6 19  1  0
  8 20  1  0
  9 21  1  0
  9 22  1  0
 11 23  1  0
 12 24  1  0
 13 25  1  0
 14 26  1  0
 15 27  1  0
M  ISO  8  16   8  17   8  18  14  19  14  20  11  21   8  22   8  23  14
M  ISO  4  24  14  25  14  26  14  27  14
M  END
>  <minimizedAffinity>  (1) 
-4.21408749

>  <minimizedRMSD>  (1) 
2.90765738

$$$$
