
     RDKit          3D

 32 34  0  0  0  0  0  0  0  0999 V2000
   45.0910   33.7190   43.0840 C   0  0  0  0  0  0  0  0  0  0  0  0
   45.5400   33.5160   44.3680 C   0  0  0  0  0  0  0  0  0  0  0  0
   45.2850   34.4990   45.2810 C   0  0  0  0  0  0  0  0  0  0  0  0
   44.6020   35.6560   44.9380 C   0  0  0  0  0  0  0  0  0  0  0  0
   44.1640   35.8400   43.6610 C   0  0  0  0  0  0  0  0  0  0  0  0
   44.4010   34.8660   42.6950 C   0  0  0  0  0  0  0  0  0  0  0  0
   46.5930   30.2710   45.9570 C   0  0  0  0  0  0  0  0  0  0  0  0
   45.8790   31.4620   45.7080 C   0  0  0  0  0  0  0  0  0  0  0  0
   46.2460   32.2850   44.6580 C   0  0  0  0  0  0  0  0  0  0  0  0
   47.3110   31.8720   43.9180 N   0  0  0  0  0  0  0  0  0  0  0  0
   47.9930   30.7380   44.1550 C   0  0  0  0  0  0  0  0  0  0  0  0
   47.6330   29.9380   45.1760 N   0  0  0  0  0  0  0  0  0  0  0  0
   45.3250   32.7520   42.1230 O   0  0  0  0  0  0  0  0  0  0  0  0
   43.9790   35.0100   41.4010 O   0  0  0  0  0  0  0  0  0  0  0  0
   42.7110   35.1550   40.9420 C   0  0  0  0  0  0  0  0  0  0  0  0
   41.5040   35.3590   41.5840 C   0  0  0  0  0  0  0  0  0  0  0  0
   40.3340   35.4750   40.9040 C   0  0  0  0  0  0  0  0  0  0  0  0
   40.2920   35.3970   39.5230 C   0  0  0  0  0  0  0  0  0  0  0  0
   41.4720   35.1950   38.8320 C   0  0  0  0  0  0  0  0  0  0  0  0
   42.6710   35.0750   39.5410 C   0  0  0  0  0  0  0  0  0  0  0  0
   45.6310   34.3694   46.3171 H   0  0  0  0  0  0  0  0  0  0  0  0
   44.4133   36.4275   45.6990 H   0  0  0  0  0  0  0  0  0  0  0  0
   43.6225   36.7592   43.3930 H   0  0  0  0  0  0  0  0  0  0  0  0
   46.2980   29.6160   46.7900 H   0  0  0  0  0  0  0  0  0  0  0  0
   45.0290   31.7369   46.3498 H   0  0  0  0  0  0  0  0  0  0  0  0
   48.8447   30.4640   43.5150 H   0  0  0  0  0  0  0  0  0  0  0  0
   45.0060   32.8882   41.1957 H   0  0  0  0  0  0  0  0  0  0  0  0
   41.4906   35.4297   42.6816 H   0  0  0  0  0  0  0  0  0  0  0  0
   39.4000   35.6343   41.4629 H   0  0  0  0  0  0  0  0  0  0  0  0
   39.3374   35.4939   38.9852 H   0  0  0  0  0  0  0  0  0  0  0  0
   41.4677   35.1292   37.7340 H   0  0  0  0  0  0  0  0  0  0  0  0
   43.6073   34.9137   38.9867 H   0  0  0  0  0  0  0  0  0  0  0  0
  1  2  2  0
  2  9  1  0
  2  3  1  0
  4  3  2  0
  5  4  1  0
  6  1  1  0
  6  5  2  0
  8  7  2  0
  9  8  1  0
 10 11  1  0
 10  9  2  0
 11 12  2  0
 12  7  1  0
 13  1  1  0
 14  6  1  0
 15 14  1  0
 15 16  2  0
 17 16  1  0
 18 17  2  0
 19 18  1  0
 19 20  2  0
 20 15  1  0
  3 21  1  0
  4 22  1  0
  5 23  1  0
  7 24  1  0
  8 25  1  0
 11 26  1  0
 13 27  1  0
 16 28  1  0
 17 29  1  0
 18 30  1  0
 19 31  1  0
 20 32  1  0
M  ISO  8  21  14  22  14  23  14  24  14  25  14  26  14  27   3  28  14
M  ISO  4  29  14  30  14  31  14  32  14
M  END
>  <minimizedAffinity>  (1) 
-5.2537775

>  <minimizedRMSD>  (1) 
4.32143879

$$$$
