
     RDKit          3D

 37 40  0  0  0  0  0  0  0  0999 V2000
   46.3290   33.0230   45.1510 F   0  0  0  0  0  0  0  0  0  0  0  0
   45.9170   31.8230   44.7210 C   0  0  0  0  0  0  0  0  0  0  0  0
   45.2520   31.7300   43.5260 C   0  0  0  0  0  0  0  0  0  0  0  0
   44.8190   30.4850   43.0690 C   0  0  0  0  0  0  0  0  0  0  0  0
   45.0300   29.3300   43.7680 C   0  0  0  0  0  0  0  0  0  0  0  0
   45.7000   29.4520   44.9630 C   0  0  0  0  0  0  0  0  0  0  0  0
   46.1440   30.6640   45.4510 C   0  0  0  0  0  0  0  0  0  0  0  0
   46.8490   30.7180   46.7290 C   0  0  0  0  0  0  0  0  0  0  0  0
   48.1440   30.2840   46.9210 C   0  0  0  0  0  0  0  0  0  0  0  0
   48.6970   30.3930   48.1870 C   0  0  0  0  0  0  0  0  0  0  0  0
   47.9260   30.9330   49.2160 C   0  0  0  0  0  0  0  0  0  0  0  0
   46.6310   31.3650   49.0190 C   0  0  0  0  0  0  0  0  0  0  0  0
   46.0780   31.2590   47.7620 C   0  0  0  0  0  0  0  0  0  0  0  0
   43.6970   34.1510   41.4980 C   0  0  0  0  0  0  0  0  0  0  0  0
   45.0220   34.5740   41.4380 C   0  0  0  0  0  0  0  0  0  0  0  0
   45.7920   33.7370   42.1810 C   0  0  0  0  0  0  0  0  0  0  0  0
   44.9570   32.8100   42.6950 N   0  0  0  0  0  0  0  0  0  0  0  0
   43.6990   33.0630   42.2800 N   0  0  0  0  0  0  0  0  0  0  0  0
   40.5910   35.9950   40.9440 C   0  0  0  0  0  0  0  0  0  0  0  0
   40.4710   35.9910   39.5500 C   0  0  0  0  0  0  0  0  0  0  0  0
   41.4710   35.3460   38.7960 C   0  0  0  0  0  0  0  0  0  0  0  0
   42.4720   34.7810   39.5120 N   0  0  0  0  0  0  0  0  0  0  0  0
   42.5820   34.7880   40.8340 C   0  0  0  0  0  0  0  0  0  0  0  0
   41.6290   35.4030   41.5680 N   0  0  0  0  0  0  0  0  0  0  0  0
   44.2867   30.4310   42.1079 H   0  0  0  0  0  0  0  0  0  0  0  0
   44.6827   28.3551   43.3951 H   0  0  0  0  0  0  0  0  0  0  0  0
   45.8900   28.5446   45.5550 H   0  0  0  0  0  0  0  0  0  0  0  0
   48.7247   29.8609   46.0881 H   0  0  0  0  0  0  0  0  0  0  0  0
   49.7276   30.0589   48.3772 H   0  0  0  0  0  0  0  0  0  0  0  0
   48.3663   31.0174   50.2205 H   0  0  0  0  0  0  0  0  0  0  0  0
   46.0496   31.7871   49.8519 H   0  0  0  0  0  0  0  0  0  0  0  0
   45.0473   31.5943   47.5742 H   0  0  0  0  0  0  0  0  0  0  0  0
   45.3874   35.4473   40.8779 H   0  0  0  0  0  0  0  0  0  0  0  0
   46.8795   33.8020   42.3333 H   0  0  0  0  0  0  0  0  0  0  0  0
   39.8180   36.4943   41.5466 H   0  0  0  0  0  0  0  0  0  0  0  0
   39.6180   36.4788   39.0557 H   0  0  0  0  0  0  0  0  0  0  0  0
   41.4407   35.3040   37.6972 H   0  0  0  0  0  0  0  0  0  0  0  0
  2  1  1  0
  2  7  2  0
  3  2  1  0
  4  3  2  0
  4  5  1  0
  5  6  2  0
  6  7  1  0
  7  8  1  0
  8  9  2  0
  8 13  1  0
  9 10  1  0
 10 11  2  0
 12 11  1  0
 13 12  2  0
 14 18  2  0
 15 14  1  0
 15 16  2  0
 16 17  1  0
 17  3  1  0
 18 17  1  0
 19 24  2  0
 20 19  1  0
 21 22  1  0
 21 20  2  0
 22 23  2  0
 23 14  1  0
 23 24  1  0
  4 25  1  0
  5 26  1  0
  6 27  1  0
  9 28  1  0
 10 29  1  0
 11 30  1  0
 12 31  1  0
 13 32  1  0
 15 33  1  0
 16 34  1  0
 19 35  1  0
 20 36  1  0
 21 37  1  0
M  ISO  8  25  14  26  14  27  14  28  14  29  14  30  14  31  14  32  14
M  ISO  5  33  14  34  14  35  14  36  14  37  14
M  END
>  <minimizedAffinity>  (1) 
-5.19944906

>  <minimizedRMSD>  (1) 
8.40926933

$$$$
