
     RDKit          3D

 30 32  0  0  0  0  0  0  0  0999 V2000
   44.4600   35.8140   44.9260 C   0  0  0  0  0  0  0  0  0  0  0  0
   45.1260   35.7310   43.6950 C   0  0  0  0  0  0  0  0  0  0  0  0
   46.0590   34.7480   43.4220 C   0  0  0  0  0  0  0  0  0  0  0  0
   46.2990   33.8600   44.4220 N   0  0  0  0  0  0  0  0  0  0  0  0
   45.6590   33.9440   45.6010 C   0  0  0  0  0  0  0  0  0  0  0  0
   44.7640   34.8950   45.8430 N   0  0  0  0  0  0  0  0  0  0  0  0
   44.6210   33.1100   41.4630 Cl  0  0  0  0  0  0  0  0  0  0  0  0
   46.1460   33.9090   41.1430 C   0  0  0  0  0  0  0  0  0  0  0  0
   46.7510   34.6650   42.1380 C   0  0  0  0  0  0  0  0  0  0  0  0
   47.9480   35.2730   41.8410 C   0  0  0  0  0  0  0  0  0  0  0  0
   48.5380   35.1440   40.5990 C   0  0  0  0  0  0  0  0  0  0  0  0
   47.8810   34.3710   39.6390 C   0  0  0  0  0  0  0  0  0  0  0  0
   48.6150   34.1930   38.0540 Cl  0  0  0  0  0  0  0  0  0  0  0  0
   46.6860   33.7430   39.8840 C   0  0  0  0  0  0  0  0  0  0  0  0
   45.9720   32.9380   46.6410 C   0  0  0  0  0  0  0  0  0  0  0  0
   47.0670   32.1140   46.4720 C   0  0  0  0  0  0  0  0  0  0  0  0
   47.3140   31.1950   47.4720 C   0  0  0  0  0  0  0  0  0  0  0  0
   46.5480   31.0510   48.6100 C   0  0  0  0  0  0  0  0  0  0  0  0
   45.4520   31.9160   48.7230 C   0  0  0  0  0  0  0  0  0  0  0  0
   45.1330   32.8740   47.7570 C   0  0  0  0  0  0  0  0  0  0  0  0
   43.7195   36.6024   45.1264 H   0  0  0  0  0  0  0  0  0  0  0  0
   44.8978   36.4753   42.9179 H   0  0  0  0  0  0  0  0  0  0  0  0
   48.4482   35.8773   42.6121 H   0  0  0  0  0  0  0  0  0  0  0  0
   49.4960   35.6350   40.3728 H   0  0  0  0  0  0  0  0  0  0  0  0
   46.1835   33.1375   39.1153 H   0  0  0  0  0  0  0  0  0  0  0  0
   47.7114   32.1864   45.5834 H   0  0  0  0  0  0  0  0  0  0  0  0
   48.1828   30.5309   47.3529 H   0  0  0  0  0  0  0  0  0  0  0  0
   46.7833   30.3029   49.3814 H   0  0  0  0  0  0  0  0  0  0  0  0
   44.8122   31.8374   49.6143 H   0  0  0  0  0  0  0  0  0  0  0  0
   44.2669   33.5428   47.8690 H   0  0  0  0  0  0  0  0  0  0  0  0
  1  6  2  0
  2  1  1  0
  3  2  2  0
  3  4  1  0
  4  5  2  0
  5  6  1  0
  5 15  1  0
  8  7  1  0
  8  9  2  0
  9  3  1  0
 10  9  1  0
 11 10  2  0
 12 14  2  0
 12 11  1  0
 13 12  1  0
 14  8  1  0
 15 20  1  0
 16 15  2  0
 16 17  1  0
 17 18  2  0
 18 19  1  0
 20 19  2  0
  1 21  1  0
  2 22  1  0
 10 23  1  0
 11 24  1  0
 14 25  1  0
 16 26  1  0
 17 27  1  0
 18 28  1  0
 19 29  1  0
 20 30  1  0
M  ISO  8  21  14  22  14  23  14  24  14  25  14  26  14  27  14  28  14
M  ISO  2  29  14  30  14
M  END
>  <minimizedAffinity>  (1) 
-6.81897831

>  <minimizedRMSD>  (1) 
0.472654969

$$$$
