
     RDKit          3D

 29 31  0  0  1  0  0  0  0  0999 V2000
   46.5190   35.0310   41.9610 C   0  0  1  0  0  0  0  0  0  0  0  0
   48.0430   35.3120   41.9220 C   0  0  0  0  0  0  0  0  0  0  0  0
   47.3360   34.0450   41.3510 C   0  0  2  0  0  0  0  0  0  0  0  0
   47.3290   33.9200   39.8560 C   0  0  0  0  0  0  0  0  0  0  0  0
   48.3440   34.5080   39.1270 C   0  0  0  0  0  0  0  0  0  0  0  0
   48.3460   34.3970   37.7320 C   0  0  0  0  0  0  0  0  0  0  0  0
   47.2930   33.6810   37.1900 C   0  0  0  0  0  0  0  0  0  0  0  0
   46.2600   33.0770   37.8880 C   0  0  0  0  0  0  0  0  0  0  0  0
   46.2940   33.2120   39.2790 C   0  0  0  0  0  0  0  0  0  0  0  0
   44.6650   35.3740   45.2030 C   0  0  0  0  0  0  0  0  0  0  0  0
   45.1150   35.6910   43.8720 C   0  0  0  0  0  0  0  0  0  0  0  0
   46.0560   34.8270   43.3770 C   0  0  0  0  0  0  0  0  0  0  0  0
   46.5250   33.7530   44.1050 N   0  0  0  0  0  0  0  0  0  0  0  0
   46.0710   33.5010   45.3460 C   0  0  0  0  0  0  0  0  0  0  0  0
   45.1350   34.3190   45.8950 N   0  0  0  0  0  0  0  0  0  0  0  0
   44.6400   36.8130   43.1510 N   0  0  0  0  0  0  0  0  0  0  0  0
   45.5961   35.5101   41.6022 H   0  0  0  0  0  0  0  0  0  0  0  0
   48.4595   36.0775   41.2509 H   0  0  0  0  0  0  0  0  0  0  0  0
   48.8436   35.5375   42.6419 H   0  0  0  0  0  0  0  0  0  0  0  0
   47.4329   32.9599   41.5035 H   0  0  0  0  0  0  0  0  0  0  0  0
   49.1456   35.0600   39.6396 H   0  0  0  0  0  0  0  0  0  0  0  0
   49.1316   34.8484   37.1083 H   0  0  0  0  0  0  0  0  0  0  0  0
   47.2744   33.5815   36.0947 H   0  0  0  0  0  0  0  0  0  0  0  0
   45.4589   32.5229   37.3770 H   0  0  0  0  0  0  0  0  0  0  0  0
   45.5087   32.7613   39.9036 H   0  0  0  0  0  0  0  0  0  0  0  0
   43.9077   36.0191   45.6725 H   0  0  0  0  0  0  0  0  0  0  0  0
   46.4545   32.6393   45.9121 H   0  0  0  0  0  0  0  0  0  0  0  0
   44.9905   37.0006   42.2008 H   0  0  0  0  0  0  0  0  0  0  0  0
   43.9439   37.4417   43.5766 H   0  0  0  0  0  0  0  0  0  0  0  0
  1 12  1  0
  2  1  1  0
  3  2  1  0
  3  1  1  0
  4  3  1  0
  5  4  2  0
  6  5  1  0
  7  6  2  0
  7  8  1  0
  8  9  2  0
  9  4  1  0
 10 15  2  0
 11 10  1  0
 12 11  2  0
 12 13  1  0
 13 14  2  0
 14 15  1  0
 16 11  1  0
  1 17  1  6
  2 18  1  0
  2 19  1  0
  3 20  1  1
  5 21  1  0
  6 22  1  0
  7 23  1  0
  8 24  1  0
  9 25  1  0
 10 26  1  0
 14 27  1  0
 16 28  1  0
 16 29  1  0
M  ISO  8  17  13  18  13  19  13  20  13  21  14  22  14  23  14  24  14
M  ISO  3  25  14  26  14  27  14
M  END
>  <minimizedAffinity>  (1) 
-5.5062542

>  <minimizedRMSD>  (1) 
0.497308284

$$$$
