
     RDKit          3D

 31 33  0  0  0  0  0  0  0  0999 V2000
   44.0580   34.3450   41.2280 C   0  0  0  0  0  0  0  0  0  0  0  0
   44.8090   33.7880   40.1850 C   0  0  0  0  0  0  0  0  0  0  0  0
   45.8380   32.8920   40.5040 C   0  0  0  0  0  0  0  0  0  0  0  0
   46.0530   32.6120   41.8210 N   0  0  0  0  0  0  0  0  0  0  0  0
   45.3090   33.1690   42.7930 C   0  0  0  0  0  0  0  0  0  0  0  0
   44.3110   34.0340   42.5260 N   0  0  0  0  0  0  0  0  0  0  0  0
   45.6270   32.7960   44.1660 C   0  0  0  0  0  0  0  0  0  0  0  0
   45.9910   31.5220   44.5470 C   0  0  0  0  0  0  0  0  0  0  0  0
   46.2940   31.1650   45.8440 C   0  0  0  0  0  0  0  0  0  0  0  0
   46.2280   32.1400   46.8200 C   0  0  0  0  0  0  0  0  0  0  0  0
   45.8640   33.4400   46.4710 C   0  0  0  0  0  0  0  0  0  0  0  0
   45.5630   33.7730   45.1460 C   0  0  0  0  0  0  0  0  0  0  0  0
   42.7700   35.4750   40.7130 S   0  0  0  0  0  0  0  0  0  0  0  0
   41.2260   35.5700   37.9150 Cl  0  0  0  0  0  0  0  0  0  0  0  0
   40.5020   34.6630   39.2470 C   0  0  0  0  0  0  0  0  0  0  0  0
   41.2230   34.6730   40.4010 C   0  0  0  0  0  0  0  0  0  0  0  0
   40.7140   33.9790   41.4900 C   0  0  0  0  0  0  0  0  0  0  0  0
   39.4920   33.3030   41.3610 C   0  0  0  0  0  0  0  0  0  0  0  0
   38.7660   33.2970   40.1880 C   0  0  0  0  0  0  0  0  0  0  0  0
   39.3020   34.0050   39.1040 C   0  0  0  0  0  0  0  0  0  0  0  0
   38.4720   34.0710   37.5610 Cl  0  0  0  0  0  0  0  0  0  0  0  0
   44.5955   34.0484   39.1378 H   0  0  0  0  0  0  0  0  0  0  0  0
   46.4524   32.4295   39.7175 H   0  0  0  0  0  0  0  0  0  0  0  0
   46.0428   30.7445   43.7706 H   0  0  0  0  0  0  0  0  0  0  0  0
   46.5802   30.1328   46.0943 H   0  0  0  0  0  0  0  0  0  0  0  0
   46.4611   31.8925   47.8661 H   0  0  0  0  0  0  0  0  0  0  0  0
   45.8127   34.2155   47.2494 H   0  0  0  0  0  0  0  0  0  0  0  0
   45.2777   34.8026   44.8844 H   0  0  0  0  0  0  0  0  0  0  0  0
   41.2627   33.9595   42.4432 H   0  0  0  0  0  0  0  0  0  0  0  0
   39.0968   32.7559   42.2296 H   0  0  0  0  0  0  0  0  0  0  0  0
   37.8091   32.7604   40.1072 H   0  0  0  0  0  0  0  0  0  0  0  0
  1  6  2  0
  2  3  2  0
  2  1  1  0
  3  4  1  0
  4  5  2  0
  5  7  1  0
  6  5  1  0
  7  8  2  0
  7 12  1  0
  8  9  1  0
  9 10  2  0
 11 10  1  0
 12 11  2  0
 13  1  1  0
 14 15  1  0
 15 16  2  0
 16 13  1  0
 16 17  1  0
 18 17  2  0
 19 18  1  0
 20 15  1  0
 20 19  2  0
 21 20  1  0
  2 22  1  0
  3 23  1  0
  8 24  1  0
  9 25  1  0
 10 26  1  0
 11 27  1  0
 12 28  1  0
 17 29  1  0
 18 30  1  0
 19 31  1  0
M  ISO  8  22  14  23  14  24  14  25  14  26  14  27  14  28  14  29  14
M  ISO  2  30  14  31  14
M  END
>  <minimizedAffinity>  (1) 
-5.30403996

>  <minimizedRMSD>  (1) 
4.08217049

$$$$
