
     RDKit          3D

 23 24  0  0  0  0  0  0  0  0999 V2000
   47.6180   34.9810   42.3100 C   0  0  0  0  0  0  0  0  0  0  0  0
   47.8350   33.9800   43.2760 C   0  0  0  0  0  0  0  0  0  0  0  0
   46.7940   33.6360   44.1380 C   0  0  0  0  0  0  0  0  0  0  0  0
   45.6250   34.2900   43.9980 N   0  0  0  0  0  0  0  0  0  0  0  0
   45.4240   35.2570   43.0620 C   0  0  0  0  0  0  0  0  0  0  0  0
   46.4200   35.5950   42.2250 N   0  0  0  0  0  0  0  0  0  0  0  0
   46.9040   32.6220   45.1690 C   0  0  0  0  0  0  0  0  0  0  0  0
   46.5740   32.9940   46.4540 C   0  0  0  0  0  0  0  0  0  0  0  0
   46.6460   32.0920   47.5190 C   0  0  0  0  0  0  0  0  0  0  0  0
   47.0610   30.8060   47.2480 C   0  0  0  0  0  0  0  0  0  0  0  0
   47.3990   30.4020   45.9720 C   0  0  0  0  0  0  0  0  0  0  0  0
   47.3160   31.3290   44.9280 C   0  0  0  0  0  0  0  0  0  0  0  0
   48.7690   35.2980   41.4210 C   0  0  0  0  0  0  0  0  0  0  0  0
   48.4170   35.2290   40.0950 F   0  0  0  0  0  0  0  0  0  0  0  0
   49.2130   36.5820   41.7490 F   0  0  0  0  0  0  0  0  0  0  0  0
   49.8390   34.4480   41.7010 F   0  0  0  0  0  0  0  0  0  0  0  0
   48.8105   33.4770   43.3497 H   0  0  0  0  0  0  0  0  0  0  0  0
   44.4488   35.7609   42.9905 H   0  0  0  0  0  0  0  0  0  0  0  0
   46.2459   34.0262   46.6463 H   0  0  0  0  0  0  0  0  0  0  0  0
   46.3799   32.3987   48.5413 H   0  0  0  0  0  0  0  0  0  0  0  0
   47.1247   30.0805   48.0724 H   0  0  0  0  0  0  0  0  0  0  0  0
   47.7276   29.3700   45.7798 H   0  0  0  0  0  0  0  0  0  0  0  0
   47.5819   31.0234   43.9053 H   0  0  0  0  0  0  0  0  0  0  0  0
  1  2  2  0
  2  3  1  0
  3  7  1  0
  4  3  2  0
  5  4  1  0
  6  1  1  0
  6  5  2  0
  7  8  2  0
  8  9  1  0
 10  9  2  0
 11 10  1  0
 12  7  1  0
 12 11  2  0
 13 16  1  0
 13 15  1  0
 13  1  1  0
 14 13  1  0
  2 17  1  0
  5 18  1  0
  8 19  1  0
  9 20  1  0
 10 21  1  0
 11 22  1  0
 12 23  1  0
M  ISO  7  17  14  18  14  19  14  20  14  21  14  22  14  23  14
M  END
>  <minimizedAffinity>  (1) 
-5.1828227

>  <minimizedRMSD>  (1) 
0.579060376

$$$$
