
     RDKit          3D

 23 24  0  0  0  0  0  0  0  0999 V2000
   45.3760   35.9720   43.2030 C   0  0  0  0  0  0  0  0  0  0  0  0
   46.2230   34.8230   43.1750 C   0  0  0  0  0  0  0  0  0  0  0  0
   46.1650   34.0050   44.3010 C   0  0  0  0  0  0  0  0  0  0  0  0
   45.3240   34.3480   45.3190 N   0  0  0  0  0  0  0  0  0  0  0  0
   44.5450   35.4470   45.2930 C   0  0  0  0  0  0  0  0  0  0  0  0
   44.5780   36.2510   44.2310 N   0  0  0  0  0  0  0  0  0  0  0  0
   46.9930   34.7760   41.9560 C   0  0  0  0  0  0  0  0  0  0  0  0
   46.3780   33.9820   40.9750 C   0  0  0  0  0  0  0  0  0  0  0  0
   46.8750   33.7680   39.7040 C   0  0  0  0  0  0  0  0  0  0  0  0
   48.0640   34.3840   39.3830 C   0  0  0  0  0  0  0  0  0  0  0  0
   48.7190   35.1740   40.2920 C   0  0  0  0  0  0  0  0  0  0  0  0
   48.1670   35.3440   41.5390 C   0  0  0  0  0  0  0  0  0  0  0  0
   47.0420   32.8420   44.2420 C   0  0  0  0  0  0  0  0  0  0  0  0
   47.1890   32.3380   45.5460 F   0  0  0  0  0  0  0  0  0  0  0  0
   48.2980   33.2980   43.9180 F   0  0  0  0  0  0  0  0  0  0  0  0
   46.5840   31.8240   43.4800 F   0  0  0  0  0  0  0  0  0  0  0  0
   45.3832   36.6542   42.3401 H   0  0  0  0  0  0  0  0  0  0  0  0
   43.8862   35.6789   46.1428 H   0  0  0  0  0  0  0  0  0  0  0  0
   45.4284   33.4933   41.2384 H   0  0  0  0  0  0  0  0  0  0  0  0
   46.3439   33.1330   38.9796 H   0  0  0  0  0  0  0  0  0  0  0  0
   48.4951   34.2399   38.3813 H   0  0  0  0  0  0  0  0  0  0  0  0
   49.6686   35.6626   40.0282 H   0  0  0  0  0  0  0  0  0  0  0  0
   48.7072   35.9824   42.2536 H   0  0  0  0  0  0  0  0  0  0  0  0
  1  6  2  0
  2  1  1  0
  2  3  2  0
  3  4  1  0
  5  4  2  0
  6  5  1  0
  7  2  1  0
  8  7  2  0
  9  8  1  0
 10  9  2  0
 10 11  1  0
 11 12  2  0
 12  7  1  0
 13  3  1  0
 13 14  1  0
 15 13  1  0
 16 13  1  0
  1 17  1  0
  5 18  1  0
  8 19  1  0
  9 20  1  0
 10 21  1  0
 11 22  1  0
 12 23  1  0
M  ISO  7  17  14  18  14  19  14  20  14  21  14  22  14  23  14
M  END
>  <minimizedAffinity>  (1) 
-5.32362604

>  <minimizedRMSD>  (1) 
3.42472553

$$$$
