
     RDKit          3D

 23 24  0  0  0  0  0  0  0  0999 V2000
   44.5200   35.7950   44.7310 C   0  0  0  0  0  0  0  0  0  0  0  0
   45.1890   35.7410   43.4780 C   0  0  0  0  0  0  0  0  0  0  0  0
   46.1300   34.7250   43.3160 C   0  0  0  0  0  0  0  0  0  0  0  0
   46.3650   33.8470   44.3400 N   0  0  0  0  0  0  0  0  0  0  0  0
   45.6930   33.9520   45.5150 C   0  0  0  0  0  0  0  0  0  0  0  0
   44.7830   34.9110   45.7120 N   0  0  0  0  0  0  0  0  0  0  0  0
   45.9830   32.9910   46.5720 C   0  0  0  0  0  0  0  0  0  0  0  0
   45.1780   32.9240   47.6880 C   0  0  0  0  0  0  0  0  0  0  0  0
   45.4250   32.0210   48.7130 C   0  0  0  0  0  0  0  0  0  0  0  0
   46.5100   31.1650   48.6100 C   0  0  0  0  0  0  0  0  0  0  0  0
   47.2730   31.2710   47.4920 C   0  0  0  0  0  0  0  0  0  0  0  0
   47.0860   32.1460   46.4310 C   0  0  0  0  0  0  0  0  0  0  0  0
   46.7980   34.7020   42.0080 C   0  0  0  0  0  0  0  0  0  0  0  0
   47.5680   33.5460   41.9160 F   0  0  0  0  0  0  0  0  0  0  0  0
   47.6900   35.7480   41.9880 F   0  0  0  0  0  0  0  0  0  0  0  0
   45.9270   34.7090   40.9570 F   0  0  0  0  0  0  0  0  0  0  0  0
   43.7681   36.5791   44.9037 H   0  0  0  0  0  0  0  0  0  0  0  0
   44.9752   36.4639   42.6770 H   0  0  0  0  0  0  0  0  0  0  0  0
   44.3170   33.6038   47.7690 H   0  0  0  0  0  0  0  0  0  0  0  0
   44.7685   31.9854   49.5949 H   0  0  0  0  0  0  0  0  0  0  0  0
   46.7423   30.4333   49.3978 H   0  0  0  0  0  0  0  0  0  0  0  0
   48.1331   30.5891   47.4192 H   0  0  0  0  0  0  0  0  0  0  0  0
   47.7497   32.1717   45.5542 H   0  0  0  0  0  0  0  0  0  0  0  0
  1  6  2  0
  2  1  1  0
  3  2  2  0
  3  4  1  0
  4  5  2  0
  5  6  1  0
  5  7  1  0
  7  8  2  0
  8  9  1  0
 10  9  2  0
 11 10  1  0
 12  7  1  0
 12 11  2  0
 13  3  1  0
 14 13  1  0
 15 13  1  0
 16 13  1  0
  1 17  1  0
  2 18  1  0
  8 19  1  0
  9 20  1  0
 10 21  1  0
 11 22  1  0
 12 23  1  0
M  ISO  7  17  14  18  14  19  14  20  14  21  14  22  14  23  14
M  END
>  <minimizedAffinity>  (1) 
-5.56975412

>  <minimizedRMSD>  (1) 
0.665860772

$$$$
