
     RDKit          3D

 45 48  0  0  1  0  0  0  0  0999 V2000
   43.2110   34.3380   40.6120 C   0  0  0  0  0  0  0  0  0  0  0  0
   43.1860   35.4960   40.0670 O   0  0  0  0  0  0  0  0  0  0  0  0
   41.8280   33.9460   40.4270 N   0  0  0  0  0  0  0  0  0  0  0  0
   41.3980   33.8750   39.0450 C   0  0  0  0  0  0  0  0  0  0  0  0
   40.6350   35.1930   38.8030 C   0  0  0  0  0  0  0  0  0  0  0  0
   39.9090   35.5180   40.1190 C   0  0  0  0  0  0  0  0  0  0  0  0
   39.5420   34.2500   40.8600 C   0  0  0  0  0  0  0  0  0  0  0  0
   40.8170   33.6180   41.4120 C   0  0  1  0  0  0  0  0  0  0  0  0
   40.6670   32.1880   41.6860 C   0  0  0  0  0  0  0  0  0  0  0  0
   39.4160   31.6520   41.4310 C   0  0  0  0  0  0  0  0  0  0  0  0
   39.1160   30.3270   41.6350 C   0  0  0  0  0  0  0  0  0  0  0  0
   40.0870   29.4720   42.1160 C   0  0  0  0  0  0  0  0  0  0  0  0
   41.3600   29.9750   42.3850 C   0  0  0  0  0  0  0  0  0  0  0  0
   41.6140   31.3130   42.1650 C   0  0  0  0  0  0  0  0  0  0  0  0
   44.2860   33.7330   41.1780 O   0  0  0  0  0  0  0  0  0  0  0  0
   45.6140   34.0130   40.9760 C   0  0  0  0  0  0  0  0  0  0  0  0
   46.3020   34.6360   42.0290 C   0  0  0  0  0  0  0  0  0  0  0  0
   47.6620   34.9120   41.7990 C   0  0  0  0  0  0  0  0  0  0  0  0
   48.2140   34.5660   40.5970 N   0  0  0  0  0  0  0  0  0  0  0  0
   47.5040   33.9770   39.6430 C   0  0  0  0  0  0  0  0  0  0  0  0
   46.2050   33.6970   39.8250 N   0  0  0  0  0  0  0  0  0  0  0  0
   45.6200   34.9590   43.2600 C   0  0  0  0  0  0  0  0  0  0  0  0
   45.0140   36.1890   43.4920 C   0  0  0  0  0  0  0  0  0  0  0  0
   44.5000   36.0670   44.7560 C   0  0  0  0  0  0  0  0  0  0  0  0
   44.7710   34.8470   45.2620 N   0  0  0  0  0  0  0  0  0  0  0  0
   45.4420   34.2100   44.3410 N   0  0  0  0  0  0  0  0  0  0  0  0
   42.2652   33.8000   38.3725 H   0  0  0  0  0  0  0  0  0  0  0  0
   40.7734   32.9910   38.8489 H   0  0  0  0  0  0  0  0  0  0  0  0
   41.3384   35.9990   38.5467 H   0  0  0  0  0  0  0  0  0  0  0  0
   39.9257   35.0973   37.9677 H   0  0  0  0  0  0  0  0  0  0  0  0
   40.5690   36.1279   40.7534 H   0  0  0  0  0  0  0  0  0  0  0  0
   38.9858   36.0683   39.8848 H   0  0  0  0  0  0  0  0  0  0  0  0
   38.8594   34.4901   41.6885 H   0  0  0  0  0  0  0  0  0  0  0  0
   39.0420   33.5482   40.1762 H   0  0  0  0  0  0  0  0  0  0  0  0
   41.0954   34.0081   42.4021 H   0  0  0  0  0  0  0  0  0  0  0  0
   38.6275   32.3166   41.0481 H   0  0  0  0  0  0  0  0  0  0  0  0
   38.1064   29.9491   41.4160 H   0  0  0  0  0  0  0  0  0  0  0  0
   39.8602   28.4090   42.2848 H   0  0  0  0  0  0  0  0  0  0  0  0
   42.1511   29.3133   42.7676 H   0  0  0  0  0  0  0  0  0  0  0  0
   42.6211   31.6981   42.3829 H   0  0  0  0  0  0  0  0  0  0  0  0
   48.2720   35.3987   42.5743 H   0  0  0  0  0  0  0  0  0  0  0  0
   47.9873   33.7149   38.6902 H   0  0  0  0  0  0  0  0  0  0  0  0
   44.9600   37.0568   42.8182 H   0  0  0  0  0  0  0  0  0  0  0  0
   43.9435   36.8549   45.2847 H   0  0  0  0  0  0  0  0  0  0  0  0
   44.5023   34.4891   46.1897 H   0  0  0  0  0  0  0  0  0  0  0  0
  1 15  1  0
  2  1  2  0
  3  1  1  0
  3  8  1  0
  4  3  1  0
  5  4  1  0
  5  6  1  0
  6  7  1  0
  7  8  1  0
  8  9  1  0
  9 14  2  0
 10 11  2  0
 10  9  1  0
 11 12  1  0
 12 13  2  0
 14 13  1  0
 16 15  1  0
 16 17  1  0
 17 22  1  0
 18 17  2  0
 19 18  1  0
 20 21  1  0
 20 19  2  0
 21 16  2  0
 22 23  1  0
 22 26  2  0
 23 24  2  0
 24 25  1  0
 26 25  1  0
  4 27  1  0
  4 28  1  0
  5 29  1  0
  5 30  1  0
  6 31  1  0
  6 32  1  0
  7 33  1  0
  7 34  1  0
  8 35  1  1
 10 36  1  0
 11 37  1  0
 12 38  1  0
 13 39  1  0
 14 40  1  0
 18 41  1  0
 20 42  1  0
 23 43  1  0
 24 44  1  0
 25 45  1  0
M  ISO  8  27  13  28  13  29  13  30  13  31  13  32  13  33  13  34  13
M  ISO  8  35  13  36  14  37  14  38  14  39  14  40  14  41  14  42  14
M  ISO  3  43  14  44  14  45   9
M  END
>  <minimizedAffinity>  (1) 
-6.76811171

>  <minimizedRMSD>  (1) 
0.884733856

$$$$
