
     RDKit          3D

 34 36  0  0  1  0  0  0  0  0999 V2000
   45.1190   34.4640   42.3590 N   0  0  0  0  0  0  0  0  0  0  0  0
   46.0660   33.7040   41.6250 C   0  0  1  0  0  0  0  0  0  0  0  0
   45.8760   33.6830   40.1530 C   0  0  0  0  0  0  0  0  0  0  0  0
   44.5860   33.8440   39.6460 N   0  0  0  0  0  0  0  0  0  0  0  0
   43.6510   34.5590   40.3960 C   0  0  0  0  0  0  0  0  0  0  0  0
   44.2790   35.3040   41.5540 C   0  0  0  0  0  0  0  0  0  0  0  0
   44.5740   35.4230   44.4760 C   0  0  0  0  0  0  0  0  0  0  0  0
   45.0980   34.3340   43.7650 C   0  0  0  0  0  0  0  0  0  0  0  0
   45.5420   33.2530   44.5040 C   0  0  0  0  0  0  0  0  0  0  0  0
   45.4700   33.2530   45.8610 N   0  0  0  0  0  0  0  0  0  0  0  0
   44.9530   34.3340   46.5200 C   0  0  0  0  0  0  0  0  0  0  0  0
   44.5140   35.4000   45.8180 N   0  0  0  0  0  0  0  0  0  0  0  0
   47.4710   34.1240   41.8710 C   0  0  0  0  0  0  0  0  0  0  0  0
   48.4590   33.2870   42.4020 C   0  0  0  0  0  0  0  0  0  0  0  0
   49.7600   33.6810   42.6300 C   0  0  0  0  0  0  0  0  0  0  0  0
   50.1390   34.9710   42.3260 C   0  0  0  0  0  0  0  0  0  0  0  0
   49.2200   35.8400   41.8040 C   0  0  0  0  0  0  0  0  0  0  0  0
   47.9330   35.3950   41.5960 C   0  0  0  0  0  0  0  0  0  0  0  0
   45.8779   32.6923   42.0137 H   0  0  0  0  0  0  0  0  0  0  0  0
   46.4928   34.4919   39.7344 H   0  0  0  0  0  0  0  0  0  0  0  0
   46.1549   32.6601   39.8600 H   0  0  0  0  0  0  0  0  0  0  0  0
   44.6755   34.3228   38.7385 H   0  0  0  0  0  0  0  0  0  0  0  0
   43.1536   35.2864   39.7376 H   0  0  0  0  0  0  0  0  0  0  0  0
   42.9366   33.8349   40.8146 H   0  0  0  0  0  0  0  0  0  0  0  0
   44.8858   36.1298   41.1543 H   0  0  0  0  0  0  0  0  0  0  0  0
   43.4643   35.6728   42.1945 H   0  0  0  0  0  0  0  0  0  0  0  0
   44.2084   36.3049   43.9296 H   0  0  0  0  0  0  0  0  0  0  0  0
   45.9606   32.3783   43.9847 H   0  0  0  0  0  0  0  0  0  0  0  0
   44.8951   34.3348   47.6185 H   0  0  0  0  0  0  0  0  0  0  0  0
   48.1806   32.2527   42.6524 H   0  0  0  0  0  0  0  0  0  0  0  0
   50.4890   32.9727   43.0506 H   0  0  0  0  0  0  0  0  0  0  0  0
   51.1739   35.2998   42.5020 H   0  0  0  0  0  0  0  0  0  0  0  0
   49.5033   36.8734   41.5554 H   0  0  0  0  0  0  0  0  0  0  0  0
   47.2133   36.1128   41.1755 H   0  0  0  0  0  0  0  0  0  0  0  0
  1  8  1  0
  2 13  1  0
  2  1  1  0
  3  2  1  0
  4  3  1  0
  4  5  1  0
  5  6  1  0
  6  1  1  0
  7 12  2  0
  8  7  1  0
  8  9  2  0
  9 10  1  0
 10 11  2  0
 12 11  1  0
 13 14  2  0
 14 15  1  0
 16 15  2  0
 17 16  1  0
 18 17  2  0
 18 13  1  0
  2 19  1  1
  3 20  1  0
  3 21  1  0
  4 22  1  0
  5 23  1  0
  5 24  1  0
  6 25  1  0
  6 26  1  0
  7 27  1  0
  9 28  1  0
 11 29  1  0
 14 30  1  0
 15 31  1  0
 16 32  1  0
 17 33  1  0
 18 34  1  0
M  ISO  8  19  13  20  13  21  13  22   5  23  13  24  13  25  13  26  13
M  ISO  8  27  14  28  14  29  14  30  14  31  14  32  14  33  14  34  14
M  END
>  <minimizedAffinity>  (1) 
-5.38748741

>  <minimizedRMSD>  (1) 
1.96389019

$$$$
