
     RDKit          3D

 35 36  0  0  0  0  0  0  0  0999 V2000
   40.9600   32.8570   40.9000 C   0  0  0  0  0  0  0  0  0  0  0  0
   42.1850   33.3400   40.5000 C   0  0  0  0  0  0  0  0  0  0  0  0
   42.4710   33.5610   39.1570 C   0  0  0  0  0  0  0  0  0  0  0  0
   41.4790   33.2710   38.2800 N   0  0  0  0  0  0  0  0  0  0  0  0
   40.2990   32.8040   38.6820 C   0  0  0  0  0  0  0  0  0  0  0  0
   40.0210   32.5920   39.9710 N   0  0  0  0  0  0  0  0  0  0  0  0
   39.2580   32.5060   37.7020 C   0  0  0  0  0  0  0  0  0  0  0  0
   39.1660   31.2660   37.0790 C   0  0  0  0  0  0  0  0  0  0  0  0
   38.2200   30.9100   36.1500 C   0  0  0  0  0  0  0  0  0  0  0  0
   37.2860   31.8820   35.8180 C   0  0  0  0  0  0  0  0  0  0  0  0
   37.3340   33.1270   36.4050 C   0  0  0  0  0  0  0  0  0  0  0  0
   38.2970   33.4550   37.3360 C   0  0  0  0  0  0  0  0  0  0  0  0
   43.4590   33.7030   41.7400 S   0  0  0  0  0  0  0  0  0  0  0  0
   43.5350   35.4730   42.0240 C   0  0  0  0  0  0  0  0  0  0  0  0
   43.2930   35.6760   43.4510 N   0  0  0  0  0  0  0  0  0  0  0  0
   44.7490   35.8550   44.3410 S   0  0  0  0  0  0  0  0  0  0  0  0
   45.9420   35.3740   43.5760 O   0  0  0  0  0  0  0  0  0  0  0  0
   44.8710   37.3420   44.6240 O   0  0  0  0  0  0  0  0  0  0  0  0
   44.6270   35.1020   45.8100 O   0  0  0  0  0  0  0  0  0  0  0  0
   45.4030   33.9570   45.9010 C   0  0  0  0  0  0  0  0  0  0  0  0
   40.7498   32.6891   41.9666 H   0  0  0  0  0  0  0  0  0  0  0  0
   43.4457   33.9486   38.8257 H   0  0  0  0  0  0  0  0  0  0  0  0
   39.9136   30.5072   37.3535 H   0  0  0  0  0  0  0  0  0  0  0  0
   38.2030   29.9093   35.6936 H   0  0  0  0  0  0  0  0  0  0  0  0
   36.5017   31.6561   35.0806 H   0  0  0  0  0  0  0  0  0  0  0  0
   36.5836   33.8804   36.1235 H   0  0  0  0  0  0  0  0  0  0  0  0
   38.3096   34.4575   37.7886 H   0  0  0  0  0  0  0  0  0  0  0  0
   44.5272   35.8597   41.7482 H   0  0  0  0  0  0  0  0  0  0  0  0
   42.7898   36.0056   41.4148 H   0  0  0  0  0  0  0  0  0  0  0  0
   42.7241   36.5260   43.5726 H   0  0  0  0  0  0  0  0  0  0  0  0
   46.6475   35.0895   44.2096 H   0  0  0  0  0  0  0  0  0  0  0  0
   44.8833   37.4918   45.6025 H   0  0  0  0  0  0  0  0  0  0  0  0
   45.5701   33.7105   46.9599 H   0  0  0  0  0  0  0  0  0  0  0  0
   44.8839   33.1221   45.4076 H   0  0  0  0  0  0  0  0  0  0  0  0
   46.3708   34.1298   45.4076 H   0  0  0  0  0  0  0  0  0  0  0  0
  2  1  2  0
  2 13  1  0
  3  2  1  0
  4  5  1  0
  4  3  2  0
  5  6  2  0
  6  1  1  0
  7  5  1  0
  8  7  2  0
  9  8  1  0
 10  9  2  0
 10 11  1  0
 11 12  2  0
 12  7  1  0
 13 14  1  0
 14 15  1  0
 15 16  1  0
 16 18  1  0
 16 19  1  0
 17 16  1  0
 19 20  1  0
  1 21  1  0
  3 22  1  0
  8 23  1  0
  9 24  1  0
 10 25  1  0
 11 26  1  0
 12 27  1  0
 14 28  1  0
 14 29  1  0
 15 30  1  0
 17 31  1  0
 18 32  1  0
 20 33  1  0
 20 34  1  0
 20 35  1  0
M  ISO  8  21  14  22  14  23  14  24  14  25  14  26  14  27  14  28   8
M  ISO  7  29   8  30   5  31   3  32   3  33   8  34   8  35   8
M  END
>  <minimizedAffinity>  (1) 
-4.33797264

>  <minimizedRMSD>  (1) 
2.4256053

$$$$
