
     RDKit          3D

 45 49  0  0  0  0  0  0  0  0999 V2000
   44.8260   36.0010   43.3590 Cl  0  0  0  0  0  0  0  0  0  0  0  0
   45.5640   34.7440   44.3020 C   0  0  0  0  0  0  0  0  0  0  0  0
   46.6770   34.0830   43.8150 C   0  0  0  0  0  0  0  0  0  0  0  0
   47.1970   33.0980   44.6350 C   0  0  0  0  0  0  0  0  0  0  0  0
   46.6690   32.7590   45.8730 C   0  0  0  0  0  0  0  0  0  0  0  0
   45.5710   33.4370   46.3140 C   0  0  0  0  0  0  0  0  0  0  0  0
   44.9450   32.9720   47.8840 Cl  0  0  0  0  0  0  0  0  0  0  0  0
   45.0180   34.4230   45.5400 C   0  0  0  0  0  0  0  0  0  0  0  0
   47.3630   31.6830   46.5980 C   0  0  0  0  0  0  0  0  0  0  0  0
   47.4580   30.4020   46.1190 C   0  0  0  0  0  0  0  0  0  0  0  0
   48.1050   29.3780   46.7850 C   0  0  0  0  0  0  0  0  0  0  0  0
   48.6970   29.6360   48.0030 C   0  0  0  0  0  0  0  0  0  0  0  0
   49.3220   28.6330   48.6390 N   0  0  0  0  0  0  0  0  0  0  0  0
   49.9270   28.8030   49.8340 C   0  0  0  0  0  0  0  0  0  0  0  0
   49.8690   30.0790   50.3800 C   0  0  0  0  0  0  0  0  0  0  0  0
   49.2370   31.1050   49.7410 C   0  0  0  0  0  0  0  0  0  0  0  0
   48.6240   30.9000   48.5120 C   0  0  0  0  0  0  0  0  0  0  0  0
   47.9730   31.9150   47.8350 C   0  0  0  0  0  0  0  0  0  0  0  0
   48.8790   35.5330   41.3050 C   0  0  0  0  0  0  0  0  0  0  0  0
   48.3910   35.0000   40.1040 C   0  0  0  0  0  0  0  0  0  0  0  0
   47.2850   34.1270   40.1580 C   0  0  0  0  0  0  0  0  0  0  0  0
   46.7850   33.8770   41.3810 N   0  0  0  0  0  0  0  0  0  0  0  0
   47.2660   34.3980   42.5310 C   0  0  0  0  0  0  0  0  0  0  0  0
   48.3240   35.2340   42.5000 N   0  0  0  0  0  0  0  0  0  0  0  0
   46.6800   33.5070   38.9900 C   0  0  0  0  0  0  0  0  0  0  0  0
   47.4310   33.5230   37.8340 C   0  0  0  0  0  0  0  0  0  0  0  0
   46.9620   32.9630   36.6580 C   0  0  0  0  0  0  0  0  0  0  0  0
   45.7000   32.3670   36.6310 C   0  0  0  0  0  0  0  0  0  0  0  0
   45.0050   32.3880   37.8240 C   0  0  0  0  0  0  0  0  0  0  0  0
   45.4300   32.9310   39.0130 C   0  0  0  0  0  0  0  0  0  0  0  0
   48.0837   32.5495   44.2844 H   0  0  0  0  0  0  0  0  0  0  0  0
   44.1327   34.9665   45.9017 H   0  0  0  0  0  0  0  0  0  0  0  0
   46.9924   30.1759   45.1484 H   0  0  0  0  0  0  0  0  0  0  0  0
   48.1470   28.3693   46.3483 H   0  0  0  0  0  0  0  0  0  0  0  0
   50.4384   27.9755   50.3476 H   0  0  0  0  0  0  0  0  0  0  0  0
   50.3454   30.2670   51.3535 H   0  0  0  0  0  0  0  0  0  0  0  0
   49.2127   32.1030   50.2030 H   0  0  0  0  0  0  0  0  0  0  0  0
   47.9343   32.9217   48.2768 H   0  0  0  0  0  0  0  0  0  0  0  0
   49.7407   36.2160   41.2736 H   0  0  0  0  0  0  0  0  0  0  0  0
   48.8596   35.2566   39.1424 H   0  0  0  0  0  0  0  0  0  0  0  0
   48.4261   33.9917   37.8463 H   0  0  0  0  0  0  0  0  0  0  0  0
   47.5810   32.9876   35.7490 H   0  0  0  0  0  0  0  0  0  0  0  0
   45.2865   31.9107   35.7195 H   0  0  0  0  0  0  0  0  0  0  0  0
   44.0085   31.9221   37.8227 H   0  0  0  0  0  0  0  0  0  0  0  0
   44.8121   32.9069   39.9227 H   0  0  0  0  0  0  0  0  0  0  0  0
  1  2  1  0
  2  8  2  0
  3  2  1  0
  3  4  2  0
  4  5  1  0
  5  6  2  0
  5  9  1  0
  6  7  1  0
  8  6  1  0
  9 18  1  0
 10  9  2  0
 10 11  1  0
 11 12  2  0
 12 17  1  0
 12 13  1  0
 13 14  2  0
 14 15  1  0
 16 15  2  0
 17 16  1  0
 18 17  2  0
 19 24  2  0
 20 21  2  0
 20 19  1  0
 21 22  1  0
 22 23  2  0
 23  3  1  0
 24 23  1  0
 25 30  1  0
 25 21  1  0
 26 25  2  0
 27 26  1  0
 28 27  2  0
 28 29  1  0
 29 30  2  0
  4 31  1  0
  8 32  1  0
 10 33  1  0
 11 34  1  0
 14 35  1  0
 15 36  1  0
 16 37  1  0
 18 38  1  0
 19 39  1  0
 20 40  1  0
 26 41  1  0
 27 42  1  0
 28 43  1  0
 29 44  1  0
 30 45  1  0
M  ISO  8  31  14  32  14  33  14  34  14  35  14  36  14  37  14  38  14
M  ISO  7  39  14  40  14  41  14  42  14  43  14  44  14  45  14
M  END
>  <minimizedAffinity>  (1) 
-7.24607992

>  <minimizedRMSD>  (1) 
0.46378237

$$$$
