
     RDKit          3D

 40 44  0  0  0  0  0  0  0  0999 V2000
   47.3390   31.3240   45.2200 C   0  0  0  0  0  0  0  0  0  0  0  0
   46.9100   32.6470   45.1300 C   0  0  0  0  0  0  0  0  0  0  0  0
   46.2520   33.2980   46.1450 C   0  0  0  0  0  0  0  0  0  0  0  0
   45.9850   32.6290   47.3290 C   0  0  0  0  0  0  0  0  0  0  0  0
   45.3760   32.9320   48.5140 N   0  0  0  0  0  0  0  0  0  0  0  0
   45.4240   31.8340   49.3150 C   0  0  0  0  0  0  0  0  0  0  0  0
   46.0570   30.8670   48.6230 N   0  0  0  0  0  0  0  0  0  0  0  0
   46.4090   31.3240   47.4130 C   0  0  0  0  0  0  0  0  0  0  0  0
   47.0700   30.6540   46.4100 C   0  0  0  0  0  0  0  0  0  0  0  0
   46.6040   35.0920   42.3900 C   0  0  0  0  0  0  0  0  0  0  0  0
   47.6850   34.7510   41.5600 C   0  0  0  0  0  0  0  0  0  0  0  0
   48.5010   33.6950   41.9500 C   0  0  0  0  0  0  0  0  0  0  0  0
   48.2210   33.0320   43.1160 N   0  0  0  0  0  0  0  0  0  0  0  0
   47.1790   33.3810   43.8890 C   0  0  0  0  0  0  0  0  0  0  0  0
   46.3710   34.4040   43.5340 N   0  0  0  0  0  0  0  0  0  0  0  0
   47.4870   29.2570   46.5890 C   0  0  0  0  0  0  0  0  0  0  0  0
   48.6670   28.7270   46.1260 C   0  0  0  0  0  0  0  0  0  0  0  0
   48.6190   27.3810   46.5330 C   0  0  0  0  0  0  0  0  0  0  0  0
   47.4240   27.1830   47.2100 C   0  0  0  0  0  0  0  0  0  0  0  0
   46.8010   28.3420   47.2050 O   0  0  0  0  0  0  0  0  0  0  0  0
   46.9310   25.9290   47.8210 C   0  0  0  0  0  0  0  0  0  0  0  0
   45.7290   25.4490   47.3450 C   0  0  0  0  0  0  0  0  0  0  0  0
   45.2810   24.2620   47.9360 C   0  0  0  0  0  0  0  0  0  0  0  0
   46.0050   23.6260   48.9280 C   0  0  0  0  0  0  0  0  0  0  0  0
   47.2020   24.1730   49.3500 C   0  0  0  0  0  0  0  0  0  0  0  0
   47.7120   25.3570   48.8050 C   0  0  0  0  0  0  0  0  0  0  0  0
   47.8658   30.8321   44.3890 H   0  0  0  0  0  0  0  0  0  0  0  0
   45.9386   34.3448   46.0187 H   0  0  0  0  0  0  0  0  0  0  0  0
   44.9524   33.8383   48.7591 H   0  0  0  0  0  0  0  0  0  0  0  0
   45.0218   31.7511   50.3355 H   0  0  0  0  0  0  0  0  0  0  0  0
   45.9415   35.9240   42.1090 H   0  0  0  0  0  0  0  0  0  0  0  0
   47.8801   35.3033   40.6289 H   0  0  0  0  0  0  0  0  0  0  0  0
   49.3597   33.3959   41.3309 H   0  0  0  0  0  0  0  0  0  0  0  0
   49.4649   29.2371   45.5664 H   0  0  0  0  0  0  0  0  0  0  0  0
   49.3918   26.6205   46.3474 H   0  0  0  0  0  0  0  0  0  0  0  0
   45.1616   25.9634   46.5555 H   0  0  0  0  0  0  0  0  0  0  0  0
   44.3286   23.8237   47.6029 H   0  0  0  0  0  0  0  0  0  0  0  0
   45.6317   22.6937   49.3768 H   0  0  0  0  0  0  0  0  0  0  0  0
   47.7721   23.6615   50.1395 H   0  0  0  0  0  0  0  0  0  0  0  0
   48.6636   25.7985   49.1359 H   0  0  0  0  0  0  0  0  0  0  0  0
  1  9  2  0
  2  1  1  0
  2  3  2  0
  3  4  1  0
  4  8  2  0
  4  5  1  0
  5  6  1  0
  7  6  2  0
  8  7  1  0
  9 16  1  0
  9  8  1  0
 10 15  2  0
 11 12  2  0
 11 10  1  0
 12 13  1  0
 13 14  2  0
 14  2  1  0
 15 14  1  0
 16 20  1  0
 17 18  1  0
 17 16  2  0
 18 19  2  0
 19 21  1  0
 20 19  1  0
 21 26  1  0
 22 21  2  0
 22 23  1  0
 23 24  2  0
 24 25  1  0
 26 25  2  0
  1 27  1  0
  3 28  1  0
  5 29  1  0
  6 30  1  0
 10 31  1  0
 11 32  1  0
 12 33  1  0
 17 34  1  0
 18 35  1  0
 22 36  1  0
 23 37  1  0
 24 38  1  0
 25 39  1  0
 26 40  1  0
M  ISO  8  27  14  28  14  29   9  30  14  31  14  32  14  33  14  34  14
M  ISO  6  35  14  36  14  37  14  38  14  39  14  40  14
M  END
>  <minimizedAffinity>  (1) 
-5.89180851

>  <minimizedRMSD>  (1) 
1.11358237

$$$$
