
     RDKit          3D

 45 49  0  0  0  0  0  0  0  0999 V2000
   49.7680   30.1770   49.4060 C   0  0  0  0  0  0  0  0  0  0  0  0
   50.0020   31.3370   50.0700 N   0  0  0  0  0  0  0  0  0  0  0  0
   50.6610   31.3960   51.2330 C   0  0  0  0  0  0  0  0  0  0  0  0
   51.1070   30.2260   51.7550 N   0  0  0  0  0  0  0  0  0  0  0  0
   50.9140   29.0400   51.1580 C   0  0  0  0  0  0  0  0  0  0  0  0
   51.3690   27.8440   51.7100 C   0  0  0  0  0  0  0  0  0  0  0  0
   51.1360   26.6470   51.0610 C   0  0  0  0  0  0  0  0  0  0  0  0
   50.4440   26.5970   49.8430 C   0  0  0  0  0  0  0  0  0  0  0  0
   50.0200   27.8050   49.3460 C   0  0  0  0  0  0  0  0  0  0  0  0
   50.2380   29.0060   49.9700 C   0  0  0  0  0  0  0  0  0  0  0  0
   49.3420   27.5940   48.0740 C   0  0  0  0  0  0  0  0  0  0  0  0
   50.1570   27.6170   46.9330 C   0  0  0  0  0  0  0  0  0  0  0  0
   49.5830   27.4540   45.7020 C   0  0  0  0  0  0  0  0  0  0  0  0
   48.2240   27.2680   45.5460 C   0  0  0  0  0  0  0  0  0  0  0  0
   47.4040   27.2430   46.6640 C   0  0  0  0  0  0  0  0  0  0  0  0
   47.9580   27.4040   47.9170 C   0  0  0  0  0  0  0  0  0  0  0  0
   48.9000   30.0740   47.8650 S   0  0  0  0  0  0  0  0  0  0  0  0
   46.0350   32.7290   46.8940 C   0  0  0  0  0  0  0  0  0  0  0  0
   47.1630   31.9370   46.8950 C   0  0  0  0  0  0  0  0  0  0  0  0
   47.4230   31.0590   47.9260 C   0  0  0  0  0  0  0  0  0  0  0  0
   46.5410   30.9580   48.9930 C   0  0  0  0  0  0  0  0  0  0  0  0
   45.4270   31.7300   49.0100 C   0  0  0  0  0  0  0  0  0  0  0  0
   45.1950   32.5950   47.9700 C   0  0  0  0  0  0  0  0  0  0  0  0
   44.5580   35.5150   45.0410 C   0  0  0  0  0  0  0  0  0  0  0  0
   45.2040   35.4600   43.7880 C   0  0  0  0  0  0  0  0  0  0  0  0
   46.1550   34.4540   43.5880 C   0  0  0  0  0  0  0  0  0  0  0  0
   46.4370   33.5620   44.5770 N   0  0  0  0  0  0  0  0  0  0  0  0
   45.7770   33.6580   45.7860 C   0  0  0  0  0  0  0  0  0  0  0  0
   44.8530   34.6220   46.0070 N   0  0  0  0  0  0  0  0  0  0  0  0
   50.8341   32.3541   51.7449 H   0  0  0  0  0  0  0  0  0  0  0  0
   51.9150   27.8532   52.6649 H   0  0  0  0  0  0  0  0  0  0  0  0
   51.5018   25.7119   51.5102 H   0  0  0  0  0  0  0  0  0  0  0  0
   50.2525   25.6495   49.3181 H   0  0  0  0  0  0  0  0  0  0  0  0
   51.2431   27.7641   47.0266 H   0  0  0  0  0  0  0  0  0  0  0  0
   50.2244   27.4717   44.8085 H   0  0  0  0  0  0  0  0  0  0  0  0
   47.7944   27.1405   44.5414 H   0  0  0  0  0  0  0  0  0  0  0  0
   46.3196   27.0958   46.5525 H   0  0  0  0  0  0  0  0  0  0  0  0
   47.3086   27.3835   48.8046 H   0  0  0  0  0  0  0  0  0  0  0  0
   47.8707   32.0068   46.0558 H   0  0  0  0  0  0  0  0  0  0  0  0
   46.7441   30.2581   49.8170 H   0  0  0  0  0  0  0  0  0  0  0  0
   44.7171   31.6640   49.8477 H   0  0  0  0  0  0  0  0  0  0  0  0
   44.2864   33.2142   48.0011 H   0  0  0  0  0  0  0  0  0  0  0  0
   43.8058   36.2946   45.2318 H   0  0  0  0  0  0  0  0  0  0  0  0
   44.9676   36.1843   42.9946 H   0  0  0  0  0  0  0  0  0  0  0  0
   46.6794   34.3830   42.6236 H   0  0  0  0  0  0  0  0  0  0  0  0
  1 10  1  0
  1  2  2  0
  2  3  1  0
  3  4  2  0
  5  6  2  0
  5  4  1  0
  7  6  1  0
  8  7  2  0
  9  8  1  0
  9 10  2  0
 10  5  1  0
 11  9  1  0
 12 11  2  0
 13 12  1  0
 14 13  2  0
 14 15  1  0
 15 16  2  0
 16 11  1  0
 17 20  1  0
 17  1  1  0
 18 19  2  0
 18 23  1  0
 19 20  1  0
 20 21  2  0
 21 22  1  0
 23 22  2  0
 24 29  2  0
 25 24  1  0
 26 25  2  0
 26 27  1  0
 27 28  2  0
 28 29  1  0
 28 18  1  0
  3 30  1  0
  6 31  1  0
  7 32  1  0
  8 33  1  0
 12 34  1  0
 13 35  1  0
 14 36  1  0
 15 37  1  0
 16 38  1  0
 19 39  1  0
 21 40  1  0
 22 41  1  0
 23 42  1  0
 24 43  1  0
 25 44  1  0
 26 45  1  0
M  ISO  8  30  14  31  14  32  14  33  14  34  14  35  14  36  14  37  14
M  ISO  8  38  14  39  14  40  14  41  14  42  14  43  14  44  14  45  14
M  END
>  <minimizedAffinity>  (1) 
-6.48908043

>  <minimizedRMSD>  (1) 
0.693715513

$$$$
