
     RDKit          3D

 33 34  0  0  0  0  0  0  0  0999 V2000
   45.2340   34.2870   40.8980 C   0  0  0  0  0  0  0  0  0  0  0  0
   45.6420   34.7860   42.1360 C   0  0  0  0  0  0  0  0  0  0  0  0
   47.0040   35.0080   42.3430 C   0  0  0  0  0  0  0  0  0  0  0  0
   47.8960   34.7370   41.3500 C   0  0  0  0  0  0  0  0  0  0  0  0
   47.5160   34.2440   40.1190 C   0  0  0  0  0  0  0  0  0  0  0  0
   46.1490   34.0280   39.9300 C   0  0  0  0  0  0  0  0  0  0  0  0
   41.5300   34.7430   40.3450 C   0  0  0  0  0  0  0  0  0  0  0  0
   42.8940   35.0710   40.4750 C   0  0  0  0  0  0  0  0  0  0  0  0
   43.8080   34.0810   40.7430 C   0  0  0  0  0  0  0  0  0  0  0  0
   43.3220   32.8210   40.8690 N   0  0  0  0  0  0  0  0  0  0  0  0
   42.0140   32.5120   40.7450 C   0  0  0  0  0  0  0  0  0  0  0  0
   41.1120   33.4790   40.4800 N   0  0  0  0  0  0  0  0  0  0  0  0
   40.5430   35.8040   40.0560 C   0  0  0  0  0  0  0  0  0  0  0  0
   39.3030   35.1760   39.8490 F   0  0  0  0  0  0  0  0  0  0  0  0
   40.8770   36.3280   38.7990 F   0  0  0  0  0  0  0  0  0  0  0  0
   40.4480   36.7540   41.0240 F   0  0  0  0  0  0  0  0  0  0  0  0
   46.0120   32.5670   37.7720 C   0  0  0  0  0  0  0  0  0  0  0  0
   47.0290   31.8860   37.8240 O   0  0  0  0  0  0  0  0  0  0  0  0
   45.6190   33.5370   38.7170 N   0  0  0  0  0  0  0  0  0  0  0  0
   45.1590   32.3650   36.6690 O   0  0  0  0  0  0  0  0  0  0  0  0
   45.9360   30.6520   34.7780 O   0  0  0  0  0  0  0  0  0  0  0  0
   45.9190   32.1140   35.1550 P   0  0  0  0  0  0  0  0  0  0  0  0
   44.9390   32.9130   34.0030 O   0  0  0  0  0  0  0  0  0  0  0  0
   47.4530   32.7740   35.0620 O   0  0  0  0  0  0  0  0  0  0  0  0
   44.9089   34.9988   42.9280 H   0  0  0  0  0  0  0  0  0  0  0  0
   47.3571   35.4016   43.3076 H   0  0  0  0  0  0  0  0  0  0  0  0
   48.9645   34.9190   41.5376 H   0  0  0  0  0  0  0  0  0  0  0  0
   48.2506   34.0322   39.3281 H   0  0  0  0  0  0  0  0  0  0  0  0
   43.2252   36.1139   40.3625 H   0  0  0  0  0  0  0  0  0  0  0  0
   41.6830   31.4693   40.8603 H   0  0  0  0  0  0  0  0  0  0  0  0
   44.7338   33.9973   38.4612 H   0  0  0  0  0  0  0  0  0  0  0  0
   44.2627   33.4644   34.4707 H   0  0  0  0  0  0  0  0  0  0  0  0
   47.8033   32.9247   35.9756 H   0  0  0  0  0  0  0  0  0  0  0  0
  1  2  2  0
  2  3  1  0
  4  3  2  0
  5  4  1  0
  6  5  2  0
  6  1  1  0
  7  8  2  0
  7 12  1  0
  8  9  1  0
  9 10  2  0
  9  1  1  0
 11 10  1  0
 12 11  2  0
 13  7  1  0
 13 16  1  0
 14 13  1  0
 15 13  1  0
 17 18  2  0
 17 19  1  0
 19  6  1  0
 20 17  1  0
 21 22  2  0
 22 20  1  0
 23 22  1  0
 24 22  1  0
  2 25  1  0
  3 26  1  0
  4 27  1  0
  5 28  1  0
  8 29  1  0
 11 30  1  0
 19 31  1  0
 23 32  1  0
 24 33  1  0
M  ISO  8  25  14  26  14  27  14  28  14  29  14  30  14  32   3  33   3
M  END
>  <minimizedAffinity>  (1) 
-6.71927357

>  <minimizedRMSD>  (1) 
1.28392684

$$$$
