
     RDKit          3D

 28 29  0  0  0  0  0  0  0  0999 V2000
   44.8460   32.6150   41.4700 Br  0  0  0  0  0  0  0  0  0  0  0  0
   46.3870   33.7110   41.1320 C   0  0  0  0  0  0  0  0  0  0  0  0
   46.8360   34.6480   42.0250 C   0  0  0  0  0  0  0  0  0  0  0  0
   47.9580   35.3890   41.6870 C   0  0  0  0  0  0  0  0  0  0  0  0
   48.6240   35.2130   40.4960 C   0  0  0  0  0  0  0  0  0  0  0  0
   48.1850   34.2740   39.5860 C   0  0  0  0  0  0  0  0  0  0  0  0
   47.0770   33.5540   39.9380 C   0  0  0  0  0  0  0  0  0  0  0  0
   44.4610   35.9480   44.6860 C   0  0  0  0  0  0  0  0  0  0  0  0
   45.1660   35.8140   43.4860 C   0  0  0  0  0  0  0  0  0  0  0  0
   46.0970   34.7960   43.2700 C   0  0  0  0  0  0  0  0  0  0  0  0
   46.2600   33.9510   44.3160 N   0  0  0  0  0  0  0  0  0  0  0  0
   45.5860   34.0750   45.4710 C   0  0  0  0  0  0  0  0  0  0  0  0
   44.7010   35.0550   45.6560 N   0  0  0  0  0  0  0  0  0  0  0  0
   46.5740   32.5430   38.9980 C   0  0  0  0  0  0  0  0  0  0  0  0
   46.8650   31.3290   39.1700 O   0  0  0  0  0  0  0  0  0  0  0  0
   45.7720   32.9790   37.9240 O   0  0  0  0  0  0  0  0  0  0  0  0
   46.1650   31.0780   36.1080 O   0  0  0  0  0  0  0  0  0  0  0  0
   46.1840   32.5730   36.3040 P   0  0  0  0  0  0  0  0  0  0  0  0
   45.0430   33.2850   35.2810 O   0  0  0  0  0  0  0  0  0  0  0  0
   47.6810   33.2410   35.8990 O   0  0  0  0  0  0  0  0  0  0  0  0
   48.3287   36.1441   42.3958 H   0  0  0  0  0  0  0  0  0  0  0  0
   49.5102   35.8237   40.2686 H   0  0  0  0  0  0  0  0  0  0  0  0
   48.6994   34.1127   38.6271 H   0  0  0  0  0  0  0  0  0  0  0  0
   43.7330   36.7601   44.8292 H   0  0  0  0  0  0  0  0  0  0  0  0
   44.9798   36.5393   42.6802 H   0  0  0  0  0  0  0  0  0  0  0  0
   45.7678   33.3533   46.2810 H   0  0  0  0  0  0  0  0  0  0  0  0
   44.3408   33.7232   35.8241 H   0  0  0  0  0  0  0  0  0  0  0  0
   48.1780   33.4628   36.7260 H   0  0  0  0  0  0  0  0  0  0  0  0
  2  1  1  0
  2  3  2  0
  3 10  1  0
  4  3  1  0
  5  4  2  0
  6  7  2  0
  6  5  1  0
  7  2  1  0
  8 13  2  0
  9  8  1  0
 10  9  2  0
 10 11  1  0
 11 12  2  0
 12 13  1  0
 14 15  2  0
 14  7  1  0
 16 14  1  0
 17 18  2  0
 18 16  1  0
 19 18  1  0
 20 18  1  0
  4 21  1  0
  5 22  1  0
  6 23  1  0
  8 24  1  0
  9 25  1  0
 12 26  1  0
 19 27  1  0
 20 28  1  0
M  ISO  8  21  14  22  14  23  14  24  14  25  14  26  14  27   3  28   3
M  END
>  <minimizedAffinity>  (1) 
-5.72321558

>  <minimizedRMSD>  (1) 
2.57708812

$$$$
