
     RDKit          3D

 26 27  0  0  0  0  0  0  0  0999 V2000
   45.7950   34.0200   41.0440 C   0  0  0  0  0  0  0  0  0  0  0  0
   46.4100   34.7280   42.0720 C   0  0  0  0  0  0  0  0  0  0  0  0
   47.7310   35.1430   41.8630 C   0  0  0  0  0  0  0  0  0  0  0  0
   48.3210   34.8310   40.6820 N   0  0  0  0  0  0  0  0  0  0  0  0
   47.6970   34.1480   39.7160 C   0  0  0  0  0  0  0  0  0  0  0  0
   46.4220   33.7400   39.9020 N   0  0  0  0  0  0  0  0  0  0  0  0
   45.6790   35.0110   43.3070 C   0  0  0  0  0  0  0  0  0  0  0  0
   45.0050   36.1880   43.5350 C   0  0  0  0  0  0  0  0  0  0  0  0
   44.4770   36.0190   44.7970 C   0  0  0  0  0  0  0  0  0  0  0  0
   44.8090   34.8080   45.3090 N   0  0  0  0  0  0  0  0  0  0  0  0
   45.5340   34.2230   44.3860 N   0  0  0  0  0  0  0  0  0  0  0  0
   44.4900   33.6040   41.2370 O   0  0  0  0  0  0  0  0  0  0  0  0
   43.3680   34.2390   40.7790 C   0  0  0  0  0  0  0  0  0  0  0  0
   43.2710   35.4010   40.2670 O   0  0  0  0  0  0  0  0  0  0  0  0
   42.0070   33.8530   40.7220 O   0  0  0  0  0  0  0  0  0  0  0  0
   39.9910   35.5080   40.5940 O   0  0  0  0  0  0  0  0  0  0  0  0
   40.8210   34.7290   41.5940 P   0  0  0  0  0  0  0  0  0  0  0  0
   39.8020   33.6330   42.3690 O   0  0  0  0  0  0  0  0  0  0  0  0
   41.4950   35.8330   42.6800 O   0  0  0  0  0  0  0  0  0  0  0  0
   48.2753   35.7065   42.6352 H   0  0  0  0  0  0  0  0  0  0  0  0
   48.2188   33.9195   38.7750 H   0  0  0  0  0  0  0  0  0  0  0  0
   44.9099   37.0578   42.8684 H   0  0  0  0  0  0  0  0  0  0  0  0
   43.8659   36.7689   45.3206 H   0  0  0  0  0  0  0  0  0  0  0  0
   44.5468   34.4275   46.2295 H   0  0  0  0  0  0  0  0  0  0  0  0
   39.8947   33.7327   43.3496 H   0  0  0  0  0  0  0  0  0  0  0  0
   41.3140   35.5365   43.6070 H   0  0  0  0  0  0  0  0  0  0  0  0
  1 12  1  0
  1  2  2  0
  2  7  1  0
  3  2  1  0
  4  3  2  0
  5  6  2  0
  5  4  1  0
  6  1  1  0
  7  8  1  0
  7 11  2  0
  8  9  2  0
  9 10  1  0
 11 10  1  0
 13 12  1  0
 14 13  2  0
 15 13  1  0
 15 17  1  0
 16 17  2  0
 17 18  1  0
 17 19  1  0
  3 20  1  0
  5 21  1  0
  8 22  1  0
  9 23  1  0
 10 24  1  0
 18 25  1  0
 19 26  1  0
M  ISO  7  20  14  21  14  22  14  23  14  24   9  25   3  26   3
M  END
>  <minimizedAffinity>  (1) 
-5.70768166

>  <minimizedRMSD>  (1) 
1.23363614

$$$$
