
     RDKit          3D

 39 41  0  0  1  0  0  0  0  0999 V2000
   47.8110   30.1100   48.4610 C   0  0  1  0  0  0  0  0  0  0  0  0
   47.9000   28.9470   47.5370 C   0  0  0  0  0  0  0  0  0  0  0  0
   49.2420   28.2850   47.4760 C   0  0  0  0  0  0  0  0  0  0  0  0
   49.8850   28.1250   48.8320 C   0  0  0  0  0  0  0  0  0  0  0  0
   49.7670   29.3520   49.6880 C   0  0  0  0  0  0  0  0  0  0  0  0
   49.2550   30.5170   48.8400 C   0  0  2  0  0  0  0  0  0  0  0  0
   46.0470   33.1460   46.3510 C   0  0  0  0  0  0  0  0  0  0  0  0
   45.4540   32.9500   47.6050 C   0  0  0  0  0  0  0  0  0  0  0  0
   45.9510   31.9820   48.3970 C   0  0  0  0  0  0  0  0  0  0  0  0
   47.0360   31.2000   47.9570 C   0  0  0  0  0  0  0  0  0  0  0  0
   47.3770   31.8850   46.3080 S   0  0  0  0  0  0  0  0  0  0  0  0
   44.4260   35.9600   44.5370 C   0  0  0  0  0  0  0  0  0  0  0  0
   45.0850   35.8410   43.2830 C   0  0  0  0  0  0  0  0  0  0  0  0
   46.0330   34.8260   43.1230 C   0  0  0  0  0  0  0  0  0  0  0  0
   46.2800   33.9960   44.1820 N   0  0  0  0  0  0  0  0  0  0  0  0
   45.6220   34.1490   45.3700 C   0  0  0  0  0  0  0  0  0  0  0  0
   44.6970   35.1260   45.5540 N   0  0  0  0  0  0  0  0  0  0  0  0
   49.3110   31.7200   49.4900 O   0  0  0  0  0  0  0  0  0  0  0  0
   51.0740   31.8320   51.4070 O   0  0  0  0  0  0  0  0  0  0  0  0
   50.8460   32.1830   49.9520 P   0  0  0  0  0  0  0  0  0  0  0  0
   52.0200   31.4270   49.0070 O   0  0  0  0  0  0  0  0  0  0  0  0
   50.9890   33.8690   49.8540 O   0  0  0  0  0  0  0  0  0  0  0  0
   47.2545   29.8086   49.3607 H   0  0  0  0  0  0  0  0  0  0  0  0
   47.1643   28.1965   47.8620 H   0  0  0  0  0  0  0  0  0  0  0  0
   47.7071   29.3417   46.5285 H   0  0  0  0  0  0  0  0  0  0  0  0
   49.1208   27.2885   47.0262 H   0  0  0  0  0  0  0  0  0  0  0  0
   49.8994   28.9307   46.8752 H   0  0  0  0  0  0  0  0  0  0  0  0
   49.3994   27.2867   49.3530 H   0  0  0  0  0  0  0  0  0  0  0  0
   50.9571   27.9420   48.6671 H   0  0  0  0  0  0  0  0  0  0  0  0
   49.0621   29.1592   50.5102 H   0  0  0  0  0  0  0  0  0  0  0  0
   50.7535   29.6061   50.1031 H   0  0  0  0  0  0  0  0  0  0  0  0
   49.8849   30.6818   47.9534 H   0  0  0  0  0  0  0  0  0  0  0  0
   44.6063   33.5696   47.9330 H   0  0  0  0  0  0  0  0  0  0  0  0
   45.5095   31.8018   49.3882 H   0  0  0  0  0  0  0  0  0  0  0  0
   43.6770   36.7533   44.6774 H   0  0  0  0  0  0  0  0  0  0  0  0
   44.8545   36.5312   42.4581 H   0  0  0  0  0  0  0  0  0  0  0  0
   46.5668   34.6980   42.1697 H   0  0  0  0  0  0  0  0  0  0  0  0
   52.6896   30.9958   49.5950 H   0  0  0  0  0  0  0  0  0  0  0  0
   51.0214   34.2510   50.7667 H   0  0  0  0  0  0  0  0  0  0  0  0
  1  6  1  0
  2  1  1  0
  3  2  1  0
  3  4  1  0
  4  5  1  0
  6 18  1  0
  6  5  1  0
  7  8  2  0
  8  9  1  0
 10  9  2  0
 10  1  1  0
 11  7  1  0
 11 10  1  0
 12 17  2  0
 13 12  1  0
 14 13  2  0
 14 15  1  0
 15 16  2  0
 16 17  1  0
 16  7  1  0
 18 20  1  0
 20 19  2  0
 21 20  1  0
 22 20  1  0
  1 23  1  1
  2 24  1  0
  2 25  1  0
  3 26  1  0
  3 27  1  0
  4 28  1  0
  4 29  1  0
  5 30  1  0
  5 31  1  0
  6 32  1  6
  8 33  1  0
  9 34  1  0
 12 35  1  0
 13 36  1  0
 14 37  1  0
 21 38  1  0
 22 39  1  0
M  ISO  8  23  13  24  13  25  13  26  13  27  13  28  13  29  13  30  13
M  ISO  8  31  13  32  13  33  14  34  14  35  14  36  14  37  14  38   3
M  ISO  1  39   3
M  END
>  <minimizedAffinity>  (1) 
-5.37026834

>  <minimizedRMSD>  (1) 
1.03053236

$$$$
