
     RDKit          3D

 35 37  0  0  1  0  0  0  0  0999 V2000
   47.5110   33.2850   45.0270 F   0  0  0  0  0  0  0  0  0  0  0  0
   47.6020   32.0530   44.4860 C   0  0  0  0  0  0  0  0  0  0  0  0
   47.9180   31.9260   43.1520 C   0  0  0  0  0  0  0  0  0  0  0  0
   48.0110   30.6720   42.6210 C   0  0  0  0  0  0  0  0  0  0  0  0
   47.7850   29.5710   43.4330 C   0  0  0  0  0  0  0  0  0  0  0  0
   47.4710   29.6860   44.7550 C   0  0  0  0  0  0  0  0  0  0  0  0
   47.3790   30.9800   45.2890 C   0  0  0  0  0  0  0  0  0  0  0  0
   47.0510   31.0330   46.6740 N   0  0  0  0  0  0  0  0  0  0  0  0
   46.9270   29.9640   47.6460 C   0  0  0  0  0  0  0  0  0  0  0  0
   47.7040   30.5000   48.8330 C   0  0  0  0  0  0  0  0  0  0  0  0
   47.7760   31.9910   48.6060 C   0  0  0  0  0  0  0  0  0  0  0  0
   46.7590   32.1760   47.4990 C   0  0  2  0  0  0  0  0  0  0  0  0
   45.3640   32.2840   48.0030 C   0  0  0  0  0  0  0  0  0  0  0  0
   44.7230   33.4380   47.6090 F   0  0  0  0  0  0  0  0  0  0  0  0
   44.6290   31.1420   47.8360 F   0  0  0  0  0  0  0  0  0  0  0  0
   45.4760   32.4250   49.4020 F   0  0  0  0  0  0  0  0  0  0  0  0
   49.3070   35.1150   41.9790 C   0  0  0  0  0  0  0  0  0  0  0  0
   48.5270   35.3820   40.8100 C   0  0  0  0  0  0  0  0  0  0  0  0
   47.5330   34.4290   40.4680 C   0  0  0  0  0  0  0  0  0  0  0  0
   47.3820   33.3310   41.2640 N   0  0  0  0  0  0  0  0  0  0  0  0
   48.1440   33.1300   42.3530 C   0  0  0  0  0  0  0  0  0  0  0  0
   49.1000   34.0080   42.7140 N   0  0  0  0  0  0  0  0  0  0  0  0
   48.2629   30.5361   41.5589 H   0  0  0  0  0  0  0  0  0  0  0  0
   47.8620   28.5655   42.9936 H   0  0  0  0  0  0  0  0  0  0  0  0
   47.2964   28.7974   45.3794 H   0  0  0  0  0  0  0  0  0  0  0  0
   45.8736   29.7872   47.9088 H   0  0  0  0  0  0  0  0  0  0  0  0
   47.3014   28.9964   47.2805 H   0  0  0  0  0  0  0  0  0  0  0  0
   47.1785   30.2762   49.7731 H   0  0  0  0  0  0  0  0  0  0  0  0
   48.7017   30.0442   48.9160 H   0  0  0  0  0  0  0  0  0  0  0  0
   47.4922   32.5495   49.5102 H   0  0  0  0  0  0  0  0  0  0  0  0
   48.7823   32.3593   48.3574 H   0  0  0  0  0  0  0  0  0  0  0  0
   46.8304   33.1219   46.9420 H   0  0  0  0  0  0  0  0  0  0  0  0
   50.0890   35.8269   42.2817 H   0  0  0  0  0  0  0  0  0  0  0  0
   48.6904   36.2852   40.2037 H   0  0  0  0  0  0  0  0  0  0  0  0
   46.8983   34.5721   39.5810 H   0  0  0  0  0  0  0  0  0  0  0  0
  2  1  1  0
  2  7  2  0
  3  2  1  0
  4  3  2  0
  4  5  1  0
  5  6  2  0
  6  7  1  0
  7  8  1  0
  8 12  1  0
  8  9  1  0
  9 10  1  0
 11 10  1  0
 12 13  1  0
 12 11  1  0
 13 16  1  0
 14 13  1  0
 15 13  1  0
 17 22  2  0
 18 17  1  0
 19 18  2  0
 19 20  1  0
 20 21  2  0
 21 22  1  0
 21  3  1  0
  4 23  1  0
  5 24  1  0
  6 25  1  0
  9 26  1  0
  9 27  1  0
 10 28  1  0
 10 29  1  0
 11 30  1  0
 11 31  1  0
 12 32  1  6
 17 33  1  0
 18 34  1  0
 19 35  1  0
M  ISO  8  23  14  24  14  25  14  26  13  27  13  28  13  29  13  30  13
M  ISO  5  31  13  32  13  33  14  34  14  35  14
M  END
>  <minimizedAffinity>  (1) 
-5.37898302

>  <minimizedRMSD>  (1) 
1.3068136

$$$$
