
     RDKit          3D

 29 30  0  0  0  0  0  0  0  0999 V2000
   46.5600   33.9950   40.6480 C   0  0  0  0  0  0  0  0  0  0  0  0
   44.6460   35.9080   41.8900 Cl  0  0  0  0  0  0  0  0  0  0  0  0
   45.6080   34.7800   42.8220 C   0  0  0  0  0  0  0  0  0  0  0  0
   46.4550   33.9510   42.1370 C   0  0  0  0  0  0  0  0  0  0  0  0
   47.2160   33.0620   42.8720 C   0  0  0  0  0  0  0  0  0  0  0  0
   47.1210   33.0140   44.2540 C   0  0  0  0  0  0  0  0  0  0  0  0
   46.2520   33.8670   44.9340 C   0  0  0  0  0  0  0  0  0  0  0  0
   45.4880   34.7600   44.1900 C   0  0  0  0  0  0  0  0  0  0  0  0
   44.5360   35.7060   44.8310 C   0  0  0  0  0  0  0  0  0  0  0  0
   44.9870   36.9940   44.5940 F   0  0  0  0  0  0  0  0  0  0  0  0
   44.3550   35.4390   46.1620 F   0  0  0  0  0  0  0  0  0  0  0  0
   43.2840   35.6340   44.2100 F   0  0  0  0  0  0  0  0  0  0  0  0
   47.8600   34.5520   40.1650 C   0  0  0  0  0  0  0  0  0  0  0  0
   48.3450   33.8060   39.0180 C   0  0  0  0  0  0  0  0  0  0  0  0
   48.2110   34.2940   37.7390 C   0  0  0  0  0  0  0  0  0  0  0  0
   48.6720   33.5860   36.6240 C   0  0  0  0  0  0  0  0  0  0  0  0
   49.2590   32.3830   36.9020 N   0  0  0  0  0  0  0  0  0  0  0  0
   49.3890   31.9080   38.1520 C   0  0  0  0  0  0  0  0  0  0  0  0
   48.9340   32.6190   39.1950 N   0  0  0  0  0  0  0  0  0  0  0  0
   46.4525   32.9715   40.2597 H   0  0  0  0  0  0  0  0  0  0  0  0
   45.7639   34.6611   40.2840 H   0  0  0  0  0  0  0  0  0  0  0  0
   47.9075   32.3823   42.3525 H   0  0  0  0  0  0  0  0  0  0  0  0
   47.7357   32.2976   44.8188 H   0  0  0  0  0  0  0  0  0  0  0  0
   46.1728   33.8344   46.0307 H   0  0  0  0  0  0  0  0  0  0  0  0
   47.7171   35.6040   39.8770 H   0  0  0  0  0  0  0  0  0  0  0  0
   48.6000   34.4745   40.9751 H   0  0  0  0  0  0  0  0  0  0  0  0
   47.7269   35.2702   37.5884 H   0  0  0  0  0  0  0  0  0  0  0  0
   48.5696   33.9694   35.5981 H   0  0  0  0  0  0  0  0  0  0  0  0
   49.8699   30.9332   38.3209 H   0  0  0  0  0  0  0  0  0  0  0  0
  1  4  1  0
  2  3  1  0
  3  8  2  0
  4  3  1  0
  4  5  2  0
  5  6  1  0
  6  7  2  0
  8  9  1  0
  8  7  1  0
  9 11  1  0
 10  9  1  0
 12  9  1  0
 13  1  1  0
 14 19  1  0
 14 13  1  0
 15 14  2  0
 16 17  2  0
 16 15  1  0
 17 18  1  0
 18 19  2  0
  1 20  1  0
  1 21  1  0
  5 22  1  0
  6 23  1  0
  7 24  1  0
 13 25  1  0
 13 26  1  0
 15 27  1  0
 16 28  1  0
 18 29  1  0
M  ISO  8  20   8  21   8  22  14  23  14  24  14  25   8  26   8  27  14
M  ISO  2  28  14  29  14
M  END
>  <minimizedAffinity>  (1) 
-5.05496883

>  <minimizedRMSD>  (1) 
2.53098154

$$$$
