
     RDKit          3D

 32 33  0  0  1  0  0  0  0  0999 V2000
   45.3260   34.8740   42.4910 C   0  0  0  0  0  0  0  0  0  0  0  0
   46.4400   35.3430   41.7620 C   0  0  0  0  0  0  0  0  0  0  0  0
   47.6950   34.9380   42.2310 C   0  0  0  0  0  0  0  0  0  0  0  0
   47.7430   34.1450   43.3230 N   0  0  0  0  0  0  0  0  0  0  0  0
   46.6510   33.7280   43.9790 C   0  0  0  0  0  0  0  0  0  0  0  0
   45.4310   34.0990   43.5540 N   0  0  0  0  0  0  0  0  0  0  0  0
   43.6010   34.5100   40.9460 C   0  0  0  0  0  0  0  0  0  0  0  0
   44.4070   33.6860   40.4190 O   0  0  0  0  0  0  0  0  0  0  0  0
   44.0010   35.2450   42.0750 N   0  0  0  0  0  0  0  0  0  0  0  0
   42.3200   34.6160   40.3180 N   0  0  0  0  0  0  0  0  0  0  0  0
   42.0810   34.0930   38.9900 C   0  0  0  0  0  0  0  0  0  0  0  0
   41.0760   35.0710   38.4390 C   0  0  0  0  0  0  0  0  0  0  0  0
   40.6720   35.9840   39.5710 C   0  0  0  0  0  0  0  0  0  0  0  0
   41.0810   35.1990   40.7830 C   0  0  1  0  0  0  0  0  0  0  0  0
   48.8390   35.4400   41.4550 C   0  0  0  0  0  0  0  0  0  0  0  0
   49.9530   34.6560   41.7350 F   0  0  0  0  0  0  0  0  0  0  0  0
   49.1430   36.7020   41.9400 F   0  0  0  0  0  0  0  0  0  0  0  0
   48.6470   35.4050   40.1030 F   0  0  0  0  0  0  0  0  0  0  0  0
   40.0520   34.1570   41.1640 C   0  0  0  0  0  0  0  0  0  0  0  0
   40.6360   32.9120   40.9460 F   0  0  0  0  0  0  0  0  0  0  0  0
   38.9250   34.2830   40.3780 F   0  0  0  0  0  0  0  0  0  0  0  0
   39.7590   34.2060   42.4970 F   0  0  0  0  0  0  0  0  0  0  0  0
   46.3285   35.9882   40.8781 H   0  0  0  0  0  0  0  0  0  0  0  0
   46.7532   33.0829   44.8641 H   0  0  0  0  0  0  0  0  0  0  0  0
   43.4210   35.9561   42.5429 H   0  0  0  0  0  0  0  0  0  0  0  0
   43.0035   34.0890   38.3909 H   0  0  0  0  0  0  0  0  0  0  0  0
   41.7321   33.0498   38.9824 H   0  0  0  0  0  0  0  0  0  0  0  0
   41.5281   35.6573   37.6254 H   0  0  0  0  0  0  0  0  0  0  0  0
   40.2007   34.5430   38.0328 H   0  0  0  0  0  0  0  0  0  0  0  0
   41.2082   36.9430   39.5189 H   0  0  0  0  0  0  0  0  0  0  0  0
   39.6047   36.2500   39.5604 H   0  0  0  0  0  0  0  0  0  0  0  0
   41.1813   35.7948   41.7022 H   0  0  0  0  0  0  0  0  0  0  0  0
  1  6  2  0
  2  3  2  0
  2  1  1  0
  3  4  1  0
  4  5  2  0
  6  5  1  0
  7  9  1  0
  8  7  2  0
  9  1  1  0
 10 14  1  0
 10  7  1  0
 11 10  1  0
 12 11  1  0
 12 13  1  0
 13 14  1  0
 14 19  1  0
 15 16  1  0
 15 17  1  0
 15  3  1  0
 18 15  1  0
 19 22  1  0
 20 19  1  0
 21 19  1  0
  2 23  1  0
  5 24  1  0
  9 25  1  0
 11 26  1  0
 11 27  1  0
 12 28  1  0
 12 29  1  0
 13 30  1  0
 13 31  1  0
 14 32  1  1
M  ISO  8  23  14  24  14  26  13  27  13  28  13  29  13  30  13  31  13
M  ISO  1  32  13
M  END
>  <minimizedAffinity>  (1) 
-6.7868433

>  <minimizedRMSD>  (1) 
0.982032537

$$$$
