
     RDKit          3D

 27 28  0  0  0  0  0  0  0  0999 V2000
   45.1280   34.4180   41.1870 C   0  0  0  0  0  0  0  0  0  0  0  0
   45.5480   35.0230   42.3640 C   0  0  0  0  0  0  0  0  0  0  0  0
   46.9130   35.2480   42.5520 C   0  0  0  0  0  0  0  0  0  0  0  0
   47.8040   34.8720   41.5780 C   0  0  0  0  0  0  0  0  0  0  0  0
   47.4120   34.2730   40.4060 C   0  0  0  0  0  0  0  0  0  0  0  0
   46.0390   34.0640   40.2570 C   0  0  0  0  0  0  0  0  0  0  0  0
   41.4330   34.8430   40.5770 C   0  0  0  0  0  0  0  0  0  0  0  0
   42.7990   35.1740   40.6610 C   0  0  0  0  0  0  0  0  0  0  0  0
   43.6980   34.2130   41.0590 C   0  0  0  0  0  0  0  0  0  0  0  0
   43.1950   32.9760   41.3530 N   0  0  0  0  0  0  0  0  0  0  0  0
   41.8850   32.6670   41.2710 C   0  0  0  0  0  0  0  0  0  0  0  0
   40.9960   33.6100   40.8790 N   0  0  0  0  0  0  0  0  0  0  0  0
   40.4540   35.8700   40.1490 C   0  0  0  0  0  0  0  0  0  0  0  0
   39.2280   35.2250   39.9580 F   0  0  0  0  0  0  0  0  0  0  0  0
   40.8480   36.2990   38.8850 F   0  0  0  0  0  0  0  0  0  0  0  0
   40.3150   36.8960   41.0450 F   0  0  0  0  0  0  0  0  0  0  0  0
   45.4540   32.1440   38.5560 C   0  0  0  0  0  0  0  0  0  0  0  0
   45.9260   31.1330   39.0780 O   0  0  0  0  0  0  0  0  0  0  0  0
   45.5020   33.4550   39.0940 N   0  0  0  0  0  0  0  0  0  0  0  0
   44.8196   35.3192   43.1332 H   0  0  0  0  0  0  0  0  0  0  0  0
   47.2726   35.7242   43.4761 H   0  0  0  0  0  0  0  0  0  0  0  0
   48.8756   35.0580   41.7428 H   0  0  0  0  0  0  0  0  0  0  0  0
   48.1350   33.9760   39.6320 H   0  0  0  0  0  0  0  0  0  0  0  0
   43.1425   36.1887   40.4113 H   0  0  0  0  0  0  0  0  0  0  0  0
   41.5400   31.6530   41.5215 H   0  0  0  0  0  0  0  0  0  0  0  0
   44.9504   32.0186   37.5861 H   0  0  0  0  0  0  0  0  0  0  0  0
   45.0267   34.1378   38.4867 H   0  0  0  0  0  0  0  0  0  0  0  0
  1  2  2  0
  2  3  1  0
  4  3  2  0
  5  4  1  0
  6  5  2  0
  6  1  1  0
  7  8  2  0
  7 12  1  0
  8  9  1  0
  9  1  1  0
  9 10  2  0
 11 10  1  0
 12 11  2  0
 13  7  1  0
 13 16  1  0
 14 13  1  0
 15 13  1  0
 17 18  2  0
 17 19  1  0
 19  6  1  0
  2 20  1  0
  3 21  1  0
  4 22  1  0
  5 23  1  0
  8 24  1  0
 11 25  1  0
 17 26  1  0
 19 27  1  0
M  ISO  7  20  14  21  14  22  14  23  14  24  14  25  14  26   6
M  END
>  <minimizedAffinity>  (1) 
-5.4683218

>  <minimizedRMSD>  (1) 
4.3212676

$$$$
