
     RDKit          3D

 35 38  0  0  1  0  0  0  0  0999 V2000
   48.3110   34.1310   41.4800 C   0  0  1  0  0  0  0  0  0  0  0  0
   48.5040   35.5360   41.7870 C   0  0  0  0  0  0  0  0  0  0  0  0
   47.1080   34.9670   41.7810 C   0  0  2  0  0  0  0  0  0  0  0  0
   46.4690   34.7520   43.1010 C   0  0  0  0  0  0  0  0  0  0  0  0
   45.4090   35.4860   43.5960 C   0  0  0  0  0  0  0  0  0  0  0  0
   44.8560   35.2120   44.8330 C   0  0  0  0  0  0  0  0  0  0  0  0
   45.3600   34.1890   45.6030 C   0  0  0  0  0  0  0  0  0  0  0  0
   44.8500   33.8760   46.8260 N   0  0  0  0  0  0  0  0  0  0  0  0
   45.3580   32.8640   47.5650 C   0  0  0  0  0  0  0  0  0  0  0  0
   46.4310   32.0660   47.1420 C   0  0  0  0  0  0  0  0  0  0  0  0
   46.9730   32.3620   45.8950 C   0  0  0  0  0  0  0  0  0  0  0  0
   46.4320   33.4120   45.1530 C   0  0  0  0  0  0  0  0  0  0  0  0
   46.9450   33.7330   43.9070 C   0  0  0  0  0  0  0  0  0  0  0  0
   48.0940   34.4070   38.9840 C   0  0  0  0  0  0  0  0  0  0  0  0
   48.4760   33.6030   40.1010 C   0  0  0  0  0  0  0  0  0  0  0  0
   48.9890   32.3470   39.8540 C   0  0  0  0  0  0  0  0  0  0  0  0
   49.0940   31.9610   38.5450 N   0  0  0  0  0  0  0  0  0  0  0  0
   48.7320   32.7280   37.5050 C   0  0  0  0  0  0  0  0  0  0  0  0
   48.2260   33.9670   37.7270 N   0  0  0  0  0  0  0  0  0  0  0  0
   48.9340   32.1080   36.1590 C   0  0  0  0  0  0  0  0  0  0  0  0
   48.8600   33.0380   35.1360 F   0  0  0  0  0  0  0  0  0  0  0  0
   50.2060   31.5370   36.0950 F   0  0  0  0  0  0  0  0  0  0  0  0
   48.0170   31.1240   35.9420 F   0  0  0  0  0  0  0  0  0  0  0  0
   48.7521   33.2085   41.8856 H   0  0  0  0  0  0  0  0  0  0  0  0
   48.9720   35.8299   42.7381 H   0  0  0  0  0  0  0  0  0  0  0  0
   48.9986   36.3778   41.2803 H   0  0  0  0  0  0  0  0  0  0  0  0
   46.1605   35.2052   41.2754 H   0  0  0  0  0  0  0  0  0  0  0  0
   44.9954   36.3072   42.9923 H   0  0  0  0  0  0  0  0  0  0  0  0
   44.0118   35.8127   45.2023 H   0  0  0  0  0  0  0  0  0  0  0  0
   44.9073   32.6563   48.5467 H   0  0  0  0  0  0  0  0  0  0  0  0
   46.8239   31.2482   47.7640 H   0  0  0  0  0  0  0  0  0  0  0  0
   47.8161   31.7763   45.5000 H   0  0  0  0  0  0  0  0  0  0  0  0
   47.7896   33.1363   43.5322 H   0  0  0  0  0  0  0  0  0  0  0  0
   47.6817   35.4113   39.1610 H   0  0  0  0  0  0  0  0  0  0  0  0
   49.3006   31.6835   40.6742 H   0  0  0  0  0  0  0  0  0  0  0  0
  1  3  1  0
  1  2  1  0
  3  2  1  0
  3  4  1  0
  4  5  2  0
  4 13  1  0
  5  6  1  0
  6  7  2  0
  7  8  1  0
  8  9  2  0
 10  9  1  0
 11 10  2  0
 12  7  1  0
 12 11  1  0
 13 12  2  0
 14 15  2  0
 15  1  1  0
 16 15  1  0
 17 16  2  0
 18 19  2  0
 18 17  1  0
 19 14  1  0
 20 18  1  0
 21 20  1  0
 22 20  1  0
 23 20  1  0
  1 24  1  1
  2 25  1  0
  2 26  1  0
  3 27  1  6
  5 28  1  0
  6 29  1  0
  9 30  1  0
 10 31  1  0
 11 32  1  0
 13 33  1  0
 14 34  1  0
 16 35  1  0
M  ISO  8  24  13  25  13  26  13  27  13  28  14  29  14  30  14  31  14
M  ISO  4  32  14  33  14  34  14  35  14
M  END
>  <minimizedAffinity>  (1) 
-6.12912655

>  <minimizedRMSD>  (1) 
8.26498127

$$$$
