
     RDKit          3D

 26 28  0  0  0  0  0  0  0  0999 V2000
   48.2960   35.0330   40.7040 C   0  0  0  0  0  0  0  0  0  0  0  0
   47.2810   34.1350   40.9880 C   0  0  0  0  0  0  0  0  0  0  0  0
   46.7920   33.3470   39.9790 C   0  0  0  0  0  0  0  0  0  0  0  0
   47.2700   33.4060   38.6790 C   0  0  0  0  0  0  0  0  0  0  0  0
   46.9470   32.7420   37.5480 N   0  0  0  0  0  0  0  0  0  0  0  0
   47.7430   33.2040   36.5450 C   0  0  0  0  0  0  0  0  0  0  0  0
   48.5590   34.1620   37.0760 N   0  0  0  0  0  0  0  0  0  0  0  0
   48.2770   34.2930   38.3810 C   0  0  0  0  0  0  0  0  0  0  0  0
   48.7810   35.0950   39.3870 C   0  0  0  0  0  0  0  0  0  0  0  0
   45.5180   34.8410   44.2490 C   0  0  0  0  0  0  0  0  0  0  0  0
   45.9000   35.0120   42.8900 C   0  0  0  0  0  0  0  0  0  0  0  0
   46.7960   34.0910   42.3640 C   0  0  0  0  0  0  0  0  0  0  0  0
   47.2540   33.0990   43.1510 N   0  0  0  0  0  0  0  0  0  0  0  0
   46.8780   32.9520   44.4470 C   0  0  0  0  0  0  0  0  0  0  0  0
   46.0140   33.8270   44.9780 N   0  0  0  0  0  0  0  0  0  0  0  0
   44.5560   35.8340   44.8020 C   0  0  0  0  0  0  0  0  0  0  0  0
   43.3260   35.7110   44.1760 F   0  0  0  0  0  0  0  0  0  0  0  0
   44.3170   35.6220   46.1640 F   0  0  0  0  0  0  0  0  0  0  0  0
   44.9520   37.1350   44.6180 F   0  0  0  0  0  0  0  0  0  0  0  0
   48.7119   35.6812   41.4894 H   0  0  0  0  0  0  0  0  0  0  0  0
   45.9848   32.6365   40.2108 H   0  0  0  0  0  0  0  0  0  0  0  0
   46.2245   32.0132   37.4598 H   0  0  0  0  0  0  0  0  0  0  0  0
   47.7312   32.8672   35.4979 H   0  0  0  0  0  0  0  0  0  0  0  0
   49.5874   35.8043   39.1491 H   0  0  0  0  0  0  0  0  0  0  0  0
   45.5029   35.8381   42.2818 H   0  0  0  0  0  0  0  0  0  0  0  0
   47.2775   32.1254   45.0530 H   0  0  0  0  0  0  0  0  0  0  0  0
  1  2  2  0
  2 12  1  0
  3  2  1  0
  4  3  2  0
  5  4  1  0
  6  7  2  0
  6  5  1  0
  7  8  1  0
  8  4  1  0
  8  9  2  0
  9  1  1  0
 10 16  1  0
 10 15  2  0
 11 10  1  0
 12 11  2  0
 12 13  1  0
 13 14  2  0
 14 15  1  0
 16 18  1  0
 17 16  1  0
 19 16  1  0
  1 20  1  0
  3 21  1  0
  5 22  1  0
  6 23  1  0
  9 24  1  0
 11 25  1  0
 14 26  1  0
M  ISO  7  20  14  21  14  22   9  23  14  24  14  25  14  26  14
M  END
>  <minimizedAffinity>  (1) 
-5.4900012

>  <minimizedRMSD>  (1) 
1.60856009

$$$$
