
     RDKit          3D

 26 27  0  0  0  0  0  0  0  0999 V2000
   46.8080   34.3410   40.9590 C   0  0  0  0  0  0  0  0  0  0  0  0
   48.1810   34.1140   41.4490 C   0  0  0  0  0  0  0  0  0  0  0  0
   48.7780   32.8870   41.1370 C   0  0  0  0  0  0  0  0  0  0  0  0
   50.0640   32.6350   41.5760 C   0  0  0  0  0  0  0  0  0  0  0  0
   50.7100   33.5960   42.3020 N   0  0  0  0  0  0  0  0  0  0  0  0
   50.1030   34.7670   42.5840 C   0  0  0  0  0  0  0  0  0  0  0  0
   48.8600   35.0050   42.1570 N   0  0  0  0  0  0  0  0  0  0  0  0
   47.8720   31.6620   40.1760 S   0  0  0  0  0  0  0  0  0  0  0  0
   45.8400   34.7410   42.0340 C   0  0  0  0  0  0  0  0  0  0  0  0
   44.4330   34.8910   41.5580 C   0  0  0  0  0  0  0  0  0  0  0  0
   43.4190   35.3750   42.4470 C   0  0  0  0  0  0  0  0  0  0  0  0
   41.9130   35.3620   41.3630 S   0  0  0  0  0  0  0  0  0  0  0  0
   42.9230   34.7100   39.9190 C   0  0  0  0  0  0  0  0  0  0  0  0
   43.9690   34.6240   40.3580 N   0  0  0  0  0  0  0  0  0  0  0  0
   42.3490   34.4180   38.5640 C   0  0  0  0  0  0  0  0  0  0  0  0
   42.9740   33.3190   38.0200 F   0  0  0  0  0  0  0  0  0  0  0  0
   40.9720   34.2070   38.6540 F   0  0  0  0  0  0  0  0  0  0  0  0
   42.5110   35.5750   37.8630 F   0  0  0  0  0  0  0  0  0  0  0  0
   46.8370   35.1400   40.2035 H   0  0  0  0  0  0  0  0  0  0  0  0
   46.4525   33.3850   40.5471 H   0  0  0  0  0  0  0  0  0  0  0  0
   50.5580   31.6796   41.3456 H   0  0  0  0  0  0  0  0  0  0  0  0
   50.6352   35.5311   43.1696 H   0  0  0  0  0  0  0  0  0  0  0  0
   47.2326   30.7974   41.0249 H   0  0  0  0  0  0  0  0  0  0  0  0
   45.8591   33.9721   42.8204 H   0  0  0  0  0  0  0  0  0  0  0  0
   46.1597   35.7281   42.3993 H   0  0  0  0  0  0  0  0  0  0  0  0
   43.5099   35.6767   43.5009 H   0  0  0  0  0  0  0  0  0  0  0  0
  1  2  1  0
  1  9  1  0
  2  7  1  0
  3  2  2  0
  3  4  1  0
  4  5  2  0
  5  6  1  0
  7  6  2  0
  8  3  1  0
 10  9  1  0
 10 11  2  0
 12 11  1  0
 13 14  2  0
 13 12  1  0
 14 10  1  0
 15 17  1  0
 15 13  1  0
 16 15  1  0
 18 15  1  0
  1 19  1  0
  1 20  1  0
  4 21  1  0
  6 22  1  0
  8 23  1  0
  9 24  1  0
  9 25  1  0
 11 26  1  0
M  ISO  8  19   8  20   8  21  14  22  14  23  11  24   8  25   8  26  14
M  END
>  <minimizedAffinity>  (1) 
-4.26468229

>  <minimizedRMSD>  (1) 
0.696075141

$$$$
