
     RDKit          3D

 30 31  0  0  1  0  0  0  0  0999 V2000
   47.5910   33.4410   43.2370 N   0  0  0  0  0  0  0  0  0  0  0  0
   47.2430   32.5040   42.1900 C   0  0  0  0  0  0  0  0  0  0  0  0
   48.4320   32.0880   41.3870 C   0  0  0  0  0  0  0  0  0  0  0  0
   49.1980   33.1670   40.8970 N   0  0  0  0  0  0  0  0  0  0  0  0
   49.3550   34.2920   41.7520 C   0  0  2  0  0  0  0  0  0  0  0  0
   48.7920   34.2080   43.1130 C   0  0  0  0  0  0  0  0  0  0  0  0
   44.9030   34.5550   45.6020 C   0  0  0  0  0  0  0  0  0  0  0  0
   45.6570   34.4750   44.4260 C   0  0  0  0  0  0  0  0  0  0  0  0
   46.7610   33.6020   44.3720 C   0  0  0  0  0  0  0  0  0  0  0  0
   47.0060   32.8940   45.4930 N   0  0  0  0  0  0  0  0  0  0  0  0
   46.2660   32.9850   46.6160 C   0  0  0  0  0  0  0  0  0  0  0  0
   45.2160   33.8140   46.6760 N   0  0  0  0  0  0  0  0  0  0  0  0
   46.6210   32.1540   47.8120 C   0  0  0  0  0  0  0  0  0  0  0  0
   47.9370   32.3390   48.1490 F   0  0  0  0  0  0  0  0  0  0  0  0
   45.8450   32.5730   48.8790 F   0  0  0  0  0  0  0  0  0  0  0  0
   46.4340   30.8280   47.4960 F   0  0  0  0  0  0  0  0  0  0  0  0
   48.7010   35.4870   41.0610 C   0  0  0  0  0  0  0  0  0  0  0  0
   49.4880   36.6220   41.2240 F   0  0  0  0  0  0  0  0  0  0  0  0
   47.5330   35.7370   41.7650 F   0  0  0  0  0  0  0  0  0  0  0  0
   48.4980   35.2930   39.7340 F   0  0  0  0  0  0  0  0  0  0  0  0
   46.7952   31.6102   42.6489 H   0  0  0  0  0  0  0  0  0  0  0  0
   46.5352   33.0030   41.5117 H   0  0  0  0  0  0  0  0  0  0  0  0
   49.0784   31.4651   42.0228 H   0  0  0  0  0  0  0  0  0  0  0  0
   48.0503   31.5439   40.5105 H   0  0  0  0  0  0  0  0  0  0  0  0
   50.1389   32.8071   40.6822 H   0  0  0  0  0  0  0  0  0  0  0  0
   50.4413   34.3698   41.9069 H   0  0  0  0  0  0  0  0  0  0  0  0
   49.5521   33.7553   43.7667 H   0  0  0  0  0  0  0  0  0  0  0  0
   48.5228   35.2374   43.3922 H   0  0  0  0  0  0  0  0  0  0  0  0
   44.0403   35.2359   45.6468 H   0  0  0  0  0  0  0  0  0  0  0  0
   45.3902   35.0878   43.5523 H   0  0  0  0  0  0  0  0  0  0  0  0
  1  9  1  0
  2  1  1  0
  3  2  1  0
  4  3  1  0
  4  5  1  0
  5  6  1  0
  6  1  1  0
  7 12  2  0
  8  7  1  0
  9  8  2  0
  9 10  1  0
 10 11  2  0
 11 12  1  0
 11 13  1  0
 13 14  1  0
 13 15  1  0
 16 13  1  0
 17 18  1  0
 17  5  1  0
 17 19  1  0
 20 17  1  0
  2 21  1  0
  2 22  1  0
  3 23  1  0
  3 24  1  0
  4 25  1  0
  5 26  1  1
  6 27  1  0
  6 28  1  0
  7 29  1  0
  8 30  1  0
M  ISO  8  21  13  22  13  23  13  24  13  25   5  26  13  27  13  28  13
M  ISO  2  29  14  30  14
M  END
>  <minimizedAffinity>  (1) 
-5.88441038

>  <minimizedRMSD>  (1) 
0.471810371

$$$$
