
     RDKit          3D

 21 22  0  0  0  0  0  0  0  0999 V2000
   44.4310   35.8950   44.7380 C   0  0  0  0  0  0  0  0  0  0  0  0
   44.6460   35.5200   43.3990 C   0  0  0  0  0  0  0  0  0  0  0  0
   45.2430   34.3120   43.1510 C   0  0  0  0  0  0  0  0  0  0  0  0
   45.5920   33.5440   44.2480 N   0  0  0  0  0  0  0  0  0  0  0  0
   45.3720   33.9360   45.5090 C   0  0  0  0  0  0  0  0  0  0  0  0
   44.7900   35.1130   45.7530 N   0  0  0  0  0  0  0  0  0  0  0  0
   45.5060   33.8370   41.7720 C   0  0  0  0  0  0  0  0  0  0  0  0
   44.6620   33.0130   41.0990 C   0  0  0  0  0  0  0  0  0  0  0  0
   45.5120   32.7840   39.4780 S   0  0  0  0  0  0  0  0  0  0  0  0
   46.9210   33.9070   40.0470 C   0  0  0  0  0  0  0  0  0  0  0  0
   46.5650   34.1740   41.1000 N   0  0  0  0  0  0  0  0  0  0  0  0
   48.1110   34.2380   39.1920 C   0  0  0  0  0  0  0  0  0  0  0  0
   48.9990   33.2250   39.3710 F   0  0  0  0  0  0  0  0  0  0  0  0
   47.6920   34.4320   37.9100 F   0  0  0  0  0  0  0  0  0  0  0  0
   48.6310   35.4250   39.7140 F   0  0  0  0  0  0  0  0  0  0  0  0
   44.2270   36.4300   42.4070 N   0  0  0  0  0  0  0  0  0  0  0  0
   43.9525   36.8621   44.9518 H   0  0  0  0  0  0  0  0  0  0  0  0
   45.6711   33.2875   46.3456 H   0  0  0  0  0  0  0  0  0  0  0  0
   43.7061   32.5867   41.4375 H   0  0  0  0  0  0  0  0  0  0  0  0
   44.3611   36.2040   41.4111 H   0  0  0  0  0  0  0  0  0  0  0  0
   43.7867   37.3208   42.6782 H   0  0  0  0  0  0  0  0  0  0  0  0
  1  6  2  0
  2  1  1  0
  3  2  2  0
  3  4  1  0
  4  5  2  0
  5  6  1  0
  7  3  1  0
  8  7  2  0
  9 10  1  0
  9  8  1  0
 10 11  2  0
 11  7  1  0
 12 13  1  0
 12 15  1  0
 12 10  1  0
 14 12  1  0
 16  2  1  0
  1 17  1  0
  5 18  1  0
  8 19  1  0
 16 20  1  0
 16 21  1  0
M  ISO  3  17  14  18  14  19  14
M  END
>  <minimizedAffinity>  (1) 
-4.75736618

>  <minimizedRMSD>  (1) 
2.05853939

$$$$
