
     RDKit          3D

 26 28  0  0  0  0  0  0  0  0999 V2000
   47.2630   31.3930   45.1660 C   0  0  0  0  0  0  0  0  0  0  0  0
   46.8750   32.7070   45.1300 C   0  0  0  0  0  0  0  0  0  0  0  0
   46.2340   33.3310   46.1960 C   0  0  0  0  0  0  0  0  0  0  0  0
   45.9640   32.6130   47.3600 C   0  0  0  0  0  0  0  0  0  0  0  0
   45.3850   32.8580   48.5560 N   0  0  0  0  0  0  0  0  0  0  0  0
   45.4160   31.7290   49.3030 C   0  0  0  0  0  0  0  0  0  0  0  0
   46.0210   30.7870   48.5540 N   0  0  0  0  0  0  0  0  0  0  0  0
   46.3750   31.2820   47.3540 C   0  0  0  0  0  0  0  0  0  0  0  0
   47.0050   30.6590   46.3130 C   0  0  0  0  0  0  0  0  0  0  0  0
   46.4870   35.1940   42.4350 C   0  0  0  0  0  0  0  0  0  0  0  0
   47.6670   35.0260   41.7030 C   0  0  0  0  0  0  0  0  0  0  0  0
   48.5830   34.0600   42.1440 C   0  0  0  0  0  0  0  0  0  0  0  0
   48.2790   33.3310   43.2640 N   0  0  0  0  0  0  0  0  0  0  0  0
   47.1240   33.5250   43.9460 C   0  0  0  0  0  0  0  0  0  0  0  0
   46.2550   34.4420   43.5280 N   0  0  0  0  0  0  0  0  0  0  0  0
   47.3960   29.2220   46.4300 C   0  0  0  0  0  0  0  0  0  0  0  0
   46.2640   28.4730   46.6650 F   0  0  0  0  0  0  0  0  0  0  0  0
   48.0110   28.7940   45.2760 F   0  0  0  0  0  0  0  0  0  0  0  0
   48.2570   29.0380   47.4910 F   0  0  0  0  0  0  0  0  0  0  0  0
   47.7676   30.9315   44.3043 H   0  0  0  0  0  0  0  0  0  0  0  0
   45.9410   34.3886   46.1203 H   0  0  0  0  0  0  0  0  0  0  0  0
   44.9841   33.7594   48.8521 H   0  0  0  0  0  0  0  0  0  0  0  0
   45.0235   31.6052   50.3231 H   0  0  0  0  0  0  0  0  0  0  0  0
   45.7463   35.9425   42.1170 H   0  0  0  0  0  0  0  0  0  0  0  0
   47.8703   35.6332   40.8086 H   0  0  0  0  0  0  0  0  0  0  0  0
   49.5254   33.8910   41.6025 H   0  0  0  0  0  0  0  0  0  0  0  0
  1  9  2  0
  2  1  1  0
  2  3  2  0
  3  4  1  0
  4  5  1  0
  5  6  1  0
  7  6  2  0
  8  4  2  0
  8  7  1  0
  9 16  1  0
  9  8  1  0
 10 15  2  0
 11 12  2  0
 11 10  1  0
 12 13  1  0
 13 14  2  0
 14  2  1  0
 15 14  1  0
 16 17  1  0
 16 19  1  0
 18 16  1  0
  1 20  1  0
  3 21  1  0
  5 22  1  0
  6 23  1  0
 10 24  1  0
 11 25  1  0
 12 26  1  0
M  ISO  7  20  14  21  14  22   9  23  14  24  14  25  14  26  14
M  END
>  <minimizedAffinity>  (1) 
-5.14266443

>  <minimizedRMSD>  (1) 
0.178693041

$$$$
