
     RDKit          3D

 36 38  0  0  0  0  0  0  0  0999 V2000
   45.1420   33.9480   40.7000 C   0  0  0  0  0  0  0  0  0  0  0  0
   44.0940   33.6380   39.8780 C   0  0  0  0  0  0  0  0  0  0  0  0
   44.4000   33.1430   38.6440 C   0  0  0  0  0  0  0  0  0  0  0  0
   45.6730   32.9430   38.1850 C   0  0  0  0  0  0  0  0  0  0  0  0
   46.7090   33.2630   39.0320 C   0  0  0  0  0  0  0  0  0  0  0  0
   46.4680   33.7690   40.2990 C   0  0  0  0  0  0  0  0  0  0  0  0
   40.8110   35.2550   40.7990 C   0  0  0  0  0  0  0  0  0  0  0  0
   42.1120   35.0960   40.2710 C   0  0  0  0  0  0  0  0  0  0  0  0
   42.7600   33.8620   40.3970 C   0  0  0  0  0  0  0  0  0  0  0  0
   42.0530   32.8880   41.0390 N   0  0  0  0  0  0  0  0  0  0  0  0
   40.8270   33.0650   41.5280 C   0  0  0  0  0  0  0  0  0  0  0  0
   40.2090   34.2370   41.4100 N   0  0  0  0  0  0  0  0  0  0  0  0
   40.2170   36.5360   40.6330 N   0  0  0  0  0  0  0  0  0  0  0  0
   47.6220   34.0780   41.1150 C   0  0  0  0  0  0  0  0  0  0  0  0
   48.1250   35.3600   40.9620 C   0  0  0  0  0  0  0  0  0  0  0  0
   49.2280   35.8510   41.6590 C   0  0  0  0  0  0  0  0  0  0  0  0
   49.8410   34.9950   42.5480 C   0  0  0  0  0  0  0  0  0  0  0  0
   49.3550   33.7160   42.7140 C   0  0  0  0  0  0  0  0  0  0  0  0
   48.2480   33.2470   42.0050 C   0  0  0  0  0  0  0  0  0  0  0  0
   47.7310   31.8660   42.1700 C   0  0  0  0  0  0  0  0  0  0  0  0
   47.9020   31.1700   40.9950 F   0  0  0  0  0  0  0  0  0  0  0  0
   46.4680   31.8140   42.6870 F   0  0  0  0  0  0  0  0  0  0  0  0
   48.5690   31.2350   43.0970 F   0  0  0  0  0  0  0  0  0  0  0  0
   44.7430   34.8960   43.1070 N   0  0  0  0  0  0  0  0  0  0  0  0
   44.9190   34.4820   42.0270 C   0  0  0  0  0  0  0  0  0  0  0  0
   43.5668   32.8875   37.9729 H   0  0  0  0  0  0  0  0  0  0  0  0
   45.8611   32.5420   37.1781 H   0  0  0  0  0  0  0  0  0  0  0  0
   47.7463   33.1145   38.6975 H   0  0  0  0  0  0  0  0  0  0  0  0
   42.6114   35.9354   39.7650 H   0  0  0  0  0  0  0  0  0  0  0  0
   40.3191   32.2318   42.0357 H   0  0  0  0  0  0  0  0  0  0  0  0
   40.7340   37.2848   40.1505 H   0  0  0  0  0  0  0  0  0  0  0  0
   39.2696   36.7152   40.9953 H   0  0  0  0  0  0  0  0  0  0  0  0
   47.6241   36.0303   40.2480 H   0  0  0  0  0  0  0  0  0  0  0  0
   49.5932   36.8773   41.5059 H   0  0  0  0  0  0  0  0  0  0  0  0
   50.7159   35.3316   43.1236 H   0  0  0  0  0  0  0  0  0  0  0  0
   49.8550   33.0442   43.4272 H   0  0  0  0  0  0  0  0  0  0  0  0
  1 25  1  0
  2  9  1  0
  2  1  2  0
  3  2  1  0
  4  3  2  0
  4  5  1  0
  5  6  2  0
  6  1  1  0
  6 14  1  0
  7 12  2  0
  8  9  2  0
  8  7  1  0
  9 10  1  0
 10 11  2  0
 12 11  1  0
 13  7  1  0
 14 19  1  0
 15 14  2  0
 15 16  1  0
 16 17  2  0
 17 18  1  0
 19 20  1  0
 19 18  2  0
 20 22  1  0
 20 23  1  0
 21 20  1  0
 25 24  3  0
  3 26  1  0
  4 27  1  0
  5 28  1  0
  8 29  1  0
 11 30  1  0
 13 31  1  0
 13 32  1  0
 15 33  1  0
 16 34  1  0
 17 35  1  0
 18 36  1  0
M  ISO  8  26  14  27  14  28  14  29  14  30  14  33  14  34  14  35  14
M  ISO  1  36  14
M  END
>  <minimizedAffinity>  (1) 
-5.98202085

>  <minimizedRMSD>  (1) 
0.311287791

$$$$
