
     RDKit          3D

 27 28  0  0  1  0  0  0  0  0999 V2000
   46.7940   32.5910   45.6740 C   0  0  2  0  0  0  0  0  0  0  0  0
   47.2520   31.7160   44.5680 C   0  0  0  0  0  0  0  0  0  0  0  0
   46.4290   30.4830   44.3830 C   0  0  0  0  0  0  0  0  0  0  0  0
   46.5410   29.7470   45.7070 C   0  0  0  0  0  0  0  0  0  0  0  0
   45.8480   30.4950   46.7880 C   0  0  0  0  0  0  0  0  0  0  0  0
   45.9910   31.9930   46.7400 C   0  0  0  0  0  0  0  0  0  0  0  0
   44.5690   35.5090   45.2290 C   0  0  0  0  0  0  0  0  0  0  0  0
   44.8350   35.9100   43.9020 C   0  0  0  0  0  0  0  0  0  0  0  0
   45.7820   35.1540   43.1840 C   0  0  0  0  0  0  0  0  0  0  0  0
   46.3860   34.0970   43.7870 N   0  0  0  0  0  0  0  0  0  0  0  0
   46.1060   33.7440   45.0560 C   0  0  0  0  0  0  0  0  0  0  0  0
   45.2060   34.4520   45.7550 N   0  0  0  0  0  0  0  0  0  0  0  0
   45.2200   32.5750   47.8640 C   0  0  0  0  0  0  0  0  0  0  0  0
   46.0810   32.8360   48.9420 F   0  0  0  0  0  0  0  0  0  0  0  0
   44.4800   33.6730   47.5780 F   0  0  0  0  0  0  0  0  0  0  0  0
   44.3200   31.6540   48.4090 F   0  0  0  0  0  0  0  0  0  0  0  0
   47.6993   32.8719   46.2322 H   0  0  0  0  0  0  0  0  0  0  0  0
   47.2203   32.2956   43.6336 H   0  0  0  0  0  0  0  0  0  0  0  0
   48.2676   31.3827   44.8279 H   0  0  0  0  0  0  0  0  0  0  0  0
   45.3816   30.7432   44.1705 H   0  0  0  0  0  0  0  0  0  0  0  0
   46.7750   29.8731   43.5355 H   0  0  0  0  0  0  0  0  0  0  0  0
   46.0828   28.7521   45.6062 H   0  0  0  0  0  0  0  0  0  0  0  0
   47.6052   29.6542   45.9694 H   0  0  0  0  0  0  0  0  0  0  0  0
   45.2680   29.9870   47.5726 H   0  0  0  0  0  0  0  0  0  0  0  0
   43.8372   36.0649   45.8336 H   0  0  0  0  0  0  0  0  0  0  0  0
   44.3259   36.7736   43.4492 H   0  0  0  0  0  0  0  0  0  0  0  0
   46.0301   35.4169   42.1451 H   0  0  0  0  0  0  0  0  0  0  0  0
  1  6  1  0
  2  1  1  0
  3  2  1  0
  3  4  1  0
  4  5  1  0
  6  5  2  0
  6 13  1  0
  7 12  2  0
  8  7  1  0
  9 10  1  0
  9  8  2  0
 10 11  2  0
 11  1  1  0
 11 12  1  0
 13 16  1  0
 13 14  1  0
 15 13  1  0
  1 17  1  1
  2 18  1  0
  2 19  1  0
  3 20  1  0
  3 21  1  0
  4 22  1  0
  4 23  1  0
  5 24  1  0
  7 25  1  0
  8 26  1  0
  9 27  1  0
M  ISO  8  17  13  18  13  19  13  20  13  21  13  22  13  23  13  24  13
M  ISO  3  25  14  26  14  27  14
M  END
>  <minimizedAffinity>  (1) 
-5.06842947

>  <minimizedRMSD>  (1) 
1.43442798

$$$$
