
     RDKit          3D

 35 37  0  0  1  0  0  0  0  0999 V2000
   49.6200   33.4890   41.4800 N   0  0  0  0  0  0  0  0  0  0  0  0
   50.7190   33.0640   42.3130 C   0  0  0  0  0  0  0  0  0  0  0  0
   51.2850   31.7290   42.0260 C   0  0  0  0  0  0  0  0  0  0  0  0
   50.2440   30.6570   42.1680 C   0  0  0  0  0  0  0  0  0  0  0  0
   48.8710   31.1610   41.9090 C   0  0  0  0  0  0  0  0  0  0  0  0
   48.9300   32.3310   40.9770 C   0  0  2  0  0  0  0  0  0  0  0  0
   47.3710   34.6490   41.9580 C   0  0  1  0  0  0  0  0  0  0  0  0
   48.4240   35.6490   41.7150 C   0  0  0  0  0  0  0  0  0  0  0  0
   48.7950   34.3330   42.2900 C   0  0  2  0  0  0  0  0  0  0  0  0
   45.5840   36.0160   43.1110 C   0  0  0  0  0  0  0  0  0  0  0  0
   46.4150   34.8700   43.0820 C   0  0  0  0  0  0  0  0  0  0  0  0
   46.3050   33.9550   44.1400 C   0  0  0  0  0  0  0  0  0  0  0  0
   45.4110   34.2190   45.1250 N   0  0  0  0  0  0  0  0  0  0  0  0
   44.6300   35.3280   45.1200 C   0  0  0  0  0  0  0  0  0  0  0  0
   44.7110   36.2390   44.1090 N   0  0  0  0  0  0  0  0  0  0  0  0
   49.1040   32.0220   39.5340 C   0  0  0  0  0  0  0  0  0  0  0  0
   48.3750   30.8840   39.1510 F   0  0  0  0  0  0  0  0  0  0  0  0
   48.5210   33.0220   38.7250 F   0  0  0  0  0  0  0  0  0  0  0  0
   50.4020   31.9660   39.0870 F   0  0  0  0  0  0  0  0  0  0  0  0
   51.5278   33.8012   42.2013 H   0  0  0  0  0  0  0  0  0  0  0  0
   50.3039   32.9924   43.3292 H   0  0  0  0  0  0  0  0  0  0  0  0
   52.1056   31.5280   42.7304 H   0  0  0  0  0  0  0  0  0  0  0  0
   51.6536   31.7220   40.9896 H   0  0  0  0  0  0  0  0  0  0  0  0
   50.4657   29.8525   41.4513 H   0  0  0  0  0  0  0  0  0  0  0  0
   50.2770   30.2938   43.2058 H   0  0  0  0  0  0  0  0  0  0  0  0
   48.2678   30.3614   41.4542 H   0  0  0  0  0  0  0  0  0  0  0  0
   48.4131   31.4747   42.8587 H   0  0  0  0  0  0  0  0  0  0  0  0
   47.8858   32.6770   40.9750 H   0  0  0  0  0  0  0  0  0  0  0  0
   46.5900   34.1802   41.3414 H   0  0  0  0  0  0  0  0  0  0  0  0
   48.7154   35.8980   40.6840 H   0  0  0  0  0  0  0  0  0  0  0  0
   48.5803   36.6956   42.0154 H   0  0  0  0  0  0  0  0  0  0  0  0
   49.2778   33.9403   43.1970 H   0  0  0  0  0  0  0  0  0  0  0  0
   45.6548   36.7465   42.2917 H   0  0  0  0  0  0  0  0  0  0  0  0
   46.9270   33.0482   44.1697 H   0  0  0  0  0  0  0  0  0  0  0  0
   43.9207   35.4948   45.9440 H   0  0  0  0  0  0  0  0  0  0  0  0
  1  9  1  0
  1  2  1  0
  3  4  1  0
  3  2  1  0
  5  4  1  0
  6  1  1  0
  6  5  1  0
  7  9  1  0
  7 11  1  0
  8  7  1  0
  8  9  1  0
 10 15  2  0
 11 10  1  0
 11 12  2  0
 12 13  1  0
 14 13  2  0
 15 14  1  0
 16  6  1  0
 17 16  1  0
 18 16  1  0
 19 16  1  0
  2 20  1  0
  2 21  1  0
  3 22  1  0
  3 23  1  0
  4 24  1  0
  4 25  1  0
  5 26  1  0
  5 27  1  0
  6 28  1  6
  7 29  1  6
  8 30  1  0
  8 31  1  0
  9 32  1  1
 10 33  1  0
 12 34  1  0
 14 35  1  0
M  ISO  8  20  13  21  13  22  13  23  13  24  13  25  13  26  13  27  13
M  ISO  8  28  13  29  13  30  13  31  13  32  13  33  14  34  14  35  14
M  END
>  <minimizedAffinity>  (1) 
-4.77696943

>  <minimizedRMSD>  (1) 
0.657747507

$$$$
