
     RDKit          3D

 38 40  0  0  1  0  0  0  0  0999 V2000
   43.4460   34.5020   40.5310 C   0  0  0  0  0  0  0  0  0  0  0  0
   43.1390   35.7360   40.5780 O   0  0  0  0  0  0  0  0  0  0  0  0
   42.4020   34.0130   39.6500 N   0  0  0  0  0  0  0  0  0  0  0  0
   42.3800   34.6170   38.3380 C   0  0  0  0  0  0  0  0  0  0  0  0
   41.2770   35.6860   38.4110 C   0  0  0  0  0  0  0  0  0  0  0  0
   40.1790   35.1060   39.3040 C   0  0  0  0  0  0  0  0  0  0  0  0
   40.1300   33.5790   39.2160 C   0  0  0  0  0  0  0  0  0  0  0  0
   41.3810   33.0120   39.8900 C   0  0  2  0  0  0  0  0  0  0  0  0
   41.1600   32.7460   41.3510 C   0  0  0  0  0  0  0  0  0  0  0  0
   42.1940   32.0990   41.9710 F   0  0  0  0  0  0  0  0  0  0  0  0
   39.9520   32.1110   41.4770 F   0  0  0  0  0  0  0  0  0  0  0  0
   41.0440   33.9960   41.9540 F   0  0  0  0  0  0  0  0  0  0  0  0
   44.4850   33.8530   41.1540 O   0  0  0  0  0  0  0  0  0  0  0  0
   45.8210   34.1670   41.0330 C   0  0  0  0  0  0  0  0  0  0  0  0
   46.4540   34.7740   42.1360 C   0  0  0  0  0  0  0  0  0  0  0  0
   47.8190   35.0840   41.9850 C   0  0  0  0  0  0  0  0  0  0  0  0
   48.4360   34.7870   40.8100 N   0  0  0  0  0  0  0  0  0  0  0  0
   47.7870   34.2150   39.8020 C   0  0  0  0  0  0  0  0  0  0  0  0
   46.4770   33.9030   39.9100 N   0  0  0  0  0  0  0  0  0  0  0  0
   45.7070   35.0470   43.3400 C   0  0  0  0  0  0  0  0  0  0  0  0
   45.0390   36.2400   43.5620 C   0  0  0  0  0  0  0  0  0  0  0  0
   44.4740   36.0730   44.8080 C   0  0  0  0  0  0  0  0  0  0  0  0
   44.7780   34.8550   45.3110 N   0  0  0  0  0  0  0  0  0  0  0  0
   45.5220   34.2600   44.4040 N   0  0  0  0  0  0  0  0  0  0  0  0
   42.1406   33.8662   37.5706 H   0  0  0  0  0  0  0  0  0  0  0  0
   43.3549   35.0469   38.0644 H   0  0  0  0  0  0  0  0  0  0  0  0
   41.6738   36.6140   38.8485 H   0  0  0  0  0  0  0  0  0  0  0  0
   40.8914   35.9330   37.4108 H   0  0  0  0  0  0  0  0  0  0  0  0
   40.3754   35.3975   40.3463 H   0  0  0  0  0  0  0  0  0  0  0  0
   39.2116   35.5018   38.9613 H   0  0  0  0  0  0  0  0  0  0  0  0
   39.2312   33.2067   39.7294 H   0  0  0  0  0  0  0  0  0  0  0  0
   40.0944   33.2638   38.1627 H   0  0  0  0  0  0  0  0  0  0  0  0
   41.6701   32.0318   39.4830 H   0  0  0  0  0  0  0  0  0  0  0  0
   48.3778   35.5591   42.8048 H   0  0  0  0  0  0  0  0  0  0  0  0
   48.3230   33.9926   38.8675 H   0  0  0  0  0  0  0  0  0  0  0  0
   44.9746   37.1155   42.8992 H   0  0  0  0  0  0  0  0  0  0  0  0
   43.8601   36.8269   45.3226 H   0  0  0  0  0  0  0  0  0  0  0  0
   44.4858   34.4707   46.2209 H   0  0  0  0  0  0  0  0  0  0  0  0
  1  2  2  0
  1 13  1  0
  3  8  1  0
  3  1  1  0
  4  5  1  0
  4  3  1  0
  5  6  1  0
  7  6  1  0
  7  8  1  0
  8  9  1  0
  9 11  1  0
  9 12  1  0
  9 10  1  0
 14 13  1  0
 14 15  1  0
 15 20  1  0
 16 15  2  0
 17 16  1  0
 18 19  1  0
 18 17  2  0
 19 14  2  0
 20 21  1  0
 20 24  2  0
 21 22  2  0
 22 23  1  0
 24 23  1  0
  4 25  1  0
  4 26  1  0
  5 27  1  0
  5 28  1  0
  6 29  1  0
  6 30  1  0
  7 31  1  0
  7 32  1  0
  8 33  1  6
 16 34  1  0
 18 35  1  0
 21 36  1  0
 22 37  1  0
 23 38  1  0
M  ISO  8  25  13  26  13  27  13  28  13  29  13  30  13  31  13  32  13
M  ISO  6  33  13  34  14  35  14  36  14  37  14  38   9
M  END
>  <minimizedAffinity>  (1) 
-6.29524899

>  <minimizedRMSD>  (1) 
0.891431272

$$$$
