
     RDKit          3D

 22 23  0  0  0  0  0  0  0  0999 V2000
   45.6130   33.9700   45.4840 C   0  0  0  0  0  0  0  0  0  0  0  0
   44.6900   35.0130   45.7190 C   0  0  0  0  0  0  0  0  0  0  0  0
   44.5010   35.9510   44.7030 C   0  0  0  0  0  0  0  0  0  0  0  0
   45.2190   35.8090   43.5420 N   0  0  0  0  0  0  0  0  0  0  0  0
   46.0880   34.7960   43.3640 C   0  0  0  0  0  0  0  0  0  0  0  0
   46.2880   33.8880   44.3140 N   0  0  0  0  0  0  0  0  0  0  0  0
   46.8140   34.7090   42.1050 C   0  0  0  0  0  0  0  0  0  0  0  0
   47.9960   35.3780   41.9220 C   0  0  0  0  0  0  0  0  0  0  0  0
   48.7500   35.3550   40.7690 C   0  0  0  0  0  0  0  0  0  0  0  0
   48.2120   34.5690   39.7510 C   0  0  0  0  0  0  0  0  0  0  0  0
   47.0180   33.8810   39.9090 C   0  0  0  0  0  0  0  0  0  0  0  0
   46.3390   33.9630   41.0860 N   0  0  0  0  0  0  0  0  0  0  0  0
   45.8690   32.9240   46.5260 C   0  0  0  0  0  0  0  0  0  0  0  0
   45.7020   31.6740   46.0080 F   0  0  0  0  0  0  0  0  0  0  0  0
   44.9860   33.1740   47.5620 F   0  0  0  0  0  0  0  0  0  0  0  0
   47.1360   33.0540   47.0380 F   0  0  0  0  0  0  0  0  0  0  0  0
   44.1398   35.0835   46.6689 H   0  0  0  0  0  0  0  0  0  0  0  0
   43.7937   36.7839   44.8297 H   0  0  0  0  0  0  0  0  0  0  0  0
   48.3724   35.9807   42.7617 H   0  0  0  0  0  0  0  0  0  0  0  0
   49.6944   35.9087   40.6611 H   0  0  0  0  0  0  0  0  0  0  0  0
   48.7500   34.4922   38.7946 H   0  0  0  0  0  0  0  0  0  0  0  0
   46.6206   33.2704   39.0849 H   0  0  0  0  0  0  0  0  0  0  0  0
  1  2  2  0
  1 13  1  0
  3  2  1  0
  4  3  2  0
  5  4  1  0
  5  6  2  0
  6  1  1  0
  7  5  1  0
  8  7  2  0
  9  8  1  0
 10 11  1  0
 10  9  2  0
 11 12  2  0
 12  7  1  0
 13 16  1  0
 13 15  1  0
 14 13  1  0
  2 17  1  0
  3 18  1  0
  8 19  1  0
  9 20  1  0
 10 21  1  0
 11 22  1  0
M  ISO  6  17  14  18  14  19  14  20  14  21  14  22  14
M  END
>  <minimizedAffinity>  (1) 
-5.69048405

>  <minimizedRMSD>  (1) 
0.138402119

$$$$
