
     RDKit          3D

 35 37  0  0  0  0  0  0  0  0999 V2000
   47.8930   33.7730   42.8790 C   0  0  0  0  0  0  0  0  0  0  0  0
   48.5880   34.9880   42.6670 C   0  0  0  0  0  0  0  0  0  0  0  0
   49.9560   34.9680   42.3550 C   0  0  0  0  0  0  0  0  0  0  0  0
   50.5430   33.7310   42.2730 N   0  0  0  0  0  0  0  0  0  0  0  0
   49.8450   32.5710   42.4850 C   0  0  0  0  0  0  0  0  0  0  0  0
   48.5380   32.6010   42.7820 N   0  0  0  0  0  0  0  0  0  0  0  0
   46.4630   33.9100   43.2080 C   0  0  0  0  0  0  0  0  0  0  0  0
   45.7730   34.9330   42.4240 C   0  0  0  0  0  0  0  0  0  0  0  0
   45.3350   36.1160   43.2090 C   0  0  0  0  0  0  0  0  0  0  0  0
   44.5200   35.7560   44.4360 C   0  0  0  0  0  0  0  0  0  0  0  0
   44.9810   34.5080   45.1280 C   0  0  0  0  0  0  0  0  0  0  0  0
   46.4070   34.1570   44.7250 C   0  0  0  0  0  0  0  0  0  0  0  0
   50.6180   31.3520   42.3760 C   0  0  0  0  0  0  0  0  0  0  0  0
   51.5510   31.2950   41.3860 N   0  0  0  0  0  0  0  0  0  0  0  0
   52.1870   30.1190   41.4170 C   0  0  0  0  0  0  0  0  0  0  0  0
   51.6370   29.4340   42.4480 N   0  0  0  0  0  0  0  0  0  0  0  0
   50.6790   30.1780   43.0370 N   0  0  0  0  0  0  0  0  0  0  0  0
   51.9510   28.1060   42.9280 C   0  0  0  0  0  0  0  0  0  0  0  0
   52.2270   27.2810   41.8720 F   0  0  0  0  0  0  0  0  0  0  0  0
   53.0000   28.2070   43.8300 F   0  0  0  0  0  0  0  0  0  0  0  0
   50.9040   27.5410   43.6260 F   0  0  0  0  0  0  0  0  0  0  0  0
   48.0559   35.9474   42.7468 H   0  0  0  0  0  0  0  0  0  0  0  0
   50.5262   35.8933   42.1855 H   0  0  0  0  0  0  0  0  0  0  0  0
   45.9131   32.9964   42.9380 H   0  0  0  0  0  0  0  0  0  0  0  0
   46.4548   35.2783   41.6329 H   0  0  0  0  0  0  0  0  0  0  0  0
   44.8604   34.4631   42.0285 H   0  0  0  0  0  0  0  0  0  0  0  0
   46.2285   36.6693   43.5338 H   0  0  0  0  0  0  0  0  0  0  0  0
   44.6880   36.7187   42.5546 H   0  0  0  0  0  0  0  0  0  0  0  0
   44.5819   36.5906   45.1498 H   0  0  0  0  0  0  0  0  0  0  0  0
   43.4919   35.5689   44.0924 H   0  0  0  0  0  0  0  0  0  0  0  0
   44.9427   34.6647   46.2161 H   0  0  0  0  0  0  0  0  0  0  0  0
   44.3194   33.6794   44.8350 H   0  0  0  0  0  0  0  0  0  0  0  0
   46.7255   33.2483   45.2568 H   0  0  0  0  0  0  0  0  0  0  0  0
   47.0780   34.9883   44.9869 H   0  0  0  0  0  0  0  0  0  0  0  0
   52.9892   29.7790   40.7455 H   0  0  0  0  0  0  0  0  0  0  0  0
  1  7  1  0
  2  1  2  0
  3  2  1  0
  4  3  2  0
  4  5  1  0
  5  6  2  0
  6  1  1  0
  7 12  1  0
  8  7  1  0
  8  9  1  0
  9 10  1  0
 10 11  1  0
 12 11  1  0
 13  5  1  0
 13 17  2  0
 14 15  2  0
 14 13  1  0
 15 16  1  0
 16 18  1  0
 16 17  1  0
 18 21  1  0
 18 20  1  0
 19 18  1  0
  2 22  1  0
  3 23  1  0
  7 24  1  0
  8 25  1  0
  8 26  1  0
  9 27  1  0
  9 28  1  0
 10 29  1  0
 10 30  1  0
 11 31  1  0
 11 32  1  0
 12 33  1  0
 12 34  1  0
 15 35  1  0
M  ISO  8  22  14  23  14  24  13  25  13  26  13  27  13  28  13  29  13
M  ISO  6  30  13  31  13  32  13  33  13  34  13  35  14
M  END
>  <minimizedAffinity>  (1) 
-4.20454741

>  <minimizedRMSD>  (1) 
0.284388006

$$$$
