
     RDKit          3D

 39 41  0  0  0  0  0  0  0  0999 V2000
   45.0460   35.4290   43.3930 C   0  0  0  0  0  0  0  0  0  0  0  0
   45.4940   34.1190   43.4340 C   0  0  0  0  0  0  0  0  0  0  0  0
   45.4960   33.4320   44.6230 C   0  0  0  0  0  0  0  0  0  0  0  0
   45.0380   34.1090   45.7370 N   0  0  0  0  0  0  0  0  0  0  0  0
   44.6110   35.3660   45.6920 C   0  0  0  0  0  0  0  0  0  0  0  0
   44.6200   36.0180   44.5090 N   0  0  0  0  0  0  0  0  0  0  0  0
   45.9190   32.0980   44.8320 C   0  0  0  0  0  0  0  0  0  0  0  0
   45.6400   31.0430   43.9570 C   0  0  0  0  0  0  0  0  0  0  0  0
   45.9880   29.7390   44.1880 C   0  0  0  0  0  0  0  0  0  0  0  0
   46.6560   29.4070   45.3440 C   0  0  0  0  0  0  0  0  0  0  0  0
   46.9500   30.4650   46.2470 C   0  0  0  0  0  0  0  0  0  0  0  0
   47.6100   30.1490   47.4050 C   0  0  0  0  0  0  0  0  0  0  0  0
   47.9270   31.1240   48.3270 C   0  0  0  0  0  0  0  0  0  0  0  0
   47.5670   32.4600   48.0680 C   0  0  0  0  0  0  0  0  0  0  0  0
   46.8900   32.7350   46.8660 C   0  0  0  0  0  0  0  0  0  0  0  0
   46.5870   31.7430   45.9750 C   0  0  0  0  0  0  0  0  0  0  0  0
   45.9150   33.5660   42.2590 O   0  0  0  0  0  0  0  0  0  0  0  0
   48.3020   32.5860   41.8120 O   0  0  0  0  0  0  0  0  0  0  0  0
   47.4550   33.7880   41.5870 P   0  0  1  0  0  0  0  0  0  0  0  0
   47.3560   34.0210   39.9140 O   0  0  0  0  0  0  0  0  0  0  0  0
   46.2980   33.3140   39.3560 C   0  0  0  0  0  0  0  0  0  0  0  0
   46.4060   33.4460   37.9770 F   0  0  0  0  0  0  0  0  0  0  0  0
   46.3230   31.9810   39.6950 F   0  0  0  0  0  0  0  0  0  0  0  0
   45.1350   33.9530   39.7420 F   0  0  0  0  0  0  0  0  0  0  0  0
   48.1400   35.1520   42.2820 O   0  0  0  0  0  0  0  0  0  0  0  0
   49.4480   35.5860   42.1400 C   0  0  0  0  0  0  0  0  0  0  0  0
   49.3840   36.5200   41.3220 O   0  0  0  0  0  0  0  0  0  0  0  0
   50.3400   34.8100   42.9700 N   0  0  0  0  0  0  0  0  0  0  0  0
   45.0421   35.9812   42.4417 H   0  0  0  0  0  0  0  0  0  0  0  0
   44.2556   35.8682   46.6039 H   0  0  0  0  0  0  0  0  0  0  0  0
   45.1068   31.2758   43.0234 H   0  0  0  0  0  0  0  0  0  0  0  0
   45.7347   28.9608   43.4530 H   0  0  0  0  0  0  0  0  0  0  0  0
   46.9496   28.3691   45.5600 H   0  0  0  0  0  0  0  0  0  0  0  0
   47.8908   29.1038   47.6019 H   0  0  0  0  0  0  0  0  0  0  0  0
   48.4556   30.8607   49.2550 H   0  0  0  0  0  0  0  0  0  0  0  0
   47.8070   33.2620   48.7816 H   0  0  0  0  0  0  0  0  0  0  0  0
   46.5980   33.7707   46.6378 H   0  0  0  0  0  0  0  0  0  0  0  0
   51.3494   35.0148   42.9729 H   0  0  0  0  0  0  0  0  0  0  0  0
   49.9666   34.0519   43.5589 H   0  0  0  0  0  0  0  0  0  0  0  0
  1  2  2  0
  1  6  1  0
  2  3  1  0
  3  7  1  0
  3  4  2  0
  5  4  1  0
  6  5  2  0
  7 16  2  0
  8  9  2  0
  8  7  1  0
  9 10  1  0
 10 11  2  0
 11 12  1  0
 12 13  2  0
 14 13  1  0
 15 14  2  0
 16 11  1  0
 16 15  1  0
 17  2  1  0
 19 18  2  0
 19 17  1  0
 19 25  1  0
 20 19  1  0
 21 23  1  0
 21 24  1  0
 21 20  1  0
 22 21  1  0
 26 25  1  0
 26 28  1  0
 27 26  2  0
  1 29  1  0
  5 30  1  0
  8 31  1  0
  9 32  1  0
 10 33  1  0
 12 34  1  0
 13 35  1  0
 14 36  1  0
 15 37  1  0
 28 38  1  0
 28 39  1  0
M  ISO  8  29  14  30  14  31  14  32  14  33  14  34  14  35  14  36  14
M  ISO  1  37  14
M  END
>  <minimizedAffinity>  (1) 
-5.92533827

>  <minimizedRMSD>  (1) 
1.11867964

$$$$
