
     RDKit          3D

 28 29  0  0  0  0  0  0  0  0999 V2000
   46.7870   34.8530   42.1430 C   0  0  0  0  0  0  0  0  0  0  0  0
   48.0440   35.3840   41.9850 C   0  0  0  0  0  0  0  0  0  0  0  0
   48.8110   35.2600   40.8300 C   0  0  0  0  0  0  0  0  0  0  0  0
   48.2860   34.5610   39.7640 C   0  0  0  0  0  0  0  0  0  0  0  0
   47.0470   34.0480   39.9360 C   0  0  0  0  0  0  0  0  0  0  0  0
   46.3310   34.1790   41.0510 N   0  0  0  0  0  0  0  0  0  0  0  0
   44.4390   35.9350   44.8770 C   0  0  0  0  0  0  0  0  0  0  0  0
   45.1000   35.9730   43.6440 C   0  0  0  0  0  0  0  0  0  0  0  0
   46.0060   34.9840   43.3610 C   0  0  0  0  0  0  0  0  0  0  0  0
   46.2120   34.0120   44.3120 N   0  0  0  0  0  0  0  0  0  0  0  0
   45.5650   33.9930   45.4930 C   0  0  0  0  0  0  0  0  0  0  0  0
   44.6790   34.9550   45.7740 N   0  0  0  0  0  0  0  0  0  0  0  0
   46.4950   33.3430   38.8810 O   0  0  0  0  0  0  0  0  0  0  0  0
   47.9300   34.5270   37.0100 O   0  0  0  0  0  0  0  0  0  0  0  0
   47.2310   33.2220   37.3500 P   0  0  1  0  0  0  0  0  0  0  0  0
   48.3590   31.9710   37.3760 O   0  0  0  0  0  0  0  0  0  0  0  0
   46.0080   32.9390   36.2090 O   0  0  0  0  0  0  0  0  0  0  0  0
   45.0500   32.1220   36.7930 C   0  0  0  0  0  0  0  0  0  0  0  0
   44.2720   31.5070   35.8090 F   0  0  0  0  0  0  0  0  0  0  0  0
   44.1660   32.8430   37.5630 F   0  0  0  0  0  0  0  0  0  0  0  0
   45.5940   31.1310   37.5760 F   0  0  0  0  0  0  0  0  0  0  0  0
   48.4735   35.9451   42.8281 H   0  0  0  0  0  0  0  0  0  0  0  0
   49.8131   35.7095   40.7692 H   0  0  0  0  0  0  0  0  0  0  0  0
   48.8442   34.4280   38.8255 H   0  0  0  0  0  0  0  0  0  0  0  0
   43.7083   36.7204   45.1204 H   0  0  0  0  0  0  0  0  0  0  0  0
   44.8976   36.7762   42.9202 H   0  0  0  0  0  0  0  0  0  0  0  0
   45.7636   33.1926   46.2209 H   0  0  0  0  0  0  0  0  0  0  0  0
   48.5703   31.7366   38.3144 H   0  0  0  0  0  0  0  0  0  0  0  0
  1  9  1  0
  2  1  2  0
  3  2  1  0
  4  5  1  0
  4  3  2  0
  5  6  2  0
  6  1  1  0
  7 12  2  0
  8  7  1  0
  9  8  2  0
  9 10  1  0
 10 11  2  0
 11 12  1  0
 13  5  1  0
 15 14  2  0
 15 16  1  0
 15 13  1  0
 17 18  1  0
 17 15  1  0
 18 20  1  0
 18 21  1  0
 19 18  1  0
  2 22  1  0
  3 23  1  0
  4 24  1  0
  7 25  1  0
  8 26  1  0
 11 27  1  0
 16 28  1  0
M  ISO  7  22  14  23  14  24  14  25  14  26  14  27  14  28   3
M  END
>  <minimizedAffinity>  (1) 
-5.21505165

>  <minimizedRMSD>  (1) 
0.772208869

$$$$
