
     RDKit          3D

 23 24  0  0  1  0  0  0  0  0999 V2000
   43.9510   34.8470   42.2190 C   0  0  0  0  0  0  0  0  0  0  0  0
   42.6900   35.3410   41.8910 C   0  0  0  0  0  0  0  0  0  0  0  0
   41.8210   34.4570   41.2760 C   0  0  0  0  0  0  0  0  0  0  0  0
   42.2190   33.1790   41.0250 N   0  0  0  0  0  0  0  0  0  0  0  0
   43.4650   32.7440   41.3650 C   0  0  0  0  0  0  0  0  0  0  0  0
   44.3240   33.5960   41.9660 N   0  0  0  0  0  0  0  0  0  0  0  0
   40.4410   34.8830   40.8700 C   0  0  1  0  0  0  0  0  0  0  0  0
   40.3140   36.3570   40.6380 C   0  0  0  0  0  0  0  0  0  0  0  0
   40.2230   35.3240   39.4830 C   0  0  1  0  0  0  0  0  0  0  0  0
   41.3120   35.2550   38.4710 C   0  0  0  0  0  0  0  0  0  0  0  0
   41.0120   35.9190   37.2950 F   0  0  0  0  0  0  0  0  0  0  0  0
   42.5420   35.6240   38.9700 F   0  0  0  0  0  0  0  0  0  0  0  0
   41.4220   33.8980   38.1340 F   0  0  0  0  0  0  0  0  0  0  0  0
   44.9060   35.7750   42.8950 C   0  0  0  0  0  0  0  0  0  0  0  0
   46.1840   35.4320   42.4720 F   0  0  0  0  0  0  0  0  0  0  0  0
   44.8300   35.5520   44.2430 F   0  0  0  0  0  0  0  0  0  0  0  0
   44.6790   37.0800   42.5360 F   0  0  0  0  0  0  0  0  0  0  0  0
   42.4005   36.3795   42.1095 H   0  0  0  0  0  0  0  0  0  0  0  0
   43.7685   31.7084   41.1520 H   0  0  0  0  0  0  0  0  0  0  0  0
   39.9263   34.1338   41.4895 H   0  0  0  0  0  0  0  0  0  0  0  0
   39.4165   36.8976   40.9729 H   0  0  0  0  0  0  0  0  0  0  0  0
   40.9213   37.2477   40.8569 H   0  0  0  0  0  0  0  0  0  0  0  0
   39.4923   35.0753   38.6993 H   0  0  0  0  0  0  0  0  0  0  0  0
  1 14  1  0
  2  1  2  0
  3  2  1  0
  4  3  2  0
  4  5  1  0
  5  6  2  0
  6  1  1  0
  7  3  1  0
  8  7  1  0
  9  8  1  0
  9  7  1  0
 10 12  1  0
 10  9  1  0
 11 10  1  0
 13 10  1  0
 14 16  1  0
 15 14  1  0
 17 14  1  0
  2 18  1  0
  5 19  1  0
  7 20  1  1
  8 21  1  0
  8 22  1  0
  9 23  1  6
M  ISO  6  18  14  19  14  20  13  21  13  22  13  23  13
M  END
>  <minimizedAffinity>  (1) 
-5.13743496

>  <minimizedRMSD>  (1) 
7.10119152

$$$$
