
     RDKit          3D

 27 28  0  0  1  0  0  0  0  0999 V2000
   44.5420   35.8040   44.9500 C   0  0  0  0  0  0  0  0  0  0  0  0
   44.7810   35.5420   43.5910 C   0  0  0  0  0  0  0  0  0  0  0  0
   45.3230   34.3340   43.2290 C   0  0  0  0  0  0  0  0  0  0  0  0
   45.5930   33.4690   44.2370 N   0  0  0  0  0  0  0  0  0  0  0  0
   45.3670   33.7180   45.5230 C   0  0  0  0  0  0  0  0  0  0  0  0
   44.8400   34.8870   45.8910 N   0  0  0  0  0  0  0  0  0  0  0  0
   45.7020   32.7080   46.4580 N   0  0  0  0  0  0  0  0  0  0  0  0
   45.2470   32.7060   47.8500 C   0  0  0  0  0  0  0  0  0  0  0  0
   46.4700   32.2230   48.5830 C   0  0  0  0  0  0  0  0  0  0  0  0
   47.4180   31.6550   47.5330 C   0  0  0  0  0  0  0  0  0  0  0  0
   46.4870   31.5260   46.3420 C   0  0  2  0  0  0  0  0  0  0  0  0
   47.3000   31.3390   45.1170 C   0  0  0  0  0  0  0  0  0  0  0  0
   46.3770   30.9690   44.1120 F   0  0  0  0  0  0  0  0  0  0  0  0
   47.7990   32.5520   44.6300 F   0  0  0  0  0  0  0  0  0  0  0  0
   48.2290   30.3480   45.1660 F   0  0  0  0  0  0  0  0  0  0  0  0
   44.4180   36.6000   42.6850 N   0  0  0  0  0  0  0  0  0  0  0  0
   44.1066   36.7688   45.2494 H   0  0  0  0  0  0  0  0  0  0  0  0
   45.5271   34.0816   42.1780 H   0  0  0  0  0  0  0  0  0  0  0  0
   44.9588   33.7160   48.1770 H   0  0  0  0  0  0  0  0  0  0  0  0
   44.3550   32.0858   48.0223 H   0  0  0  0  0  0  0  0  0  0  0  0
   46.9491   33.0597   49.1125 H   0  0  0  0  0  0  0  0  0  0  0  0
   46.2063   31.4601   49.3303 H   0  0  0  0  0  0  0  0  0  0  0  0
   48.2488   32.3448   47.3235 H   0  0  0  0  0  0  0  0  0  0  0  0
   47.9107   30.7165   47.8272 H   0  0  0  0  0  0  0  0  0  0  0  0
   45.8142   30.6568   46.2980 H   0  0  0  0  0  0  0  0  0  0  0  0
   44.5630   36.4829   41.6720 H   0  0  0  0  0  0  0  0  0  0  0  0
   44.0133   37.4741   43.0497 H   0  0  0  0  0  0  0  0  0  0  0  0
  1  6  2  0
  2  1  1  0
  3  2  2  0
  3  4  1  0
  4  5  2  0
  5  6  1  0
  5  7  1  0
  7  8  1  0
  8  9  1  0
 10  9  1  0
 11  7  1  0
 11 10  1  0
 12 15  1  0
 12 11  1  0
 13 12  1  0
 14 12  1  0
 16  2  1  0
  1 17  1  0
  3 18  1  0
  8 19  1  0
  8 20  1  0
  9 21  1  0
  9 22  1  0
 10 23  1  0
 10 24  1  0
 11 25  1  1
 16 26  1  0
 16 27  1  0
M  ISO  8  17  14  18  14  19  13  20  13  21  13  22  13  23  13  24  13
M  ISO  1  25  13
M  END
>  <minimizedAffinity>  (1) 
-4.71423578

>  <minimizedRMSD>  (1) 
0.880369961

$$$$
