
     RDKit          3D

 21 21  0  0  0  0  0  0  0  0999 V2000
   45.0830   34.0480   46.3530 O   0  0  0  0  0  0  0  0  0  0  0  0
   45.0100   36.2280   43.5250 C   0  0  0  0  0  0  0  0  0  0  0  0
   45.1470   35.3660   42.4170 C   0  0  0  0  0  0  0  0  0  0  0  0
   45.2670   33.9930   42.7030 C   0  0  0  0  0  0  0  0  0  0  0  0
   45.2440   33.5840   43.9860 N   0  0  0  0  0  0  0  0  0  0  0  0
   45.1090   34.4530   45.0170 C   0  0  0  0  0  0  0  0  0  0  0  0
   44.9930   35.7680   44.7700 N   0  0  0  0  0  0  0  0  0  0  0  0
   44.8930   37.5700   43.2410 O   0  0  0  0  0  0  0  0  0  0  0  0
   47.2790   32.8000   46.8690 O   0  0  0  0  0  0  0  0  0  0  0  0
   45.7700   32.5710   46.8800 P   0  0  2  0  0  0  0  0  0  0  0  0
   45.4310   31.2950   45.8440 O   0  0  0  0  0  0  0  0  0  0  0  0
   45.3320   32.2070   48.4490 O   0  0  0  0  0  0  0  0  0  0  0  0
   45.7420   31.0750   49.1280 C   0  0  0  0  0  0  0  0  0  0  0  0
   44.9040   30.1720   49.4040 O   0  0  0  0  0  0  0  0  0  0  0  0
   47.1000   30.9460   49.5050 N   0  0  0  0  0  0  0  0  0  0  0  0
   45.1594   35.7463   41.3849 H   0  0  0  0  0  0  0  0  0  0  0  0
   45.3783   33.2626   41.8881 H   0  0  0  0  0  0  0  0  0  0  0  0
   44.9094   37.8803   42.3010 H   0  0  0  0  0  0  0  0  0  0  0  0
   45.2164   30.4872   46.3746 H   0  0  0  0  0  0  0  0  0  0  0  0
   47.4164   30.1067   50.0113 H   0  0  0  0  0  0  0  0  0  0  0  0
   47.7719   31.6914   49.2731 H   0  0  0  0  0  0  0  0  0  0  0  0
  1 10  1  0
  2  7  2  0
  3  4  2  0
  3  2  1  0
  4  5  1  0
  5  6  2  0
  6  1  1  0
  7  6  1  0
  8  2  1  0
 10  9  2  0
 10 12  1  0
 11 10  1  0
 12 13  1  0
 13 14  2  0
 13 15  1  0
  3 16  1  0
  4 17  1  0
  8 18  1  0
 11 19  1  0
 15 20  1  0
 15 21  1  0
M  ISO  4  16  14  17  14  18   3  19   3
M  END
>  <minimizedAffinity>  (1) 
-4.7679677

>  <minimizedRMSD>  (1) 
1.49922252

$$$$
