
     RDKit          3D

 38 40  0  0  1  0  0  0  0  0999 V2000
   49.4820   33.4050   41.3420 N   0  0  0  0  0  0  0  0  0  0  0  0
   50.6900   33.0540   42.0300 C   0  0  0  0  0  0  0  0  0  0  0  0
   51.2580   31.7110   41.6620 C   0  0  0  0  0  0  0  0  0  0  0  0
   50.2990   30.6240   42.0700 C   0  0  0  0  0  0  0  0  0  0  0  0
   48.8710   31.0690   41.9370 C   0  0  0  0  0  0  0  0  0  0  0  0
   48.8060   32.2060   40.9340 C   0  0  2  0  0  0  0  0  0  0  0  0
   47.3160   34.6760   41.9180 C   0  0  1  0  0  0  0  0  0  0  0  0
   48.4390   35.6250   41.7210 C   0  0  0  0  0  0  0  0  0  0  0  0
   48.7160   34.2530   42.1880 C   0  0  2  0  0  0  0  0  0  0  0  0
   45.5560   36.0310   43.1100 C   0  0  0  0  0  0  0  0  0  0  0  0
   46.3880   34.9060   43.0330 C   0  0  0  0  0  0  0  0  0  0  0  0
   46.2940   33.9750   44.0930 C   0  0  0  0  0  0  0  0  0  0  0  0
   45.4200   34.2140   45.1050 N   0  0  0  0  0  0  0  0  0  0  0  0
   44.6330   35.3190   45.1340 C   0  0  0  0  0  0  0  0  0  0  0  0
   44.6960   36.2360   44.1350 N   0  0  0  0  0  0  0  0  0  0  0  0
   49.2100   31.7390   39.6360 N   0  0  0  0  0  0  0  0  0  0  0  0
   49.0100   32.6450   38.5570 C   0  0  0  0  0  0  0  0  0  0  0  0
   47.9880   33.3690   38.2820 O   0  0  0  0  0  0  0  0  0  0  0  0
   49.8670   33.0310   37.4570 N   0  0  0  0  0  0  0  0  0  0  0  0
   51.4472   33.8193   41.8041 H   0  0  0  0  0  0  0  0  0  0  0  0
   50.4332   32.9994   43.0982 H   0  0  0  0  0  0  0  0  0  0  0  0
   51.4184   31.6676   40.5746 H   0  0  0  0  0  0  0  0  0  0  0  0
   52.2157   31.5658   42.1833 H   0  0  0  0  0  0  0  0  0  0  0  0
   50.4606   29.7457   41.4278 H   0  0  0  0  0  0  0  0  0  0  0  0
   50.4861   30.3781   43.1257 H   0  0  0  0  0  0  0  0  0  0  0  0
   48.2531   30.2296   41.5853 H   0  0  0  0  0  0  0  0  0  0  0  0
   48.4922   31.4082   42.9124 H   0  0  0  0  0  0  0  0  0  0  0  0
   47.7539   32.5223   40.8783 H   0  0  0  0  0  0  0  0  0  0  0  0
   46.4970   34.2829   41.2977 H   0  0  0  0  0  0  0  0  0  0  0  0
   48.7297   35.9281   40.7043 H   0  0  0  0  0  0  0  0  0  0  0  0
   48.6766   36.6333   42.0911 H   0  0  0  0  0  0  0  0  0  0  0  0
   49.1840   33.7632   43.0546 H   0  0  0  0  0  0  0  0  0  0  0  0
   45.6038   36.7783   42.3042 H   0  0  0  0  0  0  0  0  0  0  0  0
   46.9196   33.0702   44.0981 H   0  0  0  0  0  0  0  0  0  0  0  0
   43.9388   35.4729   45.9733 H   0  0  0  0  0  0  0  0  0  0  0  0
   49.6197   30.8045   39.4953 H   0  0  0  0  0  0  0  0  0  0  0  0
   49.5366   33.7163   36.7626 H   0  0  0  0  0  0  0  0  0  0  0  0
   50.8075   32.6205   37.3683 H   0  0  0  0  0  0  0  0  0  0  0  0
  1  2  1  0
  1  9  1  0
  3  2  1  0
  3  4  1  0
  5  4  1  0
  6  1  1  0
  6  5  1  0
  7  9  1  0
  7 11  1  0
  8  7  1  0
  8  9  1  0
 10 15  2  0
 11 10  1  0
 11 12  2  0
 12 13  1  0
 13 14  2  0
 15 14  1  0
 16  6  1  0
 17 16  1  0
 18 17  2  0
 19 17  1  0
  2 20  1  0
  2 21  1  0
  3 22  1  0
  3 23  1  0
  4 24  1  0
  4 25  1  0
  5 26  1  0
  5 27  1  0
  6 28  1  6
  7 29  1  6
  8 30  1  0
  8 31  1  0
  9 32  1  1
 10 33  1  0
 12 34  1  0
 14 35  1  0
 16 36  1  0
 19 37  1  0
 19 38  1  0
M  ISO  8  20  13  21  13  22  13  23  13  24  13  25  13  26  13  27  13
M  ISO  8  28  13  29  13  30  13  31  13  32  13  33  14  34  14  35  14
M  END
>  <minimizedAffinity>  (1) 
-5.20991945

>  <minimizedRMSD>  (1) 
1.1914221

$$$$
