
     RDKit          3D

 31 32  0  0  0  0  0  0  0  0999 V2000
   45.0260   34.4980   41.3440 C   0  0  0  0  0  0  0  0  0  0  0  0
   45.3820   35.1370   42.5200 C   0  0  0  0  0  0  0  0  0  0  0  0
   46.7400   35.3780   42.7390 C   0  0  0  0  0  0  0  0  0  0  0  0
   47.6850   34.9860   41.8030 C   0  0  0  0  0  0  0  0  0  0  0  0
   47.3330   34.3580   40.6480 C   0  0  0  0  0  0  0  0  0  0  0  0
   45.9760   34.1310   40.4540 C   0  0  0  0  0  0  0  0  0  0  0  0
   45.4730   32.1340   38.7930 C   0  0  0  0  0  0  0  0  0  0  0  0
   45.9760   31.1880   39.3280 O   0  0  0  0  0  0  0  0  0  0  0  0
   45.5040   33.5140   39.2590 N   0  0  0  0  0  0  0  0  0  0  0  0
   45.5850   33.1370   36.6580 C   0  0  0  0  0  0  0  0  0  0  0  0
   46.8210   33.3820   36.8640 O   0  0  0  0  0  0  0  0  0  0  0  0
   44.7120   32.4520   37.6560 N   0  0  0  0  0  0  0  0  0  0  0  0
   41.3520   34.8650   40.5590 C   0  0  0  0  0  0  0  0  0  0  0  0
   42.7100   35.2250   40.6900 C   0  0  0  0  0  0  0  0  0  0  0  0
   43.5990   34.2680   41.1460 C   0  0  0  0  0  0  0  0  0  0  0  0
   43.1040   33.0390   41.4380 N   0  0  0  0  0  0  0  0  0  0  0  0
   41.8040   32.7080   41.3090 C   0  0  0  0  0  0  0  0  0  0  0  0
   40.9190   33.6430   40.8620 N   0  0  0  0  0  0  0  0  0  0  0  0
   40.3800   35.8770   40.0720 C   0  0  0  0  0  0  0  0  0  0  0  0
   39.1810   35.2100   39.8010 F   0  0  0  0  0  0  0  0  0  0  0  0
   40.8360   36.3210   38.8470 F   0  0  0  0  0  0  0  0  0  0  0  0
   40.1690   36.9030   40.9630 F   0  0  0  0  0  0  0  0  0  0  0  0
   44.6228   35.4435   43.2547 H   0  0  0  0  0  0  0  0  0  0  0  0
   47.0626   35.8829   43.6615 H   0  0  0  0  0  0  0  0  0  0  0  0
   48.7483   35.1881   41.9994 H   0  0  0  0  0  0  0  0  0  0  0  0
   48.0836   34.0464   39.9068 H   0  0  0  0  0  0  0  0  0  0  0  0
   45.1017   34.1817   38.5858 H   0  0  0  0  0  0  0  0  0  0  0  0
   45.1425   33.4455   35.6993 H   0  0  0  0  0  0  0  0  0  0  0  0
   43.7107   32.2453   37.5309 H   0  0  0  0  0  0  0  0  0  0  0  0
   43.0526   36.2391   40.4364 H   0  0  0  0  0  0  0  0  0  0  0  0
   41.4609   31.6939   41.5618 H   0  0  0  0  0  0  0  0  0  0  0  0
  1  2  2  0
  2  3  1  0
  4  3  2  0
  5  4  1  0
  6  5  2  0
  6  1  1  0
  7  9  1  0
  7  8  2  0
  9  6  1  0
 10 11  2  0
 10 12  1  0
 12  7  1  0
 13 14  2  0
 13 18  1  0
 14 15  1  0
 15  1  1  0
 15 16  2  0
 17 16  1  0
 18 17  2  0
 19 13  1  0
 19 22  1  0
 20 19  1  0
 21 19  1  0
  2 23  1  0
  3 24  1  0
  4 25  1  0
  5 26  1  0
  9 27  1  0
 10 28  1  0
 12 29  1  0
 14 30  1  0
 17 31  1  0
M  ISO  7  23  14  24  14  25  14  26  14  28   6  30  14  31  14
M  END
>  <minimizedAffinity>  (1) 
-6.06323242

>  <minimizedRMSD>  (1) 
0.194366187

$$$$
