
     RDKit          3D

 24 23  0  0  0  0  0  0  0  0999 V2000
   45.5710   34.7250   44.3120 C   0  0  0  0  0  0  0  0  0  0  0  0
   45.2520   34.3950   45.6220 C   0  0  0  0  0  0  0  0  0  0  0  0
   45.9580   33.3460   46.1950 C   0  0  0  0  0  0  0  0  0  0  0  0
   46.8880   32.7370   45.4390 N   0  0  0  0  0  0  0  0  0  0  0  0
   47.1820   33.0720   44.1710 C   0  0  0  0  0  0  0  0  0  0  0  0
   46.5110   34.0900   43.5860 N   0  0  0  0  0  0  0  0  0  0  0  0
   44.1730   35.1880   42.4980 C   0  0  0  0  0  0  0  0  0  0  0  0
   44.2110   33.9260   42.5190 O   0  0  0  0  0  0  0  0  0  0  0  0
   44.9550   35.7860   43.5310 N   0  0  0  0  0  0  0  0  0  0  0  0
   42.1060   35.5790   41.2620 C   0  0  0  0  0  0  0  0  0  0  0  0
   41.5270   34.5780   41.7900 O   0  0  0  0  0  0  0  0  0  0  0  0
   43.4400   35.9650   41.5580 N   0  0  0  0  0  0  0  0  0  0  0  0
   44.2380   35.1720   46.2260 N   0  0  0  0  0  0  0  0  0  0  0  0
   45.7637   33.0251   47.2290 H   0  0  0  0  0  0  0  0  0  0  0  0
   47.9585   32.5251   43.6161 H   0  0  0  0  0  0  0  0  0  0  0  0
   45.0645   36.7969   43.6955 H   0  0  0  0  0  0  0  0  0  0  0  0
   42.4887   36.2406   42.0531 H   0  0  0  0  0  0  0  0  0  0  0  0
   42.9426   35.2316   40.6380 H   0  0  0  0  0  0  0  0  0  0  0  0
   41.3877   36.1310   40.6380 H   0  0  0  0  0  0  0  0  0  0  0  0
   41.5708   34.6537   42.7761 H   0  0  0  0  0  0  0  0  0  0  0  0
   43.4626   36.9934   41.6109 H   0  0  0  0  0  0  0  0  0  0  0  0
   42.8868   35.4991   40.8247 H   0  0  0  0  0  0  0  0  0  0  0  0
   43.9520   34.9806   47.1968 H   0  0  0  0  0  0  0  0  0  0  0  0
   43.7849   35.9297   45.6955 H   0  0  0  0  0  0  0  0  0  0  0  0
  1  2  2  0
  2  3  1  0
  2 13  1  0
  4  3  2  0
  5  4  1  0
  6  5  2  0
  6  1  1  0
  7  8  2  0
  7  9  1  0
  9  1  1  0
 10 11  1  0
 12  7  1  0
  3 14  1  0
  5 15  1  0
  9 16  1  0
 10 17  1  0
 10 18  1  0
 10 19  1  0
 11 20  1  0
 12 21  1  0
 12 22  1  0
 13 23  1  0
 13 24  1  0
M  ISO  6  14  14  15  14  17   8  18   8  19   8  20   3
M  END
>  <minimizedAffinity>  (1) 
-4.60570097

>  <minimizedRMSD>  (1) 
0.771331251

$$$$
