
     RDKit          3D

 30 32  0  0  0  0  0  0  0  0999 V2000
   46.1230   31.5060   45.0880 C   0  0  0  0  0  0  0  0  0  0  0  0
   46.0000   32.8580   45.4050 C   0  0  0  0  0  0  0  0  0  0  0  0
   45.7170   33.2240   46.6960 C   0  0  0  0  0  0  0  0  0  0  0  0
   45.5620   32.2420   47.6530 C   0  0  0  0  0  0  0  0  0  0  0  0
   45.2850   32.2950   48.9710 N   0  0  0  0  0  0  0  0  0  0  0  0
   45.2240   31.0730   49.5040 C   0  0  0  0  0  0  0  0  0  0  0  0
   45.4710   30.1670   48.5080 C   0  0  0  0  0  0  0  0  0  0  0  0
   45.6830   30.8880   47.3400 C   0  0  0  0  0  0  0  0  0  0  0  0
   45.9660   30.5310   46.0480 C   0  0  0  0  0  0  0  0  0  0  0  0
   47.5010   34.7190   42.6530 C   0  0  0  0  0  0  0  0  0  0  0  0
   46.4950   35.5990   42.2520 C   0  0  0  0  0  0  0  0  0  0  0  0
   45.2890   35.5420   42.9460 C   0  0  0  0  0  0  0  0  0  0  0  0
   45.1650   34.6490   43.9550 N   0  0  0  0  0  0  0  0  0  0  0  0
   46.1820   33.8060   44.3090 C   0  0  0  0  0  0  0  0  0  0  0  0
   47.3500   33.8390   43.6620 N   0  0  0  0  0  0  0  0  0  0  0  0
   48.7370   34.8180   41.8990 C   0  0  0  0  0  0  0  0  0  0  0  0
   49.8930   34.5810   42.3550 O   0  0  0  0  0  0  0  0  0  0  0  0
   48.2110   34.2880   39.5340 C   0  0  0  0  0  0  0  0  0  0  0  0
   47.8570   33.1080   39.8570 O   0  0  0  0  0  0  0  0  0  0  0  0
   48.6690   35.2120   40.5220 N   0  0  0  0  0  0  0  0  0  0  0  0
   46.3496   31.2126   44.0523 H   0  0  0  0  0  0  0  0  0  0  0  0
   45.6150   34.2857   46.9649 H   0  0  0  0  0  0  0  0  0  0  0  0
   45.1391   33.1671   49.4993 H   0  0  0  0  0  0  0  0  0  0  0  0
   45.0127   30.8358   50.5571 H   0  0  0  0  0  0  0  0  0  0  0  0
   45.4968   29.0723   48.6131 H   0  0  0  0  0  0  0  0  0  0  0  0
   46.0675   29.4694   45.7783 H   0  0  0  0  0  0  0  0  0  0  0  0
   46.6479   36.3068   41.4239 H   0  0  0  0  0  0  0  0  0  0  0  0
   44.4553   36.2084   42.6797 H   0  0  0  0  0  0  0  0  0  0  0  0
   48.1634   34.5996   38.4801 H   0  0  0  0  0  0  0  0  0  0  0  0
   48.9510   36.1631   40.2449 H   0  0  0  0  0  0  0  0  0  0  0  0
  1  2  2  0
  1  9  1  0
  2  3  1  0
  3  4  2  0
  4  5  1  0
  5  6  1  0
  7  6  2  0
  8  4  1  0
  8  7  1  0
  9  8  2  0
 10 15  2  0
 11 10  1  0
 11 12  2  0
 12 13  1  0
 13 14  2  0
 14  2  1  0
 15 14  1  0
 16 17  2  0
 16 10  1  0
 18 19  2  0
 18 20  1  0
 20 16  1  0
  1 21  1  0
  3 22  1  0
  5 23  1  0
  6 24  1  0
  7 25  1  0
  9 26  1  0
 11 27  1  0
 12 28  1  0
 18 29  1  0
 20 30  1  0
M  ISO  8  21  14  22  14  23   9  24  14  25  14  26  14  27  14  28  14
M  ISO  1  29   6
M  END
>  <minimizedAffinity>  (1) 
-6.13487911

>  <minimizedRMSD>  (1) 
1.03349483

$$$$
