
     RDKit          3D

 34 35  0  0  0  0  0  0  0  0999 V2000
   45.6940   31.6880   47.0900 C   0  0  0  0  0  0  0  0  0  0  0  0
   45.5460   32.1710   48.4000 C   0  0  0  0  0  0  0  0  0  0  0  0
   45.3200   31.3520   49.4960 C   0  0  0  0  0  0  0  0  0  0  0  0
   45.2400   29.9940   49.2570 C   0  0  0  0  0  0  0  0  0  0  0  0
   45.3860   29.5250   47.9600 C   0  0  0  0  0  0  0  0  0  0  0  0
   45.6020   30.3690   46.9530 N   0  0  0  0  0  0  0  0  0  0  0  0
   44.7770   36.6150   43.7220 C   0  0  0  0  0  0  0  0  0  0  0  0
   45.6990   36.3240   42.7090 C   0  0  0  0  0  0  0  0  0  0  0  0
   46.3750   35.0990   42.7720 C   0  0  0  0  0  0  0  0  0  0  0  0
   46.1210   34.2410   43.7990 N   0  0  0  0  0  0  0  0  0  0  0  0
   45.2140   34.5750   44.7570 C   0  0  0  0  0  0  0  0  0  0  0  0
   44.5270   35.7700   44.7340 N   0  0  0  0  0  0  0  0  0  0  0  0
   45.9290   32.6360   46.0060 C   0  0  0  0  0  0  0  0  0  0  0  0
   46.9740   32.4830   45.3030 O   0  0  0  0  0  0  0  0  0  0  0  0
   44.9640   33.6630   45.8200 N   0  0  0  0  0  0  0  0  0  0  0  0
   45.2970   28.0960   47.7450 C   0  0  0  0  0  0  0  0  0  0  0  0
   44.5350   27.3290   48.4960 C   0  0  0  0  0  0  0  0  0  0  0  0
   44.3700   25.8570   48.3630 C   0  0  0  0  0  0  0  0  0  0  0  0
   45.7140   24.7190   50.0660 C   0  0  0  0  0  0  0  0  0  0  0  0
   46.8020   24.8390   49.4500 O   0  0  0  0  0  0  0  0  0  0  0  0
   44.4370   25.1770   49.6410 N   0  0  0  0  0  0  0  0  0  0  0  0
   45.6128   33.2564   48.5657 H   0  0  0  0  0  0  0  0  0  0  0  0
   45.2095   31.7650   50.5095 H   0  0  0  0  0  0  0  0  0  0  0  0
   45.0626   29.2927   50.0856 H   0  0  0  0  0  0  0  0  0  0  0  0
   44.2371   37.5728   43.6868 H   0  0  0  0  0  0  0  0  0  0  0  0
   45.8862   37.0345   41.8904 H   0  0  0  0  0  0  0  0  0  0  0  0
   47.1073   34.8311   41.9961 H   0  0  0  0  0  0  0  0  0  0  0  0
   44.1311   33.7424   46.4207 H   0  0  0  0  0  0  0  0  0  0  0  0
   45.8815   27.6392   46.9328 H   0  0  0  0  0  0  0  0  0  0  0  0
   43.9667   27.8235   49.2975 H   0  0  0  0  0  0  0  0  0  0  0  0
   43.3919   25.6510   47.9038 H   0  0  0  0  0  0  0  0  0  0  0  0
   45.1945   25.4816   47.7391 H   0  0  0  0  0  0  0  0  0  0  0  0
   45.7534   24.2049   51.0376 H   0  0  0  0  0  0  0  0  0  0  0  0
   43.5954   25.0317   50.2168 H   0  0  0  0  0  0  0  0  0  0  0  0
  1  2  2  0
  2  3  1  0
  4  3  2  0
  5  4  1  0
  6  1  1  0
  6  5  2  0
  7 12  2  0
  8  9  2  0
  8  7  1  0
  9 10  1  0
 10 11  2  0
 11 15  1  0
 12 11  1  0
 13  1  1  0
 14 13  2  0
 15 13  1  0
 16  5  1  0
 16 17  2  0
 18 17  1  0
 18 21  1  0
 20 19  2  0
 21 19  1  0
  2 22  1  0
  3 23  1  0
  4 24  1  0
  7 25  1  0
  8 26  1  0
  9 27  1  0
 15 28  1  0
 16 29  1  0
 17 30  1  0
 18 31  1  0
 18 32  1  0
 19 33  1  0
 21 34  1  0
M  ISO  8  22  14  23  14  24  14  25  14  26  14  27  14  31   8  32   8
M  ISO  1  33   6
M  END
>  <minimizedAffinity>  (1) 
-5.46652174

>  <minimizedRMSD>  (1) 
1.51956606

$$$$
