
     RDKit          3D

 34 37  0  0  0  0  0  0  0  0999 V2000
   45.4930   34.8460   43.5190 C   0  0  0  0  0  0  0  0  0  0  0  0
   46.2040   33.7590   44.0900 C   0  0  0  0  0  0  0  0  0  0  0  0
   46.0180   33.5290   45.4520 C   0  0  0  0  0  0  0  0  0  0  0  0
   45.1900   34.3330   46.1470 N   0  0  0  0  0  0  0  0  0  0  0  0
   44.5200   35.3690   45.5740 C   0  0  0  0  0  0  0  0  0  0  0  0
   44.6760   35.6120   44.2820 N   0  0  0  0  0  0  0  0  0  0  0  0
   46.9970   32.6920   47.5180 C   0  0  0  0  0  0  0  0  0  0  0  0
   46.6780   32.4510   46.1840 C   0  0  0  0  0  0  0  0  0  0  0  0
   46.9980   31.2360   45.6510 C   0  0  0  0  0  0  0  0  0  0  0  0
   47.6210   30.2520   46.3870 C   0  0  0  0  0  0  0  0  0  0  0  0
   48.0230   28.9920   46.0620 N   0  0  0  0  0  0  0  0  0  0  0  0
   48.5950   28.4450   47.1990 C   0  0  0  0  0  0  0  0  0  0  0  0
   48.5290   29.3690   48.1730 N   0  0  0  0  0  0  0  0  0  0  0  0
   47.9390   30.4720   47.6920 C   0  0  0  0  0  0  0  0  0  0  0  0
   47.6270   31.6950   48.2620 C   0  0  0  0  0  0  0  0  0  0  0  0
   45.6700   35.0850   42.1610 O   0  0  0  0  0  0  0  0  0  0  0  0
   44.6040   34.8910   41.2810 C   0  0  0  0  0  0  0  0  0  0  0  0
   45.0910   33.8940   40.5190 C   0  0  0  0  0  0  0  0  0  0  0  0
   43.6510   33.5950   39.3000 S   0  0  0  0  0  0  0  0  0  0  0  0
   42.6770   34.9710   40.1580 C   0  0  0  0  0  0  0  0  0  0  0  0
   43.3900   35.2790   40.9320 N   0  0  0  0  0  0  0  0  0  0  0  0
   40.3290   35.1730   40.7890 C   0  0  0  0  0  0  0  0  0  0  0  0
   40.0750   34.4990   41.8230 O   0  0  0  0  0  0  0  0  0  0  0  0
   41.3700   35.5110   39.9180 N   0  0  0  0  0  0  0  0  0  0  0  0
   46.8713   33.1269   43.4856 H   0  0  0  0  0  0  0  0  0  0  0  0
   43.8534   36.0003   46.1798 H   0  0  0  0  0  0  0  0  0  0  0  0
   46.7542   33.6600   47.9806 H   0  0  0  0  0  0  0  0  0  0  0  0
   46.7501   31.0356   44.5982 H   0  0  0  0  0  0  0  0  0  0  0  0
   47.9211   28.5332   45.1455 H   0  0  0  0  0  0  0  0  0  0  0  0
   49.0254   27.4367   47.2886 H   0  0  0  0  0  0  0  0  0  0  0  0
   47.8796   31.8825   49.3161 H   0  0  0  0  0  0  0  0  0  0  0  0
   46.0639   33.3846   40.5818 H   0  0  0  0  0  0  0  0  0  0  0  0
   39.4075   35.6709   40.4530 H   0  0  0  0  0  0  0  0  0  0  0  0
   41.2009   36.1371   39.1178 H   0  0  0  0  0  0  0  0  0  0  0  0
  1  2  2  0
  1  6  1  0
  2  3  1  0
  3  4  2  0
  3  8  1  0
  5  4  1  0
  6  5  2  0
  7 15  2  0
  8  7  1  0
  9  8  2  0
  9 10  1  0
 10 14  2  0
 11 10  1  0
 11 12  1  0
 12 13  2  0
 14 13  1  0
 14 15  1  0
 16  1  1  0
 17 16  1  0
 18 17  2  0
 19 20  1  0
 19 18  1  0
 20 21  2  0
 21 17  1  0
 22 23  2  0
 24 20  1  0
 24 22  1  0
  2 25  1  0
  5 26  1  0
  7 27  1  0
  9 28  1  0
 11 29  1  0
 12 30  1  0
 15 31  1  0
 18 32  1  0
 22 33  1  0
 24 34  1  0
M  ISO  8  25  14  26  14  27  14  28  14  29   9  30  14  31  14  32  14
M  ISO  1  33   6
M  END
>  <minimizedAffinity>  (1) 
-6.11987495

>  <minimizedRMSD>  (1) 
0.151158035

$$$$
