
     RDKit          3D

 35 37  0  0  1  0  0  0  0  0999 V2000
   42.0800   33.7130   39.5970 N   0  0  0  0  0  0  0  0  0  0  0  0
   42.0350   33.7280   41.0640 C   0  0  2  0  0  0  0  0  0  0  0  0
   40.9290   34.5720   41.5890 C   0  0  0  0  0  0  0  0  0  0  0  0
   39.9920   34.9990   40.5640 N   0  0  0  0  0  0  0  0  0  0  0  0
   40.5610   35.4680   39.3530 C   0  0  0  0  0  0  0  0  0  0  0  0
   42.0050   35.1480   39.2290 C   0  0  2  0  0  0  0  0  0  0  0  0
   45.4250   34.5390   41.9900 C   0  0  0  0  0  0  0  0  0  0  0  0
   44.6800   35.6250   42.4590 C   0  0  0  0  0  0  0  0  0  0  0  0
   43.3360   35.4340   42.1680 C   0  0  0  0  0  0  0  0  0  0  0  0
   43.2960   34.2610   41.5410 N   0  0  0  0  0  0  0  0  0  0  0  0
   44.5120   33.7380   41.4360 N   0  0  0  0  0  0  0  0  0  0  0  0
   49.1390   35.0810   41.9870 C   0  0  0  0  0  0  0  0  0  0  0  0
   47.7630   35.3720   41.7880 C   0  0  0  0  0  0  0  0  0  0  0  0
   46.8730   34.3890   42.1350 C   0  0  0  0  0  0  0  0  0  0  0  0
   47.3340   33.2170   42.6380 N   0  0  0  0  0  0  0  0  0  0  0  0
   48.6510   32.9700   42.8160 C   0  0  0  0  0  0  0  0  0  0  0  0
   49.5240   33.9110   42.4850 N   0  0  0  0  0  0  0  0  0  0  0  0
   42.2670   36.3020   36.9730 C   0  0  0  0  0  0  0  0  0  0  0  0
   41.2320   37.0090   36.9690 O   0  0  0  0  0  0  0  0  0  0  0  0
   42.6410   35.4320   38.0140 N   0  0  0  0  0  0  0  0  0  0  0  0
   42.9582   33.2928   39.2606 H   0  0  0  0  0  0  0  0  0  0  0  0
   41.8610   32.7006   41.4165 H   0  0  0  0  0  0  0  0  0  0  0  0
   40.3783   33.9939   42.3457 H   0  0  0  0  0  0  0  0  0  0  0  0
   41.3854   35.4800   42.0101 H   0  0  0  0  0  0  0  0  0  0  0  0
   39.3871   34.1968   40.3372 H   0  0  0  0  0  0  0  0  0  0  0  0
   40.0256   35.0043   38.5114 H   0  0  0  0  0  0  0  0  0  0  0  0
   40.4649   36.5638   39.3468 H   0  0  0  0  0  0  0  0  0  0  0  0
   42.5780   35.8199   39.8849 H   0  0  0  0  0  0  0  0  0  0  0  0
   45.0962   36.4996   42.9804 H   0  0  0  0  0  0  0  0  0  0  0  0
   42.4940   36.1018   42.4028 H   0  0  0  0  0  0  0  0  0  0  0  0
   49.8962   35.8347   41.7252 H   0  0  0  0  0  0  0  0  0  0  0  0
   47.4290   36.3361   41.3768 H   0  0  0  0  0  0  0  0  0  0  0  0
   48.9912   32.0081   43.2270 H   0  0  0  0  0  0  0  0  0  0  0  0
   42.9316   36.3663   36.0988 H   0  0  0  0  0  0  0  0  0  0  0  0
   43.5227   34.9232   37.8574 H   0  0  0  0  0  0  0  0  0  0  0  0
  1  2  1  0
  2 10  1  0
  2  3  1  0
  4  3  1  0
  5  4  1  0
  6  5  1  0
  6  1  1  0
  7 14  1  0
  7  8  1  0
  9  8  2  0
 10  9  1  0
 11 10  1  0
 11  7  2  0
 12 17  2  0
 13 12  1  0
 13 14  2  0
 14 15  1  0
 15 16  2  0
 17 16  1  0
 18 20  1  0
 19 18  2  0
 20  6  1  0
  1 21  1  0
  2 22  1  1
  3 23  1  0
  3 24  1  0
  4 25  1  0
  5 26  1  0
  5 27  1  0
  6 28  1  1
  8 29  1  0
  9 30  1  0
 12 31  1  0
 13 32  1  0
 16 33  1  0
 18 34  1  0
 20 35  1  0
M  ISO  8  21   5  22  13  23  13  24  13  25   5  26  13  27  13  28  13
M  ISO  6  29  14  30  14  31  14  32  14  33  14  34   6
M  END
>  <minimizedAffinity>  (1) 
-5.04182196

>  <minimizedRMSD>  (1) 
0.622914433

$$$$
