
     RDKit          3D

 38 40  0  0  1  0  0  0  0  0999 V2000
   45.0140   34.7290   45.4320 C   0  0  0  0  0  0  0  0  0  0  0  0
   45.5490   34.9410   44.1490 C   0  0  0  0  0  0  0  0  0  0  0  0
   46.4870   34.0660   43.5950 C   0  0  0  0  0  0  0  0  0  0  0  0
   46.8520   33.0070   44.3640 N   0  0  0  0  0  0  0  0  0  0  0  0
   46.3420   32.8100   45.5830 C   0  0  0  0  0  0  0  0  0  0  0  0
   45.4410   33.6520   46.1100 N   0  0  0  0  0  0  0  0  0  0  0  0
   46.7950   31.6290   46.3560 C   0  0  2  0  0  0  0  0  0  0  0  0
   47.8140   30.8300   45.5690 C   0  0  0  0  0  0  0  0  0  0  0  0
   47.0440   29.7320   44.8480 C   0  0  0  0  0  0  0  0  0  0  0  0
   46.5050   28.8100   45.7090 O   0  0  0  0  0  0  0  0  0  0  0  0
   45.9910   29.3430   46.8870 C   0  0  0  0  0  0  0  0  0  0  0  0
   45.5670   30.7720   46.5980 C   0  0  1  0  0  0  0  0  0  0  0  0
   45.0090   31.3790   48.9760 C   0  0  0  0  0  0  0  0  0  0  0  0
   46.0550   31.0710   49.6370 O   0  0  0  0  0  0  0  0  0  0  0  0
   44.6710   31.2880   47.5780 N   0  0  0  0  0  0  0  0  0  0  0  0
   45.0590   32.5510   41.5140 Cl  0  0  0  0  0  0  0  0  0  0  0  0
   46.4450   33.5970   41.2050 C   0  0  0  0  0  0  0  0  0  0  0  0
   47.0510   34.2710   42.2640 C   0  0  0  0  0  0  0  0  0  0  0  0
   48.1210   35.0710   41.9740 C   0  0  0  0  0  0  0  0  0  0  0  0
   48.5930   35.2100   40.6830 C   0  0  0  0  0  0  0  0  0  0  0  0
   47.9400   34.5060   39.6670 C   0  0  0  0  0  0  0  0  0  0  0  0
   48.5590   34.7000   38.0330 Cl  0  0  0  0  0  0  0  0  0  0  0  0
   46.8620   33.6900   39.9000 C   0  0  0  0  0  0  0  0  0  0  0  0
   44.2740   35.4191   45.8635 H   0  0  0  0  0  0  0  0  0  0  0  0
   45.2215   35.8158   43.5681 H   0  0  0  0  0  0  0  0  0  0  0  0
   47.2679   31.9448   47.2976 H   0  0  0  0  0  0  0  0  0  0  0  0
   48.3232   31.4777   44.8401 H   0  0  0  0  0  0  0  0  0  0  0  0
   48.5826   30.4056   46.2317 H   0  0  0  0  0  0  0  0  0  0  0  0
   46.2288   30.1941   44.2719 H   0  0  0  0  0  0  0  0  0  0  0  0
   47.7537   29.2021   44.1957 H   0  0  0  0  0  0  0  0  0  0  0  0
   45.1230   28.7539   47.2178 H   0  0  0  0  0  0  0  0  0  0  0  0
   46.7482   29.3186   47.6846 H   0  0  0  0  0  0  0  0  0  0  0  0
   44.9742   30.7900   45.6715 H   0  0  0  0  0  0  0  0  0  0  0  0
   44.2035   31.7980   49.5970 H   0  0  0  0  0  0  0  0  0  0  0  0
   43.7410   31.6101   47.2741 H   0  0  0  0  0  0  0  0  0  0  0  0
   48.6185   35.6176   42.7887 H   0  0  0  0  0  0  0  0  0  0  0  0
   49.4562   35.8549   40.4614 H   0  0  0  0  0  0  0  0  0  0  0  0
   46.3608   33.1420   39.0885 H   0  0  0  0  0  0  0  0  0  0  0  0
  1  6  2  0
  2  1  1  0
  3  2  2  0
  3  4  1  0
  4  5  2  0
  5  6  1  0
  5  7  1  0
  7 12  1  0
  8  7  1  0
  9  8  1  0
  9 10  1  0
 10 11  1  0
 12 11  1  0
 12 15  1  0
 13 14  2  0
 15 13  1  0
 17 16  1  0
 17 18  2  0
 18  3  1  0
 19 18  1  0
 20 19  2  0
 21 23  2  0
 21 20  1  0
 22 21  1  0
 23 17  1  0
  1 24  1  0
  2 25  1  0
  7 26  1  1
  8 27  1  0
  8 28  1  0
  9 29  1  0
  9 30  1  0
 11 31  1  0
 11 32  1  0
 12 33  1  6
 13 34  1  0
 15 35  1  0
 19 36  1  0
 20 37  1  0
 23 38  1  0
M  ISO  8  24  14  25  14  26  13  27  13  28  13  29  13  30  13  31  13
M  ISO  6  32  13  33  13  34   6  36  14  37  14  38  14
M  END
>  <minimizedAffinity>  (1) 
-5.96025181

>  <minimizedRMSD>  (1) 
1.44789457

$$$$
