
     RDKit          3D

 39 41  0  0  1  0  0  0  0  0999 V2000
   45.8800   32.1950   45.4520 N   0  0  0  0  0  0  0  0  0  0  0  0
   45.8740   32.8260   46.7140 C   0  0  0  0  0  0  0  0  0  0  0  0
   47.1850   32.6300   47.4800 C   0  0  0  0  0  0  0  0  0  0  0  0
   47.2530   31.1570   47.7960 C   0  0  0  0  0  0  0  0  0  0  0  0
   47.3340   30.4480   46.4670 C   0  0  0  0  0  0  0  0  0  0  0  0
   46.3280   30.8600   45.4550 C   0  0  1  0  0  0  0  0  0  0  0  0
   44.4860   29.4070   46.5160 C   0  0  0  0  0  0  0  0  0  0  0  0
   44.9980   29.7900   47.6210 O   0  0  0  0  0  0  0  0  0  0  0  0
   45.1790   29.9660   45.4020 N   0  0  0  0  0  0  0  0  0  0  0  0
   46.3250   33.0110   44.3570 C   0  0  0  0  0  0  0  0  0  0  0  0
   45.7390   35.3290   43.3160 C   0  0  1  0  0  0  0  0  0  0  0  0
   44.5240   34.7090   43.6920 C   0  0  0  0  0  0  0  0  0  0  0  0
   45.7120   34.3490   44.5090 C   0  0  1  0  0  0  0  0  0  0  0  0
   45.9470   34.2430   41.0770 C   0  0  0  0  0  0  0  0  0  0  0  0
   46.5790   34.9390   42.1470 C   0  0  0  0  0  0  0  0  0  0  0  0
   47.9180   35.2200   42.0680 C   0  0  0  0  0  0  0  0  0  0  0  0
   48.5890   34.8100   40.9510 N   0  0  0  0  0  0  0  0  0  0  0  0
   47.9690   34.1430   39.9340 C   0  0  0  0  0  0  0  0  0  0  0  0
   46.6340   33.8490   39.9830 N   0  0  0  0  0  0  0  0  0  0  0  0
   45.7100   33.9038   46.5675 H   0  0  0  0  0  0  0  0  0  0  0  0
   45.0701   32.3689   47.3097 H   0  0  0  0  0  0  0  0  0  0  0  0
   48.0416   32.9294   46.8582 H   0  0  0  0  0  0  0  0  0  0  0  0
   47.2196   33.2442   48.3919 H   0  0  0  0  0  0  0  0  0  0  0  0
   48.1449   30.9370   48.4011 H   0  0  0  0  0  0  0  0  0  0  0  0
   46.3766   30.8289   48.3741 H   0  0  0  0  0  0  0  0  0  0  0  0
   48.3330   30.6333   46.0454 H   0  0  0  0  0  0  0  0  0  0  0  0
   47.1291   29.3883   46.6794 H   0  0  0  0  0  0  0  0  0  0  0  0
   46.9375   30.7792   44.5428 H   0  0  0  0  0  0  0  0  0  0  0  0
   43.6211   28.7323   46.4337 H   0  0  0  0  0  0  0  0  0  0  0  0
   44.8323   29.7122   44.4659 H   0  0  0  0  0  0  0  0  0  0  0  0
   46.0099   32.5616   43.4037 H   0  0  0  0  0  0  0  0  0  0  0  0
   47.4222   33.0896   44.3586 H   0  0  0  0  0  0  0  0  0  0  0  0
   45.9860   36.3819   43.1152 H   0  0  0  0  0  0  0  0  0  0  0  0
   43.7262   35.3180   44.1422 H   0  0  0  0  0  0  0  0  0  0  0  0
   43.7820   34.1128   43.1406 H   0  0  0  0  0  0  0  0  0  0  0  0
   45.9867   34.3695   45.5739 H   0  0  0  0  0  0  0  0  0  0  0  0
   44.8717   34.0207   41.1434 H   0  0  0  0  0  0  0  0  0  0  0  0
   48.4349   35.7575   42.8766 H   0  0  0  0  0  0  0  0  0  0  0  0
   48.5558   33.8353   39.0560 H   0  0  0  0  0  0  0  0  0  0  0  0
  1  6  1  0
  1  2  1  0
  2  3  1  0
  3  4  1  0
  5  4  1  0
  6  5  1  0
  7  8  2  0
  9  6  1  0
  9  7  1  0
 10 13  1  0
 10  1  1  0
 11 12  1  0
 11 13  1  0
 12 13  1  0
 14 15  2  0
 15 11  1  0
 16 15  1  0
 17 16  2  0
 18 19  2  0
 18 17  1  0
 19 14  1  0
  2 20  1  0
  2 21  1  0
  3 22  1  0
  3 23  1  0
  4 24  1  0
  4 25  1  0
  5 26  1  0
  5 27  1  0
  6 28  1  6
  7 29  1  0
  9 30  1  0
 10 31  1  0
 10 32  1  0
 11 33  1  1
 12 34  1  0
 12 35  1  0
 13 36  1  1
 14 37  1  0
 16 38  1  0
 18 39  1  0
M  ISO  8  20  13  21  13  22  13  23  13  24  13  25  13  26  13  27  13
M  ISO  8  28  13  29   6  31   8  32   8  33  13  34  13  35  13  36  13
M  ISO  3  37  14  38  14  39  14
M  END
>  <minimizedAffinity>  (1) 
-4.54660797

>  <minimizedRMSD>  (1) 
1.99897611

$$$$
