
     RDKit          3D

 30 32  0  0  0  0  0  0  0  0999 V2000
   45.0410   32.9900   41.1890 Cl  0  0  0  0  0  0  0  0  0  0  0  0
   46.4980   33.9440   41.0190 C   0  0  0  0  0  0  0  0  0  0  0  0
   46.9260   34.7870   41.9980 C   0  0  0  0  0  0  0  0  0  0  0  0
   48.0860   35.4760   41.7350 C   0  0  0  0  0  0  0  0  0  0  0  0
   48.7830   35.3520   40.5930 C   0  0  0  0  0  0  0  0  0  0  0  0
   48.3500   34.5020   39.6070 C   0  0  0  0  0  0  0  0  0  0  0  0
   47.1840   33.7870   39.8310 C   0  0  0  0  0  0  0  0  0  0  0  0
   46.7030   32.8670   38.7790 C   0  0  0  0  0  0  0  0  0  0  0  0
   46.8040   31.4650   38.9010 C   0  0  0  0  0  0  0  0  0  0  0  0
   46.0720   30.8470   37.3530 S   0  0  0  0  0  0  0  0  0  0  0  0
   45.7420   32.6190   36.7800 C   0  0  0  0  0  0  0  0  0  0  0  0
   46.1490   33.1690   37.6550 N   0  0  0  0  0  0  0  0  0  0  0  0
   45.2710   32.2680   34.3500 C   0  0  0  0  0  0  0  0  0  0  0  0
   45.9550   31.2150   34.5430 O   0  0  0  0  0  0  0  0  0  0  0  0
   45.1140   33.0740   35.5150 N   0  0  0  0  0  0  0  0  0  0  0  0
   44.4650   35.9740   44.6160 C   0  0  0  0  0  0  0  0  0  0  0  0
   45.2110   35.8910   43.4300 C   0  0  0  0  0  0  0  0  0  0  0  0
   46.1480   34.8900   43.2090 C   0  0  0  0  0  0  0  0  0  0  0  0
   46.2830   33.9990   44.2320 N   0  0  0  0  0  0  0  0  0  0  0  0
   45.5710   34.0770   45.3630 C   0  0  0  0  0  0  0  0  0  0  0  0
   44.6780   35.0420   45.5610 N   0  0  0  0  0  0  0  0  0  0  0  0
   48.4647   36.1674   42.5022 H   0  0  0  0  0  0  0  0  0  0  0  0
   49.7048   35.9345   40.4480 H   0  0  0  0  0  0  0  0  0  0  0  0
   48.9111   34.3913   38.6674 H   0  0  0  0  0  0  0  0  0  0  0  0
   47.2252   30.8832   39.7341 H   0  0  0  0  0  0  0  0  0  0  0  0
   44.8396   32.5333   33.3735 H   0  0  0  0  0  0  0  0  0  0  0  0
   44.5769   33.9522   35.4796 H   0  0  0  0  0  0  0  0  0  0  0  0
   43.7287   36.7770   44.7675 H   0  0  0  0  0  0  0  0  0  0  0  0
   45.0476   36.6462   42.6471 H   0  0  0  0  0  0  0  0  0  0  0  0
   45.7288   33.3234   46.1486 H   0  0  0  0  0  0  0  0  0  0  0  0
  2  1  1  0
  2  3  2  0
  3 18  1  0
  4  3  1  0
  5  4  2  0
  6  7  2  0
  6  5  1  0
  7  2  1  0
  8  9  2  0
  8  7  1  0
 10  9  1  0
 11 10  1  0
 11 12  2  0
 12  8  1  0
 13 14  2  0
 13 15  1  0
 15 11  1  0
 16 21  2  0
 17 16  1  0
 18 17  2  0
 18 19  1  0
 19 20  2  0
 20 21  1  0
  4 22  1  0
  5 23  1  0
  6 24  1  0
  9 25  1  0
 13 26  1  0
 15 27  1  0
 16 28  1  0
 17 29  1  0
 20 30  1  0
M  ISO  8  22  14  23  14  24  14  25  14  26   6  28  14  29  14  30  14
M  END
>  <minimizedAffinity>  (1) 
-6.41680908

>  <minimizedRMSD>  (1) 
0.388051897

$$$$
