
     RDKit          3D

 27 28  0  0  0  0  0  0  0  0999 V2000
   43.8960   35.6940   41.4940 C   0  0  0  0  0  0  0  0  0  0  0  0
   44.3640   35.9080   43.8760 C   0  0  0  0  0  0  0  0  0  0  0  0
   44.3750   35.0850   42.7420 C   0  0  0  0  0  0  0  0  0  0  0  0
   44.8320   33.7970   42.9060 C   0  0  0  0  0  0  0  0  0  0  0  0
   45.2420   33.3810   44.1230 N   0  0  0  0  0  0  0  0  0  0  0  0
   45.2120   34.2210   45.1960 C   0  0  0  0  0  0  0  0  0  0  0  0
   44.7780   35.4870   45.0970 N   0  0  0  0  0  0  0  0  0  0  0  0
   46.6570   32.8220   46.5730 C   0  0  0  0  0  0  0  0  0  0  0  0
   47.1390   32.3450   45.4890 O   0  0  0  0  0  0  0  0  0  0  0  0
   45.6380   33.8140   46.4920 N   0  0  0  0  0  0  0  0  0  0  0  0
   42.6200   35.0840   41.1400 N   0  0  0  0  0  0  0  0  0  0  0  0
   41.5110   35.4250   41.7800 C   0  0  0  0  0  0  0  0  0  0  0  0
   40.3210   34.8040   41.3930 C   0  0  0  0  0  0  0  0  0  0  0  0
   40.3100   33.8780   40.3890 C   0  0  0  0  0  0  0  0  0  0  0  0
   39.2190   33.3300   40.0570 O   0  0  0  0  0  0  0  0  0  0  0  0
   41.4660   33.5510   39.7540 N   0  0  0  0  0  0  0  0  0  0  0  0
   42.6170   34.1540   40.1310 C   0  0  0  0  0  0  0  0  0  0  0  0
   43.6570   33.8070   39.5010 O   0  0  0  0  0  0  0  0  0  0  0  0
   43.7625   36.7765   41.6370 H   0  0  0  0  0  0  0  0  0  0  0  0
   44.6280   35.5291   40.6896 H   0  0  0  0  0  0  0  0  0  0  0  0
   44.0034   36.9419   43.7712 H   0  0  0  0  0  0  0  0  0  0  0  0
   44.8630   33.1090   42.0483 H   0  0  0  0  0  0  0  0  0  0  0  0
   47.0225   32.4728   47.5500 H   0  0  0  0  0  0  0  0  0  0  0  0
   45.2237   34.2228   47.3418 H   0  0  0  0  0  0  0  0  0  0  0  0
   41.5268   36.1712   42.5880 H   0  0  0  0  0  0  0  0  0  0  0  0
   39.3816   35.0639   41.9029 H   0  0  0  0  0  0  0  0  0  0  0  0
   41.4660   32.8536   38.9960 H   0  0  0  0  0  0  0  0  0  0  0  0
  1  3  1  0
  2  7  2  0
  3  4  2  0
  3  2  1  0
  4  5  1  0
  5  6  2  0
  6 10  1  0
  7  6  1  0
  9  8  2  0
 10  8  1  0
 11  1  1  0
 11 12  1  0
 13 12  2  0
 14 13  1  0
 15 14  2  0
 16 17  1  0
 16 14  1  0
 17 11  1  0
 18 17  2  0
  1 19  1  0
  1 20  1  0
  2 21  1  0
  4 22  1  0
  8 23  1  0
 10 24  1  0
 12 25  1  0
 13 26  1  0
 16 27  1  0
M  ISO  8  19   8  20   8  21  14  22  14  23   6  25  14  26  14  27   9
M  END
>  <minimizedAffinity>  (1) 
-5.34054947

>  <minimizedRMSD>  (1) 
0.474173099

$$$$
