
     RDKit          3D

 21 22  0  0  1  0  0  0  0  0999 V2000
   46.4020   33.5320   42.3180 C   0  0  1  0  0  0  0  0  0  0  0  0
   46.7730   34.3350   41.1520 C   0  0  0  0  0  0  0  0  0  0  0  0
   47.8490   33.7950   42.0320 C   0  0  1  0  0  0  0  0  0  0  0  0
   45.1150   35.4120   43.3960 C   0  0  0  0  0  0  0  0  0  0  0  0
   45.7700   34.1600   43.5040 C   0  0  0  0  0  0  0  0  0  0  0  0
   45.7990   33.5640   44.7610 C   0  0  0  0  0  0  0  0  0  0  0  0
   45.2050   34.2120   45.7990 N   0  0  0  0  0  0  0  0  0  0  0  0
   44.5890   35.4040   45.6610 C   0  0  0  0  0  0  0  0  0  0  0  0
   44.5440   36.0120   44.4460 N   0  0  0  0  0  0  0  0  0  0  0  0
   49.2590   35.8230   42.1760 C   0  0  0  0  0  0  0  0  0  0  0  0
   49.1760   36.0310   40.9380 O   0  0  0  0  0  0  0  0  0  0  0  0
   48.6210   34.7100   42.8350 N   0  0  0  0  0  0  0  0  0  0  0  0
   45.7821   32.6352   42.4650 H   0  0  0  0  0  0  0  0  0  0  0  0
   46.5643   35.4150   41.1422 H   0  0  0  0  0  0  0  0  0  0  0  0
   46.5555   34.2795   40.0752 H   0  0  0  0  0  0  0  0  0  0  0  0
   48.7391   33.1603   41.9100 H   0  0  0  0  0  0  0  0  0  0  0  0
   45.0748   35.9074   42.4147 H   0  0  0  0  0  0  0  0  0  0  0  0
   46.2907   32.5916   44.9117 H   0  0  0  0  0  0  0  0  0  0  0  0
   44.1222   35.8850   46.5332 H   0  0  0  0  0  0  0  0  0  0  0  0
   49.8471   36.5246   42.7858 H   0  0  0  0  0  0  0  0  0  0  0  0
   48.7144   34.5727   43.8515 H   0  0  0  0  0  0  0  0  0  0  0  0
  1  5  1  0
  2  3  1  0
  2  1  1  0
  3  1  1  0
  3 12  1  0
  4  5  2  0
  4  9  1  0
  5  6  1  0
  6  7  2  0
  8  7  1  0
  9  8  2  0
 10 12  1  0
 11 10  2  0
  1 13  1  6
  2 14  1  0
  2 15  1  0
  3 16  1  6
  4 17  1  0
  6 18  1  0
  8 19  1  0
 10 20  1  0
 12 21  1  0
M  ISO  8  13  13  14  13  15  13  16  13  17  14  18  14  19  14  20   6
M  END
>  <minimizedAffinity>  (1) 
-3.8323369

>  <minimizedRMSD>  (1) 
1.9264406

$$$$
