
     RDKit          3D

 32 34  0  0  0  0  0  0  0  0999 V2000
   45.6880   33.9720   45.5340 C   0  0  0  0  0  0  0  0  0  0  0  0
   44.7690   34.9430   45.6990 C   0  0  0  0  0  0  0  0  0  0  0  0
   44.4520   35.8790   44.7310 C   0  0  0  0  0  0  0  0  0  0  0  0
   45.1310   35.7770   43.5640 N   0  0  0  0  0  0  0  0  0  0  0  0
   46.0510   34.8060   43.3960 C   0  0  0  0  0  0  0  0  0  0  0  0
   46.3510   33.8960   44.3500 N   0  0  0  0  0  0  0  0  0  0  0  0
   46.7800   34.7080   42.1220 C   0  0  0  0  0  0  0  0  0  0  0  0
   47.9760   35.3760   41.9690 C   0  0  0  0  0  0  0  0  0  0  0  0
   48.7260   35.3380   40.8050 C   0  0  0  0  0  0  0  0  0  0  0  0
   48.2420   34.5860   39.7390 C   0  0  0  0  0  0  0  0  0  0  0  0
   47.0650   33.9330   39.8990 C   0  0  0  0  0  0  0  0  0  0  0  0
   46.3220   33.9730   41.0600 C   0  0  0  0  0  0  0  0  0  0  0  0
   44.8890   31.9110   41.5640 C   0  0  0  0  0  0  0  0  0  0  0  0
   45.8880   31.1970   41.8870 O   0  0  0  0  0  0  0  0  0  0  0  0
   45.0940   33.2630   41.1610 N   0  0  0  0  0  0  0  0  0  0  0  0
   45.4370   32.0210   48.6340 C   0  0  0  0  0  0  0  0  0  0  0  0
   46.5520   31.1960   48.5490 C   0  0  0  0  0  0  0  0  0  0  0  0
   47.3830   31.3010   47.4480 C   0  0  0  0  0  0  0  0  0  0  0  0
   47.0800   32.2200   46.4700 N   0  0  0  0  0  0  0  0  0  0  0  0
   45.9920   33.0030   46.5860 C   0  0  0  0  0  0  0  0  0  0  0  0
   45.1930   32.9040   47.6420 N   0  0  0  0  0  0  0  0  0  0  0  0
   44.2387   34.9947   46.6614 H   0  0  0  0  0  0  0  0  0  0  0  0
   43.6945   36.6587   44.8991 H   0  0  0  0  0  0  0  0  0  0  0  0
   48.3542   35.9696   42.8144 H   0  0  0  0  0  0  0  0  0  0  0  0
   49.6763   35.8862   40.7257 H   0  0  0  0  0  0  0  0  0  0  0  0
   48.7991   34.5232   38.7926 H   0  0  0  0  0  0  0  0  0  0  0  0
   46.6815   33.3386   39.0566 H   0  0  0  0  0  0  0  0  0  0  0  0
   43.8734   31.4897   41.5949 H   0  0  0  0  0  0  0  0  0  0  0  0
   44.2462   33.7920   40.9117 H   0  0  0  0  0  0  0  0  0  0  0  0
   44.7610   31.9555   49.4993 H   0  0  0  0  0  0  0  0  0  0  0  0
   46.7707   30.4698   49.3458 H   0  0  0  0  0  0  0  0  0  0  0  0
   48.2720   30.6598   47.3559 H   0  0  0  0  0  0  0  0  0  0  0  0
  1  2  2  0
  1 20  1  0
  3  2  1  0
  4  3  2  0
  5  4  1  0
  5  6  2  0
  6  1  1  0
  7  5  1  0
  8  7  2  0
  9  8  1  0
 10 11  1  0
 10  9  2  0
 11 12  2  0
 12 15  1  0
 12  7  1  0
 13 14  2  0
 15 13  1  0
 17 16  2  0
 18 17  1  0
 19 20  1  0
 19 18  2  0
 20 21  2  0
 21 16  1  0
  2 22  1  0
  3 23  1  0
  8 24  1  0
  9 25  1  0
 10 26  1  0
 11 27  1  0
 13 28  1  0
 15 29  1  0
 16 30  1  0
 17 31  1  0
 18 32  1  0
M  ISO  8  22  14  23  14  24  14  25  14  26  14  27  14  28   6  30  14
M  ISO  2  31  14  32  14
M  END
>  <minimizedAffinity>  (1) 
-6.2751255

>  <minimizedRMSD>  (1) 
2.80367208

$$$$
