
     RDKit          3D

 20 20  0  0  0  0  0  0  0  0999 V2000
   47.8530   34.7780   42.4480 C   0  0  0  0  0  0  0  0  0  0  0  0
   48.0430   33.5290   43.0540 C   0  0  0  0  0  0  0  0  0  0  0  0
   47.0320   33.0570   43.9260 C   0  0  0  0  0  0  0  0  0  0  0  0
   45.9360   33.8530   44.1160 N   0  0  0  0  0  0  0  0  0  0  0  0
   45.7970   35.0370   43.5170 C   0  0  0  0  0  0  0  0  0  0  0  0
   46.7540   35.4980   42.6860 N   0  0  0  0  0  0  0  0  0  0  0  0
   47.0180   31.9910   46.0100 C   0  0  0  0  0  0  0  0  0  0  0  0
   46.8510   33.1830   46.4000 O   0  0  0  0  0  0  0  0  0  0  0  0
   47.1360   31.8020   44.5850 N   0  0  0  0  0  0  0  0  0  0  0  0
   48.9320   35.2450   41.5410 C   0  0  0  0  0  0  0  0  0  0  0  0
   48.6050   35.1160   40.2250 F   0  0  0  0  0  0  0  0  0  0  0  0
   49.2180   36.5840   41.8500 F   0  0  0  0  0  0  0  0  0  0  0  0
   50.1150   34.5460   41.8330 F   0  0  0  0  0  0  0  0  0  0  0  0
   44.5870   35.8800   43.7490 C   0  0  0  0  0  0  0  0  0  0  0  0
   43.5900   35.5770   42.8720 F   0  0  0  0  0  0  0  0  0  0  0  0
   44.9100   37.2400   43.6920 F   0  0  0  0  0  0  0  0  0  0  0  0
   44.0930   35.6890   45.0280 F   0  0  0  0  0  0  0  0  0  0  0  0
   48.9478   32.9346   42.8588 H   0  0  0  0  0  0  0  0  0  0  0  0
   47.0701   31.1489   46.7158 H   0  0  0  0  0  0  0  0  0  0  0  0
   47.2746   30.8954   44.1162 H   0  0  0  0  0  0  0  0  0  0  0  0
  1  6  2  0
  1  2  1  0
  2  3  2  0
  3  4  1  0
  3  9  1  0
  5 14  1  0
  5  4  2  0
  6  5  1  0
  7  8  2  0
  9  7  1  0
 10 13  1  0
 10 12  1  0
 10  1  1  0
 11 10  1  0
 14 17  1  0
 15 14  1  0
 16 14  1  0
  2 18  1  0
  7 19  1  0
  9 20  1  0
M  ISO  2  18  14  19   6
M  END
>  <minimizedAffinity>  (1) 
-5.31545734

>  <minimizedRMSD>  (1) 
0.242903665

$$$$
