
     RDKit          3D

 31 33  0  0  1  0  0  0  0  0999 V2000
   45.7530   32.8900   47.0320 C   0  0  1  0  0  0  0  0  0  0  0  0
   45.8160   31.4080   46.8040 C   0  0  0  0  0  0  0  0  0  0  0  0
   47.0270   32.2080   47.2940 C   0  0  2  0  0  0  0  0  0  0  0  0
   44.5910   35.6360   44.8190 C   0  0  0  0  0  0  0  0  0  0  0  0
   45.3740   35.3890   43.6380 C   0  0  0  0  0  0  0  0  0  0  0  0
   46.2850   34.2860   43.6490 C   0  0  0  0  0  0  0  0  0  0  0  0
   46.3720   33.5310   44.7480 N   0  0  0  0  0  0  0  0  0  0  0  0
   45.6150   33.7920   45.8550 C   0  0  0  0  0  0  0  0  0  0  0  0
   44.7370   34.8360   45.8790 N   0  0  0  0  0  0  0  0  0  0  0  0
   47.5300   31.9280   48.5760 N   0  0  0  0  0  0  0  0  0  0  0  0
   49.4030   31.4280   50.0330 N   0  0  0  0  0  0  0  0  0  0  0  0
   49.6920   30.0900   50.4320 C   0  0  0  0  0  0  0  0  0  0  0  0
   50.1110   29.4560   49.1000 C   0  0  0  0  0  0  0  0  0  0  0  0
   49.0480   30.0190   48.1760 C   0  0  0  0  0  0  0  0  0  0  0  0
   48.8230   31.3890   48.7140 C   0  0  1  0  0  0  0  0  0  0  0  0
   45.1123   33.5538   47.6311 H   0  0  0  0  0  0  0  0  0  0  0  0
   45.2936   30.7185   47.4835 H   0  0  0  0  0  0  0  0  0  0  0  0
   45.6053   30.7283   45.9652 H   0  0  0  0  0  0  0  0  0  0  0  0
   48.0570   32.4117   46.9660 H   0  0  0  0  0  0  0  0  0  0  0  0
   43.8797   36.4745   44.8491 H   0  0  0  0  0  0  0  0  0  0  0  0
   45.2750   36.0309   42.7502 H   0  0  0  0  0  0  0  0  0  0  0  0
   46.9037   34.0631   42.7672 H   0  0  0  0  0  0  0  0  0  0  0  0
   47.5175   32.8135   49.1020 H   0  0  0  0  0  0  0  0  0  0  0  0
   48.7374   31.8530   50.6942 H   0  0  0  0  0  0  0  0  0  0  0  0
   50.5098   30.0579   51.1669 H   0  0  0  0  0  0  0  0  0  0  0  0
   48.8530   29.5790   50.9270 H   0  0  0  0  0  0  0  0  0  0  0  0
   51.1200   29.7742   48.7989 H   0  0  0  0  0  0  0  0  0  0  0  0
   50.1690   28.3576   49.1146 H   0  0  0  0  0  0  0  0  0  0  0  0
   48.1265   29.4201   48.2232 H   0  0  0  0  0  0  0  0  0  0  0  0
   49.3487   30.0143   47.1179 H   0  0  0  0  0  0  0  0  0  0  0  0
   49.3409   32.1127   48.0675 H   0  0  0  0  0  0  0  0  0  0  0  0
  1  3  1  0
  2  1  1  0
  2  3  1  0
  3 10  1  0
  4  9  2  0
  5  6  2  0
  5  4  1  0
  6  7  1  0
  7  8  2  0
  8  9  1  0
  8  1  1  0
 11 12  1  0
 13 12  1  0
 14 15  1  0
 14 13  1  0
 15 10  1  0
 15 11  1  0
  1 16  1  1
  2 17  1  0
  2 18  1  0
  3 19  1  6
  4 20  1  0
  5 21  1  0
  6 22  1  0
 10 23  1  0
 11 24  1  0
 12 25  1  0
 12 26  1  0
 13 27  1  0
 13 28  1  0
 14 29  1  0
 14 30  1  0
 15 31  1  6
M  ISO  8  16  13  17  13  18  13  19  13  20  14  21  14  22  14  23   5
M  ISO  8  24   5  25  13  26  13  27  13  28  13  29  13  30  13  31  13
M  END
>  <minimizedAffinity>  (1) 
-4.61834574

>  <minimizedRMSD>  (1) 
3.46486378

$$$$
