
     RDKit          3D

 31 33  0  0  0  0  0  0  0  0999 V2000
   45.2260   36.1720   43.4450 C   0  0  0  0  0  0  0  0  0  0  0  0
   45.9550   35.0310   43.0630 C   0  0  0  0  0  0  0  0  0  0  0  0
   45.9810   34.0080   44.0080 C   0  0  0  0  0  0  0  0  0  0  0  0
   45.3500   34.1120   45.1960 N   0  0  0  0  0  0  0  0  0  0  0  0
   44.6540   35.2440   45.5170 C   0  0  0  0  0  0  0  0  0  0  0  0
   44.5990   36.2610   44.6390 N   0  0  0  0  0  0  0  0  0  0  0  0
   46.6780   32.8410   43.7180 C   0  0  0  0  0  0  0  0  0  0  0  0
   47.9990   32.5280   43.5080 C   0  0  0  0  0  0  0  0  0  0  0  0
   48.4580   31.3280   43.2350 C   0  0  0  0  0  0  0  0  0  0  0  0
   47.5130   30.3370   43.1670 C   0  0  0  0  0  0  0  0  0  0  0  0
   45.9360   31.2490   43.5180 S   0  0  0  0  0  0  0  0  0  0  0  0
   46.5850   34.9650   41.8010 C   0  0  0  0  0  0  0  0  0  0  0  0
   47.7870   35.4160   41.7820 O   0  0  0  0  0  0  0  0  0  0  0  0
   45.5410   34.3760   40.9740 N   0  0  0  0  0  0  0  0  0  0  0  0
   45.2540   33.3870   39.9620 C   0  0  0  0  0  0  0  0  0  0  0  0
   44.1210   32.5950   40.6150 C   0  0  0  0  0  0  0  0  0  0  0  0
   43.4830   33.5910   41.5920 C   0  0  0  0  0  0  0  0  0  0  0  0
   44.1620   34.8750   41.0920 C   0  0  0  0  0  0  0  0  0  0  0  0
   45.1642   37.0208   42.7480 H   0  0  0  0  0  0  0  0  0  0  0  0
   44.1421   35.3224   46.4875 H   0  0  0  0  0  0  0  0  0  0  0  0
   48.7302   33.3471   43.5737 H   0  0  0  0  0  0  0  0  0  0  0  0
   49.5280   31.1315   43.0720 H   0  0  0  0  0  0  0  0  0  0  0  0
   47.6547   29.2667   42.9565 H   0  0  0  0  0  0  0  0  0  0  0  0
   46.1281   32.7487   39.7658 H   0  0  0  0  0  0  0  0  0  0  0  0
   44.9936   33.8135   38.9820 H   0  0  0  0  0  0  0  0  0  0  0  0
   43.3907   32.2648   39.8616 H   0  0  0  0  0  0  0  0  0  0  0  0
   44.4775   31.6824   41.1151 H   0  0  0  0  0  0  0  0  0  0  0  0
   42.3891   33.6328   41.4846 H   0  0  0  0  0  0  0  0  0  0  0  0
   43.6206   33.3647   42.6597 H   0  0  0  0  0  0  0  0  0  0  0  0
   44.0811   35.6949   41.8209 H   0  0  0  0  0  0  0  0  0  0  0  0
   43.7361   35.3089   40.1753 H   0  0  0  0  0  0  0  0  0  0  0  0
  1  6  2  0
  2  1  1  0
  2  3  2  0
  3  4  1  0
  4  5  2  0
  6  5  1  0
  7  3  1  0
  8  7  2  0
  9  8  1  0
 10  9  2  0
 10 11  1  0
 11  7  1  0
 12  2  1  0
 13 12  2  0
 14 18  1  0
 14 12  1  0
 15 16  1  0
 15 14  1  0
 16 17  1  0
 18 17  1  0
  1 19  1  0
  5 20  1  0
  8 21  1  0
  9 22  1  0
 10 23  1  0
 15 24  1  0
 15 25  1  0
 16 26  1  0
 16 27  1  0
 17 28  1  0
 17 29  1  0
 18 30  1  0
 18 31  1  0
M  ISO  8  19  14  20  14  21  14  22  14  23  14  24  13  25  13  26  13
M  ISO  5  27  13  28  13  29  13  30  13  31  13
M  END
>  <minimizedAffinity>  (1) 
-4.60507011

>  <minimizedRMSD>  (1) 
1.02111673

$$$$
