
     RDKit          3D

 36 38  0  0  1  0  0  0  0  0999 V2000
   44.5030   35.6400   45.0480 C   0  0  0  0  0  0  0  0  0  0  0  0
   45.1220   35.5890   43.8020 C   0  0  0  0  0  0  0  0  0  0  0  0
   46.0300   34.5870   43.5720 C   0  0  0  0  0  0  0  0  0  0  0  0
   46.2850   33.6860   44.5710 N   0  0  0  0  0  0  0  0  0  0  0  0
   45.6700   33.7690   45.7510 C   0  0  0  0  0  0  0  0  0  0  0  0
   44.7820   34.7340   46.0040 N   0  0  0  0  0  0  0  0  0  0  0  0
   45.9700   32.8030   46.7460 N   0  0  0  0  0  0  0  0  0  0  0  0
   45.1520   32.5320   47.9160 C   0  0  0  0  0  0  0  0  0  0  0  0
   46.1960   32.1940   48.9470 C   0  0  0  0  0  0  0  0  0  0  0  0
   47.5330   32.1220   48.2500 C   0  0  0  0  0  0  0  0  0  0  0  0
   47.0920   31.9160   46.8220 C   0  0  1  0  0  0  0  0  0  0  0  0
   46.8020   30.5560   46.5070 N   0  0  0  0  0  0  0  0  0  0  0  0
   47.0860   29.5910   47.5090 C   0  0  0  0  0  0  0  0  0  0  0  0
   46.0940   28.4630   47.3570 C   0  0  0  0  0  0  0  0  0  0  0  0
   45.0670   28.9460   46.3600 C   0  0  0  0  0  0  0  0  0  0  0  0
   45.4860   30.3530   46.0080 C   0  0  0  0  0  0  0  0  0  0  0  0
   44.7320   36.6060   42.8700 N   0  0  0  0  0  0  0  0  0  0  0  0
   43.7722   36.4356   45.2553 H   0  0  0  0  0  0  0  0  0  0  0  0
   46.5440   34.5087   42.6026 H   0  0  0  0  0  0  0  0  0  0  0  0
   44.5688   33.4167   48.2111 H   0  0  0  0  0  0  0  0  0  0  0  0
   44.4027   31.7412   47.7635 H   0  0  0  0  0  0  0  0  0  0  0  0
   46.2208   32.9735   49.7227 H   0  0  0  0  0  0  0  0  0  0  0  0
   45.9625   31.2319   49.4265 H   0  0  0  0  0  0  0  0  0  0  0  0
   48.1025   33.0557   48.3678 H   0  0  0  0  0  0  0  0  0  0  0  0
   48.2085   31.3445   48.6364 H   0  0  0  0  0  0  0  0  0  0  0  0
   47.8661   32.1367   46.0723 H   0  0  0  0  0  0  0  0  0  0  0  0
   48.1096   29.2090   47.3813 H   0  0  0  0  0  0  0  0  0  0  0  0
   47.0063   30.0409   48.5096 H   0  0  0  0  0  0  0  0  0  0  0  0
   46.5966   27.5596   46.9813 H   0  0  0  0  0  0  0  0  0  0  0  0
   45.6303   28.2007   48.3194 H   0  0  0  0  0  0  0  0  0  0  0  0
   45.0694   28.3076   45.4642 H   0  0  0  0  0  0  0  0  0  0  0  0
   44.0475   28.9121   46.7717 H   0  0  0  0  0  0  0  0  0  0  0  0
   45.4764   30.4834   44.9158 H   0  0  0  0  0  0  0  0  0  0  0  0
   44.7917   31.0815   46.4521 H   0  0  0  0  0  0  0  0  0  0  0  0
   45.1495   36.6294   41.9287 H   0  0  0  0  0  0  0  0  0  0  0  0
   44.0343   37.3133   43.1416 H   0  0  0  0  0  0  0  0  0  0  0  0
  1  6  2  0
  2  1  1  0
  3  2  2  0
  3  4  1  0
  4  5  2  0
  5  6  1  0
  5  7  1  0
  7 11  1  0
  7  8  1  0
  8  9  1  0
 10  9  1  0
 11 10  1  0
 12 11  1  0
 12 13  1  0
 14 13  1  0
 15 14  1  0
 16 15  1  0
 16 12  1  0
 17  2  1  0
  1 18  1  0
  3 19  1  0
  8 20  1  0
  8 21  1  0
  9 22  1  0
  9 23  1  0
 10 24  1  0
 10 25  1  0
 11 26  1  6
 13 27  1  0
 13 28  1  0
 14 29  1  0
 14 30  1  0
 15 31  1  0
 15 32  1  0
 16 33  1  0
 16 34  1  0
 17 35  1  0
 17 36  1  0
M  ISO  8  18  14  19  14  20  13  21  13  22  13  23  13  24  13  25  13
M  ISO  8  26  13  27  13  28  13  29  13  30  13  31  13  32  13  33  13
M  ISO  1  34  13
M  END
>  <minimizedAffinity>  (1) 
-5.52996588

>  <minimizedRMSD>  (1) 
0.637804449

$$$$
