
     RDKit          3D

 41 43  0  0  0  0  0  0  0  0999 V2000
   46.9220   32.6180   45.0800 C   0  0  0  0  0  0  0  0  0  0  0  0
   46.4120   34.4170   43.4870 C   0  0  0  0  0  0  0  0  0  0  0  0
   46.1730   33.8230   44.7080 C   0  0  0  0  0  0  0  0  0  0  0  0
   45.2590   34.3010   45.6080 C   0  0  0  0  0  0  0  0  0  0  0  0
   44.5440   35.4370   45.2670 C   0  0  0  0  0  0  0  0  0  0  0  0
   44.7140   36.0840   44.0910 C   0  0  0  0  0  0  0  0  0  0  0  0
   45.6600   35.5440   43.2220 C   0  0  0  0  0  0  0  0  0  0  0  0
   47.5710   33.8430   42.3100 S   0  0  0  0  0  0  0  0  0  0  0  0
   48.9920   34.2170   42.6740 O   0  0  0  0  0  0  0  0  0  0  0  0
   47.3190   34.5480   40.9990 O   0  0  0  0  0  0  0  0  0  0  0  0
   46.2240   31.7160   46.0760 C   0  0  0  0  0  0  0  0  0  0  0  0
   47.6080   32.2500   48.0670 C   0  0  0  0  0  0  0  0  0  0  0  0
   47.1970   31.3350   47.0830 C   0  0  0  0  0  0  0  0  0  0  0  0
   47.7810   30.0660   47.1500 C   0  0  0  0  0  0  0  0  0  0  0  0
   48.6790   29.7980   48.1230 N   0  0  0  0  0  0  0  0  0  0  0  0
   49.0460   30.6930   49.0430 C   0  0  0  0  0  0  0  0  0  0  0  0
   48.5120   31.9050   49.0090 N   0  0  0  0  0  0  0  0  0  0  0  0
   49.9980   30.3320   50.0370 N   0  0  0  0  0  0  0  0  0  0  0  0
   50.6970   31.2850   50.8770 C   0  0  0  0  0  0  0  0  0  0  0  0
   51.2640   30.4390   52.0190 C   0  0  0  0  0  0  0  0  0  0  0  0
   50.5910   29.0760   51.8740 C   0  0  0  0  0  0  0  0  0  0  0  0
   50.4230   28.9860   50.3720 C   0  0  0  0  0  0  0  0  0  0  0  0
   47.8808   32.9330   45.5176 H   0  0  0  0  0  0  0  0  0  0  0  0
   47.0370   32.0291   44.1580 H   0  0  0  0  0  0  0  0  0  0  0  0
   45.0973   33.7980   46.5728 H   0  0  0  0  0  0  0  0  0  0  0  0
   43.8067   35.8299   45.9826 H   0  0  0  0  0  0  0  0  0  0  0  0
   44.1379   36.9855   43.8353 H   0  0  0  0  0  0  0  0  0  0  0  0
   45.8185   36.0506   42.2585 H   0  0  0  0  0  0  0  0  0  0  0  0
   47.4286   32.4817   42.2510 H   0  0  0  0  0  0  0  0  0  0  0  0
   45.3882   32.2540   46.5471 H   0  0  0  0  0  0  0  0  0  0  0  0
   45.8212   30.8248   45.5726 H   0  0  0  0  0  0  0  0  0  0  0  0
   47.1857   33.2657   48.0701 H   0  0  0  0  0  0  0  0  0  0  0  0
   47.5112   29.2922   46.4162 H   0  0  0  0  0  0  0  0  0  0  0  0
   51.5064   31.7770   50.3177 H   0  0  0  0  0  0  0  0  0  0  0  0
   50.0387   32.0894   51.2370 H   0  0  0  0  0  0  0  0  0  0  0  0
   52.3557   30.3431   51.9238 H   0  0  0  0  0  0  0  0  0  0  0  0
   51.0719   30.8917   53.0029 H   0  0  0  0  0  0  0  0  0  0  0  0
   51.2317   28.2679   52.2566 H   0  0  0  0  0  0  0  0  0  0  0  0
   49.6526   28.9747   52.4390 H   0  0  0  0  0  0  0  0  0  0  0  0
   49.6573   28.2451   50.0988 H   0  0  0  0  0  0  0  0  0  0  0  0
   51.3307   28.6618   49.8420 H   0  0  0  0  0  0  0  0  0  0  0  0
  1 11  1  0
  2  3  2  0
  3  1  1  0
  3  4  1  0
  5  4  2  0
  6  5  1  0
  7  2  1  0
  7  6  2  0
  8  9  2  0
  8  2  1  0
 10  8  2  0
 11 13  1  0
 12 17  2  0
 13 14  2  0
 13 12  1  0
 14 15  1  0
 15 16  2  0
 16 18  1  0
 17 16  1  0
 18 22  1  0
 18 19  1  0
 19 20  1  0
 21 20  1  0
 22 21  1  0
  1 23  1  0
  1 24  1  0
  4 25  1  0
  5 26  1  0
  6 27  1  0
  7 28  1  0
  8 29  1  0
 11 30  1  0
 11 31  1  0
 12 32  1  0
 14 33  1  0
 19 34  1  0
 19 35  1  0
 20 36  1  0
 20 37  1  0
 21 38  1  0
 21 39  1  0
 22 40  1  0
 22 41  1  0
M  ISO  8  23   8  24   8  25  14  26  14  27  14  28  14  29  11  30   8
M  ISO  8  31   8  32  14  33  14  34  13  35  13  36  13  37  13  38  13
M  ISO  3  39  13  40  13  41  13
M  END
>  <minimizedAffinity>  (1) 
-5.83493519

>  <minimizedRMSD>  (1) 
0.410287976

$$$$
