
     RDKit          3D

 44 47  0  0  1  0  0  0  0  0999 V2000
   48.8930   32.4880   38.4140 O   0  0  0  0  0  0  0  0  0  0  0  0
   48.0770   33.7770   38.5210 P   0  0  2  0  0  0  0  0  0  0  0  0
   48.9460   34.9310   37.6340 O   0  0  0  0  0  0  0  0  0  0  0  0
   47.7670   34.1910   40.0720 O   0  0  0  0  0  0  0  0  0  0  0  0
   48.2180   35.5510   42.0190 C   0  0  1  0  0  0  0  0  0  0  0  0
   49.4390   34.7550   41.8450 C   0  0  0  0  0  0  0  0  0  0  0  0
   48.5360   35.1280   40.6570 C   0  0  1  0  0  0  0  0  0  0  0  0
   46.2840   33.0500   44.1050 C   0  0  0  0  0  0  0  0  0  0  0  0
   47.3510   33.7090   43.5010 C   0  0  0  0  0  0  0  0  0  0  0  0
   47.0850   34.8330   42.6950 C   0  0  0  0  0  0  0  0  0  0  0  0
   45.7990   35.2420   42.5280 N   0  0  0  0  0  0  0  0  0  0  0  0
   44.7770   34.5800   43.1300 C   0  0  0  0  0  0  0  0  0  0  0  0
   45.0170   33.4900   43.9140 N   0  0  0  0  0  0  0  0  0  0  0  0
   46.6610   33.4580   37.6800 O   0  0  0  0  0  0  0  0  0  0  0  0
   45.5460   32.8510   38.2380 C   0  0  0  0  0  0  0  0  0  0  0  0
   45.4570   31.6370   38.9050 C   0  0  0  0  0  0  0  0  0  0  0  0
   44.2780   31.1790   39.3970 C   0  0  0  0  0  0  0  0  0  0  0  0
   43.1370   31.9190   39.2430 C   0  0  0  0  0  0  0  0  0  0  0  0
   43.2490   33.1350   38.5700 C   0  0  0  0  0  0  0  0  0  0  0  0
   44.4260   33.5850   38.0820 N   0  0  0  0  0  0  0  0  0  0  0  0
   42.0720   33.9190   38.3980 N   0  0  0  0  0  0  0  0  0  0  0  0
   40.7330   33.4290   38.2850 C   0  0  0  0  0  0  0  0  0  0  0  0
   39.8400   34.5510   38.8060 C   0  0  0  0  0  0  0  0  0  0  0  0
   40.8030   35.6230   39.2740 C   0  0  0  0  0  0  0  0  0  0  0  0
   41.9620   35.3580   38.3020 C   0  0  0  0  0  0  0  0  0  0  0  0
   49.4090   35.5458   38.2567 H   0  0  0  0  0  0  0  0  0  0  0  0
   47.9973   36.5306   42.4682 H   0  0  0  0  0  0  0  0  0  0  0  0
   50.4279   35.2231   41.9591 H   0  0  0  0  0  0  0  0  0  0  0  0
   49.8396   33.8224   42.2689 H   0  0  0  0  0  0  0  0  0  0  0  0
   48.6902   35.6238   39.6872 H   0  0  0  0  0  0  0  0  0  0  0  0
   46.4699   32.1703   44.7386 H   0  0  0  0  0  0  0  0  0  0  0  0
   48.3829   33.3584   43.6504 H   0  0  0  0  0  0  0  0  0  0  0  0
   43.7435   34.9271   42.9835 H   0  0  0  0  0  0  0  0  0  0  0  0
   46.3651   31.0307   39.0382 H   0  0  0  0  0  0  0  0  0  0  0  0
   44.2394   30.2121   39.9201 H   0  0  0  0  0  0  0  0  0  0  0  0
   42.1706   31.5686   39.6344 H   0  0  0  0  0  0  0  0  0  0  0  0
   40.4938   33.2040   37.2352 H   0  0  0  0  0  0  0  0  0  0  0  0
   40.5909   32.4983   38.8539 H   0  0  0  0  0  0  0  0  0  0  0  0
   39.1919   34.9349   38.0044 H   0  0  0  0  0  0  0  0  0  0  0  0
   39.1719   34.2114   39.6112 H   0  0  0  0  0  0  0  0  0  0  0  0
   40.3855   36.6331   39.1502 H   0  0  0  0  0  0  0  0  0  0  0  0
   41.0666   35.5843   40.3412 H   0  0  0  0  0  0  0  0  0  0  0  0
   42.8862   35.8574   38.6282 H   0  0  0  0  0  0  0  0  0  0  0  0
   41.7965   35.7353   37.2820 H   0  0  0  0  0  0  0  0  0  0  0  0
  2  1  2  0
  2  4  1  0
  3  2  1  0
  4  7  1  0
  5 10  1  0
  6  5  1  0
  7  6  1  0
  7  5  1  0
  9  8  2  0
 10  9  1  0
 11 10  2  0
 11 12  1  0
 12 13  2  0
 13  8  1  0
 14 15  1  0
 14  2  1  0
 15 16  2  0
 16 17  1  0
 18 17  2  0
 19 18  1  0
 20 15  1  0
 20 19  2  0
 21 19  1  0
 22 21  1  0
 22 23  1  0
 23 24  1  0
 25 21  1  0
 25 24  1  0
  3 26  1  0
  5 27  1  6
  6 28  1  0
  6 29  1  0
  7 30  1  6
  8 31  1  0
  9 32  1  0
 12 33  1  0
 16 34  1  0
 17 35  1  0
 18 36  1  0
 22 37  1  0
 22 38  1  0
 23 39  1  0
 23 40  1  0
 24 41  1  0
 24 42  1  0
 25 43  1  0
 25 44  1  0
M  ISO  8  26   3  27  13  28  13  29  13  30  13  31  14  32  14  33  14
M  ISO  8  34  14  35  14  36  14  37  13  38  13  39  13  40  13  41  13
M  ISO  3  42  13  43  13  44  13
M  END
>  <minimizedAffinity>  (1) 
-5.64041996

>  <minimizedRMSD>  (1) 
2.10136223

$$$$
