
     RDKit          3D

 45 49  0  0  0  0  0  0  0  0999 V2000
   45.9690   33.1790   41.6370 C   0  0  0  0  0  0  0  0  0  0  0  0
   47.1390   33.8810   41.3190 C   0  0  0  0  0  0  0  0  0  0  0  0
   48.1200   33.9620   42.2940 C   0  0  0  0  0  0  0  0  0  0  0  0
   47.8610   33.3500   43.4900 N   0  0  0  0  0  0  0  0  0  0  0  0
   46.7450   32.6860   43.7800 C   0  0  0  0  0  0  0  0  0  0  0  0
   45.7860   32.5960   42.8500 N   0  0  0  0  0  0  0  0  0  0  0  0
   46.8870   30.7580   45.2860 C   0  0  0  0  0  0  0  0  0  0  0  0
   46.5820   32.0760   45.0830 C   0  0  0  0  0  0  0  0  0  0  0  0
   46.0980   32.9050   46.1110 C   0  0  0  0  0  0  0  0  0  0  0  0
   45.9160   32.3900   47.3890 C   0  0  0  0  0  0  0  0  0  0  0  0
   45.4880   32.8590   48.5850 N   0  0  0  0  0  0  0  0  0  0  0  0
   45.5370   31.8420   49.4850 C   0  0  0  0  0  0  0  0  0  0  0  0
   45.9960   30.7490   48.8310 N   0  0  0  0  0  0  0  0  0  0  0  0
   46.2350   31.0620   47.5480 C   0  0  0  0  0  0  0  0  0  0  0  0
   46.7110   30.2220   46.5600 C   0  0  0  0  0  0  0  0  0  0  0  0
   49.3710   34.6890   42.0130 C   0  0  0  0  0  0  0  0  0  0  0  0
   49.1290   35.8000   41.1930 F   0  0  0  0  0  0  0  0  0  0  0  0
   49.9140   35.1800   43.1750 F   0  0  0  0  0  0  0  0  0  0  0  0
   50.2360   33.8260   41.3770 F   0  0  0  0  0  0  0  0  0  0  0  0
   47.2590   34.4410   40.0870 O   0  0  0  0  0  0  0  0  0  0  0  0
   47.3990   33.7050   38.9440 C   0  0  0  0  0  0  0  0  0  0  0  0
   48.3690   34.3960   38.2280 C   0  0  0  0  0  0  0  0  0  0  0  0
   48.5430   33.3860   36.6890 S   0  0  0  0  0  0  0  0  0  0  0  0
   47.2500   32.1890   37.3000 C   0  0  0  0  0  0  0  0  0  0  0  0
   47.0210   32.6680   38.2680 N   0  0  0  0  0  0  0  0  0  0  0  0
   46.9150   31.0800   36.4690 N   0  0  0  0  0  0  0  0  0  0  0  0
   47.7460   30.3690   35.5180 C   0  0  0  0  0  0  0  0  0  0  0  0
   46.7600   29.6510   34.5900 C   0  0  0  0  0  0  0  0  0  0  0  0
   45.6850   29.2650   35.6080 C   0  0  0  0  0  0  0  0  0  0  0  0
   45.6210   30.4870   36.4660 C   0  0  0  0  0  0  0  0  0  0  0  0
   45.1741   33.0975   40.8810 H   0  0  0  0  0  0  0  0  0  0  0  0
   47.2631   30.1348   44.4613 H   0  0  0  0  0  0  0  0  0  0  0  0
   45.8638   33.9596   45.9037 H   0  0  0  0  0  0  0  0  0  0  0  0
   45.1783   33.8219   48.7794 H   0  0  0  0  0  0  0  0  0  0  0  0
   45.2561   31.8966   50.5471 H   0  0  0  0  0  0  0  0  0  0  0  0
   46.9428   29.1677   46.7715 H   0  0  0  0  0  0  0  0  0  0  0  0
   48.9019   35.3167   38.5078 H   0  0  0  0  0  0  0  0  0  0  0  0
   48.3708   31.0727   34.9484 H   0  0  0  0  0  0  0  0  0  0  0  0
   48.4336   29.6675   36.0131 H   0  0  0  0  0  0  0  0  0  0  0  0
   46.3660   30.3221   33.8126 H   0  0  0  0  0  0  0  0  0  0  0  0
   47.1835   28.8126   34.0176 H   0  0  0  0  0  0  0  0  0  0  0  0
   44.7203   29.0699   35.1168 H   0  0  0  0  0  0  0  0  0  0  0  0
   45.9095   28.3426   36.1637 H   0  0  0  0  0  0  0  0  0  0  0  0
   44.8852   31.1947   36.0563 H   0  0  0  0  0  0  0  0  0  0  0  0
   45.3144   30.2245   37.4893 H   0  0  0  0  0  0  0  0  0  0  0  0
  1  6  2  0
  2  1  1  0
  2  3  2  0
  3  4  1  0
  4  5  2  0
  5  8  1  0
  6  5  1  0
  7 15  2  0
  8  7  1  0
  8  9  2  0
  9 10  1  0
 10 14  2  0
 10 11  1  0
 11 12  1  0
 13 12  2  0
 14 13  1  0
 15 14  1  0
 16  3  1  0
 16 18  1  0
 17 16  1  0
 19 16  1  0
 20  2  1  0
 21 20  1  0
 22 21  2  0
 23 24  1  0
 23 22  1  0
 24 25  2  0
 25 21  1  0
 26 24  1  0
 27 26  1  0
 28 27  1  0
 28 29  1  0
 29 30  1  0
 30 26  1  0
  1 31  1  0
  7 32  1  0
  9 33  1  0
 11 34  1  0
 12 35  1  0
 15 36  1  0
 22 37  1  0
 27 38  1  0
 27 39  1  0
 28 40  1  0
 28 41  1  0
 29 42  1  0
 29 43  1  0
 30 44  1  0
 30 45  1  0
M  ISO  8  31  14  32  14  33  14  34   9  35  14  36  14  37  14  38  13
M  ISO  7  39  13  40  13  41  13  42  13  43  13  44  13  45  13
M  END
>  <minimizedAffinity>  (1) 
-6.47507715

>  <minimizedRMSD>  (1) 
0.0368044749

$$$$
