
     RDKit          3D

 24 25  0  0  0  0  0  0  0  0999 V2000
   45.3890   36.0150   43.1630 C   0  0  0  0  0  0  0  0  0  0  0  0
   46.2300   34.9040   43.1420 C   0  0  0  0  0  0  0  0  0  0  0  0
   46.1980   34.0560   44.2370 C   0  0  0  0  0  0  0  0  0  0  0  0
   45.3690   34.3240   45.2730 N   0  0  0  0  0  0  0  0  0  0  0  0
   44.5550   35.4170   45.2700 C   0  0  0  0  0  0  0  0  0  0  0  0
   44.5770   36.2410   44.2210 N   0  0  0  0  0  0  0  0  0  0  0  0
   47.0170   32.8910   44.3210 N   0  0  0  0  0  0  0  0  0  0  0  0
   48.0200   32.5170   43.3350 C   0  0  0  0  0  0  0  0  0  0  0  0
   47.4020   31.1830   42.8940 C   0  0  0  0  0  0  0  0  0  0  0  0
   47.2670   30.5340   44.2720 C   0  0  0  0  0  0  0  0  0  0  0  0
   47.2530   31.7390   45.1900 C   0  0  0  0  0  0  0  0  0  0  0  0
   47.0980   34.6430   42.0370 C   0  0  0  0  0  0  0  0  0  0  0  0
   47.9660   35.5160   41.7510 O   0  0  0  0  0  0  0  0  0  0  0  0
   45.3855   36.7133   42.3130 H   0  0  0  0  0  0  0  0  0  0  0  0
   43.8883   35.6173   46.1217 H   0  0  0  0  0  0  0  0  0  0  0  0
   48.0817   33.2406   42.5088 H   0  0  0  0  0  0  0  0  0  0  0  0
   49.0578   32.4712   43.6967 H   0  0  0  0  0  0  0  0  0  0  0  0
   46.4276   31.3194   42.4021 H   0  0  0  0  0  0  0  0  0  0  0  0
   47.9760   30.6118   42.1495 H   0  0  0  0  0  0  0  0  0  0  0  0
   46.3325   29.9594   44.3530 H   0  0  0  0  0  0  0  0  0  0  0  0
   48.0646   29.8120   44.5013 H   0  0  0  0  0  0  0  0  0  0  0  0
   48.2187   31.8393   45.7071 H   0  0  0  0  0  0  0  0  0  0  0  0
   46.4801   31.6500   45.9676 H   0  0  0  0  0  0  0  0  0  0  0  0
   47.0134   33.7135   41.4549 H   0  0  0  0  0  0  0  0  0  0  0  0
  1  6  2  0
  2  1  1  0
  2  3  2  0
  3  7  1  0
  3  4  1  0
  5  4  2  0
  6  5  1  0
  7 11  1  0
  8  7  1  0
  9  8  1  0
  9 10  1  0
 10 11  1  0
 12  2  1  0
 13 12  2  0
  1 14  1  0
  5 15  1  0
  8 16  1  0
  8 17  1  0
  9 18  1  0
  9 19  1  0
 10 20  1  0
 10 21  1  0
 11 22  1  0
 11 23  1  0
 12 24  1  0
M  ISO  8  14  14  15  14  16  13  17  13  18  13  19  13  20  13  21  13
M  ISO  3  22  13  23  13  24   6
M  END
>  <minimizedAffinity>  (1) 
-3.67640972

>  <minimizedRMSD>  (1) 
0.41195941

$$$$
