
     RDKit          3D

 39 42  0  0  0  0  0  0  0  0999 V2000
   46.3980   32.4580   45.2670 C   0  0  0  0  0  0  0  0  0  0  0  0
   47.3190   32.3380   44.2410 C   0  0  0  0  0  0  0  0  0  0  0  0
   46.7990   32.8920   43.1130 C   0  0  0  0  0  0  0  0  0  0  0  0
   45.5810   33.3450   43.4400 N   0  0  0  0  0  0  0  0  0  0  0  0
   45.3560   33.0800   44.7260 N   0  0  0  0  0  0  0  0  0  0  0  0
   43.3130   32.0830   42.3180 F   0  0  0  0  0  0  0  0  0  0  0  0
   43.5260   33.3860   42.0950 C   0  0  0  0  0  0  0  0  0  0  0  0
   44.6320   33.9960   42.6440 C   0  0  0  0  0  0  0  0  0  0  0  0
   44.8560   35.3480   42.4140 C   0  0  0  0  0  0  0  0  0  0  0  0
   44.0160   36.1160   41.6560 C   0  0  0  0  0  0  0  0  0  0  0  0
   42.9270   35.4910   41.1220 C   0  0  0  0  0  0  0  0  0  0  0  0
   42.6740   34.1530   41.3300 C   0  0  0  0  0  0  0  0  0  0  0  0
   41.5140   33.5850   40.7340 N   0  0  0  0  0  0  0  0  0  0  0  0
   41.1810   32.8720   39.4940 C   0  0  0  0  0  0  0  0  0  0  0  0
   40.0090   33.6880   38.9890 C   0  0  0  0  0  0  0  0  0  0  0  0
   39.3510   34.2320   40.2590 C   0  0  0  0  0  0  0  0  0  0  0  0
   40.1860   33.6120   41.3590 C   0  0  0  0  0  0  0  0  0  0  0  0
   47.6990   30.6150   48.1580 C   0  0  0  0  0  0  0  0  0  0  0  0
   46.9210   31.1280   49.2120 C   0  0  0  0  0  0  0  0  0  0  0  0
   45.9590   32.1010   48.9240 C   0  0  0  0  0  0  0  0  0  0  0  0
   45.8600   32.4680   47.6350 N   0  0  0  0  0  0  0  0  0  0  0  0
   46.5950   31.9870   46.6180 C   0  0  0  0  0  0  0  0  0  0  0  0
   47.5250   31.0490   46.8860 N   0  0  0  0  0  0  0  0  0  0  0  0
   48.3111   31.8702   44.3244 H   0  0  0  0  0  0  0  0  0  0  0  0
   47.2827   32.9556   42.1271 H   0  0  0  0  0  0  0  0  0  0  0  0
   45.7445   35.8193   42.8595 H   0  0  0  0  0  0  0  0  0  0  0  0
   44.2088   37.1854   41.4851 H   0  0  0  0  0  0  0  0  0  0  0  0
   42.2281   36.0748   40.5051 H   0  0  0  0  0  0  0  0  0  0  0  0
   42.0196   32.8883   38.7823 H   0  0  0  0  0  0  0  0  0  0  0  0
   40.9595   31.8036   39.6339 H   0  0  0  0  0  0  0  0  0  0  0  0
   40.3553   34.5110   38.3465 H   0  0  0  0  0  0  0  0  0  0  0  0
   39.3146   33.0923   38.3783 H   0  0  0  0  0  0  0  0  0  0  0  0
   39.4026   35.3303   40.2931 H   0  0  0  0  0  0  0  0  0  0  0  0
   38.2808   33.9892   40.3342 H   0  0  0  0  0  0  0  0  0  0  0  0
   39.8371   32.5986   41.6064 H   0  0  0  0  0  0  0  0  0  0  0  0
   40.1491   34.1576   42.3135 H   0  0  0  0  0  0  0  0  0  0  0  0
   48.4603   29.8498   48.3697 H   0  0  0  0  0  0  0  0  0  0  0  0
   47.0666   30.7708   50.2421 H   0  0  0  0  0  0  0  0  0  0  0  0
   45.3214   32.5398   49.7057 H   0  0  0  0  0  0  0  0  0  0  0  0
  1 22  1  0
  2  1  1  0
  3  4  1  0
  3  2  2  0
  4  5  1  0
  5  1  2  0
  7  6  1  0
  7  8  2  0
  8  4  1  0
  9  8  1  0
 10  9  2  0
 11 12  2  0
 11 10  1  0
 12  7  1  0
 13 12  1  0
 13 17  1  0
 14 13  1  0
 15 14  1  0
 15 16  1  0
 16 17  1  0
 18 19  2  0
 20 19  1  0
 21 20  2  0
 22 23  2  0
 22 21  1  0
 23 18  1  0
  2 24  1  0
  3 25  1  0
  9 26  1  0
 10 27  1  0
 11 28  1  0
 14 29  1  0
 14 30  1  0
 15 31  1  0
 15 32  1  0
 16 33  1  0
 16 34  1  0
 17 35  1  0
 17 36  1  0
 18 37  1  0
 19 38  1  0
 20 39  1  0
M  ISO  8  24  14  25  14  26  14  27  14  28  14  29  13  30  13  31  13
M  ISO  8  32  13  33  13  34  13  35  13  36  13  37  14  38  14  39  14
M  END
>  <minimizedAffinity>  (1) 
-5.38447571

>  <minimizedRMSD>  (1) 
2.24458432

$$$$
