
     RDKit          3D

 31 33  0  0  0  0  0  0  0  0999 V2000
   45.6040   33.9660   45.4840 C   0  0  0  0  0  0  0  0  0  0  0  0
   44.6940   35.0060   45.7300 C   0  0  0  0  0  0  0  0  0  0  0  0
   44.4980   35.9500   44.7160 C   0  0  0  0  0  0  0  0  0  0  0  0
   45.2020   35.8060   43.5490 N   0  0  0  0  0  0  0  0  0  0  0  0
   46.0580   34.7960   43.3630 C   0  0  0  0  0  0  0  0  0  0  0  0
   46.2670   33.8810   44.3080 N   0  0  0  0  0  0  0  0  0  0  0  0
   46.7850   34.6930   42.0890 C   0  0  0  0  0  0  0  0  0  0  0  0
   47.9880   35.3670   41.9260 C   0  0  0  0  0  0  0  0  0  0  0  0
   48.7350   35.3220   40.7600 C   0  0  0  0  0  0  0  0  0  0  0  0
   48.1860   34.5390   39.7400 C   0  0  0  0  0  0  0  0  0  0  0  0
   46.9850   33.8660   39.9030 C   0  0  0  0  0  0  0  0  0  0  0  0
   46.2950   33.9510   41.0800 N   0  0  0  0  0  0  0  0  0  0  0  0
   45.8630   32.9700   46.4470 N   0  0  0  0  0  0  0  0  0  0  0  0
   46.7900   31.8460   46.3940 C   0  0  0  0  0  0  0  0  0  0  0  0
   45.8450   30.7080   46.7940 C   0  0  0  0  0  0  0  0  0  0  0  0
   45.2460   31.3250   48.0600 C   0  0  0  0  0  0  0  0  0  0  0  0
   45.2530   32.8160   47.7700 C   0  0  0  0  0  0  0  0  0  0  0  0
   44.1542   35.0764   46.6859 H   0  0  0  0  0  0  0  0  0  0  0  0
   43.7967   36.7865   44.8520 H   0  0  0  0  0  0  0  0  0  0  0  0
   48.3675   35.9676   42.7658 H   0  0  0  0  0  0  0  0  0  0  0  0
   49.6870   35.8610   40.6455 H   0  0  0  0  0  0  0  0  0  0  0  0
   48.7213   34.4547   38.7827 H   0  0  0  0  0  0  0  0  0  0  0  0
   46.5839   33.2585   39.0783 H   0  0  0  0  0  0  0  0  0  0  0  0
   47.1997   31.7012   45.3835 H   0  0  0  0  0  0  0  0  0  0  0  0
   47.6845   31.9510   47.0255 H   0  0  0  0  0  0  0  0  0  0  0  0
   45.0802   30.5184   46.0264 H   0  0  0  0  0  0  0  0  0  0  0  0
   46.3197   29.7247   46.9270 H   0  0  0  0  0  0  0  0  0  0  0  0
   44.2209   30.9623   48.2263 H   0  0  0  0  0  0  0  0  0  0  0  0
   45.8079   31.0642   48.9690 H   0  0  0  0  0  0  0  0  0  0  0  0
   45.8454   33.3495   48.5279 H   0  0  0  0  0  0  0  0  0  0  0  0
   44.2362   33.2349   47.7948 H   0  0  0  0  0  0  0  0  0  0  0  0
  1  2  2  0
  1 13  1  0
  3  2  1  0
  4  3  2  0
  5  4  1  0
  5  6  2  0
  6  1  1  0
  7  5  1  0
  8  7  2  0
  9  8  1  0
 10 11  1  0
 10  9  2  0
 11 12  2  0
 12  7  1  0
 13 17  1  0
 14 13  1  0
 14 15  1  0
 15 16  1  0
 17 16  1  0
  2 18  1  0
  3 19  1  0
  8 20  1  0
  9 21  1  0
 10 22  1  0
 11 23  1  0
 14 24  1  0
 14 25  1  0
 15 26  1  0
 15 27  1  0
 16 28  1  0
 16 29  1  0
 17 30  1  0
 17 31  1  0
M  ISO  8  18  14  19  14  20  14  21  14  22  14  23  14  24  13  25  13
M  ISO  6  26  13  27  13  28  13  29  13  30  13  31  13
M  END
>  <minimizedAffinity>  (1) 
-5.83883858

>  <minimizedRMSD>  (1) 
0.160911977

$$$$
