
     RDKit          3D

 41 43  0  0  0  0  0  0  0  0999 V2000
   46.5500   34.0890   41.5940 N   0  0  0  0  0  0  0  0  0  0  0  0
   47.3400   33.7280   40.4750 C   0  0  0  0  0  0  0  0  0  0  0  0
   48.1770   35.0030   40.2830 C   0  0  0  0  0  0  0  0  0  0  0  0
   48.9880   35.3770   41.4430 C   0  0  0  0  0  0  0  0  0  0  0  0
   48.6150   34.7760   42.7370 C   0  0  0  0  0  0  0  0  0  0  0  0
   47.2940   34.1010   42.8520 C   0  0  0  0  0  0  0  0  0  0  0  0
   46.8230   33.5910   44.0900 N   0  0  0  0  0  0  0  0  0  0  0  0
   47.1810   32.2880   44.6670 C   0  0  0  0  0  0  0  0  0  0  0  0
   46.1870   32.0190   45.7420 C   0  0  0  0  0  0  0  0  0  0  0  0
   45.6740   33.3670   46.1240 C   0  0  0  0  0  0  0  0  0  0  0  0
   45.9270   34.2870   44.9550 C   0  0  0  0  0  0  0  0  0  0  0  0
   45.3040   34.6120   41.5940 C   0  0  0  0  0  0  0  0  0  0  0  0
   44.4730   34.0040   40.4930 C   0  0  0  0  0  0  0  0  0  0  0  0
   43.0540   34.1740   40.8660 C   0  0  0  0  0  0  0  0  0  0  0  0
   42.1940   33.0900   40.9560 C   0  0  0  0  0  0  0  0  0  0  0  0
   40.8600   33.3040   41.3170 C   0  0  0  0  0  0  0  0  0  0  0  0
   40.4800   34.5840   41.5640 N   0  0  0  0  0  0  0  0  0  0  0  0
   41.3360   35.6020   41.4670 C   0  0  0  0  0  0  0  0  0  0  0  0
   42.6050   35.3820   41.1210 N   0  0  0  0  0  0  0  0  0  0  0  0
   47.9752   32.8568   40.6932 H   0  0  0  0  0  0  0  0  0  0  0  0
   46.7610   33.4281   39.5891 H   0  0  0  0  0  0  0  0  0  0  0  0
   48.8515   34.8458   39.4284 H   0  0  0  0  0  0  0  0  0  0  0  0
   47.4634   35.8245   40.1221 H   0  0  0  0  0  0  0  0  0  0  0  0
   50.0276   35.0880   41.2293 H   0  0  0  0  0  0  0  0  0  0  0  0
   48.8267   36.4576   41.5705 H   0  0  0  0  0  0  0  0  0  0  0  0
   49.2980   34.8256   43.5978 H   0  0  0  0  0  0  0  0  0  0  0  0
   47.1308   31.5039   43.8971 H   0  0  0  0  0  0  0  0  0  0  0  0
   48.2068   32.2952   45.0641 H   0  0  0  0  0  0  0  0  0  0  0  0
   45.3706   31.3846   45.3665 H   0  0  0  0  0  0  0  0  0  0  0  0
   46.6288   31.4830   46.5949 H   0  0  0  0  0  0  0  0  0  0  0  0
   44.5959   33.3141   46.3358 H   0  0  0  0  0  0  0  0  0  0  0  0
   46.1797   33.7359   47.0285 H   0  0  0  0  0  0  0  0  0  0  0  0
   46.3827   35.2267   45.3005 H   0  0  0  0  0  0  0  0  0  0  0  0
   44.9912   34.5473   44.4388 H   0  0  0  0  0  0  0  0  0  0  0  0
   44.8258   34.4067   42.5631 H   0  0  0  0  0  0  0  0  0  0  0  0
   45.3749   35.6969   41.4267 H   0  0  0  0  0  0  0  0  0  0  0  0
   44.7093   32.9346   40.3903 H   0  0  0  0  0  0  0  0  0  0  0  0
   44.6834   34.4946   39.5312 H   0  0  0  0  0  0  0  0  0  0  0  0
   42.5570   32.0731   40.7458 H   0  0  0  0  0  0  0  0  0  0  0  0
   40.1477   32.4696   41.3976 H   0  0  0  0  0  0  0  0  0  0  0  0
   40.9941   36.6270   41.6732 H   0  0  0  0  0  0  0  0  0  0  0  0
  1  6  1  0
  2  1  1  0
  3  2  1  0
  3  4  1  0
  4  5  1  0
  5  6  2  0
  6  7  1  0
  7  8  1  0
  7 11  1  0
  8  9  1  0
  9 10  1  0
 11 10  1  0
 12  1  1  0
 13 14  1  0
 13 12  1  0
 14 15  2  0
 14 19  1  0
 15 16  1  0
 16 17  2  0
 18 17  1  0
 19 18  2  0
  2 20  1  0
  2 21  1  0
  3 22  1  0
  3 23  1  0
  4 24  1  0
  4 25  1  0
  5 26  1  0
  8 27  1  0
  8 28  1  0
  9 29  1  0
  9 30  1  0
 10 31  1  0
 10 32  1  0
 11 33  1  0
 11 34  1  0
 12 35  1  0
 12 36  1  0
 13 37  1  0
 13 38  1  0
 15 39  1  0
 16 40  1  0
 18 41  1  0
M  ISO  8  20  13  21  13  22  13  23  13  24  13  25  13  26  13  27  13
M  ISO  8  28  13  29  13  30  13  31  13  32  13  33  13  34  13  35   8
M  ISO  6  36   8  37   8  38   8  39  14  40  14  41  14
M  END
>  <minimizedAffinity>  (1) 
-4.89099932

>  <minimizedRMSD>  (1) 
4.38270617

$$$$
