
     RDKit          3D

 35 37  0  0  1  0  0  0  0  0999 V2000
   45.8080   33.8960   40.2580 N   0  0  0  0  0  0  0  0  0  0  0  0
   45.8060   33.0770   39.0950 C   0  0  0  0  0  0  0  0  0  0  0  0
   47.1220   33.3570   38.4690 C   0  0  0  0  0  0  0  0  0  0  0  0
   47.8700   34.3230   39.3710 C   0  0  0  0  0  0  0  0  0  0  0  0
   47.0920   34.1290   40.6840 C   0  0  1  0  0  0  0  0  0  0  0  0
   47.4990   34.9550   41.7210 N   0  0  0  0  0  0  0  0  0  0  0  0
   47.6680   34.2320   42.9750 C   0  0  0  0  0  0  0  0  0  0  0  0
   49.0950   33.9380   43.2170 C   0  0  0  0  0  0  0  0  0  0  0  0
   49.8350   34.7940   42.2380 C   0  0  0  0  0  0  0  0  0  0  0  0
   48.7810   35.6050   41.5790 C   0  0  0  0  0  0  0  0  0  0  0  0
   44.6520   34.4000   40.7450 C   0  0  0  0  0  0  0  0  0  0  0  0
   42.6940   31.5500   42.2380 C   0  0  0  0  0  0  0  0  0  0  0  0
   43.7970   32.3660   41.9730 C   0  0  0  0  0  0  0  0  0  0  0  0
   43.6150   33.4370   41.1000 C   0  0  0  0  0  0  0  0  0  0  0  0
   42.3870   33.6110   40.5690 N   0  0  0  0  0  0  0  0  0  0  0  0
   41.3170   32.7900   40.8490 C   0  0  0  0  0  0  0  0  0  0  0  0
   41.4830   31.7640   41.6830 N   0  0  0  0  0  0  0  0  0  0  0  0
   45.0161   32.3972   38.7430 H   0  0  0  0  0  0  0  0  0  0  0  0
   47.4902   32.9392   37.5204 H   0  0  0  0  0  0  0  0  0  0  0  0
   48.9281   34.0427   39.4794 H   0  0  0  0  0  0  0  0  0  0  0  0
   47.9070   35.3600   39.0059 H   0  0  0  0  0  0  0  0  0  0  0  0
   47.3046   33.2671   41.3336 H   0  0  0  0  0  0  0  0  0  0  0  0
   47.2801   34.8458   43.8013 H   0  0  0  0  0  0  0  0  0  0  0  0
   47.1155   33.2827   42.9144 H   0  0  0  0  0  0  0  0  0  0  0  0
   49.3746   34.1991   44.2483 H   0  0  0  0  0  0  0  0  0  0  0  0
   49.3253   32.8698   43.0905 H   0  0  0  0  0  0  0  0  0  0  0  0
   50.5566   35.4424   42.7567 H   0  0  0  0  0  0  0  0  0  0  0  0
   50.4148   34.1983   41.5176 H   0  0  0  0  0  0  0  0  0  0  0  0
   49.0187   35.7129   40.5104 H   0  0  0  0  0  0  0  0  0  0  0  0
   48.7383   36.5968   42.0528 H   0  0  0  0  0  0  0  0  0  0  0  0
   44.8949   34.9768   41.6496 H   0  0  0  0  0  0  0  0  0  0  0  0
   44.2261   34.9930   39.9222 H   0  0  0  0  0  0  0  0  0  0  0  0
   42.8178   30.7004   42.9256 H   0  0  0  0  0  0  0  0  0  0  0  0
   44.7748   32.1699   42.4372 H   0  0  0  0  0  0  0  0  0  0  0  0
   40.3359   32.9793   40.3890 H   0  0  0  0  0  0  0  0  0  0  0  0
  1  5  1  0
  1 11  1  0
  2  1  1  0
  3  2  2  0
  3  4  1  0
  4  5  1  0
  5  6  1  0
  6  7  1  0
  7  8  1  0
  9  8  1  0
 10  6  1  0
 10  9  1  0
 11 14  1  0
 13 12  2  0
 14 13  1  0
 15 16  1  0
 15 14  2  0
 16 17  2  0
 17 12  1  0
  2 18  1  0
  3 19  1  0
  4 20  1  0
  4 21  1  0
  5 22  1  1
  7 23  1  0
  7 24  1  0
  8 25  1  0
  8 26  1  0
  9 27  1  0
  9 28  1  0
 10 29  1  0
 10 30  1  0
 11 31  1  0
 11 32  1  0
 12 33  1  0
 13 34  1  0
 16 35  1  0
M  ISO  8  18  13  19  13  20  13  21  13  22  13  23  13  24  13  25  13
M  ISO  8  26  13  27  13  28  13  29  13  30  13  31   8  32   8  33  14
M  ISO  2  34  14  35  14
M  END
>  <minimizedAffinity>  (1) 
-3.96212935

>  <minimizedRMSD>  (1) 
3.65808105

$$$$
