
     RDKit          3D

 24 25  0  0  0  0  0  0  0  0999 V2000
   44.5410   35.5590   45.1420 C   0  0  0  0  0  0  0  0  0  0  0  0
   45.1380   35.6800   43.8690 C   0  0  0  0  0  0  0  0  0  0  0  0
   46.0950   34.7160   43.5150 C   0  0  0  0  0  0  0  0  0  0  0  0
   46.3780   33.7370   44.4190 N   0  0  0  0  0  0  0  0  0  0  0  0
   45.7790   33.6630   45.6280 C   0  0  0  0  0  0  0  0  0  0  0  0
   44.8610   34.5750   45.9860 N   0  0  0  0  0  0  0  0  0  0  0  0
   46.6910   34.8330   42.2480 N   0  0  0  0  0  0  0  0  0  0  0  0
   47.9090   35.4300   41.8140 C   0  0  0  0  0  0  0  0  0  0  0  0
   48.4380   34.4700   40.7680 C   0  0  0  0  0  0  0  0  0  0  0  0
   47.1940   34.0190   40.0770 C   0  0  0  0  0  0  0  0  0  0  0  0
   46.0830   34.3010   41.0380 C   0  0  0  0  0  0  0  0  0  0  0  0
   44.7320   36.7600   43.0400 N   0  0  0  0  0  0  0  0  0  0  0  0
   43.7876   36.2994   45.4489 H   0  0  0  0  0  0  0  0  0  0  0  0
   46.0447   32.8519   46.3220 H   0  0  0  0  0  0  0  0  0  0  0  0
   47.7235   36.4217   41.3758 H   0  0  0  0  0  0  0  0  0  0  0  0
   48.6190   35.5891   42.6390 H   0  0  0  0  0  0  0  0  0  0  0  0
   49.1173   34.9799   40.0691 H   0  0  0  0  0  0  0  0  0  0  0  0
   49.0258   33.6428   41.1924 H   0  0  0  0  0  0  0  0  0  0  0  0
   47.0471   34.5809   39.1428 H   0  0  0  0  0  0  0  0  0  0  0  0
   47.2397   32.9542   39.8047 H   0  0  0  0  0  0  0  0  0  0  0  0
   45.3898   35.0388   40.6078 H   0  0  0  0  0  0  0  0  0  0  0  0
   45.5111   33.3869   41.2556 H   0  0  0  0  0  0  0  0  0  0  0  0
   45.1485   36.8765   42.1052 H   0  0  0  0  0  0  0  0  0  0  0  0
   44.0212   37.4265   43.3738 H   0  0  0  0  0  0  0  0  0  0  0  0
  1  6  2  0
  2  1  1  0
  3  2  2  0
  3  4  1  0
  4  5  2  0
  5  6  1  0
  7  3  1  0
  8  7  1  0
  9  8  1  0
 10  9  1  0
 10 11  1  0
 11  7  1  0
 12  2  1  0
  1 13  1  0
  5 14  1  0
  8 15  1  0
  8 16  1  0
  9 17  1  0
  9 18  1  0
 10 19  1  0
 10 20  1  0
 11 21  1  0
 11 22  1  0
 12 23  1  0
 12 24  1  0
M  ISO  8  13  14  14  14  15  13  16  13  17  13  18  13  19  13  20  13
M  ISO  2  21  13  22  13
M  END
>  <minimizedAffinity>  (1) 
-4.44203711

>  <minimizedRMSD>  (1) 
2.00508094

$$$$
