
     RDKit          3D

 30 32  0  0  1  0  0  0  0  0999 V2000
   44.8760   34.8770   42.7500 C   0  0  0  0  0  0  0  0  0  0  0  0
   46.0540   35.0220   41.9900 C   0  0  0  0  0  0  0  0  0  0  0  0
   47.2520   34.5420   42.5370 C   0  0  0  0  0  0  0  0  0  0  0  0
   47.2160   33.9570   43.7790 N   0  0  0  0  0  0  0  0  0  0  0  0
   46.0660   33.8500   44.4490 C   0  0  0  0  0  0  0  0  0  0  0  0
   44.9050   34.3070   43.9390 N   0  0  0  0  0  0  0  0  0  0  0  0
   48.5410   34.6450   41.7790 C   0  0  0  0  0  0  0  0  0  0  0  0
   49.1040   36.0080   41.5240 C   0  0  0  0  0  0  0  0  0  0  0  0
   49.7530   35.0100   42.4920 C   0  0  0  0  0  0  0  0  0  0  0  0
   43.7460   35.3600   42.1790 O   0  0  0  0  0  0  0  0  0  0  0  0
   42.4410   33.4120   41.8360 N   0  0  0  0  0  0  0  0  0  0  0  0
   41.1690   33.2260   41.1320 C   0  0  0  0  0  0  0  0  0  0  0  0
   40.4050   34.4750   41.5650 C   0  0  0  0  0  0  0  0  0  0  0  0
   41.4890   35.5060   41.5850 C   0  0  0  0  0  0  0  0  0  0  0  0
   42.8040   34.7420   41.3780 C   0  0  1  0  0  0  0  0  0  0  0  0
   46.0339   35.4972   40.9981 H   0  0  0  0  0  0  0  0  0  0  0  0
   46.0661   33.3770   45.4421 H   0  0  0  0  0  0  0  0  0  0  0  0
   48.2684   33.7947   41.1365 H   0  0  0  0  0  0  0  0  0  0  0  0
   49.5822   36.2425   40.5615 H   0  0  0  0  0  0  0  0  0  0  0  0
   48.7345   37.0425   41.5806 H   0  0  0  0  0  0  0  0  0  0  0  0
   49.7190   35.1939   43.5760 H   0  0  0  0  0  0  0  0  0  0  0  0
   50.7553   34.5693   42.5980 H   0  0  0  0  0  0  0  0  0  0  0  0
   42.3180   33.3821   42.8582 H   0  0  0  0  0  0  0  0  0  0  0  0
   40.6584   32.3079   41.4580 H   0  0  0  0  0  0  0  0  0  0  0  0
   41.2684   33.1127   40.0424 H   0  0  0  0  0  0  0  0  0  0  0  0
   39.6188   34.7346   40.8408 H   0  0  0  0  0  0  0  0  0  0  0  0
   39.8780   34.3644   42.5242 H   0  0  0  0  0  0  0  0  0  0  0  0
   41.3386   36.2344   40.7745 H   0  0  0  0  0  0  0  0  0  0  0  0
   41.4938   36.0670   42.5312 H   0  0  0  0  0  0  0  0  0  0  0  0
   43.2237   34.7131   40.3616 H   0  0  0  0  0  0  0  0  0  0  0  0
  1  6  2  0
  2  3  2  0
  2  1  1  0
  3  4  1  0
  4  5  2  0
  6  5  1  0
  7  9  1  0
  7  3  1  0
  8  7  1  0
  8  9  1  0
 10  1  1  0
 12 13  1  0
 12 11  1  0
 13 14  1  0
 15 14  1  0
 15 11  1  0
 15 10  1  0
  2 16  1  0
  5 17  1  0
  7 18  1  0
  8 19  1  0
  8 20  1  0
  9 21  1  0
  9 22  1  0
 11 23  1  0
 12 24  1  0
 12 25  1  0
 13 26  1  0
 13 27  1  0
 14 28  1  0
 14 29  1  0
 15 30  1  6
M  ISO  8  16  14  17  14  18  13  19  13  20  13  21  13  22  13  23   5
M  ISO  7  24  13  25  13  26  13  27  13  28  13  29  13  30  13
M  END
>  <minimizedAffinity>  (1) 
-5.0184803

>  <minimizedRMSD>  (1) 
2.03264236

$$$$
