
     RDKit          3D

 34 36  0  0  0  0  0  0  0  0999 V2000
   46.8270   34.8400   42.0360 C   0  0  0  0  0  0  0  0  0  0  0  0
   48.0450   35.4630   41.9770 C   0  0  0  0  0  0  0  0  0  0  0  0
   48.8600   35.4110   40.8450 C   0  0  0  0  0  0  0  0  0  0  0  0
   48.4450   34.7110   39.7350 C   0  0  0  0  0  0  0  0  0  0  0  0
   47.2090   34.0830   39.8040 C   0  0  0  0  0  0  0  0  0  0  0  0
   46.3900   34.1300   40.9260 C   0  0  0  0  0  0  0  0  0  0  0  0
   44.4770   36.0510   44.7210 C   0  0  0  0  0  0  0  0  0  0  0  0
   45.1910   36.0270   43.5070 C   0  0  0  0  0  0  0  0  0  0  0  0
   46.0540   34.9540   43.2480 C   0  0  0  0  0  0  0  0  0  0  0  0
   46.1710   33.9820   44.1700 N   0  0  0  0  0  0  0  0  0  0  0  0
   45.4660   34.0330   45.3350 C   0  0  0  0  0  0  0  0  0  0  0  0
   44.6250   35.0620   45.6070 N   0  0  0  0  0  0  0  0  0  0  0  0
   45.5940   32.9980   46.3040 N   0  0  0  0  0  0  0  0  0  0  0  0
   45.1280   33.4720   40.9610 N   0  0  0  0  0  0  0  0  0  0  0  0
   44.6900   32.1320   41.3370 C   0  0  0  0  0  0  0  0  0  0  0  0
   43.4290   32.4780   42.1160 C   0  0  0  0  0  0  0  0  0  0  0  0
   42.7510   33.4040   41.1260 C   0  0  0  0  0  0  0  0  0  0  0  0
   43.9150   34.1790   40.5540 C   0  0  0  0  0  0  0  0  0  0  0  0
   48.3944   36.0259   42.8551 H   0  0  0  0  0  0  0  0  0  0  0  0
   49.8310   35.9279   40.8401 H   0  0  0  0  0  0  0  0  0  0  0  0
   49.0675   34.6516   38.8300 H   0  0  0  0  0  0  0  0  0  0  0  0
   46.8600   33.5195   38.9261 H   0  0  0  0  0  0  0  0  0  0  0  0
   43.7957   36.8863   44.9402 H   0  0  0  0  0  0  0  0  0  0  0  0
   45.0729   36.8382   42.7735 H   0  0  0  0  0  0  0  0  0  0  0  0
   45.0571   33.0450   47.1818 H   0  0  0  0  0  0  0  0  0  0  0  0
   46.2235   32.2021   46.1273 H   0  0  0  0  0  0  0  0  0  0  0  0
   44.4687   31.5120   40.4557 H   0  0  0  0  0  0  0  0  0  0  0  0
   45.4317   31.5401   41.8933 H   0  0  0  0  0  0  0  0  0  0  0  0
   42.8198   31.5858   42.3231 H   0  0  0  0  0  0  0  0  0  0  0  0
   43.6048   32.9134   43.1108 H   0  0  0  0  0  0  0  0  0  0  0  0
   42.2288   32.8350   40.3427 H   0  0  0  0  0  0  0  0  0  0  0  0
   41.9794   34.0429   41.5803 H   0  0  0  0  0  0  0  0  0  0  0  0
   43.9212   35.2041   40.9530 H   0  0  0  0  0  0  0  0  0  0  0  0
   43.8451   34.2485   39.4584 H   0  0  0  0  0  0  0  0  0  0  0  0
  1  9  1  0
  2  1  2  0
  3  2  1  0
  4  5  1  0
  4  3  2  0
  5  6  2  0
  6 14  1  0
  6  1  1  0
  7 12  2  0
  8  7  1  0
  9  8  2  0
  9 10  1  0
 10 11  2  0
 11 12  1  0
 11 13  1  0
 14 15  1  0
 15 16  1  0
 17 16  1  0
 18 14  1  0
 18 17  1  0
  2 19  1  0
  3 20  1  0
  4 21  1  0
  5 22  1  0
  7 23  1  0
  8 24  1  0
 13 25  1  0
 13 26  1  0
 15 27  1  0
 15 28  1  0
 16 29  1  0
 16 30  1  0
 17 31  1  0
 17 32  1  0
 18 33  1  0
 18 34  1  0
M  ISO  8  19  14  20  14  21  14  22  14  23  14  24  14  27  13  28  13
M  ISO  6  29  13  30  13  31  13  32  13  33  13  34  13
M  END
>  <minimizedAffinity>  (1) 
-5.80107164

>  <minimizedRMSD>  (1) 
0.30402711

$$$$
