
     RDKit          3D

 25 26  0  0  1  0  0  0  0  0999 V2000
   45.7550   34.0470   43.8970 C   0  0  0  0  0  0  0  0  0  0  0  0
   45.7350   33.8960   42.5060 C   0  0  0  0  0  0  0  0  0  0  0  0
   44.9890   34.8270   41.7640 C   0  0  0  0  0  0  0  0  0  0  0  0
   44.3370   35.8100   42.4190 N   0  0  0  0  0  0  0  0  0  0  0  0
   44.3890   35.9120   43.7740 C   0  0  0  0  0  0  0  0  0  0  0  0
   45.0960   35.0320   44.4990 N   0  0  0  0  0  0  0  0  0  0  0  0
   46.5370   33.0570   44.5640 C   0  0  0  0  0  0  0  0  0  0  0  0
   47.6760   32.6460   44.2560 O   0  0  0  0  0  0  0  0  0  0  0  0
   45.9270   32.5040   45.6920 O   0  0  0  0  0  0  0  0  0  0  0  0
   44.9580   32.9500   47.8160 N   0  0  0  0  0  0  0  0  0  0  0  0
   44.9390   31.7530   48.6180 C   0  0  0  0  0  0  0  0  0  0  0  0
   46.4040   31.5590   48.9300 C   0  0  0  0  0  0  0  0  0  0  0  0
   47.1670   32.0860   47.7590 C   0  0  0  0  0  0  0  0  0  0  0  0
   46.1550   32.9130   47.0120 C   0  0  1  0  0  0  0  0  0  0  0  0
   46.2825   33.0795   42.0123 H   0  0  0  0  0  0  0  0  0  0  0  0
   44.9373   34.7557   40.6675 H   0  0  0  0  0  0  0  0  0  0  0  0
   43.8462   36.7237   44.2805 H   0  0  0  0  0  0  0  0  0  0  0  0
   44.1268   32.9797   47.2084 H   0  0  0  0  0  0  0  0  0  0  0  0
   44.3507   31.8967   49.5363 H   0  0  0  0  0  0  0  0  0  0  0  0
   44.4750   30.8910   48.1163 H   0  0  0  0  0  0  0  0  0  0  0  0
   46.6745   32.1150   49.8398 H   0  0  0  0  0  0  0  0  0  0  0  0
   46.6334   30.4976   49.1058 H   0  0  0  0  0  0  0  0  0  0  0  0
   48.0127   32.7068   48.0898 H   0  0  0  0  0  0  0  0  0  0  0  0
   47.6021   31.2868   47.1409 H   0  0  0  0  0  0  0  0  0  0  0  0
   46.5539   33.9287   46.8736 H   0  0  0  0  0  0  0  0  0  0  0  0
  1  6  1  0
  1  7  1  0
  2  1  2  0
  3  4  2  0
  3  2  1  0
  4  5  1  0
  5  6  2  0
  7  9  1  0
  8  7  2  0
 10 11  1  0
 11 12  1  0
 13 12  1  0
 14  9  1  0
 14 13  1  0
 14 10  1  0
  2 15  1  0
  3 16  1  0
  5 17  1  0
 10 18  1  0
 11 19  1  0
 11 20  1  0
 12 21  1  0
 12 22  1  0
 13 23  1  0
 13 24  1  0
 14 25  1  6
M  ISO  8  15  14  16  14  17  14  18   5  19  13  20  13  21  13  22  13
M  ISO  3  23  13  24  13  25  13
M  END
>  <minimizedAffinity>  (1) 
-4.13087606

>  <minimizedRMSD>  (1) 
6.47440863

$$$$
