
     RDKit          3D

 36 39  0  0  1  0  0  0  0  0999 V2000
   48.8660   32.6490   40.0630 C   0  0  0  0  0  0  0  0  0  0  0  0
   50.0700   32.2510   40.6430 C   0  0  0  0  0  0  0  0  0  0  0  0
   50.2710   32.4890   42.0270 C   0  0  0  0  0  0  0  0  0  0  0  0
   49.2530   33.1030   42.7030 N   0  0  0  0  0  0  0  0  0  0  0  0
   48.1000   33.4730   42.0990 C   0  0  0  0  0  0  0  0  0  0  0  0
   47.9190   33.2460   40.7990 N   0  0  0  0  0  0  0  0  0  0  0  0
   47.0920   34.1070   42.8860 N   0  0  0  0  0  0  0  0  0  0  0  0
   46.3670   35.1820   42.5460 C   0  0  0  0  0  0  0  0  0  0  0  0
   45.5210   35.4700   43.5710 N   0  0  0  0  0  0  0  0  0  0  0  0
   45.7450   34.5650   44.5210 C   0  0  0  0  0  0  0  0  0  0  0  0
   45.2210   34.3270   45.7690 C   0  0  0  0  0  0  0  0  0  0  0  0
   45.6150   33.3380   46.5530 N   0  0  0  0  0  0  0  0  0  0  0  0
   46.5840   32.4730   46.1640 C   0  0  0  0  0  0  0  0  0  0  0  0
   47.1000   32.7010   44.9440 N   0  0  0  0  0  0  0  0  0  0  0  0
   46.7350   33.6890   44.1160 C   0  0  0  0  0  0  0  0  0  0  0  0
   44.2020   35.1430   46.3200 N   0  0  0  0  0  0  0  0  0  0  0  0
   48.7360   32.2910   38.3160 S   0  0  0  0  0  0  0  0  0  0  0  0
   46.2740   33.3960   38.0940 N   0  0  0  0  0  0  0  0  0  0  0  0
   45.0360   33.1710   37.3400 C   0  0  0  0  0  0  0  0  0  0  0  0
   45.4730   32.5810   36.0390 C   0  0  0  0  0  0  0  0  0  0  0  0
   46.8960   32.1220   36.2790 C   0  0  0  0  0  0  0  0  0  0  0  0
   47.0120   32.2150   37.7820 C   0  0  1  0  0  0  0  0  0  0  0  0
   50.8487   31.7621   40.0392 H   0  0  0  0  0  0  0  0  0  0  0  0
   51.2021   32.1935   42.5327 H   0  0  0  0  0  0  0  0  0  0  0  0
   46.4434   35.7367   41.5992 H   0  0  0  0  0  0  0  0  0  0  0  0
   46.9237   31.6435   46.8016 H   0  0  0  0  0  0  0  0  0  0  0  0
   43.8297   34.9387   47.2584 H   0  0  0  0  0  0  0  0  0  0  0  0
   43.8336   35.9404   45.7822 H   0  0  0  0  0  0  0  0  0  0  0  0
   46.7635   34.2426   37.7707 H   0  0  0  0  0  0  0  0  0  0  0  0
   44.3776   32.4734   37.8784 H   0  0  0  0  0  0  0  0  0  0  0  0
   44.4650   34.1006   37.1993 H   0  0  0  0  0  0  0  0  0  0  0  0
   45.4394   33.3367   35.2404 H   0  0  0  0  0  0  0  0  0  0  0  0
   44.8200   31.7562   35.7177 H   0  0  0  0  0  0  0  0  0  0  0  0
   47.0462   31.0895   35.9305 H   0  0  0  0  0  0  0  0  0  0  0  0
   47.6485   32.7166   35.7404 H   0  0  0  0  0  0  0  0  0  0  0  0
   46.6183   31.3324   38.3073 H   0  0  0  0  0  0  0  0  0  0  0  0
  1  2  2  0
  1  6  1  0
  2  3  1  0
  3  4  2  0
  5  4  1  0
  5  7  1  0
  6  5  2  0
  7 15  1  0
  8  7  1  0
  8  9  2  0
  9 10  1  0
 10 11  2  0
 11 16  1  0
 11 12  1  0
 13 12  2  0
 14 13  1  0
 15 10  1  0
 15 14  2  0
 17  1  1  0
 19 18  1  0
 20 21  1  0
 20 19  1  0
 21 22  1  0
 22 18  1  0
 22 17  1  0
  2 23  1  0
  3 24  1  0
  8 25  1  0
 13 26  1  0
 16 27  1  0
 16 28  1  0
 18 29  1  0
 19 30  1  0
 19 31  1  0
 20 32  1  0
 20 33  1  0
 21 34  1  0
 21 35  1  0
 22 36  1  1
M  ISO  8  23  14  24  14  25  14  26  14  29   5  30  13  31  13  32  13
M  ISO  4  33  13  34  13  35  13  36  13
M  END
>  <minimizedAffinity>  (1) 
-5.80663443

>  <minimizedRMSD>  (1) 
1.56977522

$$$$
