
     RDKit          3D

 33 35  0  0  1  0  0  0  0  0999 V2000
   44.8930   36.3900   42.9560 Cl  0  0  0  0  0  0  0  0  0  0  0  0
   45.4710   35.1060   43.9740 C   0  0  0  0  0  0  0  0  0  0  0  0
   46.4510   34.2740   43.5310 C   0  0  0  0  0  0  0  0  0  0  0  0
   46.8500   33.2810   44.4070 C   0  0  0  0  0  0  0  0  0  0  0  0
   46.3290   33.0880   45.6720 C   0  0  0  0  0  0  0  0  0  0  0  0
   45.3440   33.9500   46.0810 C   0  0  0  0  0  0  0  0  0  0  0  0
   44.7120   33.6700   47.6910 Cl  0  0  0  0  0  0  0  0  0  0  0  0
   44.9170   34.9490   45.2440 C   0  0  0  0  0  0  0  0  0  0  0  0
   48.6920   35.3530   40.8510 C   0  0  0  0  0  0  0  0  0  0  0  0
   48.2190   34.6690   39.7350 C   0  0  0  0  0  0  0  0  0  0  0  0
   47.1090   33.8210   39.9020 C   0  0  0  0  0  0  0  0  0  0  0  0
   46.5720   33.7260   41.1440 N   0  0  0  0  0  0  0  0  0  0  0  0
   47.0560   34.4040   42.2120 C   0  0  0  0  0  0  0  0  0  0  0  0
   48.1170   35.2190   42.0640 N   0  0  0  0  0  0  0  0  0  0  0  0
   45.7780   30.9880   46.8990 C   0  0  2  0  0  0  0  0  0  0  0  0
   46.8420   31.9940   46.5040 C   0  0  1  0  0  0  0  0  0  0  0  0
   47.7480   31.1780   45.8510 O   0  0  0  0  0  0  0  0  0  0  0  0
   47.9800   30.1630   46.7720 C   0  0  0  0  0  0  0  0  0  0  0  0
   46.6440   29.8620   47.4220 C   0  0  1  0  0  0  0  0  0  0  0  0
   45.1120   30.4850   45.7810 O   0  0  0  0  0  0  0  0  0  0  0  0
   46.7240   30.0700   48.8190 O   0  0  0  0  0  0  0  0  0  0  0  0
   47.6408   32.5939   44.0717 H   0  0  0  0  0  0  0  0  0  0  0  0
   44.1262   35.6362   45.5793 H   0  0  0  0  0  0  0  0  0  0  0  0
   49.5587   36.0214   40.7409 H   0  0  0  0  0  0  0  0  0  0  0  0
   48.6985   34.7879   38.7522 H   0  0  0  0  0  0  0  0  0  0  0  0
   46.6916   33.2554   39.0559 H   0  0  0  0  0  0  0  0  0  0  0  0
   45.0218   31.4069   47.5792 H   0  0  0  0  0  0  0  0  0  0  0  0
   47.2733   32.5465   47.3518 H   0  0  0  0  0  0  0  0  0  0  0  0
   48.3656   29.2676   46.2624 H   0  0  0  0  0  0  0  0  0  0  0  0
   48.7281   30.4658   47.5194 H   0  0  0  0  0  0  0  0  0  0  0  0
   46.2998   28.8367   47.2213 H   0  0  0  0  0  0  0  0  0  0  0  0
   44.3576   29.9152   46.0749 H   0  0  0  0  0  0  0  0  0  0  0  0
   46.4118   29.2582   49.2919 H   0  0  0  0  0  0  0  0  0  0  0  0
  1  2  1  0
  2  8  2  0
  3  2  1  0
  3  4  2  0
  4  5  1  0
  5  6  2  0
  6  7  1  0
  8  6  1  0
  9 14  2  0
 10 11  2  0
 10  9  1  0
 11 12  1  0
 12 13  2  0
 13  3  1  0
 14 13  1  0
 15 20  1  0
 15 19  1  0
 16  5  1  0
 16 15  1  0
 17 16  1  0
 17 18  1  0
 18 19  1  0
 19 21  1  0
  4 22  1  0
  8 23  1  0
  9 24  1  0
 10 25  1  0
 11 26  1  0
 15 27  1  1
 16 28  1  1
 18 29  1  0
 18 30  1  0
 19 31  1  1
 20 32  1  0
 21 33  1  0
M  ISO  8  22  14  23  14  24  14  25  14  26  14  27  13  28  13  29  13
M  ISO  4  30  13  31  13  32   3  33   3
M  END
>  <minimizedAffinity>  (1) 
-6.11323166

>  <minimizedRMSD>  (1) 
0.728653491

$$$$
