
     RDKit          3D

 33 35  0  0  1  0  0  0  0  0999 V2000
   47.3870   34.5580   41.2670 C   0  0  1  0  0  0  0  0  0  0  0  0
   48.5570   35.3080   40.6950 C   0  0  0  0  0  0  0  0  0  0  0  0
   48.2350   33.9160   40.2220 C   0  0  2  0  0  0  0  0  0  0  0  0
   48.5260   32.7290   38.0100 C   0  0  2  0  0  0  0  0  0  0  0  0
   47.7740   33.7410   38.8220 C   0  0  1  0  0  0  0  0  0  0  0  0
   46.4750   33.2690   38.7020 O   0  0  0  0  0  0  0  0  0  0  0  0
   46.3410   33.2580   37.3040 C   0  0  0  0  0  0  0  0  0  0  0  0
   47.6650   32.7670   36.7400 C   0  0  1  0  0  0  0  0  0  0  0  0
   48.4950   31.4770   38.5830 O   0  0  0  0  0  0  0  0  0  0  0  0
   48.2020   33.7430   35.9180 O   0  0  0  0  0  0  0  0  0  0  0  0
   47.5300   33.9930   42.6370 C   0  0  0  0  0  0  0  0  0  0  0  0
   46.4810   34.4480   43.5640 C   0  0  0  0  0  0  0  0  0  0  0  0
   45.7640   35.5410   43.1270 C   0  0  0  0  0  0  0  0  0  0  0  0
   44.7330   36.0810   43.9150 C   0  0  0  0  0  0  0  0  0  0  0  0
   44.5040   35.4620   45.1100 N   0  0  0  0  0  0  0  0  0  0  0  0
   45.2290   34.3850   45.5130 C   0  0  0  0  0  0  0  0  0  0  0  0
   46.2080   33.8740   44.7620 N   0  0  0  0  0  0  0  0  0  0  0  0
   46.3180   34.7883   41.3864 H   0  0  0  0  0  0  0  0  0  0  0  0
   48.3891   36.1688   40.0310 H   0  0  0  0  0  0  0  0  0  0  0  0
   49.4452   35.8055   41.1117 H   0  0  0  0  0  0  0  0  0  0  0  0
   48.7552   32.9484   40.1658 H   0  0  0  0  0  0  0  0  0  0  0  0
   49.5986   32.9361   37.8814 H   0  0  0  0  0  0  0  0  0  0  0  0
   47.9166   34.7700   38.4604 H   0  0  0  0  0  0  0  0  0  0  0  0
   45.5278   32.5795   37.0068 H   0  0  0  0  0  0  0  0  0  0  0  0
   46.0969   34.2606   36.9228 H   0  0  0  0  0  0  0  0  0  0  0  0
   47.5918   31.8270   36.1734 H   0  0  0  0  0  0  0  0  0  0  0  0
   48.4972   31.5652   39.5691 H   0  0  0  0  0  0  0  0  0  0  0  0
   48.5972   34.4612   36.4731 H   0  0  0  0  0  0  0  0  0  0  0  0
   47.4850   32.8960   42.5693 H   0  0  0  0  0  0  0  0  0  0  0  0
   48.4934   34.3430   43.0362 H   0  0  0  0  0  0  0  0  0  0  0  0
   46.0007   35.9946   42.1532 H   0  0  0  0  0  0  0  0  0  0  0  0
   44.1451   36.9513   43.5880 H   0  0  0  0  0  0  0  0  0  0  0  0
   45.0030   33.9215   46.4847 H   0  0  0  0  0  0  0  0  0  0  0  0
  1 11  1  0
  2  1  1  0
  3  2  1  0
  3  1  1  0
  4  9  1  0
  4  5  1  0
  5  6  1  0
  5  3  1  0
  7  6  1  0
  8 10  1  0
  8  7  1  0
  8  4  1  0
 11 12  1  0
 12 17  1  0
 13 12  2  0
 13 14  1  0
 14 15  2  0
 15 16  1  0
 17 16  2  0
  1 18  1  6
  2 19  1  0
  2 20  1  0
  3 21  1  1
  4 22  1  6
  5 23  1  6
  7 24  1  0
  7 25  1  0
  8 26  1  6
  9 27  1  0
 10 28  1  0
 11 29  1  0
 11 30  1  0
 13 31  1  0
 14 32  1  0
 16 33  1  0
M  ISO  8  18  13  19  13  20  13  21  13  22  13  23  13  24  13  25  13
M  ISO  8  26  13  27   3  28   3  29   8  30   8  31  14  32  14  33  14
M  END
>  <minimizedAffinity>  (1) 
-4.9753046

>  <minimizedRMSD>  (1) 
1.85021544

$$$$
