
     RDKit          3D

 39 42  0  0  1  0  0  0  0  0999 V2000
   46.2170   32.7000   47.0190 C   0  0  0  0  0  0  0  0  0  0  0  0
   45.1150   32.4970   47.8220 C   0  0  0  0  0  0  0  0  0  0  0  0
   45.2360   31.7230   48.9680 C   0  0  0  0  0  0  0  0  0  0  0  0
   46.4760   31.1830   49.2550 C   0  0  0  0  0  0  0  0  0  0  0  0
   47.5490   31.4220   48.4080 C   0  0  0  0  0  0  0  0  0  0  0  0
   47.4330   32.1780   47.2880 N   0  0  0  0  0  0  0  0  0  0  0  0
   44.9240   35.1200   44.5560 C   0  0  0  0  0  0  0  0  0  0  0  0
   45.8340   35.0180   43.4780 C   0  0  0  0  0  0  0  0  0  0  0  0
   46.8610   34.1190   43.6500 C   0  0  0  0  0  0  0  0  0  0  0  0
   46.9750   33.3790   44.8020 N   0  0  0  0  0  0  0  0  0  0  0  0
   46.0620   33.5160   45.8190 C   0  0  0  0  0  0  0  0  0  0  0  0
   45.0480   34.3860   45.6810 N   0  0  0  0  0  0  0  0  0  0  0  0
   47.8650   33.9080   42.5570 C   0  0  0  0  0  0  0  0  0  0  0  0
   48.0750   35.1660   41.7130 C   0  0  0  0  0  0  0  0  0  0  0  0
   49.1540   34.5410   42.6550 C   0  0  0  0  0  0  0  0  0  0  0  0
   49.1580   29.5320   48.0670 C   0  0  1  0  0  0  0  0  0  0  0  0
   48.8520   30.8220   48.7590 C   0  0  2  0  0  0  0  0  0  0  0  0
   48.9590   30.4760   50.1010 O   0  0  0  0  0  0  0  0  0  0  0  0
   50.1620   29.8120   50.1690 C   0  0  0  0  0  0  0  0  0  0  0  0
   50.3890   29.0870   48.8690 C   0  0  2  0  0  0  0  0  0  0  0  0
   48.1880   28.5660   48.1680 O   0  0  0  0  0  0  0  0  0  0  0  0
   51.5650   29.6180   48.3050 O   0  0  0  0  0  0  0  0  0  0  0  0
   44.1463   32.9453   47.5564 H   0  0  0  0  0  0  0  0  0  0  0  0
   44.3731   31.5450   49.6266 H   0  0  0  0  0  0  0  0  0  0  0  0
   46.6120   30.5642   50.1543 H   0  0  0  0  0  0  0  0  0  0  0  0
   44.0833   35.8246   44.4739 H   0  0  0  0  0  0  0  0  0  0  0  0
   45.7275   35.6181   42.5623 H   0  0  0  0  0  0  0  0  0  0  0  0
   47.5933   32.8580   42.3734 H   0  0  0  0  0  0  0  0  0  0  0  0
   48.1765   35.0990   40.6197 H   0  0  0  0  0  0  0  0  0  0  0  0
   47.5839   36.1426   41.5907 H   0  0  0  0  0  0  0  0  0  0  0  0
   49.4388   35.0613   43.5814 H   0  0  0  0  0  0  0  0  0  0  0  0
   50.1919   34.2022   42.5210 H   0  0  0  0  0  0  0  0  0  0  0  0
   49.2702   29.6664   46.9810 H   0  0  0  0  0  0  0  0  0  0  0  0
   49.5378   31.6271   48.4564 H   0  0  0  0  0  0  0  0  0  0  0  0
   50.9744   30.5345   50.3363 H   0  0  0  0  0  0  0  0  0  0  0  0
   50.1458   29.0925   51.0009 H   0  0  0  0  0  0  0  0  0  0  0  0
   50.5009   27.9942   48.9257 H   0  0  0  0  0  0  0  0  0  0  0  0
   48.0035   28.3822   49.1231 H   0  0  0  0  0  0  0  0  0  0  0  0
   52.1813   29.8963   49.0281 H   0  0  0  0  0  0  0  0  0  0  0  0
  1  6  1  0
  1  2  2  0
  2  3  1  0
  3  4  2  0
  5  4  1  0
  6  5  2  0
  7 12  2  0
  8  9  2  0
  8  7  1  0
  9 10  1  0
 10 11  2  0
 11  1  1  0
 12 11  1  0
 13 15  1  0
 13  9  1  0
 14 13  1  0
 14 15  1  0
 16 21  1  0
 16 17  1  0
 16 20  1  0
 17  5  1  0
 17 18  1  0
 18 19  1  0
 20 22  1  0
 20 19  1  0
  2 23  1  0
  3 24  1  0
  4 25  1  0
  7 26  1  0
  8 27  1  0
 13 28  1  0
 14 29  1  0
 14 30  1  0
 15 31  1  0
 15 32  1  0
 16 33  1  6
 17 34  1  6
 19 35  1  0
 19 36  1  0
 20 37  1  1
 21 38  1  0
 22 39  1  0
M  ISO  8  23  14  24  14  25  14  26  14  27  14  28  13  29  13  30  13
M  ISO  8  31  13  32  13  33  13  34  13  35  13  36  13  37  13  38   3
M  ISO  1  39   3
M  END
>  <minimizedAffinity>  (1) 
-6.47705746

>  <minimizedRMSD>  (1) 
1.36324763

$$$$
