
     RDKit          3D

 38 40  0  0  1  0  0  0  0  0999 V2000
   47.3640   30.5790   47.5270 C   0  0  0  0  0  0  0  0  0  0  0  0
   48.0490   29.8400   46.5780 C   0  0  0  0  0  0  0  0  0  0  0  0
   49.2350   29.2570   46.9420 C   0  0  0  0  0  0  0  0  0  0  0  0
   49.7330   29.3840   48.1690 N   0  0  0  0  0  0  0  0  0  0  0  0
   49.0600   30.1050   49.0910 C   0  0  0  0  0  0  0  0  0  0  0  0
   47.8770   30.7030   48.7750 N   0  0  0  0  0  0  0  0  0  0  0  0
   50.3570   31.5220   50.5560 C   0  0  1  0  0  0  0  0  0  0  0  0
   49.7100   30.1800   50.4270 C   0  0  2  0  0  0  0  0  0  0  0  0
   50.6590   29.1960   50.6240 O   0  0  0  0  0  0  0  0  0  0  0  0
   51.8570   29.8080   50.9240 C   0  0  0  0  0  0  0  0  0  0  0  0
   51.4930   31.1710   51.5260 C   0  0  2  0  0  0  0  0  0  0  0  0
   50.9200   31.8710   49.3520 O   0  0  0  0  0  0  0  0  0  0  0  0
   51.0180   31.0260   52.8190 O   0  0  0  0  0  0  0  0  0  0  0  0
   46.0880   31.3150   47.4500 C   0  0  0  0  0  0  0  0  0  0  0  0
   46.3680   32.6850   47.3330 O   0  0  0  0  0  0  0  0  0  0  0  0
   44.7840   34.9930   45.1380 C   0  0  0  0  0  0  0  0  0  0  0  0
   45.4560   34.8210   43.9270 C   0  0  0  0  0  0  0  0  0  0  0  0
   46.4800   33.8750   43.9000 C   0  0  0  0  0  0  0  0  0  0  0  0
   46.7740   33.1800   45.0130 N   0  0  0  0  0  0  0  0  0  0  0  0
   46.0890   33.3870   46.1620 C   0  0  0  0  0  0  0  0  0  0  0  0
   45.1100   34.2780   46.2260 N   0  0  0  0  0  0  0  0  0  0  0  0
   45.0460   35.6470   42.7530 C   0  0  0  0  0  0  0  0  0  0  0  0
   45.3610   36.9420   43.0980 F   0  0  0  0  0  0  0  0  0  0  0  0
   43.6580   35.5150   42.6500 F   0  0  0  0  0  0  0  0  0  0  0  0
   45.6820   35.1960   41.6430 F   0  0  0  0  0  0  0  0  0  0  0  0
   47.6521   29.7236   45.5587 H   0  0  0  0  0  0  0  0  0  0  0  0
   49.7909   28.6673   46.1982 H   0  0  0  0  0  0  0  0  0  0  0  0
   49.6864   32.3374   50.8648 H   0  0  0  0  0  0  0  0  0  0  0  0
   48.9320   30.0267   51.1894 H   0  0  0  0  0  0  0  0  0  0  0  0
   52.4222   29.2069   51.6515 H   0  0  0  0  0  0  0  0  0  0  0  0
   52.4900   29.9167   50.0310 H   0  0  0  0  0  0  0  0  0  0  0  0
   52.3065   31.9062   51.6136 H   0  0  0  0  0  0  0  0  0  0  0  0
   51.7503   32.3857   49.5128 H   0  0  0  0  0  0  0  0  0  0  0  0
   51.7382   31.2458   53.4617 H   0  0  0  0  0  0  0  0  0  0  0  0
   45.5176   30.9770   46.5723 H   0  0  0  0  0  0  0  0  0  0  0  0
   45.4917   31.1292   48.3555 H   0  0  0  0  0  0  0  0  0  0  0  0
   43.9700   35.7301   45.2021 H   0  0  0  0  0  0  0  0  0  0  0  0
   47.0446   33.6981   42.9727 H   0  0  0  0  0  0  0  0  0  0  0  0
  1  6  2  0
  2  3  2  0
  2  1  1  0
  3  4  1  0
  4  5  2  0
  6  5  1  0
  7 12  1  0
  7 11  1  0
  8  5  1  0
  8  7  1  0
  8  9  1  0
  9 10  1  0
 10 11  1  0
 11 13  1  0
 14  1  1  0
 15 14  1  0
 16 21  2  0
 17 16  1  0
 18 17  2  0
 18 19  1  0
 19 20  2  0
 20 21  1  0
 20 15  1  0
 22 23  1  0
 22 17  1  0
 24 22  1  0
 25 22  1  0
  2 26  1  0
  3 27  1  0
  7 28  1  1
  8 29  1  1
 10 30  1  0
 10 31  1  0
 11 32  1  1
 12 33  1  0
 13 34  1  0
 14 35  1  0
 14 36  1  0
 16 37  1  0
 18 38  1  0
M  ISO  8  26  14  27  14  28  13  29  13  30  13  31  13  32  13  33   3
M  ISO  5  34   3  35   8  36   8  37  14  38  14
M  END
>  <minimizedAffinity>  (1) 
-5.88396311

>  <minimizedRMSD>  (1) 
1.31412601

$$$$
