
     RDKit          3D

 30 32  0  0  1  0  0  0  0  0999 V2000
   45.3210   34.4910   44.3180 C   0  0  0  0  0  0  0  0  0  0  0  0
   46.1810   33.8520   43.3990 C   0  0  0  0  0  0  0  0  0  0  0  0
   47.1000   32.8980   43.8870 C   0  0  0  0  0  0  0  0  0  0  0  0
   47.0980   32.6530   45.2270 N   0  0  0  0  0  0  0  0  0  0  0  0
   46.2480   33.2970   46.0690 C   0  0  0  0  0  0  0  0  0  0  0  0
   45.3680   34.2060   45.6180 N   0  0  0  0  0  0  0  0  0  0  0  0
   44.3670   35.4880   43.7810 C   0  0  0  0  0  0  0  0  0  0  0  0
   45.0540   36.8070   43.3400 C   0  0  0  0  0  0  0  0  0  0  0  0
   44.3390   35.8950   42.3920 C   0  0  0  0  0  0  0  0  0  0  0  0
   49.2530   32.9850   42.6530 C   0  0  1  0  0  0  0  0  0  0  0  0
   47.9970   32.2380   42.9030 C   0  0  2  0  0  0  0  0  0  0  0  0
   47.3060   32.1440   41.6990 O   0  0  0  0  0  0  0  0  0  0  0  0
   48.2540   32.1910   40.6860 C   0  0  0  0  0  0  0  0  0  0  0  0
   49.3750   33.0610   41.1540 C   0  0  2  0  0  0  0  0  0  0  0  0
   49.3050   34.2340   43.2600 O   0  0  0  0  0  0  0  0  0  0  0  0
   50.5890   32.5250   40.7060 O   0  0  0  0  0  0  0  0  0  0  0  0
   46.1361   34.0921   42.3265 H   0  0  0  0  0  0  0  0  0  0  0  0
   46.2813   33.0687   47.1445 H   0  0  0  0  0  0  0  0  0  0  0  0
   43.5615   35.1424   44.4456 H   0  0  0  0  0  0  0  0  0  0  0  0
   44.6212   37.7809   43.6124 H   0  0  0  0  0  0  0  0  0  0  0  0
   46.0595   37.2463   43.4175 H   0  0  0  0  0  0  0  0  0  0  0  0
   43.3885   36.2199   41.9436 H   0  0  0  0  0  0  0  0  0  0  0  0
   44.6299   35.4012   41.4531 H   0  0  0  0  0  0  0  0  0  0  0  0
   50.1068   32.4632   43.1099 H   0  0  0  0  0  0  0  0  0  0  0  0
   48.2786   31.2584   43.3167 H   0  0  0  0  0  0  0  0  0  0  0  0
   47.8073   32.6136   39.7739 H   0  0  0  0  0  0  0  0  0  0  0  0
   48.6212   31.1803   40.4543 H   0  0  0  0  0  0  0  0  0  0  0  0
   49.3388   34.0964   40.7845 H   0  0  0  0  0  0  0  0  0  0  0  0
   49.3004   34.1232   44.2438 H   0  0  0  0  0  0  0  0  0  0  0  0
   51.1481   32.2781   41.4848 H   0  0  0  0  0  0  0  0  0  0  0  0
  1  6  2  0
  2  3  2  0
  2  1  1  0
  3  4  1  0
  4  5  2  0
  6  5  1  0
  7  1  1  0
  8  7  1  0
  9  8  1  0
  9  7  1  0
 10 11  1  0
 10 15  1  0
 11  3  1  0
 12 11  1  0
 13 14  1  0
 13 12  1  0
 14 16  1  0
 14 10  1  0
  2 17  1  0
  5 18  1  0
  7 19  1  0
  8 20  1  0
  8 21  1  0
  9 22  1  0
  9 23  1  0
 10 24  1  1
 11 25  1  1
 13 26  1  0
 13 27  1  0
 14 28  1  6
 15 29  1  0
 16 30  1  0
M  ISO  8  17  14  18  14  19  13  20  13  21  13  22  13  23  13  24  13
M  ISO  6  25  13  26  13  27  13  28  13  29   3  30   3
M  END
>  <minimizedAffinity>  (1) 
-4.52792025

>  <minimizedRMSD>  (1) 
1.32413268

$$$$
