
     RDKit          3D

 43 45  0  0  1  0  0  0  0  0999 V2000
   43.6090   35.4980   39.9390 O   0  0  0  0  0  0  0  0  0  0  0  0
   43.3780   34.9490   41.3430 P   0  0  1  0  0  0  0  0  0  0  0  0
   43.5720   33.2630   41.2980 O   0  0  0  0  0  0  0  0  0  0  0  0
   44.5510   35.5830   42.3840 O   0  0  0  0  0  0  0  0  0  0  0  0
   46.5480   34.4520   42.8880 C   0  0  0  0  0  0  0  0  0  0  0  0
   45.3130   34.8700   43.3100 C   0  0  0  0  0  0  0  0  0  0  0  0
   44.9150   34.5520   44.6260 C   0  0  0  0  0  0  0  0  0  0  0  0
   45.7900   33.8550   45.3750 N   0  0  0  0  0  0  0  0  0  0  0  0
   46.9840   33.4600   44.9410 C   0  0  0  0  0  0  0  0  0  0  0  0
   47.3660   33.7570   43.6980 N   0  0  0  0  0  0  0  0  0  0  0  0
   47.0220   34.7460   41.5380 C   0  0  0  0  0  0  0  0  0  0  0  0
   48.4000   35.3480   41.6120 C   0  0  0  0  0  0  0  0  0  0  0  0
   41.7980   35.2700   41.8450 O   0  0  0  0  0  0  0  0  0  0  0  0
   40.7690   34.4880   41.3290 C   0  0  0  0  0  0  0  0  0  0  0  0
   39.8330   35.1290   40.5280 C   0  0  0  0  0  0  0  0  0  0  0  0
   38.7620   34.4410   39.9610 C   0  0  0  0  0  0  0  0  0  0  0  0
   38.6670   33.1050   40.2230 N   0  0  0  0  0  0  0  0  0  0  0  0
   39.5640   32.4960   40.9900 C   0  0  0  0  0  0  0  0  0  0  0  0
   40.5880   33.1760   41.5260 N   0  0  0  0  0  0  0  0  0  0  0  0
   38.1080   30.4950   41.2860 C   0  0  2  0  0  0  0  0  0  0  0  0
   39.5120   31.0390   41.3120 C   0  0  1  0  0  0  0  0  0  0  0  0
   40.2700   30.3010   40.4400 O   0  0  0  0  0  0  0  0  0  0  0  0
   39.5320   29.2420   39.9760 C   0  0  0  0  0  0  0  0  0  0  0  0
   38.1220   29.8120   39.9290 C   0  0  2  0  0  0  0  0  0  0  0  0
   37.1500   31.4960   41.3830 O   0  0  0  0  0  0  0  0  0  0  0  0
   38.1020   30.7470   38.9050 O   0  0  0  0  0  0  0  0  0  0  0  0
   43.6125   32.9107   42.2223 H   0  0  0  0  0  0  0  0  0  0  0  0
   43.9356   34.8593   45.0214 H   0  0  0  0  0  0  0  0  0  0  0  0
   47.6528   32.8914   45.6039 H   0  0  0  0  0  0  0  0  0  0  0  0
   46.3361   35.4575   41.0550 H   0  0  0  0  0  0  0  0  0  0  0  0
   47.0580   33.8166   40.9506 H   0  0  0  0  0  0  0  0  0  0  0  0
   48.6889   35.4742   42.6659 H   0  0  0  0  0  0  0  0  0  0  0  0
   49.1185   34.6818   41.1121 H   0  0  0  0  0  0  0  0  0  0  0  0
   48.3994   36.3278   41.1121 H   0  0  0  0  0  0  0  0  0  0  0  0
   39.9397   36.2069   40.3363 H   0  0  0  0  0  0  0  0  0  0  0  0
   38.0231   34.9540   39.3279 H   0  0  0  0  0  0  0  0  0  0  0  0
   37.8455   29.8357   42.1265 H   0  0  0  0  0  0  0  0  0  0  0  0
   39.9162   30.9495   42.3311 H   0  0  0  0  0  0  0  0  0  0  0  0
   39.8682   28.9323   38.9755 H   0  0  0  0  0  0  0  0  0  0  0  0
   39.6183   28.3420   40.6025 H   0  0  0  0  0  0  0  0  0  0  0  0
   37.2858   29.1183   39.7570 H   0  0  0  0  0  0  0  0  0  0  0  0
   36.9675   31.6867   42.3371 H   0  0  0  0  0  0  0  0  0  0  0  0
   38.0825   31.6585   39.2908 H   0  0  0  0  0  0  0  0  0  0  0  0
  2  1  2  0
  2 13  1  0
  2  4  1  0
  3  2  1  0
  4  6  1  0
  5  6  2  0
  5 10  1  0
  6  7  1  0
  7  8  2  0
  9  8  1  0
 10  9  2  0
 11 12  1  0
 11  5  1  0
 14 19  1  0
 14 13  1  0
 15 14  2  0
 16 17  2  0
 16 15  1  0
 17 18  1  0
 18 19  2  0
 20 21  1  0
 20 25  1  0
 21 18  1  0
 22 21  1  0
 23 22  1  0
 24 26  1  0
 24 23  1  0
 24 20  1  0
  3 27  1  0
  7 28  1  0
  9 29  1  0
 11 30  1  0
 11 31  1  0
 12 32  1  0
 12 33  1  0
 12 34  1  0
 15 35  1  0
 16 36  1  0
 20 37  1  1
 21 38  1  1
 23 39  1  0
 23 40  1  0
 24 41  1  1
 25 42  1  0
 26 43  1  0
M  ISO  8  27   3  28  14  29  14  30   8  31   8  32   8  33   8  34   8
M  ISO  8  35  14  36  14  37  13  38  13  39  13  40  13  41  13  42   3
M  ISO  1  43   3
M  END
>  <minimizedAffinity>  (1) 
-5.66058636

>  <minimizedRMSD>  (1) 
0.695809841

$$$$
