
     RDKit          3D

 29 30  0  0  1  0  0  0  0  0999 V2000
   45.3670   34.6300   44.4540 C   0  0  0  0  0  0  0  0  0  0  0  0
   46.2870   34.1880   43.5040 C   0  0  0  0  0  0  0  0  0  0  0  0
   47.2190   33.2330   43.9190 C   0  0  0  0  0  0  0  0  0  0  0  0
   47.1660   32.8000   45.2140 N   0  0  0  0  0  0  0  0  0  0  0  0
   46.2690   33.2450   46.0980 C   0  0  0  0  0  0  0  0  0  0  0  0
   45.3500   34.1740   45.7250 N   0  0  0  0  0  0  0  0  0  0  0  0
   45.2630   31.5860   47.5490 C   0  0  1  0  0  0  0  0  0  0  0  0
   46.2980   32.7080   47.4820 C   0  0  1  0  0  0  0  0  0  0  0  0
   47.5310   32.1050   47.7550 O   0  0  0  0  0  0  0  0  0  0  0  0
   47.1960   31.2320   48.7960 C   0  0  0  0  0  0  0  0  0  0  0  0
   46.0930   30.4280   48.0980 C   0  0  1  0  0  0  0  0  0  0  0  0
   44.2240   31.8870   48.3960 O   0  0  0  0  0  0  0  0  0  0  0  0
   45.3210   29.7310   49.0000 O   0  0  0  0  0  0  0  0  0  0  0  0
   46.2210   34.7370   42.1680 C   0  0  0  0  0  0  0  0  0  0  0  0
   47.6410   35.0040   41.6970 C   0  0  0  0  0  0  0  0  0  0  0  0
   44.6227   35.3828   44.1552 H   0  0  0  0  0  0  0  0  0  0  0  0
   47.9745   32.8406   43.2224 H   0  0  0  0  0  0  0  0  0  0  0  0
   44.7806   31.3836   46.5814 H   0  0  0  0  0  0  0  0  0  0  0  0
   46.1099   33.5286   48.1899 H   0  0  0  0  0  0  0  0  0  0  0  0
   48.0448   30.5970   49.0896 H   0  0  0  0  0  0  0  0  0  0  0  0
   46.9010   31.7154   49.7391 H   0  0  0  0  0  0  0  0  0  0  0  0
   46.4622   29.6831   47.3777 H   0  0  0  0  0  0  0  0  0  0  0  0
   44.5271   31.7992   49.3343 H   0  0  0  0  0  0  0  0  0  0  0  0
   45.5899   29.9737   49.9214 H   0  0  0  0  0  0  0  0  0  0  0  0
   45.7332   34.0182   41.4931 H   0  0  0  0  0  0  0  0  0  0  0  0
   45.6375   35.6695   42.1674 H   0  0  0  0  0  0  0  0  0  0  0  0
   48.2995   35.1278   42.5694 H   0  0  0  0  0  0  0  0  0  0  0  0
   47.9916   34.1560   41.0903 H   0  0  0  0  0  0  0  0  0  0  0  0
   47.6597   35.9214   41.0903 H   0  0  0  0  0  0  0  0  0  0  0  0
  1  6  2  0
  2  3  2  0
  2  1  1  0
  3  4  1  0
  4  5  2  0
  6  5  1  0
  7 11  1  0
  7 12  1  0
  8  5  1  0
  8  7  1  0
  8  9  1  0
  9 10  1  0
 11 10  1  0
 11 13  1  0
 14  2  1  0
 15 14  1  0
  1 16  1  0
  3 17  1  0
  7 18  1  6
  8 19  1  1
 10 20  1  0
 10 21  1  0
 11 22  1  6
 12 23  1  0
 13 24  1  0
 14 25  1  0
 14 26  1  0
 15 27  1  0
 15 28  1  0
 15 29  1  0
M  ISO  8  16  14  17  14  18  13  19  13  20  13  21  13  22  13  23   3
M  ISO  6  24   3  25   8  26   8  27   8  28   8  29   8
M  END
>  <minimizedAffinity>  (1) 
-4.98913527

>  <minimizedRMSD>  (1) 
2.01602125

$$$$
