
     RDKit          3D

 50 54  0  0  1  0  0  0  0  0999 V2000
   44.4530   35.2750   41.3440 S   0  0  0  0  0  0  0  0  0  0  0  0
   47.4200   32.9320   42.9020 C   0  0  0  0  0  0  0  0  0  0  0  0
   46.5760   33.6250   42.0340 C   0  0  0  0  0  0  0  0  0  0  0  0
   45.5130   34.4040   42.4650 C   0  0  0  0  0  0  0  0  0  0  0  0
   45.2640   34.5070   43.8430 C   0  0  0  0  0  0  0  0  0  0  0  0
   44.3590   35.1460   44.6110 N   0  0  0  0  0  0  0  0  0  0  0  0
   44.5990   34.8850   45.9080 C   0  0  0  0  0  0  0  0  0  0  0  0
   45.6700   34.0720   45.9250 N   0  0  0  0  0  0  0  0  0  0  0  0
   46.1070   33.8180   44.6780 C   0  0  0  0  0  0  0  0  0  0  0  0
   47.1770   33.0320   44.2720 C   0  0  0  0  0  0  0  0  0  0  0  0
   46.3310   32.5530   38.5380 C   0  0  0  0  0  0  0  0  0  0  0  0
   47.2890   33.3540   37.9020 C   0  0  0  0  0  0  0  0  0  0  0  0
   48.0110   34.2560   38.6820 C   0  0  0  0  0  0  0  0  0  0  0  0
   47.7590   34.3230   40.0220 N   0  0  0  0  0  0  0  0  0  0  0  0
   46.8210   33.5270   40.5920 C   0  0  0  0  0  0  0  0  0  0  0  0
   46.0920   32.6360   39.8820 N   0  0  0  0  0  0  0  0  0  0  0  0
   42.1870   33.9960   41.7790 N   0  0  0  0  0  0  0  0  0  0  0  0
   43.1080   34.2600   40.6870 C   0  0  1  0  0  0  0  0  0  0  0  0
   42.4480   35.1110   39.5940 C   0  0  0  0  0  0  0  0  0  0  0  0
   41.1550   34.7230   39.3060 O   0  0  0  0  0  0  0  0  0  0  0  0
   40.7570   33.5270   39.8600 C   0  0  0  0  0  0  0  0  0  0  0  0
   40.8830   33.6300   41.3560 C   0  0  1  0  0  0  0  0  0  0  0  0
   41.4350   31.2500   41.9260 C   0  0  2  0  0  0  0  0  0  0  0  0
   40.3730   32.3460   41.9400 C   0  0  2  0  0  0  0  0  0  0  0  0
   39.3600   31.7340   41.2560 O   0  0  0  0  0  0  0  0  0  0  0  0
   39.2050   30.5380   41.9560 C   0  0  0  0  0  0  0  0  0  0  0  0
   40.5590   30.1010   42.4410 C   0  0  2  0  0  0  0  0  0  0  0  0
   42.4820   31.4960   42.7810 O   0  0  0  0  0  0  0  0  0  0  0  0
   40.6050   30.2280   43.8490 O   0  0  0  0  0  0  0  0  0  0  0  0
   48.2526   32.3246   42.5175 H   0  0  0  0  0  0  0  0  0  0  0  0
   43.5984   35.7439   44.2576 H   0  0  0  0  0  0  0  0  0  0  0  0
   44.0358   35.2591   46.7757 H   0  0  0  0  0  0  0  0  0  0  0  0
   47.8096   32.5076   45.0034 H   0  0  0  0  0  0  0  0  0  0  0  0
   45.7532   31.8351   37.9374 H   0  0  0  0  0  0  0  0  0  0  0  0
   47.4660   33.2734   36.8193 H   0  0  0  0  0  0  0  0  0  0  0  0
   48.7727   34.9044   38.2244 H   0  0  0  0  0  0  0  0  0  0  0  0
   42.5707   33.2281   42.3483 H   0  0  0  0  0  0  0  0  0  0  0  0
   43.4385   33.2965   40.2717 H   0  0  0  0  0  0  0  0  0  0  0  0
   42.4317   36.1585   39.9293 H   0  0  0  0  0  0  0  0  0  0  0  0
   43.0399   34.9787   38.6763 H   0  0  0  0  0  0  0  0  0  0  0  0
   39.7109   33.3220   39.5887 H   0  0  0  0  0  0  0  0  0  0  0  0
   41.3877   32.7082   39.4835 H   0  0  0  0  0  0  0  0  0  0  0  0
   40.2676   34.4583   41.7371 H   0  0  0  0  0  0  0  0  0  0  0  0
   41.9394   31.1021   40.9597 H   0  0  0  0  0  0  0  0  0  0  0  0
   40.0472   32.6883   42.9333 H   0  0  0  0  0  0  0  0  0  0  0  0
   38.5338   30.6925   42.8137 H   0  0  0  0  0  0  0  0  0  0  0  0
   38.7679   29.7684   41.3028 H   0  0  0  0  0  0  0  0  0  0  0  0
   40.8279   29.0789   42.1360 H   0  0  0  0  0  0  0  0  0  0  0  0
   42.1680   31.4222   43.7170 H   0  0  0  0  0  0  0  0  0  0  0  0
   40.2993   29.3841   44.2666 H   0  0  0  0  0  0  0  0  0  0  0  0
  1  4  1  0
  2 10  2  0
  3  4  2  0
  3  2  1  0
  4  5  1  0
  5  6  1  0
  5  9  2  0
  6  7  1  0
  7  8  2  0
  9  8  1  0
 10  9  1  0
 11 16  2  0
 12 11  1  0
 12 13  2  0
 13 14  1  0
 14 15  2  0
 15  3  1  0
 16 15  1  0
 18  1  1  0
 18 17  1  0
 19 18  1  0
 20 19  1  0
 20 21  1  0
 21 22  1  0
 22 17  1  0
 22 24  1  0
 23 24  1  0
 23 27  1  0
 23 28  1  0
 24 25  1  0
 25 26  1  0
 26 27  1  0
 27 29  1  0
  2 30  1  0
  6 31  1  0
  7 32  1  0
 10 33  1  0
 11 34  1  0
 12 35  1  0
 13 36  1  0
 17 37  1  0
 18 38  1  6
 19 39  1  0
 19 40  1  0
 21 41  1  0
 21 42  1  0
 22 43  1  1
 23 44  1  6
 24 45  1  1
 26 46  1  0
 26 47  1  0
 27 48  1  1
 28 49  1  0
 29 50  1  0
M  ISO  8  30  14  31   9  32  14  33  14  34  14  35  14  36  14  37   5
M  ISO  8  38  13  39  13  40  13  41  13  42  13  43  13  44  13  45  13
M  ISO  5  46  13  47  13  48  13  49   3  50   3
M  END
>  <minimizedAffinity>  (1) 
-6.73819256

>  <minimizedRMSD>  (1) 
2.238029

$$$$
