
     RDKit          3D

 49 52  0  0  1  0  0  0  0  0999 V2000
   46.1530   34.3550   43.7300 C   0  0  0  0  0  0  0  0  0  0  0  0
   47.1050   33.3530   43.6380 C   0  0  0  0  0  0  0  0  0  0  0  0
   47.2920   32.5540   44.7820 C   0  0  0  0  0  0  0  0  0  0  0  0
   46.5520   32.7930   45.8930 N   0  0  0  0  0  0  0  0  0  0  0  0
   45.6430   33.7820   45.9230 C   0  0  0  0  0  0  0  0  0  0  0  0
   45.4550   34.5410   44.8580 N   0  0  0  0  0  0  0  0  0  0  0  0
   49.0720   34.0360   42.2630 C   0  0  2  0  0  0  0  0  0  0  0  0
   47.8750   33.0510   42.4000 C   0  0  1  0  0  0  0  0  0  0  0  0
   48.3260   31.7960   42.2730 O   0  0  0  0  0  0  0  0  0  0  0  0
   49.6980   31.7680   42.3600 C   0  0  0  0  0  0  0  0  0  0  0  0
   50.1260   33.0510   41.7140 C   0  0  1  0  0  0  0  0  0  0  0  0
   49.4840   34.5940   43.4020 O   0  0  0  0  0  0  0  0  0  0  0  0
   49.9920   32.8730   40.3540 O   0  0  0  0  0  0  0  0  0  0  0  0
   45.9540   35.2210   42.5360 C   0  0  0  0  0  0  0  0  0  0  0  0
   45.5940   33.5380   40.2350 F   0  0  0  0  0  0  0  0  0  0  0  0
   44.5600   34.1810   40.7630 C   0  0  0  0  0  0  0  0  0  0  0  0
   44.6670   34.9990   41.8650 C   0  0  0  0  0  0  0  0  0  0  0  0
   43.5440   35.6270   42.3570 C   0  0  0  0  0  0  0  0  0  0  0  0
   42.3450   35.3990   41.7070 C   0  0  0  0  0  0  0  0  0  0  0  0
   42.1760   34.5980   40.6080 C   0  0  0  0  0  0  0  0  0  0  0  0
   43.3310   33.9730   40.1310 C   0  0  0  0  0  0  0  0  0  0  0  0
   41.7400   32.9430   38.5050 C   0  0  2  0  0  0  0  0  0  0  0  0
   43.1850   33.0940   38.9380 C   0  0  2  0  0  0  0  0  0  0  0  0
   43.6330   31.8300   39.2840 O   0  0  0  0  0  0  0  0  0  0  0  0
   42.7240   30.8870   38.8830 C   0  0  0  0  0  0  0  0  0  0  0  0
   41.8240   31.5610   37.8570 C   0  0  2  0  0  0  0  0  0  0  0  0
   41.3780   33.9110   37.5730 O   0  0  0  0  0  0  0  0  0  0  0  0
   42.5270   31.6270   36.6810 O   0  0  0  0  0  0  0  0  0  0  0  0
   48.0333   31.7414   44.7747 H   0  0  0  0  0  0  0  0  0  0  0  0
   45.0547   33.9600   46.8353 H   0  0  0  0  0  0  0  0  0  0  0  0
   48.8407   34.9221   41.6536 H   0  0  0  0  0  0  0  0  0  0  0  0
   47.1406   33.1771   41.5908 H   0  0  0  0  0  0  0  0  0  0  0  0
   50.0230   31.7311   43.4103 H   0  0  0  0  0  0  0  0  0  0  0  0
   50.1359   30.8825   41.8762 H   0  0  0  0  0  0  0  0  0  0  0  0
   51.1556   33.3863   41.9074 H   0  0  0  0  0  0  0  0  0  0  0  0
   49.1124   34.0908   44.1693 H   0  0  0  0  0  0  0  0  0  0  0  0
   49.4059   32.0945   40.1792 H   0  0  0  0  0  0  0  0  0  0  0  0
   46.0045   36.2725   42.8551 H   0  0  0  0  0  0  0  0  0  0  0  0
   46.7451   34.9680   41.8148 H   0  0  0  0  0  0  0  0  0  0  0  0
   43.5991   36.2864   43.2357 H   0  0  0  0  0  0  0  0  0  0  0  0
   41.4520   35.9028   42.1055 H   0  0  0  0  0  0  0  0  0  0  0  0
   41.1944   34.4563   40.1321 H   0  0  0  0  0  0  0  0  0  0  0  0
   40.9964   33.0512   39.3083 H   0  0  0  0  0  0  0  0  0  0  0  0
   43.7566   33.5477   38.1150 H   0  0  0  0  0  0  0  0  0  0  0  0
   43.2418   30.0294   38.4288 H   0  0  0  0  0  0  0  0  0  0  0  0
   42.1408   30.5095   39.7359 H   0  0  0  0  0  0  0  0  0  0  0  0
   40.8549   31.0904   37.6347 H   0  0  0  0  0  0  0  0  0  0  0  0
   41.0732   34.7260   38.0452 H   0  0  0  0  0  0  0  0  0  0  0  0
   43.4928   31.7177   36.8785 H   0  0  0  0  0  0  0  0  0  0  0  0
  1  6  2  0
  2  1  1  0
  2  3  2  0
  3  4  1  0
  4  5  2  0
  6  5  1  0
  7  8  1  0
  7 12  1  0
  8  2  1  0
  9 10  1  0
  9  8  1  0
 11  7  1  0
 11 10  1  0
 13 11  1  0
 14  1  1  0
 15 16  1  0
 16 17  2  0
 17 18  1  0
 17 14  1  0
 19 18  2  0
 20 19  1  0
 21 20  2  0
 21 16  1  0
 22 27  1  0
 22 23  1  0
 23 24  1  0
 23 21  1  0
 25 24  1  0
 26 28  1  0
 26 22  1  0
 26 25  1  0
  3 29  1  0
  5 30  1  0
  7 31  1  6
  8 32  1  6
 10 33  1  0
 10 34  1  0
 11 35  1  6
 12 36  1  0
 13 37  1  0
 14 38  1  0
 14 39  1  0
 18 40  1  0
 19 41  1  0
 20 42  1  0
 22 43  1  1
 23 44  1  6
 25 45  1  0
 25 46  1  0
 26 47  1  6
 27 48  1  0
 28 49  1  0
M  ISO  8  29  14  30  14  31  13  32  13  33  13  34  13  35  13  36   3
M  ISO  8  37   3  38   8  39   8  40  14  41  14  42  14  43  13  44  13
M  ISO  5  45  13  46  13  47  13  48   3  49   3
M  END
>  <minimizedAffinity>  (1) 
-6.44037342

>  <minimizedRMSD>  (1) 
0.714749873

$$$$
