
     RDKit          3D

 47 49  0  0  1  0  0  0  0  0999 V2000
   46.5360   34.9040   42.0730 C   0  0  2  0  0  0  0  0  0  0  0  0
   45.6310   35.7400   42.8960 C   0  0  0  0  0  0  0  0  0  0  0  0
   44.2540   35.7470   42.3400 C   0  0  0  0  0  0  0  0  0  0  0  0
   43.6270   34.5100   42.3670 O   0  0  0  0  0  0  0  0  0  0  0  0
   44.5450   33.4840   42.4180 C   0  0  0  0  0  0  0  0  0  0  0  0
   45.7120   33.7860   41.4830 C   0  0  1  0  0  0  0  0  0  0  0  0
   46.4060   33.2910   39.0210 C   0  0  2  0  0  0  0  0  0  0  0  0
   45.4910   33.6050   40.0750 C   0  0  1  0  0  0  0  0  0  0  0  0
   44.3660   32.7870   39.7690 O   0  0  0  0  0  0  0  0  0  0  0  0
   44.1460   33.1590   38.4180 C   0  0  0  0  0  0  0  0  0  0  0  0
   45.5100   32.7780   37.8830 C   0  0  2  0  0  0  0  0  0  0  0  0
   47.3930   32.3700   39.1170 O   0  0  0  0  0  0  0  0  0  0  0  0
   45.5650   31.4080   37.8850 O   0  0  0  0  0  0  0  0  0  0  0  0
   47.6490   34.4710   42.6910 O   0  0  0  0  0  0  0  0  0  0  0  0
   50.2450   34.8530   42.7250 O   0  0  0  0  0  0  0  0  0  0  0  0
   49.0790   34.5430   41.8670 P   0  0  2  0  0  0  0  0  0  0  0  0
   48.9700   35.7950   40.7180 O   0  0  0  0  0  0  0  0  0  0  0  0
   49.3470   33.0800   40.9940 O   0  0  0  0  0  0  0  0  0  0  0  0
   49.5560   31.3220   42.5520 C   0  0  0  0  0  0  0  0  0  0  0  0
   50.1030   32.0530   41.5250 C   0  0  0  0  0  0  0  0  0  0  0  0
   51.4020   31.7190   41.0660 C   0  0  0  0  0  0  0  0  0  0  0  0
   52.0260   30.6860   41.6820 N   0  0  0  0  0  0  0  0  0  0  0  0
   51.4720   30.0060   42.6640 C   0  0  0  0  0  0  0  0  0  0  0  0
   50.2270   30.3360   43.0930 N   0  0  0  0  0  0  0  0  0  0  0  0
   47.1220   30.8260   42.7030 C   0  0  0  0  0  0  0  0  0  0  0  0
   47.0270   30.5090   41.4730 O   0  0  0  0  0  0  0  0  0  0  0  0
   48.3700   31.2520   43.3310 N   0  0  0  0  0  0  0  0  0  0  0  0
   46.9551   35.5389   41.2785 H   0  0  0  0  0  0  0  0  0  0  0  0
   45.6028   35.3380   43.9195 H   0  0  0  0  0  0  0  0  0  0  0  0
   46.0126   36.7717   42.8953 H   0  0  0  0  0  0  0  0  0  0  0  0
   44.3050   36.0859   41.2947 H   0  0  0  0  0  0  0  0  0  0  0  0
   43.6583   36.4190   42.9753 H   0  0  0  0  0  0  0  0  0  0  0  0
   44.9194   33.3801   43.4471 H   0  0  0  0  0  0  0  0  0  0  0  0
   44.0606   32.5480   42.1028 H   0  0  0  0  0  0  0  0  0  0  0  0
   46.4444   32.9666   41.4361 H   0  0  0  0  0  0  0  0  0  0  0  0
   46.9846   34.2232   38.9424 H   0  0  0  0  0  0  0  0  0  0  0  0
   45.4853   34.7040   40.0282 H   0  0  0  0  0  0  0  0  0  0  0  0
   43.3362   32.5795   37.9507 H   0  0  0  0  0  0  0  0  0  0  0  0
   43.8269   34.1972   38.2441 H   0  0  0  0  0  0  0  0  0  0  0  0
   45.7639   33.1561   36.8817 H   0  0  0  0  0  0  0  0  0  0  0  0
   47.5853   32.1906   40.0714 H   0  0  0  0  0  0  0  0  0  0  0  0
   45.5782   31.0796   38.8189 H   0  0  0  0  0  0  0  0  0  0  0  0
   48.8943   36.6651   41.1842 H   0  0  0  0  0  0  0  0  0  0  0  0
   51.8820   32.2737   40.2463 H   0  0  0  0  0  0  0  0  0  0  0  0
   52.0158   29.1738   43.1349 H   0  0  0  0  0  0  0  0  0  0  0  0
   46.2162   30.7763   43.3252 H   0  0  0  0  0  0  0  0  0  0  0  0
   48.3901   31.4997   44.3306 H   0  0  0  0  0  0  0  0  0  0  0  0
  1 14  1  0
  1  2  1  0
  3  4  1  0
  3  2  1  0
  4  5  1  0
  6  1  1  0
  6  5  1  0
  7 12  1  0
  7  8  1  0
  8  9  1  0
  8  6  1  0
 10  9  1  0
 11 13  1  0
 11 10  1  0
 11  7  1  0
 16 14  1  0
 16 15  2  0
 17 16  1  0
 18 20  1  0
 18 16  1  0
 19 24  2  0
 19 27  1  0
 20 19  1  0
 21 20  2  0
 21 22  1  0
 22 23  2  0
 23 24  1  0
 25 27  1  0
 26 25  2  0
  1 28  1  6
  2 29  1  0
  2 30  1  0
  3 31  1  0
  3 32  1  0
  5 33  1  0
  5 34  1  0
  6 35  1  1
  7 36  1  6
  8 37  1  6
 10 38  1  0
 10 39  1  0
 11 40  1  6
 12 41  1  0
 13 42  1  0
 17 43  1  0
 21 44  1  0
 23 45  1  0
 25 46  1  0
 27 47  1  0
M  ISO  8  28  13  29  13  30  13  31  13  32  13  33  13  34  13  35  13
M  ISO  8  36  13  37  13  38  13  39  13  40  13  41   3  42   3  43   3
M  ISO  3  44  14  45  14  46   6
M  END
>  <minimizedAffinity>  (1) 
-4.7649188

>  <minimizedRMSD>  (1) 
0.958750486

$$$$
