
     RDKit          3D

 44 47  0  0  1  0  0  0  0  0999 V2000
   40.9040   34.0100   40.5470 N   0  0  0  0  0  0  0  0  0  0  0  0
   41.9690   34.9340   40.1610 C   0  0  2  0  0  0  0  0  0  0  0  0
   42.1210   35.0630   38.7100 C   0  0  0  0  0  0  0  0  0  0  0  0
   41.2730   34.2130   37.8890 N   0  0  0  0  0  0  0  0  0  0  0  0
   40.8340   32.9910   38.4360 C   0  0  0  0  0  0  0  0  0  0  0  0
   41.2460   32.7750   39.8600 C   0  0  2  0  0  0  0  0  0  0  0  0
   44.7290   33.9670   42.2340 C   0  0  0  0  0  0  0  0  0  0  0  0
   45.2970   34.0150   40.9780 C   0  0  0  0  0  0  0  0  0  0  0  0
   44.2890   34.3820   40.0650 C   0  0  0  0  0  0  0  0  0  0  0  0
   43.1910   34.5360   40.7910 N   0  0  0  0  0  0  0  0  0  0  0  0
   43.4310   34.2970   42.0530 N   0  0  0  0  0  0  0  0  0  0  0  0
   47.0700   32.3960   44.7380 C   0  0  0  0  0  0  0  0  0  0  0  0
   46.4580   32.6850   43.4930 C   0  0  0  0  0  0  0  0  0  0  0  0
   45.4180   33.6140   43.4770 C   0  0  0  0  0  0  0  0  0  0  0  0
   45.0360   34.1940   44.6280 N   0  0  0  0  0  0  0  0  0  0  0  0
   45.6350   33.9030   45.8120 C   0  0  0  0  0  0  0  0  0  0  0  0
   46.6380   33.0110   45.8380 N   0  0  0  0  0  0  0  0  0  0  0  0
   40.5680   31.6680   42.0340 C   0  0  1  0  0  0  0  0  0  0  0  0
   40.5600   31.6700   40.5590 C   0  0  2  0  0  0  0  0  0  0  0  0
   41.0840   30.4190   40.2430 O   0  0  0  0  0  0  0  0  0  0  0  0
   40.7080   29.5170   41.2000 C   0  0  0  0  0  0  0  0  0  0  0  0
   39.9530   30.2820   42.2760 C   0  0  1  0  0  0  0  0  0  0  0  0
   41.7940   31.6390   42.6440 O   0  0  0  0  0  0  0  0  0  0  0  0
   40.1900   29.8100   43.5480 O   0  0  0  0  0  0  0  0  0  0  0  0
   40.8920   33.8704   41.5674 H   0  0  0  0  0  0  0  0  0  0  0  0
   41.6891   35.9386   40.5111 H   0  0  0  0  0  0  0  0  0  0  0  0
   41.9046   36.1080   38.4432 H   0  0  0  0  0  0  0  0  0  0  0  0
   43.1504   34.7397   38.4960 H   0  0  0  0  0  0  0  0  0  0  0  0
   41.7986   33.9932   37.0309 H   0  0  0  0  0  0  0  0  0  0  0  0
   39.7354   32.9653   38.3866 H   0  0  0  0  0  0  0  0  0  0  0  0
   41.3048   32.1916   37.8449 H   0  0  0  0  0  0  0  0  0  0  0  0
   42.3128   32.5067   39.8651 H   0  0  0  0  0  0  0  0  0  0  0  0
   46.3485   33.8045   40.7332 H   0  0  0  0  0  0  0  0  0  0  0  0
   44.3917   34.5132   38.9777 H   0  0  0  0  0  0  0  0  0  0  0  0
   47.8946   31.6702   44.7957 H   0  0  0  0  0  0  0  0  0  0  0  0
   46.7927   32.1921   42.5683 H   0  0  0  0  0  0  0  0  0  0  0  0
   45.3020   34.3927   46.7390 H   0  0  0  0  0  0  0  0  0  0  0  0
   40.0863   32.5764   42.4250 H   0  0  0  0  0  0  0  0  0  0  0  0
   39.5375   31.8528   40.1969 H   0  0  0  0  0  0  0  0  0  0  0  0
   40.0563   28.7493   40.7574 H   0  0  0  0  0  0  0  0  0  0  0  0
   41.5885   29.0145   41.6268 H   0  0  0  0  0  0  0  0  0  0  0  0
   38.8562   30.2236   42.2160 H   0  0  0  0  0  0  0  0  0  0  0  0
   41.6738   31.6418   43.6267 H   0  0  0  0  0  0  0  0  0  0  0  0
   39.8600   30.4673   44.2107 H   0  0  0  0  0  0  0  0  0  0  0  0
  2  1  1  0
  2 10  1  0
  3  2  1  0
  4  5  1  0
  4  3  1  0
  5  6  1  0
  6  1  1  0
  6 19  1  0
  7 14  1  0
  8  7  1  0
  9 10  1  0
  9  8  2  0
 10 11  1  0
 11  7  2  0
 12 17  2  0
 13 12  1  0
 14 13  2  0
 14 15  1  0
 15 16  2  0
 16 17  1  0
 18 22  1  0
 18 23  1  0
 19 20  1  0
 19 18  1  0
 20 21  1  0
 21 22  1  0
 22 24  1  0
  1 25  1  0
  2 26  1  1
  3 27  1  0
  3 28  1  0
  4 29  1  0
  5 30  1  0
  5 31  1  0
  6 32  1  6
  8 33  1  0
  9 34  1  0
 12 35  1  0
 13 36  1  0
 16 37  1  0
 18 38  1  1
 19 39  1  1
 21 40  1  0
 21 41  1  0
 22 42  1  6
 23 43  1  0
 24 44  1  0
M  ISO  8  25   5  26  13  27  13  28  13  29   5  30  13  31  13  32  13
M  ISO  8  33  14  34  14  35  14  36  14  37  14  38  13  39  13  40  13
M  ISO  4  41  13  42  13  43   3  44   3
M  END
>  <minimizedAffinity>  (1) 
-5.34454346

>  <minimizedRMSD>  (1) 
4.7968502

$$$$
