
     RDKit          3D

 50 52  0  0  1  0  0  0  0  0999 V2000
   46.5240   34.6830   41.4990 C   0  0  0  0  0  0  0  0  0  0  0  0
   45.1480   34.2850   41.1070 C   0  0  0  0  0  0  0  0  0  0  0  0
   44.0580   35.1580   41.3600 C   0  0  0  0  0  0  0  0  0  0  0  0
   42.6210   34.2410   40.7110 S   0  0  0  0  0  0  0  0  0  0  0  0
   43.7550   32.7920   40.1920 C   0  0  0  0  0  0  0  0  0  0  0  0
   44.7690   33.1850   40.5300 N   0  0  0  0  0  0  0  0  0  0  0  0
   43.2740   31.6480   39.5790 O   0  0  0  0  0  0  0  0  0  0  0  0
   42.6350   30.3050   37.3840 O   0  0  0  0  0  0  0  0  0  0  0  0
   43.0240   31.6920   37.9120 P   0  0  1  0  0  0  0  0  0  0  0  0
   41.7290   32.7510   37.6040 O   0  0  0  0  0  0  0  0  0  0  0  0
   44.3910   32.2810   37.1290 O   0  0  0  0  0  0  0  0  0  0  0  0
   44.7940   31.7970   34.8090 C   0  0  2  0  0  0  0  0  0  0  0  0
   44.8110   31.2760   36.2460 C   0  0  1  0  0  0  0  0  0  0  0  0
   46.1280   30.9350   36.4160 O   0  0  0  0  0  0  0  0  0  0  0  0
   46.4840   30.2560   35.2770 C   0  0  0  0  0  0  0  0  0  0  0  0
   45.6570   30.7530   34.1280 C   0  0  2  0  0  0  0  0  0  0  0  0
   45.3340   33.0520   34.6800 O   0  0  0  0  0  0  0  0  0  0  0  0
   46.3930   31.3510   33.1160 O   0  0  0  0  0  0  0  0  0  0  0  0
   47.5600   34.4250   40.4510 C   0  0  0  0  0  0  0  0  0  0  0  0
   48.7790   33.7850   40.9730 C   0  0  0  0  0  0  0  0  0  0  0  0
   49.2190   32.6440   40.3060 C   0  0  0  0  0  0  0  0  0  0  0  0
   50.3510   31.9760   40.7200 C   0  0  0  0  0  0  0  0  0  0  0  0
   51.0140   32.4900   41.8150 N   0  0  0  0  0  0  0  0  0  0  0  0
   50.5440   33.6150   42.4390 C   0  0  0  0  0  0  0  0  0  0  0  0
   49.4560   34.2270   42.0120 N   0  0  0  0  0  0  0  0  0  0  0  0
   48.3090   32.0320   38.8920 S   0  0  0  0  0  0  0  0  0  0  0  0
   49.1750   32.4710   37.3560 C   0  0  0  0  0  0  0  0  0  0  0  0
   48.4230   33.5620   36.6600 C   0  0  0  0  0  0  0  0  0  0  0  0
   48.1930   33.1590   35.3050 N   0  0  0  0  0  0  0  0  0  0  0  0
   46.5208   35.7600   41.7229 H   0  0  0  0  0  0  0  0  0  0  0  0
   46.7950   34.0671   42.3692 H   0  0  0  0  0  0  0  0  0  0  0  0
   44.0756   36.1504   41.8341 H   0  0  0  0  0  0  0  0  0  0  0  0
   41.3469   33.0634   38.4622 H   0  0  0  0  0  0  0  0  0  0  0  0
   43.7814   31.9165   34.3963 H   0  0  0  0  0  0  0  0  0  0  0  0
   44.1328   30.4320   36.4404 H   0  0  0  0  0  0  0  0  0  0  0  0
   47.5496   30.4271   35.0645 H   0  0  0  0  0  0  0  0  0  0  0  0
   46.3103   29.1791   35.4190 H   0  0  0  0  0  0  0  0  0  0  0  0
   45.1242   29.9334   33.6236 H   0  0  0  0  0  0  0  0  0  0  0  0
   45.4985   33.4344   35.5782 H   0  0  0  0  0  0  0  0  0  0  0  0
   47.0967   31.9228   33.5134 H   0  0  0  0  0  0  0  0  0  0  0  0
   47.8398   35.3859   39.9944 H   0  0  0  0  0  0  0  0  0  0  0  0
   47.1167   33.7296   39.7230 H   0  0  0  0  0  0  0  0  0  0  0  0
   50.7093   31.0746   40.2013 H   0  0  0  0  0  0  0  0  0  0  0  0
   51.0827   34.0149   43.3107 H   0  0  0  0  0  0  0  0  0  0  0  0
   50.1913   32.8186   37.5934 H   0  0  0  0  0  0  0  0  0  0  0  0
   49.2355   31.5890   36.7015 H   0  0  0  0  0  0  0  0  0  0  0  0
   47.4609   33.7312   37.1657 H   0  0  0  0  0  0  0  0  0  0  0  0
   49.0039   34.4958   36.6832 H   0  0  0  0  0  0  0  0  0  0  0  0
   47.6825   32.2645   35.2948 H   0  0  0  0  0  0  0  0  0  0  0  0
   47.6352   33.8782   34.8229 H   0  0  0  0  0  0  0  0  0  0  0  0
  2  3  2  0
  2  1  1  0
  4  3  1  0
  5  6  2  0
  5  4  1  0
  6  2  1  0
  7  5  1  0
  9  8  2  0
  9  7  1  0
 10  9  1  0
 11  9  1  0
 12 17  1  0
 12 13  1  0
 13 14  1  0
 13 11  1  0
 15 14  1  0
 16 18  1  0
 16 12  1  0
 16 15  1  0
 19 20  1  0
 19  1  1  0
 20 25  2  0
 21 22  2  0
 21 20  1  0
 22 23  1  0
 23 24  2  0
 25 24  1  0
 26 21  1  0
 27 26  1  0
 28 27  1  0
 29 28  1  0
  1 30  1  0
  1 31  1  0
  3 32  1  0
 10 33  1  0
 12 34  1  6
 13 35  1  6
 15 36  1  0
 15 37  1  0
 16 38  1  6
 17 39  1  0
 18 40  1  0
 19 41  1  0
 19 42  1  0
 22 43  1  0
 24 44  1  0
 27 45  1  0
 27 46  1  0
 28 47  1  0
 28 48  1  0
 29 49  1  0
 29 50  1  0
M  ISO  8  30   8  31   8  32  14  33   3  34  13  35  13  36  13  37  13
M  ISO  8  38  13  39   3  40   3  41   8  42   8  43  14  44  14  45   8
M  ISO  5  46   8  47   8  48   8  49   5  50   5
M  END
>  <minimizedAffinity>  (1) 
-4.89506435

>  <minimizedRMSD>  (1) 
2.40456033

$$$$
