
     RDKit          3D

 49 52  0  0  1  0  0  0  0  0999 V2000
   48.1500   32.7180   40.1200 O   0  0  0  0  0  0  0  0  0  0  0  0
   48.2710   33.9400   42.1460 C   0  0  2  0  0  0  0  0  0  0  0  0
   46.8500   33.3730   42.4140 C   0  0  1  0  0  0  0  0  0  0  0  0
   47.1950   32.2190   43.0540 O   0  0  0  0  0  0  0  0  0  0  0  0
   48.1430   31.6260   42.1960 C   0  0  0  0  0  0  0  0  0  0  0  0
   48.7570   32.7570   41.3400 C   0  0  1  0  0  0  0  0  0  0  0  0
   44.7410   36.2220   43.7910 C   0  0  0  0  0  0  0  0  0  0  0  0
   45.4830   35.5190   42.8380 C   0  0  0  0  0  0  0  0  0  0  0  0
   46.0520   34.3190   43.2050 C   0  0  0  0  0  0  0  0  0  0  0  0
   45.8480   33.8910   44.4980 N   0  0  0  0  0  0  0  0  0  0  0  0
   45.1270   34.5900   45.3930 C   0  0  0  0  0  0  0  0  0  0  0  0
   44.5730   35.7620   45.0320 N   0  0  0  0  0  0  0  0  0  0  0  0
   49.0090   33.9640   43.2950 O   0  0  0  0  0  0  0  0  0  0  0  0
   48.9870   32.6350   37.9150 C   0  0  1  0  0  0  0  0  0  0  0  0
   48.6720   33.5980   39.1690 C   0  0  1  0  0  0  0  0  0  0  0  0
   47.6670   34.3030   38.6160 O   0  0  0  0  0  0  0  0  0  0  0  0
   46.7640   33.2460   38.3160 C   0  0  0  0  0  0  0  0  0  0  0  0
   47.6010   32.3890   37.3970 C   0  0  1  0  0  0  0  0  0  0  0  0
   49.6360   33.4710   36.9970 O   0  0  0  0  0  0  0  0  0  0  0  0
   47.4390   32.8350   36.1000 O   0  0  0  0  0  0  0  0  0  0  0  0
   45.3140   32.4100   35.0270 C   0  0  2  0  0  0  0  0  0  0  0  0
   46.7060   31.9260   35.3460 C   0  0  2  0  0  0  0  0  0  0  0  0
   46.5550   30.7310   36.0460 O   0  0  0  0  0  0  0  0  0  0  0  0
   45.4170   30.1240   35.5750 C   0  0  0  0  0  0  0  0  0  0  0  0
   44.4370   31.2250   35.2870 C   0  0  1  0  0  0  0  0  0  0  0  0
   45.1890   32.9520   33.7600 O   0  0  0  0  0  0  0  0  0  0  0  0
   43.6260   31.4600   36.4110 O   0  0  0  0  0  0  0  0  0  0  0  0
   48.3185   34.9513   41.7159 H   0  0  0  0  0  0  0  0  0  0  0  0
   46.1992   33.2031   41.5436 H   0  0  0  0  0  0  0  0  0  0  0  0
   48.9285   31.1319   42.7866 H   0  0  0  0  0  0  0  0  0  0  0  0
   47.6692   30.8665   41.5568 H   0  0  0  0  0  0  0  0  0  0  0  0
   49.8421   32.7363   41.1610 H   0  0  0  0  0  0  0  0  0  0  0  0
   44.2826   37.1816   43.5100 H   0  0  0  0  0  0  0  0  0  0  0  0
   45.6097   35.9142   41.8193 H   0  0  0  0  0  0  0  0  0  0  0  0
   44.9910   34.2056   46.4146 H   0  0  0  0  0  0  0  0  0  0  0  0
   48.4025   33.9443   44.0772 H   0  0  0  0  0  0  0  0  0  0  0  0
   49.5684   31.7223   38.1124 H   0  0  0  0  0  0  0  0  0  0  0  0
   49.4741   34.2084   39.6094 H   0  0  0  0  0  0  0  0  0  0  0  0
   46.4723   32.6966   39.2233 H   0  0  0  0  0  0  0  0  0  0  0  0
   45.8124   33.5794   37.8763 H   0  0  0  0  0  0  0  0  0  0  0  0
   47.3450   31.3193   37.3819 H   0  0  0  0  0  0  0  0  0  0  0  0
   50.1639   34.1510   37.4859 H   0  0  0  0  0  0  0  0  0  0  0  0
   45.0214   33.2641   35.6554 H   0  0  0  0  0  0  0  0  0  0  0  0
   47.2713   31.7946   34.4116 H   0  0  0  0  0  0  0  0  0  0  0  0
   45.6384   29.5617   34.6558 H   0  0  0  0  0  0  0  0  0  0  0  0
   45.0121   29.4118   36.3090 H   0  0  0  0  0  0  0  0  0  0  0  0
   43.7605   30.9942   34.4509 H   0  0  0  0  0  0  0  0  0  0  0  0
   44.9671   33.9140   33.8330 H   0  0  0  0  0  0  0  0  0  0  0  0
   44.1524   31.3075   37.2355 H   0  0  0  0  0  0  0  0  0  0  0  0
  1  6  1  0
  2  3  1  0
  2 13  1  0
  3  4  1  0
  3  9  1  0
  5  4  1  0
  6  2  1  0
  6  5  1  0
  7 12  2  0
  8  9  2  0
  8  7  1  0
  9 10  1  0
 10 11  2  0
 12 11  1  0
 14 15  1  0
 15  1  1  0
 16 15  1  0
 17 16  1  0
 18 14  1  0
 18 17  1  0
 19 14  1  0
 20 18  1  0
 21 26  1  0
 21 25  1  0
 21 22  1  0
 22 23  1  0
 22 20  1  0
 24 23  1  0
 25 24  1  0
 25 27  1  0
  2 28  1  6
  3 29  1  6
  5 30  1  0
  5 31  1  0
  6 32  1  6
  7 33  1  0
  8 34  1  0
 11 35  1  0
 13 36  1  0
 14 37  1  1
 15 38  1  1
 17 39  1  0
 17 40  1  0
 18 41  1  6
 19 42  1  0
 21 43  1  1
 22 44  1  6
 24 45  1  0
 24 46  1  0
 25 47  1  6
 26 48  1  0
 27 49  1  0
M  ISO  8  28  13  29  13  30  13  31  13  32  13  33  14  34  14  35  14
M  ISO  8  36   3  37  13  38  13  39  13  40  13  41  13  42   3  43  13
M  ISO  6  44  13  45  13  46  13  47  13  48   3  49   3
M  END
>  <minimizedAffinity>  (1) 
-6.29113436

>  <minimizedRMSD>  (1) 
1.6629771

$$$$
