
     RDKit          3D

 40 41  0  0  1  0  0  0  0  0999 V2000
   45.7090   35.3700   43.0210 C   0  0  0  0  0  0  0  0  0  0  0  0
   43.8580   35.1030   41.2840 C   0  0  0  0  0  0  0  0  0  0  0  0
   44.3620   35.6830   42.3840 C   0  0  0  0  0  0  0  0  0  0  0  0
   42.6080   35.5320   40.8730 O   0  0  0  0  0  0  0  0  0  0  0  0
   41.4470   35.5400   41.6190 C   0  0  0  0  0  0  0  0  0  0  0  0
   40.1000   33.5480   41.6440 C   0  0  0  0  0  0  0  0  0  0  0  0
   40.3380   34.7800   41.0010 C   0  0  0  0  0  0  0  0  0  0  0  0
   39.5400   35.0850   39.9400 C   0  0  0  0  0  0  0  0  0  0  0  0
   38.6050   34.2000   39.5980 N   0  0  0  0  0  0  0  0  0  0  0  0
   38.3810   33.0450   40.1960 C   0  0  0  0  0  0  0  0  0  0  0  0
   39.1560   32.6610   41.2920 N   0  0  0  0  0  0  0  0  0  0  0  0
   45.5000   35.2270   44.3640 O   0  0  0  0  0  0  0  0  0  0  0  0
   45.0690   32.6250   44.0160 O   0  0  0  0  0  0  0  0  0  0  0  0
   45.7510   33.6360   44.8890 P   0  0  1  0  0  0  0  0  0  0  0  0
   47.4120   33.3000   44.9020 O   0  0  0  0  0  0  0  0  0  0  0  0
   45.2140   33.4950   46.4930 O   0  0  0  0  0  0  0  0  0  0  0  0
   45.2140   31.8480   48.2780 C   0  0  1  0  0  0  0  0  0  0  0  0
   45.8210   32.3620   47.0150 C   0  0  1  0  0  0  0  0  0  0  0  0
   45.8920   31.3250   46.1120 O   0  0  0  0  0  0  0  0  0  0  0  0
   45.6310   30.1420   46.7500 C   0  0  0  0  0  0  0  0  0  0  0  0
   45.6690   30.4030   48.2410 C   0  0  1  0  0  0  0  0  0  0  0  0
   45.6570   32.5060   49.4160 O   0  0  0  0  0  0  0  0  0  0  0  0
   46.9980   30.2960   48.6550 O   0  0  0  0  0  0  0  0  0  0  0  0
   46.4137   36.1939   42.8353 H   0  0  0  0  0  0  0  0  0  0  0  0
   46.1379   34.4516   42.5936 H   0  0  0  0  0  0  0  0  0  0  0  0
   44.4107   34.3255   40.7363 H   0  0  0  0  0  0  0  0  0  0  0  0
   43.7463   36.4545   42.8695 H   0  0  0  0  0  0  0  0  0  0  0  0
   41.6636   35.0996   42.6034 H   0  0  0  0  0  0  0  0  0  0  0  0
   41.1182   36.5872   41.6911 H   0  0  0  0  0  0  0  0  0  0  0  0
   40.7388   33.2934   42.5025 H   0  0  0  0  0  0  0  0  0  0  0  0
   39.6632   36.0273   39.3861 H   0  0  0  0  0  0  0  0  0  0  0  0
   37.5820   32.3834   39.8301 H   0  0  0  0  0  0  0  0  0  0  0  0
   47.7284   33.2360   45.8379 H   0  0  0  0  0  0  0  0  0  0  0  0
   44.1247   31.9911   48.3313 H   0  0  0  0  0  0  0  0  0  0  0  0
   46.8334   32.7207   47.2525 H   0  0  0  0  0  0  0  0  0  0  0  0
   44.6366   29.7717   46.4600 H   0  0  0  0  0  0  0  0  0  0  0  0
   46.3775   29.3830   46.4733 H   0  0  0  0  0  0  0  0  0  0  0  0
   45.0712   29.7309   48.8742 H   0  0  0  0  0  0  0  0  0  0  0  0
   45.3347   32.0274   50.2205 H   0  0  0  0  0  0  0  0  0  0  0  0
   47.0362   30.2929   49.6443 H   0  0  0  0  0  0  0  0  0  0  0  0
  1 12  1  0
  2  3  2  0
  3  1  1  0
  4  2  1  0
  4  5  1  0
  7  5  1  0
  7  6  2  0
  8  7  1  0
  9  8  2  0
  9 10  1  0
 10 11  2  0
 11  6  1  0
 12 14  1  0
 14 13  2  0
 14 15  1  0
 14 16  1  0
 17 22  1  0
 18 16  1  0
 18 17  1  0
 19 20  1  0
 19 18  1  0
 20 21  1  0
 21 17  1  0
 21 23  1  0
  1 24  1  0
  1 25  1  0
  2 26  1  0
  3 27  1  0
  5 28  1  0
  5 29  1  0
  6 30  1  0
  8 31  1  0
 10 32  1  0
 15 33  1  0
 17 34  1  6
 18 35  1  1
 20 36  1  0
 20 37  1  0
 21 38  1  1
 22 39  1  0
 23 40  1  0
M  ISO  8  24   8  25   8  28   8  29   8  30  14  31  14  32  14  33   3
M  ISO  7  34  13  35  13  36  13  37  13  38  13  39   3  40   3
M  END
>  <minimizedAffinity>  (1) 
-5.65570879

>  <minimizedRMSD>  (1) 
1.98749769

$$$$
