
     RDKit          3D

 51 54  0  0  1  0  0  0  0  0999 V2000
   42.8130   34.3820   38.9050 C   0  0  1  0  0  0  0  0  0  0  0  0
   43.0310   35.1880   40.1790 C   0  0  1  0  0  0  0  0  0  0  0  0
   41.7750   35.5910   40.6670 O   0  0  0  0  0  0  0  0  0  0  0  0
   40.8800   35.9050   39.6410 C   0  0  0  0  0  0  0  0  0  0  0  0
   40.4500   34.6750   38.8700 C   0  0  2  0  0  0  0  0  0  0  0  0
   41.5620   33.5920   39.1170 C   0  0  1  0  0  0  0  0  0  0  0  0
   42.6830   35.2310   37.7970 O   0  0  0  0  0  0  0  0  0  0  0  0
   40.4950   34.9390   37.5080 O   0  0  0  0  0  0  0  0  0  0  0  0
   43.4770   34.2500   41.1300 O   0  0  0  0  0  0  0  0  0  0  0  0
   44.6150   34.3520   41.8260 C   0  0  0  0  0  0  0  0  0  0  0  0
   45.8540   34.4780   41.1810 C   0  0  0  0  0  0  0  0  0  0  0  0
   46.9960   34.5830   41.9580 C   0  0  0  0  0  0  0  0  0  0  0  0
   46.8830   34.5600   43.3370 N   0  0  0  0  0  0  0  0  0  0  0  0
   45.6710   34.4370   43.9240 C   0  0  0  0  0  0  0  0  0  0  0  0
   44.5420   34.3330   43.1740 N   0  0  0  0  0  0  0  0  0  0  0  0
   48.3540   34.7030   41.3450 C   0  0  0  0  0  0  0  0  0  0  0  0
   49.0730   36.0400   41.5250 C   0  0  0  0  0  0  0  0  0  0  0  0
   49.5330   34.7050   42.1480 C   0  0  0  0  0  0  0  0  0  0  0  0
   41.3350   32.5760   38.2680 O   0  0  0  0  0  0  0  0  0  0  0  0
   40.4300   31.5730   38.3620 C   0  0  0  0  0  0  0  0  0  0  0  0
   40.0370   30.9300   37.2930 O   0  0  0  0  0  0  0  0  0  0  0  0
   39.6030   30.7990   39.2390 N   0  0  0  0  0  0  0  0  0  0  0  0
   38.4330   30.3860   38.4850 C   0  0  0  0  0  0  0  0  0  0  0  0
   37.6200   29.4590   39.3540 C   0  0  0  0  0  0  0  0  0  0  0  0
   37.2870   30.0430   40.6230 N   0  0  0  0  0  0  0  0  0  0  0  0
   38.3860   30.6910   41.2760 C   0  0  0  0  0  0  0  0  0  0  0  0
   39.7300   30.4070   40.6030 C   0  0  0  0  0  0  0  0  0  0  0  0
   43.6691   33.7222   38.7005 H   0  0  0  0  0  0  0  0  0  0  0  0
   43.7052   36.0395   40.0048 H   0  0  0  0  0  0  0  0  0  0  0  0
   39.9894   36.3794   40.0789 H   0  0  0  0  0  0  0  0  0  0  0  0
   41.3885   36.5849   38.9416 H   0  0  0  0  0  0  0  0  0  0  0  0
   39.4409   34.3660   39.1803 H   0  0  0  0  0  0  0  0  0  0  0  0
   41.6038   33.1040   40.1019 H   0  0  0  0  0  0  0  0  0  0  0  0
   42.5407   36.1600   38.1080 H   0  0  0  0  0  0  0  0  0  0  0  0
   40.6596   35.9046   37.3643 H   0  0  0  0  0  0  0  0  0  0  0  0
   45.9175   34.4931   40.0829 H   0  0  0  0  0  0  0  0  0  0  0  0
   45.5978   34.4209   45.0214 H   0  0  0  0  0  0  0  0  0  0  0  0
   48.0499   34.0800   40.4910 H   0  0  0  0  0  0  0  0  0  0  0  0
   49.6315   36.4947   40.6936 H   0  0  0  0  0  0  0  0  0  0  0  0
   48.8179   37.0486   41.8824 H   0  0  0  0  0  0  0  0  0  0  0  0
   49.4524   34.5544   43.2347 H   0  0  0  0  0  0  0  0  0  0  0  0
   50.4734   34.1345   42.1313 H   0  0  0  0  0  0  0  0  0  0  0  0
   37.8324   31.2674   38.2158 H   0  0  0  0  0  0  0  0  0  0  0  0
   38.7364   29.8737   37.5601 H   0  0  0  0  0  0  0  0  0  0  0  0
   36.6881   29.2080   38.8262 H   0  0  0  0  0  0  0  0  0  0  0  0
   38.2295   28.5641   39.5484 H   0  0  0  0  0  0  0  0  0  0  0  0
   36.5435   30.7399   40.4731 H   0  0  0  0  0  0  0  0  0  0  0  0
   38.2103   31.7768   41.2645 H   0  0  0  0  0  0  0  0  0  0  0  0
   38.4402   30.2958   42.3011 H   0  0  0  0  0  0  0  0  0  0  0  0
   39.9659   29.3345   40.6676 H   0  0  0  0  0  0  0  0  0  0  0  0
   40.5417   30.9611   41.0971 H   0  0  0  0  0  0  0  0  0  0  0  0
  1  6  1  0
  1  2  1  0
  2  3  1  0
  2  9  1  0
  4  3  1  0
  5  6  1  0
  5  4  1  0
  7  1  1  0
  8  5  1  0
  9 10  1  0
 10 15  1  0
 11 10  2  0
 11 12  1  0
 12 13  2  0
 13 14  1  0
 15 14  2  0
 16 17  1  0
 16 12  1  0
 16 18  1  0
 17 18  1  0
 19 20  1  0
 19  6  1  0
 20 22  1  0
 21 20  2  0
 22 27  1  0
 23 22  1  0
 23 24  1  0
 24 25  1  0
 25 26  1  0
 27 26  1  0
  1 28  1  6
  2 29  1  6
  4 30  1  0
  4 31  1  0
  5 32  1  1
  6 33  1  1
  7 34  1  0
  8 35  1  0
 11 36  1  0
 14 37  1  0
 16 38  1  0
 17 39  1  0
 17 40  1  0
 18 41  1  0
 18 42  1  0
 23 43  1  0
 23 44  1  0
 24 45  1  0
 24 46  1  0
 25 47  1  0
 26 48  1  0
 26 49  1  0
 27 50  1  0
 27 51  1  0
M  ISO  8  28  13  29  13  30  13  31  13  32  13  33  13  34   3  35   3
M  ISO  8  36  14  37  14  38  13  39  13  40  13  41  13  42  13  43  13
M  ISO  8  44  13  45  13  46  13  47   5  48  13  49  13  50  13  51  13
M  END
>  <minimizedAffinity>  (1) 
-6.5018096

>  <minimizedRMSD>  (1) 
1.51606727

$$$$
