
     RDKit          3D

 29 30  0  0  0  0  0  0  0  0999 V2000
   44.5900   36.0560   44.4920 C   0  0  0  0  0  0  0  0  0  0  0  0
   45.3430   35.9400   43.2980 C   0  0  0  0  0  0  0  0  0  0  0  0
   46.1870   34.8150   43.2240 C   0  0  0  0  0  0  0  0  0  0  0  0
   46.2300   33.9430   44.2590 N   0  0  0  0  0  0  0  0  0  0  0  0
   45.4850   34.1050   45.3790 C   0  0  0  0  0  0  0  0  0  0  0  0
   44.6580   35.1770   45.4920 N   0  0  0  0  0  0  0  0  0  0  0  0
   45.5330   33.1510   46.4690 C   0  0  0  0  0  0  0  0  0  0  0  0
   44.9890   33.3950   47.5800 O   0  0  0  0  0  0  0  0  0  0  0  0
   46.2180   31.9090   46.2590 N   0  0  0  0  0  0  0  0  0  0  0  0
   47.1190   31.6500   45.1730 C   0  0  0  0  0  0  0  0  0  0  0  0
   47.6130   30.2190   45.3440 C   0  0  0  0  0  0  0  0  0  0  0  0
   48.2670   30.0450   46.6300 N   0  0  0  0  0  0  0  0  0  0  0  0
   47.3510   30.3920   47.7160 C   0  0  0  0  0  0  0  0  0  0  0  0
   46.0090   30.8190   47.1900 C   0  0  0  0  0  0  0  0  0  0  0  0
   46.9610   34.7000   41.9850 C   0  0  0  0  0  0  0  0  0  0  0  0
   47.7690   33.5610   42.0570 F   0  0  0  0  0  0  0  0  0  0  0  0
   47.8390   35.7690   41.9640 F   0  0  0  0  0  0  0  0  0  0  0  0
   46.1880   34.6160   40.8630 F   0  0  0  0  0  0  0  0  0  0  0  0
   43.9135   36.9166   44.5999 H   0  0  0  0  0  0  0  0  0  0  0  0
   45.2734   36.6775   42.4848 H   0  0  0  0  0  0  0  0  0  0  0  0
   47.9666   32.3502   45.2087 H   0  0  0  0  0  0  0  0  0  0  0  0
   46.6169   31.7814   44.2031 H   0  0  0  0  0  0  0  0  0  0  0  0
   46.7560   29.5324   45.2802 H   0  0  0  0  0  0  0  0  0  0  0  0
   48.3405   30.0015   44.5481 H   0  0  0  0  0  0  0  0  0  0  0  0
   48.5590   29.0626   46.7326 H   0  0  0  0  0  0  0  0  0  0  0  0
   47.2175   29.5141   48.3652 H   0  0  0  0  0  0  0  0  0  0  0  0
   47.7847   31.2324   48.2778 H   0  0  0  0  0  0  0  0  0  0  0  0
   45.3722   31.1554   48.0215 H   0  0  0  0  0  0  0  0  0  0  0  0
   45.5110   29.9773   46.6865 H   0  0  0  0  0  0  0  0  0  0  0  0
  1  6  2  0
  2  1  1  0
  3  2  2  0
  3  4  1  0
  4  5  2  0
  5  6  1  0
  5  7  1  0
  7  8  2  0
  9  7  1  0
  9 14  1  0
 10 11  1  0
 10  9  1  0
 11 12  1  0
 12 13  1  0
 14 13  1  0
 15 16  1  0
 15  3  1  0
 17 15  1  0
 18 15  1  0
  1 19  1  0
  2 20  1  0
 10 21  1  0
 10 22  1  0
 11 23  1  0
 11 24  1  0
 12 25  1  0
 13 26  1  0
 13 27  1  0
 14 28  1  0
 14 29  1  0
M  ISO  8  19  14  20  14  21  13  22  13  23  13  24  13  25   5  26  13
M  ISO  3  27  13  28  13  29  13
M  END
>  <minimizedAffinity>  (1) 
-5.31231308

>  <minimizedRMSD>  (1) 
0.532632887

$$$$
