
     RDKit          3D

 28 29  0  0  0  0  0  0  0  0999 V2000
   44.6710   36.6310   43.9640 C   0  0  0  0  0  0  0  0  0  0  0  0
   45.4110   36.2870   42.8230 C   0  0  0  0  0  0  0  0  0  0  0  0
   46.0940   35.0560   42.8370 C   0  0  0  0  0  0  0  0  0  0  0  0
   46.0000   34.2690   43.9510 N   0  0  0  0  0  0  0  0  0  0  0  0
   45.2820   34.6350   45.0180 C   0  0  0  0  0  0  0  0  0  0  0  0
   44.6080   35.8200   45.0420 N   0  0  0  0  0  0  0  0  0  0  0  0
   46.2160   32.7390   46.1990 C   0  0  0  0  0  0  0  0  0  0  0  0
   47.1030   32.5420   45.3500 O   0  0  0  0  0  0  0  0  0  0  0  0
   45.2220   33.7760   46.1490 N   0  0  0  0  0  0  0  0  0  0  0  0
   46.1620   31.8710   47.3320 N   0  0  0  0  0  0  0  0  0  0  0  0
   46.6130   30.4820   47.2050 C   0  0  0  0  0  0  0  0  0  0  0  0
   47.7510   30.3540   48.2260 C   0  0  0  0  0  0  0  0  0  0  0  0
   47.2710   30.6510   49.5520 N   0  0  0  0  0  0  0  0  0  0  0  0
   45.9010   31.1030   49.5700 C   0  0  0  0  0  0  0  0  0  0  0  0
   45.6800   32.2750   48.6300 C   0  0  0  0  0  0  0  0  0  0  0  0
   44.1274   37.5871   43.9811 H   0  0  0  0  0  0  0  0  0  0  0  0
   45.4560   36.9543   41.9497 H   0  0  0  0  0  0  0  0  0  0  0  0
   46.6903   34.7344   41.9704 H   0  0  0  0  0  0  0  0  0  0  0  0
   44.5113   33.8895   46.8859 H   0  0  0  0  0  0  0  0  0  0  0  0
   45.7964   29.7845   47.4432 H   0  0  0  0  0  0  0  0  0  0  0  0
   46.9384   30.2392   46.1827 H   0  0  0  0  0  0  0  0  0  0  0  0
   48.1439   29.3268   48.2042 H   0  0  0  0  0  0  0  0  0  0  0  0
   48.5463   31.0680   47.9658 H   0  0  0  0  0  0  0  0  0  0  0  0
   47.3424   29.7981   50.1251 H   0  0  0  0  0  0  0  0  0  0  0  0
   45.2483   30.2726   49.2629 H   0  0  0  0  0  0  0  0  0  0  0  0
   45.6647   31.4355   50.5916 H   0  0  0  0  0  0  0  0  0  0  0  0
   46.2390   33.1538   48.9839 H   0  0  0  0  0  0  0  0  0  0  0  0
   44.6152   32.5477   48.5860 H   0  0  0  0  0  0  0  0  0  0  0  0
  1  6  2  0
  2  3  2  0
  2  1  1  0
  3  4  1  0
  4  5  2  0
  5  6  1  0
  5  9  1  0
  7 10  1  0
  8  7  2  0
  9  7  1  0
 10 15  1  0
 11 10  1  0
 11 12  1  0
 12 13  1  0
 13 14  1  0
 15 14  1  0
  1 16  1  0
  2 17  1  0
  3 18  1  0
  9 19  1  0
 11 20  1  0
 11 21  1  0
 12 22  1  0
 12 23  1  0
 13 24  1  0
 14 25  1  0
 14 26  1  0
 15 27  1  0
 15 28  1  0
M  ISO  8  16  14  17  14  18  14  20  13  21  13  22  13  23  13  24   5
M  ISO  4  25  13  26  13  27  13  28  13
M  END
>  <minimizedAffinity>  (1) 
-5.50980186

>  <minimizedRMSD>  (1) 
0.989019752

$$$$
