
     RDKit          3D

 34 36  0  0  0  0  0  0  0  0999 V2000
   45.9500   34.1500   41.0430 C   0  0  0  0  0  0  0  0  0  0  0  0
   46.5340   34.8080   42.1310 C   0  0  0  0  0  0  0  0  0  0  0  0
   47.8730   35.2080   41.9980 C   0  0  0  0  0  0  0  0  0  0  0  0
   48.5000   34.9230   40.8140 N   0  0  0  0  0  0  0  0  0  0  0  0
   47.9020   34.2940   39.8090 C   0  0  0  0  0  0  0  0  0  0  0  0
   46.6190   33.8970   39.9030 N   0  0  0  0  0  0  0  0  0  0  0  0
   45.7590   35.0490   43.3340 C   0  0  0  0  0  0  0  0  0  0  0  0
   45.0820   36.2290   43.5680 C   0  0  0  0  0  0  0  0  0  0  0  0
   44.5000   36.0150   44.8060 C   0  0  0  0  0  0  0  0  0  0  0  0
   44.8070   34.7810   45.2930 N   0  0  0  0  0  0  0  0  0  0  0  0
   45.5640   34.2300   44.3840 N   0  0  0  0  0  0  0  0  0  0  0  0
   44.6300   33.7520   41.1640 O   0  0  0  0  0  0  0  0  0  0  0  0
   43.5410   34.4360   40.6920 C   0  0  0  0  0  0  0  0  0  0  0  0
   43.3550   35.6950   40.6520 O   0  0  0  0  0  0  0  0  0  0  0  0
   42.2920   33.9820   40.1100 N   0  0  0  0  0  0  0  0  0  0  0  0
   42.3470   32.7360   39.3740 C   0  0  0  0  0  0  0  0  0  0  0  0
   41.3910   32.8840   38.2100 C   0  0  0  0  0  0  0  0  0  0  0  0
   41.1990   34.2590   37.8120 N   0  0  0  0  0  0  0  0  0  0  0  0
   40.5580   35.0490   38.8420 C   0  0  0  0  0  0  0  0  0  0  0  0
   41.0290   34.6850   40.2210 C   0  0  0  0  0  0  0  0  0  0  0  0
   48.3977   35.7295   42.8121 H   0  0  0  0  0  0  0  0  0  0  0  0
   48.4640   34.0941   38.8848 H   0  0  0  0  0  0  0  0  0  0  0  0
   45.0200   37.1212   42.9275 H   0  0  0  0  0  0  0  0  0  0  0  0
   43.8696   36.7487   45.3297 H   0  0  0  0  0  0  0  0  0  0  0  0
   44.5059   34.3700   46.1882 H   0  0  0  0  0  0  0  0  0  0  0  0
   43.3682   32.5559   39.0069 H   0  0  0  0  0  0  0  0  0  0  0  0
   42.0695   31.8838   40.0118 H   0  0  0  0  0  0  0  0  0  0  0  0
   41.7921   32.3232   37.3529 H   0  0  0  0  0  0  0  0  0  0  0  0
   40.4144   32.4944   38.5332 H   0  0  0  0  0  0  0  0  0  0  0  0
   42.1181   34.6735   37.6015 H   0  0  0  0  0  0  0  0  0  0  0  0
   40.7804   36.1111   38.6619 H   0  0  0  0  0  0  0  0  0  0  0  0
   39.4774   34.8489   38.7936 H   0  0  0  0  0  0  0  0  0  0  0  0
   40.2855   34.0360   40.7068 H   0  0  0  0  0  0  0  0  0  0  0  0
   41.1583   35.5949   40.8254 H   0  0  0  0  0  0  0  0  0  0  0  0
  1 12  1  0
  1  2  1  0
  2  7  1  0
  3  2  2  0
  4  3  1  0
  5  6  1  0
  5  4  2  0
  6  1  2  0
  7  8  1  0
  7 11  2  0
  8  9  2  0
  9 10  1  0
 11 10  1  0
 13 12  1  0
 14 13  2  0
 15 20  1  0
 15 13  1  0
 16 15  1  0
 17 16  1  0
 18 17  1  0
 18 19  1  0
 19 20  1  0
  3 21  1  0
  5 22  1  0
  8 23  1  0
  9 24  1  0
 10 25  1  0
 16 26  1  0
 16 27  1  0
 17 28  1  0
 17 29  1  0
 18 30  1  0
 19 31  1  0
 19 32  1  0
 20 33  1  0
 20 34  1  0
M  ISO  8  21  14  22  14  23  14  24  14  25   9  26  13  27  13  28  13
M  ISO  6  29  13  30   5  31  13  32  13  33  13  34  13
M  END
>  <minimizedAffinity>  (1) 
-5.7990222

>  <minimizedRMSD>  (1) 
0.685983241

$$$$
