
     RDKit          3D

 42 44  0  0  0  0  0  0  0  0999 V2000
   46.1380   32.5660   46.9570 C   0  0  0  0  0  0  0  0  0  0  0  0
   45.2190   32.5810   47.9460 C   0  0  0  0  0  0  0  0  0  0  0  0
   45.4030   31.7630   49.0450 C   0  0  0  0  0  0  0  0  0  0  0  0
   46.5270   30.9400   49.1150 C   0  0  0  0  0  0  0  0  0  0  0  0
   47.4660   30.9520   48.0600 C   0  0  0  0  0  0  0  0  0  0  0  0
   47.2300   31.7470   47.0560 N   0  0  0  0  0  0  0  0  0  0  0  0
   44.9500   35.0190   44.5160 C   0  0  0  0  0  0  0  0  0  0  0  0
   45.9220   34.8960   43.4990 C   0  0  0  0  0  0  0  0  0  0  0  0
   46.9720   33.9830   43.6440 C   0  0  0  0  0  0  0  0  0  0  0  0
   46.9520   33.2870   44.7810 N   0  0  0  0  0  0  0  0  0  0  0  0
   46.0520   33.3920   45.7400 C   0  0  0  0  0  0  0  0  0  0  0  0
   45.0340   34.2670   45.6140 N   0  0  0  0  0  0  0  0  0  0  0  0
   43.8810   35.9590   44.3470 N   0  0  0  0  0  0  0  0  0  0  0  0
   48.6440   30.1100   48.1020 C   0  0  0  0  0  0  0  0  0  0  0  0
   49.6850   30.3910   48.8670 C   0  0  0  0  0  0  0  0  0  0  0  0
   49.7550   31.5830   49.7510 C   0  0  0  0  0  0  0  0  0  0  0  0
   51.0950   32.1180   49.6190 N   0  0  0  0  0  0  0  0  0  0  0  0
   52.0960   31.0690   49.3850 C   0  0  0  0  0  0  0  0  0  0  0  0
   53.3000   31.8370   48.8330 C   0  0  0  0  0  0  0  0  0  0  0  0
   53.3660   33.1500   49.4620 N   0  0  0  0  0  0  0  0  0  0  0  0
   52.8690   33.1140   50.8340 C   0  0  0  0  0  0  0  0  0  0  0  0
   51.4070   32.7480   50.9150 C   0  0  0  0  0  0  0  0  0  0  0  0
   44.3368   33.2346   47.8782 H   0  0  0  0  0  0  0  0  0  0  0  0
   44.6657   31.7611   49.8613 H   0  0  0  0  0  0  0  0  0  0  0  0
   46.6811   30.2860   49.9860 H   0  0  0  0  0  0  0  0  0  0  0  0
   45.8536   35.5173   42.5939 H   0  0  0  0  0  0  0  0  0  0  0  0
   47.7524   33.8499   42.8803 H   0  0  0  0  0  0  0  0  0  0  0  0
   43.8299   36.5327   43.4931 H   0  0  0  0  0  0  0  0  0  0  0  0
   43.1640   36.0607   45.0795 H   0  0  0  0  0  0  0  0  0  0  0  0
   48.6734   29.2060   47.4760 H   0  0  0  0  0  0  0  0  0  0  0  0
   50.5452   29.7057   48.8480 H   0  0  0  0  0  0  0  0  0  0  0  0
   49.0142   32.3329   49.4364 H   0  0  0  0  0  0  0  0  0  0  0  0
   49.5355   31.3159   50.7953 H   0  0  0  0  0  0  0  0  0  0  0  0
   52.3540   30.5560   50.3232 H   0  0  0  0  0  0  0  0  0  0  0  0
   51.7403   30.2835   48.7020 H   0  0  0  0  0  0  0  0  0  0  0  0
   54.2226   31.2789   49.0507 H   0  0  0  0  0  0  0  0  0  0  0  0
   53.1927   31.9558   47.7447 H   0  0  0  0  0  0  0  0  0  0  0  0
   54.3456   33.4682   49.4696 H   0  0  0  0  0  0  0  0  0  0  0  0
   53.4497   32.3701   51.3992 H   0  0  0  0  0  0  0  0  0  0  0  0
   52.9822   34.1240   51.2548 H   0  0  0  0  0  0  0  0  0  0  0  0
   50.7917   33.6474   51.0650 H   0  0  0  0  0  0  0  0  0  0  0  0
   51.1971   32.0762   51.7604 H   0  0  0  0  0  0  0  0  0  0  0  0
  1  6  1  0
  1  2  2  0
  2  3  1  0
  3  4  2  0
  5 14  1  0
  5  4  1  0
  6  5  2  0
  7 12  2  0
  8  9  2  0
  8  7  1  0
  9 10  1  0
 10 11  2  0
 11  1  1  0
 12 11  1  0
 13  7  1  0
 14 15  2  0
 15 16  1  0
 17 16  1  0
 17 22  1  0
 18 17  1  0
 19 18  1  0
 19 20  1  0
 20 21  1  0
 21 22  1  0
  2 23  1  0
  3 24  1  0
  4 25  1  0
  8 26  1  0
  9 27  1  0
 13 28  1  0
 13 29  1  0
 14 30  1  0
 15 31  1  0
 16 32  1  0
 16 33  1  0
 18 34  1  0
 18 35  1  0
 19 36  1  0
 19 37  1  0
 20 38  1  0
 21 39  1  0
 21 40  1  0
 22 41  1  0
 22 42  1  0
M  ISO  8  23  14  24  14  25  14  26  14  27  14  32   8  33   8  34  13
M  ISO  8  35  13  36  13  37  13  38   5  39  13  40  13  41  13  42  13
M  END
>  <minimizedAffinity>  (1) 
-6.30884314

>  <minimizedRMSD>  (1) 
0.777252436

$$$$
