
     RDKit          3D

 25 26  0  0  1  0  0  0  0  0999 V2000
   46.6190   32.5310   46.3440 S   0  0  0  0  0  0  0  0  0  0  0  0
   44.5420   35.6230   44.8200 C   0  0  0  0  0  0  0  0  0  0  0  0
   45.1180   35.7230   43.5330 C   0  0  0  0  0  0  0  0  0  0  0  0
   46.1280   34.8260   43.1900 C   0  0  0  0  0  0  0  0  0  0  0  0
   46.4910   33.9160   44.1170 N   0  0  0  0  0  0  0  0  0  0  0  0
   45.9330   33.8320   45.3420 C   0  0  0  0  0  0  0  0  0  0  0  0
   44.9630   34.6860   45.6850 N   0  0  0  0  0  0  0  0  0  0  0  0
   44.7250   32.1800   48.1240 N   0  0  0  0  0  0  0  0  0  0  0  0
   46.1080   32.6380   48.0780 C   0  0  1  0  0  0  0  0  0  0  0  0
   46.9060   31.6430   48.9240 C   0  0  0  0  0  0  0  0  0  0  0  0
   46.0620   30.6500   49.5510 N   0  0  0  0  0  0  0  0  0  0  0  0
   45.2790   29.9090   48.5870 C   0  0  0  0  0  0  0  0  0  0  0  0
   44.7200   30.8420   47.5500 C   0  0  0  0  0  0  0  0  0  0  0  0
   43.7424   36.3183   45.1154 H   0  0  0  0  0  0  0  0  0  0  0  0
   44.7778   36.4890   42.8206 H   0  0  0  0  0  0  0  0  0  0  0  0
   46.6103   34.8589   42.2019 H   0  0  0  0  0  0  0  0  0  0  0  0
   44.3905   32.1519   49.0978 H   0  0  0  0  0  0  0  0  0  0  0  0
   46.2534   33.6624   48.4516 H   0  0  0  0  0  0  0  0  0  0  0  0
   47.6320   31.1307   48.2755 H   0  0  0  0  0  0  0  0  0  0  0  0
   47.4075   32.2090   49.7228 H   0  0  0  0  0  0  0  0  0  0  0  0
   46.6573   29.9902   50.0718 H   0  0  0  0  0  0  0  0  0  0  0  0
   45.9189   29.1609   48.0963 H   0  0  0  0  0  0  0  0  0  0  0  0
   44.4485   29.4081   49.1061 H   0  0  0  0  0  0  0  0  0  0  0  0
   43.6921   30.5466   47.2927 H   0  0  0  0  0  0  0  0  0  0  0  0
   45.3240   30.8101   46.6312 H   0  0  0  0  0  0  0  0  0  0  0  0
  2  7  2  0
  3  2  1  0
  4  3  2  0
  4  5  1  0
  5  6  2  0
  6  7  1  0
  6  1  1  0
  9  1  1  0
  9  8  1  0
  9 10  1  0
 10 11  1  0
 12 11  1  0
 13  8  1  0
 13 12  1  0
  2 14  1  0
  3 15  1  0
  4 16  1  0
  8 17  1  0
  9 18  1  1
 10 19  1  0
 10 20  1  0
 11 21  1  0
 12 22  1  0
 12 23  1  0
 13 24  1  0
 13 25  1  0
M  ISO  8  14  14  15  14  16  14  17   5  18  13  19  13  20  13  21   5
M  ISO  4  22  13  23  13  24  13  25  13
M  END
>  <minimizedAffinity>  (1) 
-4.67485619

>  <minimizedRMSD>  (1) 
2.72253156

$$$$
