
     RDKit          3D

 47 50  0  0  1  0  0  0  0  0999 V2000
   47.0060   31.6800   39.2570 C   0  0  0  0  0  0  0  0  0  0  0  0
   46.7280   33.0110   39.1620 C   0  0  0  0  0  0  0  0  0  0  0  0
   47.4900   33.7870   38.3070 C   0  0  0  0  0  0  0  0  0  0  0  0
   48.5030   33.2250   37.5680 C   0  0  0  0  0  0  0  0  0  0  0  0
   48.8000   31.8680   37.6500 C   0  0  0  0  0  0  0  0  0  0  0  0
   48.0300   31.0980   38.5120 C   0  0  0  0  0  0  0  0  0  0  0  0
   45.2510   35.7830   43.2390 Cl  0  0  0  0  0  0  0  0  0  0  0  0
   44.9870   34.9420   41.7380 C   0  0  0  0  0  0  0  0  0  0  0  0
   45.9990   34.3350   41.0880 C   0  0  0  0  0  0  0  0  0  0  0  0
   45.6780   33.6920   39.8980 C   0  0  0  0  0  0  0  0  0  0  0  0
   44.3990   33.6680   39.3990 C   0  0  0  0  0  0  0  0  0  0  0  0
   43.3960   34.2860   40.0740 C   0  0  0  0  0  0  0  0  0  0  0  0
   43.7000   34.9250   41.2520 C   0  0  0  0  0  0  0  0  0  0  0  0
   49.4980   35.4380   41.9760 C   0  0  0  0  0  0  0  0  0  0  0  0
   48.2150   35.4140   41.4220 C   0  0  0  0  0  0  0  0  0  0  0  0
   47.3270   34.3750   41.6490 C   0  0  0  0  0  0  0  0  0  0  0  0
   47.7970   33.3830   42.4510 N   0  0  0  0  0  0  0  0  0  0  0  0
   49.0290   33.4060   42.9820 C   0  0  0  0  0  0  0  0  0  0  0  0
   49.8690   34.4230   42.7470 N   0  0  0  0  0  0  0  0  0  0  0  0
   46.1120   30.6610   40.2560 S   0  0  0  0  0  0  0  0  0  0  0  0
   46.1140   29.2230   39.7850 O   0  0  0  0  0  0  0  0  0  0  0  0
   46.9320   30.6140   41.5790 O   0  0  0  0  0  0  0  0  0  0  0  0
   43.7640   29.6320   41.0880 N   0  0  0  0  0  0  0  0  0  0  0  0
   44.5420   30.8680   40.8380 C   0  0  1  0  0  0  0  0  0  0  0  0
   44.7430   31.2080   42.3620 C   0  0  0  0  0  0  0  0  0  0  0  0
   43.5190   31.6660   42.9370 N   0  0  0  0  0  0  0  0  0  0  0  0
   42.3490   31.3130   42.1860 C   0  0  0  0  0  0  0  0  0  0  0  0
   42.4910   29.9060   41.6630 C   0  0  0  0  0  0  0  0  0  0  0  0
   47.2831   34.8637   38.2179 H   0  0  0  0  0  0  0  0  0  0  0  0
   49.0938   33.8636   36.8949 H   0  0  0  0  0  0  0  0  0  0  0  0
   49.6119   31.4231   37.0560 H   0  0  0  0  0  0  0  0  0  0  0  0
   48.2299   30.0205   38.6074 H   0  0  0  0  0  0  0  0  0  0  0  0
   44.1871   33.1484   38.4529 H   0  0  0  0  0  0  0  0  0  0  0  0
   42.3661   34.2754   39.6877 H   0  0  0  0  0  0  0  0  0  0  0  0
   42.9019   35.4308   41.8152 H   0  0  0  0  0  0  0  0  0  0  0  0
   50.1825   36.2761   41.7783 H   0  0  0  0  0  0  0  0  0  0  0  0
   47.8986   36.2509   40.7821 H   0  0  0  0  0  0  0  0  0  0  0  0
   49.3557   32.5737   43.6227 H   0  0  0  0  0  0  0  0  0  0  0  0
   44.2962   29.0294   41.7319 H   0  0  0  0  0  0  0  0  0  0  0  0
   44.0566   31.5425   40.1172 H   0  0  0  0  0  0  0  0  0  0  0  0
   45.0772   30.3048   42.8935 H   0  0  0  0  0  0  0  0  0  0  0  0
   45.4984   32.0024   42.4530 H   0  0  0  0  0  0  0  0  0  0  0  0
   43.4328   31.2596   43.8795 H   0  0  0  0  0  0  0  0  0  0  0  0
   41.4639   31.3746   42.8362 H   0  0  0  0  0  0  0  0  0  0  0  0
   42.2332   32.0076   41.3409 H   0  0  0  0  0  0  0  0  0  0  0  0
   41.7210   29.7424   40.8946 H   0  0  0  0  0  0  0  0  0  0  0  0
   42.3768   29.2313   42.5242 H   0  0  0  0  0  0  0  0  0  0  0  0
  1 20  1  0
  2  1  1  0
  2 10  1  0
  3  2  2  0
  4  5  2  0
  4  3  1  0
  5  6  1  0
  6  1  2  0
  8  7  1  0
  9 16  1  0
  9  8  2  0
 10  9  1  0
 11 10  2  0
 11 12  1  0
 12 13  2  0
 13  8  1  0
 14 19  2  0
 15 16  2  0
 15 14  1  0
 16 17  1  0
 17 18  2  0
 19 18  1  0
 20 22  2  0
 21 20  2  0
 23 28  1  0
 24 20  1  0
 24 23  1  0
 24 25  1  0
 25 26  1  0
 27 26  1  0
 28 27  1  0
  3 29  1  0
  4 30  1  0
  5 31  1  0
  6 32  1  0
 11 33  1  0
 12 34  1  0
 13 35  1  0
 14 36  1  0
 15 37  1  0
 18 38  1  0
 23 39  1  0
 24 40  1  6
 25 41  1  0
 25 42  1  0
 26 43  1  0
 27 44  1  0
 27 45  1  0
 28 46  1  0
 28 47  1  0
M  ISO  8  29  14  30  14  31  14  32  14  33  14  34  14  35  14  36  14
M  ISO  8  37  14  38  14  39   5  40  13  41  13  42  13  43   5  44  13
M  ISO  3  45  13  46  13  47  13
M  END
>  <minimizedAffinity>  (1) 
-5.0992794

>  <minimizedRMSD>  (1) 
1.1769737

$$$$
