
     RDKit          3D

 45 48  0  0  1  0  0  0  0  0999 V2000
   45.9260   33.4930   45.8410 C   0  0  0  0  0  0  0  0  0  0  0  0
   46.7040   33.6250   44.6670 C   0  0  0  0  0  0  0  0  0  0  0  0
   47.3190   32.4510   44.1650 C   0  0  0  0  0  0  0  0  0  0  0  0
   47.1440   31.2600   44.8240 N   0  0  0  0  0  0  0  0  0  0  0  0
   46.3830   31.2070   45.9490 C   0  0  0  0  0  0  0  0  0  0  0  0
   45.7890   32.3200   46.4370 N   0  0  0  0  0  0  0  0  0  0  0  0
   46.2670   29.9570   46.5630 N   0  0  0  0  0  0  0  0  0  0  0  0
   47.4150   29.2510   47.0240 C   0  0  2  0  0  0  0  0  0  0  0  0
   47.1750   27.8300   47.3960 C   0  0  0  0  0  0  0  0  0  0  0  0
   45.8830   27.5160   47.8820 N   0  0  0  0  0  0  0  0  0  0  0  0
   45.0140   28.6140   48.0310 C   0  0  0  0  0  0  0  0  0  0  0  0
   44.9520   29.3570   46.7290 C   0  0  0  0  0  0  0  0  0  0  0  0
   48.1540   30.0090   48.0580 C   0  0  0  0  0  0  0  0  0  0  0  0
   47.7450   30.9420   48.9870 C   0  0  0  0  0  0  0  0  0  0  0  0
   48.7740   31.3830   49.7420 N   0  0  0  0  0  0  0  0  0  0  0  0
   49.8410   30.7150   49.2800 C   0  0  0  0  0  0  0  0  0  0  0  0
   49.4770   29.8990   48.2800 N   0  0  0  0  0  0  0  0  0  0  0  0
   51.2140   30.7720   49.6810 N   0  0  0  0  0  0  0  0  0  0  0  0
   51.9070   29.6970   50.3380 C   0  0  0  0  0  0  0  0  0  0  0  0
   53.3870   29.9050   50.1720 C   0  0  0  0  0  0  0  0  0  0  0  0
   53.8770   31.1720   50.6070 N   0  0  0  0  0  0  0  0  0  0  0  0
   52.8400   32.1650   50.6680 C   0  0  0  0  0  0  0  0  0  0  0  0
   51.9950   31.9780   49.4130 C   0  0  0  0  0  0  0  0  0  0  0  0
   45.4281   34.3779   46.2641 H   0  0  0  0  0  0  0  0  0  0  0  0
   46.8263   34.5964   44.1656 H   0  0  0  0  0  0  0  0  0  0  0  0
   47.9326   32.4941   43.2531 H   0  0  0  0  0  0  0  0  0  0  0  0
   48.0726   29.1763   46.1454 H   0  0  0  0  0  0  0  0  0  0  0  0
   47.3548   27.2151   46.5018 H   0  0  0  0  0  0  0  0  0  0  0  0
   47.8592   27.6277   48.2332 H   0  0  0  0  0  0  0  0  0  0  0  0
   45.4482   26.8526   47.2249 H   0  0  0  0  0  0  0  0  0  0  0  0
   44.0094   28.2571   48.3020 H   0  0  0  0  0  0  0  0  0  0  0  0
   45.3827   29.2793   48.8256 H   0  0  0  0  0  0  0  0  0  0  0  0
   44.1758   30.1355   46.7669 H   0  0  0  0  0  0  0  0  0  0  0  0
   44.6971   28.6921   45.8906 H   0  0  0  0  0  0  0  0  0  0  0  0
   46.7061   31.2856   49.0995 H   0  0  0  0  0  0  0  0  0  0  0  0
   48.7457   32.0771   50.5025 H   0  0  0  0  0  0  0  0  0  0  0  0
   51.6517   29.6912   51.4079 H   0  0  0  0  0  0  0  0  0  0  0  0
   51.6117   28.7345   49.8949 H   0  0  0  0  0  0  0  0  0  0  0  0
   53.9065   29.1241   50.7468 H   0  0  0  0  0  0  0  0  0  0  0  0
   53.5812   29.8588   49.0903 H   0  0  0  0  0  0  0  0  0  0  0  0
   54.2880   31.0640   51.5452 H   0  0  0  0  0  0  0  0  0  0  0  0
   52.2241   32.0179   51.5674 H   0  0  0  0  0  0  0  0  0  0  0  0
   53.2607   33.1801   50.7195 H   0  0  0  0  0  0  0  0  0  0  0  0
   52.6350   31.8395   48.5292 H   0  0  0  0  0  0  0  0  0  0  0  0
   51.3608   32.8509   49.1990 H   0  0  0  0  0  0  0  0  0  0  0  0
  1  6  2  0
  2  1  1  0
  3  2  2  0
  3  4  1  0
  4  5  2  0
  5  6  1  0
  5  7  1  0
  7 12  1  0
  7  8  1  0
  8  9  1  0
  8 13  1  0
  9 10  1  0
 10 11  1  0
 12 11  1  0
 13 17  1  0
 13 14  2  0
 14 15  1  0
 16 18  1  0
 16 15  1  0
 17 16  2  0
 18 19  1  0
 20 19  1  0
 20 21  1  0
 21 22  1  0
 23 18  1  0
 23 22  1  0
  1 24  1  0
  2 25  1  0
  3 26  1  0
  8 27  1  6
  9 28  1  0
  9 29  1  0
 10 30  1  0
 11 31  1  0
 11 32  1  0
 12 33  1  0
 12 34  1  0
 14 35  1  0
 15 36  1  0
 19 37  1  0
 19 38  1  0
 20 39  1  0
 20 40  1  0
 21 41  1  0
 22 42  1  0
 22 43  1  0
 23 44  1  0
 23 45  1  0
M  ISO  8  24  14  25  14  26  14  27  13  28  13  29  13  30   5  31  13
M  ISO  8  32  13  33  13  34  13  35  14  36   9  37  13  38  13  39  13
M  ISO  6  40  13  41   5  42  13  43  13  44  13  45  13
M  END
>  <minimizedAffinity>  (1) 
-5.23898125

>  <minimizedRMSD>  (1) 
0.284975588

$$$$
