
     RDKit          3D

 31 33  0  0  1  0  0  0  0  0999 V2000
   45.6290   34.6340   42.0550 C   0  0  0  0  0  0  0  0  0  0  0  0
   44.9050   35.6700   42.6330 C   0  0  0  0  0  0  0  0  0  0  0  0
   43.5580   35.5060   42.3220 C   0  0  0  0  0  0  0  0  0  0  0  0
   43.4980   34.3930   41.5770 N   0  0  0  0  0  0  0  0  0  0  0  0
   44.7050   33.8880   41.4230 N   0  0  0  0  0  0  0  0  0  0  0  0
   49.3600   35.1440   41.9740 C   0  0  0  0  0  0  0  0  0  0  0  0
   47.9740   35.4580   41.8370 C   0  0  0  0  0  0  0  0  0  0  0  0
   47.0750   34.4520   42.1500 C   0  0  0  0  0  0  0  0  0  0  0  0
   47.5410   33.2420   42.5640 N   0  0  0  0  0  0  0  0  0  0  0  0
   48.8640   32.9800   42.6830 C   0  0  0  0  0  0  0  0  0  0  0  0
   49.7440   33.9340   42.3860 N   0  0  0  0  0  0  0  0  0  0  0  0
   42.3440   33.7290   39.6290 N   0  0  0  0  0  0  0  0  0  0  0  0
   42.2340   33.9020   41.0630 C   0  0  2  0  0  0  0  0  0  0  0  0
   41.1710   34.8940   41.4440 C   0  0  0  0  0  0  0  0  0  0  0  0
   40.3430   35.3430   40.3590 N   0  0  0  0  0  0  0  0  0  0  0  0
   41.0210   35.6150   39.1310 C   0  0  0  0  0  0  0  0  0  0  0  0
   42.4380   35.0900   39.0850 C   0  0  0  0  0  0  0  0  0  0  0  0
   45.3273   36.4862   43.2375 H   0  0  0  0  0  0  0  0  0  0  0  0
   42.7206   36.1524   42.6235 H   0  0  0  0  0  0  0  0  0  0  0  0
   50.1177   35.9057   41.7380 H   0  0  0  0  0  0  0  0  0  0  0  0
   47.6370   36.4493   41.4997 H   0  0  0  0  0  0  0  0  0  0  0  0
   49.2076   31.9912   43.0209 H   0  0  0  0  0  0  0  0  0  0  0  0
   43.1875   33.1867   39.3939 H   0  0  0  0  0  0  0  0  0  0  0  0
   41.9665   32.9234   41.4882 H   0  0  0  0  0  0  0  0  0  0  0  0
   40.5213   34.4254   42.1979 H   0  0  0  0  0  0  0  0  0  0  0  0
   41.6999   35.7839   41.8160 H   0  0  0  0  0  0  0  0  0  0  0  0
   39.6386   34.6141   40.1764 H   0  0  0  0  0  0  0  0  0  0  0  0
   40.4528   35.1509   38.3114 H   0  0  0  0  0  0  0  0  0  0  0  0
   41.0823   36.7091   39.0354 H   0  0  0  0  0  0  0  0  0  0  0  0
   42.8119   35.0703   38.0507 H   0  0  0  0  0  0  0  0  0  0  0  0
   43.1363   35.7207   39.6546 H   0  0  0  0  0  0  0  0  0  0  0  0
  1  8  1  0
  1  2  1  0
  3  2  2  0
  4  3  1  0
  5  4  1  0
  5  1  2  0
  6 11  2  0
  7  6  1  0
  7  8  2  0
  8  9  1  0
  9 10  2  0
 11 10  1  0
 12 13  1  0
 13 14  1  0
 13  4  1  0
 15 14  1  0
 16 15  1  0
 17 16  1  0
 17 12  1  0
  2 18  1  0
  3 19  1  0
  6 20  1  0
  7 21  1  0
 10 22  1  0
 12 23  1  0
 13 24  1  1
 14 25  1  0
 14 26  1  0
 15 27  1  0
 16 28  1  0
 16 29  1  0
 17 30  1  0
 17 31  1  0
M  ISO  8  18  14  19  14  20  14  21  14  22  14  23   5  24  13  25  13
M  ISO  6  26  13  27   5  28  13  29  13  30  13  31  13
M  END
>  <minimizedAffinity>  (1) 
-4.54830408

>  <minimizedRMSD>  (1) 
6.20602846

$$$$
