
     RDKit          3D

 30 31  0  0  0  0  0  0  0  0999 V2000
   46.7610   35.0510   42.7060 C   0  0  0  0  0  0  0  0  0  0  0  0
   47.0020   33.9560   43.5460 C   0  0  0  0  0  0  0  0  0  0  0  0
   46.1040   33.7170   44.5920 C   0  0  0  0  0  0  0  0  0  0  0  0
   45.0470   34.5440   44.7510 N   0  0  0  0  0  0  0  0  0  0  0  0
   44.8440   35.5940   43.9200 C   0  0  0  0  0  0  0  0  0  0  0  0
   45.7020   35.8470   42.8960 N   0  0  0  0  0  0  0  0  0  0  0  0
   46.3400   32.6200   45.4370 N   0  0  0  0  0  0  0  0  0  0  0  0
   46.0320   31.2790   45.0270 C   0  0  0  0  0  0  0  0  0  0  0  0
   46.0590   30.2580   46.0800 C   0  0  0  0  0  0  0  0  0  0  0  0
   46.4650   30.5750   47.3810 N   0  0  0  0  0  0  0  0  0  0  0  0
   46.6920   31.8890   47.7730 C   0  0  0  0  0  0  0  0  0  0  0  0
   46.8990   32.9130   46.7120 C   0  0  0  0  0  0  0  0  0  0  0  0
   48.1110   33.1860   43.2840 O   0  0  0  0  0  0  0  0  0  0  0  0
   50.5850   32.8350   42.4280 O   0  0  0  0  0  0  0  0  0  0  0  0
   49.4740   33.8350   42.4650 P   0  0  0  0  0  0  0  0  0  0  0  0
   49.0880   34.2290   40.8660 O   0  0  0  0  0  0  0  0  0  0  0  0
   50.0120   35.2370   43.2450 O   0  0  0  0  0  0  0  0  0  0  0  0
   47.4532   35.2599   41.8770 H   0  0  0  0  0  0  0  0  0  0  0  0
   43.9747   36.2499   44.0753 H   0  0  0  0  0  0  0  0  0  0  0  0
   45.0222   31.2849   44.5909 H   0  0  0  0  0  0  0  0  0  0  0  0
   46.8277   30.9963   44.3221 H   0  0  0  0  0  0  0  0  0  0  0  0
   45.0353   29.8634   46.1593 H   0  0  0  0  0  0  0  0  0  0  0  0
   46.8533   29.5784   45.7376 H   0  0  0  0  0  0  0  0  0  0  0  0
   45.7376   30.2061   48.0100 H   0  0  0  0  0  0  0  0  0  0  0  0
   45.8232   32.2067   48.3681 H   0  0  0  0  0  0  0  0  0  0  0  0
   47.6524   31.8522   48.3080 H   0  0  0  0  0  0  0  0  0  0  0  0
   47.9831   33.0453   46.5805 H   0  0  0  0  0  0  0  0  0  0  0  0
   46.3719   33.8119   47.0644 H   0  0  0  0  0  0  0  0  0  0  0  0
   48.3952   34.9362   40.8584 H   0  0  0  0  0  0  0  0  0  0  0  0
   49.9628   35.1087   44.2254 H   0  0  0  0  0  0  0  0  0  0  0  0
  1  6  2  0
  1  2  1  0
  2  3  2  0
  3  4  1  0
  3  7  1  0
  5  4  2  0
  6  5  1  0
  7 12  1  0
  8  7  1  0
  8  9  1  0
  9 10  1  0
 10 11  1  0
 12 11  1  0
 13  2  1  0
 14 15  2  0
 15 17  1  0
 15 13  1  0
 16 15  1  0
  1 18  1  0
  5 19  1  0
  8 20  1  0
  8 21  1  0
  9 22  1  0
  9 23  1  0
 10 24  1  0
 11 25  1  0
 11 26  1  0
 12 27  1  0
 12 28  1  0
 16 29  1  0
 17 30  1  0
M  ISO  8  18  14  19  14  20  13  21  13  22  13  23  13  24   5  25  13
M  ISO  5  26  13  27  13  28  13  29   3  30   3
M  END
>  <minimizedAffinity>  (1) 
-5.10904455

>  <minimizedRMSD>  (1) 
0.78990519

$$$$
