
     RDKit          3D

 49 53  0  0  0  0  0  0  0  0999 V2000
   44.7050   35.8650   43.3730 Cl  0  0  0  0  0  0  0  0  0  0  0  0
   45.4840   34.6340   44.3130 C   0  0  0  0  0  0  0  0  0  0  0  0
   46.5430   33.9210   43.8010 C   0  0  0  0  0  0  0  0  0  0  0  0
   47.0910   32.9650   44.6340 C   0  0  0  0  0  0  0  0  0  0  0  0
   46.6550   32.6870   45.9070 C   0  0  0  0  0  0  0  0  0  0  0  0
   45.5950   33.4160   46.3890 C   0  0  0  0  0  0  0  0  0  0  0  0
   45.0640   33.0400   48.0140 Cl  0  0  0  0  0  0  0  0  0  0  0  0
   45.0170   34.3780   45.6030 C   0  0  0  0  0  0  0  0  0  0  0  0
   47.3680   31.6310   46.6330 C   0  0  0  0  0  0  0  0  0  0  0  0
   47.4900   30.3500   46.1650 C   0  0  0  0  0  0  0  0  0  0  0  0
   48.1540   29.3400   46.8280 C   0  0  0  0  0  0  0  0  0  0  0  0
   48.7440   29.6250   48.0500 C   0  0  0  0  0  0  0  0  0  0  0  0
   49.3890   28.6440   48.6910 N   0  0  0  0  0  0  0  0  0  0  0  0
   49.9930   28.8160   49.8770 C   0  0  0  0  0  0  0  0  0  0  0  0
   49.9130   30.1020   50.4230 C   0  0  0  0  0  0  0  0  0  0  0  0
   49.2570   31.0950   49.7660 C   0  0  0  0  0  0  0  0  0  0  0  0
   48.6470   30.8880   48.5520 C   0  0  0  0  0  0  0  0  0  0  0  0
   47.9730   31.8850   47.8650 C   0  0  0  0  0  0  0  0  0  0  0  0
   48.5740   35.2550   41.0790 C   0  0  0  0  0  0  0  0  0  0  0  0
   48.0530   34.6350   39.9580 C   0  0  0  0  0  0  0  0  0  0  0  0
   46.9780   33.7320   40.1150 C   0  0  0  0  0  0  0  0  0  0  0  0
   46.5430   33.5500   41.3770 N   0  0  0  0  0  0  0  0  0  0  0  0
   47.0630   34.1630   42.4490 C   0  0  0  0  0  0  0  0  0  0  0  0
   48.0790   35.0170   42.3050 N   0  0  0  0  0  0  0  0  0  0  0  0
   46.3110   33.0030   39.1150 N   0  0  0  0  0  0  0  0  0  0  0  0
   46.8800   32.7100   37.8010 C   0  0  0  0  0  0  0  0  0  0  0  0
   45.9620   33.3150   36.7700 C   0  0  0  0  0  0  0  0  0  0  0  0
   44.5890   32.8830   36.9220 N   0  0  0  0  0  0  0  0  0  0  0  0
   44.1230   33.2310   38.2380 C   0  0  0  0  0  0  0  0  0  0  0  0
   44.9770   32.4460   39.2390 C   0  0  0  0  0  0  0  0  0  0  0  0
   47.9408   32.3821   44.2491 H   0  0  0  0  0  0  0  0  0  0  0  0
   44.1696   34.9590   45.9958 H   0  0  0  0  0  0  0  0  0  0  0  0
   47.0276   30.1110   45.1959 H   0  0  0  0  0  0  0  0  0  0  0  0
   48.2144   28.3298   46.3969 H   0  0  0  0  0  0  0  0  0  0  0  0
   50.5188   27.9963   50.3886 H   0  0  0  0  0  0  0  0  0  0  0  0
   50.3858   30.3115   51.3938 H   0  0  0  0  0  0  0  0  0  0  0  0
   49.2130   32.0958   50.2204 H   0  0  0  0  0  0  0  0  0  0  0  0
   47.9137   32.8944   48.2982 H   0  0  0  0  0  0  0  0  0  0  0  0
   49.4120   35.9583   40.9643 H   0  0  0  0  0  0  0  0  0  0  0  0
   48.4687   34.8415   38.9607 H   0  0  0  0  0  0  0  0  0  0  0  0
   47.8834   33.1532   37.7180 H   0  0  0  0  0  0  0  0  0  0  0  0
   46.9732   31.6244   37.6503 H   0  0  0  0  0  0  0  0  0  0  0  0
   46.3144   33.0221   35.7700 H   0  0  0  0  0  0  0  0  0  0  0  0
   45.9837   34.4064   36.9056 H   0  0  0  0  0  0  0  0  0  0  0  0
   44.0018   33.3482   36.2151 H   0  0  0  0  0  0  0  0  0  0  0  0
   44.2410   34.3115   38.4068 H   0  0  0  0  0  0  0  0  0  0  0  0
   43.0572   32.9851   38.3543 H   0  0  0  0  0  0  0  0  0  0  0  0
   44.9806   31.3751   38.9875 H   0  0  0  0  0  0  0  0  0  0  0  0
   44.5895   32.5280   40.2652 H   0  0  0  0  0  0  0  0  0  0  0  0
  1  2  1  0
  2  8  2  0
  3  2  1  0
  3  4  2  0
  4  5  1  0
  5  6  2  0
  5  9  1  0
  6  7  1  0
  8  6  1  0
  9 18  1  0
 10  9  2  0
 10 11  1  0
 11 12  2  0
 12 17  1  0
 12 13  1  0
 13 14  2  0
 14 15  1  0
 16 15  2  0
 17 16  1  0
 18 17  2  0
 19 24  2  0
 20 21  2  0
 20 19  1  0
 21 22  1  0
 22 23  2  0
 23  3  1  0
 24 23  1  0
 25 30  1  0
 25 21  1  0
 26 25  1  0
 27 28  1  0
 27 26  1  0
 28 29  1  0
 29 30  1  0
  4 31  1  0
  8 32  1  0
 10 33  1  0
 11 34  1  0
 14 35  1  0
 15 36  1  0
 16 37  1  0
 18 38  1  0
 19 39  1  0
 20 40  1  0
 26 41  1  0
 26 42  1  0
 27 43  1  0
 27 44  1  0
 28 45  1  0
 29 46  1  0
 29 47  1  0
 30 48  1  0
 30 49  1  0
M  END
>  <minimizedAffinity>  (1) 
-7.31654119

>  <minimizedRMSD>  (1) 
0.297897011

$$$$
