
     RDKit          3D

 41 44  0  0  1  0  0  0  0  0999 V2000
   48.3860   31.0860   48.4990 C   0  0  1  0  0  0  0  0  0  0  0  0
   47.0030   31.0190   49.0170 C   0  0  0  0  0  0  0  0  0  0  0  0
   47.5990   32.3000   48.3080 C   0  0  2  0  0  0  0  0  0  0  0  0
   50.7420   29.9930   51.2200 C   0  0  0  0  0  0  0  0  0  0  0  0
   49.7290   29.8910   50.2640 C   0  0  0  0  0  0  0  0  0  0  0  0
   49.4610   31.0560   49.5460 C   0  0  0  0  0  0  0  0  0  0  0  0
   50.1530   32.1920   49.7870 N   0  0  0  0  0  0  0  0  0  0  0  0
   51.1330   32.2280   50.7350 C   0  0  0  0  0  0  0  0  0  0  0  0
   51.4180   31.1160   51.4480 N   0  0  0  0  0  0  0  0  0  0  0  0
   51.0730   28.7650   52.0090 C   0  0  0  0  0  0  0  0  0  0  0  0
   50.2240   28.7130   53.0880 F   0  0  0  0  0  0  0  0  0  0  0  0
   52.3700   28.8900   52.4590 F   0  0  0  0  0  0  0  0  0  0  0  0
   50.8690   27.6230   51.2610 F   0  0  0  0  0  0  0  0  0  0  0  0
   47.0250   32.4960   46.9450 C   0  0  0  0  0  0  0  0  0  0  0  0
   47.1800   31.6640   45.8380 C   0  0  0  0  0  0  0  0  0  0  0  0
   46.4400   32.3170   44.8690 C   0  0  0  0  0  0  0  0  0  0  0  0
   45.8800   33.4750   45.3890 C   0  0  0  0  0  0  0  0  0  0  0  0
   46.2780   33.5090   46.6300 O   0  0  0  0  0  0  0  0  0  0  0  0
   45.0590   34.3750   44.6570 N   0  0  0  0  0  0  0  0  0  0  0  0
   44.3720   35.5990   44.9950 C   0  0  0  0  0  0  0  0  0  0  0  0
   44.9090   36.7170   44.1320 C   0  0  0  0  0  0  0  0  0  0  0  0
   45.0070   36.3940   42.7320 N   0  0  0  0  0  0  0  0  0  0  0  0
   45.6240   35.1160   42.4800 C   0  0  0  0  0  0  0  0  0  0  0  0
   44.7710   34.0970   43.2430 C   0  0  0  0  0  0  0  0  0  0  0  0
   48.9754   30.4904   47.7864 H   0  0  0  0  0  0  0  0  0  0  0  0
   46.2463   30.4017   48.5107 H   0  0  0  0  0  0  0  0  0  0  0  0
   46.5246   30.7934   49.9815 H   0  0  0  0  0  0  0  0  0  0  0  0
   47.7556   33.3631   48.5432 H   0  0  0  0  0  0  0  0  0  0  0  0
   49.1793   28.9544   50.0891 H   0  0  0  0  0  0  0  0  0  0  0  0
   51.6894   33.1590   50.9185 H   0  0  0  0  0  0  0  0  0  0  0  0
   47.7474   30.7252   45.7556 H   0  0  0  0  0  0  0  0  0  0  0  0
   46.3135   31.9680   43.8335 H   0  0  0  0  0  0  0  0  0  0  0  0
   43.2936   35.4789   44.8146 H   0  0  0  0  0  0  0  0  0  0  0  0
   44.5353   35.8367   46.0565 H   0  0  0  0  0  0  0  0  0  0  0  0
   44.2416   37.5848   44.2388 H   0  0  0  0  0  0  0  0  0  0  0  0
   45.9330   36.9177   44.4800 H   0  0  0  0  0  0  0  0  0  0  0  0
   44.0577   36.3824   42.3326 H   0  0  0  0  0  0  0  0  0  0  0  0
   45.6201   34.8921   41.4030 H   0  0  0  0  0  0  0  0  0  0  0  0
   46.6745   35.0967   42.8056 H   0  0  0  0  0  0  0  0  0  0  0  0
   43.7024   34.2422   43.0264 H   0  0  0  0  0  0  0  0  0  0  0  0
   45.0014   33.0589   42.9616 H   0  0  0  0  0  0  0  0  0  0  0  0
  1  2  1  0
  1  6  1  0
  3  1  1  0
  3  2  1  0
  4  9  2  0
  4 10  1  0
  5  4  1  0
  6  7  1  0
  6  5  2  0
  7  8  2  0
  8  9  1  0
 10 12  1  0
 10 11  1  0
 13 10  1  0
 14  3  1  0
 15 14  2  0
 16 17  2  0
 16 15  1  0
 17 18  1  0
 18 14  1  0
 19 20  1  0
 19 17  1  0
 21 20  1  0
 22 21  1  0
 23 22  1  0
 23 24  1  0
 24 19  1  0
  1 25  1  6
  2 26  1  0
  2 27  1  0
  3 28  1  1
  5 29  1  0
  8 30  1  0
 15 31  1  0
 16 32  1  0
 20 33  1  0
 20 34  1  0
 21 35  1  0
 21 36  1  0
 22 37  1  0
 23 38  1  0
 23 39  1  0
 24 40  1  0
 24 41  1  0
M  ISO  8  25  13  26  13  27  13  28  13  29  14  30  14  31  14  32  14
M  ISO  8  33  13  34  13  35  13  36  13  37   5  38  13  39  13  40  13
M  ISO  1  41  13
M  END
>  <minimizedAffinity>  (1) 
-6.17785788

>  <minimizedRMSD>  (1) 
6.22856522

$$$$
