
     RDKit          3D

 51 53  0  0  0  0  0  0  0  0999 V2000
   42.7830   31.5520   42.6370 N   0  0  0  0  0  0  0  0  0  0  0  0
   43.1520   32.5410   41.6570 C   0  0  0  0  0  0  0  0  0  0  0  0
   43.6620   34.9840   41.8840 C   0  0  0  0  0  0  0  0  0  0  0  0
   43.9800   33.6620   42.1990 C   0  0  0  0  0  0  0  0  0  0  0  0
   45.0540   33.4240   43.0060 C   0  0  0  0  0  0  0  0  0  0  0  0
   45.8050   34.4540   43.4970 C   0  0  0  0  0  0  0  0  0  0  0  0
   45.5160   35.7620   43.2060 C   0  0  0  0  0  0  0  0  0  0  0  0
   44.4190   35.9770   42.3830 C   0  0  0  0  0  0  0  0  0  0  0  0
   40.1890   35.6680   40.5520 C   0  0  0  0  0  0  0  0  0  0  0  0
   41.2360   35.4980   41.4850 C   0  0  0  0  0  0  0  0  0  0  0  0
   42.5060   35.1830   41.0160 C   0  0  0  0  0  0  0  0  0  0  0  0
   42.6660   35.0580   39.6800 N   0  0  0  0  0  0  0  0  0  0  0  0
   41.6550   35.2240   38.7990 C   0  0  0  0  0  0  0  0  0  0  0  0
   40.4310   35.5270   39.2480 N   0  0  0  0  0  0  0  0  0  0  0  0
   41.1370   31.0940   42.5150 S   0  0  0  0  0  0  0  0  0  0  0  0
   40.2440   32.3030   42.4260 O   0  0  0  0  0  0  0  0  0  0  0  0
   40.7380   30.2410   43.6680 O   0  0  0  0  0  0  0  0  0  0  0  0
   40.9810   30.1920   41.1150 O   0  0  0  0  0  0  0  0  0  0  0  0
   40.9790   28.8470   41.4420 C   0  0  0  0  0  0  0  0  0  0  0  0
   40.0110   28.1250   40.4930 C   0  0  0  0  0  0  0  0  0  0  0  0
   38.6820   28.5150   40.5780 N   0  0  0  0  0  0  0  0  0  0  0  0
   37.9370   28.8740   39.4540 C   0  0  0  0  0  0  0  0  0  0  0  0
   36.4560   28.8210   39.8250 C   0  0  0  0  0  0  0  0  0  0  0  0
   36.1300   29.7660   40.8740 N   0  0  0  0  0  0  0  0  0  0  0  0
   37.2090   29.9180   41.8270 C   0  0  0  0  0  0  0  0  0  0  0  0
   38.0860   28.6590   41.8530 C   0  0  0  0  0  0  0  0  0  0  0  0
   43.3698   30.7165   42.5009 H   0  0  0  0  0  0  0  0  0  0  0  0
   42.2307   32.9666   41.2326 H   0  0  0  0  0  0  0  0  0  0  0  0
   43.7694   32.0266   40.9058 H   0  0  0  0  0  0  0  0  0  0  0  0
   45.3189   32.3882   43.2649 H   0  0  0  0  0  0  0  0  0  0  0  0
   46.6655   34.2275   44.1438 H   0  0  0  0  0  0  0  0  0  0  0  0
   46.1184   36.5930   43.6017 H   0  0  0  0  0  0  0  0  0  0  0  0
   44.1553   37.0135   42.1257 H   0  0  0  0  0  0  0  0  0  0  0  0
   39.1756   35.9163   40.9005 H   0  0  0  0  0  0  0  0  0  0  0  0
   41.0496   35.6128   42.5630 H   0  0  0  0  0  0  0  0  0  0  0  0
   41.8367   35.1109   37.7200 H   0  0  0  0  0  0  0  0  0  0  0  0
   40.0155   32.6124   43.3382 H   0  0  0  0  0  0  0  0  0  0  0  0
   40.9558   30.7067   44.5140 H   0  0  0  0  0  0  0  0  0  0  0  0
   41.9919   28.4339   41.3261 H   0  0  0  0  0  0  0  0  0  0  0  0
   40.6613   28.7098   42.4861 H   0  0  0  0  0  0  0  0  0  0  0  0
   40.0620   27.0484   40.7130 H   0  0  0  0  0  0  0  0  0  0  0  0
   40.3362   28.3883   39.4757 H   0  0  0  0  0  0  0  0  0  0  0  0
   38.1403   28.1711   38.6326 H   0  0  0  0  0  0  0  0  0  0  0  0
   38.2100   29.8877   39.1255 H   0  0  0  0  0  0  0  0  0  0  0  0
   35.8569   29.0580   38.9334 H   0  0  0  0  0  0  0  0  0  0  0  0
   36.2320   27.8094   40.1943 H   0  0  0  0  0  0  0  0  0  0  0  0
   35.9338   30.6821   40.4461 H   0  0  0  0  0  0  0  0  0  0  0  0
   37.8257   30.7826   41.5404 H   0  0  0  0  0  0  0  0  0  0  0  0
   36.7798   30.0727   42.8279 H   0  0  0  0  0  0  0  0  0  0  0  0
   37.4673   27.7776   42.0776 H   0  0  0  0  0  0  0  0  0  0  0  0
   38.8605   28.7487   42.6289 H   0  0  0  0  0  0  0  0  0  0  0  0
  2  4  1  0
  2  1  1  0
  3  4  1  0
  3  8  2  0
  4  5  2  0
  5  6  1  0
  7  6  2  0
  8  7  1  0
  9 10  2  0
 11 10  1  0
 11  3  1  0
 12 11  2  0
 13 14  2  0
 13 12  1  0
 14  9  1  0
 15  1  1  0
 15 17  1  0
 16 15  1  0
 18 19  1  0
 18 15  1  0
 20 21  1  0
 20 19  1  0
 21 26  1  0
 22 23  1  0
 22 21  1  0
 23 24  1  0
 24 25  1  0
 25 26  1  0
  1 27  1  0
  2 28  1  0
  2 29  1  0
  5 30  1  0
  6 31  1  0
  7 32  1  0
  8 33  1  0
  9 34  1  0
 10 35  1  0
 13 36  1  0
 16 37  1  0
 17 38  1  0
 19 39  1  0
 19 40  1  0
 20 41  1  0
 20 42  1  0
 22 43  1  0
 22 44  1  0
 23 45  1  0
 23 46  1  0
 24 47  1  0
 25 48  1  0
 25 49  1  0
 26 50  1  0
 26 51  1  0
M  ISO  8  27   5  28   8  29   8  30  14  31  14  32  14  33  14  34  14
M  ISO  8  35  14  36  14  37   3  38   3  39   8  40   8  41   8  42   8
M  ISO  8  43  13  44  13  45  13  46  13  47   5  48  13  49  13  50  13
M  ISO  1  51  13
M  END
>  <minimizedAffinity>  (1) 
-5.4501195

>  <minimizedRMSD>  (1) 
2.30871701

$$$$
