
     RDKit          3D

 41 43  0  0  1  0  0  0  0  0999 V2000
   44.8680   34.3760   41.4640 N   0  0  0  0  0  0  0  0  0  0  0  0
   45.9410   33.6800   40.8080 C   0  0  1  0  0  0  0  0  0  0  0  0
   45.8010   33.5460   39.3370 C   0  0  0  0  0  0  0  0  0  0  0  0
   44.5040   33.3020   38.8850 N   0  0  0  0  0  0  0  0  0  0  0  0
   43.4170   33.8280   39.5890 C   0  0  0  0  0  0  0  0  0  0  0  0
   43.8710   34.8870   40.5780 C   0  0  0  0  0  0  0  0  0  0  0  0
   44.5850   35.7350   43.3900 C   0  0  0  0  0  0  0  0  0  0  0  0
   44.9150   34.4770   42.8650 C   0  0  0  0  0  0  0  0  0  0  0  0
   45.2530   33.4530   43.7530 C   0  0  0  0  0  0  0  0  0  0  0  0
   45.2530   33.7050   45.0880 N   0  0  0  0  0  0  0  0  0  0  0  0
   44.9330   34.9150   45.5670 C   0  0  0  0  0  0  0  0  0  0  0  0
   44.6070   35.9110   44.7470 N   0  0  0  0  0  0  0  0  0  0  0  0
   47.2350   34.4320   41.0710 C   0  0  0  0  0  0  0  0  0  0  0  0
   48.2000   33.6750   41.8040 N   0  0  0  0  0  0  0  0  0  0  0  0
   48.8360   34.4380   42.8410 C   0  0  0  0  0  0  0  0  0  0  0  0
   50.3160   34.6400   42.6110 C   0  0  0  0  0  0  0  0  0  0  0  0
   51.0190   33.3920   42.5230 N   0  0  0  0  0  0  0  0  0  0  0  0
   50.3510   32.5120   41.6080 C   0  0  0  0  0  0  0  0  0  0  0  0
   49.2010   33.1850   40.8940 C   0  0  0  0  0  0  0  0  0  0  0  0
   45.9287   32.6613   41.2229 H   0  0  0  0  0  0  0  0  0  0  0  0
   46.1526   34.4802   38.8749 H   0  0  0  0  0  0  0  0  0  0  0  0
   46.3951   32.6651   39.0521 H   0  0  0  0  0  0  0  0  0  0  0  0
   44.4468   33.6728   37.9258 H   0  0  0  0  0  0  0  0  0  0  0  0
   42.7115   34.2801   38.8763 H   0  0  0  0  0  0  0  0  0  0  0  0
   42.9323   33.0127   40.1461 H   0  0  0  0  0  0  0  0  0  0  0  0
   44.2881   35.7403   40.0231 H   0  0  0  0  0  0  0  0  0  0  0  0
   43.0020   35.1991   41.1759 H   0  0  0  0  0  0  0  0  0  0  0  0
   44.3132   36.5660   42.7225 H   0  0  0  0  0  0  0  0  0  0  0  0
   45.5162   32.4539   43.3756 H   0  0  0  0  0  0  0  0  0  0  0  0
   44.9399   35.0873   46.6534 H   0  0  0  0  0  0  0  0  0  0  0  0
   47.6762   34.7131   40.1034 H   0  0  0  0  0  0  0  0  0  0  0  0
   46.9789   35.3077   41.6855 H   0  0  0  0  0  0  0  0  0  0  0  0
   48.3530   35.4248   42.8949 H   0  0  0  0  0  0  0  0  0  0  0  0
   48.7257   33.8714   43.7774 H   0  0  0  0  0  0  0  0  0  0  0  0
   50.4575   35.1949   41.6718 H   0  0  0  0  0  0  0  0  0  0  0  0
   50.7208   35.1997   43.4671 H   0  0  0  0  0  0  0  0  0  0  0  0
   51.9785   33.5644   42.1905 H   0  0  0  0  0  0  0  0  0  0  0  0
   51.0773   32.1649   40.8583 H   0  0  0  0  0  0  0  0  0  0  0  0
   49.9393   31.6742   42.1898 H   0  0  0  0  0  0  0  0  0  0  0  0
   49.5938   34.0318   40.3121 H   0  0  0  0  0  0  0  0  0  0  0  0
   48.7251   32.4352   40.2450 H   0  0  0  0  0  0  0  0  0  0  0  0
  1  8  1  0
  2 13  1  0
  2  1  1  0
  3  2  1  0
  4  3  1  0
  4  5  1  0
  5  6  1  0
  6  1  1  0
  7 12  2  0
  8  7  1  0
  8  9  2  0
  9 10  1  0
 10 11  2  0
 12 11  1  0
 13 14  1  0
 14 15  1  0
 16 15  1  0
 17 16  1  0
 18 17  1  0
 19 18  1  0
 19 14  1  0
  2 20  1  1
  3 21  1  0
  3 22  1  0
  4 23  1  0
  5 24  1  0
  5 25  1  0
  6 26  1  0
  6 27  1  0
  7 28  1  0
  9 29  1  0
 11 30  1  0
 13 31  1  0
 13 32  1  0
 15 33  1  0
 15 34  1  0
 16 35  1  0
 16 36  1  0
 17 37  1  0
 18 38  1  0
 18 39  1  0
 19 40  1  0
 19 41  1  0
M  ISO  8  20  13  21  13  22  13  23   5  24  13  25  13  26  13  27  13
M  ISO  8  28  14  29  14  30  14  31   8  32   8  33  13  34  13  35  13
M  ISO  6  36  13  37   5  38  13  39  13  40  13  41  13
M  END
>  <minimizedAffinity>  (1) 
-4.84161615

>  <minimizedRMSD>  (1) 
1.5429318

$$$$
