
     RDKit          3D

 50 53  0  0  1  0  0  0  0  0999 V2000
   44.5870   35.5620   44.5650 C   0  0  0  0  0  0  0  0  0  0  0  0
   45.2530   35.5530   43.3190 C   0  0  0  0  0  0  0  0  0  0  0  0
   46.3390   34.6480   43.1520 C   0  0  0  0  0  0  0  0  0  0  0  0
   46.6780   33.8460   44.1890 N   0  0  0  0  0  0  0  0  0  0  0  0
   46.0240   33.8800   45.3580 C   0  0  0  0  0  0  0  0  0  0  0  0
   44.9720   34.7390   45.5560 N   0  0  0  0  0  0  0  0  0  0  0  0
   46.4390   32.9770   46.4640 C   0  0  2  0  0  0  0  0  0  0  0  0
   46.9650   31.7340   45.7770 C   0  0  0  0  0  0  0  0  0  0  0  0
   46.0880   30.5560   45.8150 C   0  0  0  0  0  0  0  0  0  0  0  0
   45.8100   30.3100   47.3020 C   0  0  0  0  0  0  0  0  0  0  0  0
   45.0190   31.3920   47.8770 C   0  0  0  0  0  0  0  0  0  0  0  0
   45.3850   32.7480   47.4110 C   0  0  0  0  0  0  0  0  0  0  0  0
   44.6800   33.8840   47.9040 N   0  0  0  0  0  0  0  0  0  0  0  0
   47.0350   34.6190   41.8820 C   0  0  0  0  0  0  0  0  0  0  0  0
   48.1270   35.4330   41.7340 C   0  0  0  0  0  0  0  0  0  0  0  0
   48.7570   35.3540   40.4710 C   0  0  0  0  0  0  0  0  0  0  0  0
   48.2220   34.4890   39.5440 C   0  0  0  0  0  0  0  0  0  0  0  0
   47.1430   33.6850   39.6920 C   0  0  0  0  0  0  0  0  0  0  0  0
   46.5540   33.7830   40.9260 N   0  0  0  0  0  0  0  0  0  0  0  0
   46.6590   32.8440   38.7300 O   0  0  0  0  0  0  0  0  0  0  0  0
   45.5040   32.5810   36.7740 N   0  0  0  0  0  0  0  0  0  0  0  0
   46.7010   33.1380   37.3730 C   0  0  2  0  0  0  0  0  0  0  0  0
   47.9550   32.5220   36.7720 C   0  0  0  0  0  0  0  0  0  0  0  0
   47.9540   32.9100   35.3680 N   0  0  0  0  0  0  0  0  0  0  0  0
   46.8870   32.1410   34.7630 C   0  0  0  0  0  0  0  0  0  0  0  0
   45.5480   32.4270   35.3600 C   0  0  0  0  0  0  0  0  0  0  0  0
   43.7440   36.2501   44.7261 H   0  0  0  0  0  0  0  0  0  0  0  0
   44.9424   36.2236   42.5043 H   0  0  0  0  0  0  0  0  0  0  0  0
   47.2237   33.4164   47.0974 H   0  0  0  0  0  0  0  0  0  0  0  0
   47.9160   31.4610   46.2577 H   0  0  0  0  0  0  0  0  0  0  0  0
   47.0575   32.0001   44.7137 H   0  0  0  0  0  0  0  0  0  0  0  0
   45.1506   30.7554   45.2751 H   0  0  0  0  0  0  0  0  0  0  0  0
   46.5517   29.6825   45.3334 H   0  0  0  0  0  0  0  0  0  0  0  0
   45.2585   29.3647   47.4123 H   0  0  0  0  0  0  0  0  0  0  0  0
   46.7722   30.2620   47.8328 H   0  0  0  0  0  0  0  0  0  0  0  0
   44.2114   31.2136   48.6022 H   0  0  0  0  0  0  0  0  0  0  0  0
   43.9170   33.7610   48.5849 H   0  0  0  0  0  0  0  0  0  0  0  0
   44.9334   34.8281   47.5795 H   0  0  0  0  0  0  0  0  0  0  0  0
   48.4854   36.0961   42.5352 H   0  0  0  0  0  0  0  0  0  0  0  0
   49.6433   35.9623   40.2375 H   0  0  0  0  0  0  0  0  0  0  0  0
   48.7302   34.4459   38.5694 H   0  0  0  0  0  0  0  0  0  0  0  0
   45.3417   31.6530   37.1905 H   0  0  0  0  0  0  0  0  0  0  0  0
   46.7350   34.2222   37.1904 H   0  0  0  0  0  0  0  0  0  0  0  0
   48.8521   32.9106   37.2762 H   0  0  0  0  0  0  0  0  0  0  0  0
   47.9653   31.4284   36.8898 H   0  0  0  0  0  0  0  0  0  0  0  0
   47.7712   33.9191   35.2722 H   0  0  0  0  0  0  0  0  0  0  0  0
   47.1080   31.0715   34.8948 H   0  0  0  0  0  0  0  0  0  0  0  0
   46.8400   32.4238   33.7010 H   0  0  0  0  0  0  0  0  0  0  0  0
   45.1735   33.3584   34.9104 H   0  0  0  0  0  0  0  0  0  0  0  0
   44.9368   31.5382   35.1444 H   0  0  0  0  0  0  0  0  0  0  0  0
  1  6  2  0
  2  1  1  0
  3  2  2  0
  3  4  1  0
  4  5  2  0
  5  6  1  0
  5  7  1  0
  7 12  1  0
  8  9  1  0
  8  7  1  0
  9 10  1  0
 10 11  1  0
 12 11  2  0
 12 13  1  0
 14  3  1  0
 15 14  2  0
 16 15  1  0
 17 18  1  0
 17 16  2  0
 18 19  2  0
 19 14  1  0
 20 18  1  0
 21 22  1  0
 22 20  1  0
 23 22  1  0
 24 23  1  0
 25 26  1  0
 25 24  1  0
 26 21  1  0
  1 27  1  0
  2 28  1  0
  7 29  1  1
  8 30  1  0
  8 31  1  0
  9 32  1  0
  9 33  1  0
 10 34  1  0
 10 35  1  0
 11 36  1  0
 13 37  1  0
 13 38  1  0
 15 39  1  0
 16 40  1  0
 17 41  1  0
 21 42  1  0
 22 43  1  1
 23 44  1  0
 23 45  1  0
 24 46  1  0
 25 47  1  0
 25 48  1  0
 26 49  1  0
 26 50  1  0
M  ISO  8  27  14  28  14  29  13  30  13  31  13  32  13  33  13  34  13
M  ISO  8  35  13  36  13  39  14  40  14  41  14  42   5  43  13  44  13
M  ISO  6  45  13  46   5  47  13  48  13  49  13  50  13
M  END
>  <minimizedAffinity>  (1) 
-7.46533966

>  <minimizedRMSD>  (1) 
0.979532421

$$$$
