
     RDKit          3D

 37 39  0  0  0  0  0  0  0  0999 V2000
   49.0040   32.7980   41.5510 C   0  0  0  0  0  0  0  0  0  0  0  0
   48.6900   32.2880   40.2490 C   0  0  0  0  0  0  0  0  0  0  0  0
   49.6560   31.7650   39.4820 C   0  0  0  0  0  0  0  0  0  0  0  0
   51.0190   31.7240   39.9960 C   0  0  0  0  0  0  0  0  0  0  0  0
   50.8610   32.4760   41.6420 S   0  0  0  0  0  0  0  0  0  0  0  0
   52.2110   31.3180   39.6080 N   0  0  0  0  0  0  0  0  0  0  0  0
   53.2590   30.7330   40.4210 C   0  0  0  0  0  0  0  0  0  0  0  0
   53.8810   29.6410   39.5580 C   0  0  0  0  0  0  0  0  0  0  0  0
   54.6470   30.3120   38.5370 N   0  0  0  0  0  0  0  0  0  0  0  0
   54.0060   31.4810   38.0100 C   0  0  0  0  0  0  0  0  0  0  0  0
   52.5040   31.4730   38.1810 C   0  0  0  0  0  0  0  0  0  0  0  0
   48.3040   33.4050   42.6350 C   0  0  0  0  0  0  0  0  0  0  0  0
   47.8980   34.8260   42.4590 C   0  0  0  0  0  0  0  0  0  0  0  0
   46.4420   34.9100   42.3200 C   0  0  0  0  0  0  0  0  0  0  0  0
   45.6340   35.4300   43.3230 C   0  0  0  0  0  0  0  0  0  0  0  0
   44.2660   35.4750   43.1020 C   0  0  0  0  0  0  0  0  0  0  0  0
   43.7830   35.0100   41.9170 N   0  0  0  0  0  0  0  0  0  0  0  0
   44.5920   34.5170   40.9730 C   0  0  0  0  0  0  0  0  0  0  0  0
   45.8980   34.4710   41.1790 N   0  0  0  0  0  0  0  0  0  0  0  0
   47.6548   32.3260   39.8790 H   0  0  0  0  0  0  0  0  0  0  0  0
   49.4241   31.3730   38.4807 H   0  0  0  0  0  0  0  0  0  0  0  0
   54.0114   31.4916   40.6828 H   0  0  0  0  0  0  0  0  0  0  0  0
   52.8663   30.3319   41.3670 H   0  0  0  0  0  0  0  0  0  0  0  0
   54.5375   29.0027   40.1676 H   0  0  0  0  0  0  0  0  0  0  0  0
   53.1081   28.9954   39.1154 H   0  0  0  0  0  0  0  0  0  0  0  0
   55.5523   30.5918   38.9409 H   0  0  0  0  0  0  0  0  0  0  0  0
   54.2340   31.5490   36.9360 H   0  0  0  0  0  0  0  0  0  0  0  0
   54.3915   32.3436   38.5733 H   0  0  0  0  0  0  0  0  0  0  0  0
   52.0816   32.4200   37.8140 H   0  0  0  0  0  0  0  0  0  0  0  0
   52.0588   30.6464   37.6078 H   0  0  0  0  0  0  0  0  0  0  0  0
   47.3911   32.8175   42.8124 H   0  0  0  0  0  0  0  0  0  0  0  0
   49.0179   33.4108   43.4718 H   0  0  0  0  0  0  0  0  0  0  0  0
   48.2157   35.4084   43.3364 H   0  0  0  0  0  0  0  0  0  0  0  0
   48.3743   35.2315   41.5542 H   0  0  0  0  0  0  0  0  0  0  0  0
   46.0671   35.7957   44.2657 H   0  0  0  0  0  0  0  0  0  0  0  0
   43.5859   35.8775   43.8672 H   0  0  0  0  0  0  0  0  0  0  0  0
   44.1715   34.1497   40.0252 H   0  0  0  0  0  0  0  0  0  0  0  0
  1  5  1  0
  1 12  1  0
  2  1  2  0
  3  4  2  0
  3  2  1  0
  4  5  1  0
  6  4  1  0
  6  7  1  0
  8  7  1  0
  9  8  1  0
 10 11  1  0
 10  9  1  0
 11  6  1  0
 13 12  1  0
 14 13  1  0
 14 15  2  0
 16 15  1  0
 17 16  2  0
 18 19  2  0
 18 17  1  0
 19 14  1  0
  2 20  1  0
  3 21  1  0
  7 22  1  0
  7 23  1  0
  8 24  1  0
  8 25  1  0
  9 26  1  0
 10 27  1  0
 10 28  1  0
 11 29  1  0
 11 30  1  0
 12 31  1  0
 12 32  1  0
 13 33  1  0
 13 34  1  0
 15 35  1  0
 16 36  1  0
 18 37  1  0
M  ISO  8  20  14  21  14  22  13  23  13  24  13  25  13  26   5  27  13
M  ISO  8  28  13  29  13  30  13  31   8  32   8  33   8  34   8  35  14
M  ISO  2  36  14  37  14
M  END
>  <minimizedAffinity>  (1) 
-4.08738089

>  <minimizedRMSD>  (1) 
1.35972977

$$$$
