
     RDKit          3D

 38 40  0  0  1  0  0  0  0  0999 V2000
   45.4180   34.0860   41.7640 N   0  0  0  0  0  0  0  0  0  0  0  0
   46.4710   33.5950   40.9490 C   0  0  1  0  0  0  0  0  0  0  0  0
   46.2390   33.7080   39.4790 C   0  0  0  0  0  0  0  0  0  0  0  0
   44.9350   33.4010   39.0560 N   0  0  0  0  0  0  0  0  0  0  0  0
   43.8770   33.8560   39.8780 C   0  0  0  0  0  0  0  0  0  0  0  0
   44.3680   34.7260   41.0220 C   0  0  0  0  0  0  0  0  0  0  0  0
   45.0580   34.9770   43.9530 C   0  0  0  0  0  0  0  0  0  0  0  0
   45.4810   33.9160   43.1580 C   0  0  0  0  0  0  0  0  0  0  0  0
   45.9310   32.7860   43.8130 C   0  0  0  0  0  0  0  0  0  0  0  0
   45.9520   32.7300   45.1680 N   0  0  0  0  0  0  0  0  0  0  0  0
   45.5280   33.7910   45.9110 C   0  0  0  0  0  0  0  0  0  0  0  0
   45.0880   34.8990   45.3020 N   0  0  0  0  0  0  0  0  0  0  0  0
   47.7730   34.1240   41.1760 N   0  0  0  0  0  0  0  0  0  0  0  0
   48.7700   33.2140   41.6480 C   0  0  0  0  0  0  0  0  0  0  0  0
   49.2550   33.6660   43.0100 C   0  0  0  0  0  0  0  0  0  0  0  0
   49.9480   34.9350   42.8910 N   0  0  0  0  0  0  0  0  0  0  0  0
   49.2650   35.8070   41.9650 C   0  0  0  0  0  0  0  0  0  0  0  0
   47.7900   35.3960   41.8470 C   0  0  0  0  0  0  0  0  0  0  0  0
   46.4483   32.5465   41.2810 H   0  0  0  0  0  0  0  0  0  0  0  0
   46.4603   34.7425   39.1777 H   0  0  0  0  0  0  0  0  0  0  0  0
   46.8973   32.9638   39.0070 H   0  0  0  0  0  0  0  0  0  0  0  0
   44.8044   33.8145   38.1217 H   0  0  0  0  0  0  0  0  0  0  0  0
   43.1782   34.4419   39.2629 H   0  0  0  0  0  0  0  0  0  0  0  0
   43.3863   32.9732   40.3137 H   0  0  0  0  0  0  0  0  0  0  0  0
   44.7479   35.6733   40.6117 H   0  0  0  0  0  0  0  0  0  0  0  0
   43.5240   34.9023   41.7051 H   0  0  0  0  0  0  0  0  0  0  0  0
   44.6921   35.8972   43.4741 H   0  0  0  0  0  0  0  0  0  0  0  0
   46.2766   31.9208   43.2283 H   0  0  0  0  0  0  0  0  0  0  0  0
   45.5473   33.7370   47.0095 H   0  0  0  0  0  0  0  0  0  0  0  0
   48.3387   32.2052   41.7276 H   0  0  0  0  0  0  0  0  0  0  0  0
   49.6146   33.1946   40.9436 H   0  0  0  0  0  0  0  0  0  0  0  0
   48.3934   33.7827   43.6838 H   0  0  0  0  0  0  0  0  0  0  0  0
   49.9457   32.9128   43.4169 H   0  0  0  0  0  0  0  0  0  0  0  0
   49.9857   35.3872   43.8156 H   0  0  0  0  0  0  0  0  0  0  0  0
   49.3264   36.8436   42.3279 H   0  0  0  0  0  0  0  0  0  0  0  0
   49.7418   35.7288   40.9768 H   0  0  0  0  0  0  0  0  0  0  0  0
   47.2333   36.1422   41.2611 H   0  0  0  0  0  0  0  0  0  0  0  0
   47.3150   35.3299   42.8370 H   0  0  0  0  0  0  0  0  0  0  0  0
  1  8  1  0
  2 13  1  0
  2  1  1  0
  3  2  1  0
  4  3  1  0
  4  5  1  0
  5  6  1  0
  6  1  1  0
  7 12  2  0
  8  9  2  0
  8  7  1  0
  9 10  1  0
 10 11  2  0
 12 11  1  0
 13 14  1  0
 13 18  1  0
 14 15  1  0
 16 15  1  0
 17 16  1  0
 18 17  1  0
  2 19  1  6
  3 20  1  0
  3 21  1  0
  4 22  1  0
  5 23  1  0
  5 24  1  0
  6 25  1  0
  6 26  1  0
  7 27  1  0
  9 28  1  0
 11 29  1  0
 14 30  1  0
 14 31  1  0
 15 32  1  0
 15 33  1  0
 16 34  1  0
 17 35  1  0
 17 36  1  0
 18 37  1  0
 18 38  1  0
M  ISO  8  19  13  20  13  21  13  22   5  23  13  24  13  25  13  26  13
M  ISO  8  27  14  28  14  29  14  30  13  31  13  32  13  33  13  34   5
M  ISO  4  35  13  36  13  37  13  38  13
M  END
>  <minimizedAffinity>  (1) 
-4.8107338

>  <minimizedRMSD>  (1) 
2.38520408

$$$$
