
     RDKit          3D

 48 51  0  0  0  0  0  0  0  0999 V2000
   39.7460   34.7370   40.1860 C   0  0  0  0  0  0  0  0  0  0  0  0
   39.2140   33.7950   39.1680 C   0  0  0  0  0  0  0  0  0  0  0  0
   38.5730   34.2870   38.0320 C   0  0  0  0  0  0  0  0  0  0  0  0
   38.0770   33.4080   37.0800 C   0  0  0  0  0  0  0  0  0  0  0  0
   38.2140   32.0220   37.2510 C   0  0  0  0  0  0  0  0  0  0  0  0
   38.8570   31.5390   38.3910 C   0  0  0  0  0  0  0  0  0  0  0  0
   39.3480   32.4400   39.3370 C   0  0  0  0  0  0  0  0  0  0  0  0
   39.9590   31.7820   40.4370 N   0  0  0  0  0  0  0  0  0  0  0  0
   39.4340   31.6510   41.7940 C   0  0  0  0  0  0  0  0  0  0  0  0
   40.5830   31.1810   42.6610 C   0  0  0  0  0  0  0  0  0  0  0  0
   40.9270   29.8330   42.1980 N   0  0  0  0  0  0  0  0  0  0  0  0
   41.2240   29.8110   40.8020 C   0  0  0  0  0  0  0  0  0  0  0  0
   41.2540   31.1660   40.1390 C   0  0  0  0  0  0  0  0  0  0  0  0
   41.8950   34.7870   41.4170 C   0  0  0  0  0  0  0  0  0  0  0  0
   41.2330   34.7030   40.2720 C   0  0  0  0  0  0  0  0  0  0  0  0
   43.9620   35.3300   42.6560 C   0  0  0  0  0  0  0  0  0  0  0  0
   43.3350   34.7500   41.5260 C   0  0  0  0  0  0  0  0  0  0  0  0
   44.1450   34.1640   40.5780 C   0  0  0  0  0  0  0  0  0  0  0  0
   45.5030   34.1640   40.7620 N   0  0  0  0  0  0  0  0  0  0  0  0
   46.0600   34.7220   41.8450 C   0  0  0  0  0  0  0  0  0  0  0  0
   45.3030   35.3100   42.8020 N   0  0  0  0  0  0  0  0  0  0  0  0
   47.4940   34.7230   42.0520 C   0  0  0  0  0  0  0  0  0  0  0  0
   48.4120   35.6580   41.8100 C   0  0  0  0  0  0  0  0  0  0  0  0
   49.7290   35.4400   42.0860 C   0  0  0  0  0  0  0  0  0  0  0  0
   50.0300   34.1580   42.6400 C   0  0  0  0  0  0  0  0  0  0  0  0
   48.3690   33.3370   42.7300 S   0  0  0  0  0  0  0  0  0  0  0  0
   39.3295   34.4677   41.1678 H   0  0  0  0  0  0  0  0  0  0  0  0
   39.4514   35.7538   39.8872 H   0  0  0  0  0  0  0  0  0  0  0  0
   38.4605   35.3720   37.8904 H   0  0  0  0  0  0  0  0  0  0  0  0
   37.5727   33.8005   36.1847 H   0  0  0  0  0  0  0  0  0  0  0  0
   37.8197   31.3256   36.4963 H   0  0  0  0  0  0  0  0  0  0  0  0
   38.9761   30.4561   38.5431 H   0  0  0  0  0  0  0  0  0  0  0  0
   39.0615   32.6222   42.1519 H   0  0  0  0  0  0  0  0  0  0  0  0
   38.5960   30.9392   41.8273 H   0  0  0  0  0  0  0  0  0  0  0  0
   41.4456   31.8540   42.5470 H   0  0  0  0  0  0  0  0  0  0  0  0
   40.3041   31.1779   43.7251 H   0  0  0  0  0  0  0  0  0  0  0  0
   41.7512   29.5018   42.7194 H   0  0  0  0  0  0  0  0  0  0  0  0
   42.2109   29.3436   40.6696 H   0  0  0  0  0  0  0  0  0  0  0  0
   40.4092   29.2496   40.3214 H   0  0  0  0  0  0  0  0  0  0  0  0
   41.3865   31.0584   39.0523 H   0  0  0  0  0  0  0  0  0  0  0  0
   42.0896   31.7795   40.5069 H   0  0  0  0  0  0  0  0  0  0  0  0
   41.3109   34.8915   42.3432 H   0  0  0  0  0  0  0  0  0  0  0  0
   41.8091   34.6034   39.3403 H   0  0  0  0  0  0  0  0  0  0  0  0
   43.3428   35.8065   43.4303 H   0  0  0  0  0  0  0  0  0  0  0  0
   43.7059   33.7007   39.6822 H   0  0  0  0  0  0  0  0  0  0  0  0
   48.1019   36.6219   41.3803 H   0  0  0  0  0  0  0  0  0  0  0  0
   50.5043   36.1968   41.8958 H   0  0  0  0  0  0  0  0  0  0  0  0
   51.0087   33.7556   42.9402 H   0  0  0  0  0  0  0  0  0  0  0  0
  1 15  1  0
  2  7  1  0
  2  1  1  0
  3  2  2  0
  4  5  2  0
  4  3  1  0
  5  6  1  0
  6  7  2  0
  7  8  1  0
  8  9  1  0
  9 10  1  0
 11 10  1  0
 12 11  1  0
 13  8  1  0
 13 12  1  0
 14 17  1  0
 15 14  2  0
 16 21  2  0
 17 16  1  0
 18 19  1  0
 18 17  2  0
 19 20  2  0
 20 22  1  0
 20 21  1  0
 22 26  1  0
 23 22  2  0
 23 24  1  0
 24 25  2  0
 25 26  1  0
  1 27  1  0
  1 28  1  0
  3 29  1  0
  4 30  1  0
  5 31  1  0
  6 32  1  0
  9 33  1  0
  9 34  1  0
 10 35  1  0
 10 36  1  0
 11 37  1  0
 12 38  1  0
 12 39  1  0
 13 40  1  0
 13 41  1  0
 14 42  1  0
 15 43  1  0
 16 44  1  0
 18 45  1  0
 23 46  1  0
 24 47  1  0
 25 48  1  0
M  ISO  8  27   8  28   8  29  14  30  14  31  14  32  14  33  13  34  13
M  ISO  8  35  13  36  13  37   5  38  13  39  13  40  13  41  13  44  14
M  ISO  4  45  14  46  14  47  14  48  14
M  END
>  <minimizedAffinity>  (1) 
-6.38255501

>  <minimizedRMSD>  (1) 
4.53809738

$$$$
