
     RDKit          3D

 49 52  0  0  1  0  0  0  0  0999 V2000
   46.0910   32.3280   45.3870 N   0  0  0  0  0  0  0  0  0  0  0  0
   45.9490   32.8340   46.7210 C   0  0  0  0  0  0  0  0  0  0  0  0
   47.1460   32.4900   47.5980 C   0  0  0  0  0  0  0  0  0  0  0  0
   47.1470   30.9810   47.7230 C   0  0  0  0  0  0  0  0  0  0  0  0
   47.4530   30.4730   46.3070 C   0  0  0  0  0  0  0  0  0  0  0  0
   46.3760   30.9680   45.3710 C   0  0  2  0  0  0  0  0  0  0  0  0
   46.1810   30.2720   44.1760 N   0  0  0  0  0  0  0  0  0  0  0  0
   44.8090   29.8890   43.9320 C   0  0  0  0  0  0  0  0  0  0  0  0
   44.6700   28.4040   44.0050 C   0  0  0  0  0  0  0  0  0  0  0  0
   45.4530   27.8800   42.8900 N   0  0  0  0  0  0  0  0  0  0  0  0
   46.8420   28.1560   43.0410 C   0  0  0  0  0  0  0  0  0  0  0  0
   47.1740   29.5430   43.5420 C   0  0  0  0  0  0  0  0  0  0  0  0
   46.6370   33.2360   44.4580 C   0  0  0  0  0  0  0  0  0  0  0  0
   45.7040   35.3430   43.2370 C   0  0  1  0  0  0  0  0  0  0  0  0
   44.6070   34.5880   43.7170 C   0  0  0  0  0  0  0  0  0  0  0  0
   45.8510   34.5140   44.5290 C   0  0  1  0  0  0  0  0  0  0  0  0
   45.9880   34.2220   41.0380 C   0  0  0  0  0  0  0  0  0  0  0  0
   46.5690   34.9800   42.0930 C   0  0  0  0  0  0  0  0  0  0  0  0
   47.8920   35.3230   41.9870 C   0  0  0  0  0  0  0  0  0  0  0  0
   48.5810   34.9190   40.8740 N   0  0  0  0  0  0  0  0  0  0  0  0
   48.0070   34.2020   39.8890 C   0  0  0  0  0  0  0  0  0  0  0  0
   46.6910   33.8350   39.9490 N   0  0  0  0  0  0  0  0  0  0  0  0
   45.8461   33.9282   46.6756 H   0  0  0  0  0  0  0  0  0  0  0  0
   45.0588   32.3660   47.1664 H   0  0  0  0  0  0  0  0  0  0  0  0
   48.0779   32.8358   47.1267 H   0  0  0  0  0  0  0  0  0  0  0  0
   47.0798   32.9773   48.5820 H   0  0  0  0  0  0  0  0  0  0  0  0
   47.9226   30.6508   48.4297 H   0  0  0  0  0  0  0  0  0  0  0  0
   46.1912   30.5945   48.1064 H   0  0  0  0  0  0  0  0  0  0  0  0
   48.4314   30.8549   45.9802 H   0  0  0  0  0  0  0  0  0  0  0  0
   47.4781   29.3733   46.3009 H   0  0  0  0  0  0  0  0  0  0  0  0
   45.4903   30.6012   45.9105 H   0  0  0  0  0  0  0  0  0  0  0  0
   44.5073   30.2339   42.9320 H   0  0  0  0  0  0  0  0  0  0  0  0
   44.1655   30.3488   44.6965 H   0  0  0  0  0  0  0  0  0  0  0  0
   45.0641   28.0282   44.9608 H   0  0  0  0  0  0  0  0  0  0  0  0
   43.6172   28.0908   43.9451 H   0  0  0  0  0  0  0  0  0  0  0  0
   45.1203   28.3132   42.0167 H   0  0  0  0  0  0  0  0  0  0  0  0
   47.2575   27.4286   43.7539 H   0  0  0  0  0  0  0  0  0  0  0  0
   47.2778   28.0839   42.0336 H   0  0  0  0  0  0  0  0  0  0  0  0
   47.5046   30.1315   42.6735 H   0  0  0  0  0  0  0  0  0  0  0  0
   47.9260   29.3731   44.3266 H   0  0  0  0  0  0  0  0  0  0  0  0
   46.5714   32.8150   43.4439 H   0  0  0  0  0  0  0  0  0  0  0  0
   47.6944   33.4281   44.6927 H   0  0  0  0  0  0  0  0  0  0  0  0
   45.7797   36.3922   42.9153 H   0  0  0  0  0  0  0  0  0  0  0  0
   43.7294   35.1122   44.1233 H   0  0  0  0  0  0  0  0  0  0  0  0
   43.9605   33.8249   43.2591 H   0  0  0  0  0  0  0  0  0  0  0  0
   46.1483   34.7058   45.5706 H   0  0  0  0  0  0  0  0  0  0  0  0
   44.9272   33.9401   41.1108 H   0  0  0  0  0  0  0  0  0  0  0  0
   48.3878   35.9079   42.7757 H   0  0  0  0  0  0  0  0  0  0  0  0
   48.6095   33.9053   39.0178 H   0  0  0  0  0  0  0  0  0  0  0  0
  1  2  1  0
  2  3  1  0
  3  4  1  0
  5  4  1  0
  6  1  1  0
  6  5  1  0
  7 12  1  0
  7  6  1  0
  8  9  1  0
  8  7  1  0
 10 11  1  0
 10  9  1  0
 11 12  1  0
 13 16  1  0
 13  1  1  0
 14 15  1  0
 14 16  1  0
 15 16  1  0
 17 18  2  0
 18 14  1  0
 19 18  1  0
 20 19  2  0
 21 22  2  0
 21 20  1  0
 22 17  1  0
  2 23  1  0
  2 24  1  0
  3 25  1  0
  3 26  1  0
  4 27  1  0
  4 28  1  0
  5 29  1  0
  5 30  1  0
  6 31  1  1
  8 32  1  0
  8 33  1  0
  9 34  1  0
  9 35  1  0
 10 36  1  0
 11 37  1  0
 11 38  1  0
 12 39  1  0
 12 40  1  0
 13 41  1  0
 13 42  1  0
 14 43  1  1
 15 44  1  0
 15 45  1  0
 16 46  1  1
 17 47  1  0
 19 48  1  0
 21 49  1  0
M  ISO  8  23  13  24  13  25  13  26  13  27  13  28  13  29  13  30  13
M  ISO  8  31  13  32  13  33  13  34  13  35  13  36   5  37  13  38  13
M  ISO  8  39  13  40  13  41   8  42   8  43  13  44  13  45  13  46  13
M  ISO  3  47  14  48  14  49  14
M  END
>  <minimizedAffinity>  (1) 
-4.28107834

>  <minimizedRMSD>  (1) 
2.6812911

$$$$
