
     RDKit          3D

 43 46  0  0  0  0  0  0  0  0999 V2000
   40.8330   33.0360   41.4350 Cl  0  0  0  0  0  0  0  0  0  0  0  0
   41.7760   32.6100   40.0290 C   0  0  0  0  0  0  0  0  0  0  0  0
   43.0670   32.9990   39.8830 C   0  0  0  0  0  0  0  0  0  0  0  0
   43.7020   32.6030   38.7400 C   0  0  0  0  0  0  0  0  0  0  0  0
   43.1140   31.8580   37.7690 C   0  0  0  0  0  0  0  0  0  0  0  0
   41.8100   31.4660   37.9190 C   0  0  0  0  0  0  0  0  0  0  0  0
   41.1460   31.8490   39.0580 C   0  0  0  0  0  0  0  0  0  0  0  0
   45.1140   33.0170   38.5570 C   0  0  0  0  0  0  0  0  0  0  0  0
   45.5840   33.1420   37.2550 C   0  0  0  0  0  0  0  0  0  0  0  0
   46.9040   33.5310   37.2200 C   0  0  0  0  0  0  0  0  0  0  0  0
   47.7300   33.7860   38.2670 C   0  0  0  0  0  0  0  0  0  0  0  0
   47.1640   33.6310   39.5210 C   0  0  0  0  0  0  0  0  0  0  0  0
   45.8820   33.2540   39.6210 N   0  0  0  0  0  0  0  0  0  0  0  0
   47.9470   33.8740   40.6830 N   0  0  0  0  0  0  0  0  0  0  0  0
   48.0220   35.1680   41.2920 C   0  0  0  0  0  0  0  0  0  0  0  0
   49.2170   35.1880   42.2150 C   0  0  0  0  0  0  0  0  0  0  0  0
   49.2360   34.1420   43.1890 N   0  0  0  0  0  0  0  0  0  0  0  0
   48.6090   32.9170   42.7910 C   0  0  0  0  0  0  0  0  0  0  0  0
   48.7010   32.7930   41.2870 C   0  0  0  0  0  0  0  0  0  0  0  0
   44.2810   35.9170   41.9620 C   0  0  0  0  0  0  0  0  0  0  0  0
   43.6920   35.1740   40.9400 C   0  0  0  0  0  0  0  0  0  0  0  0
   43.6740   33.7950   40.9340 C   0  0  0  0  0  0  0  0  0  0  0  0
   44.2790   33.1980   42.0040 N   0  0  0  0  0  0  0  0  0  0  0  0
   44.8480   33.9080   42.9900 C   0  0  0  0  0  0  0  0  0  0  0  0
   44.8580   35.2530   42.9850 N   0  0  0  0  0  0  0  0  0  0  0  0
   43.6796   31.5718   36.8700 H   0  0  0  0  0  0  0  0  0  0  0  0
   41.3090   30.8614   37.1486 H   0  0  0  0  0  0  0  0  0  0  0  0
   40.0981   31.5470   39.2017 H   0  0  0  0  0  0  0  0  0  0  0  0
   44.9740   32.9527   36.3594 H   0  0  0  0  0  0  0  0  0  0  0  0
   47.3445   33.6501   36.2191 H   0  0  0  0  0  0  0  0  0  0  0  0
   48.7767   34.0945   38.1285 H   0  0  0  0  0  0  0  0  0  0  0  0
   48.1385   35.9385   40.5156 H   0  0  0  0  0  0  0  0  0  0  0  0
   47.1018   35.3748   41.8581 H   0  0  0  0  0  0  0  0  0  0  0  0
   50.1257   35.1014   41.6012 H   0  0  0  0  0  0  0  0  0  0  0  0
   49.1619   36.1333   42.7748 H   0  0  0  0  0  0  0  0  0  0  0  0
   50.2197   33.9363   43.4145 H   0  0  0  0  0  0  0  0  0  0  0  0
   49.1223   32.0673   43.2648 H   0  0  0  0  0  0  0  0  0  0  0  0
   47.5544   32.9163   43.1038 H   0  0  0  0  0  0  0  0  0  0  0  0
   48.2818   31.8270   40.9692 H   0  0  0  0  0  0  0  0  0  0  0  0
   49.7531   32.8483   40.9707 H   0  0  0  0  0  0  0  0  0  0  0  0
   44.2755   37.0167   41.9350 H   0  0  0  0  0  0  0  0  0  0  0  0
   43.2216   35.7104   40.1028 H   0  0  0  0  0  0  0  0  0  0  0  0
   45.3205   33.3741   43.8277 H   0  0  0  0  0  0  0  0  0  0  0  0
  2  1  1  0
  3  2  2  0
  3 22  1  0
  4  3  1  0
  5  6  1  0
  5  4  2  0
  6  7  2  0
  7  2  1  0
  8  4  1  0
  8 13  1  0
  9  8  2  0
 10  9  1  0
 10 11  2  0
 11 12  1  0
 12 13  2  0
 12 14  1  0
 14 19  1  0
 14 15  1  0
 15 16  1  0
 16 17  1  0
 18 17  1  0
 19 18  1  0
 20 25  2  0
 21 20  1  0
 22 21  2  0
 22 23  1  0
 23 24  2  0
 25 24  1  0
  5 26  1  0
  6 27  1  0
  7 28  1  0
  9 29  1  0
 10 30  1  0
 11 31  1  0
 15 32  1  0
 15 33  1  0
 16 34  1  0
 16 35  1  0
 17 36  1  0
 18 37  1  0
 18 38  1  0
 19 39  1  0
 19 40  1  0
 20 41  1  0
 21 42  1  0
 24 43  1  0
M  ISO  8  26  14  27  14  28  14  29  14  30  14  31  14  32  13  33  13
M  ISO  8  34  13  35  13  36   5  37  13  38  13  39  13  40  13  41  14
M  ISO  2  42  14  43  14
M  END
>  <minimizedAffinity>  (1) 
-5.60783577

>  <minimizedRMSD>  (1) 
3.95093203

$$$$
