
     RDKit          3D

 37 39  0  0  0  0  0  0  0  0999 V2000
   45.6040   34.5300   41.8770 C   0  0  0  0  0  0  0  0  0  0  0  0
   44.2120   34.5620   41.3430 C   0  0  0  0  0  0  0  0  0  0  0  0
   43.4400   35.7710   41.4310 C   0  0  0  0  0  0  0  0  0  0  0  0
   41.8490   35.2860   40.6500 S   0  0  0  0  0  0  0  0  0  0  0  0
   42.5020   33.5260   40.3390 C   0  0  0  0  0  0  0  0  0  0  0  0
   43.5590   33.5790   40.7700 N   0  0  0  0  0  0  0  0  0  0  0  0
   41.7250   32.5090   39.7070 N   0  0  0  0  0  0  0  0  0  0  0  0
   41.1510   31.4360   40.4650 C   0  0  0  0  0  0  0  0  0  0  0  0
   39.6750   31.3690   40.1420 C   0  0  0  0  0  0  0  0  0  0  0  0
   39.3660   31.5290   38.7570 N   0  0  0  0  0  0  0  0  0  0  0  0
   40.4900   31.6130   37.8760 C   0  0  0  0  0  0  0  0  0  0  0  0
   41.5380   32.5920   38.2910 C   0  0  0  0  0  0  0  0  0  0  0  0
   46.6460   34.2650   40.8260 C   0  0  0  0  0  0  0  0  0  0  0  0
   48.0150   34.1570   41.3680 C   0  0  0  0  0  0  0  0  0  0  0  0
   48.6910   32.9620   41.1370 C   0  0  0  0  0  0  0  0  0  0  0  0
   49.9820   32.8090   41.6260 C   0  0  0  0  0  0  0  0  0  0  0  0
   50.5360   33.8400   42.3150 N   0  0  0  0  0  0  0  0  0  0  0  0
   49.8600   34.9760   42.5200 C   0  0  0  0  0  0  0  0  0  0  0  0
   48.6250   35.1170   42.0500 N   0  0  0  0  0  0  0  0  0  0  0  0
   47.9060   31.6270   40.2140 S   0  0  0  0  0  0  0  0  0  0  0  0
   45.8200   35.5025   42.3434 H   0  0  0  0  0  0  0  0  0  0  0  0
   45.6541   33.7002   42.5973 H   0  0  0  0  0  0  0  0  0  0  0  0
   43.7289   36.7425   41.8584 H   0  0  0  0  0  0  0  0  0  0  0  0
   41.6356   30.4866   40.1931 H   0  0  0  0  0  0  0  0  0  0  0  0
   41.2979   31.6089   41.5414 H   0  0  0  0  0  0  0  0  0  0  0  0
   39.2957   30.3893   40.4681 H   0  0  0  0  0  0  0  0  0  0  0  0
   39.2001   32.2099   40.6686 H   0  0  0  0  0  0  0  0  0  0  0  0
   38.7947   30.7232   38.4651 H   0  0  0  0  0  0  0  0  0  0  0  0
   40.1238   31.9049   36.8807 H   0  0  0  0  0  0  0  0  0  0  0  0
   40.9685   30.6226   37.8887 H   0  0  0  0  0  0  0  0  0  0  0  0
   42.4837   32.3571   37.7806 H   0  0  0  0  0  0  0  0  0  0  0  0
   41.2214   33.6098   38.0191 H   0  0  0  0  0  0  0  0  0  0  0  0
   46.6238   35.0894   40.0980 H   0  0  0  0  0  0  0  0  0  0  0  0
   46.4026   33.2958   40.3663 H   0  0  0  0  0  0  0  0  0  0  0  0
   50.5414   31.8766   41.4595 H   0  0  0  0  0  0  0  0  0  0  0  0
   50.3290   35.7980   43.0807 H   0  0  0  0  0  0  0  0  0  0  0  0
   47.3720   30.7188   41.0897 H   0  0  0  0  0  0  0  0  0  0  0  0
  2  3  2  0
  2  1  1  0
  4  3  1  0
  5  4  1  0
  5  6  2  0
  6  2  1  0
  7  5  1  0
  7  8  1  0
  9  8  1  0
 10  9  1  0
 11 12  1  0
 11 10  1  0
 12  7  1  0
 13 14  1  0
 13  1  1  0
 14 19  1  0
 15 14  2  0
 15 16  1  0
 16 17  2  0
 17 18  1  0
 19 18  2  0
 20 15  1  0
  1 21  1  0
  1 22  1  0
  3 23  1  0
  8 24  1  0
  8 25  1  0
  9 26  1  0
  9 27  1  0
 10 28  1  0
 11 29  1  0
 11 30  1  0
 12 31  1  0
 12 32  1  0
 13 33  1  0
 13 34  1  0
 16 35  1  0
 18 36  1  0
 20 37  1  0
M  ISO  8  21   8  22   8  23  14  24  13  25  13  26  13  27  13  28   5
M  ISO  8  29  13  30  13  31  13  32  13  33   8  34   8  35  14  36  14
M  ISO  1  37  11
M  END
>  <minimizedAffinity>  (1) 
-4.43704844

>  <minimizedRMSD>  (1) 
1.39171875

$$$$
