
     RDKit          3D

 27 28  0  0  0  0  0  0  0  0999 V2000
   46.7140   32.8490   46.3770 C   0  0  0  0  0  0  0  0  0  0  0  0
   44.5430   35.4810   44.8840 C   0  0  0  0  0  0  0  0  0  0  0  0
   45.0500   35.5800   43.5870 C   0  0  0  0  0  0  0  0  0  0  0  0
   46.1210   34.7470   43.2490 C   0  0  0  0  0  0  0  0  0  0  0  0
   46.6220   33.8850   44.1810 N   0  0  0  0  0  0  0  0  0  0  0  0
   46.0920   33.8230   45.4390 C   0  0  0  0  0  0  0  0  0  0  0  0
   45.0720   34.6150   45.7670 N   0  0  0  0  0  0  0  0  0  0  0  0
   45.6610   32.0990   47.0420 N   0  0  0  0  0  0  0  0  0  0  0  0
   45.4750   32.4470   48.3890 C   0  0  0  0  0  0  0  0  0  0  0  0
   45.4450   31.3650   49.4010 C   0  0  0  0  0  0  0  0  0  0  0  0
   45.6400   30.0300   48.9310 N   0  0  0  0  0  0  0  0  0  0  0  0
   44.9840   29.8190   47.6410 C   0  0  0  0  0  0  0  0  0  0  0  0
   45.7400   30.7370   46.6770 C   0  0  0  0  0  0  0  0  0  0  0  0
   47.3130   33.3880   47.1258 H   0  0  0  0  0  0  0  0  0  0  0  0
   47.3681   32.1611   45.8211 H   0  0  0  0  0  0  0  0  0  0  0  0
   43.7002   36.1193   45.1877 H   0  0  0  0  0  0  0  0  0  0  0  0
   44.6235   36.2859   42.8592 H   0  0  0  0  0  0  0  0  0  0  0  0
   46.5564   34.7862   42.2396 H   0  0  0  0  0  0  0  0  0  0  0  0
   46.2944   33.1270   48.6649 H   0  0  0  0  0  0  0  0  0  0  0  0
   44.4612   32.8727   48.4197 H   0  0  0  0  0  0  0  0  0  0  0  0
   46.2355   31.5765   50.1361 H   0  0  0  0  0  0  0  0  0  0  0  0
   44.4212   31.3790   49.8030 H   0  0  0  0  0  0  0  0  0  0  0  0
   46.6497   29.8554   48.8264 H   0  0  0  0  0  0  0  0  0  0  0  0
   45.0707   28.7683   47.3271 H   0  0  0  0  0  0  0  0  0  0  0  0
   43.9073   30.0417   47.6758 H   0  0  0  0  0  0  0  0  0  0  0  0
   45.3128   30.6177   45.6704 H   0  0  0  0  0  0  0  0  0  0  0  0
   46.8007   30.4473   46.7074 H   0  0  0  0  0  0  0  0  0  0  0  0
  1  8  1  0
  2  7  2  0
  3  2  1  0
  4  3  2  0
  4  5  1  0
  5  6  2  0
  6  7  1  0
  6  1  1  0
  8  9  1  0
  9 10  1  0
 11 10  1  0
 12 11  1  0
 13  8  1  0
 13 12  1  0
  1 14  1  0
  1 15  1  0
  2 16  1  0
  3 17  1  0
  4 18  1  0
  9 19  1  0
  9 20  1  0
 10 21  1  0
 10 22  1  0
 11 23  1  0
 12 24  1  0
 12 25  1  0
 13 26  1  0
 13 27  1  0
M  ISO  8  14   8  15   8  16  14  17  14  18  14  19  13  20  13  21  13
M  ISO  6  22  13  23   5  24  13  25  13  26  13  27  13
M  END
>  <minimizedAffinity>  (1) 
-4.49116993

>  <minimizedRMSD>  (1) 
1.68071592

$$$$
