
     RDKit          3D

 43 46  0  0  1  0  0  0  0  0999 V2000
   48.0400   34.6430   41.9830 C   0  0  2  0  0  0  0  0  0  0  0  0
   46.7220   33.8730   42.2560 C   0  0  1  0  0  0  0  0  0  0  0  0
   47.2420   32.6530   42.5740 O   0  0  0  0  0  0  0  0  0  0  0  0
   48.1230   32.3730   41.5090 C   0  0  0  0  0  0  0  0  0  0  0  0
   48.5240   33.7230   40.8830 C   0  0  1  0  0  0  0  0  0  0  0  0
   44.5200   36.0660   44.4470 C   0  0  0  0  0  0  0  0  0  0  0  0
   45.1880   35.6710   43.2870 C   0  0  0  0  0  0  0  0  0  0  0  0
   45.9460   34.5220   43.3190 C   0  0  0  0  0  0  0  0  0  0  0  0
   45.9920   33.8320   44.5120 N   0  0  0  0  0  0  0  0  0  0  0  0
   45.3370   34.2340   45.6140 C   0  0  0  0  0  0  0  0  0  0  0  0
   44.6000   35.3550   45.5760 N   0  0  0  0  0  0  0  0  0  0  0  0
   48.9150   34.4960   43.0240 O   0  0  0  0  0  0  0  0  0  0  0  0
   47.7820   33.8900   39.7530 O   0  0  0  0  0  0  0  0  0  0  0  0
   49.1600   32.9090   38.1100 C   0  0  1  0  0  0  0  0  0  0  0  0
   48.4840   34.2840   38.6160 C   0  0  1  0  0  0  0  0  0  0  0  0
   47.6290   34.4620   37.5950 O   0  0  0  0  0  0  0  0  0  0  0  0
   46.8830   33.2530   37.6930 C   0  0  0  0  0  0  0  0  0  0  0  0
   47.9700   32.2180   37.5190 C   0  0  1  0  0  0  0  0  0  0  0  0
   49.9850   33.3090   37.0480 O   0  0  0  0  0  0  0  0  0  0  0  0
   48.1310   31.9560   36.1730 O   0  0  0  0  0  0  0  0  0  0  0  0
   46.8470   31.7700   35.6520 C   0  0  0  0  0  0  0  0  0  0  0  0
   46.5440   30.5420   34.8620 C   0  0  0  0  0  0  0  0  0  0  0  0
   46.6210   31.8730   34.1680 C   0  0  0  0  0  0  0  0  0  0  0  0
   47.9424   35.7225   41.7956 H   0  0  0  0  0  0  0  0  0  0  0  0
   45.9873   33.8267   41.4386 H   0  0  0  0  0  0  0  0  0  0  0  0
   49.0157   31.8520   41.8853 H   0  0  0  0  0  0  0  0  0  0  0  0
   47.6405   31.7244   40.7630 H   0  0  0  0  0  0  0  0  0  0  0  0
   49.5779   33.8593   40.5987 H   0  0  0  0  0  0  0  0  0  0  0  0
   43.9137   36.9837   44.4318 H   0  0  0  0  0  0  0  0  0  0  0  0
   45.1104   36.2660   42.3651 H   0  0  0  0  0  0  0  0  0  0  0  0
   45.4044   33.6476   46.5422 H   0  0  0  0  0  0  0  0  0  0  0  0
   48.4256   34.5782   43.8806 H   0  0  0  0  0  0  0  0  0  0  0  0
   49.7126   32.3119   38.8503 H   0  0  0  0  0  0  0  0  0  0  0  0
   49.1130   35.1581   38.8404 H   0  0  0  0  0  0  0  0  0  0  0  0
   46.3928   33.1609   38.6734 H   0  0  0  0  0  0  0  0  0  0  0  0
   46.0623   33.1704   36.9652 H   0  0  0  0  0  0  0  0  0  0  0  0
   47.7748   31.2444   37.9923 H   0  0  0  0  0  0  0  0  0  0  0  0
   50.8148   33.7113   37.4082 H   0  0  0  0  0  0  0  0  0  0  0  0
   46.4090   32.2522   36.5384 H   0  0  0  0  0  0  0  0  0  0  0  0
   47.3285   29.7893   34.6946 H   0  0  0  0  0  0  0  0  0  0  0  0
   45.7901   29.7436   34.9275 H   0  0  0  0  0  0  0  0  0  0  0  0
   47.4627   32.0968   33.4961 H   0  0  0  0  0  0  0  0  0  0  0  0
   45.9507   32.4552   33.5186 H   0  0  0  0  0  0  0  0  0  0  0  0
  1  2  1  0
  1 12  1  0
  2  3  1  0
  2  8  1  0
  4  3  1  0
  5  4  1  0
  5  1  1  0
  6 11  2  0
  7  8  2  0
  7  6  1  0
  8  9  1  0
  9 10  2  0
 11 10  1  0
 13  5  1  0
 14 15  1  0
 15 13  1  0
 16 17  1  0
 16 15  1  0
 18 17  1  0
 18 14  1  0
 19 14  1  0
 20 18  1  0
 21 20  1  0
 22 21  1  0
 23 22  1  0
 23 21  1  0
  1 24  1  6
  2 25  1  6
  4 26  1  0
  4 27  1  0
  5 28  1  6
  6 29  1  0
  7 30  1  0
 10 31  1  0
 12 32  1  0
 14 33  1  1
 15 34  1  1
 17 35  1  0
 17 36  1  0
 18 37  1  1
 19 38  1  0
 21 39  1  0
 22 40  1  0
 22 41  1  0
 23 42  1  0
 23 43  1  0
M  ISO  8  24  13  25  13  26  13  27  13  28  13  29  14  30  14  31  14
M  ISO  8  32   3  33  13  34  13  35  13  36  13  37  13  38   3  39  13
M  ISO  4  40  13  41  13  42  13  43  13
M  END
>  <minimizedAffinity>  (1) 
-5.10156965

>  <minimizedRMSD>  (1) 
1.00001931

$$$$
