
     RDKit          3D

 34 36  0  0  0  0  0  0  0  0999 V2000
   44.8940   35.0310   44.5360 C   0  0  0  0  0  0  0  0  0  0  0  0
   44.9670   34.3140   43.3690 C   0  0  0  0  0  0  0  0  0  0  0  0
   45.4040   32.9700   43.3650 C   0  0  0  0  0  0  0  0  0  0  0  0
   45.7470   32.4280   44.5820 N   0  0  0  0  0  0  0  0  0  0  0  0
   45.6710   33.1350   45.6990 C   0  0  0  0  0  0  0  0  0  0  0  0
   45.2470   34.4310   45.6810 N   0  0  0  0  0  0  0  0  0  0  0  0
   46.0380   32.5510   46.9810 C   0  0  0  0  0  0  0  0  0  0  0  0
   47.3350   32.2450   47.2890 C   0  0  0  0  0  0  0  0  0  0  0  0
   47.7190   31.6970   48.4820 C   0  0  0  0  0  0  0  0  0  0  0  0
   46.7160   31.4620   49.3820 N   0  0  0  0  0  0  0  0  0  0  0  0
   45.4710   31.7610   49.0730 C   0  0  0  0  0  0  0  0  0  0  0  0
   45.0690   32.2990   47.9080 N   0  0  0  0  0  0  0  0  0  0  0  0
   44.5860   34.9550   42.1180 C   0  0  0  0  0  0  0  0  0  0  0  0
   45.3360   34.8010   41.1290 O   0  0  0  0  0  0  0  0  0  0  0  0
   43.5300   35.7370   41.7560 O   0  0  0  0  0  0  0  0  0  0  0  0
   42.5180   35.3220   40.9220 C   0  0  0  0  0  0  0  0  0  0  0  0
   41.1320   35.5680   41.5080 C   0  0  0  0  0  0  0  0  0  0  0  0
   40.2070   35.9180   40.3890 C   0  0  0  0  0  0  0  0  0  0  0  0
   39.2890   34.8410   39.9240 C   0  0  0  0  0  0  0  0  0  0  0  0
   40.4240   35.2900   39.0550 C   0  0  0  0  0  0  0  0  0  0  0  0
   44.5528   36.0767   44.5321 H   0  0  0  0  0  0  0  0  0  0  0  0
   45.4668   32.3862   42.4348 H   0  0  0  0  0  0  0  0  0  0  0  0
   48.1110   32.4506   46.5369 H   0  0  0  0  0  0  0  0  0  0  0  0
   48.7699   31.4598   48.7041 H   0  0  0  0  0  0  0  0  0  0  0  0
   44.6984   31.5541   49.8282 H   0  0  0  0  0  0  0  0  0  0  0  0
   42.6350   34.2441   40.7365 H   0  0  0  0  0  0  0  0  0  0  0  0
   42.5935   35.9061   39.9930 H   0  0  0  0  0  0  0  0  0  0  0  0
   40.7756   34.6593   42.0152 H   0  0  0  0  0  0  0  0  0  0  0  0
   41.1694   36.3880   42.2403 H   0  0  0  0  0  0  0  0  0  0  0  0
   40.0950   36.9565   40.7340 H   0  0  0  0  0  0  0  0  0  0  0  0
   39.3185   33.8494   40.3992 H   0  0  0  0  0  0  0  0  0  0  0  0
   38.2005   34.7468   39.7964 H   0  0  0  0  0  0  0  0  0  0  0  0
   41.2876   34.6285   38.8918 H   0  0  0  0  0  0  0  0  0  0  0  0
   40.5157   35.6627   38.0241 H   0  0  0  0  0  0  0  0  0  0  0  0
  1  6  2  0
  2  1  1  0
  3  2  2  0
  3  4  1  0
  4  5  2  0
  5  7  1  0
  6  5  1  0
  7  8  2  0
  7 12  1  0
  8  9  1  0
  9 10  2  0
 11 10  1  0
 12 11  2  0
 13  2  1  0
 14 13  2  0
 15 13  1  0
 16 17  1  0
 16 15  1  0
 18 17  1  0
 19 18  1  0
 20 19  1  0
 20 18  1  0
  1 21  1  0
  3 22  1  0
  8 23  1  0
  9 24  1  0
 11 25  1  0
 16 26  1  0
 16 27  1  0
 17 28  1  0
 17 29  1  0
 18 30  1  0
 19 31  1  0
 19 32  1  0
 20 33  1  0
 20 34  1  0
M  ISO  8  21  14  22  14  23  14  24  14  25  14  26   8  27   8  28   8
M  ISO  6  29   8  30  13  31  13  32  13  33  13  34  13
M  END
>  <minimizedAffinity>  (1) 
-5.37586927

>  <minimizedRMSD>  (1) 
1.62491119

$$$$
