
     RDKit          3D

 48 50  0  0  0  0  0  0  0  0999 V2000
   46.1590   34.5680   43.6090 C   0  0  0  0  0  0  0  0  0  0  0  0
   46.1600   33.7970   44.7470 C   0  0  0  0  0  0  0  0  0  0  0  0
   45.3250   34.1900   45.7600 C   0  0  0  0  0  0  0  0  0  0  0  0
   44.5520   35.2890   45.6110 N   0  0  0  0  0  0  0  0  0  0  0  0
   44.5530   36.0320   44.5080 C   0  0  0  0  0  0  0  0  0  0  0  0
   45.3580   35.6510   43.5350 N   0  0  0  0  0  0  0  0  0  0  0  0
   47.0010   34.1130   42.4960 C   0  0  0  0  0  0  0  0  0  0  0  0
   48.3860   34.6870   42.5860 C   0  0  0  0  0  0  0  0  0  0  0  0
   48.7020   35.5700   41.4650 C   0  0  0  0  0  0  0  0  0  0  0  0
   48.5060   34.8850   40.1300 C   0  0  0  0  0  0  0  0  0  0  0  0
   47.2560   34.0990   40.0430 C   0  0  0  0  0  0  0  0  0  0  0  0
   46.3290   34.3920   41.2000 C   0  0  0  0  0  0  0  0  0  0  0  0
   46.8370   32.6980   45.0790 O   0  0  0  0  0  0  0  0  0  0  0  0
   47.2450   32.1500   46.2630 C   0  0  0  0  0  0  0  0  0  0  0  0
   47.1330   30.6360   46.3060 C   0  0  0  0  0  0  0  0  0  0  0  0
   45.9840   30.1550   45.5700 N   0  0  0  0  0  0  0  0  0  0  0  0
   44.8280   29.5820   46.7410 S   0  0  0  0  0  0  0  0  0  0  0  0
   43.5860   29.0890   46.0620 O   0  0  0  0  0  0  0  0  0  0  0  0
   44.5050   30.7390   47.6420 O   0  0  0  0  0  0  0  0  0  0  0  0
   45.4780   28.3670   47.6890 O   0  0  0  0  0  0  0  0  0  0  0  0
   44.8170   27.1630   47.5230 C   0  0  0  0  0  0  0  0  0  0  0  0
   45.5780   25.9840   48.1520 C   0  0  0  0  0  0  0  0  0  0  0  0
   44.3720   26.5020   48.8230 C   0  0  0  0  0  0  0  0  0  0  0  0
   45.2837   33.6112   46.6945 H   0  0  0  0  0  0  0  0  0  0  0  0
   43.9132   36.9216   44.4117 H   0  0  0  0  0  0  0  0  0  0  0  0
   47.1294   33.0226   42.5627 H   0  0  0  0  0  0  0  0  0  0  0  0
   48.4696   35.2606   43.5209 H   0  0  0  0  0  0  0  0  0  0  0  0
   49.0969   33.8480   42.5601 H   0  0  0  0  0  0  0  0  0  0  0  0
   48.0456   36.4515   41.5115 H   0  0  0  0  0  0  0  0  0  0  0  0
   49.7607   35.8570   41.5470 H   0  0  0  0  0  0  0  0  0  0  0  0
   48.4878   35.6545   39.3442 H   0  0  0  0  0  0  0  0  0  0  0  0
   49.3396   34.1781   40.0059 H   0  0  0  0  0  0  0  0  0  0  0  0
   46.7426   34.3490   39.1029 H   0  0  0  0  0  0  0  0  0  0  0  0
   47.5194   33.0316   40.0769 H   0  0  0  0  0  0  0  0  0  0  0  0
   46.0341   35.4512   41.1670 H   0  0  0  0  0  0  0  0  0  0  0  0
   45.4428   33.7459   41.1152 H   0  0  0  0  0  0  0  0  0  0  0  0
   48.2970   32.4252   46.4287 H   0  0  0  0  0  0  0  0  0  0  0  0
   46.5797   32.5438   47.0455 H   0  0  0  0  0  0  0  0  0  0  0  0
   48.0430   30.2003   45.8677 H   0  0  0  0  0  0  0  0  0  0  0  0
   47.0130   30.3345   47.3571 H   0  0  0  0  0  0  0  0  0  0  0  0
   45.5747   30.9199   45.0147 H   0  0  0  0  0  0  0  0  0  0  0  0
   42.9196   28.8245   46.7446 H   0  0  0  0  0  0  0  0  0  0  0  0
   44.5846   30.4538   48.5867 H   0  0  0  0  0  0  0  0  0  0  0  0
   44.3416   27.3934   46.5582 H   0  0  0  0  0  0  0  0  0  0  0  0
   45.5543   24.9962   47.6685 H   0  0  0  0  0  0  0  0  0  0  0  0
   46.6201   25.8121   48.4592 H   0  0  0  0  0  0  0  0  0  0  0  0
   44.4685   27.0478   49.7732 H   0  0  0  0  0  0  0  0  0  0  0  0
   43.4324   26.0483   49.1713 H   0  0  0  0  0  0  0  0  0  0  0  0
  1  2  1  0
  2 13  1  0
  2  3  2  0
  4  3  1  0
  5  4  2  0
  6  1  2  0
  6  5  1  0
  7  8  1  0
  7  1  1  0
  9  8  1  0
 10  9  1  0
 11 10  1  0
 11 12  1  0
 12  7  1  0
 13 14  1  0
 14 15  1  0
 16 15  1  0
 16 17  1  0
 17 19  1  0
 17 20  1  0
 18 17  1  0
 21 20  1  0
 21 22  1  0
 21 23  1  0
 22 23  1  0
  3 24  1  0
  5 25  1  0
  7 26  1  0
  8 27  1  0
  8 28  1  0
  9 29  1  0
  9 30  1  0
 10 31  1  0
 10 32  1  0
 11 33  1  0
 11 34  1  0
 12 35  1  0
 12 36  1  0
 14 37  1  0
 14 38  1  0
 15 39  1  0
 15 40  1  0
 16 41  1  0
 18 42  1  0
 19 43  1  0
 21 44  1  0
 22 45  1  0
 22 46  1  0
 23 47  1  0
 23 48  1  0
M  ISO  8  24  14  25  14  26  13  27  13  28  13  29  13  30  13  31  13
M  ISO  8  32  13  33  13  34  13  35  13  36  13  37   8  38   8  39   8
M  ISO  8  40   8  41   5  42   3  43   3  44  13  45  13  46  13  47  13
M  ISO  1  48  13
M  END
>  <minimizedAffinity>  (1) 
-5.52826118

>  <minimizedRMSD>  (1) 
1.34145153

$$$$
