
     RDKit          3D

 24 25  0  0  0  0  0  0  0  0999 V2000
   45.5260   34.7050   44.1720 C   0  0  0  0  0  0  0  0  0  0  0  0
   45.2810   34.4340   45.4970 C   0  0  0  0  0  0  0  0  0  0  0  0
   46.0620   33.4440   46.0620 C   0  0  0  0  0  0  0  0  0  0  0  0
   46.9850   32.8320   45.2870 N   0  0  0  0  0  0  0  0  0  0  0  0
   47.1900   33.1280   43.9990 C   0  0  0  0  0  0  0  0  0  0  0  0
   46.4470   34.0900   43.4110 N   0  0  0  0  0  0  0  0  0  0  0  0
   43.9400   35.0440   42.4710 C   0  0  0  0  0  0  0  0  0  0  0  0
   44.0200   33.7790   42.5620 O   0  0  0  0  0  0  0  0  0  0  0  0
   44.8160   35.7020   43.3870 N   0  0  0  0  0  0  0  0  0  0  0  0
   43.1180   35.7670   41.6030 O   0  0  0  0  0  0  0  0  0  0  0  0
   41.7830   35.3090   41.3740 C   0  0  0  0  0  0  0  0  0  0  0  0
   41.3620   35.4130   39.9180 C   0  0  0  0  0  0  0  0  0  0  0  0
   40.6960   36.2210   40.9830 C   0  0  0  0  0  0  0  0  0  0  0  0
   44.2730   35.1820   46.1370 N   0  0  0  0  0  0  0  0  0  0  0  0
   45.9356   33.1607   47.1173 H   0  0  0  0  0  0  0  0  0  0  0  0
   47.9583   32.5917   43.4228 H   0  0  0  0  0  0  0  0  0  0  0  0
   44.9273   36.7220   43.4774 H   0  0  0  0  0  0  0  0  0  0  0  0
   41.8444   34.5535   42.1711 H   0  0  0  0  0  0  0  0  0  0  0  0
   40.8257   34.5826   39.4355 H   0  0  0  0  0  0  0  0  0  0  0  0
   41.8687   35.6310   38.9663 H   0  0  0  0  0  0  0  0  0  0  0  0
   40.8558   37.3086   41.0226 H   0  0  0  0  0  0  0  0  0  0  0  0
   39.6531   36.3558   41.3057 H   0  0  0  0  0  0  0  0  0  0  0  0
   44.0567   35.0114   47.1295 H   0  0  0  0  0  0  0  0  0  0  0  0
   43.7524   35.8994   45.6124 H   0  0  0  0  0  0  0  0  0  0  0  0
  1  2  2  0
  2  3  1  0
  2 14  1  0
  4  3  2  0
  5  4  1  0
  6  5  2  0
  6  1  1  0
  7  8  2  0
  7  9  1  0
  9  1  1  0
 10  7  1  0
 11 10  1  0
 12 13  1  0
 12 11  1  0
 13 11  1  0
  3 15  1  0
  5 16  1  0
  9 17  1  0
 11 18  1  0
 12 19  1  0
 12 20  1  0
 13 21  1  0
 13 22  1  0
 14 23  1  0
 14 24  1  0
M  ISO  7  15  14  16  14  18  13  19  13  20  13  21  13  22  13
M  END
>  <minimizedAffinity>  (1) 
-4.55768776

>  <minimizedRMSD>  (1) 
0.60086596

$$$$
