
     RDKit          3D

 30 32  0  0  0  0  0  0  0  0999 V2000
   46.8300   34.7260   42.1320 C   0  0  0  0  0  0  0  0  0  0  0  0
   46.2350   34.0180   41.1100 C   0  0  0  0  0  0  0  0  0  0  0  0
   46.8520   33.9160   39.8880 C   0  0  0  0  0  0  0  0  0  0  0  0
   48.0760   34.5380   39.7120 C   0  0  0  0  0  0  0  0  0  0  0  0
   48.6970   35.2470   40.6950 C   0  0  0  0  0  0  0  0  0  0  0  0
   48.0300   35.3240   41.9270 C   0  0  0  0  0  0  0  0  0  0  0  0
   45.4690   34.0310   45.5900 C   0  0  0  0  0  0  0  0  0  0  0  0
   46.2220   33.8600   44.4130 C   0  0  0  0  0  0  0  0  0  0  0  0
   46.1090   34.7890   43.3960 C   0  0  0  0  0  0  0  0  0  0  0  0
   45.2640   35.8040   43.6270 N   0  0  0  0  0  0  0  0  0  0  0  0
   44.5370   35.9830   44.7430 C   0  0  0  0  0  0  0  0  0  0  0  0
   44.6450   35.0830   45.7320 N   0  0  0  0  0  0  0  0  0  0  0  0
   44.9030   33.3610   41.3300 C   0  0  0  0  0  0  0  0  0  0  0  0
   43.9200   33.9910   40.3760 C   0  0  0  0  0  0  0  0  0  0  0  0
   42.4860   34.0590   40.7060 C   0  0  0  0  0  0  0  0  0  0  0  0
   43.3380   35.3070   40.7170 C   0  0  0  0  0  0  0  0  0  0  0  0
   46.3843   33.3527   39.0671 H   0  0  0  0  0  0  0  0  0  0  0  0
   48.5700   34.4558   38.7326 H   0  0  0  0  0  0  0  0  0  0  0  0
   49.6700   35.7335   40.5318 H   0  0  0  0  0  0  0  0  0  0  0  0
   48.4940   35.8860   42.7510 H   0  0  0  0  0  0  0  0  0  0  0  0
   45.5561   33.2950   46.4029 H   0  0  0  0  0  0  0  0  0  0  0  0
   46.8936   32.9957   44.3038 H   0  0  0  0  0  0  0  0  0  0  0  0
   43.8671   36.8497   44.8435 H   0  0  0  0  0  0  0  0  0  0  0  0
   44.9797   32.2819   41.1309 H   0  0  0  0  0  0  0  0  0  0  0  0
   44.5726   33.4971   42.3704 H   0  0  0  0  0  0  0  0  0  0  0  0
   44.4815   33.5841   39.5221 H   0  0  0  0  0  0  0  0  0  0  0  0
   41.7313   33.9132   39.9191 H   0  0  0  0  0  0  0  0  0  0  0  0
   41.8259   33.5572   41.4288 H   0  0  0  0  0  0  0  0  0  0  0  0
   43.5928   35.7939   41.6699 H   0  0  0  0  0  0  0  0  0  0  0  0
   43.2905   36.2925   40.2306 H   0  0  0  0  0  0  0  0  0  0  0  0
  1  9  1  0
  2 13  1  0
  2  1  1  0
  3  2  2  0
  4  3  1  0
  4  5  2  0
  5  6  1  0
  6  1  2  0
  7 12  2  0
  8  7  1  0
  9 10  1  0
  9  8  2  0
 10 11  2  0
 11 12  1  0
 14 15  1  0
 14 16  1  0
 14 13  1  0
 15 16  1  0
  3 17  1  0
  4 18  1  0
  5 19  1  0
  6 20  1  0
  7 21  1  0
  8 22  1  0
 11 23  1  0
 13 24  1  0
 13 25  1  0
 14 26  1  0
 15 27  1  0
 15 28  1  0
 16 29  1  0
 16 30  1  0
M  ISO  8  17  14  18  14  19  14  20  14  21  14  22  14  23  14  24   8
M  ISO  6  25   8  26  13  27  13  28  13  29  13  30  13
M  END
>  <minimizedAffinity>  (1) 
-5.36981106

>  <minimizedRMSD>  (1) 
3.70662737

$$$$
