
     RDKit          3D

 30 32  0  0  1  0  0  0  0  0999 V2000
   46.5850   34.6990   41.8060 C   0  0  2  0  0  0  0  0  0  0  0  0
   45.2710   36.1000   43.3260 C   0  0  0  0  0  0  0  0  0  0  0  0
   45.9120   34.8600   43.1070 C   0  0  0  0  0  0  0  0  0  0  0  0
   45.8930   33.8760   44.1110 C   0  0  0  0  0  0  0  0  0  0  0  0
   45.2390   34.2140   45.2380 N   0  0  0  0  0  0  0  0  0  0  0  0
   44.6380   35.3820   45.4360 C   0  0  0  0  0  0  0  0  0  0  0  0
   44.6440   36.3250   44.5000 N   0  0  0  0  0  0  0  0  0  0  0  0
   45.5890   34.1630   40.8270 C   0  0  0  0  0  0  0  0  0  0  0  0
   44.2370   34.3670   40.7610 C   0  0  0  0  0  0  0  0  0  0  0  0
   43.7280   33.6900   39.6920 N   0  0  0  0  0  0  0  0  0  0  0  0
   44.7870   33.0640   39.1000 C   0  0  0  0  0  0  0  0  0  0  0  0
   45.9080   33.3520   39.7870 N   0  0  0  0  0  0  0  0  0  0  0  0
   47.7010   33.7190   41.9690 C   0  0  0  0  0  0  0  0  0  0  0  0
   49.0400   34.2560   41.5590 C   0  0  0  0  0  0  0  0  0  0  0  0
   49.7170   35.0930   42.6600 C   0  0  0  0  0  0  0  0  0  0  0  0
   50.2960   33.8160   42.2000 C   0  0  0  0  0  0  0  0  0  0  0  0
   46.9837   35.6596   41.4477 H   0  0  0  0  0  0  0  0  0  0  0  0
   45.2828   36.8757   42.5461 H   0  0  0  0  0  0  0  0  0  0  0  0
   46.3790   32.8974   43.9843 H   0  0  0  0  0  0  0  0  0  0  0  0
   44.1266   35.5717   46.3912 H   0  0  0  0  0  0  0  0  0  0  0  0
   43.6521   34.9814   41.4612 H   0  0  0  0  0  0  0  0  0  0  0  0
   42.7432   33.6576   39.3919 H   0  0  0  0  0  0  0  0  0  0  0  0
   44.7328   32.4266   38.2052 H   0  0  0  0  0  0  0  0  0  0  0  0
   47.7539   33.4259   43.0279 H   0  0  0  0  0  0  0  0  0  0  0  0
   47.4802   32.8677   41.3083 H   0  0  0  0  0  0  0  0  0  0  0  0
   48.7450   34.3394   40.5026 H   0  0  0  0  0  0  0  0  0  0  0  0
   50.2069   36.0454   42.4092 H   0  0  0  0  0  0  0  0  0  0  0  0
   49.4095   35.5125   43.6292 H   0  0  0  0  0  0  0  0  0  0  0  0
   50.2857   32.9438   42.8701 H   0  0  0  0  0  0  0  0  0  0  0  0
   51.2843   33.5237   41.8156 H   0  0  0  0  0  0  0  0  0  0  0  0
  1 13  1  0
  1  3  1  0
  2  7  2  0
  3  2  1  0
  3  4  2  0
  4  5  1  0
  5  6  2  0
  7  6  1  0
  8  1  1  0
  9  8  2  0
 10  9  1  0
 11 10  1  0
 11 12  2  0
 12  8  1  0
 14 13  1  0
 14 16  1  0
 14 15  1  0
 16 15  1  0
  1 17  1  6
  2 18  1  0
  4 19  1  0
  6 20  1  0
  9 21  1  0
 10 22  1  0
 11 23  1  0
 13 24  1  0
 13 25  1  0
 14 26  1  0
 15 27  1  0
 15 28  1  0
 16 29  1  0
 16 30  1  0
M  ISO  8  17   8  18  14  19  14  20  14  21  14  22   9  23  14  24   8
M  ISO  6  25   8  26  13  27  13  28  13  29  13  30  13
M  END
>  <minimizedAffinity>  (1) 
-4.63262796

>  <minimizedRMSD>  (1) 
2.20426583

$$$$
