
     RDKit          3D

 28 29  0  0  0  0  0  0  0  0999 V2000
   44.8390   34.9510   43.7210 C   0  0  0  0  0  0  0  0  0  0  0  0
   45.7310   35.5370   42.8030 C   0  0  0  0  0  0  0  0  0  0  0  0
   47.0280   35.0820   42.7310 C   0  0  0  0  0  0  0  0  0  0  0  0
   47.3730   34.0820   43.5630 N   0  0  0  0  0  0  0  0  0  0  0  0
   46.5370   33.5240   44.4330 C   0  0  0  0  0  0  0  0  0  0  0  0
   45.2610   33.9540   44.5210 N   0  0  0  0  0  0  0  0  0  0  0  0
   46.9660   32.4350   45.3130 C   0  0  0  0  0  0  0  0  0  0  0  0
   46.1830   31.8800   46.1890 C   0  0  0  0  0  0  0  0  0  0  0  0
   46.6180   30.7800   47.0690 C   0  0  0  0  0  0  0  0  0  0  0  0
   46.7000   31.1960   48.5070 C   0  0  0  0  0  0  0  0  0  0  0  0
   45.7850   32.2910   49.0030 C   0  0  0  0  0  0  0  0  0  0  0  0
   45.4830   30.8890   49.3780 C   0  0  0  0  0  0  0  0  0  0  0  0
   47.9780   35.5740   41.8810 O   0  0  0  0  0  0  0  0  0  0  0  0
   48.2140   34.8370   40.6690 C   0  0  0  0  0  0  0  0  0  0  0  0
   47.0010   34.4030   40.1560 F   0  0  0  0  0  0  0  0  0  0  0  0
   48.8190   35.7150   39.7600 F   0  0  0  0  0  0  0  0  0  0  0  0
   49.0820   33.7690   40.8810 F   0  0  0  0  0  0  0  0  0  0  0  0
   43.8001   35.3068   43.7844 H   0  0  0  0  0  0  0  0  0  0  0  0
   45.3936   36.3533   42.1474 H   0  0  0  0  0  0  0  0  0  0  0  0
   48.0000   32.0695   45.2285 H   0  0  0  0  0  0  0  0  0  0  0  0
   45.1499   32.2471   46.2779 H   0  0  0  0  0  0  0  0  0  0  0  0
   45.8989   29.9522   46.9813 H   0  0  0  0  0  0  0  0  0  0  0  0
   47.6256   30.4745   46.7505 H   0  0  0  0  0  0  0  0  0  0  0  0
   47.7837   31.0127   48.5522 H   0  0  0  0  0  0  0  0  0  0  0  0
   46.1419   32.9962   49.7680 H   0  0  0  0  0  0  0  0  0  0  0  0
   45.2160   33.0974   48.5172 H   0  0  0  0  0  0  0  0  0  0  0  0
   44.6105   30.3797   48.9429 H   0  0  0  0  0  0  0  0  0  0  0  0
   45.3217   30.3566   50.3269 H   0  0  0  0  0  0  0  0  0  0  0  0
  1  6  2  0
  2  1  1  0
  3  2  2  0
  3  4  1  0
  4  5  2  0
  5  6  1  0
  5  7  1  0
  7  8  2  0
  8  9  1  0
  9 10  1  0
 10 11  1  0
 10 12  1  0
 11 12  1  0
 13  3  1  0
 14 17  1  0
 14 13  1  0
 15 14  1  0
 16 14  1  0
  1 18  1  0
  2 19  1  0
  7 20  1  0
  8 21  1  0
  9 22  1  0
  9 23  1  0
 10 24  1  0
 11 25  1  0
 11 26  1  0
 12 27  1  0
 12 28  1  0
M  ISO  8  18  14  19  14  22   8  23   8  24  13  25  13  26  13  27  13
M  ISO  1  28  13
M  END
>  <minimizedAffinity>  (1) 
-4.96503592

>  <minimizedRMSD>  (1) 
1.7416625

$$$$
