
     RDKit          3D

 37 39  0  0  0  0  0  0  0  0999 V2000
   44.6300   35.2200   45.2040 C   0  0  0  0  0  0  0  0  0  0  0  0
   45.0670   35.5040   43.8870 C   0  0  0  0  0  0  0  0  0  0  0  0
   46.1490   34.8070   43.3780 C   0  0  0  0  0  0  0  0  0  0  0  0
   46.7030   33.9010   44.1910 N   0  0  0  0  0  0  0  0  0  0  0  0
   46.2940   33.6370   45.4170 C   0  0  0  0  0  0  0  0  0  0  0  0
   45.2550   34.3010   45.9220 N   0  0  0  0  0  0  0  0  0  0  0  0
   46.6870   35.0220   42.0210 C   0  0  0  0  0  0  0  0  0  0  0  0
   45.9100   34.2500   40.9670 C   0  0  0  0  0  0  0  0  0  0  0  0
   46.7980   33.7050   39.8940 C   0  0  0  0  0  0  0  0  0  0  0  0
   48.0780   33.0340   40.1900 C   0  0  0  0  0  0  0  0  0  0  0  0
   48.0970   34.4350   39.5950 C   0  0  0  0  0  0  0  0  0  0  0  0
   46.8960   32.6910   46.2300 O   0  0  0  0  0  0  0  0  0  0  0  0
   45.6590   30.6250   46.8630 C   0  0  0  0  0  0  0  0  0  0  0  0
   46.2360   31.8440   47.1110 C   0  0  0  0  0  0  0  0  0  0  0  0
   46.1730   32.3320   48.4080 C   0  0  0  0  0  0  0  0  0  0  0  0
   45.5540   31.6260   49.4230 C   0  0  0  0  0  0  0  0  0  0  0  0
   44.9820   30.3990   49.1390 C   0  0  0  0  0  0  0  0  0  0  0  0
   45.0430   29.9070   47.8400 C   0  0  0  0  0  0  0  0  0  0  0  0
   45.7860   30.0910   45.2100 S   0  0  0  0  0  0  0  0  0  0  0  0
   44.6410   29.1810   44.8250 O   0  0  0  0  0  0  0  0  0  0  0  0
   47.0340   29.2160   45.0990 O   0  0  0  0  0  0  0  0  0  0  0  0
   43.7726   35.7624   45.6291 H   0  0  0  0  0  0  0  0  0  0  0  0
   44.5555   36.2651   43.2794 H   0  0  0  0  0  0  0  0  0  0  0  0
   46.6344   36.0951   41.7849 H   0  0  0  0  0  0  0  0  0  0  0  0
   47.7256   34.6600   42.0079 H   0  0  0  0  0  0  0  0  0  0  0  0
   45.3888   33.4127   41.4541 H   0  0  0  0  0  0  0  0  0  0  0  0
   45.1997   34.9452   40.4956 H   0  0  0  0  0  0  0  0  0  0  0  0
   45.9081   33.3976   39.3252 H   0  0  0  0  0  0  0  0  0  0  0  0
   48.3859   32.8786   41.2345 H   0  0  0  0  0  0  0  0  0  0  0  0
   48.5275   32.0698   39.9102 H   0  0  0  0  0  0  0  0  0  0  0  0
   48.4190   34.5924   38.5550 H   0  0  0  0  0  0  0  0  0  0  0  0
   48.5395   35.4036   39.8706 H   0  0  0  0  0  0  0  0  0  0  0  0
   46.6280   33.3074   48.6352 H   0  0  0  0  0  0  0  0  0  0  0  0
   45.5169   32.0349   50.4435 H   0  0  0  0  0  0  0  0  0  0  0  0
   44.4850   29.8197   49.9311 H   0  0  0  0  0  0  0  0  0  0  0  0
   44.5911   28.9329   47.6015 H   0  0  0  0  0  0  0  0  0  0  0  0
   45.8031   31.2045   44.4120 H   0  0  0  0  0  0  0  0  0  0  0  0
  1  6  2  0
  2  1  1  0
  3  2  2  0
  3  4  1  0
  4  5  2  0
  5  6  1  0
  5 12  1  0
  7  3  1  0
  8  7  1  0
  9 10  1  0
  9  8  1  0
 11  9  1  0
 11 10  1  0
 12 14  1  0
 13 14  2  0
 13 18  1  0
 14 15  1  0
 15 16  2  0
 17 16  1  0
 18 17  2  0
 19 13  1  0
 20 19  2  0
 21 19  2  0
  1 22  1  0
  2 23  1  0
  7 24  1  0
  7 25  1  0
  8 26  1  0
  8 27  1  0
  9 28  1  0
 10 29  1  0
 10 30  1  0
 11 31  1  0
 11 32  1  0
 15 33  1  0
 16 34  1  0
 17 35  1  0
 18 36  1  0
 19 37  1  0
M  ISO  8  22  14  23  14  24   8  25   8  26   8  27   8  28  13  29  13
M  ISO  8  30  13  31  13  32  13  33  14  34  14  35  14  36  14  37  11
M  END
>  <minimizedAffinity>  (1) 
-5.34011602

>  <minimizedRMSD>  (1) 
1.79201198

$$$$
