
     RDKit          3D

 35 37  0  0  0  0  0  0  0  0999 V2000
   45.0620   33.3770   41.2540 F   0  0  0  0  0  0  0  0  0  0  0  0
   46.2470   33.9650   41.0900 C   0  0  0  0  0  0  0  0  0  0  0  0
   46.7550   34.7530   42.1070 C   0  0  0  0  0  0  0  0  0  0  0  0
   47.9850   35.4040   42.0190 C   0  0  0  0  0  0  0  0  0  0  0  0
   48.7460   35.2610   40.8580 C   0  0  0  0  0  0  0  0  0  0  0  0
   48.2070   34.4670   39.8650 C   0  0  0  0  0  0  0  0  0  0  0  0
   47.0100   33.8280   39.9370 C   0  0  0  0  0  0  0  0  0  0  0  0
   45.4430   34.1640   45.4800 C   0  0  0  0  0  0  0  0  0  0  0  0
   44.5840   35.2660   45.6600 C   0  0  0  0  0  0  0  0  0  0  0  0
   44.4570   36.2220   44.6040 C   0  0  0  0  0  0  0  0  0  0  0  0
   45.1950   35.9900   43.4760 N   0  0  0  0  0  0  0  0  0  0  0  0
   45.9960   34.9320   43.3480 C   0  0  0  0  0  0  0  0  0  0  0  0
   46.1160   34.0330   44.3400 N   0  0  0  0  0  0  0  0  0  0  0  0
   45.5470   33.2370   46.5390 N   0  0  0  0  0  0  0  0  0  0  0  0
   46.5660   33.0630   38.8900 O   0  0  0  0  0  0  0  0  0  0  0  0
   47.8730   34.4100   37.0170 O   0  0  0  0  0  0  0  0  0  0  0  0
   46.8180   33.3730   37.2580 P   0  0  2  0  0  0  0  0  0  0  0  0
   45.3240   33.8710   36.5730 O   0  0  0  0  0  0  0  0  0  0  0  0
   47.2280   31.9700   36.4000 O   0  0  0  0  0  0  0  0  0  0  0  0
   47.0220   32.1110   35.0540 C   0  0  0  0  0  0  0  0  0  0  0  0
   47.5690   31.0040   34.1230 C   0  0  0  0  0  0  0  0  0  0  0  0
   48.2720   32.3110   34.2380 C   0  0  0  0  0  0  0  0  0  0  0  0
   48.3502   36.0215   42.8529 H   0  0  0  0  0  0  0  0  0  0  0  0
   49.7223   35.7540   40.7402 H   0  0  0  0  0  0  0  0  0  0  0  0
   48.7931   34.3419   38.9426 H   0  0  0  0  0  0  0  0  0  0  0  0
   44.0206   35.3890   46.5967 H   0  0  0  0  0  0  0  0  0  0  0  0
   43.7994   37.0991   44.6943 H   0  0  0  0  0  0  0  0  0  0  0  0
   46.1642   32.4175   46.4474 H   0  0  0  0  0  0  0  0  0  0  0  0
   45.0057   33.3799   47.4036 H   0  0  0  0  0  0  0  0  0  0  0  0
   44.6837   34.0844   37.2973 H   0  0  0  0  0  0  0  0  0  0  0  0
   46.0493   32.6112   35.1711 H   0  0  0  0  0  0  0  0  0  0  0  0
   47.0321   30.7461   33.1982 H   0  0  0  0  0  0  0  0  0  0  0  0
   47.8557   29.9494   34.2482 H   0  0  0  0  0  0  0  0  0  0  0  0
   49.2484   32.3609   34.7421 H   0  0  0  0  0  0  0  0  0  0  0  0
   48.5981   33.0705   33.5121 H   0  0  0  0  0  0  0  0  0  0  0  0
  2  1  1  0
  2  3  2  0
  3 12  1  0
  4  3  1  0
  5  4  2  0
  6  7  2  0
  6  5  1  0
  7  2  1  0
  8  9  2  0
  8 14  1  0
 10  9  1  0
 11 10  2  0
 12 11  1  0
 12 13  2  0
 13  8  1  0
 15  7  1  0
 17 16  2  0
 17 15  1  0
 18 17  1  0
 19 17  1  0
 20 19  1  0
 21 22  1  0
 21 20  1  0
 22 20  1  0
  4 23  1  0
  5 24  1  0
  6 25  1  0
  9 26  1  0
 10 27  1  0
 14 28  1  0
 14 29  1  0
 18 30  1  0
 20 31  1  0
 21 32  1  0
 21 33  1  0
 22 34  1  0
 22 35  1  0
M  ISO  8  23  14  24  14  25  14  26  14  27  14  30   3  31  13  32  13
M  ISO  3  33  13  34  13  35  13
M  END
>  <minimizedAffinity>  (1) 
-6.10813761

>  <minimizedRMSD>  (1) 
1.17864573

$$$$
