
     RDKit          3D

 27 29  0  0  0  0  0  0  0  0999 V2000
   45.8090   34.4020   41.6220 C   0  0  0  0  0  0  0  0  0  0  0  0
   46.0910   34.3330   42.9630 C   0  0  0  0  0  0  0  0  0  0  0  0
   47.3930   34.3410   43.4120 C   0  0  0  0  0  0  0  0  0  0  0  0
   48.4080   34.4190   42.4860 C   0  0  0  0  0  0  0  0  0  0  0  0
   48.1940   34.4910   41.1120 C   0  0  0  0  0  0  0  0  0  0  0  0
   46.8470   34.4780   40.7360 C   0  0  0  0  0  0  0  0  0  0  0  0
   42.2740   35.3620   40.7420 C   0  0  0  0  0  0  0  0  0  0  0  0
   43.6220   35.5250   41.1520 C   0  0  0  0  0  0  0  0  0  0  0  0
   44.4120   34.3890   41.2190 C   0  0  0  0  0  0  0  0  0  0  0  0
   43.8530   33.1870   40.8880 N   0  0  0  0  0  0  0  0  0  0  0  0
   42.5600   33.0640   40.4980 C   0  0  0  0  0  0  0  0  0  0  0  0
   41.7660   34.1640   40.4260 N   0  0  0  0  0  0  0  0  0  0  0  0
   44.9790   34.2490   43.9490 C   0  0  0  0  0  0  0  0  0  0  0  0
   44.6870   35.5670   44.6910 C   0  0  0  0  0  0  0  0  0  0  0  0
   45.2780   34.3730   45.4250 C   0  0  0  0  0  0  0  0  0  0  0  0
   47.6167   34.2862   44.4876 H   0  0  0  0  0  0  0  0  0  0  0  0
   49.4455   34.4248   42.8514 H   0  0  0  0  0  0  0  0  0  0  0  0
   49.0156   34.5529   40.3833 H   0  0  0  0  0  0  0  0  0  0  0  0
   46.6088   34.5322   39.6635 H   0  0  0  0  0  0  0  0  0  0  0  0
   41.6251   36.2481   40.6817 H   0  0  0  0  0  0  0  0  0  0  0  0
   44.0250   36.5162   41.4072 H   0  0  0  0  0  0  0  0  0  0  0  0
   42.1545   32.0745   40.2402 H   0  0  0  0  0  0  0  0  0  0  0  0
   44.4179   33.5105   43.3576 H   0  0  0  0  0  0  0  0  0  0  0  0
   45.3034   36.4575   44.4986 H   0  0  0  0  0  0  0  0  0  0  0  0
   43.8052   36.2106   44.8258 H   0  0  0  0  0  0  0  0  0  0  0  0
   44.6667   33.8224   46.1551 H   0  0  0  0  0  0  0  0  0  0  0  0
   46.1712   34.2148   46.0472 H   0  0  0  0  0  0  0  0  0  0  0  0
  1  2  1  0
  2  3  2  0
  2 13  1  0
  4  3  1  0
  5  4  2  0
  6  5  1  0
  6  1  2  0
  7  8  2  0
  8  9  1  0
  9  1  1  0
 10  9  2  0
 11 10  1  0
 12 11  2  0
 12  7  1  0
 13 14  1  0
 13 15  1  0
 14 15  1  0
  3 16  1  0
  4 17  1  0
  5 18  1  0
  6 19  1  0
  7 20  1  0
  8 21  1  0
 11 22  1  0
 13 23  1  0
 14 24  1  0
 14 25  1  0
 15 26  1  0
 15 27  1  0
M  ISO  8  16  14  17  14  18  14  19  14  20  14  21  14  22  14  23  13
M  ISO  4  24  13  25  13  26  13  27  13
M  END
>  <minimizedAffinity>  (1) 
-4.63960981

>  <minimizedRMSD>  (1) 
3.8255403

$$$$
