
     RDKit          3D

 33 36  0  0  0  0  0  0  0  0999 V2000
   44.6390   33.3450   41.1030 Cl  0  0  0  0  0  0  0  0  0  0  0  0
   46.2140   34.0410   40.9140 C   0  0  0  0  0  0  0  0  0  0  0  0
   46.7970   34.7300   41.9620 C   0  0  0  0  0  0  0  0  0  0  0  0
   48.0590   35.3100   41.8640 C   0  0  0  0  0  0  0  0  0  0  0  0
   48.6930   35.1480   40.6440 C   0  0  0  0  0  0  0  0  0  0  0  0
   48.1260   34.4750   39.6190 C   0  0  0  0  0  0  0  0  0  0  0  0
   46.8770   33.9070   39.7280 C   0  0  0  0  0  0  0  0  0  0  0  0
   45.5260   34.0410   45.3630 C   0  0  0  0  0  0  0  0  0  0  0  0
   44.6800   35.1220   45.5870 C   0  0  0  0  0  0  0  0  0  0  0  0
   44.5420   36.0720   44.6010 C   0  0  0  0  0  0  0  0  0  0  0  0
   45.2340   35.9280   43.4360 N   0  0  0  0  0  0  0  0  0  0  0  0
   46.0660   34.8590   43.2230 C   0  0  0  0  0  0  0  0  0  0  0  0
   46.1890   33.9400   44.1990 N   0  0  0  0  0  0  0  0  0  0  0  0
   46.4090   33.2150   38.5250 C   0  0  0  0  0  0  0  0  0  0  0  0
   47.0380   33.4720   37.3170 C   0  0  0  0  0  0  0  0  0  0  0  0
   46.1050   32.3820   36.1350 S   0  0  0  0  0  0  0  0  0  0  0  0
   45.0090   31.7690   37.5530 C   0  0  0  0  0  0  0  0  0  0  0  0
   45.4430   32.3500   38.4090 N   0  0  0  0  0  0  0  0  0  0  0  0
   43.9190   30.7730   37.3340 C   0  0  0  0  0  0  0  0  0  0  0  0
   43.2320   30.6890   36.0270 C   0  0  0  0  0  0  0  0  0  0  0  0
   42.5180   31.2360   37.2030 C   0  0  0  0  0  0  0  0  0  0  0  0
   48.5203   35.8589   42.6982 H   0  0  0  0  0  0  0  0  0  0  0  0
   49.6938   35.5826   40.5043 H   0  0  0  0  0  0  0  0  0  0  0  0
   48.6772   34.3784   38.6720 H   0  0  0  0  0  0  0  0  0  0  0  0
   45.6520   33.2702   46.1376 H   0  0  0  0  0  0  0  0  0  0  0  0
   44.1309   35.2159   46.5355 H   0  0  0  0  0  0  0  0  0  0  0  0
   43.8805   36.9379   44.7516 H   0  0  0  0  0  0  0  0  0  0  0  0
   47.8785   34.1507   37.1097 H   0  0  0  0  0  0  0  0  0  0  0  0
   44.4485   30.0543   37.9767 H   0  0  0  0  0  0  0  0  0  0  0  0
   42.9469   29.7086   35.6177 H   0  0  0  0  0  0  0  0  0  0  0  0
   43.4475   31.0508   35.0108 H   0  0  0  0  0  0  0  0  0  0  0  0
   42.2862   32.3100   37.2555 H   0  0  0  0  0  0  0  0  0  0  0  0
   41.5716   31.0071   37.7147 H   0  0  0  0  0  0  0  0  0  0  0  0
  2  1  1  0
  2  3  2  0
  3 12  1  0
  4  3  1  0
  5  4  2  0
  6  7  2  0
  6  5  1  0
  7  2  1  0
  8  9  2  0
 10  9  1  0
 11 10  2  0
 12 11  1  0
 12 13  2  0
 13  8  1  0
 14  7  1  0
 15 14  2  0
 16 15  1  0
 16 17  1  0
 17 18  2  0
 18 14  1  0
 19 17  1  0
 20 21  1  0
 20 19  1  0
 21 19  1  0
  4 22  1  0
  5 23  1  0
  6 24  1  0
  8 25  1  0
  9 26  1  0
 10 27  1  0
 15 28  1  0
 19 29  1  0
 20 30  1  0
 20 31  1  0
 21 32  1  0
 21 33  1  0
M  ISO  8  22  14  23  14  24  14  25  14  26  14  27  14  28  14  29  13
M  ISO  4  30  13  31  13  32  13  33  13
M  END
>  <minimizedAffinity>  (1) 
-5.67193842

>  <minimizedRMSD>  (1) 
0.974999249

$$$$
