
     RDKit          3D

 46 49  0  0  0  0  0  0  0  0999 V2000
   46.2860   32.1980   47.8110 C   0  0  0  0  0  0  0  0  0  0  0  0
   45.8450   31.6930   48.9980 C   0  0  0  0  0  0  0  0  0  0  0  0
   46.8810   31.0570   49.5480 N   0  0  0  0  0  0  0  0  0  0  0  0
   47.9610   31.1350   48.7630 C   0  0  0  0  0  0  0  0  0  0  0  0
   47.5760   31.8560   47.6720 N   0  0  0  0  0  0  0  0  0  0  0  0
   49.2820   30.6270   48.9130 N   0  0  0  0  0  0  0  0  0  0  0  0
   50.2550   31.4900   49.6240 C   0  0  0  0  0  0  0  0  0  0  0  0
   50.3910   30.8520   51.0060 C   0  0  0  0  0  0  0  0  0  0  0  0
   50.6210   29.3700   50.8770 C   0  0  0  0  0  0  0  0  0  0  0  0
   51.0260   29.0330   49.4500 C   0  0  0  0  0  0  0  0  0  0  0  0
   49.9040   29.4080   48.5070 C   0  0  0  0  0  0  0  0  0  0  0  0
   45.4870   32.9970   46.8350 C   0  0  0  0  0  0  0  0  0  0  0  0
   46.3240   33.0230   44.5150 C   0  0  0  0  0  0  0  0  0  0  0  0
   46.3400   33.5060   45.7420 C   0  0  0  0  0  0  0  0  0  0  0  0
   47.2260   33.6230   43.5380 C   0  0  0  0  0  0  0  0  0  0  0  0
   46.8400   34.7520   42.7640 C   0  0  0  0  0  0  0  0  0  0  0  0
   47.7540   35.2520   41.8610 C   0  0  0  0  0  0  0  0  0  0  0  0
   48.9640   34.6700   41.7370 N   0  0  0  0  0  0  0  0  0  0  0  0
   49.3070   33.6010   42.4820 C   0  0  0  0  0  0  0  0  0  0  0  0
   48.4680   33.0870   43.3580 N   0  0  0  0  0  0  0  0  0  0  0  0
   50.6520   32.9960   42.3090 C   0  0  0  0  0  0  0  0  0  0  0  0
   50.9080   32.0960   41.1330 C   0  0  0  0  0  0  0  0  0  0  0  0
   50.8940   31.5630   42.5420 C   0  0  0  0  0  0  0  0  0  0  0  0
   44.8337   31.7907   49.4196 H   0  0  0  0  0  0  0  0  0  0  0  0
   46.8528   30.5710   50.4557 H   0  0  0  0  0  0  0  0  0  0  0  0
   51.2231   31.4972   49.1017 H   0  0  0  0  0  0  0  0  0  0  0  0
   49.9251   32.5380   49.6769 H   0  0  0  0  0  0  0  0  0  0  0  0
   51.2425   31.3068   51.5334 H   0  0  0  0  0  0  0  0  0  0  0  0
   49.4630   31.0221   51.5715 H   0  0  0  0  0  0  0  0  0  0  0  0
   51.4220   29.0636   51.5658 H   0  0  0  0  0  0  0  0  0  0  0  0
   49.6925   28.8356   51.1265 H   0  0  0  0  0  0  0  0  0  0  0  0
   51.9329   29.5956   49.1834 H   0  0  0  0  0  0  0  0  0  0  0  0
   51.2277   27.9546   49.3704 H   0  0  0  0  0  0  0  0  0  0  0  0
   49.1529   28.6044   48.5036 H   0  0  0  0  0  0  0  0  0  0  0  0
   50.3237   29.5466   47.4997 H   0  0  0  0  0  0  0  0  0  0  0  0
   44.6985   32.3594   46.4086 H   0  0  0  0  0  0  0  0  0  0  0  0
   45.0459   33.8551   47.3632 H   0  0  0  0  0  0  0  0  0  0  0  0
   45.6536   32.1961   44.2378 H   0  0  0  0  0  0  0  0  0  0  0  0
   47.0278   34.3352   45.9641 H   0  0  0  0  0  0  0  0  0  0  0  0
   45.8469   35.2103   42.8817 H   0  0  0  0  0  0  0  0  0  0  0  0
   47.4965   36.1245   41.2426 H   0  0  0  0  0  0  0  0  0  0  0  0
   51.1028   33.9158   42.7098 H   0  0  0  0  0  0  0  0  0  0  0  0
   50.0924   31.8467   40.4383 H   0  0  0  0  0  0  0  0  0  0  0  0
   51.6194   32.0817   40.2941 H   0  0  0  0  0  0  0  0  0  0  0  0
   51.8321   31.2349   43.0135 H   0  0  0  0  0  0  0  0  0  0  0  0
   50.3497   30.7601   43.0608 H   0  0  0  0  0  0  0  0  0  0  0  0
  1  2  2  0
  2  3  1  0
  4  6  1  0
  4  3  1  0
  5  1  1  0
  5  4  2  0
  6  7  1  0
  7  8  1  0
  9  8  1  0
 10  9  1  0
 11  6  1  0
 11 10  1  0
 12  1  1  0
 13 14  2  0
 14 12  1  0
 15 13  1  0
 16 15  2  0
 17 16  1  0
 18 17  2  0
 18 19  1  0
 19 20  2  0
 20 15  1  0
 21 19  1  0
 21 23  1  0
 22 21  1  0
 22 23  1  0
  2 24  1  0
  3 25  1  0
  7 26  1  0
  7 27  1  0
  8 28  1  0
  8 29  1  0
  9 30  1  0
  9 31  1  0
 10 32  1  0
 10 33  1  0
 11 34  1  0
 11 35  1  0
 12 36  1  0
 12 37  1  0
 13 38  1  0
 14 39  1  0
 16 40  1  0
 17 41  1  0
 21 42  1  0
 22 43  1  0
 22 44  1  0
 23 45  1  0
 23 46  1  0
M  ISO  8  24  14  25   9  26  13  27  13  28  13  29  13  30  13  31  13
M  ISO  8  32  13  33  13  34  13  35  13  36   8  37   8  40  14  41  14
M  ISO  5  42  13  43  13  44  13  45  13  46  13
M  END
>  <minimizedAffinity>  (1) 
-5.90147161

>  <minimizedRMSD>  (1) 
0.485265374

$$$$
