
     RDKit          3D

 46 49  0  0  1  0  0  0  0  0999 V2000
   45.6560   34.9000   42.0720 C   0  0  0  0  0  0  0  0  0  0  0  0
   46.8130   34.7460   41.4160 C   0  0  0  0  0  0  0  0  0  0  0  0
   44.0670   33.5600   40.6250 C   0  0  0  0  0  0  0  0  0  0  0  0
   44.3540   34.7090   41.4150 C   0  0  0  0  0  0  0  0  0  0  0  0
   43.3630   35.6750   41.5810 C   0  0  0  0  0  0  0  0  0  0  0  0
   42.1510   35.4830   40.9790 N   0  0  0  0  0  0  0  0  0  0  0  0
   41.9170   34.3830   40.2410 C   0  0  0  0  0  0  0  0  0  0  0  0
   42.8750   33.4630   40.0870 N   0  0  0  0  0  0  0  0  0  0  0  0
   39.7160   33.5730   41.7310 F   0  0  0  0  0  0  0  0  0  0  0  0
   39.5270   33.8000   40.3970 C   0  0  0  0  0  0  0  0  0  0  0  0
   40.6180   34.2060   39.6180 C   0  0  0  0  0  0  0  0  0  0  0  0
   40.4990   34.4500   38.2700 C   0  0  0  0  0  0  0  0  0  0  0  0
   39.2460   34.2770   37.6950 C   0  0  0  0  0  0  0  0  0  0  0  0
   38.1280   33.8670   38.4620 C   0  0  0  0  0  0  0  0  0  0  0  0
   38.2840   33.6280   39.8240 C   0  0  0  0  0  0  0  0  0  0  0  0
   48.1130   34.9520   42.1450 C   0  0  0  0  0  0  0  0  0  0  0  0
   49.1920   34.1880   41.5950 N   0  0  0  0  0  0  0  0  0  0  0  0
   50.3380   34.1880   42.4560 C   0  0  0  0  0  0  0  0  0  0  0  0
   51.0330   32.8660   42.2920 C   0  0  0  0  0  0  0  0  0  0  0  0
   49.8690   31.9650   41.9860 C   0  0  0  0  0  0  0  0  0  0  0  0
   48.8350   32.8440   41.2960 C   0  0  2  0  0  0  0  0  0  0  0  0
   49.1040   32.6230   39.8050 C   0  0  0  0  0  0  0  0  0  0  0  0
   49.0580   31.2990   39.1890 C   0  0  0  0  0  0  0  0  0  0  0  0
   47.9630   32.2450   38.9020 C   0  0  0  0  0  0  0  0  0  0  0  0
   45.6800   35.1782   43.1360 H   0  0  0  0  0  0  0  0  0  0  0  0
   46.8131   34.4707   40.3510 H   0  0  0  0  0  0  0  0  0  0  0  0
   44.8232   32.7763   40.4703 H   0  0  0  0  0  0  0  0  0  0  0  0
   43.5527   36.5746   42.1849 H   0  0  0  0  0  0  0  0  0  0  0  0
   41.3632   34.7701   37.6695 H   0  0  0  0  0  0  0  0  0  0  0  0
   39.1192   34.4629   36.6183 H   0  0  0  0  0  0  0  0  0  0  0  0
   37.1451   33.7386   37.9852 H   0  0  0  0  0  0  0  0  0  0  0  0
   37.4279   33.3064   40.4353 H   0  0  0  0  0  0  0  0  0  0  0  0
   48.3776   36.0185   42.0945 H   0  0  0  0  0  0  0  0  0  0  0  0
   47.9656   34.6132   43.1811 H   0  0  0  0  0  0  0  0  0  0  0  0
   51.0177   35.0059   42.1749 H   0  0  0  0  0  0  0  0  0  0  0  0
   50.0334   34.3357   43.5026 H   0  0  0  0  0  0  0  0  0  0  0  0
   51.7547   32.8894   41.4621 H   0  0  0  0  0  0  0  0  0  0  0  0
   51.6290   32.5563   43.1631 H   0  0  0  0  0  0  0  0  0  0  0  0
   50.1821   31.1472   41.3203 H   0  0  0  0  0  0  0  0  0  0  0  0
   49.4638   31.5027   42.8982 H   0  0  0  0  0  0  0  0  0  0  0  0
   47.7954   32.6342   41.5878 H   0  0  0  0  0  0  0  0  0  0  0  0
   49.8626   33.4187   39.8431 H   0  0  0  0  0  0  0  0  0  0  0  0
   49.7768   31.0402   38.3976 H   0  0  0  0  0  0  0  0  0  0  0  0
   49.1029   30.2700   39.5751 H   0  0  0  0  0  0  0  0  0  0  0  0
   47.8721   32.7003   37.9048 H   0  0  0  0  0  0  0  0  0  0  0  0
   46.8665   32.2264   38.9881 H   0  0  0  0  0  0  0  0  0  0  0  0
  2  1  2  0
  2 16  1  0
  3  4  2  0
  4  5  1  0
  4  1  1  0
  6  5  2  0
  7  6  1  0
  8  7  2  0
  8  3  1  0
 10  9  1  0
 11  7  1  0
 11 10  2  0
 12 11  1  0
 13 12  2  0
 13 14  1  0
 14 15  2  0
 15 10  1  0
 17 16  1  0
 17 18  1  0
 19 18  1  0
 20 19  1  0
 21 17  1  0
 21 20  1  0
 22 21  1  0
 23 22  1  0
 24 23  1  0
 24 22  1  0
  1 25  1  0
  2 26  1  0
  3 27  1  0
  5 28  1  0
 12 29  1  0
 13 30  1  0
 14 31  1  0
 15 32  1  0
 16 33  1  0
 16 34  1  0
 18 35  1  0
 18 36  1  0
 19 37  1  0
 19 38  1  0
 20 39  1  0
 20 40  1  0
 21 41  1  6
 22 42  1  0
 23 43  1  0
 23 44  1  0
 24 45  1  0
 24 46  1  0
M  ISO  8  27  14  28  14  29  14  30  14  31  14  32  14  33   8  34   8
M  ISO  8  35  13  36  13  37  13  38  13  39  13  40  13  41  13  42  13
M  ISO  4  43  13  44  13  45  13  46  13
M  END
>  <minimizedAffinity>  (1) 
-5.96542883

>  <minimizedRMSD>  (1) 
0.737742245

$$$$
