
     RDKit          3D

 38 40  0  0  0  0  0  0  0  0999 V2000
   41.8860   35.1590   41.5520 C   0  0  0  0  0  0  0  0  0  0  0  0
   40.9970   36.0530   40.7530 C   0  0  0  0  0  0  0  0  0  0  0  0
   41.8180   36.2700   37.8250 Cl  0  0  0  0  0  0  0  0  0  0  0  0
   40.4860   35.3040   38.4090 C   0  0  0  0  0  0  0  0  0  0  0  0
   40.2000   35.2800   39.7740 C   0  0  0  0  0  0  0  0  0  0  0  0
   39.1400   34.4980   40.1480 C   0  0  0  0  0  0  0  0  0  0  0  0
   38.3320   33.7380   39.3060 C   0  0  0  0  0  0  0  0  0  0  0  0
   38.6420   33.7830   37.9660 C   0  0  0  0  0  0  0  0  0  0  0  0
   37.6790   32.8540   36.8140 Cl  0  0  0  0  0  0  0  0  0  0  0  0
   39.7060   34.5600   37.5350 C   0  0  0  0  0  0  0  0  0  0  0  0
   43.4410   34.7780   40.7550 S   0  0  0  0  0  0  0  0  0  0  0  0
   44.8070   34.6430   41.9060 C   0  0  0  0  0  0  0  0  0  0  0  0
   46.0940   34.6650   41.3540 C   0  0  0  0  0  0  0  0  0  0  0  0
   47.1810   34.5620   42.2180 C   0  0  0  0  0  0  0  0  0  0  0  0
   46.9320   34.4460   43.5410 N   0  0  0  0  0  0  0  0  0  0  0  0
   45.6880   34.4260   44.0570 C   0  0  0  0  0  0  0  0  0  0  0  0
   44.6430   34.5250   43.2310 N   0  0  0  0  0  0  0  0  0  0  0  0
   45.5560   34.2980   45.4900 C   0  0  0  0  0  0  0  0  0  0  0  0
   44.5930   34.8950   46.0430 O   0  0  0  0  0  0  0  0  0  0  0  0
   46.5440   33.4930   46.1730 N   0  0  0  0  0  0  0  0  0  0  0  0
   48.5560   34.5830   41.6610 C   0  0  0  0  0  0  0  0  0  0  0  0
   49.1180   35.9920   41.5450 C   0  0  0  0  0  0  0  0  0  0  0  0
   49.7240   34.9740   42.4670 C   0  0  0  0  0  0  0  0  0  0  0  0
   42.1008   35.6526   42.5113 H   0  0  0  0  0  0  0  0  0  0  0  0
   41.3504   34.2063   41.6763 H   0  0  0  0  0  0  0  0  0  0  0  0
   40.3139   36.5815   41.4342 H   0  0  0  0  0  0  0  0  0  0  0  0
   41.6262   36.7680   40.2026 H   0  0  0  0  0  0  0  0  0  0  0  0
   38.9028   34.4670   41.2217 H   0  0  0  0  0  0  0  0  0  0  0  0
   37.4947   33.1367   39.6897 H   0  0  0  0  0  0  0  0  0  0  0  0
   39.9407   34.5879   36.4607 H   0  0  0  0  0  0  0  0  0  0  0  0
   46.2419   34.7610   40.2682 H   0  0  0  0  0  0  0  0  0  0  0  0
   46.4926   33.3716   47.1945 H   0  0  0  0  0  0  0  0  0  0  0  0
   47.2992   33.0410   45.6380 H   0  0  0  0  0  0  0  0  0  0  0  0
   48.3792   33.7015   41.0272 H   0  0  0  0  0  0  0  0  0  0  0  0
   49.6515   36.3032   40.6348 H   0  0  0  0  0  0  0  0  0  0  0  0
   48.7175   37.0110   41.6507 H   0  0  0  0  0  0  0  0  0  0  0  0
   49.6205   35.0936   43.5556 H   0  0  0  0  0  0  0  0  0  0  0  0
   50.7363   34.5654   42.6019 H   0  0  0  0  0  0  0  0  0  0  0  0
  2  1  1  0
  3  4  1  0
  4  5  2  0
  5  6  1  0
  5  2  1  0
  7  6  2  0
  8  7  1  0
  9  8  1  0
 10  8  2  0
 10  4  1  0
 11  1  1  0
 11 12  1  0
 12 17  1  0
 13 12  2  0
 13 14  1  0
 14 15  2  0
 15 16  1  0
 16 18  1  0
 17 16  2  0
 18 19  2  0
 18 20  1  0
 21 14  1  0
 21 23  1  0
 22 21  1  0
 22 23  1  0
  1 24  1  0
  1 25  1  0
  2 26  1  0
  2 27  1  0
  6 28  1  0
  7 29  1  0
 10 30  1  0
 13 31  1  0
 20 32  1  0
 20 33  1  0
 21 34  1  0
 22 35  1  0
 22 36  1  0
 23 37  1  0
 23 38  1  0
M  ISO  8  24   8  25   8  26   8  27   8  28  14  29  14  30  14  31  14
M  ISO  5  34  13  35  13  36  13  37  13  38  13
M  END
>  <minimizedAffinity>  (1) 
-7.30080414

>  <minimizedRMSD>  (1) 
0.289985985

$$$$
