
     RDKit          3D

 37 41  0  0  0  0  0  0  0  0999 V2000
   45.3590   34.8070   43.2570 C   0  0  0  0  0  0  0  0  0  0  0  0
   46.0420   33.7270   43.8750 C   0  0  0  0  0  0  0  0  0  0  0  0
   45.9140   33.5900   45.2430 C   0  0  0  0  0  0  0  0  0  0  0  0
   45.1530   34.4760   45.9200 N   0  0  0  0  0  0  0  0  0  0  0  0
   44.5070   35.5010   45.3130 C   0  0  0  0  0  0  0  0  0  0  0  0
   44.6140   35.6560   44.0010 N   0  0  0  0  0  0  0  0  0  0  0  0
   46.8620   32.7940   47.3390 C   0  0  0  0  0  0  0  0  0  0  0  0
   46.5590   32.5290   46.0140 C   0  0  0  0  0  0  0  0  0  0  0  0
   46.8810   31.2930   45.5140 C   0  0  0  0  0  0  0  0  0  0  0  0
   47.4880   30.3210   46.2790 C   0  0  0  0  0  0  0  0  0  0  0  0
   47.8880   29.0600   46.0010 N   0  0  0  0  0  0  0  0  0  0  0  0
   48.4420   28.5400   47.1590 C   0  0  0  0  0  0  0  0  0  0  0  0
   48.3670   29.4900   48.1070 N   0  0  0  0  0  0  0  0  0  0  0  0
   47.7900   30.5780   47.5860 C   0  0  0  0  0  0  0  0  0  0  0  0
   47.4750   31.8170   48.1180 C   0  0  0  0  0  0  0  0  0  0  0  0
   45.4850   34.9500   41.8750 O   0  0  0  0  0  0  0  0  0  0  0  0
   44.3610   34.8250   41.0630 C   0  0  0  0  0  0  0  0  0  0  0  0
   44.6910   33.7390   40.3360 C   0  0  0  0  0  0  0  0  0  0  0  0
   43.1640   33.5380   39.2110 S   0  0  0  0  0  0  0  0  0  0  0  0
   42.3930   35.0600   40.0360 C   0  0  0  0  0  0  0  0  0  0  0  0
   43.1860   35.3180   40.7520 N   0  0  0  0  0  0  0  0  0  0  0  0
   41.0330   35.5880   39.6420 C   0  0  0  0  0  0  0  0  0  0  0  0
   39.8280   34.9830   40.2710 C   0  0  0  0  0  0  0  0  0  0  0  0
   40.2420   36.3410   40.6390 C   0  0  0  0  0  0  0  0  0  0  0  0
   46.6507   33.0252   43.2859 H   0  0  0  0  0  0  0  0  0  0  0  0
   43.8979   36.1998   45.9052 H   0  0  0  0  0  0  0  0  0  0  0  0
   46.6188   33.7743   47.7748 H   0  0  0  0  0  0  0  0  0  0  0  0
   46.6458   31.0694   44.4630 H   0  0  0  0  0  0  0  0  0  0  0  0
   47.7976   28.5760   45.0963 H   0  0  0  0  0  0  0  0  0  0  0  0
   48.8663   27.5325   47.2808 H   0  0  0  0  0  0  0  0  0  0  0  0
   47.7124   32.0320   49.1703 H   0  0  0  0  0  0  0  0  0  0  0  0
   45.6042   33.1273   40.3801 H   0  0  0  0  0  0  0  0  0  0  0  0
   41.3705   35.7753   38.6119 H   0  0  0  0  0  0  0  0  0  0  0  0
   38.9160   34.8285   39.6758 H   0  0  0  0  0  0  0  0  0  0  0  0
   39.6233   34.0554   40.8257 H   0  0  0  0  0  0  0  0  0  0  0  0
   40.6605   36.5347   41.6377 H   0  0  0  0  0  0  0  0  0  0  0  0
   39.7479   37.3237   40.6525 H   0  0  0  0  0  0  0  0  0  0  0  0
  1  2  2  0
  1  6  1  0
  2  3  1  0
  3  4  2  0
  3  8  1  0
  5  4  1  0
  6  5  2  0
  7 15  2  0
  8  7  1  0
  9  8  2  0
  9 10  1  0
 10 14  2  0
 11 10  1  0
 11 12  1  0
 12 13  2  0
 14 13  1  0
 14 15  1  0
 16  1  1  0
 17 16  1  0
 18 17  2  0
 19 20  1  0
 19 18  1  0
 20 21  2  0
 21 17  1  0
 22 20  1  0
 22 23  1  0
 22 24  1  0
 23 24  1  0
  2 25  1  0
  5 26  1  0
  7 27  1  0
  9 28  1  0
 11 29  1  0
 12 30  1  0
 15 31  1  0
 18 32  1  0
 22 33  1  0
 23 34  1  0
 23 35  1  0
 24 36  1  0
 24 37  1  0
M  ISO  8  25  14  26  14  27  14  28  14  29   9  30  14  31  14  32  14
M  ISO  5  33  13  34  13  35  13  36  13  37  13
M  END
>  <minimizedAffinity>  (1) 
-6.29104996

>  <minimizedRMSD>  (1) 
0.519810319

$$$$
