
     RDKit          3D

 26 28  0  0  1  0  0  0  0  0999 V2000
   44.5340   35.6040   45.0200 C   0  0  0  0  0  0  0  0  0  0  0  0
   45.0940   35.6800   43.7270 C   0  0  0  0  0  0  0  0  0  0  0  0
   46.0300   34.7290   43.4330 C   0  0  0  0  0  0  0  0  0  0  0  0
   46.3890   33.7630   44.3670 N   0  0  0  0  0  0  0  0  0  0  0  0
   45.8290   33.7330   45.5810 C   0  0  0  0  0  0  0  0  0  0  0  0
   44.8890   34.6660   45.9090 N   0  0  0  0  0  0  0  0  0  0  0  0
   46.6140   34.6780   42.0430 C   0  0  1  0  0  0  0  0  0  0  0  0
   48.0290   35.3110   42.0350 C   0  0  0  0  0  0  0  0  0  0  0  0
   47.7040   33.8120   41.7780 C   0  0  2  0  0  0  0  0  0  0  0  0
   47.9270   33.3060   40.3770 C   0  0  0  0  0  0  0  0  0  0  0  0
   46.9160   33.4960   39.3190 C   0  0  0  0  0  0  0  0  0  0  0  0
   48.1110   34.3980   39.3060 C   0  0  0  0  0  0  0  0  0  0  0  0
   44.7390   36.7000   42.8010 N   0  0  0  0  0  0  0  0  0  0  0  0
   43.7748   36.3452   45.3102 H   0  0  0  0  0  0  0  0  0  0  0  0
   46.1237   32.9627   46.3089 H   0  0  0  0  0  0  0  0  0  0  0  0
   45.6617   34.8022   41.5067 H   0  0  0  0  0  0  0  0  0  0  0  0
   48.3492   35.9687   41.2135 H   0  0  0  0  0  0  0  0  0  0  0  0
   48.6578   35.8971   42.7214 H   0  0  0  0  0  0  0  0  0  0  0  0
   48.0215   32.8575   42.2232 H   0  0  0  0  0  0  0  0  0  0  0  0
   48.4664   32.4192   40.7412 H   0  0  0  0  0  0  0  0  0  0  0  0
   46.8019   32.7343   38.5337 H   0  0  0  0  0  0  0  0  0  0  0  0
   45.8296   33.6683   39.3234 H   0  0  0  0  0  0  0  0  0  0  0  0
   48.8808   34.2884   38.5280 H   0  0  0  0  0  0  0  0  0  0  0  0
   48.2788   35.4851   39.3086 H   0  0  0  0  0  0  0  0  0  0  0  0
   45.1711   36.7201   41.8663 H   0  0  0  0  0  0  0  0  0  0  0  0
   44.0498   37.4184   43.0653 H   0  0  0  0  0  0  0  0  0  0  0  0
  1  6  2  0
  2  1  1  0
  3  2  2  0
  3  4  1  0
  4  5  2  0
  5  6  1  0
  7  3  1  0
  8  7  1  0
  9  8  1  0
  9  7  1  0
 10  9  1  0
 11 10  1  0
 12 11  1  0
 12 10  1  0
 13  2  1  0
  1 14  1  0
  5 15  1  0
  7 16  1  6
  8 17  1  0
  8 18  1  0
  9 19  1  1
 10 20  1  0
 11 21  1  0
 11 22  1  0
 12 23  1  0
 12 24  1  0
 13 25  1  0
 13 26  1  0
M  ISO  8  14  14  15  14  16  13  17  13  18  13  19  13  20  13  21  13
M  ISO  3  22  13  23  13  24  13
M  END
>  <minimizedAffinity>  (1) 
-4.47439671

>  <minimizedRMSD>  (1) 
0.497384548

$$$$
