
     RDKit          3D

 28 30  0  0  0  0  0  0  0  0999 V2000
   43.4340   33.7550   39.5260 S   0  0  0  0  0  0  0  0  0  0  0  0
   41.2960   32.1160   37.8000 Cl  0  0  0  0  0  0  0  0  0  0  0  0
   40.7210   33.4270   38.8040 C   0  0  0  0  0  0  0  0  0  0  0  0
   41.6940   34.0820   39.5140 C   0  0  0  0  0  0  0  0  0  0  0  0
   41.2980   35.1400   40.3360 C   0  0  0  0  0  0  0  0  0  0  0  0
   39.9540   35.4850   40.4040 C   0  0  0  0  0  0  0  0  0  0  0  0
   38.9740   34.8310   39.6950 C   0  0  0  0  0  0  0  0  0  0  0  0
   39.3930   33.7770   38.8800 C   0  0  0  0  0  0  0  0  0  0  0  0
   38.2410   32.8540   37.9170 Cl  0  0  0  0  0  0  0  0  0  0  0  0
   44.0660   33.3380   41.1470 C   0  0  0  0  0  0  0  0  0  0  0  0
   44.0590   31.9680   41.4460 C   0  0  0  0  0  0  0  0  0  0  0  0
   44.5450   31.5750   42.7120 C   0  0  0  0  0  0  0  0  0  0  0  0
   44.9860   32.5280   43.5570 N   0  0  0  0  0  0  0  0  0  0  0  0
   44.9760   33.8370   43.2330 C   0  0  0  0  0  0  0  0  0  0  0  0
   44.5170   34.2640   42.0240 N   0  0  0  0  0  0  0  0  0  0  0  0
   45.4590   34.9130   44.1530 C   0  0  0  0  0  0  0  0  0  0  0  0
   44.7180   36.2290   44.1740 C   0  0  0  0  0  0  0  0  0  0  0  0
   44.6800   35.2410   45.3730 C   0  0  0  0  0  0  0  0  0  0  0  0
   42.0438   35.6949   40.9241 H   0  0  0  0  0  0  0  0  0  0  0  0
   39.6599   36.3208   41.0558 H   0  0  0  0  0  0  0  0  0  0  0  0
   37.9157   35.1226   39.7660 H   0  0  0  0  0  0  0  0  0  0  0  0
   43.6889   31.2275   40.7216 H   0  0  0  0  0  0  0  0  0  0  0  0
   44.5633   30.5142   43.0024 H   0  0  0  0  0  0  0  0  0  0  0  0
   46.5055   34.6214   43.9803 H   0  0  0  0  0  0  0  0  0  0  0  0
   45.2708   37.1768   44.2523 H   0  0  0  0  0  0  0  0  0  0  0  0
   43.9723   36.7258   43.5360 H   0  0  0  0  0  0  0  0  0  0  0  0
   43.7571   34.6884   45.6028 H   0  0  0  0  0  0  0  0  0  0  0  0
   44.9049   35.3090   46.4476 H   0  0  0  0  0  0  0  0  0  0  0  0
  1 10  1  0
  2  3  1  0
  3  8  2  0
  3  4  1  0
  4  1  1  0
  4  5  2  0
  5  6  1  0
  7  6  2  0
  8  7  1  0
  9  8  1  0
 10 11  2  0
 10 15  1  0
 11 12  1  0
 12 13  2  0
 14 13  1  0
 14 16  1  0
 15 14  2  0
 16 17  1  0
 16 18  1  0
 17 18  1  0
  5 19  1  0
  6 20  1  0
  7 21  1  0
 11 22  1  0
 12 23  1  0
 16 24  1  0
 17 25  1  0
 17 26  1  0
 18 27  1  0
 18 28  1  0
M  ISO  8  19  14  20  14  21  14  22  14  23  14  24  13  25  13  26  13
M  ISO  2  27  13  28  13
M  END
>  <minimizedAffinity>  (1) 
-4.96230793

>  <minimizedRMSD>  (1) 
2.39970517

$$$$
