
     RDKit          3D

 18 19  0  0  0  0  0  0  0  0999 V2000
   46.0480   34.3400   43.0470 C   0  0  0  0  0  0  0  0  0  0  0  0
   45.8770   34.4490   41.6600 C   0  0  0  0  0  0  0  0  0  0  0  0
   47.0050   34.4050   40.8490 C   0  0  0  0  0  0  0  0  0  0  0  0
   48.2270   34.2580   41.4430 N   0  0  0  0  0  0  0  0  0  0  0  0
   48.3530   34.1560   42.7870 C   0  0  0  0  0  0  0  0  0  0  0  0
   47.2840   34.1950   43.5930 N   0  0  0  0  0  0  0  0  0  0  0  0
   44.8660   34.3830   43.9490 C   0  0  0  0  0  0  0  0  0  0  0  0
   45.2450   34.5010   45.4040 C   0  0  0  0  0  0  0  0  0  0  0  0
   44.6260   35.6470   44.6910 C   0  0  0  0  0  0  0  0  0  0  0  0
   44.2440   34.6400   40.9520 S   0  0  0  0  0  0  0  0  0  0  0  0
   46.9163   34.4865   39.7556 H   0  0  0  0  0  0  0  0  0  0  0  0
   49.3546   34.0386   43.2264 H   0  0  0  0  0  0  0  0  0  0  0  0
   44.2286   33.7340   43.3306 H   0  0  0  0  0  0  0  0  0  0  0  0
   44.6740   33.9539   46.1686 H   0  0  0  0  0  0  0  0  0  0  0  0
   46.1661   34.3488   45.9857 H   0  0  0  0  0  0  0  0  0  0  0  0
   45.2281   36.5386   44.4620 H   0  0  0  0  0  0  0  0  0  0  0  0
   43.7457   36.2821   44.8690 H   0  0  0  0  0  0  0  0  0  0  0  0
   43.3200   34.7481   41.9577 H   0  0  0  0  0  0  0  0  0  0  0  0
  1  6  1  0
  1  7  1  0
  2  1  2  0
  3  4  2  0
  3  2  1  0
  4  5  1  0
  5  6  2  0
  7  9  1  0
  7  8  1  0
  9  8  1  0
 10  2  1  0
  3 11  1  0
  5 12  1  0
  7 13  1  0
  8 14  1  0
  8 15  1  0
  9 16  1  0
  9 17  1  0
 10 18  1  0
M  ISO  8  11  14  12  14  13  13  14  13  15  13  16  13  17  13  18  11
M  END
>  <minimizedAffinity>  (1) 
-3.2306869

>  <minimizedRMSD>  (1) 
3.18378091

$$$$
