
     RDKit          3D

 27 29  0  0  1  0  0  0  0  0999 V2000
   42.7350   34.3450   40.8370 C   0  0  1  0  0  0  0  0  0  0  0  0
   41.9300   35.6140   40.4050 C   0  0  1  0  0  0  0  0  0  0  0  0
   42.4690   34.5830   39.4540 C   0  0  0  0  0  0  0  0  0  0  0  0
   43.9920   34.7100   41.5130 C   0  0  0  0  0  0  0  0  0  0  0  0
   43.9280   35.4700   42.7150 C   0  0  0  0  0  0  0  0  0  0  0  0
   45.0970   35.8260   43.3930 C   0  0  0  0  0  0  0  0  0  0  0  0
   46.2710   35.4040   42.8370 N   0  0  0  0  0  0  0  0  0  0  0  0
   46.2890   34.6740   41.6810 C   0  0  0  0  0  0  0  0  0  0  0  0
   45.1790   34.3410   41.0430 N   0  0  0  0  0  0  0  0  0  0  0  0
   47.6170   34.2420   41.1260 C   0  0  0  0  0  0  0  0  0  0  0  0
   47.9920   34.5800   39.7420 C   0  0  0  0  0  0  0  0  0  0  0  0
   48.6610   35.3200   40.9120 C   0  0  0  0  0  0  0  0  0  0  0  0
   40.4460   35.5090   40.6710 C   0  0  0  0  0  0  0  0  0  0  0  0
   39.8340   36.7420   40.7320 F   0  0  0  0  0  0  0  0  0  0  0  0
   39.8590   34.8090   39.6060 F   0  0  0  0  0  0  0  0  0  0  0  0
   40.2030   34.7620   41.8030 F   0  0  0  0  0  0  0  0  0  0  0  0
   42.6206   33.4239   41.4273 H   0  0  0  0  0  0  0  0  0  0  0  0
   42.0054   36.7042   40.5306 H   0  0  0  0  0  0  0  0  0  0  0  0
   41.7672   33.9248   38.9208 H   0  0  0  0  0  0  0  0  0  0  0  0
   43.1142   34.6458   38.5653 H   0  0  0  0  0  0  0  0  0  0  0  0
   42.9505   35.7795   43.1133 H   0  0  0  0  0  0  0  0  0  0  0  0
   45.0730   36.4134   44.3227 H   0  0  0  0  0  0  0  0  0  0  0  0
   47.5709   33.2910   41.6768 H   0  0  0  0  0  0  0  0  0  0  0  0
   47.2784   35.1097   39.0938 H   0  0  0  0  0  0  0  0  0  0  0  0
   48.3569   34.0084   38.8759 H   0  0  0  0  0  0  0  0  0  0  0  0
   49.7157   35.1301   41.1601 H   0  0  0  0  0  0  0  0  0  0  0  0
   48.7879   36.3698   41.2152 H   0  0  0  0  0  0  0  0  0  0  0  0
  1  4  1  0
  2 13  1  0
  2  1  1  0
  3  2  1  0
  3  1  1  0
  4  5  2  0
  5  6  1  0
  7  6  2  0
  8  7  1  0
  9  4  1  0
  9  8  2  0
 10  8  1  0
 11 12  1  0
 11 10  1  0
 12 10  1  0
 13 14  1  0
 13 16  1  0
 15 13  1  0
  1 17  1  1
  2 18  1  6
  3 19  1  0
  3 20  1  0
  5 21  1  0
  6 22  1  0
 10 23  1  0
 11 24  1  0
 11 25  1  0
 12 26  1  0
 12 27  1  0
M  ISO  8  17  13  18  13  19  13  20  13  21  14  22  14  23  13  24  13
M  ISO  3  25  13  26  13  27  13
M  END
>  <minimizedAffinity>  (1) 
-5.30855465

>  <minimizedRMSD>  (1) 
5.91468525

$$$$
