
     RDKit          3D

 38 41  0  0  0  0  0  0  0  0999 V2000
   45.0460   33.8560   43.8000 C   0  0  0  0  0  0  0  0  0  0  0  0
   45.0510   35.1830   44.1590 C   0  0  0  0  0  0  0  0  0  0  0  0
   44.1890   35.8710   43.3380 C   0  0  0  0  0  0  0  0  0  0  0  0
   43.6750   34.8990   42.4810 C   0  0  0  0  0  0  0  0  0  0  0  0
   44.2090   33.7630   42.7990 O   0  0  0  0  0  0  0  0  0  0  0  0
   42.7050   35.1580   41.4190 C   0  0  0  0  0  0  0  0  0  0  0  0
   43.0530   34.9770   40.0990 C   0  0  0  0  0  0  0  0  0  0  0  0
   42.1770   35.2060   39.0510 C   0  0  0  0  0  0  0  0  0  0  0  0
   40.9100   35.6390   39.4510 C   0  0  0  0  0  0  0  0  0  0  0  0
   40.5500   35.8240   40.7500 C   0  0  0  0  0  0  0  0  0  0  0  0
   41.4570   35.5790   41.7220 N   0  0  0  0  0  0  0  0  0  0  0  0
   45.8580   32.7840   44.4610 C   0  0  0  0  0  0  0  0  0  0  0  0
   48.9060   31.1660   43.2020 C   0  0  0  0  0  0  0  0  0  0  0  0
   49.5060   32.1590   42.4220 C   0  0  0  0  0  0  0  0  0  0  0  0
   48.8530   33.3680   42.3420 C   0  0  0  0  0  0  0  0  0  0  0  0
   47.6870   33.5540   43.0000 N   0  0  0  0  0  0  0  0  0  0  0  0
   47.1400   32.5700   43.7430 C   0  0  0  0  0  0  0  0  0  0  0  0
   47.7650   31.3780   43.8340 N   0  0  0  0  0  0  0  0  0  0  0  0
   50.7250   31.8450   41.7830 N   0  0  0  0  0  0  0  0  0  0  0  0
   49.4830   34.4390   41.5120 C   0  0  0  0  0  0  0  0  0  0  0  0
   48.6250   35.4130   40.7920 C   0  0  0  0  0  0  0  0  0  0  0  0
   49.3360   35.8940   42.0050 C   0  0  0  0  0  0  0  0  0  0  0  0
   45.6479   35.6231   44.9714 H   0  0  0  0  0  0  0  0  0  0  0  0
   43.9572   36.9462   43.3538 H   0  0  0  0  0  0  0  0  0  0  0  0
   44.0724   34.6352   39.8665 H   0  0  0  0  0  0  0  0  0  0  0  0
   42.4542   35.0599   37.9966 H   0  0  0  0  0  0  0  0  0  0  0  0
   40.1611   35.8418   38.6713 H   0  0  0  0  0  0  0  0  0  0  0  0
   39.5367   36.1676   41.0053 H   0  0  0  0  0  0  0  0  0  0  0  0
   46.0717   33.0822   45.4980 H   0  0  0  0  0  0  0  0  0  0  0  0
   45.2837   31.8460   44.4409 H   0  0  0  0  0  0  0  0  0  0  0  0
   49.3953   30.1849   43.2918 H   0  0  0  0  0  0  0  0  0  0  0  0
   51.1974   32.5504   41.1998 H   0  0  0  0  0  0  0  0  0  0  0  0
   51.1420   30.9105   41.8999 H   0  0  0  0  0  0  0  0  0  0  0  0
   50.3084   33.7739   41.2181 H   0  0  0  0  0  0  0  0  0  0  0  0
   48.9330   35.7791   39.8015 H   0  0  0  0  0  0  0  0  0  0  0  0
   47.5714   35.4127   40.4760 H   0  0  0  0  0  0  0  0  0  0  0  0
   48.7749   36.1127   42.9255 H   0  0  0  0  0  0  0  0  0  0  0  0
   50.0261   36.7188   42.2359 H   0  0  0  0  0  0  0  0  0  0  0  0
  1  2  2  0
  1 12  1  0
  3  2  1  0
  4  5  1  0
  4  3  2  0
  5  1  1  0
  6 11  1  0
  6  4  1  0
  7  6  2  0
  8  9  2  0
  8  7  1  0
  9 10  1  0
 10 11  2  0
 13 18  2  0
 14 13  1  0
 15 14  2  0
 15 16  1  0
 16 17  2  0
 17 18  1  0
 17 12  1  0
 19 14  1  0
 20 22  1  0
 20 15  1  0
 21 20  1  0
 21 22  1  0
  2 23  1  0
  3 24  1  0
  7 25  1  0
  8 26  1  0
  9 27  1  0
 10 28  1  0
 12 29  1  0
 12 30  1  0
 13 31  1  0
 19 32  1  0
 19 33  1  0
 20 34  1  0
 21 35  1  0
 21 36  1  0
 22 37  1  0
 22 38  1  0
M  ISO  8  23  14  24  14  25  14  26  14  27  14  28  14  29   8  30   8
M  ISO  6  31  14  34  13  35  13  36  13  37  13  38  13
M  END
>  <minimizedAffinity>  (1) 
-5.46681976

>  <minimizedRMSD>  (1) 
1.58999932

$$$$
