
     RDKit          3D

 30 32  0  0  1  0  0  0  0  0999 V2000
   47.4370   34.8640   41.5860 C   0  0  0  0  0  0  0  0  0  0  0  0
   48.9320   34.6820   41.4780 C   0  0  1  0  0  0  0  0  0  0  0  0
   49.7770   35.3560   42.4810 C   0  0  0  0  0  0  0  0  0  0  0  0
   49.5580   33.8800   42.5510 C   0  0  2  0  0  0  0  0  0  0  0  0
   50.7830   33.0770   42.1240 C   0  0  0  0  0  0  0  0  0  0  0  0
   50.6990   32.0700   41.0650 C   0  0  0  0  0  0  0  0  0  0  0  0
   50.9160   31.6320   42.4910 C   0  0  0  0  0  0  0  0  0  0  0  0
   46.9390   33.7430   42.4790 C   0  0  0  0  0  0  0  0  0  0  0  0
   44.6520   36.0470   44.3470 C   0  0  0  0  0  0  0  0  0  0  0  0
   45.4130   35.5060   43.2940 C   0  0  0  0  0  0  0  0  0  0  0  0
   46.0690   34.3270   43.5330 C   0  0  0  0  0  0  0  0  0  0  0  0
   45.9560   33.7380   44.7550 N   0  0  0  0  0  0  0  0  0  0  0  0
   45.2340   34.2590   45.7330 C   0  0  0  0  0  0  0  0  0  0  0  0
   44.5800   35.4110   45.5420 N   0  0  0  0  0  0  0  0  0  0  0  0
   46.9714   34.7953   40.5918 H   0  0  0  0  0  0  0  0  0  0  0  0
   47.1816   35.8506   42.0000 H   0  0  0  0  0  0  0  0  0  0  0  0
   48.9273   34.6558   40.3783 H   0  0  0  0  0  0  0  0  0  0  0  0
   50.7616   35.7536   42.1939 H   0  0  0  0  0  0  0  0  0  0  0  0
   49.6407   36.1979   43.1758 H   0  0  0  0  0  0  0  0  0  0  0  0
   49.1838   33.1659   43.2994 H   0  0  0  0  0  0  0  0  0  0  0  0
   51.3979   33.9753   42.2821 H   0  0  0  0  0  0  0  0  0  0  0  0
   49.7363   31.8725   40.5708 H   0  0  0  0  0  0  0  0  0  0  0  0
   51.2244   31.9002   40.1136 H   0  0  0  0  0  0  0  0  0  0  0  0
   51.8893   31.2268   42.8047 H   0  0  0  0  0  0  0  0  0  0  0  0
   50.4131   30.9474   43.1898 H   0  0  0  0  0  0  0  0  0  0  0  0
   46.3632   33.0211   41.8812 H   0  0  0  0  0  0  0  0  0  0  0  0
   47.7916   33.2236   42.9408 H   0  0  0  0  0  0  0  0  0  0  0  0
   44.1113   36.9935   44.1992 H   0  0  0  0  0  0  0  0  0  0  0  0
   45.4786   36.0095   42.3182 H   0  0  0  0  0  0  0  0  0  0  0  0
   45.1710   33.7454   46.7037 H   0  0  0  0  0  0  0  0  0  0  0  0
  1  8  1  0
  2  1  1  0
  2  3  1  0
  2  4  1  0
  3  4  1  0
  5  7  1  0
  5  4  1  0
  6  5  1  0
  6  7  1  0
  8 11  1  0
  9 14  2  0
 10 11  2  0
 10  9  1  0
 11 12  1  0
 12 13  2  0
 14 13  1  0
  1 15  1  0
  1 16  1  0
  2 17  1  6
  3 18  1  0
  3 19  1  0
  4 20  1  1
  5 21  1  0
  6 22  1  0
  6 23  1  0
  7 24  1  0
  7 25  1  0
  8 26  1  0
  8 27  1  0
  9 28  1  0
 10 29  1  0
 13 30  1  0
M  ISO  8  15   8  16   8  17  13  18  13  19  13  20  13  21  13  22  13
M  ISO  8  23  13  24  13  25  13  26   8  27   8  28  14  29  14  30  14
M  END
>  <minimizedAffinity>  (1) 
-4.60034895

>  <minimizedRMSD>  (1) 
0.621492147

$$$$
