
     RDKit          3D

 24 26  0  0  0  0  0  0  0  0999 V2000
   45.8810   33.2880   46.3950 C   0  0  0  0  0  0  0  0  0  0  0  0
   45.1470   33.1190   47.5950 C   0  0  0  0  0  0  0  0  0  0  0  0
   45.5480   32.2040   48.4990 C   0  0  0  0  0  0  0  0  0  0  0  0
   46.6990   31.4370   48.2140 C   0  0  0  0  0  0  0  0  0  0  0  0
   47.2140   32.0670   46.5780 S   0  0  0  0  0  0  0  0  0  0  0  0
   44.4500   36.0550   44.3680 C   0  0  0  0  0  0  0  0  0  0  0  0
   45.1460   35.8460   43.1490 C   0  0  0  0  0  0  0  0  0  0  0  0
   46.0620   34.7760   43.0910 C   0  0  0  0  0  0  0  0  0  0  0  0
   46.2220   34.0050   44.2120 N   0  0  0  0  0  0  0  0  0  0  0  0
   45.5300   34.2520   45.3480 C   0  0  0  0  0  0  0  0  0  0  0  0
   44.6420   35.2760   45.4320 N   0  0  0  0  0  0  0  0  0  0  0  0
   47.4410   30.3670   48.9230 C   0  0  0  0  0  0  0  0  0  0  0  0
   48.6630   29.7760   48.2350 C   0  0  0  0  0  0  0  0  0  0  0  0
   48.7630   30.6860   49.4510 C   0  0  0  0  0  0  0  0  0  0  0  0
   44.2541   33.7318   47.7877 H   0  0  0  0  0  0  0  0  0  0  0  0
   44.9920   32.0579   49.4368 H   0  0  0  0  0  0  0  0  0  0  0  0
   43.7308   36.8845   44.4366 H   0  0  0  0  0  0  0  0  0  0  0  0
   44.9764   36.4970   42.2787 H   0  0  0  0  0  0  0  0  0  0  0  0
   46.6311   34.5665   42.1733 H   0  0  0  0  0  0  0  0  0  0  0  0
   46.5210   29.9469   49.3556 H   0  0  0  0  0  0  0  0  0  0  0  0
   48.8871   28.7026   48.3222 H   0  0  0  0  0  0  0  0  0  0  0  0
   49.0725   29.7680   47.2141 H   0  0  0  0  0  0  0  0  0  0  0  0
   49.1645   31.7041   49.3398 H   0  0  0  0  0  0  0  0  0  0  0  0
   49.2383   30.6006   50.4393 H   0  0  0  0  0  0  0  0  0  0  0  0
  1  5  1  0
  1  2  2  0
  2  3  1  0
  4  3  2  0
  4 12  1  0
  5  4  1  0
  6 11  2  0
  7  6  1  0
  8  7  2  0
  8  9  1  0
  9 10  2  0
 10 11  1  0
 10  1  1  0
 12 14  1  0
 13 12  1  0
 13 14  1  0
  2 15  1  0
  3 16  1  0
  6 17  1  0
  7 18  1  0
  8 19  1  0
 12 20  1  0
 13 21  1  0
 13 22  1  0
 14 23  1  0
 14 24  1  0
M  ISO  8  15  14  16  14  17  14  18  14  19  14  20  13  21  13  22  13
M  ISO  2  23  13  24  13
M  END
>  <minimizedAffinity>  (1) 
-4.44046307

>  <minimizedRMSD>  (1) 
0.506724179

$$$$
