
     RDKit          3D

 30 32  0  0  0  0  0  0  0  0999 V2000
   46.0140   34.5130   41.4900 C   0  0  0  0  0  0  0  0  0  0  0  0
   45.1690   33.9850   40.5480 C   0  0  0  0  0  0  0  0  0  0  0  0
   45.7270   33.4940   39.3970 C   0  0  0  0  0  0  0  0  0  0  0  0
   47.0870   33.5100   39.1540 C   0  0  0  0  0  0  0  0  0  0  0  0
   47.9130   34.0470   40.1210 C   0  0  0  0  0  0  0  0  0  0  0  0
   47.3900   34.5470   41.2820 C   0  0  0  0  0  0  0  0  0  0  0  0
   41.6340   35.1760   41.1680 C   0  0  0  0  0  0  0  0  0  0  0  0
   43.0050   35.1980   40.8650 C   0  0  0  0  0  0  0  0  0  0  0  0
   43.7440   33.9960   40.8590 C   0  0  0  0  0  0  0  0  0  0  0  0
   43.0440   32.8880   41.1530 N   0  0  0  0  0  0  0  0  0  0  0  0
   41.7470   32.8690   41.4400 C   0  0  0  0  0  0  0  0  0  0  0  0
   41.0390   34.0210   41.4460 N   0  0  0  0  0  0  0  0  0  0  0  0
   40.9450   36.4100   41.1600 N   0  0  0  0  0  0  0  0  0  0  0  0
   48.3030   35.1190   42.3030 C   0  0  0  0  0  0  0  0  0  0  0  0
   49.2520   36.1690   41.7050 C   0  0  0  0  0  0  0  0  0  0  0  0
   49.7540   34.8490   42.2650 C   0  0  0  0  0  0  0  0  0  0  0  0
   45.1080   35.4720   43.7400 N   0  0  0  0  0  0  0  0  0  0  0  0
   45.5130   35.0460   42.7150 C   0  0  0  0  0  0  0  0  0  0  0  0
   45.0619   33.0677   38.6315 H   0  0  0  0  0  0  0  0  0  0  0  0
   47.4995   33.1067   38.2174 H   0  0  0  0  0  0  0  0  0  0  0  0
   49.0003   34.0731   39.9567 H   0  0  0  0  0  0  0  0  0  0  0  0
   43.5023   36.1512   40.6326 H   0  0  0  0  0  0  0  0  0  0  0  0
   41.2491   31.9162   41.6727 H   0  0  0  0  0  0  0  0  0  0  0  0
   41.4496   37.2801   40.9383 H   0  0  0  0  0  0  0  0  0  0  0  0
   39.9383   36.4392   41.3759 H   0  0  0  0  0  0  0  0  0  0  0  0
   47.5723   35.0336   43.1208 H   0  0  0  0  0  0  0  0  0  0  0  0
   49.4477   37.1102   42.2396 H   0  0  0  0  0  0  0  0  0  0  0  0
   49.3361   36.7049   40.7481 H   0  0  0  0  0  0  0  0  0  0  0  0
   50.1481   34.0818   41.5824 H   0  0  0  0  0  0  0  0  0  0  0  0
   50.5032   34.5711   43.0209 H   0  0  0  0  0  0  0  0  0  0  0  0
  1 18  1  0
  2  9  1  0
  2  1  2  0
  3  2  1  0
  4  3  2  0
  4  5  1  0
  5  6  2  0
  6  1  1  0
  6 14  1  0
  7 12  2  0
  8  7  1  0
  9  8  2  0
  9 10  1  0
 10 11  2  0
 11 12  1  0
 13  7  1  0
 15 16  1  0
 15 14  1  0
 16 14  1  0
 18 17  3  0
  3 19  1  0
  4 20  1  0
  5 21  1  0
  8 22  1  0
 11 23  1  0
 13 24  1  0
 13 25  1  0
 14 26  1  0
 15 27  1  0
 15 28  1  0
 16 29  1  0
 16 30  1  0
M  ISO  8  19  14  20  14  21  14  22  14  23  14  26  13  27  13  28  13
M  ISO  2  29  13  30  13
M  END
>  <minimizedAffinity>  (1) 
-5.41743231

>  <minimizedRMSD>  (1) 
3.65781283

$$$$
