
     RDKit          3D

 38 41  0  0  1  0  0  0  0  0999 V2000
   40.7490   32.9700   39.5360 N   0  0  0  0  0  0  0  0  0  0  0  0
   41.3440   32.4000   40.7480 C   0  0  2  0  0  0  0  0  0  0  0  0
   40.3850   32.3270   41.8790 C   0  0  0  0  0  0  0  0  0  0  0  0
   39.0190   32.6080   41.4730 N   0  0  0  0  0  0  0  0  0  0  0  0
   38.8480   33.7800   40.6940 C   0  0  0  0  0  0  0  0  0  0  0  0
   40.1140   34.2210   40.0100 C   0  0  2  0  0  0  0  0  0  0  0  0
   44.4940   33.9880   41.4900 C   0  0  0  0  0  0  0  0  0  0  0  0
   43.5370   34.9430   41.8550 C   0  0  0  0  0  0  0  0  0  0  0  0
   42.2660   34.4430   41.6180 C   0  0  0  0  0  0  0  0  0  0  0  0
   42.4720   33.2240   41.1260 N   0  0  0  0  0  0  0  0  0  0  0  0
   43.7680   32.9600   41.0520 N   0  0  0  0  0  0  0  0  0  0  0  0
   48.1610   34.4400   40.7960 C   0  0  0  0  0  0  0  0  0  0  0  0
   46.7690   34.2680   40.5210 C   0  0  0  0  0  0  0  0  0  0  0  0
   45.9430   34.1590   41.6120 C   0  0  0  0  0  0  0  0  0  0  0  0
   46.4690   34.2210   42.8590 N   0  0  0  0  0  0  0  0  0  0  0  0
   47.7830   34.3830   43.1030 C   0  0  0  0  0  0  0  0  0  0  0  0
   48.6030   34.4900   42.0620 N   0  0  0  0  0  0  0  0  0  0  0  0
   39.9070   35.1470   38.8770 C   0  0  0  0  0  0  0  0  0  0  0  0
   40.3350   34.9010   37.5050 C   0  0  0  0  0  0  0  0  0  0  0  0
   41.1680   35.8280   38.3520 C   0  0  0  0  0  0  0  0  0  0  0  0
   40.0473   32.3308   39.1360 H   0  0  0  0  0  0  0  0  0  0  0  0
   41.6533   31.3681   40.5255 H   0  0  0  0  0  0  0  0  0  0  0  0
   40.4236   31.3151   42.3087 H   0  0  0  0  0  0  0  0  0  0  0  0
   40.6779   33.0916   42.6136 H   0  0  0  0  0  0  0  0  0  0  0  0
   38.6796   31.8070   40.9216 H   0  0  0  0  0  0  0  0  0  0  0  0
   38.0853   33.5826   39.9264 H   0  0  0  0  0  0  0  0  0  0  0  0
   38.5441   34.5874   41.3764 H   0  0  0  0  0  0  0  0  0  0  0  0
   40.7322   34.7931   40.7175 H   0  0  0  0  0  0  0  0  0  0  0  0
   43.7599   35.9383   42.2670 H   0  0  0  0  0  0  0  0  0  0  0  0
   41.3024   34.9424   41.7967 H   0  0  0  0  0  0  0  0  0  0  0  0
   48.8748   34.5320   39.9642 H   0  0  0  0  0  0  0  0  0  0  0  0
   46.3812   34.2253   39.4925 H   0  0  0  0  0  0  0  0  0  0  0  0
   48.1668   34.4256   44.1330 H   0  0  0  0  0  0  0  0  0  0  0  0
   38.9216   35.4201   39.2824 H   0  0  0  0  0  0  0  0  0  0  0  0
   39.7463   35.3080   36.6697 H   0  0  0  0  0  0  0  0  0  0  0  0
   40.5517   33.9945   36.9208 H   0  0  0  0  0  0  0  0  0  0  0  0
   42.1600   35.5150   38.7097 H   0  0  0  0  0  0  0  0  0  0  0  0
   41.5345   36.8619   38.2698 H   0  0  0  0  0  0  0  0  0  0  0  0
  1  6  1  0
  1  2  1  0
  2 10  1  0
  2  3  1  0
  4  3  1  0
  5  4  1  0
  6  5  1  0
  7 14  1  0
  7  8  1  0
  9  8  2  0
 10  9  1  0
 11 10  1  0
 11  7  2  0
 12 17  2  0
 13 12  1  0
 13 14  2  0
 14 15  1  0
 15 16  2  0
 17 16  1  0
 18  6  1  0
 19 20  1  0
 19 18  1  0
 20 18  1  0
  1 21  1  0
  2 22  1  6
  3 23  1  0
  3 24  1  0
  4 25  1  0
  5 26  1  0
  5 27  1  0
  6 28  1  1
  8 29  1  0
  9 30  1  0
 12 31  1  0
 13 32  1  0
 16 33  1  0
 18 34  1  0
 19 35  1  0
 19 36  1  0
 20 37  1  0
 20 38  1  0
M  ISO  8  21   5  22  13  23  13  24  13  25   5  26  13  27  13  28  13
M  ISO  8  29  14  30  14  31  14  32  14  33  14  34  13  35  13  36  13
M  ISO  2  37  13  38  13
M  END
>  <minimizedAffinity>  (1) 
-5.06141043

>  <minimizedRMSD>  (1) 
2.22353101

$$$$
