
     RDKit          3D

 27 29  0  0  0  0  0  0  0  0999 V2000
   44.9290   36.1930   43.1490 Cl  0  0  0  0  0  0  0  0  0  0  0  0
   45.5640   34.8830   44.0860 C   0  0  0  0  0  0  0  0  0  0  0  0
   46.5680   34.0920   43.5770 C   0  0  0  0  0  0  0  0  0  0  0  0
   47.0200   33.0660   44.3930 C   0  0  0  0  0  0  0  0  0  0  0  0
   46.5220   32.8080   45.6590 C   0  0  0  0  0  0  0  0  0  0  0  0
   45.5210   33.6160   46.1350 C   0  0  0  0  0  0  0  0  0  0  0  0
   44.9390   33.2530   47.7390 Cl  0  0  0  0  0  0  0  0  0  0  0  0
   45.0480   34.6410   45.3580 C   0  0  0  0  0  0  0  0  0  0  0  0
   48.7490   35.3850   40.9490 C   0  0  0  0  0  0  0  0  0  0  0  0
   48.2420   34.7620   39.7860 C   0  0  0  0  0  0  0  0  0  0  0  0
   47.1320   33.8840   39.9150 C   0  0  0  0  0  0  0  0  0  0  0  0
   46.6440   33.7140   41.1610 N   0  0  0  0  0  0  0  0  0  0  0  0
   47.1400   34.3130   42.2430 C   0  0  0  0  0  0  0  0  0  0  0  0
   48.1920   35.1510   42.1530 N   0  0  0  0  0  0  0  0  0  0  0  0
   47.1930   31.6380   46.2840 C   0  0  0  0  0  0  0  0  0  0  0  0
   46.7810   30.3240   45.6130 C   0  0  0  0  0  0  0  0  0  0  0  0
   46.5090   30.6050   47.0510 C   0  0  0  0  0  0  0  0  0  0  0  0
   47.8227   32.4179   44.0115 H   0  0  0  0  0  0  0  0  0  0  0  0
   44.2453   35.2854   45.7458 H   0  0  0  0  0  0  0  0  0  0  0  0
   49.6075   36.0682   40.8701 H   0  0  0  0  0  0  0  0  0  0  0  0
   48.6966   34.9526   38.8026 H   0  0  0  0  0  0  0  0  0  0  0  0
   46.6945   33.3709   39.0459 H   0  0  0  0  0  0  0  0  0  0  0  0
   48.0890   32.2251   46.5341 H   0  0  0  0  0  0  0  0  0  0  0  0
   45.9574   30.3058   44.8841 H   0  0  0  0  0  0  0  0  0  0  0  0
   47.2902   29.5323   45.0438 H   0  0  0  0  0  0  0  0  0  0  0  0
   47.0590   30.0506   47.8257 H   0  0  0  0  0  0  0  0  0  0  0  0
   45.6008   30.5921   47.6715 H   0  0  0  0  0  0  0  0  0  0  0  0
  1  2  1  0
  2  8  2  0
  3  2  1  0
  3  4  2  0
  4  5  1  0
  5  6  2  0
  5 15  1  0
  6  7  1  0
  8  6  1  0
  9 14  2  0
 10 11  2  0
 10  9  1  0
 11 12  1  0
 12 13  2  0
 13  3  1  0
 14 13  1  0
 15 17  1  0
 16 15  1  0
 16 17  1  0
  4 18  1  0
  8 19  1  0
  9 20  1  0
 10 21  1  0
 11 22  1  0
 15 23  1  0
 16 24  1  0
 16 25  1  0
 17 26  1  0
 17 27  1  0
M  ISO  8  18  14  19  14  20  14  21  14  22  14  23  13  24  13  25  13
M  ISO  2  26  13  27  13
M  END
>  <minimizedAffinity>  (1) 
-5.05246496

>  <minimizedRMSD>  (1) 
0.240732104

$$$$
