
     RDKit          3D

 22 23  0  0  0  0  0  0  0  0999 V2000
   41.6680   33.6860   41.0970 C   0  0  0  0  0  0  0  0  0  0  0  0
   41.5990   32.3320   41.3430 C   0  0  0  0  0  0  0  0  0  0  0  0
   40.3750   31.7040   41.3760 C   0  0  0  0  0  0  0  0  0  0  0  0
   39.2050   32.3950   41.1660 C   0  0  0  0  0  0  0  0  0  0  0  0
   39.2690   33.7470   40.9200 C   0  0  0  0  0  0  0  0  0  0  0  0
   40.4930   34.3870   40.8850 C   0  0  0  0  0  0  0  0  0  0  0  0
   40.4160   36.1410   40.5540 S   0  0  0  0  0  0  0  0  0  0  0  0
   43.1390   34.6750   41.0150 S   0  0  0  0  0  0  0  0  0  0  0  0
   44.0020   35.6650   43.4500 C   0  0  0  0  0  0  0  0  0  0  0  0
   44.0140   34.5580   42.5640 C   0  0  0  0  0  0  0  0  0  0  0  0
   44.7160   33.4110   42.9430 C   0  0  0  0  0  0  0  0  0  0  0  0
   45.3510   33.4210   44.1440 N   0  0  0  0  0  0  0  0  0  0  0  0
   45.3160   34.4840   44.9510 C   0  0  0  0  0  0  0  0  0  0  0  0
   44.6590   35.6090   44.6380 N   0  0  0  0  0  0  0  0  0  0  0  0
   42.5198   31.7546   41.5125 H   0  0  0  0  0  0  0  0  0  0  0  0
   40.3316   30.6231   41.5752 H   0  0  0  0  0  0  0  0  0  0  0  0
   38.2354   31.8762   41.1942 H   0  0  0  0  0  0  0  0  0  0  0  0
   38.3448   34.3191   40.7510 H   0  0  0  0  0  0  0  0  0  0  0  0
   40.3858   36.8284   41.7387 H   0  0  0  0  0  0  0  0  0  0  0  0
   43.4553   36.5783   43.1727 H   0  0  0  0  0  0  0  0  0  0  0  0
   44.7534   32.5272   42.2892 H   0  0  0  0  0  0  0  0  0  0  0  0
   45.8484   34.4342   45.9123 H   0  0  0  0  0  0  0  0  0  0  0  0
  1  2  2  0
  2  3  1  0
  4  3  2  0
  5  4  1  0
  6  5  2  0
  6  1  1  0
  7  6  1  0
  8  1  1  0
  8 10  1  0
  9 14  2  0
 10 11  2  0
 10  9  1  0
 11 12  1  0
 12 13  2  0
 14 13  1  0
  2 15  1  0
  3 16  1  0
  4 17  1  0
  5 18  1  0
  7 19  1  0
  9 20  1  0
 11 21  1  0
 13 22  1  0
M  ISO  8  15  14  16  14  17  14  18  14  19  11  20  14  21  14  22  14
M  END
>  <minimizedAffinity>  (1) 
-3.91903853

>  <minimizedRMSD>  (1) 
1.22928011

$$$$
