
     RDKit          3D

 27 28  0  0  0  0  0  0  0  0999 V2000
   44.5710   33.6820   41.1470 C   0  0  0  0  0  0  0  0  0  0  0  0
   45.9440   34.1690   41.0690 C   0  0  0  0  0  0  0  0  0  0  0  0
   46.7960   33.9750   40.0130 C   0  0  0  0  0  0  0  0  0  0  0  0
   48.0990   34.4460   39.9560 C   0  0  0  0  0  0  0  0  0  0  0  0
   48.5560   35.1620   41.0610 C   0  0  0  0  0  0  0  0  0  0  0  0
   47.7220   35.3760   42.1450 C   0  0  0  0  0  0  0  0  0  0  0  0
   46.4370   34.8880   42.1520 C   0  0  0  0  0  0  0  0  0  0  0  0
   45.4320   35.2070   43.5830 S   0  0  0  0  0  0  0  0  0  0  0  0
   43.8570   33.8670   39.8080 C   0  0  0  0  0  0  0  0  0  0  0  0
   41.0540   35.6650   41.5710 C   0  0  0  0  0  0  0  0  0  0  0  0
   42.2820   34.9860   41.3540 C   0  0  0  0  0  0  0  0  0  0  0  0
   42.5800   34.5810   40.0650 C   0  0  0  0  0  0  0  0  0  0  0  0
   41.6650   34.8680   39.0860 N   0  0  0  0  0  0  0  0  0  0  0  0
   40.5210   35.5090   39.3230 C   0  0  0  0  0  0  0  0  0  0  0  0
   40.2100   35.9100   40.5630 N   0  0  0  0  0  0  0  0  0  0  0  0
   44.5809   32.6131   41.4067 H   0  0  0  0  0  0  0  0  0  0  0  0
   44.0346   34.2560   41.9169 H   0  0  0  0  0  0  0  0  0  0  0  0
   46.4198   33.4058   39.1502 H   0  0  0  0  0  0  0  0  0  0  0  0
   48.7406   34.2634   39.0814 H   0  0  0  0  0  0  0  0  0  0  0  0
   49.5821   35.5581   41.0718 H   0  0  0  0  0  0  0  0  0  0  0  0
   48.0922   35.9436   43.0115 H   0  0  0  0  0  0  0  0  0  0  0  0
   46.1649   34.9744   44.7168 H   0  0  0  0  0  0  0  0  0  0  0  0
   43.6517   32.8857   39.3554 H   0  0  0  0  0  0  0  0  0  0  0  0
   44.4862   34.4454   39.1155 H   0  0  0  0  0  0  0  0  0  0  0  0
   40.7921   35.9956   42.5869 H   0  0  0  0  0  0  0  0  0  0  0  0
   42.9750   34.7881   42.1850 H   0  0  0  0  0  0  0  0  0  0  0  0
   39.8265   35.7105   38.4941 H   0  0  0  0  0  0  0  0  0  0  0  0
  2  1  1  0
  2  7  1  0
  3  2  2  0
  4  3  1  0
  4  5  2  0
  5  6  1  0
  6  7  2  0
  7  8  1  0
  9 12  1  0
  9  1  1  0
 11 10  2  0
 12 11  1  0
 13 14  1  0
 13 12  2  0
 14 15  2  0
 15 10  1  0
  1 16  1  0
  1 17  1  0
  3 18  1  0
  4 19  1  0
  5 20  1  0
  6 21  1  0
  8 22  1  0
  9 23  1  0
  9 24  1  0
 10 25  1  0
 11 26  1  0
 14 27  1  0
M  ISO  8  16   8  17   8  18  14  19  14  20  14  21  14  22  11  23   8
M  ISO  4  24   8  25  14  26  14  27  14
M  END
>  <minimizedAffinity>  (1) 
-4.63338375

>  <minimizedRMSD>  (1) 
1.60045791

$$$$
