
     RDKit          3D

 31 32  0  0  0  0  0  0  0  0999 V2000
   44.9510   34.1830   40.6440 C   0  0  0  0  0  0  0  0  0  0  0  0
   46.2040   33.9770   41.0370 N   0  0  0  0  0  0  0  0  0  0  0  0
   47.2360   33.2590   40.3790 C   0  0  0  0  0  0  0  0  0  0  0  0
   48.0460   34.4600   39.8330 C   0  0  0  0  0  0  0  0  0  0  0  0
   48.5660   35.3300   40.8900 C   0  0  0  0  0  0  0  0  0  0  0  0
   47.8950   35.3370   42.1880 C   0  0  0  0  0  0  0  0  0  0  0  0
   46.5860   34.6190   42.3000 C   0  0  0  0  0  0  0  0  0  0  0  0
   45.6470   34.6280   43.8000 S   0  0  0  0  0  0  0  0  0  0  0  0
   44.3420   32.9910   39.9720 C   0  0  0  0  0  0  0  0  0  0  0  0
   42.9770   33.3850   39.5370 C   0  0  0  0  0  0  0  0  0  0  0  0
   42.3390   32.7340   38.5000 C   0  0  0  0  0  0  0  0  0  0  0  0
   41.0550   33.1760   38.1420 C   0  0  0  0  0  0  0  0  0  0  0  0
   40.5140   34.2180   38.8350 N   0  0  0  0  0  0  0  0  0  0  0  0
   41.1720   34.8150   39.8310 C   0  0  0  0  0  0  0  0  0  0  0  0
   42.3930   34.3920   40.1700 N   0  0  0  0  0  0  0  0  0  0  0  0
   40.3780   36.1720   40.6790 S   0  0  0  0  0  0  0  0  0  0  0  0
   44.3445   34.4353   41.5263 H   0  0  0  0  0  0  0  0  0  0  0  0
   44.9684   35.0007   39.9084 H   0  0  0  0  0  0  0  0  0  0  0  0
   47.8245   32.6467   41.0781 H   0  0  0  0  0  0  0  0  0  0  0  0
   46.9027   32.5286   39.6270 H   0  0  0  0  0  0  0  0  0  0  0  0
   48.8941   34.0737   39.2487 H   0  0  0  0  0  0  0  0  0  0  0  0
   47.3629   35.0638   39.2175 H   0  0  0  0  0  0  0  0  0  0  0  0
   49.6107   35.0347   41.0674 H   0  0  0  0  0  0  0  0  0  0  0  0
   48.4056   36.3465   40.5015 H   0  0  0  0  0  0  0  0  0  0  0  0
   48.3367   35.8524   43.0536 H   0  0  0  0  0  0  0  0  0  0  0  0
   46.4995   34.6198   44.8725 H   0  0  0  0  0  0  0  0  0  0  0  0
   44.9464   32.6994   39.1004 H   0  0  0  0  0  0  0  0  0  0  0  0
   44.3017   32.1325   40.6585 H   0  0  0  0  0  0  0  0  0  0  0  0
   42.8201   31.8974   37.9721 H   0  0  0  0  0  0  0  0  0  0  0  0
   40.5001   32.6940   37.3236 H   0  0  0  0  0  0  0  0  0  0  0  0
   40.4847   35.9897   42.0326 H   0  0  0  0  0  0  0  0  0  0  0  0
  1  2  1  0
  2  7  1  0
  3  2  1  0
  4  3  1  0
  4  5  1  0
  5  6  1  0
  6  7  2  0
  7  8  1  0
  9  1  1  0
 10  9  1  0
 10 15  1  0
 11 10  2  0
 12 11  1  0
 12 13  2  0
 13 14  1  0
 14 15  2  0
 14 16  1  0
  1 17  1  0
  1 18  1  0
  3 19  1  0
  3 20  1  0
  4 21  1  0
  4 22  1  0
  5 23  1  0
  5 24  1  0
  6 25  1  0
  8 26  1  0
  9 27  1  0
  9 28  1  0
 11 29  1  0
 12 30  1  0
 16 31  1  0
M  ISO  8  17   8  18   8  19  13  20  13  21  13  22  13  23  13  24  13
M  ISO  7  25  13  26  11  27   8  28   8  29  14  30  14  31  11
M  END
>  <minimizedAffinity>  (1) 
-4.27355433

>  <minimizedRMSD>  (1) 
1.32086194

$$$$
