
     RDKit          3D

 23 24  0  0  0  0  0  0  0  0999 V2000
   45.8420   32.2100   44.6090 C   0  0  0  0  0  0  0  0  0  0  0  0
   44.7510   35.7060   44.7210 C   0  0  0  0  0  0  0  0  0  0  0  0
   45.2540   36.2460   43.5280 C   0  0  0  0  0  0  0  0  0  0  0  0
   45.9640   35.4110   42.6910 C   0  0  0  0  0  0  0  0  0  0  0  0
   46.1450   34.1150   43.0530 N   0  0  0  0  0  0  0  0  0  0  0  0
   45.6440   33.6250   44.2170 C   0  0  0  0  0  0  0  0  0  0  0  0
   44.9370   34.4380   45.0610 N   0  0  0  0  0  0  0  0  0  0  0  0
   44.9800   37.6180   43.2930 N   0  0  0  0  0  0  0  0  0  0  0  0
   46.1210   32.1060   46.0860 C   0  0  0  0  0  0  0  0  0  0  0  0
   47.2630   32.5700   46.6860 C   0  0  0  0  0  0  0  0  0  0  0  0
   47.1560   32.2970   48.0400 C   0  0  0  0  0  0  0  0  0  0  0  0
   45.9290   31.6680   48.2000 C   0  0  0  0  0  0  0  0  0  0  0  0
   45.3990   31.5980   47.0310 O   0  0  0  0  0  0  0  0  0  0  0  0
   45.0650   31.0110   49.6210 S   0  0  0  0  0  0  0  0  0  0  0  0
   46.6934   31.7951   44.0496 H   0  0  0  0  0  0  0  0  0  0  0  0
   44.9262   31.6456   44.3792 H   0  0  0  0  0  0  0  0  0  0  0  0
   44.1814   36.3584   45.3992 H   0  0  0  0  0  0  0  0  0  0  0  0
   46.3774   35.7893   41.7444 H   0  0  0  0  0  0  0  0  0  0  0  0
   45.3228   38.0719   42.4343 H   0  0  0  0  0  0  0  0  0  0  0  0
   44.4383   38.1602   43.9811 H   0  0  0  0  0  0  0  0  0  0  0  0
   48.1072   33.0667   46.1854 H   0  0  0  0  0  0  0  0  0  0  0  0
   47.8905   32.5302   48.8249 H   0  0  0  0  0  0  0  0  0  0  0  0
   45.6614   31.4645   50.7680 H   0  0  0  0  0  0  0  0  0  0  0  0
  1  9  1  0
  2  7  2  0
  3  2  1  0
  4  5  1  0
  4  3  2  0
  5  6  2  0
  6  1  1  0
  6  7  1  0
  8  3  1  0
  9 10  2  0
  9 13  1  0
 10 11  1  0
 11 12  2  0
 12 14  1  0
 13 12  1  0
  1 15  1  0
  1 16  1  0
  2 17  1  0
  4 18  1  0
  8 19  1  0
  8 20  1  0
 10 21  1  0
 11 22  1  0
 14 23  1  0
M  ISO  7  15   8  16   8  17  14  18  14  21  14  22  14  23  11
M  END
>  <minimizedAffinity>  (1) 
-3.98509026

>  <minimizedRMSD>  (1) 
0.631040752

$$$$
