
     RDKit          3D

 40 42  0  0  0  0  0  0  0  0999 V2000
   45.1070   35.4980   43.2750 C   0  0  0  0  0  0  0  0  0  0  0  0
   45.5140   34.1830   43.3390 C   0  0  0  0  0  0  0  0  0  0  0  0
   45.4850   33.4890   44.5160 C   0  0  0  0  0  0  0  0  0  0  0  0
   45.0210   34.1950   45.6230 N   0  0  0  0  0  0  0  0  0  0  0  0
   44.6300   35.4550   45.5650 C   0  0  0  0  0  0  0  0  0  0  0  0
   44.6790   36.1010   44.3770 N   0  0  0  0  0  0  0  0  0  0  0  0
   45.8640   32.1570   44.7630 C   0  0  0  0  0  0  0  0  0  0  0  0
   45.5450   31.1040   43.8850 C   0  0  0  0  0  0  0  0  0  0  0  0
   45.8500   29.7890   44.1210 C   0  0  0  0  0  0  0  0  0  0  0  0
   46.5090   29.4420   45.2870 C   0  0  0  0  0  0  0  0  0  0  0  0
   46.8420   30.5010   46.1920 C   0  0  0  0  0  0  0  0  0  0  0  0
   47.4900   30.1670   47.3450 C   0  0  0  0  0  0  0  0  0  0  0  0
   47.8360   31.1420   48.2530 C   0  0  0  0  0  0  0  0  0  0  0  0
   47.5180   32.4840   47.9800 C   0  0  0  0  0  0  0  0  0  0  0  0
   46.8470   32.7660   46.7700 C   0  0  0  0  0  0  0  0  0  0  0  0
   46.5150   31.7800   45.8980 C   0  0  0  0  0  0  0  0  0  0  0  0
   45.9430   33.6020   42.1770 O   0  0  0  0  0  0  0  0  0  0  0  0
   48.1520   32.4380   41.3790 O   0  0  0  0  0  0  0  0  0  0  0  0
   47.4680   33.7640   41.5090 P   0  0  1  0  0  0  0  0  0  0  0  0
   47.4400   34.4450   39.9700 O   0  0  0  0  0  0  0  0  0  0  0  0
   48.2350   33.6020   39.1720 C   0  0  0  0  0  0  0  0  0  0  0  0
   48.3620   34.2030   37.4770 S   0  0  0  0  0  0  0  0  0  0  0  0
   48.3820   34.7570   42.5240 O   0  0  0  0  0  0  0  0  0  0  0  0
   49.5900   35.3600   42.2500 C   0  0  0  0  0  0  0  0  0  0  0  0
   49.3310   36.3950   41.6490 O   0  0  0  0  0  0  0  0  0  0  0  0
   50.6830   34.5870   42.7490 N   0  0  0  0  0  0  0  0  0  0  0  0
   45.1366   36.0426   42.3197 H   0  0  0  0  0  0  0  0  0  0  0  0
   44.2704   35.9709   46.4675 H   0  0  0  0  0  0  0  0  0  0  0  0
   45.0183   31.3520   42.9517 H   0  0  0  0  0  0  0  0  0  0  0  0
   45.5731   29.0156   43.3894 H   0  0  0  0  0  0  0  0  0  0  0  0
   46.7665   28.3960   45.5098 H   0  0  0  0  0  0  0  0  0  0  0  0
   47.7369   29.1148   47.5499 H   0  0  0  0  0  0  0  0  0  0  0  0
   48.3567   30.8735   49.1840 H   0  0  0  0  0  0  0  0  0  0  0  0
   47.7827   33.2863   48.6844 H   0  0  0  0  0  0  0  0  0  0  0  0
   46.5876   33.8074   46.5287 H   0  0  0  0  0  0  0  0  0  0  0  0
   49.2440   33.5486   39.6068 H   0  0  0  0  0  0  0  0  0  0  0  0
   47.7606   32.6099   39.1470 H   0  0  0  0  0  0  0  0  0  0  0  0
   48.6452   35.5434   37.4878 H   0  0  0  0  0  0  0  0  0  0  0  0
   51.6498   34.9166   42.6164 H   0  0  0  0  0  0  0  0  0  0  0  0
   50.5042   33.7001   43.2414 H   0  0  0  0  0  0  0  0  0  0  0  0
  1  2  2  0
  1  6  1  0
  2  3  1  0
  3  7  1  0
  3  4  2  0
  5  4  1  0
  6  5  2  0
  7 16  2  0
  8  9  2  0
  8  7  1  0
  9 10  1  0
 10 11  2  0
 11 12  1  0
 12 13  2  0
 14 13  1  0
 15 14  2  0
 16 11  1  0
 16 15  1  0
 17  2  1  0
 19 18  2  0
 19 17  1  0
 19 23  1  0
 20 19  1  0
 21 20  1  0
 22 21  1  0
 24 23  1  0
 24 26  1  0
 25 24  2  0
  1 27  1  0
  5 28  1  0
  8 29  1  0
  9 30  1  0
 10 31  1  0
 12 32  1  0
 13 33  1  0
 14 34  1  0
 15 35  1  0
 21 36  1  0
 21 37  1  0
 22 38  1  0
 26 39  1  0
 26 40  1  0
M  ISO  8  27  14  28  14  29  14  30  14  31  14  32  14  33  14  34  14
M  ISO  4  35  14  36   8  37   8  38  11
M  END
>  <minimizedAffinity>  (1) 
-5.91453075

>  <minimizedRMSD>  (1) 
0.438315302

$$$$
