
     RDKit          3D

 49 51  0  0  0  0  0  0  0  0999 V2000
   45.9610   34.8940   43.3040 C   0  0  0  0  0  0  0  0  0  0  0  0
   45.6750   34.1510   44.4350 C   0  0  0  0  0  0  0  0  0  0  0  0
   44.9050   34.7520   45.3880 C   0  0  0  0  0  0  0  0  0  0  0  0
   44.4660   36.0270   45.1840 N   0  0  0  0  0  0  0  0  0  0  0  0
   44.7480   36.7360   44.0900 C   0  0  0  0  0  0  0  0  0  0  0  0
   45.4910   36.1550   43.1690 N   0  0  0  0  0  0  0  0  0  0  0  0
   46.8170   34.2270   42.3100 C   0  0  0  0  0  0  0  0  0  0  0  0
   48.1950   34.6780   42.2540 C   0  0  0  0  0  0  0  0  0  0  0  0
   48.5400   35.3600   40.9910 C   0  0  0  0  0  0  0  0  0  0  0  0
   48.2890   34.4520   39.8000 C   0  0  0  0  0  0  0  0  0  0  0  0
   46.9800   33.7440   39.8770 C   0  0  0  0  0  0  0  0  0  0  0  0
   46.0970   34.3090   40.9670 C   0  0  0  0  0  0  0  0  0  0  0  0
   45.9930   32.9320   44.8170 O   0  0  0  0  0  0  0  0  0  0  0  0
   47.0220   32.3530   45.4990 C   0  0  0  0  0  0  0  0  0  0  0  0
   46.9720   32.5270   47.0050 C   0  0  0  0  0  0  0  0  0  0  0  0
   46.7470   31.1570   47.6020 C   0  0  0  0  0  0  0  0  0  0  0  0
   47.3670   30.0590   46.8030 C   0  0  0  0  0  0  0  0  0  0  0  0
   48.2220   29.1610   47.6720 C   0  0  0  0  0  0  0  0  0  0  0  0
   49.2910   29.9840   48.3590 C   0  0  0  0  0  0  0  0  0  0  0  0
   48.6350   30.9850   49.2680 C   0  0  0  0  0  0  0  0  0  0  0  0
   47.1570   31.0640   49.0500 C   0  0  0  0  0  0  0  0  0  0  0  0
   44.6413   34.2140   46.3105 H   0  0  0  0  0  0  0  0  0  0  0  0
   44.3759   37.7632   43.9616 H   0  0  0  0  0  0  0  0  0  0  0  0
   46.9498   33.1804   42.6213 H   0  0  0  0  0  0  0  0  0  0  0  0
   48.3666   35.3773   43.0856 H   0  0  0  0  0  0  0  0  0  0  0  0
   48.8315   33.7835   42.3233 H   0  0  0  0  0  0  0  0  0  0  0  0
   47.9233   36.2653   40.8902 H   0  0  0  0  0  0  0  0  0  0  0  0
   49.6077   35.6236   41.0137 H   0  0  0  0  0  0  0  0  0  0  0  0
   49.0920   33.7015   39.7553 H   0  0  0  0  0  0  0  0  0  0  0  0
   48.2699   35.0848   38.9004 H   0  0  0  0  0  0  0  0  0  0  0  0
   46.4629   33.8464   38.9115 H   0  0  0  0  0  0  0  0  0  0  0  0
   47.1770   32.6874   40.1110 H   0  0  0  0  0  0  0  0  0  0  0  0
   45.8648   35.3601   40.7407 H   0  0  0  0  0  0  0  0  0  0  0  0
   45.1654   33.7264   41.0182 H   0  0  0  0  0  0  0  0  0  0  0  0
   47.0129   31.2751   45.2797 H   0  0  0  0  0  0  0  0  0  0  0  0
   47.9380   32.8600   45.1615 H   0  0  0  0  0  0  0  0  0  0  0  0
   47.9220   32.9458   47.3684 H   0  0  0  0  0  0  0  0  0  0  0  0
   46.1658   33.2176   47.2934 H   0  0  0  0  0  0  0  0  0  0  0  0
   45.6570   31.0145   47.5628 H   0  0  0  0  0  0  0  0  0  0  0  0
   46.5699   29.4576   46.3416 H   0  0  0  0  0  0  0  0  0  0  0  0
   48.0095   30.5105   46.0327 H   0  0  0  0  0  0  0  0  0  0  0  0
   47.5897   28.6763   48.4305 H   0  0  0  0  0  0  0  0  0  0  0  0
   48.6995   28.3940   47.0446 H   0  0  0  0  0  0  0  0  0  0  0  0
   49.9423   29.3225   48.9490 H   0  0  0  0  0  0  0  0  0  0  0  0
   49.8950   30.5095   47.6047 H   0  0  0  0  0  0  0  0  0  0  0  0
   48.8239   30.6928   50.3115 H   0  0  0  0  0  0  0  0  0  0  0  0
   49.0622   31.9738   49.0451 H   0  0  0  0  0  0  0  0  0  0  0  0
   46.7789   31.9548   49.5729 H   0  0  0  0  0  0  0  0  0  0  0  0
   46.7310   30.1271   49.4382 H   0  0  0  0  0  0  0  0  0  0  0  0
  1  2  1  0
  2 13  1  0
  2  3  2  0
  4  3  1  0
  5  4  2  0
  6  1  2  0
  6  5  1  0
  7  1  1  0
  8  7  1  0
  9  8  1  0
 10 11  1  0
 10  9  1  0
 11 12  1  0
 12  7  1  0
 13 14  1  0
 14 15  1  0
 15 16  1  0
 16 21  1  0
 17 16  1  0
 17 18  1  0
 18 19  1  0
 19 20  1  0
 21 20  1  0
  3 22  1  0
  5 23  1  0
  7 24  1  0
  8 25  1  0
  8 26  1  0
  9 27  1  0
  9 28  1  0
 10 29  1  0
 10 30  1  0
 11 31  1  0
 11 32  1  0
 12 33  1  0
 12 34  1  0
 14 35  1  0
 14 36  1  0
 15 37  1  0
 15 38  1  0
 16 39  1  0
 17 40  1  0
 17 41  1  0
 18 42  1  0
 18 43  1  0
 19 44  1  0
 19 45  1  0
 20 46  1  0
 20 47  1  0
 21 48  1  0
 21 49  1  0
M  ISO  8  22  14  23  14  24  13  25  13  26  13  27  13  28  13  29  13
M  ISO  8  30  13  31  13  32  13  33  13  34  13  35   8  36   8  37   8
M  ISO  8  38   8  39  13  40  13  41  13  42  13  43  13  44  13  45  13
M  ISO  4  46  13  47  13  48  13  49  13
M  END
>  <minimizedAffinity>  (1) 
-5.72367334

>  <minimizedRMSD>  (1) 
1.72197282

$$$$
