
     RDKit          3D

 46 48  0  0  0  0  0  0  0  0999 V2000
   44.8510   35.6030   42.6470 C   0  0  0  0  0  0  0  0  0  0  0  0
   45.8810   34.6250   42.7680 C   0  0  0  0  0  0  0  0  0  0  0  0
   46.1830   34.1620   44.0330 C   0  0  0  0  0  0  0  0  0  0  0  0
   45.4880   34.6590   45.0980 N   0  0  0  0  0  0  0  0  0  0  0  0
   44.5170   35.5830   44.9710 C   0  0  0  0  0  0  0  0  0  0  0  0
   44.2060   36.0490   43.7450 N   0  0  0  0  0  0  0  0  0  0  0  0
   46.4970   34.2220   41.5660 N   0  0  0  0  0  0  0  0  0  0  0  0
   47.6750   34.8650   41.0190 C   0  0  0  0  0  0  0  0  0  0  0  0
   48.1450   34.1120   39.8080 C   0  0  0  0  0  0  0  0  0  0  0  0
   47.1050   33.8820   38.8380 N   0  0  0  0  0  0  0  0  0  0  0  0
   45.8830   33.3640   39.3650 C   0  0  0  0  0  0  0  0  0  0  0  0
   45.9040   33.0960   40.8450 C   0  0  0  0  0  0  0  0  0  0  0  0
   47.1880   33.2100   44.1260 O   0  0  0  0  0  0  0  0  0  0  0  0
   45.5410   31.4030   45.1550 O   0  0  0  0  0  0  0  0  0  0  0  0
   46.9790   31.9000   45.2390 P   0  0  1  0  0  0  0  0  0  0  0  0
   48.0590   30.6990   44.7990 O   0  0  0  0  0  0  0  0  0  0  0  0
   47.2810   32.4970   46.7820 O   0  0  0  0  0  0  0  0  0  0  0  0
   46.7370   31.6570   47.7160 C   0  0  0  0  0  0  0  0  0  0  0  0
   45.3180   32.0260   48.0950 C   0  0  0  0  0  0  0  0  0  0  0  0
   45.0610   31.3000   49.4180 C   0  0  0  0  0  0  0  0  0  0  0  0
   45.0300   29.8160   49.1640 C   0  0  0  0  0  0  0  0  0  0  0  0
   45.5420   29.4330   47.8130 C   0  0  0  0  0  0  0  0  0  0  0  0
   46.7330   30.2110   47.3530 C   0  0  0  0  0  0  0  0  0  0  0  0
   44.5812   35.9953   41.6554 H   0  0  0  0  0  0  0  0  0  0  0  0
   43.9831   35.9537   45.8584 H   0  0  0  0  0  0  0  0  0  0  0  0
   47.4287   35.8986   40.7343 H   0  0  0  0  0  0  0  0  0  0  0  0
   48.4723   34.8711   41.7768 H   0  0  0  0  0  0  0  0  0  0  0  0
   48.9480   34.6903   39.3277 H   0  0  0  0  0  0  0  0  0  0  0  0
   48.4913   33.1265   40.1526 H   0  0  0  0  0  0  0  0  0  0  0  0
   47.4613   33.2111   38.1424 H   0  0  0  0  0  0  0  0  0  0  0  0
   45.0845   34.0921   39.1593 H   0  0  0  0  0  0  0  0  0  0  0  0
   45.7181   32.3934   38.8744 H   0  0  0  0  0  0  0  0  0  0  0  0
   44.8738   32.9429   41.1989 H   0  0  0  0  0  0  0  0  0  0  0  0
   46.5097   32.1972   41.0331 H   0  0  0  0  0  0  0  0  0  0  0  0
   48.4359   30.2798   45.6128 H   0  0  0  0  0  0  0  0  0  0  0  0
   47.4199   31.7988   48.5666 H   0  0  0  0  0  0  0  0  0  0  0  0
   45.2231   33.1140   48.2260 H   0  0  0  0  0  0  0  0  0  0  0  0
   44.5943   31.7386   47.3181 H   0  0  0  0  0  0  0  0  0  0  0  0
   45.8653   31.5356   50.1304 H   0  0  0  0  0  0  0  0  0  0  0  0
   44.0987   31.6253   49.8400 H   0  0  0  0  0  0  0  0  0  0  0  0
   45.6495   29.3192   49.9251 H   0  0  0  0  0  0  0  0  0  0  0  0
   43.9773   29.5006   49.2132 H   0  0  0  0  0  0  0  0  0  0  0  0
   45.8177   28.3684   47.8401 H   0  0  0  0  0  0  0  0  0  0  0  0
   44.7332   29.6524   47.1004 H   0  0  0  0  0  0  0  0  0  0  0  0
   46.7827   30.1371   46.2566 H   0  0  0  0  0  0  0  0  0  0  0  0
   47.5986   29.7689   47.8681 H   0  0  0  0  0  0  0  0  0  0  0  0
  1  2  2  0
  1  6  1  0
  2  3  1  0
  3 13  1  0
  3  4  2  0
  5  4  1  0
  6  5  2  0
  7  2  1  0
  8  7  1  0
  9  8  1  0
 10 11  1  0
 10  9  1  0
 11 12  1  0
 12  7  1  0
 13 15  1  0
 15 14  2  0
 15 17  1  0
 16 15  1  0
 17 18  1  0
 18 19  1  0
 19 20  1  0
 21 20  1  0
 22 21  1  0
 23 18  1  0
 23 22  1  0
  1 24  1  0
  5 25  1  0
  8 26  1  0
  8 27  1  0
  9 28  1  0
  9 29  1  0
 10 30  1  0
 11 31  1  0
 11 32  1  0
 12 33  1  0
 12 34  1  0
 16 35  1  0
 18 36  1  0
 19 37  1  0
 19 38  1  0
 20 39  1  0
 20 40  1  0
 21 41  1  0
 21 42  1  0
 22 43  1  0
 22 44  1  0
 23 45  1  0
 23 46  1  0
M  ISO  8  24  14  25  14  26  13  27  13  28  13  29  13  30   5  31  13
M  ISO  8  32  13  33  13  34  13  35   3  36  13  37  13  38  13  39  13
M  ISO  7  40  13  41  13  42  13  43  13  44  13  45  13  46  13
M  END
>  <minimizedAffinity>  (1) 
-5.19929409

>  <minimizedRMSD>  (1) 
1.35209036

$$$$
