
     RDKit          3D

 46 48  0  0  1  0  0  0  0  0999 V2000
   43.6910   33.7810   41.2540 C   0  0  1  0  0  0  0  0  0  0  0  0
   43.0080   34.9570   40.5110 C   0  0  0  0  0  0  0  0  0  0  0  0
   42.3050   34.3460   39.3360 C   0  0  0  0  0  0  0  0  0  0  0  0
   43.4090   33.9520   38.3760 C   0  0  0  0  0  0  0  0  0  0  0  0
   44.4180   33.1090   38.9710 C   0  0  0  0  0  0  0  0  0  0  0  0
   44.7970   33.2790   40.4700 C   0  0  1  0  0  0  0  0  0  0  0  0
   44.7460   35.9810   44.2360 C   0  0  0  0  0  0  0  0  0  0  0  0
   44.2030   35.6370   43.0160 C   0  0  0  0  0  0  0  0  0  0  0  0
   44.2050   34.3080   42.5540 C   0  0  0  0  0  0  0  0  0  0  0  0
   44.7670   33.4250   43.3870 N   0  0  0  0  0  0  0  0  0  0  0  0
   45.2950   33.7300   44.5610 C   0  0  0  0  0  0  0  0  0  0  0  0
   45.2910   35.0280   45.0060 N   0  0  0  0  0  0  0  0  0  0  0  0
   45.8460   34.1990   40.4570 O   0  0  0  0  0  0  0  0  0  0  0  0
   46.9430   33.6430   39.8190 C   0  0  0  0  0  0  0  0  0  0  0  0
   48.2840   33.8640   40.3730 C   0  0  0  0  0  0  0  0  0  0  0  0
   48.1100   33.9660   41.8940 C   0  0  0  0  0  0  0  0  0  0  0  0
   48.1040   32.5670   42.5110 C   0  0  0  0  0  0  0  0  0  0  0  0
   49.5250   32.0430   42.4750 C   0  0  0  0  0  0  0  0  0  0  0  0
   50.2100   32.5190   41.2020 C   0  0  0  0  0  0  0  0  0  0  0  0
   49.1350   32.6020   40.1510 C   0  0  0  0  0  0  0  0  0  0  0  0
   42.9749   32.9620   41.4164 H   0  0  0  0  0  0  0  0  0  0  0  0
   42.2852   35.4588   41.1711 H   0  0  0  0  0  0  0  0  0  0  0  0
   43.7396   35.7153   40.1951 H   0  0  0  0  0  0  0  0  0  0  0  0
   41.7301   33.4614   39.6473 H   0  0  0  0  0  0  0  0  0  0  0  0
   41.5888   35.0430   38.8764 H   0  0  0  0  0  0  0  0  0  0  0  0
   43.8939   34.8684   38.0085 H   0  0  0  0  0  0  0  0  0  0  0  0
   42.9411   33.3729   37.5662 H   0  0  0  0  0  0  0  0  0  0  0  0
   44.0763   32.0708   38.8469 H   0  0  0  0  0  0  0  0  0  0  0  0
   45.3364   33.4091   38.4453 H   0  0  0  0  0  0  0  0  0  0  0  0
   45.0719   32.3188   40.9309 H   0  0  0  0  0  0  0  0  0  0  0  0
   44.7322   37.0276   44.5744 H   0  0  0  0  0  0  0  0  0  0  0  0
   43.7567   36.4219   42.3877 H   0  0  0  0  0  0  0  0  0  0  0  0
   45.7393   32.9393   45.1834 H   0  0  0  0  0  0  0  0  0  0  0  0
   46.9510   34.0373   38.7921 H   0  0  0  0  0  0  0  0  0  0  0  0
   46.7893   32.5597   39.9327 H   0  0  0  0  0  0  0  0  0  0  0  0
   48.7478   34.7493   39.9135 H   0  0  0  0  0  0  0  0  0  0  0  0
   48.9412   34.5483   42.3182 H   0  0  0  0  0  0  0  0  0  0  0  0
   47.1553   34.4648   42.1171 H   0  0  0  0  0  0  0  0  0  0  0  0
   47.7493   32.6175   43.5510 H   0  0  0  0  0  0  0  0  0  0  0  0
   47.4327   31.9006   41.9495 H   0  0  0  0  0  0  0  0  0  0  0  0
   50.0762   32.4179   43.3500 H   0  0  0  0  0  0  0  0  0  0  0  0
   49.5105   30.9433   42.4939 H   0  0  0  0  0  0  0  0  0  0  0  0
   50.6648   33.5079   41.3609 H   0  0  0  0  0  0  0  0  0  0  0  0
   51.0139   31.8320   40.8991 H   0  0  0  0  0  0  0  0  0  0  0  0
   48.4918   31.7120   40.2157 H   0  0  0  0  0  0  0  0  0  0  0  0
   49.6029   32.6503   39.1566 H   0  0  0  0  0  0  0  0  0  0  0  0
  1  9  1  0
  2  1  1  0
  3  2  1  0
  4  5  1  0
  4  3  1  0
  5  6  1  0
  6  1  1  0
  7 12  2  0
  8  7  1  0
  9  8  2  0
  9 10  1  0
 10 11  2  0
 11 12  1  0
 13  6  1  0
 14 15  1  0
 14 13  1  0
 15 16  1  0
 16 17  1  0
 18 17  1  0
 19 18  1  0
 20 15  1  0
 20 19  1  0
  1 21  1  1
  2 22  1  0
  2 23  1  0
  3 24  1  0
  3 25  1  0
  4 26  1  0
  4 27  1  0
  5 28  1  0
  5 29  1  0
  6 30  1  1
  7 31  1  0
  8 32  1  0
 11 33  1  0
 14 34  1  0
 14 35  1  0
 15 36  1  0
 16 37  1  0
 16 38  1  0
 17 39  1  0
 17 40  1  0
 18 41  1  0
 18 42  1  0
 19 43  1  0
 19 44  1  0
 20 45  1  0
 20 46  1  0
M  ISO  8  21  13  22  13  23  13  24  13  25  13  26  13  27  13  28  13
M  ISO  8  29  13  30  13  31  14  32  14  33  14  34   8  35   8  36  13
M  ISO  8  37  13  38  13  39  13  40  13  41  13  42  13  43  13  44  13
M  ISO  2  45  13  46  13
M  END
>  <minimizedAffinity>  (1) 
-4.28767967

>  <minimizedRMSD>  (1) 
3.05167627

$$$$
