
     RDKit          3D

 58 61  0  0  1  0  0  0  0  0999 V2000
   45.4230   27.8560   47.5610 C   0  0  0  0  0  0  0  0  0  0  0  0
   45.0480   27.1270   46.2760 C   0  0  0  0  0  0  0  0  0  0  0  0
   42.9120   28.0560   45.5830 C   0  0  0  0  0  0  0  0  0  0  0  0
   43.5910   26.9920   46.1980 C   0  0  0  0  0  0  0  0  0  0  0  0
   42.7660   25.9920   46.6560 C   0  0  0  0  0  0  0  0  0  0  0  0
   41.4080   25.9810   46.5510 C   0  0  0  0  0  0  0  0  0  0  0  0
   40.7580   27.0420   45.9410 C   0  0  0  0  0  0  0  0  0  0  0  0
   41.5380   28.1060   45.4450 C   0  0  0  0  0  0  0  0  0  0  0  0
   43.4750   29.1880   45.0300 O   0  0  0  0  0  0  0  0  0  0  0  0
   40.8000   29.0700   44.8770 O   0  0  0  0  0  0  0  0  0  0  0  0
   40.1450   29.2770   43.7060 C   0  0  0  0  0  0  0  0  0  0  0  0
   40.7160   30.5860   43.1170 C   0  0  0  0  0  0  0  0  0  0  0  0
   39.9090   30.9310   41.9000 C   0  0  0  0  0  0  0  0  0  0  0  0
   40.0220   29.8310   40.8680 C   0  0  0  0  0  0  0  0  0  0  0  0
   39.7610   28.4710   41.4250 C   0  0  0  0  0  0  0  0  0  0  0  0
   40.5780   28.2190   42.6680 C   0  0  0  0  0  0  0  0  0  0  0  0
   45.4460   29.1890   47.4350 O   0  0  0  0  0  0  0  0  0  0  0  0
   46.1480   31.4360   47.7740 C   0  0  2  0  0  0  0  0  0  0  0  0
   46.9990   31.8320   46.6530 C   0  0  1  0  0  0  0  0  0  0  0  0
   47.1510   30.5690   45.8870 O   0  0  0  0  0  0  0  0  0  0  0  0
   47.6320   29.7920   46.9370 C   0  0  0  0  0  0  0  0  0  0  0  0
   46.3860   29.9770   47.9650 C   0  0  2  0  0  0  0  0  0  0  0  0
   45.0180   34.6860   45.5540 C   0  0  0  0  0  0  0  0  0  0  0  0
   45.4240   34.8880   44.2380 C   0  0  0  0  0  0  0  0  0  0  0  0
   46.3960   34.0230   43.6960 C   0  0  0  0  0  0  0  0  0  0  0  0
   46.8960   33.0340   44.4680 N   0  0  0  0  0  0  0  0  0  0  0  0
   46.4870   32.8540   45.7450 C   0  0  0  0  0  0  0  0  0  0  0  0
   45.5460   33.6760   46.2990 N   0  0  0  0  0  0  0  0  0  0  0  0
   44.0600   35.5120   46.1400 O   0  0  0  0  0  0  0  0  0  0  0  0
   44.7560   31.5870   47.3640 O   0  0  0  0  0  0  0  0  0  0  0  0
   44.6889   27.5928   48.3368 H   0  0  0  0  0  0  0  0  0  0  0  0
   46.4430   27.5397   47.8249 H   0  0  0  0  0  0  0  0  0  0  0  0
   45.4099   27.7007   45.4100 H   0  0  0  0  0  0  0  0  0  0  0  0
   45.5093   26.1284   46.2732 H   0  0  0  0  0  0  0  0  0  0  0  0
   43.2415   25.1304   47.1474 H   0  0  0  0  0  0  0  0  0  0  0  0
   40.8299   25.1338   46.9486 H   0  0  0  0  0  0  0  0  0  0  0  0
   39.6621   27.0535   45.8464 H   0  0  0  0  0  0  0  0  0  0  0  0
   42.8965   29.8788   44.6199 H   0  0  0  0  0  0  0  0  0  0  0  0
   39.0604   29.2677   43.8889 H   0  0  0  0  0  0  0  0  0  0  0  0
   40.6394   31.3948   43.8586 H   0  0  0  0  0  0  0  0  0  0  0  0
   41.7759   30.4581   42.8520 H   0  0  0  0  0  0  0  0  0  0  0  0
   38.8540   31.0532   42.1865 H   0  0  0  0  0  0  0  0  0  0  0  0
   40.2926   31.8676   41.4691 H   0  0  0  0  0  0  0  0  0  0  0  0
   41.0391   29.8478   40.4495 H   0  0  0  0  0  0  0  0  0  0  0  0
   39.2560   30.0223   40.1021 H   0  0  0  0  0  0  0  0  0  0  0  0
   38.6932   28.3856   41.6752 H   0  0  0  0  0  0  0  0  0  0  0  0
   40.0452   27.7262   40.6671 H   0  0  0  0  0  0  0  0  0  0  0  0
   40.3806   27.2076   43.0527 H   0  0  0  0  0  0  0  0  0  0  0  0
   41.6548   28.2913   42.4550 H   0  0  0  0  0  0  0  0  0  0  0  0
   46.3564   32.0293   48.6765 H   0  0  0  0  0  0  0  0  0  0  0  0
   47.9103   32.2943   47.0603 H   0  0  0  0  0  0  0  0  0  0  0  0
   47.7747   28.7415   46.6436 H   0  0  0  0  0  0  0  0  0  0  0  0
   48.6199   30.0767   47.3281 H   0  0  0  0  0  0  0  0  0  0  0  0
   46.4752   29.7232   49.0316 H   0  0  0  0  0  0  0  0  0  0  0  0
   44.9966   35.7031   43.6355 H   0  0  0  0  0  0  0  0  0  0  0  0
   46.7421   34.1515   42.6598 H   0  0  0  0  0  0  0  0  0  0  0  0
   43.6607   36.2535   45.6196 H   0  0  0  0  0  0  0  0  0  0  0  0
   44.1804   31.6494   48.1670 H   0  0  0  0  0  0  0  0  0  0  0  0
  2  1  1  0
  3  4  2  0
  4  2  1  0
  4  5  1  0
  6  5  2  0
  7  6  1  0
  8  3  1  0
  8  7  2  0
  9  3  1  0
 10  8  1  0
 11 10  1  0
 12 11  1  0
 13 12  1  0
 14 15  1  0
 14 13  1  0
 15 16  1  0
 16 11  1  0
 17  1  1  0
 17 22  1  0
 18 22  1  0
 19 18  1  0
 20 19  1  0
 20 21  1  0
 21 22  1  0
 23 29  1  0
 23 28  2  0
 24 23  1  0
 25 24  2  0
 25 26  1  0
 26 27  2  0
 27 28  1  0
 27 19  1  0
 30 18  1  0
  1 31  1  0
  1 32  1  0
  2 33  1  0
  2 34  1  0
  5 35  1  0
  6 36  1  0
  7 37  1  0
  9 38  1  0
 11 39  1  0
 12 40  1  0
 12 41  1  0
 13 42  1  0
 13 43  1  0
 14 44  1  0
 14 45  1  0
 15 46  1  0
 15 47  1  0
 16 48  1  0
 16 49  1  0
 18 50  1  1
 19 51  1  1
 21 52  1  0
 21 53  1  0
 22 54  1  1
 24 55  1  0
 25 56  1  0
 29 57  1  0
 30 58  1  0
M  ISO  8  31   8  32   8  33   8  34   8  35  14  36  14  37  14  38   3
M  ISO  8  39  13  40  13  41  13  42  13  43  13  44  13  45  13  46  13
M  ISO  8  47  13  48  13  49  13  50  13  51  13  52  13  53  13  54  13
M  ISO  4  55  14  56  14  57   3  58   3
M  END
>  <minimizedAffinity>  (1) 
-6.23884535

>  <minimizedRMSD>  (1) 
1.2058332

$$$$
