
     RDKit          3D

 48 51  0  0  0  0  0  0  0  0999 V2000
   47.8500   33.9670   42.8980 C   0  0  0  0  0  0  0  0  0  0  0  0
   48.3960   35.2200   42.5950 C   0  0  0  0  0  0  0  0  0  0  0  0
   49.7400   35.3240   42.1860 C   0  0  0  0  0  0  0  0  0  0  0  0
   50.4370   34.1430   42.1130 N   0  0  0  0  0  0  0  0  0  0  0  0
   49.8670   32.9360   42.4190 C   0  0  0  0  0  0  0  0  0  0  0  0
   48.5960   32.8670   42.8020 N   0  0  0  0  0  0  0  0  0  0  0  0
   46.4370   33.9910   43.3190 C   0  0  0  0  0  0  0  0  0  0  0  0
   45.6300   35.0040   42.6430 C   0  0  0  0  0  0  0  0  0  0  0  0
   45.1640   36.1080   43.5220 C   0  0  0  0  0  0  0  0  0  0  0  0
   44.4440   35.6130   44.7670 C   0  0  0  0  0  0  0  0  0  0  0  0
   45.0390   34.3560   45.3590 C   0  0  0  0  0  0  0  0  0  0  0  0
   46.4390   34.1370   44.8490 C   0  0  0  0  0  0  0  0  0  0  0  0
   50.7510   31.7870   42.2930 C   0  0  0  0  0  0  0  0  0  0  0  0
   51.4770   31.6860   41.1560 N   0  0  0  0  0  0  0  0  0  0  0  0
   52.2370   30.5690   41.2090 C   0  0  0  0  0  0  0  0  0  0  0  0
   51.9670   29.9800   42.4090 N   0  0  0  0  0  0  0  0  0  0  0  0
   51.0670   30.7190   43.0630 N   0  0  0  0  0  0  0  0  0  0  0  0
   52.5400   28.7600   42.9180 C   0  0  0  0  0  0  0  0  0  0  0  0
   53.7810   28.3140   42.2160 C   0  0  0  0  0  0  0  0  0  0  0  0
   54.7470   27.7520   43.2390 C   0  0  0  0  0  0  0  0  0  0  0  0
   55.2440   28.8470   44.1450 C   0  0  0  0  0  0  0  0  0  0  0  0
   54.0870   29.6620   44.6710 C   0  0  0  0  0  0  0  0  0  0  0  0
   52.7660   28.9850   44.4000 C   0  0  0  0  0  0  0  0  0  0  0  0
   47.7749   36.1242   42.6764 H   0  0  0  0  0  0  0  0  0  0  0  0
   50.2025   36.2913   41.9403 H   0  0  0  0  0  0  0  0  0  0  0  0
   45.9433   33.0548   43.0192 H   0  0  0  0  0  0  0  0  0  0  0  0
   46.2339   35.4406   41.8338 H   0  0  0  0  0  0  0  0  0  0  0  0
   44.7272   34.4924   42.2779 H   0  0  0  0  0  0  0  0  0  0  0  0
   46.0371   36.6999   43.8340 H   0  0  0  0  0  0  0  0  0  0  0  0
   44.4463   36.7083   42.9437 H   0  0  0  0  0  0  0  0  0  0  0  0
   44.4827   36.4063   45.5280 H   0  0  0  0  0  0  0  0  0  0  0  0
   43.4151   35.3678   44.4648 H   0  0  0  0  0  0  0  0  0  0  0  0
   45.0647   34.4502   46.4547 H   0  0  0  0  0  0  0  0  0  0  0  0
   44.4173   33.4980   45.0636 H   0  0  0  0  0  0  0  0  0  0  0  0
   46.8495   33.2213   45.2996 H   0  0  0  0  0  0  0  0  0  0  0  0
   47.0576   35.0043   45.1231 H   0  0  0  0  0  0  0  0  0  0  0  0
   52.9337   30.2076   40.4383 H   0  0  0  0  0  0  0  0  0  0  0  0
   51.8447   27.9278   42.7335 H   0  0  0  0  0  0  0  0  0  0  0  0
   53.5297   27.5369   41.4792 H   0  0  0  0  0  0  0  0  0  0  0  0
   54.2424   29.1664   41.6959 H   0  0  0  0  0  0  0  0  0  0  0  0
   54.2339   26.9877   43.8411 H   0  0  0  0  0  0  0  0  0  0  0  0
   55.6042   27.3052   42.7141 H   0  0  0  0  0  0  0  0  0  0  0  0
   55.7859   28.3991   44.9910 H   0  0  0  0  0  0  0  0  0  0  0  0
   55.9135   29.5063   43.5731 H   0  0  0  0  0  0  0  0  0  0  0  0
   54.2059   29.7923   45.7568 H   0  0  0  0  0  0  0  0  0  0  0  0
   54.0882   30.6349   44.1576 H   0  0  0  0  0  0  0  0  0  0  0  0
   51.9554   29.6172   44.7914 H   0  0  0  0  0  0  0  0  0  0  0  0
   52.7778   28.0033   44.8961 H   0  0  0  0  0  0  0  0  0  0  0  0
  1  7  1  0
  2  1  2  0
  3  2  1  0
  4  3  2  0
  4  5  1  0
  5  6  2  0
  6  1  1  0
  7 12  1  0
  8  7  1  0
  8  9  1  0
  9 10  1  0
 10 11  1  0
 12 11  1  0
 13  5  1  0
 13 17  2  0
 14 15  2  0
 14 13  1  0
 15 16  1  0
 16 18  1  0
 16 17  1  0
 18 23  1  0
 19 18  1  0
 19 20  1  0
 20 21  1  0
 21 22  1  0
 23 22  1  0
  2 24  1  0
  3 25  1  0
  7 26  1  0
  8 27  1  0
  8 28  1  0
  9 29  1  0
  9 30  1  0
 10 31  1  0
 10 32  1  0
 11 33  1  0
 11 34  1  0
 12 35  1  0
 12 36  1  0
 15 37  1  0
 18 38  1  0
 19 39  1  0
 19 40  1  0
 20 41  1  0
 20 42  1  0
 21 43  1  0
 21 44  1  0
 22 45  1  0
 22 46  1  0
 23 47  1  0
 23 48  1  0
M  ISO  8  24  14  25  14  26  13  27  13  28  13  29  13  30  13  31  13
M  ISO  8  32  13  33  13  34  13  35  13  36  13  37  14  38  13  39  13
M  ISO  8  40  13  41  13  42  13  43  13  44  13  45  13  46  13  47  13
M  ISO  1  48  13
M  END
>  <minimizedAffinity>  (1) 
-4.38193035

>  <minimizedRMSD>  (1) 
1.70187128

$$$$
