
     RDKit          3D

 37 39  0  0  0  0  0  0  0  0999 V2000
   45.9240   35.8580   42.9790 C   0  0  0  0  0  0  0  0  0  0  0  0
   46.3510   34.5720   43.3920 C   0  0  0  0  0  0  0  0  0  0  0  0
   45.7550   34.0640   44.5450 C   0  0  0  0  0  0  0  0  0  0  0  0
   44.8280   34.7840   45.2050 N   0  0  0  0  0  0  0  0  0  0  0  0
   44.4400   36.0270   44.7710 C   0  0  0  0  0  0  0  0  0  0  0  0
   44.9980   36.5260   43.6740 N   0  0  0  0  0  0  0  0  0  0  0  0
   46.1760   32.7410   44.9960 C   0  0  0  0  0  0  0  0  0  0  0  0
   45.7410   31.6180   44.3310 C   0  0  0  0  0  0  0  0  0  0  0  0
   46.1540   30.3830   44.7770 C   0  0  0  0  0  0  0  0  0  0  0  0
   46.9910   30.2080   45.8710 C   0  0  0  0  0  0  0  0  0  0  0  0
   47.3920   31.3860   46.4960 C   0  0  0  0  0  0  0  0  0  0  0  0
   46.9790   32.5790   46.0450 N   0  0  0  0  0  0  0  0  0  0  0  0
   47.3340   33.8600   42.6570 C   0  0  0  0  0  0  0  0  0  0  0  0
   48.5130   33.8680   43.1280 O   0  0  0  0  0  0  0  0  0  0  0  0
   47.2790   33.0670   41.3930 C   0  0  0  0  0  0  0  0  0  0  0  0
   48.6030   32.3820   41.2610 C   0  0  0  0  0  0  0  0  0  0  0  0
   48.9180   31.8920   39.8770 C   0  0  0  0  0  0  0  0  0  0  0  0
   48.6400   32.8980   38.8070 C   0  0  0  0  0  0  0  0  0  0  0  0
   48.0490   34.1790   39.3030 C   0  0  0  0  0  0  0  0  0  0  0  0
   46.9000   33.9400   40.2440 C   0  0  0  0  0  0  0  0  0  0  0  0
   46.3592   36.3119   42.0765 H   0  0  0  0  0  0  0  0  0  0  0  0
   43.6799   36.6000   45.3223 H   0  0  0  0  0  0  0  0  0  0  0  0
   45.0757   31.7053   43.4593 H   0  0  0  0  0  0  0  0  0  0  0  0
   45.8033   29.4896   44.2396 H   0  0  0  0  0  0  0  0  0  0  0  0
   47.3127   29.2148   46.2175 H   0  0  0  0  0  0  0  0  0  0  0  0
   48.0564   31.3370   47.3713 H   0  0  0  0  0  0  0  0  0  0  0  0
   46.4960   32.2946   41.4069 H   0  0  0  0  0  0  0  0  0  0  0  0
   49.3880   33.0920   41.5606 H   0  0  0  0  0  0  0  0  0  0  0  0
   48.5586   31.4910   41.9046 H   0  0  0  0  0  0  0  0  0  0  0  0
   49.9849   31.6274   39.8365 H   0  0  0  0  0  0  0  0  0  0  0  0
   48.2645   31.0283   39.6846 H   0  0  0  0  0  0  0  0  0  0  0  0
   47.9379   32.4507   38.0880 H   0  0  0  0  0  0  0  0  0  0  0  0
   49.6103   33.1534   38.3560 H   0  0  0  0  0  0  0  0  0  0  0  0
   48.8279   34.7491   39.8305 H   0  0  0  0  0  0  0  0  0  0  0  0
   47.6680   34.7370   38.4350 H   0  0  0  0  0  0  0  0  0  0  0  0
   46.5558   34.9089   40.6348 H   0  0  0  0  0  0  0  0  0  0  0  0
   46.1058   33.4279   39.6809 H   0  0  0  0  0  0  0  0  0  0  0  0
  1  2  2  0
  1  6  1  0
  2  3  1  0
  3  7  1  0
  3  4  2  0
  5  4  1  0
  6  5  2  0
  7 12  2  0
  8  9  2  0
  8  7  1  0
  9 10  1  0
 10 11  2  0
 12 11  1  0
 13 14  2  0
 13  2  1  0
 15 13  1  0
 16 15  1  0
 17 16  1  0
 18 19  1  0
 18 17  1  0
 19 20  1  0
 20 15  1  0
  1 21  1  0
  5 22  1  0
  8 23  1  0
  9 24  1  0
 10 25  1  0
 11 26  1  0
 15 27  1  0
 16 28  1  0
 16 29  1  0
 17 30  1  0
 17 31  1  0
 18 32  1  0
 18 33  1  0
 19 34  1  0
 19 35  1  0
 20 36  1  0
 20 37  1  0
M  ISO  8  21  14  22  14  23  14  24  14  25  14  26  14  27  13  28  13
M  ISO  8  29  13  30  13  31  13  32  13  33  13  34  13  35  13  36  13
M  ISO  1  37  13
M  END
>  <minimizedAffinity>  (1) 
-4.69336176

>  <minimizedRMSD>  (1) 
1.74347115

$$$$
