
     RDKit          3D

 49 51  0  0  0  0  0  0  0  0999 V2000
   45.7420   35.5180   42.9120 C   0  0  0  0  0  0  0  0  0  0  0  0
   46.6090   34.4870   43.3840 C   0  0  0  0  0  0  0  0  0  0  0  0
   46.3660   33.9630   44.6420 C   0  0  0  0  0  0  0  0  0  0  0  0
   45.3280   34.4400   45.3720 N   0  0  0  0  0  0  0  0  0  0  0  0
   44.5200   35.4140   44.9100 C   0  0  0  0  0  0  0  0  0  0  0  0
   44.7300   35.9440   43.6910 N   0  0  0  0  0  0  0  0  0  0  0  0
   47.6420   34.1070   42.4950 N   0  0  0  0  0  0  0  0  0  0  0  0
   47.5310   32.9780   41.5790 C   0  0  0  0  0  0  0  0  0  0  0  0
   48.7360   32.9240   40.6820 C   0  0  0  0  0  0  0  0  0  0  0  0
   49.9790   32.9740   41.3960 N   0  0  0  0  0  0  0  0  0  0  0  0
   50.0780   33.9990   42.3750 C   0  0  0  0  0  0  0  0  0  0  0  0
   48.8700   34.8870   42.5040 C   0  0  0  0  0  0  0  0  0  0  0  0
   47.2320   32.9620   45.0620 O   0  0  0  0  0  0  0  0  0  0  0  0
   45.5750   30.9200   44.7130 O   0  0  0  0  0  0  0  0  0  0  0  0
   46.5610   31.5160   45.7170 P   0  0  1  0  0  0  0  0  0  0  0  0
   47.8140   30.4580   46.0360 O   0  0  0  0  0  0  0  0  0  0  0  0
   47.4560   29.1520   45.7810 C   0  0  0  0  0  0  0  0  0  0  0  0
   46.6490   28.5590   46.9200 C   0  0  0  0  0  0  0  0  0  0  0  0
   46.9200   27.0540   47.0350 C   0  0  0  0  0  0  0  0  0  0  0  0
   48.3220   26.8000   47.5350 C   0  0  0  0  0  0  0  0  0  0  0  0
   49.1640   27.9930   47.1110 C   0  0  0  0  0  0  0  0  0  0  0  0
   48.7350   28.3330   45.6840 C   0  0  0  0  0  0  0  0  0  0  0  0
   45.7200   31.9400   47.1020 O   0  0  0  0  0  0  0  0  0  0  0  0
   46.5400   32.1540   48.1930 C   0  0  0  0  0  0  0  0  0  0  0  0
   47.6660   32.8890   47.9110 F   0  0  0  0  0  0  0  0  0  0  0  0
   46.9200   31.0090   48.8460 F   0  0  0  0  0  0  0  0  0  0  0  0
   45.7770   32.8780   49.1060 F   0  0  0  0  0  0  0  0  0  0  0  0
   45.8998   35.9617   41.9179 H   0  0  0  0  0  0  0  0  0  0  0  0
   43.6871   35.7767   45.5303 H   0  0  0  0  0  0  0  0  0  0  0  0
   47.4652   32.0446   42.1574 H   0  0  0  0  0  0  0  0  0  0  0  0
   46.6275   33.0996   40.9634 H   0  0  0  0  0  0  0  0  0  0  0  0
   48.6956   33.7794   39.9916 H   0  0  0  0  0  0  0  0  0  0  0  0
   48.7039   31.9607   40.1519 H   0  0  0  0  0  0  0  0  0  0  0  0
   50.1104   32.0686   41.8693 H   0  0  0  0  0  0  0  0  0  0  0  0
   50.2537   33.5212   43.3501 H   0  0  0  0  0  0  0  0  0  0  0  0
   50.9007   34.6519   42.0482 H   0  0  0  0  0  0  0  0  0  0  0  0
   48.8525   35.5940   41.6615 H   0  0  0  0  0  0  0  0  0  0  0  0
   48.9339   35.4262   43.4606 H   0  0  0  0  0  0  0  0  0  0  0  0
   46.8558   29.1323   44.8594 H   0  0  0  0  0  0  0  0  0  0  0  0
   46.9329   29.0521   47.8614 H   0  0  0  0  0  0  0  0  0  0  0  0
   45.5787   28.7163   46.7209 H   0  0  0  0  0  0  0  0  0  0  0  0
   46.2000   26.6103   47.7384 H   0  0  0  0  0  0  0  0  0  0  0  0
   46.8119   26.5985   46.0396 H   0  0  0  0  0  0  0  0  0  0  0  0
   48.3219   26.7073   48.6311 H   0  0  0  0  0  0  0  0  0  0  0  0
   48.7255   25.8650   47.1190 H   0  0  0  0  0  0  0  0  0  0  0  0
   48.9782   28.8472   47.7787 H   0  0  0  0  0  0  0  0  0  0  0  0
   50.2385   27.7633   47.1622 H   0  0  0  0  0  0  0  0  0  0  0  0
   48.5488   27.4094   45.1164 H   0  0  0  0  0  0  0  0  0  0  0  0
   49.5222   28.8988   45.1642 H   0  0  0  0  0  0  0  0  0  0  0  0
  1  2  2  0
  1  6  1  0
  2  3  1  0
  3 13  1  0
  3  4  2  0
  5  4  1  0
  6  5  2  0
  7 12  1  0
  7  2  1  0
  8  7  1  0
  9 10  1  0
  9  8  1  0
 10 11  1  0
 11 12  1  0
 13 15  1  0
 15 14  2  0
 15 16  1  0
 15 23  1  0
 17 16  1  0
 17 18  1  0
 18 19  1  0
 19 20  1  0
 21 20  1  0
 22 17  1  0
 22 21  1  0
 23 24  1  0
 24 26  1  0
 24 27  1  0
 25 24  1  0
  1 28  1  0
  5 29  1  0
  8 30  1  0
  8 31  1  0
  9 32  1  0
  9 33  1  0
 10 34  1  0
 11 35  1  0
 11 36  1  0
 12 37  1  0
 12 38  1  0
 17 39  1  0
 18 40  1  0
 18 41  1  0
 19 42  1  0
 19 43  1  0
 20 44  1  0
 20 45  1  0
 21 46  1  0
 21 47  1  0
 22 48  1  0
 22 49  1  0
M  ISO  8  28  14  29  14  30  13  31  13  32  13  33  13  34   5  35  13
M  ISO  8  36  13  37  13  38  13  39  13  40  13  41  13  42  13  43  13
M  ISO  6  44  13  45  13  46  13  47  13  48  13  49  13
M  END
>  <minimizedAffinity>  (1) 
-5.24247456

>  <minimizedRMSD>  (1) 
2.84501863

$$$$
