
     RDKit          3D

 54 57  0  0  0  0  0  0  0  0999 V2000
   47.7370   31.0370   45.9190 C   0  0  0  0  0  0  0  0  0  0  0  0
   46.9860   32.0730   45.4090 C   0  0  0  0  0  0  0  0  0  0  0  0
   45.9510   32.5440   46.1710 C   0  0  0  0  0  0  0  0  0  0  0  0
   45.6300   32.0400   47.4060 C   0  0  0  0  0  0  0  0  0  0  0  0
   44.7020   32.2760   48.3760 N   0  0  0  0  0  0  0  0  0  0  0  0
   44.9040   31.4100   49.4160 C   0  0  0  0  0  0  0  0  0  0  0  0
   45.9570   30.6430   49.0790 N   0  0  0  0  0  0  0  0  0  0  0  0
   46.4100   31.0080   47.8700 C   0  0  0  0  0  0  0  0  0  0  0  0
   47.4530   30.4880   47.1700 C   0  0  0  0  0  0  0  0  0  0  0  0
   47.3180   34.4370   42.6400 C   0  0  0  0  0  0  0  0  0  0  0  0
   47.8900   33.6580   41.6250 C   0  0  0  0  0  0  0  0  0  0  0  0
   48.1470   32.3100   41.9430 C   0  0  0  0  0  0  0  0  0  0  0  0
   47.8450   31.8290   43.1690 N   0  0  0  0  0  0  0  0  0  0  0  0
   47.2950   32.6400   44.0960 C   0  0  0  0  0  0  0  0  0  0  0  0
   47.0270   33.9260   43.8580 N   0  0  0  0  0  0  0  0  0  0  0  0
   48.1800   34.2890   40.3170 C   0  0  0  0  0  0  0  0  0  0  0  0
   48.7100   35.5270   40.6350 F   0  0  0  0  0  0  0  0  0  0  0  0
   47.0110   34.4620   39.6560 F   0  0  0  0  0  0  0  0  0  0  0  0
   49.0760   33.4830   39.6290 F   0  0  0  0  0  0  0  0  0  0  0  0
   48.2050   29.4470   47.6900 O   0  0  0  0  0  0  0  0  0  0  0  0
   49.8100   28.2100   49.3070 O   0  0  0  0  0  0  0  0  0  0  0  0
   49.4080   29.6050   48.8640 P   0  0  2  0  0  0  0  0  0  0  0  0
   48.7100   30.3690   50.2130 O   0  0  0  0  0  0  0  0  0  0  0  0
   50.7520   30.4640   48.3560 O   0  0  0  0  0  0  0  0  0  0  0  0
   51.7490   30.6060   49.2870 C   0  0  0  0  0  0  0  0  0  0  0  0
   51.9710   32.1070   49.4480 C   0  0  0  0  0  0  0  0  0  0  0  0
   51.2230   32.6450   50.6440 C   0  0  0  0  0  0  0  0  0  0  0  0
   51.4270   31.8350   51.8800 C   0  0  0  0  0  0  0  0  0  0  0  0
   51.5270   32.7630   53.0740 C   0  0  0  0  0  0  0  0  0  0  0  0
   52.7910   33.5920   53.0300 C   0  0  0  0  0  0  0  0  0  0  0  0
   52.8840   34.2200   51.6560 C   0  0  0  0  0  0  0  0  0  0  0  0
   51.6090   34.0690   50.8720 C   0  0  0  0  0  0  0  0  0  0  0  0
   48.5749   30.6356   45.3301 H   0  0  0  0  0  0  0  0  0  0  0  0
   45.3445   33.3704   45.7720 H   0  0  0  0  0  0  0  0  0  0  0  0
   43.9644   32.9936   48.3329 H   0  0  0  0  0  0  0  0  0  0  0  0
   44.3196   31.3521   50.3461 H   0  0  0  0  0  0  0  0  0  0  0  0
   47.0991   35.4963   42.4400 H   0  0  0  0  0  0  0  0  0  0  0  0
   48.5957   31.6458   41.1897 H   0  0  0  0  0  0  0  0  0  0  0  0
   49.0740   29.9705   51.0429 H   0  0  0  0  0  0  0  0  0  0  0  0
   51.4422   30.1611   50.2451 H   0  0  0  0  0  0  0  0  0  0  0  0
   52.6704   30.0966   48.9683 H   0  0  0  0  0  0  0  0  0  0  0  0
   53.0460   32.2983   49.5815 H   0  0  0  0  0  0  0  0  0  0  0  0
   51.5957   32.6130   48.5463 H   0  0  0  0  0  0  0  0  0  0  0  0
   50.1489   32.5793   50.4160 H   0  0  0  0  0  0  0  0  0  0  0  0
   50.5763   31.1510   52.0160 H   0  0  0  0  0  0  0  0  0  0  0  0
   52.3537   31.2493   51.7889 H   0  0  0  0  0  0  0  0  0  0  0  0
   50.6578   33.4371   53.0760 H   0  0  0  0  0  0  0  0  0  0  0  0
   51.5498   32.1488   53.9863 H   0  0  0  0  0  0  0  0  0  0  0  0
   52.7503   34.3778   53.7987 H   0  0  0  0  0  0  0  0  0  0  0  0
   53.6712   32.9617   53.2251 H   0  0  0  0  0  0  0  0  0  0  0  0
   53.1038   35.2917   51.7710 H   0  0  0  0  0  0  0  0  0  0  0  0
   53.6823   33.7033   51.1031 H   0  0  0  0  0  0  0  0  0  0  0  0
   51.7400   34.5563   49.8946 H   0  0  0  0  0  0  0  0  0  0  0  0
   50.8058   34.5346   51.4620 H   0  0  0  0  0  0  0  0  0  0  0  0
  1  9  2  0
  2  1  1  0
  2  3  2  0
  3  4  1  0
  4  8  2  0
  4  5  1  0
  5  6  1  0
  7  6  2  0
  8  7  1  0
  9 20  1  0
  9  8  1  0
 10 15  2  0
 11 12  2  0
 11 10  1  0
 12 13  1  0
 13 14  2  0
 14  2  1  0
 15 14  1  0
 16 17  1  0
 16 11  1  0
 18 16  1  0
 19 16  1  0
 20 22  1  0
 22 21  2  0
 22 23  1  0
 24 22  1  0
 24 25  1  0
 25 26  1  0
 26 27  1  0
 27 32  1  0
 27 28  1  0
 28 29  1  0
 30 29  1  0
 31 30  1  0
 32 31  1  0
  1 33  1  0
  3 34  1  0
  5 35  1  0
  6 36  1  0
 10 37  1  0
 12 38  1  0
 23 39  1  0
 25 40  1  0
 25 41  1  0
 26 42  1  0
 26 43  1  0
 27 44  1  0
 28 45  1  0
 28 46  1  0
 29 47  1  0
 29 48  1  0
 30 49  1  0
 30 50  1  0
 31 51  1  0
 31 52  1  0
 32 53  1  0
 32 54  1  0
M  ISO  8  33  14  34  14  35   9  36  14  37  14  38  14  39   3  40   8
M  ISO  8  41   8  42   8  43   8  44  13  45  13  46  13  47  13  48  13
M  ISO  6  49  13  50  13  51  13  52  13  53  13  54  13
M  END
>  <minimizedAffinity>  (1) 
-6.36569548

>  <minimizedRMSD>  (1) 
1.53282058

$$$$
