
     RDKit          3D

 36 37  0  0  0  0  0  0  0  0999 V2000
   44.5630   34.8220   42.0810 C   0  0  0  0  0  0  0  0  0  0  0  0
   44.7440   33.8710   43.0980 C   0  0  0  0  0  0  0  0  0  0  0  0
   44.9780   34.3320   44.3920 C   0  0  0  0  0  0  0  0  0  0  0  0
   45.0220   35.6660   44.6170 N   0  0  0  0  0  0  0  0  0  0  0  0
   44.8460   36.5490   43.6340 C   0  0  0  0  0  0  0  0  0  0  0  0
   44.6160   36.1230   42.3610 N   0  0  0  0  0  0  0  0  0  0  0  0
   42.9470   34.7720   40.2140 C   0  0  0  0  0  0  0  0  0  0  0  0
   41.9390   34.5380   40.9620 O   0  0  0  0  0  0  0  0  0  0  0  0
   44.3110   34.9210   40.6830 N   0  0  0  0  0  0  0  0  0  0  0  0
   44.6720   32.5620   42.7130 O   0  0  0  0  0  0  0  0  0  0  0  0
   45.8840   30.4050   43.6470 O   0  0  0  0  0  0  0  0  0  0  0  0
   46.0640   31.5480   42.6840 P   0  0  1  0  0  0  0  0  0  0  0  0
   46.2680   30.8930   41.1460 O   0  0  0  0  0  0  0  0  0  0  0  0
   47.4400   32.4150   43.1240 O   0  0  0  0  0  0  0  0  0  0  0  0
   48.2810   32.6250   42.0260 C   0  0  0  0  0  0  0  0  0  0  0  0
   48.0050   33.8780   41.2690 C   0  0  0  0  0  0  0  0  0  0  0  0
   48.5890   35.1250   41.8590 C   0  0  0  0  0  0  0  0  0  0  0  0
   49.8510   34.9280   42.6370 C   0  0  0  0  0  0  0  0  0  0  0  0
   50.5620   33.7000   42.1490 C   0  0  0  0  0  0  0  0  0  0  0  0
   49.7200   32.4880   42.4740 C   0  0  0  0  0  0  0  0  0  0  0  0
   45.1249   33.6218   45.2190 H   0  0  0  0  0  0  0  0  0  0  0  0
   44.8867   37.6264   43.8519 H   0  0  0  0  0  0  0  0  0  0  0  0
   42.7672   34.8677   39.1330 H   0  0  0  0  0  0  0  0  0  0  0  0
   45.0800   35.0945   40.0201 H   0  0  0  0  0  0  0  0  0  0  0  0
   46.5615   29.9508   41.2249 H   0  0  0  0  0  0  0  0  0  0  0  0
   48.0672   31.8442   41.2812 H   0  0  0  0  0  0  0  0  0  0  0  0
   46.9141   34.0075   41.2126 H   0  0  0  0  0  0  0  0  0  0  0  0
   48.4856   33.7522   40.2876 H   0  0  0  0  0  0  0  0  0  0  0  0
   48.8013   35.8241   41.0366 H   0  0  0  0  0  0  0  0  0  0  0  0
   47.8440   35.5034   42.5744 H   0  0  0  0  0  0  0  0  0  0  0  0
   50.5025   35.8043   42.5042 H   0  0  0  0  0  0  0  0  0  0  0  0
   49.6059   34.8067   43.7025 H   0  0  0  0  0  0  0  0  0  0  0  0
   51.5390   33.6159   42.6475 H   0  0  0  0  0  0  0  0  0  0  0  0
   50.7183   33.7658   41.0622 H   0  0  0  0  0  0  0  0  0  0  0  0
   49.7341   32.3342   43.5631 H   0  0  0  0  0  0  0  0  0  0  0  0
   50.1519   31.6345   41.9309 H   0  0  0  0  0  0  0  0  0  0  0  0
  1  6  2  0
  1  2  1  0
  2  3  2  0
  3  4  1  0
  5  4  2  0
  6  5  1  0
  7  9  1  0
  7  8  2  0
  9  1  1  0
 10  2  1  0
 12 10  1  0
 12 14  1  0
 12 11  2  0
 13 12  1  0
 15 20  1  0
 15 14  1  0
 16 17  1  0
 16 15  1  0
 17 18  1  0
 19 20  1  0
 19 18  1  0
  3 21  1  0
  5 22  1  0
  7 23  1  0
  9 24  1  0
 13 25  1  0
 15 26  1  0
 16 27  1  0
 16 28  1  0
 17 29  1  0
 17 30  1  0
 18 31  1  0
 18 32  1  0
 19 33  1  0
 19 34  1  0
 20 35  1  0
 20 36  1  0
M  ISO  8  21  14  22  14  23   6  25   3  26  13  27  13  28  13  29  13
M  ISO  7  30  13  31  13  32  13  33  13  34  13  35  13  36  13
M  END
>  <minimizedAffinity>  (1) 
-4.34818363

>  <minimizedRMSD>  (1) 
3.57759762

$$$$
