
     RDKit          3D

 40 42  0  0  1  0  0  0  0  0999 V2000
   45.0040   34.5890   42.5210 N   0  0  0  0  0  0  0  0  0  0  0  0
   45.8850   33.9090   41.6740 C   0  0  1  0  0  0  0  0  0  0  0  0
   45.4450   33.7400   40.2450 C   0  0  0  0  0  0  0  0  0  0  0  0
   44.1200   33.9770   39.9010 N   0  0  0  0  0  0  0  0  0  0  0  0
   43.3780   34.8470   40.6920 C   0  0  0  0  0  0  0  0  0  0  0  0
   44.1230   35.4740   41.8070 C   0  0  0  0  0  0  0  0  0  0  0  0
   44.4900   35.4280   44.7020 C   0  0  0  0  0  0  0  0  0  0  0  0
   45.0200   34.4010   43.9300 C   0  0  0  0  0  0  0  0  0  0  0  0
   45.5330   33.2870   44.5610 C   0  0  0  0  0  0  0  0  0  0  0  0
   45.5240   33.1910   45.9170 N   0  0  0  0  0  0  0  0  0  0  0  0
   44.9950   34.2170   46.6580 C   0  0  0  0  0  0  0  0  0  0  0  0
   44.4900   35.3120   46.0460 N   0  0  0  0  0  0  0  0  0  0  0  0
   47.2740   34.5670   41.5880 C   0  0  0  0  0  0  0  0  0  0  0  0
   48.3070   33.9370   42.4440 C   0  0  0  0  0  0  0  0  0  0  0  0
   49.4220   34.9600   42.6260 C   0  0  0  0  0  0  0  0  0  0  0  0
   49.3420   36.0690   41.6250 C   0  0  0  0  0  0  0  0  0  0  0  0
   49.0390   35.6040   40.2360 C   0  0  0  0  0  0  0  0  0  0  0  0
   47.7850   34.7530   40.2070 C   0  0  0  0  0  0  0  0  0  0  0  0
   45.9096   32.9250   42.1651 H   0  0  0  0  0  0  0  0  0  0  0  0
   46.0590   34.4225   39.6391 H   0  0  0  0  0  0  0  0  0  0  0  0
   45.5680   32.6619   40.0645 H   0  0  0  0  0  0  0  0  0  0  0  0
   44.1171   34.3577   38.9439 H   0  0  0  0  0  0  0  0  0  0  0  0
   42.9925   35.6496   40.0461 H   0  0  0  0  0  0  0  0  0  0  0  0
   42.5872   34.2393   41.1561 H   0  0  0  0  0  0  0  0  0  0  0  0
   44.7257   36.2968   41.3951 H   0  0  0  0  0  0  0  0  0  0  0  0
   43.3673   35.8084   42.5330 H   0  0  0  0  0  0  0  0  0  0  0  0
   44.0747   36.3264   44.2219 H   0  0  0  0  0  0  0  0  0  0  0  0
   45.9540   32.4672   43.9604 H   0  0  0  0  0  0  0  0  0  0  0  0
   44.9815   34.1487   47.7558 H   0  0  0  0  0  0  0  0  0  0  0  0
   47.0824   35.5697   41.9976 H   0  0  0  0  0  0  0  0  0  0  0  0
   47.8766   33.6700   43.4205 H   0  0  0  0  0  0  0  0  0  0  0  0
   48.6916   33.0164   41.9807 H   0  0  0  0  0  0  0  0  0  0  0  0
   49.3475   35.3889   43.6362 H   0  0  0  0  0  0  0  0  0  0  0  0
   50.3816   34.4425   42.4798 H   0  0  0  0  0  0  0  0  0  0  0  0
   48.5495   36.7641   41.9393 H   0  0  0  0  0  0  0  0  0  0  0  0
   50.3320   36.5475   41.5952 H   0  0  0  0  0  0  0  0  0  0  0  0
   48.8935   36.4805   39.5874 H   0  0  0  0  0  0  0  0  0  0  0  0
   49.8829   34.9951   39.8794 H   0  0  0  0  0  0  0  0  0  0  0  0
   47.0178   35.2531   39.5976 H   0  0  0  0  0  0  0  0  0  0  0  0
   48.0213   33.7712   39.7709 H   0  0  0  0  0  0  0  0  0  0  0  0
  1  8  1  0
  2  1  1  0
  3  2  1  0
  4  3  1  0
  4  5  1  0
  5  6  1  0
  6  1  1  0
  7 12  2  0
  8  9  2  0
  8  7  1  0
  9 10  1  0
 10 11  2  0
 12 11  1  0
 13  2  1  0
 13 14  1  0
 14 15  1  0
 16 15  1  0
 17 16  1  0
 18 17  1  0
 18 13  1  0
  2 19  1  1
  3 20  1  0
  3 21  1  0
  4 22  1  0
  5 23  1  0
  5 24  1  0
  6 25  1  0
  6 26  1  0
  7 27  1  0
  9 28  1  0
 11 29  1  0
 13 30  1  0
 14 31  1  0
 14 32  1  0
 15 33  1  0
 15 34  1  0
 16 35  1  0
 16 36  1  0
 17 37  1  0
 17 38  1  0
 18 39  1  0
 18 40  1  0
M  ISO  8  19  13  20  13  21  13  22   5  23  13  24  13  25  13  26  13
M  ISO  8  27  14  28  14  29  14  30  13  31  13  32  13  33  13  34  13
M  ISO  6  35  13  36  13  37  13  38  13  39  13  40  13
M  END
>  <minimizedAffinity>  (1) 
-5.22699308

>  <minimizedRMSD>  (1) 
1.86282802

$$$$
