
     RDKit          3D

 36 38  0  0  0  0  0  0  0  0999 V2000
   44.7920   33.0900   41.1510 Cl  0  0  0  0  0  0  0  0  0  0  0  0
   46.3010   33.9110   40.9270 C   0  0  0  0  0  0  0  0  0  0  0  0
   46.8280   34.7020   41.9190 C   0  0  0  0  0  0  0  0  0  0  0  0
   48.0370   35.3730   41.7660 C   0  0  0  0  0  0  0  0  0  0  0  0
   48.6840   35.2050   40.5660 C   0  0  0  0  0  0  0  0  0  0  0  0
   48.1690   34.4210   39.5730 C   0  0  0  0  0  0  0  0  0  0  0  0
   46.9720   33.7610   39.7340 C   0  0  0  0  0  0  0  0  0  0  0  0
   45.5890   34.0670   45.3320 C   0  0  0  0  0  0  0  0  0  0  0  0
   44.7030   35.1360   45.5410 C   0  0  0  0  0  0  0  0  0  0  0  0
   44.5400   36.0620   44.5090 C   0  0  0  0  0  0  0  0  0  0  0  0
   45.2460   35.8760   43.3670 N   0  0  0  0  0  0  0  0  0  0  0  0
   46.0900   34.8460   43.1880 C   0  0  0  0  0  0  0  0  0  0  0  0
   46.2660   33.9310   44.1760 N   0  0  0  0  0  0  0  0  0  0  0  0
   46.3820   32.8990   38.6740 C   0  0  0  0  0  0  0  0  0  0  0  0
   46.8350   31.4770   38.7280 C   0  0  0  0  0  0  0  0  0  0  0  0
   47.3140   31.0580   37.3450 C   0  0  0  0  0  0  0  0  0  0  0  0
   46.2890   31.3470   36.2840 C   0  0  0  0  0  0  0  0  0  0  0  0
   45.7260   32.7360   36.3520 C   0  0  0  0  0  0  0  0  0  0  0  0
   46.6170   33.5320   37.3090 C   0  0  0  0  0  0  0  0  0  0  0  0
   48.4531   36.0051   42.5643 H   0  0  0  0  0  0  0  0  0  0  0  0
   49.6438   35.7161   40.4000 H   0  0  0  0  0  0  0  0  0  0  0  0
   48.7210   34.3152   38.6274 H   0  0  0  0  0  0  0  0  0  0  0  0
   45.7333   33.3241   46.1303 H   0  0  0  0  0  0  0  0  0  0  0  0
   44.1543   35.2406   46.4886 H   0  0  0  0  0  0  0  0  0  0  0  0
   43.8581   36.9181   44.6195 H   0  0  0  0  0  0  0  0  0  0  0  0
   45.2994   32.8449   38.8615 H   0  0  0  0  0  0  0  0  0  0  0  0
   47.6597   31.3795   39.4494 H   0  0  0  0  0  0  0  0  0  0  0  0
   46.0015   30.8326   39.0443 H   0  0  0  0  0  0  0  0  0  0  0  0
   48.2367   31.6075   37.1069 H   0  0  0  0  0  0  0  0  0  0  0  0
   47.4910   29.9724   37.3605 H   0  0  0  0  0  0  0  0  0  0  0  0
   45.4615   30.6310   36.3963 H   0  0  0  0  0  0  0  0  0  0  0  0
   46.7964   31.2529   35.3126 H   0  0  0  0  0  0  0  0  0  0  0  0
   45.7366   33.1975   35.3536 H   0  0  0  0  0  0  0  0  0  0  0  0
   44.6843   32.7212   36.7052 H   0  0  0  0  0  0  0  0  0  0  0  0
   47.6741   33.4445   37.0178 H   0  0  0  0  0  0  0  0  0  0  0  0
   46.3793   34.6060   37.3022 H   0  0  0  0  0  0  0  0  0  0  0  0
  2  1  1  0
  2  3  2  0
  3 12  1  0
  4  3  1  0
  5  4  2  0
  6  7  2  0
  6  5  1  0
  7  2  1  0
  8  9  2  0
 10  9  1  0
 11 10  2  0
 12 11  1  0
 12 13  2  0
 13  8  1  0
 14 15  1  0
 14  7  1  0
 16 15  1  0
 17 18  1  0
 17 16  1  0
 18 19  1  0
 19 14  1  0
  4 20  1  0
  5 21  1  0
  6 22  1  0
  8 23  1  0
  9 24  1  0
 10 25  1  0
 14 26  1  0
 15 27  1  0
 15 28  1  0
 16 29  1  0
 16 30  1  0
 17 31  1  0
 17 32  1  0
 18 33  1  0
 18 34  1  0
 19 35  1  0
 19 36  1  0
M  ISO  8  20  14  21  14  22  14  23  14  24  14  25  14  26  13  27  13
M  ISO  8  28  13  29  13  30  13  31  13  32  13  33  13  34  13  35  13
M  ISO  1  36  13
M  END
>  <minimizedAffinity>  (1) 
-5.57968092

>  <minimizedRMSD>  (1) 
1.3635143

$$$$
