
     RDKit          3D

 40 42  0  0  1  0  0  0  0  0999 V2000
   44.5630   35.7870   44.7050 C   0  0  0  0  0  0  0  0  0  0  0  0
   44.5710   35.4370   43.3590 C   0  0  0  0  0  0  0  0  0  0  0  0
   44.9580   34.1650   43.0150 C   0  0  0  0  0  0  0  0  0  0  0  0
   45.3160   33.3120   44.0160 N   0  0  0  0  0  0  0  0  0  0  0  0
   45.3000   33.6730   45.2970 C   0  0  0  0  0  0  0  0  0  0  0  0
   44.9280   34.9010   45.6550 N   0  0  0  0  0  0  0  0  0  0  0  0
   45.6820   32.6930   46.2560 N   0  0  0  0  0  0  0  0  0  0  0  0
   45.4070   32.8330   47.6970 C   0  0  0  0  0  0  0  0  0  0  0  0
   46.6530   32.2310   48.2870 C   0  0  0  0  0  0  0  0  0  0  0  0
   47.3890   31.5300   47.1700 C   0  0  0  0  0  0  0  0  0  0  0  0
   46.3570   31.4370   46.0880 C   0  0  2  0  0  0  0  0  0  0  0  0
   46.9670   31.1160   44.8130 C   0  0  0  0  0  0  0  0  0  0  0  0
   47.7020   32.3880   44.3370 C   0  0  0  0  0  0  0  0  0  0  0  0
   48.3780   32.1170   43.0100 C   0  0  0  0  0  0  0  0  0  0  0  0
   47.3940   31.7240   41.9390 C   0  0  0  0  0  0  0  0  0  0  0  0
   46.6970   30.4590   42.4260 C   0  0  0  0  0  0  0  0  0  0  0  0
   45.9390   30.8800   43.6940 C   0  0  0  0  0  0  0  0  0  0  0  0
   44.1570   36.4620   42.4420 N   0  0  0  0  0  0  0  0  0  0  0  0
   44.2546   36.8010   44.9995 H   0  0  0  0  0  0  0  0  0  0  0  0
   44.9784   33.8442   41.9630 H   0  0  0  0  0  0  0  0  0  0  0  0
   45.2924   33.8882   47.9857 H   0  0  0  0  0  0  0  0  0  0  0  0
   44.4725   32.3568   48.0286 H   0  0  0  0  0  0  0  0  0  0  0  0
   47.2859   33.0219   48.7159 H   0  0  0  0  0  0  0  0  0  0  0  0
   46.3995   31.5226   49.0894 H   0  0  0  0  0  0  0  0  0  0  0  0
   48.2567   32.1191   46.8383 H   0  0  0  0  0  0  0  0  0  0  0  0
   47.7934   30.5510   47.4667 H   0  0  0  0  0  0  0  0  0  0  0  0
   45.6245   30.6177   46.1343 H   0  0  0  0  0  0  0  0  0  0  0  0
   47.5841   30.2190   44.9702 H   0  0  0  0  0  0  0  0  0  0  0  0
   46.9772   33.2069   44.2182 H   0  0  0  0  0  0  0  0  0  0  0  0
   48.4599   32.6724   45.0818 H   0  0  0  0  0  0  0  0  0  0  0  0
   48.9059   33.0271   42.6891 H   0  0  0  0  0  0  0  0  0  0  0  0
   49.0753   31.2782   43.1517 H   0  0  0  0  0  0  0  0  0  0  0  0
   47.9213   31.5263   40.9941 H   0  0  0  0  0  0  0  0  0  0  0  0
   46.6678   32.5294   41.7547 H   0  0  0  0  0  0  0  0  0  0  0  0
   45.9968   30.0865   41.6638 H   0  0  0  0  0  0  0  0  0  0  0  0
   47.4113   29.6463   42.6246 H   0  0  0  0  0  0  0  0  0  0  0  0
   45.3783   31.8067   43.5021 H   0  0  0  0  0  0  0  0  0  0  0  0
   45.2288   30.0940   43.9904 H   0  0  0  0  0  0  0  0  0  0  0  0
   44.1391   36.2710   41.4300 H   0  0  0  0  0  0  0  0  0  0  0  0
   43.8781   37.3880   42.7964 H   0  0  0  0  0  0  0  0  0  0  0  0
  1  6  2  0
  2  1  1  0
  3  2  2  0
  3  4  1  0
  4  5  2  0
  5  6  1  0
  5  7  1  0
  7  8  1  0
  8  9  1  0
 10  9  1  0
 11  7  1  0
 11 10  1  0
 12 11  1  0
 13 12  1  0
 14 13  1  0
 15 16  1  0
 15 14  1  0
 16 17  1  0
 17 12  1  0
 18  2  1  0
  1 19  1  0
  3 20  1  0
  8 21  1  0
  8 22  1  0
  9 23  1  0
  9 24  1  0
 10 25  1  0
 10 26  1  0
 11 27  1  1
 12 28  1  0
 13 29  1  0
 13 30  1  0
 14 31  1  0
 14 32  1  0
 15 33  1  0
 15 34  1  0
 16 35  1  0
 16 36  1  0
 17 37  1  0
 17 38  1  0
 18 39  1  0
 18 40  1  0
M  ISO  8  19  14  20  14  21  13  22  13  23  13  24  13  25  13  26  13
M  ISO  8  27  13  28  13  29  13  30  13  31  13  32  13  33  13  34  13
M  ISO  4  35  13  36  13  37  13  38  13
M  END
>  <minimizedAffinity>  (1) 
-4.69534254

>  <minimizedRMSD>  (1) 
1.42140198

$$$$
