
     RDKit          3D

 51 53  0  0  0  0  0  0  0  0999 V2000
   48.5850   31.1320   48.8750 C   0  0  0  0  0  0  0  0  0  0  0  0
   47.7450   32.1380   48.8060 C   0  0  0  0  0  0  0  0  0  0  0  0
   51.2680   31.9990   51.1870 C   0  0  0  0  0  0  0  0  0  0  0  0
   51.4410   30.8080   51.9300 C   0  0  0  0  0  0  0  0  0  0  0  0
   50.6350   29.7220   51.6170 C   0  0  0  0  0  0  0  0  0  0  0  0
   49.7490   29.8960   50.6260 N   0  0  0  0  0  0  0  0  0  0  0  0
   49.5910   31.0180   49.9330 C   0  0  0  0  0  0  0  0  0  0  0  0
   50.3570   32.0870   50.2110 N   0  0  0  0  0  0  0  0  0  0  0  0
   52.4210   30.8470   53.0180 C   0  0  0  0  0  0  0  0  0  0  0  0
   53.1480   32.2140   52.9850 C   0  0  0  0  0  0  0  0  0  0  0  0
   53.7030   32.5660   54.3550 C   0  0  0  0  0  0  0  0  0  0  0  0
   52.5760   33.0180   55.2690 C   0  0  0  0  0  0  0  0  0  0  0  0
   51.3480   32.2320   54.7890 C   0  0  0  0  0  0  0  0  0  0  0  0
   51.8210   30.8730   54.3970 C   0  0  0  0  0  0  0  0  0  0  0  0
   50.7380   28.5480   52.2690 O   0  0  0  0  0  0  0  0  0  0  0  0
   51.5840   27.5360   51.6920 C   0  0  0  0  0  0  0  0  0  0  0  0
   52.0870   28.0050   50.4700 F   0  0  0  0  0  0  0  0  0  0  0  0
   52.6760   27.3920   52.5520 F   0  0  0  0  0  0  0  0  0  0  0  0
   50.9640   26.3090   51.5610 F   0  0  0  0  0  0  0  0  0  0  0  0
   46.7340   32.2340   47.7240 C   0  0  0  0  0  0  0  0  0  0  0  0
   46.6480   32.7480   45.4420 C   0  0  0  0  0  0  0  0  0  0  0  0
   45.9530   31.8120   45.0140 O   0  0  0  0  0  0  0  0  0  0  0  0
   47.1120   33.1130   46.7030 N   0  0  0  0  0  0  0  0  0  0  0  0
   44.9190   35.1010   44.5500 Cl  0  0  0  0  0  0  0  0  0  0  0  0
   46.2660   34.5350   43.6160 C   0  0  0  0  0  0  0  0  0  0  0  0
   46.9100   33.4720   44.1910 C   0  0  0  0  0  0  0  0  0  0  0  0
   48.0260   32.8920   43.5640 C   0  0  0  0  0  0  0  0  0  0  0  0
   48.4810   33.4000   42.3460 C   0  0  0  0  0  0  0  0  0  0  0  0
   47.8150   34.4710   41.7860 C   0  0  0  0  0  0  0  0  0  0  0  0
   48.3350   35.1520   40.2660 Cl  0  0  0  0  0  0  0  0  0  0  0  0
   46.7200   35.0270   42.4210 C   0  0  0  0  0  0  0  0  0  0  0  0
   48.5313   30.3445   48.1089 H   0  0  0  0  0  0  0  0  0  0  0  0
   47.7915   32.9292   49.5687 H   0  0  0  0  0  0  0  0  0  0  0  0
   51.8963   32.8722   51.4166 H   0  0  0  0  0  0  0  0  0  0  0  0
   53.0364   29.9489   52.8609 H   0  0  0  0  0  0  0  0  0  0  0  0
   53.9762   32.1641   52.2628 H   0  0  0  0  0  0  0  0  0  0  0  0
   52.4259   32.9891   52.6885 H   0  0  0  0  0  0  0  0  0  0  0  0
   54.1919   31.6812   54.7888 H   0  0  0  0  0  0  0  0  0  0  0  0
   54.4341   33.3813   54.2511 H   0  0  0  0  0  0  0  0  0  0  0  0
   52.8059   32.7767   56.3173 H   0  0  0  0  0  0  0  0  0  0  0  0
   52.4169   34.1056   55.2279 H   0  0  0  0  0  0  0  0  0  0  0  0
   50.6091   32.1546   55.6002 H   0  0  0  0  0  0  0  0  0  0  0  0
   50.8672   32.7387   53.9392 H   0  0  0  0  0  0  0  0  0  0  0  0
   50.9663   30.1810   54.4228 H   0  0  0  0  0  0  0  0  0  0  0  0
   52.6052   30.5742   55.1082 H   0  0  0  0  0  0  0  0  0  0  0  0
   46.5880   31.2338   47.2901 H   0  0  0  0  0  0  0  0  0  0  0  0
   45.8080   32.6251   48.1707 H   0  0  0  0  0  0  0  0  0  0  0  0
   47.6823   33.9544   46.8693 H   0  0  0  0  0  0  0  0  0  0  0  0
   48.5399   32.0395   44.0321 H   0  0  0  0  0  0  0  0  0  0  0  0
   49.3525   32.9557   41.8430 H   0  0  0  0  0  0  0  0  0  0  0  0
   46.2036   35.8807   41.9578 H   0  0  0  0  0  0  0  0  0  0  0  0
  1  7  1  0
  2  1  2  0
  3  4  2  0
  4  9  1  0
  5  4  1  0
  5 15  1  0
  6  5  2  0
  7  8  2  0
  7  6  1  0
  8  3  1  0
  9 14  1  0
 10  9  1  0
 10 11  1  0
 11 12  1  0
 13 12  1  0
 14 13  1  0
 16 15  1  0
 16 18  1  0
 17 16  1  0
 19 16  1  0
 20  2  1  0
 21 23  1  0
 22 21  2  0
 23 20  1  0
 25 26  2  0
 25 24  1  0
 26 21  1  0
 27 26  1  0
 28 27  2  0
 29 28  1  0
 29 31  2  0
 30 29  1  0
 31 25  1  0
  1 32  1  0
  2 33  1  0
  3 34  1  0
  9 35  1  0
 10 36  1  0
 10 37  1  0
 11 38  1  0
 11 39  1  0
 12 40  1  0
 12 41  1  0
 13 42  1  0
 13 43  1  0
 14 44  1  0
 14 45  1  0
 20 46  1  0
 20 47  1  0
 23 48  1  0
 27 49  1  0
 28 50  1  0
 31 51  1  0
M  END
>  <minimizedAffinity>  (1) 
-7.4280057

>  <minimizedRMSD>  (1) 
0.529415369

$$$$
