
     RDKit          3D

 52 56  0  0  1  0  0  0  0  0999 V2000
   50.1130   32.4230   41.3760 C   0  0  1  0  0  0  0  0  0  0  0  0
   49.1300   32.1260   40.2790 C   0  0  0  0  0  0  0  0  0  0  0  0
   48.7420   32.1140   41.7850 C   0  0  2  0  0  0  0  0  0  0  0  0
   53.0430   30.2150   40.8660 C   0  0  0  0  0  0  0  0  0  0  0  0
   53.1860   29.6170   42.1690 C   0  0  0  0  0  0  0  0  0  0  0  0
   52.2600   30.0030   43.1890 C   0  0  0  0  0  0  0  0  0  0  0  0
   51.3150   30.8860   42.8980 N   0  0  0  0  0  0  0  0  0  0  0  0
   51.2130   31.4280   41.6490 C   0  0  0  0  0  0  0  0  0  0  0  0
   52.0680   31.1020   40.6280 N   0  0  0  0  0  0  0  0  0  0  0  0
   52.4130   29.3820   44.5320 C   0  0  0  0  0  0  0  0  0  0  0  0
   53.3060   30.2480   45.3350 C   0  0  0  0  0  0  0  0  0  0  0  0
   53.9520   29.5700   46.5200 C   0  0  0  0  0  0  0  0  0  0  0  0
   54.7490   28.4060   45.9450 C   0  0  0  0  0  0  0  0  0  0  0  0
   53.7240   27.4230   45.4350 C   0  0  0  0  0  0  0  0  0  0  0  0
   52.8630   27.9720   44.3480 C   0  0  0  0  0  0  0  0  0  0  0  0
   47.9020   33.1830   42.2330 N   0  0  0  0  0  0  0  0  0  0  0  0
   47.2220   33.1270   43.4590 C   0  0  0  0  0  0  0  0  0  0  0  0
   47.5160   32.1250   44.3510 C   0  0  0  0  0  0  0  0  0  0  0  0
   46.9430   32.0440   45.6100 C   0  0  0  0  0  0  0  0  0  0  0  0
   46.0320   32.9890   46.0310 C   0  0  0  0  0  0  0  0  0  0  0  0
   45.7220   34.0040   45.1530 C   0  0  0  0  0  0  0  0  0  0  0  0
   44.8150   34.9650   45.5580 C   0  0  0  0  0  0  0  0  0  0  0  0
   44.4560   36.0030   44.7480 C   0  0  0  0  0  0  0  0  0  0  0  0
   45.0470   36.0470   43.4930 C   0  0  0  0  0  0  0  0  0  0  0  0
   45.9430   35.0880   43.1050 C   0  0  0  0  0  0  0  0  0  0  0  0
   46.3080   34.0530   43.9090 C   0  0  0  0  0  0  0  0  0  0  0  0
   46.4900   35.1750   41.8470 O   0  0  0  0  0  0  0  0  0  0  0  0
   50.7905   33.2633   41.5880 H   0  0  0  0  0  0  0  0  0  0  0  0
   48.7730   32.9291   39.6175 H   0  0  0  0  0  0  0  0  0  0  0  0
   49.0685   31.4203   39.4375 H   0  0  0  0  0  0  0  0  0  0  0  0
   48.2940   31.3922   42.4838 H   0  0  0  0  0  0  0  0  0  0  0  0
   53.7400   29.9410   40.0603 H   0  0  0  0  0  0  0  0  0  0  0  0
   53.9825   28.8863   42.3732 H   0  0  0  0  0  0  0  0  0  0  0  0
   51.4729   29.3152   45.0992 H   0  0  0  0  0  0  0  0  0  0  0  0
   54.1049   30.6192   44.6763 H   0  0  0  0  0  0  0  0  0  0  0  0
   52.6727   31.0485   45.7450 H   0  0  0  0  0  0  0  0  0  0  0  0
   54.6192   30.2693   47.0452 H   0  0  0  0  0  0  0  0  0  0  0  0
   53.2034   29.2282   47.2500 H   0  0  0  0  0  0  0  0  0  0  0  0
   55.3925   28.7509   45.1222 H   0  0  0  0  0  0  0  0  0  0  0  0
   55.4072   27.9517   46.7003 H   0  0  0  0  0  0  0  0  0  0  0  0
   54.2518   26.5388   45.0482 H   0  0  0  0  0  0  0  0  0  0  0  0
   53.0627   27.1778   46.2791 H   0  0  0  0  0  0  0  0  0  0  0  0
   51.9672   27.3380   44.2731 H   0  0  0  0  0  0  0  0  0  0  0  0
   53.4859   27.9710   43.4414 H   0  0  0  0  0  0  0  0  0  0  0  0
   47.7937   34.0171   41.6384 H   0  0  0  0  0  0  0  0  0  0  0  0
   48.2391   31.3517   44.0525 H   0  0  0  0  0  0  0  0  0  0  0  0
   47.2180   31.2167   46.2807 H   0  0  0  0  0  0  0  0  0  0  0  0
   45.5710   32.9347   47.0283 H   0  0  0  0  0  0  0  0  0  0  0  0
   44.3701   34.8911   46.5613 H   0  0  0  0  0  0  0  0  0  0  0  0
   43.7343   36.7666   45.0735 H   0  0  0  0  0  0  0  0  0  0  0  0
   44.7919   36.8633   42.8012 H   0  0  0  0  0  0  0  0  0  0  0  0
   47.1406   34.4940   41.5419 H   0  0  0  0  0  0  0  0  0  0  0  0
  1  8  1  0
  1  3  1  0
  2  1  1  0
  2  3  1  0
  3 16  1  0
  4  5  2  0
  5  6  1  0
  6 10  1  0
  7  6  2  0
  8  7  1  0
  9  4  1  0
  9  8  2  0
 10 11  1  0
 11 12  1  0
 13 12  1  0
 14 13  1  0
 15 10  1  0
 15 14  1  0
 16 17  1  0
 17 26  1  0
 17 18  2  0
 18 19  1  0
 19 20  2  0
 21 22  2  0
 21 20  1  0
 23 22  1  0
 24 23  2  0
 25 24  1  0
 25 26  2  0
 26 21  1  0
 27 25  1  0
  1 28  1  6
  2 29  1  0
  2 30  1  0
  3 31  1  1
  4 32  1  0
  5 33  1  0
 10 34  1  0
 11 35  1  0
 11 36  1  0
 12 37  1  0
 12 38  1  0
 13 39  1  0
 13 40  1  0
 14 41  1  0
 14 42  1  0
 15 43  1  0
 15 44  1  0
 16 45  1  0
 18 46  1  0
 19 47  1  0
 20 48  1  0
 22 49  1  0
 23 50  1  0
 24 51  1  0
 27 52  1  0
M  ISO  8  28  13  29  13  30  13  31  13  32  14  33  14  34  13  35  13
M  ISO  8  36  13  37  13  38  13  39  13  40  13  41  13  42  13  43  13
M  ISO  8  44  13  46  14  47  14  48  14  49  14  50  14  51  14  52   3
M  END
>  <minimizedAffinity>  (1) 
-5.25263309

>  <minimizedRMSD>  (1) 
1.44659901

$$$$
