
     RDKit          3D

 44 46  0  0  0  0  0  0  0  0999 V2000
   44.6260   35.1580   45.2500 C   0  0  0  0  0  0  0  0  0  0  0  0
   45.3380   34.9570   44.0500 C   0  0  0  0  0  0  0  0  0  0  0  0
   46.3380   33.9640   44.0250 C   0  0  0  0  0  0  0  0  0  0  0  0
   46.5350   33.2760   45.1700 N   0  0  0  0  0  0  0  0  0  0  0  0
   45.8440   33.4930   46.2860 C   0  0  0  0  0  0  0  0  0  0  0  0
   44.8930   34.4240   46.3400 N   0  0  0  0  0  0  0  0  0  0  0  0
   47.1240   33.6930   42.8260 C   0  0  0  0  0  0  0  0  0  0  0  0
   47.7070   32.3020   42.7680 C   0  0  0  0  0  0  0  0  0  0  0  0
   48.8440   32.2610   41.7670 C   0  0  0  0  0  0  0  0  0  0  0  0
   48.8240   33.4550   40.8330 C   0  0  0  0  0  0  0  0  0  0  0  0
   49.1530   34.6640   41.6830 C   0  0  0  0  0  0  0  0  0  0  0  0
   48.4250   34.5370   42.9760 C   0  0  0  0  0  0  0  0  0  0  0  0
   45.0070   35.7890   42.8670 C   0  0  0  0  0  0  0  0  0  0  0  0
   43.6150   35.7720   42.8120 F   0  0  0  0  0  0  0  0  0  0  0  0
   45.4440   35.0890   41.7370 F   0  0  0  0  0  0  0  0  0  0  0  0
   45.4660   37.0240   42.9950 F   0  0  0  0  0  0  0  0  0  0  0  0
   46.0620   32.7710   47.4570 O   0  0  0  0  0  0  0  0  0  0  0  0
   45.6370   31.4280   47.5740 C   0  0  0  0  0  0  0  0  0  0  0  0
   46.8390   30.5980   47.7720 C   0  0  0  0  0  0  0  0  0  0  0  0
   47.1180   29.3180   47.3400 C   0  0  0  0  0  0  0  0  0  0  0  0
   48.3250   28.7760   47.6670 C   0  0  0  0  0  0  0  0  0  0  0  0
   49.2310   29.4360   48.3810 N   0  0  0  0  0  0  0  0  0  0  0  0
   48.9520   30.6810   48.7970 C   0  0  0  0  0  0  0  0  0  0  0  0
   47.7600   31.2910   48.5070 N   0  0  0  0  0  0  0  0  0  0  0  0
   50.0240   31.3430   49.5890 C   0  0  0  0  0  0  0  0  0  0  0  0
   49.9570   32.7100   49.4800 F   0  0  0  0  0  0  0  0  0  0  0  0
   51.2750   30.9160   49.1410 F   0  0  0  0  0  0  0  0  0  0  0  0
   49.9500   31.0290   50.9330 F   0  0  0  0  0  0  0  0  0  0  0  0
   43.8409   35.9273   45.2928 H   0  0  0  0  0  0  0  0  0  0  0  0
   46.4596   33.8820   41.9699 H   0  0  0  0  0  0  0  0  0  0  0  0
   48.0862   32.0236   43.7624 H   0  0  0  0  0  0  0  0  0  0  0  0
   46.9247   31.5940   42.4569 H   0  0  0  0  0  0  0  0  0  0  0  0
   49.7983   32.2544   42.3141 H   0  0  0  0  0  0  0  0  0  0  0  0
   48.7271   31.3523   41.1582 H   0  0  0  0  0  0  0  0  0  0  0  0
   47.8281   33.5675   40.3797 H   0  0  0  0  0  0  0  0  0  0  0  0
   49.5471   33.3337   40.0130 H   0  0  0  0  0  0  0  0  0  0  0  0
   50.2365   34.7049   41.8684 H   0  0  0  0  0  0  0  0  0  0  0  0
   48.8493   35.5859   41.1654 H   0  0  0  0  0  0  0  0  0  0  0  0
   48.1582   35.5420   43.3348 H   0  0  0  0  0  0  0  0  0  0  0  0
   49.0849   34.0245   43.6915 H   0  0  0  0  0  0  0  0  0  0  0  0
   44.9612   31.3217   48.4354 H   0  0  0  0  0  0  0  0  0  0  0  0
   45.0939   31.1136   46.6706 H   0  0  0  0  0  0  0  0  0  0  0  0
   46.3858   28.7499   46.7474 H   0  0  0  0  0  0  0  0  0  0  0  0
   48.5576   27.7558   47.3278 H   0  0  0  0  0  0  0  0  0  0  0  0
  1  6  2  0
  2  1  1  0
  3  2  2  0
  3  4  1  0
  4  5  2  0
  5  6  1  0
  5 17  1  0
  7 12  1  0
  7  3  1  0
  8  7  1  0
  9  8  1  0
 10 11  1  0
 10  9  1  0
 11 12  1  0
 13 16  1  0
 13  2  1  0
 14 13  1  0
 15 13  1  0
 17 18  1  0
 18 19  1  0
 19 24  2  0
 20 21  2  0
 20 19  1  0
 21 22  1  0
 22 23  2  0
 23 25  1  0
 24 23  1  0
 25 28  1  0
 26 25  1  0
 27 25  1  0
  1 29  1  0
  7 30  1  0
  8 31  1  0
  8 32  1  0
  9 33  1  0
  9 34  1  0
 10 35  1  0
 10 36  1  0
 11 37  1  0
 11 38  1  0
 12 39  1  0
 12 40  1  0
 18 41  1  0
 18 42  1  0
 20 43  1  0
 21 44  1  0
M  ISO  8  29  14  30  13  31  13  32  13  33  13  34  13  35  13  36  13
M  ISO  8  37  13  38  13  39  13  40  13  41   8  42   8  43  14  44  14
M  END
>  <minimizedAffinity>  (1) 
-6.2494483

>  <minimizedRMSD>  (1) 
0.897125423

$$$$
