
     RDKit          3D

 39 41  0  0  0  0  0  0  0  0999 V2000
   48.1990   33.4420   42.5040 C   0  0  0  0  0  0  0  0  0  0  0  0
   49.1220   32.7870   41.6360 C   0  0  0  0  0  0  0  0  0  0  0  0
   49.0970   32.0990   40.3810 C   0  0  0  0  0  0  0  0  0  0  0  0
   50.2340   31.6110   39.8700 C   0  0  0  0  0  0  0  0  0  0  0  0
   51.4720   31.7970   40.6130 C   0  0  0  0  0  0  0  0  0  0  0  0
   50.9470   32.7020   42.0830 S   0  0  0  0  0  0  0  0  0  0  0  0
   52.7970   31.4070   40.3380 C   0  0  0  0  0  0  0  0  0  0  0  0
   53.0080   30.0740   41.0340 C   0  0  0  0  0  0  0  0  0  0  0  0
   54.4390   29.6750   40.7360 C   0  0  0  0  0  0  0  0  0  0  0  0
   54.4130   29.2640   39.2810 C   0  0  0  0  0  0  0  0  0  0  0  0
   54.0760   30.4200   38.3870 C   0  0  0  0  0  0  0  0  0  0  0  0
   53.0680   31.3630   38.8730 C   0  0  0  0  0  0  0  0  0  0  0  0
   47.8050   34.8440   42.0930 C   0  0  0  0  0  0  0  0  0  0  0  0
   46.3600   34.9500   42.1340 C   0  0  0  0  0  0  0  0  0  0  0  0
   45.6770   35.5090   43.1980 C   0  0  0  0  0  0  0  0  0  0  0  0
   44.2870   35.5710   43.1560 C   0  0  0  0  0  0  0  0  0  0  0  0
   43.6630   35.0690   42.0530 N   0  0  0  0  0  0  0  0  0  0  0  0
   44.3460   34.5280   41.0260 C   0  0  0  0  0  0  0  0  0  0  0  0
   45.6590   34.4810   41.0880 N   0  0  0  0  0  0  0  0  0  0  0  0
   47.2847   32.8321   42.5498 H   0  0  0  0  0  0  0  0  0  0  0  0
   48.7120   33.5426   43.4719 H   0  0  0  0  0  0  0  0  0  0  0  0
   48.1482   31.9719   39.8391 H   0  0  0  0  0  0  0  0  0  0  0  0
   50.2329   31.0795   38.9069 H   0  0  0  0  0  0  0  0  0  0  0  0
   53.5199   32.1419   40.7219 H   0  0  0  0  0  0  0  0  0  0  0  0
   52.8578   30.1801   42.1185 H   0  0  0  0  0  0  0  0  0  0  0  0
   52.2941   29.3153   40.6809 H   0  0  0  0  0  0  0  0  0  0  0  0
   55.1210   30.5243   40.8896 H   0  0  0  0  0  0  0  0  0  0  0  0
   54.7987   28.8710   41.3950 H   0  0  0  0  0  0  0  0  0  0  0  0
   55.4031   28.8740   39.0024 H   0  0  0  0  0  0  0  0  0  0  0  0
   53.6378   28.4938   39.1547 H   0  0  0  0  0  0  0  0  0  0  0  0
   53.7129   30.0078   37.4340 H   0  0  0  0  0  0  0  0  0  0  0  0
   55.0043   31.0057   38.3147 H   0  0  0  0  0  0  0  0  0  0  0  0
   53.3898   32.3702   38.5699 H   0  0  0  0  0  0  0  0  0  0  0  0
   52.1254   31.0084   38.4306 H   0  0  0  0  0  0  0  0  0  0  0  0
   48.1623   35.0450   41.0723 H   0  0  0  0  0  0  0  0  0  0  0  0
   48.2548   35.5767   42.7792 H   0  0  0  0  0  0  0  0  0  0  0  0
   46.2255   35.9002   44.0676 H   0  0  0  0  0  0  0  0  0  0  0  0
   43.7119   36.0101   43.9845 H   0  0  0  0  0  0  0  0  0  0  0  0
   43.8139   34.1315   40.1487 H   0  0  0  0  0  0  0  0  0  0  0  0
  2  6  1  0
  2  1  1  0
  3  2  2  0
  4  3  1  0
  4  5  2  0
  5  6  1  0
  7  5  1  0
  7  8  1  0
  9  8  1  0
 10  9  1  0
 11 12  1  0
 11 10  1  0
 12  7  1  0
 13 14  1  0
 13  1  1  0
 14 15  2  0
 16 15  1  0
 17 16  2  0
 18 19  2  0
 18 17  1  0
 19 14  1  0
  1 20  1  0
  1 21  1  0
  3 22  1  0
  4 23  1  0
  7 24  1  0
  8 25  1  0
  8 26  1  0
  9 27  1  0
  9 28  1  0
 10 29  1  0
 10 30  1  0
 11 31  1  0
 11 32  1  0
 12 33  1  0
 12 34  1  0
 13 35  1  0
 13 36  1  0
 15 37  1  0
 16 38  1  0
 18 39  1  0
M  ISO  8  20   8  21   8  22  14  23  14  24  13  25  13  26  13  27  13
M  ISO  8  28  13  29  13  30  13  31  13  32  13  33  13  34  13  35   8
M  ISO  4  36   8  37  14  38  14  39  14
M  END
>  <minimizedAffinity>  (1) 
-4.08924007

>  <minimizedRMSD>  (1) 
1.48022795

$$$$
