
     RDKit          3D

 57 61  0  0  1  0  0  0  0  0999 V2000
   46.8770   30.9720   46.8520 C   0  0  0  0  0  0  0  0  0  0  0  0
   46.4350   31.4370   48.1980 C   0  0  1  0  0  0  0  0  0  0  0  0
   46.3090   30.3580   49.2200 C   0  0  0  0  0  0  0  0  0  0  0  0
   47.3620   31.3610   49.3470 C   0  0  1  0  0  0  0  0  0  0  0  0
   48.7940   31.0290   49.0710 C   0  0  2  0  0  0  0  0  0  0  0  0
   49.4320   30.0810   50.1170 C   0  0  0  0  0  0  0  0  0  0  0  0
   49.8300   31.4880   50.1050 C   0  0  1  0  0  0  0  0  0  0  0  0
   51.0800   32.0080   49.4590 C   0  0  0  0  0  0  0  0  0  0  0  0
   51.5830   33.2350   50.2250 C   0  0  0  0  0  0  0  0  0  0  0  0
   52.8650   32.9130   50.9690 C   0  0  0  0  0  0  0  0  0  0  0  0
   53.9360   32.6040   49.9390 C   0  0  0  0  0  0  0  0  0  0  0  0
   53.4040   31.7440   48.8350 C   0  0  0  0  0  0  0  0  0  0  0  0
   52.1860   30.9850   49.3760 C   0  0  0  0  0  0  0  0  0  0  0  0
   45.9120   33.0130   46.1720 C   0  0  0  0  0  0  0  0  0  0  0  0
   46.6650   32.0560   45.8190 C   0  0  0  0  0  0  0  0  0  0  0  0
   44.5520   36.0000   44.4960 C   0  0  0  0  0  0  0  0  0  0  0  0
   45.2150   36.0050   43.2790 C   0  0  0  0  0  0  0  0  0  0  0  0
   46.1030   34.9930   43.0660 C   0  0  0  0  0  0  0  0  0  0  0  0
   46.2950   34.0510   44.0240 N   0  0  0  0  0  0  0  0  0  0  0  0
   45.6370   34.0700   45.1960 C   0  0  0  0  0  0  0  0  0  0  0  0
   44.7810   35.0520   45.3950 N   0  0  0  0  0  0  0  0  0  0  0  0
   46.8760   34.8680   41.8320 C   0  0  0  0  0  0  0  0  0  0  0  0
   48.0970   35.4710   41.6290 C   0  0  0  0  0  0  0  0  0  0  0  0
   48.8260   35.3510   40.4610 C   0  0  0  0  0  0  0  0  0  0  0  0
   48.3320   34.5950   39.4280 C   0  0  0  0  0  0  0  0  0  0  0  0
   47.1210   33.9750   39.5820 C   0  0  0  0  0  0  0  0  0  0  0  0
   46.4320   34.1270   40.7690 C   0  0  0  0  0  0  0  0  0  0  0  0
   47.9456   30.7140   46.8914 H   0  0  0  0  0  0  0  0  0  0  0  0
   46.2833   30.0905   46.5684 H   0  0  0  0  0  0  0  0  0  0  0  0
   45.8125   32.2432   47.7827 H   0  0  0  0  0  0  0  0  0  0  0  0
   45.4604   30.3602   49.9199 H   0  0  0  0  0  0  0  0  0  0  0  0
   46.2822   29.2587   49.1903 H   0  0  0  0  0  0  0  0  0  0  0  0
   47.6670   32.0300   50.1651 H   0  0  0  0  0  0  0  0  0  0  0  0
   48.7014   31.0937   47.9768 H   0  0  0  0  0  0  0  0  0  0  0  0
   48.8226   29.6923   50.9461 H   0  0  0  0  0  0  0  0  0  0  0  0
   49.9748   29.1258   50.0620 H   0  0  0  0  0  0  0  0  0  0  0  0
   49.9177   32.1904   50.9470 H   0  0  0  0  0  0  0  0  0  0  0  0
   50.8108   32.2716   48.4256 H   0  0  0  0  0  0  0  0  0  0  0  0
   51.7737   34.0519   49.5135 H   0  0  0  0  0  0  0  0  0  0  0  0
   50.8164   33.5359   50.9543 H   0  0  0  0  0  0  0  0  0  0  0  0
   53.1704   33.7762   51.5786 H   0  0  0  0  0  0  0  0  0  0  0  0
   52.7150   32.0517   51.6366 H   0  0  0  0  0  0  0  0  0  0  0  0
   54.3033   33.5484   49.5110 H   0  0  0  0  0  0  0  0  0  0  0  0
   54.7493   32.0585   50.4399 H   0  0  0  0  0  0  0  0  0  0  0  0
   54.1761   31.0303   48.5117 H   0  0  0  0  0  0  0  0  0  0  0  0
   53.1185   32.3618   47.9708 H   0  0  0  0  0  0  0  0  0  0  0  0
   51.9058   30.1700   48.6924 H   0  0  0  0  0  0  0  0  0  0  0  0
   52.3920   30.5254   50.3539 H   0  0  0  0  0  0  0  0  0  0  0  0
   45.4778   33.0485   47.1820 H   0  0  0  0  0  0  0  0  0  0  0  0
   47.1342   32.0167   44.8248 H   0  0  0  0  0  0  0  0  0  0  0  0
   43.8247   36.7944   44.7198 H   0  0  0  0  0  0  0  0  0  0  0  0
   45.0341   36.7847   42.5245 H   0  0  0  0  0  0  0  0  0  0  0  0
   48.5157   36.0825   42.4419 H   0  0  0  0  0  0  0  0  0  0  0  0
   49.7966   35.8586   40.3601 H   0  0  0  0  0  0  0  0  0  0  0  0
   48.8995   34.4888   38.4917 H   0  0  0  0  0  0  0  0  0  0  0  0
   46.7019   33.3630   38.7697 H   0  0  0  0  0  0  0  0  0  0  0  0
   45.4614   33.6189   40.8675 H   0  0  0  0  0  0  0  0  0  0  0  0
  1  2  1  0
  2  3  1  0
  2  4  1  0
  3  4  1  0
  5  4  1  0
  5  7  1  0
  5  6  1  0
  7  6  1  0
  8  7  1  0
  8  9  1  0
  9 10  1  0
 11 10  1  0
 12 13  1  0
 12 11  1  0
 13  8  1  0
 15 14  2  0
 15  1  1  0
 16 21  2  0
 17 16  1  0
 18 17  2  0
 18 19  1  0
 19 20  2  0
 20 21  1  0
 20 14  1  0
 22 18  1  0
 23 22  2  0
 24 23  1  0
 25 26  1  0
 25 24  2  0
 26 27  2  0
 27 22  1  0
  1 28  1  0
  1 29  1  0
  2 30  1  6
  3 31  1  0
  3 32  1  0
  4 33  1  1
  5 34  1  6
  6 35  1  0
  6 36  1  0
  7 37  1  1
  8 38  1  0
  9 39  1  0
  9 40  1  0
 10 41  1  0
 10 42  1  0
 11 43  1  0
 11 44  1  0
 12 45  1  0
 12 46  1  0
 13 47  1  0
 13 48  1  0
 14 49  1  0
 15 50  1  0
 16 51  1  0
 17 52  1  0
 23 53  1  0
 24 54  1  0
 25 55  1  0
 26 56  1  0
 27 57  1  0
M  ISO  8  28   8  29   8  30  13  31  13  32  13  33  13  34  13  35  13
M  ISO  8  36  13  37  13  38  13  39  13  40  13  41  13  42  13  43  13
M  ISO  8  44  13  45  13  46  13  47  13  48  13  51  14  52  14  53  14
M  ISO  4  54  14  55  14  56  14  57  14
M  END
>  <minimizedAffinity>  (1) 
-6.7228837

>  <minimizedRMSD>  (1) 
1.13411856

$$$$
