
     RDKit          3D

 47 50  0  0  1  0  0  0  0  0999 V2000
   46.0640   30.9060   46.7830 C   0  0  0  0  0  0  0  0  0  0  0  0
   45.8910   31.6470   48.0900 C   0  0  1  0  0  0  0  0  0  0  0  0
   45.6670   30.8090   49.2990 C   0  0  0  0  0  0  0  0  0  0  0  0
   46.9270   31.5060   49.1390 C   0  0  1  0  0  0  0  0  0  0  0  0
   48.2180   30.8820   48.7630 C   0  0  0  0  0  0  0  0  0  0  0  0
   49.0840   30.4350   49.9700 C   0  0  0  0  0  0  0  0  0  0  0  0
   49.4840   31.6450   49.2110 C   0  0  0  0  0  0  0  0  0  0  0  0
   45.8070   33.1030   45.9380 C   0  0  0  0  0  0  0  0  0  0  0  0
   46.0400   31.8910   45.6260 C   0  0  0  0  0  0  0  0  0  0  0  0
   44.8580   36.0160   43.8960 C   0  0  0  0  0  0  0  0  0  0  0  0
   45.6650   35.8940   42.7740 C   0  0  0  0  0  0  0  0  0  0  0  0
   46.5220   34.8360   42.7440 C   0  0  0  0  0  0  0  0  0  0  0  0
   46.5310   33.9800   43.7970 N   0  0  0  0  0  0  0  0  0  0  0  0
   45.7580   34.0940   44.8720 C   0  0  0  0  0  0  0  0  0  0  0  0
   44.9270   35.1340   44.8870 N   0  0  0  0  0  0  0  0  0  0  0  0
   47.4070   34.6740   41.5420 C   0  0  0  0  0  0  0  0  0  0  0  0
   47.7910   33.2670   41.2540 C   0  0  0  0  0  0  0  0  0  0  0  0
   49.3000   33.0970   41.0960 C   0  0  0  0  0  0  0  0  0  0  0  0
   50.0420   33.6790   42.2670 C   0  0  0  0  0  0  0  0  0  0  0  0
   49.6820   35.1030   42.5480 C   0  0  0  0  0  0  0  0  0  0  0  0
   48.6040   35.5910   41.6240 C   0  0  0  0  0  0  0  0  0  0  0  0
   47.0266   30.3737   46.7896 H   0  0  0  0  0  0  0  0  0  0  0  0
   45.2424   30.1845   46.6629 H   0  0  0  0  0  0  0  0  0  0  0  0
   45.3979   32.5006   47.6019 H   0  0  0  0  0  0  0  0  0  0  0  0
   44.9529   31.1367   50.0688 H   0  0  0  0  0  0  0  0  0  0  0  0
   45.3776   29.7621   49.4730 H   0  0  0  0  0  0  0  0  0  0  0  0
   47.4897   32.1561   49.8251 H   0  0  0  0  0  0  0  0  0  0  0  0
   47.8578   30.4367   47.8239 H   0  0  0  0  0  0  0  0  0  0  0  0
   48.6908   30.5360   50.9923 H   0  0  0  0  0  0  0  0  0  0  0  0
   49.5894   29.4996   50.2519 H   0  0  0  0  0  0  0  0  0  0  0  0
   50.3864   31.6211   48.5824 H   0  0  0  0  0  0  0  0  0  0  0  0
   49.6949   32.6891   49.4853 H   0  0  0  0  0  0  0  0  0  0  0  0
   45.6467   33.3944   46.9865 H   0  0  0  0  0  0  0  0  0  0  0  0
   46.2128   31.5770   44.5860 H   0  0  0  0  0  0  0  0  0  0  0  0
   44.1506   36.8555   43.9660 H   0  0  0  0  0  0  0  0  0  0  0  0
   45.6149   36.6180   41.9473 H   0  0  0  0  0  0  0  0  0  0  0  0
   46.8018   34.9773   40.6750 H   0  0  0  0  0  0  0  0  0  0  0  0
   47.4486   32.6304   42.0832 H   0  0  0  0  0  0  0  0  0  0  0  0
   47.3193   32.9782   40.3032 H   0  0  0  0  0  0  0  0  0  0  0  0
   49.5337   32.0247   41.0211 H   0  0  0  0  0  0  0  0  0  0  0  0
   49.6155   33.6291   40.1864 H   0  0  0  0  0  0  0  0  0  0  0  0
   49.8120   33.0783   43.1593 H   0  0  0  0  0  0  0  0  0  0  0  0
   51.1130   33.6574   42.0169 H   0  0  0  0  0  0  0  0  0  0  0  0
   49.3266   35.1836   43.5859 H   0  0  0  0  0  0  0  0  0  0  0  0
   50.5773   35.7226   42.3912 H   0  0  0  0  0  0  0  0  0  0  0  0
   49.0319   35.6929   40.6158 H   0  0  0  0  0  0  0  0  0  0  0  0
   48.2454   36.5487   42.0293 H   0  0  0  0  0  0  0  0  0  0  0  0
  1  2  1  0
  2  4  1  0
  2  3  1  0
  4  3  1  0
  5  4  1  0
  5  7  1  0
  5  6  1  0
  7  6  1  0
  9  8  2  0
  9  1  1  0
 10 15  2  0
 11 10  1  0
 12 11  2  0
 12 13  1  0
 13 14  2  0
 14 15  1  0
 14  8  1  0
 16 21  1  0
 16 12  1  0
 17 16  1  0
 18 17  1  0
 18 19  1  0
 19 20  1  0
 21 20  1  0
  1 22  1  0
  1 23  1  0
  2 24  1  6
  3 25  1  0
  3 26  1  0
  4 27  1  1
  5 28  1  0
  6 29  1  0
  6 30  1  0
  7 31  1  0
  7 32  1  0
  8 33  1  0
  9 34  1  0
 10 35  1  0
 11 36  1  0
 16 37  1  0
 17 38  1  0
 17 39  1  0
 18 40  1  0
 18 41  1  0
 19 42  1  0
 19 43  1  0
 20 44  1  0
 20 45  1  0
 21 46  1  0
 21 47  1  0
M  ISO  8  22   8  23   8  24  13  25  13  26  13  27  13  28  13  29  13
M  ISO  8  30  13  31  13  32  13  35  14  36  14  37  13  38  13  39  13
M  ISO  8  40  13  41  13  42  13  43  13  44  13  45  13  46  13  47  13
M  END
>  <minimizedAffinity>  (1) 
-6.30183077

>  <minimizedRMSD>  (1) 
1.46290207

$$$$
