
     RDKit          3D

 46 49  0  0  1  0  0  0  0  0999 V2000
   46.5210   35.0590   41.8180 C   0  0  2  0  0  0  0  0  0  0  0  0
   45.9230   35.1580   43.1940 C   0  0  0  0  0  0  0  0  0  0  0  0
   44.5520   35.7210   42.8340 C   0  0  0  0  0  0  0  0  0  0  0  0
   44.2330   35.1280   41.4740 C   0  0  1  0  0  0  0  0  0  0  0  0
   45.4050   34.2870   41.1150 C   0  0  0  0  0  0  0  0  0  0  0  0
   50.0660   33.9030   42.3950 C   0  0  0  0  0  0  0  0  0  0  0  0
   48.9080   34.7120   42.5300 C   0  0  0  0  0  0  0  0  0  0  0  0
   47.7910   34.2800   41.7700 C   0  0  0  0  0  0  0  0  0  0  0  0
   47.8490   33.1460   40.9640 N   0  0  0  0  0  0  0  0  0  0  0  0
   49.0020   32.4520   40.9120 C   0  0  0  0  0  0  0  0  0  0  0  0
   50.0900   32.8240   41.6150 N   0  0  0  0  0  0  0  0  0  0  0  0
   43.0490   34.2360   41.4730 C   0  0  2  0  0  0  0  0  0  0  0  0
   43.2700   32.7940   41.2430 C   0  0  0  0  0  0  0  0  0  0  0  0
   42.3700   33.6380   40.3710 C   0  0  2  0  0  0  0  0  0  0  0  0
   42.5290   33.8020   38.9130 C   0  0  0  0  0  0  0  0  0  0  0  0
   41.5650   32.8390   38.1920 C   0  0  0  0  0  0  0  0  0  0  0  0
   40.1420   33.3050   38.3050 C   0  0  0  0  0  0  0  0  0  0  0  0
   39.8950   34.7090   37.8640 C   0  0  0  0  0  0  0  0  0  0  0  0
   40.8370   35.6230   38.6100 C   0  0  0  0  0  0  0  0  0  0  0  0
   42.2640   35.2210   38.4210 C   0  0  0  0  0  0  0  0  0  0  0  0
   46.8004   36.0329   41.3898 H   0  0  0  0  0  0  0  0  0  0  0  0
   45.8476   34.1742   43.6802 H   0  0  0  0  0  0  0  0  0  0  0  0
   46.5007   35.7574   43.9131 H   0  0  0  0  0  0  0  0  0  0  0  0
   43.8003   35.4143   43.5762 H   0  0  0  0  0  0  0  0  0  0  0  0
   44.5463   36.8209   42.8185 H   0  0  0  0  0  0  0  0  0  0  0  0
   44.0205   35.9536   40.7789 H   0  0  0  0  0  0  0  0  0  0  0  0
   45.3076   33.2642   41.5080 H   0  0  0  0  0  0  0  0  0  0  0  0
   45.5547   34.1430   40.0348 H   0  0  0  0  0  0  0  0  0  0  0  0
   50.9737   34.1762   42.9531 H   0  0  0  0  0  0  0  0  0  0  0  0
   48.8789   35.6038   43.1733 H   0  0  0  0  0  0  0  0  0  0  0  0
   49.0573   31.5554   40.2772 H   0  0  0  0  0  0  0  0  0  0  0  0
   42.6524   34.9031   42.2525 H   0  0  0  0  0  0  0  0  0  0  0  0
   44.2360   32.4312   40.8619 H   0  0  0  0  0  0  0  0  0  0  0  0
   43.1682   31.8703   41.8315 H   0  0  0  0  0  0  0  0  0  0  0  0
   41.3187   33.6630   40.0483 H   0  0  0  0  0  0  0  0  0  0  0  0
   43.5809   33.5762   38.6837 H   0  0  0  0  0  0  0  0  0  0  0  0
   41.6518   31.8400   38.6442 H   0  0  0  0  0  0  0  0  0  0  0  0
   41.8368   32.8090   37.1265 H   0  0  0  0  0  0  0  0  0  0  0  0
   39.5168   32.6406   37.6905 H   0  0  0  0  0  0  0  0  0  0  0  0
   39.8956   33.2744   39.3766 H   0  0  0  0  0  0  0  0  0  0  0  0
   40.0754   34.7945   36.7823 H   0  0  0  0  0  0  0  0  0  0  0  0
   38.8530   34.9907   38.0757 H   0  0  0  0  0  0  0  0  0  0  0  0
   40.7042   36.6504   38.2400 H   0  0  0  0  0  0  0  0  0  0  0  0
   40.6015   35.5562   39.6824 H   0  0  0  0  0  0  0  0  0  0  0  0
   42.5097   35.2771   37.3503 H   0  0  0  0  0  0  0  0  0  0  0  0
   42.8905   35.9069   39.0101 H   0  0  0  0  0  0  0  0  0  0  0  0
  1  2  1  0
  3  2  1  0
  4  3  1  0
  5  4  1  0
  5  1  1  0
  6  7  2  0
  8  1  1  0
  8  7  1  0
  9  8  2  0
 10  9  1  0
 10 11  2  0
 11  6  1  0
 12  4  1  0
 13 12  1  0
 14 13  1  0
 14 12  1  0
 15 14  1  0
 16 17  1  0
 16 15  1  0
 18 17  1  0
 18 19  1  0
 20 19  1  0
 20 15  1  0
  1 21  1  6
  2 22  1  0
  2 23  1  0
  3 24  1  0
  3 25  1  0
  4 26  1  6
  5 27  1  0
  5 28  1  0
  6 29  1  0
  7 30  1  0
 10 31  1  0
 12 32  1  1
 13 33  1  0
 13 34  1  0
 14 35  1  1
 15 36  1  0
 16 37  1  0
 16 38  1  0
 17 39  1  0
 17 40  1  0
 18 41  1  0
 18 42  1  0
 19 43  1  0
 19 44  1  0
 20 45  1  0
 20 46  1  0
M  ISO  8  21  13  22  13  23  13  24  13  25  13  26  13  27  13  28  13
M  ISO  8  29  14  30  14  31  14  32  13  33  13  34  13  35  13  36  13
M  ISO  8  37  13  38  13  39  13  40  13  41  13  42  13  43  13  44  13
M  ISO  2  45  13  46  13
M  END
>  <minimizedAffinity>  (1) 
-5.71035957

>  <minimizedRMSD>  (1) 
7.37866259

$$$$
