
     RDKit          3D

 39 42  0  0  0  0  0  0  0  0999 V2000
   47.9090   35.1920   41.9710 C   0  0  0  0  0  0  0  0  0  0  0  0
   46.6600   34.6480   42.0960 C   0  0  0  0  0  0  0  0  0  0  0  0
   46.0810   34.0190   41.0010 C   0  0  0  0  0  0  0  0  0  0  0  0
   46.7360   33.9270   39.7840 C   0  0  0  0  0  0  0  0  0  0  0  0
   46.3740   33.3690   38.5940 N   0  0  0  0  0  0  0  0  0  0  0  0
   47.4050   33.5670   37.7240 C   0  0  0  0  0  0  0  0  0  0  0  0
   48.3810   34.2390   38.3840 N   0  0  0  0  0  0  0  0  0  0  0  0
   48.0040   34.4780   39.6520 C   0  0  0  0  0  0  0  0  0  0  0  0
   48.5690   35.0960   40.7360 C   0  0  0  0  0  0  0  0  0  0  0  0
   44.4640   35.7440   44.9720 C   0  0  0  0  0  0  0  0  0  0  0  0
   45.0410   35.7430   43.6720 C   0  0  0  0  0  0  0  0  0  0  0  0
   45.9940   34.7590   43.3890 C   0  0  0  0  0  0  0  0  0  0  0  0
   46.3250   33.8640   44.3430 N   0  0  0  0  0  0  0  0  0  0  0  0
   45.7470   33.9000   45.5750 C   0  0  0  0  0  0  0  0  0  0  0  0
   44.8370   34.8260   45.8740 N   0  0  0  0  0  0  0  0  0  0  0  0
   46.1670   32.8800   46.5650 C   0  0  0  0  0  0  0  0  0  0  0  0
   45.2660   32.7450   47.7470 C   0  0  0  0  0  0  0  0  0  0  0  0
   45.9960   31.9140   48.7840 C   0  0  0  0  0  0  0  0  0  0  0  0
   46.4100   30.5710   48.2250 C   0  0  0  0  0  0  0  0  0  0  0  0
   47.1540   30.7010   46.9130 C   0  0  0  0  0  0  0  0  0  0  0  0
   46.2940   31.5060   45.9310 C   0  0  0  0  0  0  0  0  0  0  0  0
   48.3877   35.6959   42.8236 H   0  0  0  0  0  0  0  0  0  0  0  0
   45.0764   33.5827   41.1031 H   0  0  0  0  0  0  0  0  0  0  0  0
   45.4867   32.8874   38.3901 H   0  0  0  0  0  0  0  0  0  0  0  0
   47.4392   33.2401   36.6742 H   0  0  0  0  0  0  0  0  0  0  0  0
   49.5740   35.5318   40.6352 H   0  0  0  0  0  0  0  0  0  0  0  0
   43.7101   36.4998   45.2374 H   0  0  0  0  0  0  0  0  0  0  0  0
   44.7488   36.4881   42.9174 H   0  0  0  0  0  0  0  0  0  0  0  0
   47.1395   33.2517   46.9201 H   0  0  0  0  0  0  0  0  0  0  0  0
   45.0338   33.7387   48.1577 H   0  0  0  0  0  0  0  0  0  0  0  0
   44.3200   32.2626   47.4599 H   0  0  0  0  0  0  0  0  0  0  0  0
   46.8947   32.4580   49.1103 H   0  0  0  0  0  0  0  0  0  0  0  0
   45.3149   31.7411   49.6303 H   0  0  0  0  0  0  0  0  0  0  0  0
   47.0635   30.0702   48.9544 H   0  0  0  0  0  0  0  0  0  0  0  0
   45.4964   29.9875   48.0381 H   0  0  0  0  0  0  0  0  0  0  0  0
   48.1086   31.2214   47.0800 H   0  0  0  0  0  0  0  0  0  0  0  0
   47.3559   29.7021   46.4989 H   0  0  0  0  0  0  0  0  0  0  0  0
   45.3042   31.0412   45.8113 H   0  0  0  0  0  0  0  0  0  0  0  0
   46.7412   31.5511   44.9270 H   0  0  0  0  0  0  0  0  0  0  0  0
  1  2  2  0
  2 12  1  0
  3  2  1  0
  4  3  2  0
  5  4  1  0
  6  7  2  0
  6  5  1  0
  7  8  1  0
  8  4  1  0
  8  9  2  0
  9  1  1  0
 10 15  2  0
 11 10  1  0
 12 11  2  0
 12 13  1  0
 13 14  2  0
 14 15  1  0
 14 16  1  0
 16 17  1  0
 17 18  1  0
 19 18  1  0
 20 19  1  0
 21 16  1  0
 21 20  1  0
  1 22  1  0
  3 23  1  0
  5 24  1  0
  6 25  1  0
  9 26  1  0
 10 27  1  0
 11 28  1  0
 16 29  1  0
 17 30  1  0
 17 31  1  0
 18 32  1  0
 18 33  1  0
 19 34  1  0
 19 35  1  0
 20 36  1  0
 20 37  1  0
 21 38  1  0
 21 39  1  0
M  ISO  8  22  14  23  14  24   9  25  14  26  14  27  14  28  14  29  13
M  ISO  8  30  13  31  13  32  13  33  13  34  13  35  13  36  13  37  13
M  ISO  2  38  13  39  13
M  END
>  <minimizedAffinity>  (1) 
-7.04208088

>  <minimizedRMSD>  (1) 
0.330335021

$$$$
