
     RDKit          3D

 42 45  0  0  0  0  0  0  0  0999 V2000
   45.3640   36.1870   43.3780 C   0  0  0  0  0  0  0  0  0  0  0  0
   46.0200   34.9820   43.0650 C   0  0  0  0  0  0  0  0  0  0  0  0
   45.9020   33.9990   44.0260 C   0  0  0  0  0  0  0  0  0  0  0  0
   45.2120   34.1750   45.1790 N   0  0  0  0  0  0  0  0  0  0  0  0
   44.5980   35.3610   45.4280 C   0  0  0  0  0  0  0  0  0  0  0  0
   44.6770   36.3650   44.5240 N   0  0  0  0  0  0  0  0  0  0  0  0
   46.5270   32.7620   43.8050 C   0  0  0  0  0  0  0  0  0  0  0  0
   47.7940   32.2810   43.9510 C   0  0  0  0  0  0  0  0  0  0  0  0
   48.1420   31.0310   43.6660 C   0  0  0  0  0  0  0  0  0  0  0  0
   47.1450   30.2240   43.2040 C   0  0  0  0  0  0  0  0  0  0  0  0
   45.6660   31.3250   43.1890 S   0  0  0  0  0  0  0  0  0  0  0  0
   46.7250   34.8490   41.8510 C   0  0  0  0  0  0  0  0  0  0  0  0
   47.9040   35.3320   41.8410 O   0  0  0  0  0  0  0  0  0  0  0  0
   46.0830   34.1730   40.6770 C   0  0  0  0  0  0  0  0  0  0  0  0
   44.7480   34.1480   40.3720 C   0  0  0  0  0  0  0  0  0  0  0  0
   44.6290   33.4330   39.2430 N   0  0  0  0  0  0  0  0  0  0  0  0
   45.8650   33.0290   38.8640 C   0  0  0  0  0  0  0  0  0  0  0  0
   46.7730   33.4880   39.7570 N   0  0  0  0  0  0  0  0  0  0  0  0
   46.1610   32.2070   37.6520 C   0  0  0  0  0  0  0  0  0  0  0  0
   45.6410   32.8110   36.3880 C   0  0  0  0  0  0  0  0  0  0  0  0
   46.2770   32.0670   35.2280 C   0  0  0  0  0  0  0  0  0  0  0  0
   47.7450   32.3280   35.0950 C   0  0  0  0  0  0  0  0  0  0  0  0
   48.2370   32.8610   36.4450 C   0  0  0  0  0  0  0  0  0  0  0  0
   47.6400   31.9490   37.5090 C   0  0  0  0  0  0  0  0  0  0  0  0
   45.4139   37.0174   42.6583 H   0  0  0  0  0  0  0  0  0  0  0  0
   44.0373   35.5051   46.3633 H   0  0  0  0  0  0  0  0  0  0  0  0
   48.5702   32.9648   44.3250 H   0  0  0  0  0  0  0  0  0  0  0  0
   49.1726   30.6689   43.7950 H   0  0  0  0  0  0  0  0  0  0  0  0
   47.2080   29.1660   42.9097 H   0  0  0  0  0  0  0  0  0  0  0  0
   43.9338   34.6210   40.9407 H   0  0  0  0  0  0  0  0  0  0  0  0
   43.7489   33.2267   38.7493 H   0  0  0  0  0  0  0  0  0  0  0  0
   45.6328   31.2550   37.8094 H   0  0  0  0  0  0  0  0  0  0  0  0
   44.5467   32.7073   36.3453 H   0  0  0  0  0  0  0  0  0  0  0  0
   45.8877   33.8820   36.3417 H   0  0  0  0  0  0  0  0  0  0  0  0
   46.1259   30.9880   35.3795 H   0  0  0  0  0  0  0  0  0  0  0  0
   45.7960   32.4257   34.3060 H   0  0  0  0  0  0  0  0  0  0  0  0
   48.2719   31.3957   34.8437 H   0  0  0  0  0  0  0  0  0  0  0  0
   47.9402   33.0563   34.2941 H   0  0  0  0  0  0  0  0  0  0  0  0
   49.3357   32.8294   36.4893 H   0  0  0  0  0  0  0  0  0  0  0  0
   47.9306   33.9064   36.5973 H   0  0  0  0  0  0  0  0  0  0  0  0
   47.7986   30.9001   37.2180 H   0  0  0  0  0  0  0  0  0  0  0  0
   48.1327   32.1526   38.4712 H   0  0  0  0  0  0  0  0  0  0  0  0
  1  6  2  0
  2  1  1  0
  2  3  2  0
  3  4  1  0
  4  5  2  0
  6  5  1  0
  7  8  2  0
  7  3  1  0
  9  8  1  0
 10  9  2  0
 11 10  1  0
 11  7  1  0
 12  2  1  0
 13 12  2  0
 14 12  1  0
 15 14  2  0
 16 15  1  0
 17 16  1  0
 17 18  2  0
 18 14  1  0
 19 17  1  0
 20 19  1  0
 21 20  1  0
 22 21  1  0
 22 23  1  0
 23 24  1  0
 24 19  1  0
  1 25  1  0
  5 26  1  0
  8 27  1  0
  9 28  1  0
 10 29  1  0
 15 30  1  0
 16 31  1  0
 19 32  1  0
 20 33  1  0
 20 34  1  0
 21 35  1  0
 21 36  1  0
 22 37  1  0
 22 38  1  0
 23 39  1  0
 23 40  1  0
 24 41  1  0
 24 42  1  0
M  ISO  8  25  14  26  14  27  14  28  14  29  14  30  14  31   9  32  13
M  ISO  8  33  13  34  13  35  13  36  13  37  13  38  13  39  13  40  13
M  ISO  2  41  13  42  13
M  END
>  <minimizedAffinity>  (1) 
-5.04880333

>  <minimizedRMSD>  (1) 
0.619235039

$$$$
