
     RDKit          3D

 42 44  0  0  0  0  0  0  0  0999 V2000
   46.2600   34.0220   40.8060 C   0  0  0  0  0  0  0  0  0  0  0  0
   46.8880   33.8700   39.5970 C   0  0  0  0  0  0  0  0  0  0  0  0
   48.1170   34.4040   39.3090 C   0  0  0  0  0  0  0  0  0  0  0  0
   48.7550   35.1390   40.3030 C   0  0  0  0  0  0  0  0  0  0  0  0
   48.1310   35.3070   41.5420 C   0  0  0  0  0  0  0  0  0  0  0  0
   46.8820   34.7570   41.8150 C   0  0  0  0  0  0  0  0  0  0  0  0
   46.3420   35.0130   43.1610 C   0  0  0  0  0  0  0  0  0  0  0  0
   46.5390   33.8850   44.1190 C   0  0  0  0  0  0  0  0  0  0  0  0
   45.3000   33.6650   44.9930 C   0  0  0  0  0  0  0  0  0  0  0  0
   44.8610   34.9870   45.6020 C   0  0  0  0  0  0  0  0  0  0  0  0
   44.5910   35.9930   44.5150 C   0  0  0  0  0  0  0  0  0  0  0  0
   44.8770   35.3950   43.1310 C   0  0  0  0  0  0  0  0  0  0  0  0
   44.9440   33.4540   41.1620 C   0  0  0  0  0  0  0  0  0  0  0  0
   43.9650   33.5870   39.9880 C   0  0  0  0  0  0  0  0  0  0  0  0
   40.9880   35.5070   41.2570 C   0  0  0  0  0  0  0  0  0  0  0  0
   42.2650   35.2650   40.7160 C   0  0  0  0  0  0  0  0  0  0  0  0
   42.6370   33.9410   40.5490 C   0  0  0  0  0  0  0  0  0  0  0  0
   41.7380   32.9760   40.9210 N   0  0  0  0  0  0  0  0  0  0  0  0
   40.5410   33.2440   41.4280 C   0  0  0  0  0  0  0  0  0  0  0  0
   40.1460   34.5120   41.6040 N   0  0  0  0  0  0  0  0  0  0  0  0
   46.3778   33.2878   38.8155 H   0  0  0  0  0  0  0  0  0  0  0  0
   48.5837   34.2562   38.3239 H   0  0  0  0  0  0  0  0  0  0  0  0
   49.7430   35.5845   40.1151 H   0  0  0  0  0  0  0  0  0  0  0  0
   48.6410   35.8900   42.3230 H   0  0  0  0  0  0  0  0  0  0  0  0
   46.9322   35.8653   43.5287 H   0  0  0  0  0  0  0  0  0  0  0  0
   46.7430   32.9655   43.5508 H   0  0  0  0  0  0  0  0  0  0  0  0
   47.3842   34.1357   44.7768 H   0  0  0  0  0  0  0  0  0  0  0  0
   44.4851   33.2580   44.3763 H   0  0  0  0  0  0  0  0  0  0  0  0
   45.5434   32.9561   45.7981 H   0  0  0  0  0  0  0  0  0  0  0  0
   43.9439   34.8305   46.1889 H   0  0  0  0  0  0  0  0  0  0  0  0
   45.6619   35.3669   46.2533 H   0  0  0  0  0  0  0  0  0  0  0  0
   43.5360   36.3007   44.5632 H   0  0  0  0  0  0  0  0  0  0  0  0
   45.2516   36.8594   44.6665 H   0  0  0  0  0  0  0  0  0  0  0  0
   44.6879   36.1384   42.3426 H   0  0  0  0  0  0  0  0  0  0  0  0
   44.2306   34.5320   42.9135 H   0  0  0  0  0  0  0  0  0  0  0  0
   45.0652   32.3900   41.4134 H   0  0  0  0  0  0  0  0  0  0  0  0
   44.5410   34.0044   42.0249 H   0  0  0  0  0  0  0  0  0  0  0  0
   43.9002   32.6333   39.4438 H   0  0  0  0  0  0  0  0  0  0  0  0
   44.3067   34.3617   39.2858 H   0  0  0  0  0  0  0  0  0  0  0  0
   40.6642   36.5482   41.4024 H   0  0  0  0  0  0  0  0  0  0  0  0
   42.9373   36.0902   40.4383 H   0  0  0  0  0  0  0  0  0  0  0  0
   39.8684   32.4190   41.7057 H   0  0  0  0  0  0  0  0  0  0  0  0
  1 13  1  0
  1  6  1  0
  2  1  2  0
  3  2  1  0
  3  4  2  0
  4  5  1  0
  5  6  2  0
  6  7  1  0
  7  8  1  0
  8  9  1  0
  9 10  1  0
 11 10  1  0
 12  7  1  0
 12 11  1  0
 14 17  1  0
 14 13  1  0
 15 20  2  0
 16 15  1  0
 17 16  2  0
 17 18  1  0
 18 19  2  0
 19 20  1  0
  2 21  1  0
  3 22  1  0
  4 23  1  0
  5 24  1  0
  7 25  1  0
  8 26  1  0
  8 27  1  0
  9 28  1  0
  9 29  1  0
 10 30  1  0
 10 31  1  0
 11 32  1  0
 11 33  1  0
 12 34  1  0
 12 35  1  0
 13 36  1  0
 13 37  1  0
 14 38  1  0
 14 39  1  0
 15 40  1  0
 16 41  1  0
 19 42  1  0
M  ISO  8  21  14  22  14  23  14  24  14  25  13  26  13  27  13  28  13
M  ISO  8  29  13  30  13  31  13  32  13  33  13  34  13  35  13  36   8
M  ISO  6  37   8  38   8  39   8  40  14  41  14  42  14
M  END
>  <minimizedAffinity>  (1) 
-5.87844419

>  <minimizedRMSD>  (1) 
1.12388754

$$$$
