
     RDKit          3D

 29 30  0  0  0  0  0  0  0  0999 V2000
   44.4290   35.7000   44.5800 C   0  0  0  0  0  0  0  0  0  0  0  0
   44.9140   35.7960   43.2750 C   0  0  0  0  0  0  0  0  0  0  0  0
   45.9870   34.9850   42.9250 C   0  0  0  0  0  0  0  0  0  0  0  0
   46.5140   34.1420   43.8520 N   0  0  0  0  0  0  0  0  0  0  0  0
   46.0220   34.0680   45.1170 C   0  0  0  0  0  0  0  0  0  0  0  0
   44.9960   34.8450   45.4520 N   0  0  0  0  0  0  0  0  0  0  0  0
   46.6950   33.1050   46.0250 C   0  0  0  0  0  0  0  0  0  0  0  0
   45.6590   32.1800   46.6720 C   0  0  0  0  0  0  0  0  0  0  0  0
   45.2830   32.6520   48.0400 C   0  0  0  0  0  0  0  0  0  0  0  0
   44.9640   31.4860   48.9380 C   0  0  0  0  0  0  0  0  0  0  0  0
   46.2480   30.7050   49.0990 C   0  0  0  0  0  0  0  0  0  0  0  0
   46.7260   30.1770   47.7860 C   0  0  0  0  0  0  0  0  0  0  0  0
   46.0720   30.7520   46.5770 C   0  0  0  0  0  0  0  0  0  0  0  0
   43.5810   36.3247   44.8972 H   0  0  0  0  0  0  0  0  0  0  0  0
   44.4631   36.4888   42.5493 H   0  0  0  0  0  0  0  0  0  0  0  0
   46.4054   35.0249   41.9085 H   0  0  0  0  0  0  0  0  0  0  0  0
   47.4120   32.5017   45.4489 H   0  0  0  0  0  0  0  0  0  0  0  0
   47.2230   33.6617   46.8132 H   0  0  0  0  0  0  0  0  0  0  0  0
   44.7214   32.2325   46.0991 H   0  0  0  0  0  0  0  0  0  0  0  0
   46.1221   33.2191   48.4693 H   0  0  0  0  0  0  0  0  0  0  0  0
   44.3909   33.2906   47.9603 H   0  0  0  0  0  0  0  0  0  0  0  0
   44.6122   31.8449   49.9165 H   0  0  0  0  0  0  0  0  0  0  0  0
   44.1682   30.8594   48.5090 H   0  0  0  0  0  0  0  0  0  0  0  0
   47.0191   31.3652   49.5226 H   0  0  0  0  0  0  0  0  0  0  0  0
   46.0567   29.8535   49.7686 H   0  0  0  0  0  0  0  0  0  0  0  0
   47.8049   30.3790   47.7140 H   0  0  0  0  0  0  0  0  0  0  0  0
   46.4689   29.1075   47.7836 H   0  0  0  0  0  0  0  0  0  0  0  0
   45.1724   30.1553   46.3657 H   0  0  0  0  0  0  0  0  0  0  0  0
   46.8336   30.7168   45.7841 H   0  0  0  0  0  0  0  0  0  0  0  0
  1  6  2  0
  2  1  1  0
  3  2  2  0
  3  4  1  0
  4  5  2  0
  5  6  1  0
  5  7  1  0
  7  8  1  0
  8  9  1  0
  9 10  1  0
 10 11  1  0
 12 11  1  0
 13  8  1  0
 13 12  1  0
  1 14  1  0
  2 15  1  0
  3 16  1  0
  7 17  1  0
  7 18  1  0
  8 19  1  0
  9 20  1  0
  9 21  1  0
 10 22  1  0
 10 23  1  0
 11 24  1  0
 11 25  1  0
 12 26  1  0
 12 27  1  0
 13 28  1  0
 13 29  1  0
M  ISO  8  14  14  15  14  16  14  17   8  18   8  19  13  20  13  21  13
M  ISO  8  22  13  23  13  24  13  25  13  26  13  27  13  28  13  29  13
M  END
>  <minimizedAffinity>  (1) 
-4.36758327

>  <minimizedRMSD>  (1) 
1.56119835

$$$$
