
     RDKit          3D

 34 36  0  0  0  0  0  0  0  0999 V2000
   44.7320   35.1670   44.5130 C   0  0  0  0  0  0  0  0  0  0  0  0
   44.7880   34.4770   43.2840 C   0  0  0  0  0  0  0  0  0  0  0  0
   45.2690   33.1750   43.2820 C   0  0  0  0  0  0  0  0  0  0  0  0
   45.6690   32.6190   44.4700 N   0  0  0  0  0  0  0  0  0  0  0  0
   45.5960   33.3190   45.6210 C   0  0  0  0  0  0  0  0  0  0  0  0
   45.1380   34.5780   45.6690 N   0  0  0  0  0  0  0  0  0  0  0  0
   46.0280   32.7020   46.8730 C   0  0  0  0  0  0  0  0  0  0  0  0
   47.2970   32.2200   47.0430 C   0  0  0  0  0  0  0  0  0  0  0  0
   47.7510   31.6320   48.2000 C   0  0  0  0  0  0  0  0  0  0  0  0
   46.8530   31.5440   49.2120 N   0  0  0  0  0  0  0  0  0  0  0  0
   45.5990   32.0160   49.0540 C   0  0  0  0  0  0  0  0  0  0  0  0
   45.1410   32.6010   47.9110 N   0  0  0  0  0  0  0  0  0  0  0  0
   44.3350   35.1450   42.0200 C   0  0  0  0  0  0  0  0  0  0  0  0
   44.8730   34.4690   40.8190 C   0  0  0  0  0  0  0  0  0  0  0  0
   43.7840   33.7570   40.0870 C   0  0  0  0  0  0  0  0  0  0  0  0
   42.8560   34.8820   39.6050 C   0  0  0  0  0  0  0  0  0  0  0  0
   42.1510   35.4950   40.7830 C   0  0  0  0  0  0  0  0  0  0  0  0
   42.8590   35.3500   42.0820 C   0  0  0  0  0  0  0  0  0  0  0  0
   44.3533   36.1995   44.5364 H   0  0  0  0  0  0  0  0  0  0  0  0
   45.3282   32.6004   42.3458 H   0  0  0  0  0  0  0  0  0  0  0  0
   47.9987   32.3085   46.2005 H   0  0  0  0  0  0  0  0  0  0  0  0
   48.7800   31.2559   48.2986 H   0  0  0  0  0  0  0  0  0  0  0  0
   44.9026   31.9230   49.9004 H   0  0  0  0  0  0  0  0  0  0  0  0
   44.7623   36.1541   41.9242 H   0  0  0  0  0  0  0  0  0  0  0  0
   45.3258   35.2191   40.1539 H   0  0  0  0  0  0  0  0  0  0  0  0
   45.6292   33.7346   41.1333 H   0  0  0  0  0  0  0  0  0  0  0  0
   44.1906   33.1942   39.2338 H   0  0  0  0  0  0  0  0  0  0  0  0
   43.2627   33.0221   40.7180 H   0  0  0  0  0  0  0  0  0  0  0  0
   43.4507   35.6527   39.0928 H   0  0  0  0  0  0  0  0  0  0  0  0
   42.1115   34.4679   38.9092 H   0  0  0  0  0  0  0  0  0  0  0  0
   42.0215   36.5688   40.5826 H   0  0  0  0  0  0  0  0  0  0  0  0
   41.1994   34.9534   40.8886 H   0  0  0  0  0  0  0  0  0  0  0  0
   42.4238   34.4852   42.6043 H   0  0  0  0  0  0  0  0  0  0  0  0
   42.7217   36.3130   42.5956 H   0  0  0  0  0  0  0  0  0  0  0  0
  1  6  2  0
  2  1  1  0
  3  2  2  0
  3  4  1  0
  4  5  2  0
  5  6  1  0
  5  7  1  0
  7  8  2  0
  7 12  1  0
  8  9  1  0
  9 10  2  0
 11 10  1  0
 12 11  2  0
 13 18  1  0
 13  2  1  0
 14 13  1  0
 15 14  1  0
 16 15  1  0
 16 17  1  0
 17 18  1  0
  1 19  1  0
  3 20  1  0
  8 21  1  0
  9 22  1  0
 11 23  1  0
 13 24  1  0
 14 25  1  0
 14 26  1  0
 15 27  1  0
 15 28  1  0
 16 29  1  0
 16 30  1  0
 17 31  1  0
 17 32  1  0
 18 33  1  0
 18 34  1  0
M  ISO  8  19  14  20  14  21  14  22  14  23  14  24  13  25  13  26  13
M  ISO  8  27  13  28  13  29  13  30  13  31  13  32  13  33  13  34  13
M  END
>  <minimizedAffinity>  (1) 
-5.22794533

>  <minimizedRMSD>  (1) 
1.54009855

$$$$
