
     RDKit          3D

 53 56  0  0  1  0  0  0  0  0999 V2000
   42.8150   34.3470   38.9560 C   0  0  1  0  0  0  0  0  0  0  0  0
   43.0170   35.1820   40.2140 C   0  0  1  0  0  0  0  0  0  0  0  0
   41.7590   35.6040   40.6730 O   0  0  0  0  0  0  0  0  0  0  0  0
   40.8750   35.8910   39.6290 C   0  0  0  0  0  0  0  0  0  0  0  0
   40.4530   34.6400   38.8860 C   0  0  2  0  0  0  0  0  0  0  0  0
   41.5590   33.5670   39.1710 C   0  0  1  0  0  0  0  0  0  0  0  0
   42.7000   35.1670   37.8250 O   0  0  0  0  0  0  0  0  0  0  0  0
   40.5130   34.8680   37.5180 O   0  0  0  0  0  0  0  0  0  0  0  0
   43.4500   34.2760   41.1930 O   0  0  0  0  0  0  0  0  0  0  0  0
   44.5960   34.3710   41.8770 C   0  0  0  0  0  0  0  0  0  0  0  0
   45.8250   34.4960   41.2150 C   0  0  0  0  0  0  0  0  0  0  0  0
   46.9820   34.5920   41.9660 C   0  0  0  0  0  0  0  0  0  0  0  0
   46.8920   34.5620   43.3480 N   0  0  0  0  0  0  0  0  0  0  0  0
   45.6900   34.4410   43.9530 C   0  0  0  0  0  0  0  0  0  0  0  0
   44.5500   34.3460   43.2200 N   0  0  0  0  0  0  0  0  0  0  0  0
   48.3300   34.7110   41.3330 C   0  0  0  0  0  0  0  0  0  0  0  0
   49.0670   36.0360   41.5220 C   0  0  0  0  0  0  0  0  0  0  0  0
   49.5240   34.6860   42.1150 C   0  0  0  0  0  0  0  0  0  0  0  0
   41.3390   32.5260   38.3470 O   0  0  0  0  0  0  0  0  0  0  0  0
   40.3940   31.5650   38.4150 C   0  0  0  0  0  0  0  0  0  0  0  0
   39.8410   31.0740   37.3300 O   0  0  0  0  0  0  0  0  0  0  0  0
   39.6000   30.6960   39.3500 C   0  0  0  0  0  0  0  0  0  0  0  0
   38.3150   30.3520   38.6050 C   0  0  0  0  0  0  0  0  0  0  0  0
   37.4760   29.3850   39.3690 C   0  0  0  0  0  0  0  0  0  0  0  0
   37.5530   29.5780   40.8440 C   0  0  0  0  0  0  0  0  0  0  0  0
   37.8110   31.0530   41.0940 C   0  0  0  0  0  0  0  0  0  0  0  0
   39.2300   31.3100   40.6440 C   0  0  0  0  0  0  0  0  0  0  0  0
   43.6738   33.6828   38.7790 H   0  0  0  0  0  0  0  0  0  0  0  0
   43.6969   36.0260   40.0259 H   0  0  0  0  0  0  0  0  0  0  0  0
   39.9798   36.3769   40.0444 H   0  0  0  0  0  0  0  0  0  0  0  0
   41.3911   36.5523   38.9174 H   0  0  0  0  0  0  0  0  0  0  0  0
   39.4409   34.3393   39.1945 H   0  0  0  0  0  0  0  0  0  0  0  0
   41.5894   33.1060   40.1693 H   0  0  0  0  0  0  0  0  0  0  0  0
   42.5683   36.1059   38.1101 H   0  0  0  0  0  0  0  0  0  0  0  0
   40.7614   35.8117   37.3513 H   0  0  0  0  0  0  0  0  0  0  0  0
   45.8684   34.5174   40.1161 H   0  0  0  0  0  0  0  0  0  0  0  0
   45.6337   34.4192   45.0513 H   0  0  0  0  0  0  0  0  0  0  0  0
   48.0033   34.1069   40.4738 H   0  0  0  0  0  0  0  0  0  0  0  0
   49.6154   36.4984   40.6881 H   0  0  0  0  0  0  0  0  0  0  0  0
   48.8295   37.0411   41.9006 H   0  0  0  0  0  0  0  0  0  0  0  0
   49.4614   34.5182   43.2003 H   0  0  0  0  0  0  0  0  0  0  0  0
   50.4574   34.1056   42.0721 H   0  0  0  0  0  0  0  0  0  0  0  0
   40.2328   29.8360   39.6143 H   0  0  0  0  0  0  0  0  0  0  0  0
   37.7383   31.2748   38.4443 H   0  0  0  0  0  0  0  0  0  0  0  0
   38.5887   29.8859   37.6469 H   0  0  0  0  0  0  0  0  0  0  0  0
   36.4288   29.5065   39.0548 H   0  0  0  0  0  0  0  0  0  0  0  0
   37.8588   28.3771   39.1510 H   0  0  0  0  0  0  0  0  0  0  0  0
   36.6046   29.2771   41.3129 H   0  0  0  0  0  0  0  0  0  0  0  0
   38.3570   28.9637   41.2755 H   0  0  0  0  0  0  0  0  0  0  0  0
   37.1084   31.6678   40.5123 H   0  0  0  0  0  0  0  0  0  0  0  0
   37.6714   31.3123   42.1538 H   0  0  0  0  0  0  0  0  0  0  0  0
   39.9084   30.9152   41.4146 H   0  0  0  0  0  0  0  0  0  0  0  0
   39.3134   32.3975   40.5015 H   0  0  0  0  0  0  0  0  0  0  0  0
  1  6  1  0
  1  2  1  0
  2  3  1  0
  2  9  1  0
  4  3  1  0
  5  6  1  0
  5  4  1  0
  7  1  1  0
  8  5  1  0
  9 10  1  0
 10 15  1  0
 11 10  2  0
 11 12  1  0
 12 13  2  0
 13 14  1  0
 15 14  2  0
 16 17  1  0
 16 12  1  0
 16 18  1  0
 17 18  1  0
 19 20  1  0
 19  6  1  0
 20 22  1  0
 21 20  2  0
 22 27  1  0
 23 22  1  0
 23 24  1  0
 24 25  1  0
 25 26  1  0
 27 26  1  0
  1 28  1  6
  2 29  1  6
  4 30  1  0
  4 31  1  0
  5 32  1  1
  6 33  1  1
  7 34  1  0
  8 35  1  0
 11 36  1  0
 14 37  1  0
 16 38  1  0
 17 39  1  0
 17 40  1  0
 18 41  1  0
 18 42  1  0
 22 43  1  0
 23 44  1  0
 23 45  1  0
 24 46  1  0
 24 47  1  0
 25 48  1  0
 25 49  1  0
 26 50  1  0
 26 51  1  0
 27 52  1  0
 27 53  1  0
M  ISO  8  28  13  29  13  30  13  31  13  32  13  33  13  34   3  35   3
M  ISO  8  36  14  37  14  38  13  39  13  40  13  41  13  42  13  43  13
M  ISO  8  44  13  45  13  46  13  47  13  48  13  49  13  50  13  51  13
M  ISO  2  52  13  53  13
M  END
>  <minimizedAffinity>  (1) 
-6.56584978

>  <minimizedRMSD>  (1) 
1.49306285

$$$$
