
     RDKit          3D

 27 29  0  0  1  0  0  0  0  0999 V2000
   46.8200   32.3150   46.1750 C   0  0  1  0  0  0  0  0  0  0  0  0
   47.1000   32.4870   47.6280 C   0  0  0  0  0  0  0  0  0  0  0  0
   45.8910   31.7350   47.1980 C   0  0  2  0  0  0  0  0  0  0  0  0
   46.1080   34.6600   43.4470 C   0  0  0  0  0  0  0  0  0  0  0  0
   45.1080   35.5020   43.9830 C   0  0  0  0  0  0  0  0  0  0  0  0
   44.6790   35.2440   45.2970 C   0  0  0  0  0  0  0  0  0  0  0  0
   45.2490   34.2100   45.9690 N   0  0  0  0  0  0  0  0  0  0  0  0
   46.2110   33.4370   45.3890 C   0  0  0  0  0  0  0  0  0  0  0  0
   46.6500   33.6410   44.1480 N   0  0  0  0  0  0  0  0  0  0  0  0
   46.4990   34.9870   42.1090 C   0  0  0  0  0  0  0  0  0  0  0  0
   47.6850   35.2100   41.7210 O   0  0  0  0  0  0  0  0  0  0  0  0
   45.9160   30.2340   47.2230 C   0  0  0  0  0  0  0  0  0  0  0  0
   44.7500   29.4970   47.0570 C   0  0  0  0  0  0  0  0  0  0  0  0
   44.8740   28.1250   47.0960 C   0  0  0  0  0  0  0  0  0  0  0  0
   46.0320   27.4680   47.2790 N   0  0  0  0  0  0  0  0  0  0  0  0
   47.1430   28.2160   47.4360 C   0  0  0  0  0  0  0  0  0  0  0  0
   47.0670   29.5580   47.4060 N   0  0  0  0  0  0  0  0  0  0  0  0
   47.4395   31.9626   45.3371 H   0  0  0  0  0  0  0  0  0  0  0  0
   47.9425   31.9528   48.0915 H   0  0  0  0  0  0  0  0  0  0  0  0
   47.2832   33.3498   48.2853 H   0  0  0  0  0  0  0  0  0  0  0  0
   44.8291   31.8135   47.4741 H   0  0  0  0  0  0  0  0  0  0  0  0
   44.6813   36.3278   43.3948 H   0  0  0  0  0  0  0  0  0  0  0  0
   43.9019   35.8634   45.7687 H   0  0  0  0  0  0  0  0  0  0  0  0
   45.7022   35.0501   41.3533 H   0  0  0  0  0  0  0  0  0  0  0  0
   43.7761   29.9844   46.9021 H   0  0  0  0  0  0  0  0  0  0  0  0
   43.9607   27.5253   46.9683 H   0  0  0  0  0  0  0  0  0  0  0  0
   48.1158   27.7260   47.5893 H   0  0  0  0  0  0  0  0  0  0  0  0
  1  3  1  0
  1  2  1  0
  3 12  1  0
  3  2  1  0
  4  5  2  0
  4  9  1  0
  5  6  1  0
  6  7  2  0
  8  7  1  0
  8  1  1  0
  9  8  2  0
 10  4  1  0
 11 10  2  0
 12 17  2  0
 13 14  2  0
 13 12  1  0
 14 15  1  0
 15 16  2  0
 17 16  1  0
  1 18  1  6
  2 19  1  0
  2 20  1  0
  3 21  1  1
  5 22  1  0
  6 23  1  0
 10 24  1  0
 13 25  1  0
 14 26  1  0
 16 27  1  0
M  ISO  8  18  13  19  13  20  13  21  13  22  14  23  14  24   6  25  14
M  ISO  2  26  14  27  14
M  END
>  <minimizedAffinity>  (1) 
-4.60752201

>  <minimizedRMSD>  (1) 
1.52060199

$$$$
