
     RDKit          3D

 32 34  0  0  0  0  0  0  0  0999 V2000
   47.2900   34.0140   43.4710 C   0  0  0  0  0  0  0  0  0  0  0  0
   48.2380   33.0400   43.0570 C   0  0  0  0  0  0  0  0  0  0  0  0
   48.3860   31.6390   43.1520 C   0  0  0  0  0  0  0  0  0  0  0  0
   49.4680   31.0220   42.6300 C   0  0  0  0  0  0  0  0  0  0  0  0
   50.4580   31.8430   41.9780 C   0  0  0  0  0  0  0  0  0  0  0  0
   49.8050   33.5240   42.1270 S   0  0  0  0  0  0  0  0  0  0  0  0
   51.5590   31.4710   41.4150 O   0  0  0  0  0  0  0  0  0  0  0  0
   51.8440   31.4630   40.0770 C   0  0  0  0  0  0  0  0  0  0  0  0
   53.2030   31.2560   39.8500 C   0  0  0  0  0  0  0  0  0  0  0  0
   53.7230   31.2100   38.5610 C   0  0  0  0  0  0  0  0  0  0  0  0
   52.8740   31.3740   37.5380 N   0  0  0  0  0  0  0  0  0  0  0  0
   51.5650   31.5730   37.7690 C   0  0  0  0  0  0  0  0  0  0  0  0
   51.0640   31.6170   39.0050 N   0  0  0  0  0  0  0  0  0  0  0  0
   46.9800   35.1080   42.5280 C   0  0  0  0  0  0  0  0  0  0  0  0
   45.6530   34.9360   41.9550 C   0  0  0  0  0  0  0  0  0  0  0  0
   44.5390   35.5580   42.5080 C   0  0  0  0  0  0  0  0  0  0  0  0
   43.3070   35.3430   41.9020 C   0  0  0  0  0  0  0  0  0  0  0  0
   43.2540   34.5510   40.8180 N   0  0  0  0  0  0  0  0  0  0  0  0
   44.3630   33.9620   40.3070 C   0  0  0  0  0  0  0  0  0  0  0  0
   45.5270   34.1600   40.8730 N   0  0  0  0  0  0  0  0  0  0  0  0
   46.3485   33.4871   43.6854 H   0  0  0  0  0  0  0  0  0  0  0  0
   47.7577   34.5115   44.3334 H   0  0  0  0  0  0  0  0  0  0  0  0
   47.6112   31.0434   43.6569 H   0  0  0  0  0  0  0  0  0  0  0  0
   49.5898   29.9310   42.6998 H   0  0  0  0  0  0  0  0  0  0  0  0
   53.8787   31.1263   40.7082 H   0  0  0  0  0  0  0  0  0  0  0  0
   54.7965   31.0443   38.3872 H   0  0  0  0  0  0  0  0  0  0  0  0
   50.8862   31.7035   36.9133 H   0  0  0  0  0  0  0  0  0  0  0  0
   47.0199   36.0680   43.0636 H   0  0  0  0  0  0  0  0  0  0  0  0
   47.7201   35.0925   41.7144 H   0  0  0  0  0  0  0  0  0  0  0  0
   44.6300   36.1997   43.3968 H   0  0  0  0  0  0  0  0  0  0  0  0
   42.3951   35.8111   42.3011 H   0  0  0  0  0  0  0  0  0  0  0  0
   44.2851   33.3187   39.4182 H   0  0  0  0  0  0  0  0  0  0  0  0
  2  3  2  0
  2  1  1  0
  4  3  1  0
  5  6  1  0
  5  4  2  0
  6  2  1  0
  7  5  1  0
  8  7  1  0
  9  8  2  0
 10  9  1  0
 11 12  1  0
 11 10  2  0
 12 13  2  0
 13  8  1  0
 14  1  1  0
 15 16  2  0
 15 14  1  0
 17 16  1  0
 18 17  2  0
 19 18  1  0
 19 20  2  0
 20 15  1  0
  1 21  1  0
  1 22  1  0
  3 23  1  0
  4 24  1  0
  9 25  1  0
 10 26  1  0
 12 27  1  0
 14 28  1  0
 14 29  1  0
 16 30  1  0
 17 31  1  0
 19 32  1  0
M  ISO  8  21   8  22   8  23  14  24  14  25  14  26  14  27  14  28   8
M  ISO  4  29   8  30  14  31  14  32  14
M  END
>  <minimizedAffinity>  (1) 
-4.21506548

>  <minimizedRMSD>  (1) 
1.63997579

$$$$
