
     RDKit          3D

 31 34  0  0  0  0  0  0  0  0999 V2000
   44.4340   35.9070   44.8890 C   0  0  0  0  0  0  0  0  0  0  0  0
   45.0170   35.8750   43.5860 C   0  0  0  0  0  0  0  0  0  0  0  0
   45.9190   34.8600   43.3230 C   0  0  0  0  0  0  0  0  0  0  0  0
   46.2040   33.9570   44.2920 N   0  0  0  0  0  0  0  0  0  0  0  0
   45.6350   34.0090   45.5280 C   0  0  0  0  0  0  0  0  0  0  0  0
   44.7640   34.9770   45.8050 N   0  0  0  0  0  0  0  0  0  0  0  0
   47.8790   35.2050   41.9320 C   0  0  0  0  0  0  0  0  0  0  0  0
   46.5920   34.6960   42.0460 C   0  0  0  0  0  0  0  0  0  0  0  0
   46.0400   34.0740   40.9540 C   0  0  0  0  0  0  0  0  0  0  0  0
   46.7150   33.9350   39.7480 C   0  0  0  0  0  0  0  0  0  0  0  0
   46.3770   33.3740   38.5660 N   0  0  0  0  0  0  0  0  0  0  0  0
   47.4370   33.5230   37.7100 C   0  0  0  0  0  0  0  0  0  0  0  0
   48.4200   34.1820   38.3890 N   0  0  0  0  0  0  0  0  0  0  0  0
   47.9930   34.4420   39.6360 C   0  0  0  0  0  0  0  0  0  0  0  0
   48.5680   35.0720   40.7240 C   0  0  0  0  0  0  0  0  0  0  0  0
   45.9820   33.0080   46.5310 C   0  0  0  0  0  0  0  0  0  0  0  0
   45.2130   32.9030   47.6850 C   0  0  0  0  0  0  0  0  0  0  0  0
   45.5600   31.9550   48.6130 C   0  0  0  0  0  0  0  0  0  0  0  0
   46.6200   31.1330   48.4280 N   0  0  0  0  0  0  0  0  0  0  0  0
   47.3410   31.2750   47.2820 C   0  0  0  0  0  0  0  0  0  0  0  0
   47.0350   32.2040   46.3290 N   0  0  0  0  0  0  0  0  0  0  0  0
   43.7114   36.6956   45.1458 H   0  0  0  0  0  0  0  0  0  0  0  0
   44.7598   36.6254   42.8240 H   0  0  0  0  0  0  0  0  0  0  0  0
   48.3527   35.7095   42.7870 H   0  0  0  0  0  0  0  0  0  0  0  0
   45.0208   33.6688   41.0374 H   0  0  0  0  0  0  0  0  0  0  0  0
   45.4811   32.9154   38.3470 H   0  0  0  0  0  0  0  0  0  0  0  0
   47.4862   33.1753   36.6676 H   0  0  0  0  0  0  0  0  0  0  0  0
   49.5873   35.4762   40.6369 H   0  0  0  0  0  0  0  0  0  0  0  0
   44.3487   33.5634   47.8491 H   0  0  0  0  0  0  0  0  0  0  0  0
   44.9619   31.8598   49.5313 H   0  0  0  0  0  0  0  0  0  0  0  0
   48.2051   30.6146   47.1170 H   0  0  0  0  0  0  0  0  0  0  0  0
  1  6  2  0
  2  1  1  0
  3  2  2  0
  3  4  1  0
  4  5  2  0
  5  6  1  0
  5 16  1  0
  7  8  2  0
  8  3  1  0
  9  8  1  0
 10  9  2  0
 11 10  1  0
 12 13  2  0
 12 11  1  0
 13 14  1  0
 14 10  1  0
 14 15  2  0
 15  7  1  0
 16 17  2  0
 17 18  1  0
 19 18  2  0
 20 19  1  0
 21 16  1  0
 21 20  2  0
  1 22  1  0
  2 23  1  0
  7 24  1  0
  9 25  1  0
 11 26  1  0
 12 27  1  0
 15 28  1  0
 17 29  1  0
 18 30  1  0
 20 31  1  0
M  ISO  8  22  14  23  14  24  14  25  14  26   9  27  14  28  14  29  14
M  ISO  2  30  14  31  14
M  END
>  <minimizedAffinity>  (1) 
-6.90225506

>  <minimizedRMSD>  (1) 
0.13422671

$$$$
