
     RDKit          3D

 27 29  0  0  0  0  0  0  0  0999 V2000
   45.7420   33.9300   45.5230 C   0  0  0  0  0  0  0  0  0  0  0  0
   44.7630   34.9000   45.7540 C   0  0  0  0  0  0  0  0  0  0  0  0
   44.4800   35.8170   44.7150 C   0  0  0  0  0  0  0  0  0  0  0  0
   45.1820   35.7010   43.5400 N   0  0  0  0  0  0  0  0  0  0  0  0
   46.1210   34.7360   43.3780 C   0  0  0  0  0  0  0  0  0  0  0  0
   46.3970   33.8700   44.3440 N   0  0  0  0  0  0  0  0  0  0  0  0
   46.8320   34.6690   42.1020 C   0  0  0  0  0  0  0  0  0  0  0  0
   48.0030   35.3580   41.9120 C   0  0  0  0  0  0  0  0  0  0  0  0
   48.7600   35.3750   40.7640 C   0  0  0  0  0  0  0  0  0  0  0  0
   48.2220   34.5970   39.7470 C   0  0  0  0  0  0  0  0  0  0  0  0
   47.0380   33.8850   39.9000 C   0  0  0  0  0  0  0  0  0  0  0  0
   46.3550   33.9340   41.0900 N   0  0  0  0  0  0  0  0  0  0  0  0
   46.0210   33.0000   46.5940 C   0  0  0  0  0  0  0  0  0  0  0  0
   45.1910   32.8880   47.6890 C   0  0  0  0  0  0  0  0  0  0  0  0
   45.5370   31.9750   48.6590 C   0  0  0  0  0  0  0  0  0  0  0  0
   46.6410   31.1780   48.6060 N   0  0  0  0  0  0  0  0  0  0  0  0
   47.4130   31.3370   47.5040 C   0  0  0  0  0  0  0  0  0  0  0  0
   47.0900   32.2160   46.5590 N   0  0  0  0  0  0  0  0  0  0  0  0
   44.2289   34.9489   46.7144 H   0  0  0  0  0  0  0  0  0  0  0  0
   43.7192   36.6009   44.8442 H   0  0  0  0  0  0  0  0  0  0  0  0
   48.3720   35.9543   42.7595 H   0  0  0  0  0  0  0  0  0  0  0  0
   49.6948   35.9457   40.6618 H   0  0  0  0  0  0  0  0  0  0  0  0
   48.7525   34.5422   38.7849 H   0  0  0  0  0  0  0  0  0  0  0  0
   46.6479   33.2818   39.0669 H   0  0  0  0  0  0  0  0  0  0  0  0
   44.2857   33.5055   47.7839 H   0  0  0  0  0  0  0  0  0  0  0  0
   44.8786   31.8825   49.5353 H   0  0  0  0  0  0  0  0  0  0  0  0
   48.3224   30.7289   47.3887 H   0  0  0  0  0  0  0  0  0  0  0  0
  1  2  2  0
  1 13  1  0
  3  2  1  0
  4  3  2  0
  5  4  1  0
  5  6  2  0
  6  1  1  0
  7  5  1  0
  8  7  2  0
  9  8  1  0
 10 11  1  0
 10  9  2  0
 11 12  2  0
 12  7  1  0
 13 14  2  0
 14 15  1  0
 16 15  2  0
 17 16  1  0
 18 13  1  0
 18 17  2  0
  2 19  1  0
  3 20  1  0
  8 21  1  0
  9 22  1  0
 10 23  1  0
 11 24  1  0
 14 25  1  0
 15 26  1  0
 17 27  1  0
M  ISO  8  19  14  20  14  21  14  22  14  23  14  24  14  25  14  26  14
M  ISO  1  27  14
M  END
>  <minimizedAffinity>  (1) 
-6.12686634

>  <minimizedRMSD>  (1) 
0.223242

$$$$
