
     RDKit          3D

 40 43  0  0  1  0  0  0  0  0999 V2000
   49.3920   33.3260   41.4640 N   0  0  0  0  0  0  0  0  0  0  0  0
   50.6920   33.1470   42.1140 C   0  0  0  0  0  0  0  0  0  0  0  0
   51.3260   31.8390   41.7610 C   0  0  0  0  0  0  0  0  0  0  0  0
   50.5200   30.7400   42.4100 C   0  0  0  0  0  0  0  0  0  0  0  0
   49.0440   31.0420   42.3690 C   0  0  0  0  0  0  0  0  0  0  0  0
   48.7770   32.0360   41.2580 C   0  0  2  0  0  0  0  0  0  0  0  0
   47.2280   34.6190   41.9970 C   0  0  1  0  0  0  0  0  0  0  0  0
   48.3440   35.5480   41.7500 C   0  0  0  0  0  0  0  0  0  0  0  0
   48.6340   34.1970   42.2940 C   0  0  2  0  0  0  0  0  0  0  0  0
   45.5120   36.0410   43.1660 C   0  0  0  0  0  0  0  0  0  0  0  0
   46.3050   34.8730   43.1430 C   0  0  0  0  0  0  0  0  0  0  0  0
   46.1980   33.9670   44.2120 C   0  0  0  0  0  0  0  0  0  0  0  0
   45.3330   34.2650   45.2180 N   0  0  0  0  0  0  0  0  0  0  0  0
   44.5830   35.4010   45.2100 C   0  0  0  0  0  0  0  0  0  0  0  0
   44.6670   36.2980   44.1830 N   0  0  0  0  0  0  0  0  0  0  0  0
   48.9910   31.4660   39.9200 C   0  0  0  0  0  0  0  0  0  0  0  0
   49.1180   32.4300   38.9120 C   0  0  0  0  0  0  0  0  0  0  0  0
   49.3230   31.9620   37.6100 C   0  0  0  0  0  0  0  0  0  0  0  0
   49.4060   30.6500   37.2750 N   0  0  0  0  0  0  0  0  0  0  0  0
   49.2730   29.7860   38.3000 C   0  0  0  0  0  0  0  0  0  0  0  0
   49.0730   30.1510   39.5800 N   0  0  0  0  0  0  0  0  0  0  0  0
   51.3608   33.9613   41.7983 H   0  0  0  0  0  0  0  0  0  0  0  0
   50.5298   33.1605   43.2019 H   0  0  0  0  0  0  0  0  0  0  0  0
   51.3261   31.7068   40.6690 H   0  0  0  0  0  0  0  0  0  0  0  0
   52.3667   31.8105   42.1161 H   0  0  0  0  0  0  0  0  0  0  0  0
   50.7071   29.7964   41.8765 H   0  0  0  0  0  0  0  0  0  0  0  0
   50.8278   30.6611   43.4631 H   0  0  0  0  0  0  0  0  0  0  0  0
   48.4827   30.1154   42.1781 H   0  0  0  0  0  0  0  0  0  0  0  0
   48.7234   31.4651   43.3324 H   0  0  0  0  0  0  0  0  0  0  0  0
   47.6997   32.2530   41.3069 H   0  0  0  0  0  0  0  0  0  0  0  0
   46.4034   34.2221   41.3867 H   0  0  0  0  0  0  0  0  0  0  0  0
   48.6318   35.7961   40.7177 H   0  0  0  0  0  0  0  0  0  0  0  0
   48.5789   36.5751   42.0659 H   0  0  0  0  0  0  0  0  0  0  0  0
   49.0997   33.7483   43.1838 H   0  0  0  0  0  0  0  0  0  0  0  0
   45.5859   36.7573   42.3345 H   0  0  0  0  0  0  0  0  0  0  0  0
   46.7962   33.0442   44.2343 H   0  0  0  0  0  0  0  0  0  0  0  0
   43.8965   35.6004   46.0460 H   0  0  0  0  0  0  0  0  0  0  0  0
   49.0592   33.5057   39.1341 H   0  0  0  0  0  0  0  0  0  0  0  0
   49.4234   32.7057   36.8058 H   0  0  0  0  0  0  0  0  0  0  0  0
   49.3318   28.7107   38.0760 H   0  0  0  0  0  0  0  0  0  0  0  0
  1  2  1  0
  1  9  1  0
  3  2  1  0
  3  4  1  0
  5  4  1  0
  6  1  1  0
  6  5  1  0
  7  9  1  0
  7 11  1  0
  8  7  1  0
  8  9  1  0
 10 15  2  0
 11 10  1  0
 11 12  2  0
 12 13  1  0
 14 13  2  0
 15 14  1  0
 16  6  1  0
 17 16  2  0
 18 17  1  0
 19 18  2  0
 19 20  1  0
 20 21  2  0
 21 16  1  0
  2 22  1  0
  2 23  1  0
  3 24  1  0
  3 25  1  0
  4 26  1  0
  4 27  1  0
  5 28  1  0
  5 29  1  0
  6 30  1  6
  7 31  1  6
  8 32  1  0
  8 33  1  0
  9 34  1  1
 10 35  1  0
 12 36  1  0
 14 37  1  0
 17 38  1  0
 18 39  1  0
 20 40  1  0
M  ISO  8  22  13  23  13  24  13  25  13  26  13  27  13  28  13  29  13
M  ISO  8  30  13  31  13  32  13  33  13  34  13  35  14  36  14  37  14
M  ISO  3  38  14  39  14  40  14
M  END
>  <minimizedAffinity>  (1) 
-4.89017105

>  <minimizedRMSD>  (1) 
0.517472923

$$$$
