
     RDKit          3D

 35 37  0  0  1  0  0  0  0  0999 V2000
   46.3430   33.9400   41.8410 N   0  0  0  0  0  0  0  0  0  0  0  0
   46.8900   33.2400   42.9800 C   0  0  1  0  0  0  0  0  0  0  0  0
   48.3690   33.2970   43.0550 C   0  0  0  0  0  0  0  0  0  0  0  0
   49.0700   33.2240   41.8440 N   0  0  0  0  0  0  0  0  0  0  0  0
   48.4600   33.6870   40.6870 C   0  0  0  0  0  0  0  0  0  0  0  0
   47.2950   34.6130   41.0170 C   0  0  0  0  0  0  0  0  0  0  0  0
   44.2960   35.0850   41.4150 C   0  0  0  0  0  0  0  0  0  0  0  0
   44.9410   33.8890   41.6600 C   0  0  0  0  0  0  0  0  0  0  0  0
   44.1600   32.7120   41.7130 C   0  0  0  0  0  0  0  0  0  0  0  0
   42.8170   32.8060   41.5230 N   0  0  0  0  0  0  0  0  0  0  0  0
   42.2250   33.9890   41.2870 C   0  0  0  0  0  0  0  0  0  0  0  0
   42.9490   35.1220   41.2320 N   0  0  0  0  0  0  0  0  0  0  0  0
   46.3380   33.8920   44.2240 C   0  0  0  0  0  0  0  0  0  0  0  0
   46.0780   32.9580   45.3330 C   0  0  0  0  0  0  0  0  0  0  0  0
   45.8610   33.2080   46.6680 C   0  0  0  0  0  0  0  0  0  0  0  0
   45.6280   32.2080   47.5610 C   0  0  0  0  0  0  0  0  0  0  0  0
   45.6040   30.9460   47.1570 N   0  0  0  0  0  0  0  0  0  0  0  0
   45.8110   30.6630   45.8630 C   0  0  0  0  0  0  0  0  0  0  0  0
   46.0430   31.6420   44.9700 N   0  0  0  0  0  0  0  0  0  0  0  0
   46.6089   32.1809   42.8842 H   0  0  0  0  0  0  0  0  0  0  0  0
   48.6405   34.2468   43.5390 H   0  0  0  0  0  0  0  0  0  0  0  0
   48.6622   32.3937   43.6100 H   0  0  0  0  0  0  0  0  0  0  0  0
   49.9387   33.7641   41.9646 H   0  0  0  0  0  0  0  0  0  0  0  0
   48.0852   32.8289   40.1098 H   0  0  0  0  0  0  0  0  0  0  0  0
   49.2011   34.2509   40.1015 H   0  0  0  0  0  0  0  0  0  0  0  0
   47.6745   35.4974   41.5497 H   0  0  0  0  0  0  0  0  0  0  0  0
   46.8047   34.9176   40.0806 H   0  0  0  0  0  0  0  0  0  0  0  0
   44.8777   36.0174   41.3674 H   0  0  0  0  0  0  0  0  0  0  0  0
   44.6308   31.7365   41.9047 H   0  0  0  0  0  0  0  0  0  0  0  0
   41.1361   34.0318   41.1371 H   0  0  0  0  0  0  0  0  0  0  0  0
   47.0627   34.6439   44.5695 H   0  0  0  0  0  0  0  0  0  0  0  0
   45.3677   34.3296   43.9464 H   0  0  0  0  0  0  0  0  0  0  0  0
   45.8763   34.2484   47.0248 H   0  0  0  0  0  0  0  0  0  0  0  0
   45.4591   32.4478   48.6212 H   0  0  0  0  0  0  0  0  0  0  0  0
   45.7909   29.6158   45.5268 H   0  0  0  0  0  0  0  0  0  0  0  0
  1  2  1  0
  2  3  1  0
  2 13  1  0
  4  3  1  0
  5  6  1  0
  5  4  1  0
  6  1  1  0
  7  8  2  0
  8  9  1  0
  8  1  1  0
 10  9  2  0
 11 10  1  0
 12 11  2  0
 12  7  1  0
 13 14  1  0
 14 15  2  0
 15 16  1  0
 17 16  2  0
 18 17  1  0
 19 14  1  0
 19 18  2  0
  2 20  1  6
  3 21  1  0
  3 22  1  0
  4 23  1  0
  5 24  1  0
  5 25  1  0
  6 26  1  0
  6 27  1  0
  7 28  1  0
  9 29  1  0
 11 30  1  0
 13 31  1  0
 13 32  1  0
 15 33  1  0
 16 34  1  0
 18 35  1  0
M  ISO  8  20  13  21  13  22  13  23   5  24  13  25  13  26  13  27  13
M  ISO  8  28  14  29  14  30  14  31   8  32   8  33  14  34  14  35  14
M  END
>  <minimizedAffinity>  (1) 
-4.1043396

>  <minimizedRMSD>  (1) 
5.17258501

$$$$
