
     RDKit          3D

 36 39  0  0  0  0  0  0  0  0999 V2000
   45.4480   32.9820   41.1580 Cl  0  0  0  0  0  0  0  0  0  0  0  0
   46.8070   34.0700   41.0940 C   0  0  0  0  0  0  0  0  0  0  0  0
   47.1350   34.8790   42.1280 C   0  0  0  0  0  0  0  0  0  0  0  0
   48.2290   35.6950   41.9620 C   0  0  0  0  0  0  0  0  0  0  0  0
   48.9580   35.7100   40.8300 C   0  0  0  0  0  0  0  0  0  0  0  0
   48.6370   34.8950   39.7740 C   0  0  0  0  0  0  0  0  0  0  0  0
   47.5310   34.0600   39.9240 C   0  0  0  0  0  0  0  0  0  0  0  0
   44.5080   35.6440   44.7580 C   0  0  0  0  0  0  0  0  0  0  0  0
   45.2830   35.7140   43.5920 C   0  0  0  0  0  0  0  0  0  0  0  0
   46.3170   34.8280   43.3290 C   0  0  0  0  0  0  0  0  0  0  0  0
   46.5160   33.8850   44.2960 N   0  0  0  0  0  0  0  0  0  0  0  0
   45.7690   33.8280   45.4070 C   0  0  0  0  0  0  0  0  0  0  0  0
   44.7830   34.6950   45.6290 N   0  0  0  0  0  0  0  0  0  0  0  0
   47.1640   33.1710   38.7960 C   0  0  0  0  0  0  0  0  0  0  0  0
   47.6940   31.8860   38.6370 C   0  0  0  0  0  0  0  0  0  0  0  0
   46.9100   31.2770   37.1230 S   0  0  0  0  0  0  0  0  0  0  0  0
   45.9430   32.9240   36.9230 C   0  0  0  0  0  0  0  0  0  0  0  0
   46.3300   33.4500   37.8280 N   0  0  0  0  0  0  0  0  0  0  0  0
   45.0380   33.2220   35.8710 N   0  0  0  0  0  0  0  0  0  0  0  0
   48.6470   31.1450   39.4490 C   0  0  0  0  0  0  0  0  0  0  0  0
   48.4250   30.2090   40.4370 C   0  0  0  0  0  0  0  0  0  0  0  0
   49.5270   29.6420   41.0700 C   0  0  0  0  0  0  0  0  0  0  0  0
   50.7800   29.9990   40.7260 N   0  0  0  0  0  0  0  0  0  0  0  0
   50.9850   30.9100   39.7650 C   0  0  0  0  0  0  0  0  0  0  0  0
   49.9370   31.4690   39.1410 N   0  0  0  0  0  0  0  0  0  0  0  0
   48.5203   36.3621   42.7867 H   0  0  0  0  0  0  0  0  0  0  0  0
   49.8229   36.3850   40.7508 H   0  0  0  0  0  0  0  0  0  0  0  0
   49.2285   34.9003   38.8466 H   0  0  0  0  0  0  0  0  0  0  0  0
   43.6938   36.3608   44.9403 H   0  0  0  0  0  0  0  0  0  0  0  0
   45.0624   36.5023   42.8571 H   0  0  0  0  0  0  0  0  0  0  0  0
   45.9752   33.0466   46.1532 H   0  0  0  0  0  0  0  0  0  0  0  0
   44.5622   34.1351   35.8441 H   0  0  0  0  0  0  0  0  0  0  0  0
   44.8570   32.5251   35.1345 H   0  0  0  0  0  0  0  0  0  0  0  0
   47.4021   29.9177   40.7178 H   0  0  0  0  0  0  0  0  0  0  0  0
   49.3733   28.8931   41.8609 H   0  0  0  0  0  0  0  0  0  0  0  0
   52.0097   31.1988   39.4884 H   0  0  0  0  0  0  0  0  0  0  0  0
  2  1  1  0
  2  3  2  0
  3 10  1  0
  4  3  1  0
  5  4  2  0
  6  7  2  0
  6  5  1  0
  7  2  1  0
  8 13  2  0
  9  8  1  0
 10  9  2  0
 10 11  1  0
 11 12  2  0
 12 13  1  0
 14  7  1  0
 15 14  2  0
 15 20  1  0
 16 15  1  0
 17 16  1  0
 17 18  2  0
 18 14  1  0
 19 17  1  0
 20 21  2  0
 21 22  1  0
 23 22  2  0
 24 23  1  0
 25 20  1  0
 25 24  2  0
  4 26  1  0
  5 27  1  0
  6 28  1  0
  8 29  1  0
  9 30  1  0
 12 31  1  0
 19 32  1  0
 19 33  1  0
 21 34  1  0
 22 35  1  0
 24 36  1  0
M  ISO  8  26  14  27  14  28  14  29  14  30  14  31  14  34  14  35  14
M  ISO  1  36  14
M  END
>  <minimizedAffinity>  (1) 
-6.04117346

>  <minimizedRMSD>  (1) 
1.29480505

$$$$
