
     RDKit          3D

 41 44  0  0  1  0  0  0  0  0999 V2000
   39.7160   34.6180   40.2260 C   0  0  0  0  0  0  0  0  0  0  0  0
   40.8560   34.1980   40.9230 C   0  0  0  0  0  0  0  0  0  0  0  0
   40.9040   32.9570   41.5220 C   0  0  0  0  0  0  0  0  0  0  0  0
   39.8240   32.1000   41.4430 C   0  0  0  0  0  0  0  0  0  0  0  0
   38.6950   32.5090   40.7540 C   0  0  0  0  0  0  0  0  0  0  0  0
   38.6180   33.7340   40.1510 C   0  0  0  0  0  0  0  0  0  0  0  0
   37.7850   31.4430   40.8450 O   0  0  0  0  0  0  0  0  0  0  0  0
   38.2320   30.5490   41.7870 C   0  0  2  0  0  0  0  0  0  0  0  0
   39.6090   30.8140   41.9470 O   0  0  0  0  0  0  0  0  0  0  0  0
   38.1190   29.1160   41.3480 C   0  0  0  0  0  0  0  0  0  0  0  0
   37.1180   28.7410   40.4750 C   0  0  0  0  0  0  0  0  0  0  0  0
   37.0020   27.4100   40.0590 C   0  0  0  0  0  0  0  0  0  0  0  0
   37.8860   26.5110   40.5300 N   0  0  0  0  0  0  0  0  0  0  0  0
   38.8570   26.8730   41.3770 C   0  0  0  0  0  0  0  0  0  0  0  0
   38.9800   28.1630   41.7880 N   0  0  0  0  0  0  0  0  0  0  0  0
   42.1670   35.4120   40.9080 S   0  0  0  0  0  0  0  0  0  0  0  0
   43.7530   34.5970   40.5180 C   0  0  0  0  0  0  0  0  0  0  0  0
   43.7460   33.7680   39.4560 C   0  0  0  0  0  0  0  0  0  0  0  0
   44.9600   33.1390   39.1850 C   0  0  0  0  0  0  0  0  0  0  0  0
   46.0500   33.3590   39.9380 N   0  0  0  0  0  0  0  0  0  0  0  0
   46.0120   34.1980   40.9900 C   0  0  0  0  0  0  0  0  0  0  0  0
   44.8490   34.7960   41.2470 N   0  0  0  0  0  0  0  0  0  0  0  0
   45.0630   32.2130   38.0830 N   0  0  0  0  0  0  0  0  0  0  0  0
   42.7180   33.3610   38.4480 C   0  0  0  0  0  0  0  0  0  0  0  0
   47.0740   34.4880   41.8170 O   0  0  0  0  0  0  0  0  0  0  0  0
   48.2840   34.9060   41.2080 C   0  0  0  0  0  0  0  0  0  0  0  0
   49.2850   34.0030   41.3970 F   0  0  0  0  0  0  0  0  0  0  0  0
   48.0060   35.0860   39.8410 F   0  0  0  0  0  0  0  0  0  0  0  0
   48.6670   36.1040   41.7890 F   0  0  0  0  0  0  0  0  0  0  0  0
   39.6774   35.6091   39.7503 H   0  0  0  0  0  0  0  0  0  0  0  0
   41.8084   32.6476   42.0663 H   0  0  0  0  0  0  0  0  0  0  0  0
   37.7062   34.0287   39.6109 H   0  0  0  0  0  0  0  0  0  0  0  0
   37.6265   30.6698   42.6974 H   0  0  0  0  0  0  0  0  0  0  0  0
   36.4066   29.4934   40.1037 H   0  0  0  0  0  0  0  0  0  0  0  0
   36.2065   27.1054   39.3630 H   0  0  0  0  0  0  0  0  0  0  0  0
   39.5652   26.1164   41.7456 H   0  0  0  0  0  0  0  0  0  0  0  0
   45.9602   31.7483   37.8829 H   0  0  0  0  0  0  0  0  0  0  0  0
   44.2393   32.0168   37.4965 H   0  0  0  0  0  0  0  0  0  0  0  0
   41.8164   33.0041   38.9674 H   0  0  0  0  0  0  0  0  0  0  0  0
   42.4603   34.2249   37.8178 H   0  0  0  0  0  0  0  0  0  0  0  0
   43.1215   32.5548   37.8178 H   0  0  0  0  0  0  0  0  0  0  0  0
  1  2  2  0
  2  3  1  0
  4  3  2  0
  4  9  1  0
  5  7  1  0
  5  4  1  0
  6  1  1  0
  6  5  2  0
  7  8  1  0
  8  9  1  0
 10  8  1  0
 10 15  1  0
 11 10  2  0
 12 11  1  0
 12 13  2  0
 13 14  1  0
 14 15  2  0
 16  2  1  0
 17 16  1  0
 17 22  1  0
 18 17  2  0
 19 18  1  0
 19 20  2  0
 20 21  1  0
 21 22  2  0
 21 25  1  0
 23 19  1  0
 24 18  1  0
 26 27  1  0
 26 29  1  0
 26 25  1  0
 28 26  1  0
  1 30  1  0
  3 31  1  0
  6 32  1  0
  8 33  1  1
 11 34  1  0
 12 35  1  0
 14 36  1  0
 23 37  1  0
 23 38  1  0
 24 39  1  0
 24 40  1  0
 24 41  1  0
M  ISO  8  30  14  31  14  32  14  33  13  34  14  35  14  36  14  39   8
M  ISO  2  40   8  41   8
M  END
>  <minimizedAffinity>  (1) 
-6.17417812

>  <minimizedRMSD>  (1) 
0.0596859008

$$$$
