
     RDKit          3D

 35 37  0  0  1  0  0  0  0  0999 V2000
   48.0590   33.4930   42.5130 C   0  0  1  0  0  0  0  0  0  0  0  0
   46.5900   33.7410   42.2610 C   0  0  2  0  0  0  0  0  0  0  0  0
   46.3880   34.6710   41.2610 O   0  0  0  0  0  0  0  0  0  0  0  0
   46.7590   34.0550   40.0760 C   0  0  0  0  0  0  0  0  0  0  0  0
   48.2640   33.9600   40.0460 C   0  0  2  0  0  0  0  0  0  0  0  0
   48.8760   33.3840   41.2720 C   0  0  2  0  0  0  0  0  0  0  0  0
   44.5450   35.7940   44.7060 C   0  0  0  0  0  0  0  0  0  0  0  0
   45.1500   35.3860   43.5070 C   0  0  0  0  0  0  0  0  0  0  0  0
   45.9280   34.1920   43.4940 C   0  0  0  0  0  0  0  0  0  0  0  0
   46.0390   33.5120   44.6560 N   0  0  0  0  0  0  0  0  0  0  0  0
   45.4450   33.9280   45.7990 C   0  0  0  0  0  0  0  0  0  0  0  0
   44.7010   35.0640   45.8250 N   0  0  0  0  0  0  0  0  0  0  0  0
   48.5970   34.4080   43.4290 O   0  0  0  0  0  0  0  0  0  0  0  0
   48.7150   35.2650   39.8160 O   0  0  0  0  0  0  0  0  0  0  0  0
   49.3270   32.0590   41.0680 O   0  0  0  0  0  0  0  0  0  0  0  0
   50.5030   31.7680   40.3820 C   0  0  0  0  0  0  0  0  0  0  0  0
   51.7460   31.6620   40.9720 C   0  0  0  0  0  0  0  0  0  0  0  0
   52.8400   31.3670   40.1790 C   0  0  0  0  0  0  0  0  0  0  0  0
   52.7280   31.1810   38.8390 N   0  0  0  0  0  0  0  0  0  0  0  0
   51.5010   31.2930   38.2970 C   0  0  0  0  0  0  0  0  0  0  0  0
   50.4220   31.5770   39.0330 N   0  0  0  0  0  0  0  0  0  0  0  0
   48.1127   32.4971   42.9770 H   0  0  0  0  0  0  0  0  0  0  0  0
   46.1511   32.7873   41.9327 H   0  0  0  0  0  0  0  0  0  0  0  0
   46.3211   33.0471   40.0272 H   0  0  0  0  0  0  0  0  0  0  0  0
   46.3976   34.6371   39.2155 H   0  0  0  0  0  0  0  0  0  0  0  0
   48.5696   33.2560   39.2579 H   0  0  0  0  0  0  0  0  0  0  0  0
   49.7467   34.0304   41.4567 H   0  0  0  0  0  0  0  0  0  0  0  0
   43.9415   36.7134   44.7307 H   0  0  0  0  0  0  0  0  0  0  0  0
   45.0253   35.9799   42.5896 H   0  0  0  0  0  0  0  0  0  0  0  0
   45.5665   33.3379   46.7194 H   0  0  0  0  0  0  0  0  0  0  0  0
   48.4145   34.0977   44.3512 H   0  0  0  0  0  0  0  0  0  0  0  0
   48.8714   35.7176   40.6825 H   0  0  0  0  0  0  0  0  0  0  0  0
   51.8648   31.8098   42.0555 H   0  0  0  0  0  0  0  0  0  0  0  0
   53.8310   31.2805   40.6484 H   0  0  0  0  0  0  0  0  0  0  0  0
   51.3824   31.1461   37.2133 H   0  0  0  0  0  0  0  0  0  0  0  0
  1 13  1  0
  2  1  1  0
  2  9  1  0
  3  2  1  0
  4  3  1  0
  5  4  1  0
  5  6  1  0
  6  1  1  0
  7 12  2  0
  8  7  1  0
  9  8  2  0
  9 10  1  0
 10 11  2  0
 11 12  1  0
 14  5  1  0
 15  6  1  0
 16 17  2  0
 16 15  1  0
 18 17  1  0
 19 18  2  0
 20 19  1  0
 20 21  2  0
 21 16  1  0
  1 22  1  1
  2 23  1  6
  4 24  1  0
  4 25  1  0
  5 26  1  6
  6 27  1  1
  7 28  1  0
  8 29  1  0
 11 30  1  0
 13 31  1  0
 14 32  1  0
 17 33  1  0
 18 34  1  0
 20 35  1  0
M  ISO  8  22  13  23  13  24  13  25  13  26  13  27  13  28  14  29  14
M  ISO  6  30  14  31   3  32   3  33  14  34  14  35  14
M  END
>  <minimizedAffinity>  (1) 
-5.71259117

>  <minimizedRMSD>  (1) 
1.01322246

$$$$
