
     RDKit          3D

 43 46  0  0  0  0  0  0  0  0999 V2000
   47.8670   33.6940   42.8710 C   0  0  0  0  0  0  0  0  0  0  0  0
   48.6010   34.8930   42.6820 C   0  0  0  0  0  0  0  0  0  0  0  0
   49.9740   34.8340   42.3700 C   0  0  0  0  0  0  0  0  0  0  0  0
   50.5150   33.5750   42.2700 N   0  0  0  0  0  0  0  0  0  0  0  0
   49.7560   32.4380   42.4650 C   0  0  0  0  0  0  0  0  0  0  0  0
   48.4760   32.5250   42.7540 N   0  0  0  0  0  0  0  0  0  0  0  0
   46.4450   33.9020   43.1970 C   0  0  0  0  0  0  0  0  0  0  0  0
   45.7910   34.9450   42.4280 C   0  0  0  0  0  0  0  0  0  0  0  0
   45.3850   36.1320   43.2060 C   0  0  0  0  0  0  0  0  0  0  0  0
   44.5140   35.7500   44.4030 C   0  0  0  0  0  0  0  0  0  0  0  0
   44.9790   34.5300   45.1260 C   0  0  0  0  0  0  0  0  0  0  0  0
   46.3990   34.1560   44.7270 C   0  0  0  0  0  0  0  0  0  0  0  0
   50.5140   31.2030   42.3220 C   0  0  0  0  0  0  0  0  0  0  0  0
   50.5590   30.6140   41.1070 N   0  0  0  0  0  0  0  0  0  0  0  0
   51.3170   29.4920   41.2110 C   0  0  0  0  0  0  0  0  0  0  0  0
   51.7350   29.4000   42.5030 N   0  0  0  0  0  0  0  0  0  0  0  0
   51.2480   30.4410   43.1830 N   0  0  0  0  0  0  0  0  0  0  0  0
   52.5740   28.3540   43.0670 C   0  0  0  0  0  0  0  0  0  0  0  0
   53.9020   28.9740   43.3140 C   0  0  0  0  0  0  0  0  0  0  0  0
   54.3110   29.2570   44.5890 C   0  0  0  0  0  0  0  0  0  0  0  0
   55.5120   29.8280   44.9380 C   0  0  0  0  0  0  0  0  0  0  0  0
   56.3570   30.1310   43.9330 N   0  0  0  0  0  0  0  0  0  0  0  0
   55.9840   29.8630   42.6600 C   0  0  0  0  0  0  0  0  0  0  0  0
   54.8040   29.3070   42.3520 N   0  0  0  0  0  0  0  0  0  0  0  0
   48.0994   35.8672   42.7788 H   0  0  0  0  0  0  0  0  0  0  0  0
   50.5764   35.7414   42.2158 H   0  0  0  0  0  0  0  0  0  0  0  0
   45.8630   33.0122   42.9148 H   0  0  0  0  0  0  0  0  0  0  0  0
   46.4847   35.2741   41.6403 H   0  0  0  0  0  0  0  0  0  0  0  0
   44.8635   34.5023   42.0360 H   0  0  0  0  0  0  0  0  0  0  0  0
   46.2870   36.6455   43.5704 H   0  0  0  0  0  0  0  0  0  0  0  0
   44.7969   36.7893   42.5487 H   0  0  0  0  0  0  0  0  0  0  0  0
   44.5105   36.5917   45.1112 H   0  0  0  0  0  0  0  0  0  0  0  0
   43.5120   35.5245   44.0090 H   0  0  0  0  0  0  0  0  0  0  0  0
   44.9504   34.7228   46.2086 H   0  0  0  0  0  0  0  0  0  0  0  0
   44.3135   33.6954   44.8606 H   0  0  0  0  0  0  0  0  0  0  0  0
   46.7039   33.2441   45.2613 H   0  0  0  0  0  0  0  0  0  0  0  0
   47.0856   34.9748   44.9880 H   0  0  0  0  0  0  0  0  0  0  0  0
   51.5504   28.7868   40.3997 H   0  0  0  0  0  0  0  0  0  0  0  0
   52.1433   27.9872   44.0104 H   0  0  0  0  0  0  0  0  0  0  0  0
   52.6541   27.4941   42.3857 H   0  0  0  0  0  0  0  0  0  0  0  0
   53.6184   29.0057   45.4058 H   0  0  0  0  0  0  0  0  0  0  0  0
   55.7709   30.0281   45.9882 H   0  0  0  0  0  0  0  0  0  0  0  0
   56.6783   30.1119   41.8439 H   0  0  0  0  0  0  0  0  0  0  0  0
  1  7  1  0
  2  1  2  0
  3  2  1  0
  4  3  2  0
  4  5  1  0
  5  6  2  0
  6  1  1  0
  7 12  1  0
  8  7  1  0
  8  9  1  0
  9 10  1  0
 10 11  1  0
 12 11  1  0
 13  5  1  0
 13 17  2  0
 14 15  2  0
 14 13  1  0
 15 16  1  0
 16 18  1  0
 16 17  1  0
 18 19  1  0
 19 20  2  0
 20 21  1  0
 22 21  2  0
 23 22  1  0
 24 23  2  0
 24 19  1  0
  2 25  1  0
  3 26  1  0
  7 27  1  0
  8 28  1  0
  8 29  1  0
  9 30  1  0
  9 31  1  0
 10 32  1  0
 10 33  1  0
 11 34  1  0
 11 35  1  0
 12 36  1  0
 12 37  1  0
 15 38  1  0
 18 39  1  0
 18 40  1  0
 20 41  1  0
 21 42  1  0
 23 43  1  0
M  ISO  8  25  14  26  14  27  13  28  13  29  13  30  13  31  13  32  13
M  ISO  8  33  13  34  13  35  13  36  13  37  13  38  14  39   8  40   8
M  ISO  3  41  14  42  14  43  14
M  END
>  <minimizedAffinity>  (1) 
-4.48322678

>  <minimizedRMSD>  (1) 
1.49030697

$$$$
