
     RDKit          3D

 20 21  0  0  0  0  0  0  0  0999 V2000
   44.6000   36.0590   44.3980 C   0  0  0  0  0  0  0  0  0  0  0  0
   45.4410   35.7260   43.3260 C   0  0  0  0  0  0  0  0  0  0  0  0
   46.2350   34.5950   43.4870 C   0  0  0  0  0  0  0  0  0  0  0  0
   46.1710   33.8760   44.6360 N   0  0  0  0  0  0  0  0  0  0  0  0
   45.3350   34.2460   45.6420 C   0  0  0  0  0  0  0  0  0  0  0  0
   44.5530   35.3390   45.5130 N   0  0  0  0  0  0  0  0  0  0  0  0
   45.2410   33.5200   46.8550 N   0  0  0  0  0  0  0  0  0  0  0  0
   47.1240   34.2190   42.3910 C   0  0  0  0  0  0  0  0  0  0  0  0
   48.3540   33.6480   42.6440 C   0  0  0  0  0  0  0  0  0  0  0  0
   49.0860   33.3450   41.5390 C   0  0  0  0  0  0  0  0  0  0  0  0
   48.6740   33.5720   40.2770 N   0  0  0  0  0  0  0  0  0  0  0  0
   47.4530   34.1380   40.0610 C   0  0  0  0  0  0  0  0  0  0  0  0
   46.6860   34.4570   41.1390 N   0  0  0  0  0  0  0  0  0  0  0  0
   43.9570   36.9474   44.3122 H   0  0  0  0  0  0  0  0  0  0  0  0
   45.4712   36.3279   42.4058 H   0  0  0  0  0  0  0  0  0  0  0  0
   44.5950   33.8329   47.5937 H   0  0  0  0  0  0  0  0  0  0  0  0
   45.8187   32.6793   46.9981 H   0  0  0  0  0  0  0  0  0  0  0  0
   48.7158   33.4523   43.6642 H   0  0  0  0  0  0  0  0  0  0  0  0
   50.0752   32.8864   41.6847 H   0  0  0  0  0  0  0  0  0  0  0  0
   47.0958   34.3325   39.0389 H   0  0  0  0  0  0  0  0  0  0  0  0
  1  6  2  0
  2  3  2  0
  2  1  1  0
  3  4  1  0
  4  5  2  0
  5  7  1  0
  6  5  1  0
  8  9  2  0
  8  3  1  0
 10  9  1  0
 11 10  2  0
 12 11  1  0
 12 13  2  0
 13  8  1  0
  1 14  1  0
  2 15  1  0
  7 16  1  0
  7 17  1  0
  9 18  1  0
 10 19  1  0
 12 20  1  0
M  ISO  5  14  14  15  14  18  14  19  14  20  14
M  END
>  <minimizedAffinity>  (1) 
-4.67435265

>  <minimizedRMSD>  (1) 
0.493164539

$$$$
