
     RDKit          3D

 43 45  0  0  0  0  0  0  0  0999 V2000
   48.5520   31.2160   48.6730 C   0  0  0  0  0  0  0  0  0  0  0  0
   47.5220   32.0270   48.7650 C   0  0  0  0  0  0  0  0  0  0  0  0
   51.1480   31.9800   51.1300 C   0  0  0  0  0  0  0  0  0  0  0  0
   51.2840   30.7410   51.8230 C   0  0  0  0  0  0  0  0  0  0  0  0
   50.4850   29.6840   51.4230 C   0  0  0  0  0  0  0  0  0  0  0  0
   49.6410   29.9010   50.4130 N   0  0  0  0  0  0  0  0  0  0  0  0
   49.5100   31.0520   49.7640 C   0  0  0  0  0  0  0  0  0  0  0  0
   50.2700   32.1120   50.1210 N   0  0  0  0  0  0  0  0  0  0  0  0
   52.2720   31.0000   52.8540 C   0  0  0  0  0  0  0  0  0  0  0  0
   53.5680   31.4350   52.7990 C   0  0  0  0  0  0  0  0  0  0  0  0
   54.4200   31.7070   53.8390 C   0  0  0  0  0  0  0  0  0  0  0  0
   53.8600   31.5070   55.0420 N   0  0  0  0  0  0  0  0  0  0  0  0
   52.5960   31.0830   55.1870 C   0  0  0  0  0  0  0  0  0  0  0  0
   51.8140   30.8330   54.1330 N   0  0  0  0  0  0  0  0  0  0  0  0
   50.5550   28.4780   52.0350 O   0  0  0  0  0  0  0  0  0  0  0  0
   51.5520   27.5620   51.6010 C   0  0  0  0  0  0  0  0  0  0  0  0
   52.0420   27.9800   50.3580 F   0  0  0  0  0  0  0  0  0  0  0  0
   52.5910   27.6630   52.5250 F   0  0  0  0  0  0  0  0  0  0  0  0
   51.1330   26.2360   51.5620 F   0  0  0  0  0  0  0  0  0  0  0  0
   46.5720   32.1610   47.6280 C   0  0  0  0  0  0  0  0  0  0  0  0
   46.5650   32.7810   45.3730 C   0  0  0  0  0  0  0  0  0  0  0  0
   45.8440   31.8780   44.8860 O   0  0  0  0  0  0  0  0  0  0  0  0
   47.0000   33.0800   46.6600 N   0  0  0  0  0  0  0  0  0  0  0  0
   44.8640   35.1430   44.4580 Cl  0  0  0  0  0  0  0  0  0  0  0  0
   46.2590   34.6140   43.5770 C   0  0  0  0  0  0  0  0  0  0  0  0
   46.8840   33.5380   44.1560 C   0  0  0  0  0  0  0  0  0  0  0  0
   48.0310   32.9840   43.5670 C   0  0  0  0  0  0  0  0  0  0  0  0
   48.5430   33.5220   42.3900 C   0  0  0  0  0  0  0  0  0  0  0  0
   47.9030   34.6020   41.8220 C   0  0  0  0  0  0  0  0  0  0  0  0
   48.4810   35.3320   40.3470 Cl  0  0  0  0  0  0  0  0  0  0  0  0
   46.7870   35.1240   42.4160 C   0  0  0  0  0  0  0  0  0  0  0  0
   48.6975   30.6427   47.7456 H   0  0  0  0  0  0  0  0  0  0  0  0
   47.3619   32.6082   49.6851 H   0  0  0  0  0  0  0  0  0  0  0  0
   51.7695   32.8384   51.4250 H   0  0  0  0  0  0  0  0  0  0  0  0
   53.9800   31.5862   51.7903 H   0  0  0  0  0  0  0  0  0  0  0  0
   55.4550   32.0532   53.7012 H   0  0  0  0  0  0  0  0  0  0  0  0
   52.1926   30.9373   56.2000 H   0  0  0  0  0  0  0  0  0  0  0  0
   46.4569   31.1770   47.1500 H   0  0  0  0  0  0  0  0  0  0  0  0
   45.6212   32.5337   48.0368 H   0  0  0  0  0  0  0  0  0  0  0  0
   47.5824   33.9003   46.8811 H   0  0  0  0  0  0  0  0  0  0  0  0
   48.5269   32.1219   44.0370 H   0  0  0  0  0  0  0  0  0  0  0  0
   49.4415   33.0932   41.9221 H   0  0  0  0  0  0  0  0  0  0  0  0
   46.2926   35.9865   41.9452 H   0  0  0  0  0  0  0  0  0  0  0  0
  1  2  2  0
  1  7  1  0
  3  4  2  0
  4  9  1  0
  5  4  1  0
  5 15  1  0
  6  5  2  0
  7  8  2  0
  7  6  1  0
  8  3  1  0
  9 14  1  0
 10  9  2  0
 10 11  1  0
 11 12  2  0
 12 13  1  0
 14 13  2  0
 16 15  1  0
 16 18  1  0
 17 16  1  0
 19 16  1  0
 20  2  1  0
 21 23  1  0
 22 21  2  0
 23 20  1  0
 25 26  2  0
 25 24  1  0
 26 21  1  0
 27 26  1  0
 28 27  2  0
 29 28  1  0
 29 31  2  0
 30 29  1  0
 31 25  1  0
  1 32  1  0
  2 33  1  0
  3 34  1  0
 10 35  1  0
 11 36  1  0
 13 37  1  0
 20 38  1  0
 20 39  1  0
 23 40  1  0
 27 41  1  0
 28 42  1  0
 31 43  1  0
M  ISO  8  34  14  35  14  36  14  37  14  38   8  39   8  41  14  42  14
M  ISO  1  43  14
M  END
>  <minimizedAffinity>  (1) 
-7.12581253

>  <minimizedRMSD>  (1) 
0.503337085

$$$$
