
     RDKit          3D

 20 21  0  0  0  0  0  0  0  0999 V2000
   44.4750   35.6880   44.9630 C   0  0  0  0  0  0  0  0  0  0  0  0
   45.1030   35.6560   43.7180 C   0  0  0  0  0  0  0  0  0  0  0  0
   46.0460   34.6640   43.5160 C   0  0  0  0  0  0  0  0  0  0  0  0
   46.3140   33.7880   44.5090 N   0  0  0  0  0  0  0  0  0  0  0  0
   45.6840   33.8470   45.7130 C   0  0  0  0  0  0  0  0  0  0  0  0
   44.7530   34.8140   45.9310 N   0  0  0  0  0  0  0  0  0  0  0  0
   46.7180   34.6070   42.2210 C   0  0  0  0  0  0  0  0  0  0  0  0
   47.9580   35.1770   42.0270 C   0  0  0  0  0  0  0  0  0  0  0  0
   48.4750   35.0450   40.7440 C   0  0  0  0  0  0  0  0  0  0  0  0
   47.8320   34.4100   39.7410 N   0  0  0  0  0  0  0  0  0  0  0  0
   46.6240   33.8690   39.9790 C   0  0  0  0  0  0  0  0  0  0  0  0
   46.0750   33.9730   41.2230 N   0  0  0  0  0  0  0  0  0  0  0  0
   44.7380   36.6290   42.7510 N   0  0  0  0  0  0  0  0  0  0  0  0
   43.7203   36.4652   45.1540 H   0  0  0  0  0  0  0  0  0  0  0  0
   45.9251   33.1199   46.5024 H   0  0  0  0  0  0  0  0  0  0  0  0
   48.4992   35.6988   42.8300 H   0  0  0  0  0  0  0  0  0  0  0  0
   49.4624   35.4819   40.5340 H   0  0  0  0  0  0  0  0  0  0  0  0
   46.0829   33.3466   39.1763 H   0  0  0  0  0  0  0  0  0  0  0  0
   45.1867   36.6273   41.8239 H   0  0  0  0  0  0  0  0  0  0  0  0
   44.0244   37.3367   42.9765 H   0  0  0  0  0  0  0  0  0  0  0  0
  1  6  2  0
  2  1  1  0
  3  2  2  0
  3  4  1  0
  4  5  2  0
  5  6  1  0
  7  3  1  0
  8  7  2  0
  9  8  1  0
 10 11  1  0
 10  9  2  0
 11 12  2  0
 12  7  1  0
 13  2  1  0
  1 14  1  0
  5 15  1  0
  8 16  1  0
  9 17  1  0
 11 18  1  0
 13 19  1  0
 13 20  1  0
M  ISO  5  14  14  15  14  16  14  17  14  18  14
M  END
>  <minimizedAffinity>  (1) 
-4.62320375

>  <minimizedRMSD>  (1) 
1.83416641

$$$$
