
     RDKit          3D

 24 25  0  0  0  0  0  0  0  0999 V2000
   46.2940   35.0710   41.7610 C   0  0  0  0  0  0  0  0  0  0  0  0
   44.4740   35.9430   44.9340 C   0  0  0  0  0  0  0  0  0  0  0  0
   44.9540   36.0210   43.6070 C   0  0  0  0  0  0  0  0  0  0  0  0
   45.7850   35.0000   43.1450 C   0  0  0  0  0  0  0  0  0  0  0  0
   46.0750   33.9990   44.0080 N   0  0  0  0  0  0  0  0  0  0  0  0
   45.6010   33.9510   45.2730 C   0  0  0  0  0  0  0  0  0  0  0  0
   44.8050   34.9200   45.7290 N   0  0  0  0  0  0  0  0  0  0  0  0
   47.7910   34.9160   41.7740 C   0  0  0  0  0  0  0  0  0  0  0  0
   48.2610   34.0510   40.6700 C   0  0  0  0  0  0  0  0  0  0  0  0
   49.0300   32.9420   40.9440 C   0  0  0  0  0  0  0  0  0  0  0  0
   49.5460   32.0360   40.0380 C   0  0  0  0  0  0  0  0  0  0  0  0
   49.2360   32.3070   38.7380 N   0  0  0  0  0  0  0  0  0  0  0  0
   48.4880   33.3780   38.4270 C   0  0  0  0  0  0  0  0  0  0  0  0
   47.9990   34.2470   39.3580 N   0  0  0  0  0  0  0  0  0  0  0  0
   46.0289   36.0438   41.3213 H   0  0  0  0  0  0  0  0  0  0  0  0
   45.8450   34.2657   41.1611 H   0  0  0  0  0  0  0  0  0  0  0  0
   43.8173   36.7369   45.3192 H   0  0  0  0  0  0  0  0  0  0  0  0
   44.6797   36.8641   42.9559 H   0  0  0  0  0  0  0  0  0  0  0  0
   45.8723   33.1104   45.9286 H   0  0  0  0  0  0  0  0  0  0  0  0
   48.2531   35.9088   41.6705 H   0  0  0  0  0  0  0  0  0  0  0  0
   48.0787   34.4446   42.7253 H   0  0  0  0  0  0  0  0  0  0  0  0
   49.2592   32.7568   42.0038 H   0  0  0  0  0  0  0  0  0  0  0  0
   50.1545   31.1705   40.3392 H   0  0  0  0  0  0  0  0  0  0  0  0
   48.2578   33.5641   37.3676 H   0  0  0  0  0  0  0  0  0  0  0  0
  1  8  1  0
  1  4  1  0
  2  7  2  0
  3  2  1  0
  4  3  2  0
  4  5  1  0
  5  6  2  0
  6  7  1  0
  9 10  2  0
  9  8  1  0
 11 10  1  0
 12 11  2  0
 13 12  1  0
 13 14  2  0
 14  9  1  0
  1 15  1  0
  1 16  1  0
  2 17  1  0
  3 18  1  0
  6 19  1  0
  8 20  1  0
  8 21  1  0
 10 22  1  0
 11 23  1  0
 13 24  1  0
M  ISO  8  15   8  16   8  17  14  18  14  19  14  20   8  21   8  22  14
M  ISO  2  23  14  24  14
M  END
>  <minimizedAffinity>  (1) 
-4.09250927

>  <minimizedRMSD>  (1) 
1.53335392

$$$$
