
     RDKit          3D

 31 34  0  0  0  0  0  0  0  0999 V2000
   47.9850   35.2130   41.9660 C   0  0  0  0  0  0  0  0  0  0  0  0
   46.6990   34.7330   42.0790 C   0  0  0  0  0  0  0  0  0  0  0  0
   46.0380   34.1340   41.0280 C   0  0  0  0  0  0  0  0  0  0  0  0
   46.6610   33.9900   39.7910 C   0  0  0  0  0  0  0  0  0  0  0  0
   46.3420   33.4770   38.5780 N   0  0  0  0  0  0  0  0  0  0  0  0
   47.4010   33.6340   37.7380 C   0  0  0  0  0  0  0  0  0  0  0  0
   48.3750   34.2520   38.4550 N   0  0  0  0  0  0  0  0  0  0  0  0
   47.9490   34.4800   39.7060 C   0  0  0  0  0  0  0  0  0  0  0  0
   48.6460   35.0870   40.7340 C   0  0  0  0  0  0  0  0  0  0  0  0
   44.4930   36.0110   44.7300 C   0  0  0  0  0  0  0  0  0  0  0  0
   44.6720   35.0740   45.7490 C   0  0  0  0  0  0  0  0  0  0  0  0
   45.5530   34.0000   45.5240 C   0  0  0  0  0  0  0  0  0  0  0  0
   46.1850   33.9440   44.3070 N   0  0  0  0  0  0  0  0  0  0  0  0
   45.9970   34.8550   43.3440 C   0  0  0  0  0  0  0  0  0  0  0  0
   45.1530   35.8850   43.5570 N   0  0  0  0  0  0  0  0  0  0  0  0
   44.6750   33.6310   41.1640 C   0  0  0  0  0  0  0  0  0  0  0  0
   44.3110   32.4430   41.7670 C   0  0  0  0  0  0  0  0  0  0  0  0
   42.9650   32.1470   41.7940 C   0  0  0  0  0  0  0  0  0  0  0  0
   42.0370   32.9650   41.2620 N   0  0  0  0  0  0  0  0  0  0  0  0
   42.4110   34.1150   40.6800 C   0  0  0  0  0  0  0  0  0  0  0  0
   43.7320   34.4530   40.6290 N   0  0  0  0  0  0  0  0  0  0  0  0
   48.4844   35.6859   42.8245 H   0  0  0  0  0  0  0  0  0  0  0  0
   45.4430   33.0389   38.3316 H   0  0  0  0  0  0  0  0  0  0  0  0
   47.4572   33.3216   36.6848 H   0  0  0  0  0  0  0  0  0  0  0  0
   49.6730   35.4549   40.5929 H   0  0  0  0  0  0  0  0  0  0  0  0
   43.8092   36.8590   44.8827 H   0  0  0  0  0  0  0  0  0  0  0  0
   44.1371   35.1728   46.7051 H   0  0  0  0  0  0  0  0  0  0  0  0
   45.7285   33.2345   46.2942 H   0  0  0  0  0  0  0  0  0  0  0  0
   45.0591   31.7657   42.2046 H   0  0  0  0  0  0  0  0  0  0  0  0
   42.6373   31.2094   42.2668 H   0  0  0  0  0  0  0  0  0  0  0  0
   41.6539   34.7839   40.2448 H   0  0  0  0  0  0  0  0  0  0  0  0
  1  2  2  0
  2 14  1  0
  3 16  1  0
  3  2  1  0
  4  3  2  0
  5  4  1  0
  6  7  2  0
  6  5  1  0
  7  8  1  0
  8  4  1  0
  8  9  2  0
  9  1  1  0
 10 11  2  0
 12 11  1  0
 13 12  2  0
 14 15  2  0
 14 13  1  0
 15 10  1  0
 16 17  2  0
 17 18  1  0
 19 18  2  0
 20 19  1  0
 21 20  2  0
 21 16  1  0
  1 22  1  0
  5 23  1  0
  6 24  1  0
  9 25  1  0
 10 26  1  0
 11 27  1  0
 12 28  1  0
 17 29  1  0
 18 30  1  0
 20 31  1  0
M  ISO  8  22  14  23   9  24  14  25  14  26  14  27  14  28  14  29  14
M  ISO  2  30  14  31  14
M  END
>  <minimizedAffinity>  (1) 
-6.20263863

>  <minimizedRMSD>  (1) 
6.67181683

$$$$
