
     RDKit          3D

 24 25  0  0  0  0  0  0  0  0999 V2000
   46.5140   33.2210   46.0470 C   0  0  0  0  0  0  0  0  0  0  0  0
   46.3290   32.4300   47.2590 C   0  0  0  0  0  0  0  0  0  0  0  0
   45.1100   32.2390   47.8910 C   0  0  0  0  0  0  0  0  0  0  0  0
   45.1140   31.4270   49.0560 C   0  0  0  0  0  0  0  0  0  0  0  0
   46.3030   30.8920   49.4720 N   0  0  0  0  0  0  0  0  0  0  0  0
   47.4480   31.1170   48.8110 C   0  0  0  0  0  0  0  0  0  0  0  0
   47.4440   31.8820   47.7170 N   0  0  0  0  0  0  0  0  0  0  0  0
   45.3050   34.1220   45.8820 C   0  0  0  0  0  0  0  0  0  0  0  0
   45.1530   34.4030   44.4300 C   0  0  0  0  0  0  0  0  0  0  0  0
   45.5120   33.4920   43.4550 C   0  0  0  0  0  0  0  0  0  0  0  0
   45.3610   33.7750   42.1170 C   0  0  0  0  0  0  0  0  0  0  0  0
   44.8600   34.9510   41.7070 N   0  0  0  0  0  0  0  0  0  0  0  0
   44.5120   35.8360   42.6490 C   0  0  0  0  0  0  0  0  0  0  0  0
   44.6500   35.5780   43.9790 N   0  0  0  0  0  0  0  0  0  0  0  0
   47.4246   33.8317   46.1359 H   0  0  0  0  0  0  0  0  0  0  0  0
   46.6185   32.5605   45.1736 H   0  0  0  0  0  0  0  0  0  0  0  0
   44.1846   32.6943   47.5086 H   0  0  0  0  0  0  0  0  0  0  0  0
   44.1841   31.2328   49.6106 H   0  0  0  0  0  0  0  0  0  0  0  0
   48.3881   30.6723   49.1694 H   0  0  0  0  0  0  0  0  0  0  0  0
   44.4052   33.6169   46.2632 H   0  0  0  0  0  0  0  0  0  0  0  0
   45.4383   35.0569   46.4460 H   0  0  0  0  0  0  0  0  0  0  0  0
   45.9278   32.5189   43.7552 H   0  0  0  0  0  0  0  0  0  0  0  0
   45.6562   33.0239   41.3696 H   0  0  0  0  0  0  0  0  0  0  0  0
   44.0995   36.8070   42.3375 H   0  0  0  0  0  0  0  0  0  0  0  0
  1  2  1  0
  2  7  1  0
  2  3  2  0
  3  4  1  0
  4  5  2  0
  6  5  1  0
  7  6  2  0
  8  1  1  0
  9  8  1  0
 10  9  2  0
 11 10  1  0
 12 11  2  0
 12 13  1  0
 13 14  2  0
 14  9  1  0
  1 15  1  0
  1 16  1  0
  3 17  1  0
  4 18  1  0
  6 19  1  0
  8 20  1  0
  8 21  1  0
 10 22  1  0
 11 23  1  0
 13 24  1  0
M  ISO  8  15   8  16   8  17  14  18  14  19  14  20   8  21   8  22  14
M  ISO  2  23  14  24  14
M  END
>  <minimizedAffinity>  (1) 
-4.02280378

>  <minimizedRMSD>  (1) 
6.41117764

$$$$
