
     RDKit          3D

 21 22  0  0  0  0  0  0  0  0999 V2000
   44.4260   36.0320   44.8510 C   0  0  0  0  0  0  0  0  0  0  0  0
   45.0770   35.9870   43.5860 C   0  0  0  0  0  0  0  0  0  0  0  0
   45.9510   34.9290   43.3540 C   0  0  0  0  0  0  0  0  0  0  0  0
   46.1410   34.0040   44.3250 N   0  0  0  0  0  0  0  0  0  0  0  0
   45.5010   34.0820   45.5180 C   0  0  0  0  0  0  0  0  0  0  0  0
   44.6510   35.0900   45.7770 N   0  0  0  0  0  0  0  0  0  0  0  0
   46.6890   34.7480   42.1090 C   0  0  0  0  0  0  0  0  0  0  0  0
   47.9210   35.3170   41.8740 C   0  0  0  0  0  0  0  0  0  0  0  0
   48.6380   35.1590   40.7030 C   0  0  0  0  0  0  0  0  0  0  0  0
   48.0870   34.3890   39.7190 N   0  0  0  0  0  0  0  0  0  0  0  0
   46.8730   33.8270   39.9480 C   0  0  0  0  0  0  0  0  0  0  0  0
   46.2120   34.0020   41.0860 N   0  0  0  0  0  0  0  0  0  0  0  0
   45.8390   32.9710   46.4550 C   0  0  0  0  0  0  0  0  0  0  0  0
   45.0260   32.9540   47.5460 F   0  0  0  0  0  0  0  0  0  0  0  0
   47.1660   33.0810   46.8670 F   0  0  0  0  0  0  0  0  0  0  0  0
   45.7950   31.7630   45.7510 F   0  0  0  0  0  0  0  0  0  0  0  0
   43.7275   36.8526   45.0718 H   0  0  0  0  0  0  0  0  0  0  0  0
   44.8965   36.7577   42.8222 H   0  0  0  0  0  0  0  0  0  0  0  0
   48.3623   35.9365   42.6687 H   0  0  0  0  0  0  0  0  0  0  0  0
   49.6193   35.6374   40.5682 H   0  0  0  0  0  0  0  0  0  0  0  0
   46.4204   33.2041   39.1624 H   0  0  0  0  0  0  0  0  0  0  0  0
  1  6  2  0
  2  1  1  0
  3  2  2  0
  3  4  1  0
  4  5  2  0
  5  6  1  0
  5 13  1  0
  7  3  1  0
  8  7  2  0
  9  8  1  0
 10 11  1  0
 10  9  2  0
 11 12  2  0
 12  7  1  0
 13 15  1  0
 13 14  1  0
 16 13  1  0
  1 17  1  0
  2 18  1  0
  8 19  1  0
  9 20  1  0
 11 21  1  0
M  ISO  5  17  14  18  14  19  14  20  14  21  14
M  END
>  <minimizedAffinity>  (1) 
-5.38220692

>  <minimizedRMSD>  (1) 
0.485885054

$$$$
