
     RDKit          3D

 37 39  0  0  0  0  0  0  0  0999 V2000
   43.5050   34.9440   40.7500 S   0  0  0  0  0  0  0  0  0  0  0  0
   44.7680   34.6930   41.9910 C   0  0  0  0  0  0  0  0  0  0  0  0
   46.0850   34.5730   41.5300 C   0  0  0  0  0  0  0  0  0  0  0  0
   47.0970   34.3750   42.4640 C   0  0  0  0  0  0  0  0  0  0  0  0
   46.7580   34.3070   43.7910 N   0  0  0  0  0  0  0  0  0  0  0  0
   45.4980   34.4240   44.2010 C   0  0  0  0  0  0  0  0  0  0  0  0
   44.5140   34.6140   43.3150 N   0  0  0  0  0  0  0  0  0  0  0  0
   45.2150   34.3420   45.6210 C   0  0  0  0  0  0  0  0  0  0  0  0
   44.5230   35.2490   46.1510 O   0  0  0  0  0  0  0  0  0  0  0  0
   45.7250   33.2270   46.4130 C   0  0  0  0  0  0  0  0  0  0  0  0
   46.7350   32.4280   45.9210 C   0  0  0  0  0  0  0  0  0  0  0  0
   47.1980   31.3710   46.7060 C   0  0  0  0  0  0  0  0  0  0  0  0
   46.6310   31.1800   47.9150 N   0  0  0  0  0  0  0  0  0  0  0  0
   45.6470   31.9530   48.4000 C   0  0  0  0  0  0  0  0  0  0  0  0
   45.2080   32.9780   47.6220 N   0  0  0  0  0  0  0  0  0  0  0  0
   41.8590   35.0700   41.4570 C   0  0  0  0  0  0  0  0  0  0  0  0
   40.9490   35.9710   40.6900 C   0  0  0  0  0  0  0  0  0  0  0  0
   41.7860   36.2430   37.7710 Cl  0  0  0  0  0  0  0  0  0  0  0  0
   40.4580   35.2820   38.3180 C   0  0  0  0  0  0  0  0  0  0  0  0
   40.1480   35.2210   39.6920 C   0  0  0  0  0  0  0  0  0  0  0  0
   39.0830   34.4410   40.0500 C   0  0  0  0  0  0  0  0  0  0  0  0
   38.2710   33.6990   39.1890 C   0  0  0  0  0  0  0  0  0  0  0  0
   38.5980   33.7780   37.8410 C   0  0  0  0  0  0  0  0  0  0  0  0
   37.6350   32.8790   36.6730 Cl  0  0  0  0  0  0  0  0  0  0  0  0
   39.6610   34.5510   37.4360 C   0  0  0  0  0  0  0  0  0  0  0  0
   46.3137   34.6338   40.4558 H   0  0  0  0  0  0  0  0  0  0  0  0
   48.1451   34.2753   42.1453 H   0  0  0  0  0  0  0  0  0  0  0  0
   47.1679   32.6200   44.9282 H   0  0  0  0  0  0  0  0  0  0  0  0
   48.0030   30.7119   46.3487 H   0  0  0  0  0  0  0  0  0  0  0  0
   45.2110   31.7640   49.3920 H   0  0  0  0  0  0  0  0  0  0  0  0
   41.4132   34.0647   41.4827 H   0  0  0  0  0  0  0  0  0  0  0  0
   41.9708   35.5025   42.4622 H   0  0  0  0  0  0  0  0  0  0  0  0
   40.2659   36.4702   41.3930 H   0  0  0  0  0  0  0  0  0  0  0  0
   41.5667   36.7053   40.1522 H   0  0  0  0  0  0  0  0  0  0  0  0
   38.8420   34.3933   41.1222 H   0  0  0  0  0  0  0  0  0  0  0  0
   37.4289   33.0926   39.5539 H   0  0  0  0  0  0  0  0  0  0  0  0
   39.8949   34.5953   36.3621 H   0  0  0  0  0  0  0  0  0  0  0  0
  1 16  1  0
  1  2  1  0
  2  7  1  0
  3  2  2  0
  3  4  1  0
  4  5  2  0
  5  6  1  0
  6  8  1  0
  7  6  2  0
  8  9  2  0
  8 10  1  0
 10 15  1  0
 11 10  2  0
 11 12  1  0
 12 13  2  0
 13 14  1  0
 15 14  2  0
 17 16  1  0
 18 19  1  0
 19 20  2  0
 20 21  1  0
 20 17  1  0
 22 21  2  0
 23 22  1  0
 24 23  1  0
 25 23  2  0
 25 19  1  0
  3 26  1  0
  4 27  1  0
 11 28  1  0
 12 29  1  0
 14 30  1  0
 16 31  1  0
 16 32  1  0
 17 33  1  0
 17 34  1  0
 21 35  1  0
 22 36  1  0
 25 37  1  0
M  ISO  8  26  14  27  14  28  14  29  14  30  14  31   8  32   8  33   8
M  ISO  4  34   8  35  14  36  14  37  14
M  END
>  <minimizedAffinity>  (1) 
-6.88463163

>  <minimizedRMSD>  (1) 
0.335715652

$$$$
