
     RDKit          3D

 47 51  0  0  0  0  0  0  0  0999 V2000
   47.2690   30.3620   47.8580 C   0  0  0  0  0  0  0  0  0  0  0  0
   46.9670   32.1340   44.7670 C   0  0  0  0  0  0  0  0  0  0  0  0
   47.7320   31.0230   44.3820 C   0  0  0  0  0  0  0  0  0  0  0  0
   47.9310   30.2470   45.4700 C   0  0  0  0  0  0  0  0  0  0  0  0
   47.3110   30.8540   46.4920 N   0  0  0  0  0  0  0  0  0  0  0  0
   46.7310   31.9830   46.0880 N   0  0  0  0  0  0  0  0  0  0  0  0
   45.4780   35.2590   43.5680 C   0  0  0  0  0  0  0  0  0  0  0  0
   45.7390   35.2270   42.1960 C   0  0  0  0  0  0  0  0  0  0  0  0
   46.4300   34.1200   41.7120 C   0  0  0  0  0  0  0  0  0  0  0  0
   46.7940   33.1670   42.5820 N   0  0  0  0  0  0  0  0  0  0  0  0
   46.5450   33.1990   43.8820 C   0  0  0  0  0  0  0  0  0  0  0  0
   45.8800   34.2590   44.3690 N   0  0  0  0  0  0  0  0  0  0  0  0
   46.7820   33.9320   40.3080 C   0  0  0  0  0  0  0  0  0  0  0  0
   47.9430   34.4190   39.7440 C   0  0  0  0  0  0  0  0  0  0  0  0
   48.2860   34.2490   38.4190 C   0  0  0  0  0  0  0  0  0  0  0  0
   47.4530   33.5680   37.6070 N   0  0  0  0  0  0  0  0  0  0  0  0
   46.3020   33.0840   38.1600 C   0  0  0  0  0  0  0  0  0  0  0  0
   45.9750   33.2540   39.4530 N   0  0  0  0  0  0  0  0  0  0  0  0
   45.8630   30.1680   48.2960 C   0  0  0  0  0  0  0  0  0  0  0  0
   45.0950   27.7290   48.1890 C   0  0  0  0  0  0  0  0  0  0  0  0
   45.1430   29.0350   47.7460 C   0  0  0  0  0  0  0  0  0  0  0  0
   44.4070   29.3260   46.6120 C   0  0  0  0  0  0  0  0  0  0  0  0
   43.6630   28.3630   45.9610 C   0  0  0  0  0  0  0  0  0  0  0  0
   42.8700   28.3480   44.8720 N   0  0  0  0  0  0  0  0  0  0  0  0
   42.3640   27.1320   44.6470 C   0  0  0  0  0  0  0  0  0  0  0  0
   42.8360   26.2660   45.6380 C   0  0  0  0  0  0  0  0  0  0  0  0
   43.6200   27.0700   46.4080 C   0  0  0  0  0  0  0  0  0  0  0  0
   44.3560   26.7760   47.5400 C   0  0  0  0  0  0  0  0  0  0  0  0
   44.3570   25.4160   48.0730 C   0  0  0  0  0  0  0  0  0  0  0  0
   45.0150   25.1070   49.1010 O   0  0  0  0  0  0  0  0  0  0  0  0
   47.7577   31.0911   48.5209 H   0  0  0  0  0  0  0  0  0  0  0  0
   47.7938   29.3964   47.9055 H   0  0  0  0  0  0  0  0  0  0  0  0
   48.1059   30.8186   43.3679 H   0  0  0  0  0  0  0  0  0  0  0  0
   48.4922   29.3017   45.5095 H   0  0  0  0  0  0  0  0  0  0  0  0
   44.9362   36.1144   43.9977 H   0  0  0  0  0  0  0  0  0  0  0  0
   45.4135   36.0390   41.5291 H   0  0  0  0  0  0  0  0  0  0  0  0
   48.6371   34.9766   40.3901 H   0  0  0  0  0  0  0  0  0  0  0  0
   49.2275   34.6639   38.0298 H   0  0  0  0  0  0  0  0  0  0  0  0
   45.6070   32.5267   37.5147 H   0  0  0  0  0  0  0  0  0  0  0  0
   45.8709   30.0544   49.3901 H   0  0  0  0  0  0  0  0  0  0  0  0
   45.3266   31.0517   47.9200 H   0  0  0  0  0  0  0  0  0  0  0  0
   45.6649   27.4462   49.0864 H   0  0  0  0  0  0  0  0  0  0  0  0
   44.4148   30.3530   46.2181 H   0  0  0  0  0  0  0  0  0  0  0  0
   42.6775   29.1723   44.2852 H   0  0  0  0  0  0  0  0  0  0  0  0
   41.6901   26.8585   43.8217 H   0  0  0  0  0  0  0  0  0  0  0  0
   42.6249   25.1939   45.7650 H   0  0  0  0  0  0  0  0  0  0  0  0
   43.7669   24.6408   47.5624 H   0  0  0  0  0  0  0  0  0  0  0  0
  1 19  1  0
  2  6  2  0
  3  2  1  0
  3  4  2  0
  4  5  1  0
  5  1  1  0
  6  5  1  0
  7 12  2  0
  8  7  1  0
  9  8  2  0
  9 10  1  0
 10 11  2  0
 11 12  1  0
 11  2  1  0
 13  9  1  0
 14 13  2  0
 15 14  1  0
 16 17  1  0
 16 15  2  0
 17 18  2  0
 18 13  1  0
 21 20  2  0
 21 19  1  0
 22 21  1  0
 23 27  1  0
 23 22  2  0
 24 23  1  0
 25 24  1  0
 25 26  2  0
 26 27  1  0
 27 28  2  0
 28 29  1  0
 28 20  1  0
 29 30  2  0
  1 31  1  0
  1 32  1  0
  3 33  1  0
  4 34  1  0
  7 35  1  0
  8 36  1  0
 14 37  1  0
 15 38  1  0
 17 39  1  0
 19 40  1  0
 19 41  1  0
 20 42  1  0
 22 43  1  0
 24 44  1  0
 25 45  1  0
 26 46  1  0
 29 47  1  0
M  ISO  8  31   8  32   8  33  14  34  14  35  14  36  14  37  14  38  14
M  ISO  8  39  14  40   8  41   8  42  14  43  14  44   9  45  14  46  14
M  ISO  1  47   6
M  END
>  <minimizedAffinity>  (1) 
-5.51095247

>  <minimizedRMSD>  (1) 
1.4383142

$$$$
