
     RDKit          3D

 21 22  0  0  0  0  0  0  0  0999 V2000
   41.2420   35.1020   38.9520 C   0  0  0  0  0  0  0  0  0  0  0  0
   42.5100   35.2880   39.5380 C   0  0  0  0  0  0  0  0  0  0  0  0
   42.7390   34.6680   40.7700 C   0  0  0  0  0  0  0  0  0  0  0  0
   41.7620   33.9340   41.3410 N   0  0  0  0  0  0  0  0  0  0  0  0
   40.5440   33.7850   40.7290 C   0  0  0  0  0  0  0  0  0  0  0  0
   40.2950   34.3680   39.5440 N   0  0  0  0  0  0  0  0  0  0  0  0
   44.0420   34.8470   41.3940 C   0  0  0  0  0  0  0  0  0  0  0  0
   44.1600   35.5750   42.5590 C   0  0  0  0  0  0  0  0  0  0  0  0
   45.4450   35.6770   43.0580 C   0  0  0  0  0  0  0  0  0  0  0  0
   46.5210   35.1010   42.4440 N   0  0  0  0  0  0  0  0  0  0  0  0
   46.3450   34.4050   41.3130 C   0  0  0  0  0  0  0  0  0  0  0  0
   45.1080   34.2860   40.8020 N   0  0  0  0  0  0  0  0  0  0  0  0
   40.9890   35.7640   37.6280 C   0  0  0  0  0  0  0  0  0  0  0  0
   43.2857   35.8945   39.0476 H   0  0  0  0  0  0  0  0  0  0  0  0
   39.7621   33.1816   41.2133 H   0  0  0  0  0  0  0  0  0  0  0  0
   43.2953   36.0403   43.0548 H   0  0  0  0  0  0  0  0  0  0  0  0
   45.6077   36.2444   43.9862 H   0  0  0  0  0  0  0  0  0  0  0  0
   47.2030   33.9365   40.8086 H   0  0  0  0  0  0  0  0  0  0  0  0
   40.6008   36.7797   37.7942 H   0  0  0  0  0  0  0  0  0  0  0  0
   41.9294   35.8192   37.0600 H   0  0  0  0  0  0  0  0  0  0  0  0
   40.2515   35.1780   37.0600 H   0  0  0  0  0  0  0  0  0  0  0  0
  1  2  2  0
  1  6  1  0
  2  3  1  0
  3  4  2  0
  3  7  1  0
  5  4  1  0
  6  5  2  0
  7  8  2  0
  8  9  1  0
 10  9  2  0
 11 10  1  0
 12 11  2  0
 12  7  1  0
 13  1  1  0
  2 14  1  0
  5 15  1  0
  8 16  1  0
  9 17  1  0
 11 18  1  0
 13 19  1  0
 13 20  1  0
 13 21  1  0
M  ISO  8  14  14  15  14  16  14  17  14  18  14  19   8  20   8  21   8
M  END
>  <minimizedAffinity>  (1) 
-4.09410429

>  <minimizedRMSD>  (1) 
6.13934374

$$$$
