
     RDKit          3D

 40 42  0  0  1  0  0  0  0  0999 V2000
   48.2910   31.3890   48.4890 C   0  0  0  0  0  0  0  0  0  0  0  0
   48.8880   32.1800   49.2960 O   0  0  0  0  0  0  0  0  0  0  0  0
   49.1840   30.3540   48.8690 N   0  0  0  0  0  0  0  0  0  0  0  0
   49.3510   29.4540   47.7420 C   0  0  0  0  0  0  0  0  0  0  0  0
   50.2270   28.3220   48.2370 C   0  0  0  0  0  0  0  0  0  0  0  0
   49.7840   27.9000   49.5720 N   0  0  0  0  0  0  0  0  0  0  0  0
   50.3440   28.8690   50.4740 C   0  0  0  0  0  0  0  0  0  0  0  0
   49.8220   30.2200   50.1640 C   0  0  1  0  0  0  0  0  0  0  0  0
   50.9800   31.1710   50.1360 C   0  0  0  0  0  0  0  0  0  0  0  0
   51.2310   32.1470   51.0640 C   0  0  0  0  0  0  0  0  0  0  0  0
   52.3610   32.9350   50.8690 C   0  0  0  0  0  0  0  0  0  0  0  0
   53.1800   32.7540   49.8160 N   0  0  0  0  0  0  0  0  0  0  0  0
   52.9180   31.7900   48.9150 C   0  0  0  0  0  0  0  0  0  0  0  0
   51.8370   31.0380   49.1050 N   0  0  0  0  0  0  0  0  0  0  0  0
   47.2550   31.9780   47.8200 O   0  0  0  0  0  0  0  0  0  0  0  0
   44.8790   30.8670   47.5490 O   0  0  0  0  0  0  0  0  0  0  0  0
   45.6410   32.0380   48.1900 P   0  0  1  0  0  0  0  0  0  0  0  0
   45.3890   31.9250   49.8460 O   0  0  0  0  0  0  0  0  0  0  0  0
   44.9740   33.4750   47.5830 O   0  0  0  0  0  0  0  0  0  0  0  0
   46.5340   33.6420   44.3140 C   0  0  0  0  0  0  0  0  0  0  0  0
   46.1910   33.2370   45.6280 C   0  0  0  0  0  0  0  0  0  0  0  0
   45.2450   33.9340   46.3220 C   0  0  0  0  0  0  0  0  0  0  0  0
   44.6550   35.0000   45.7320 N   0  0  0  0  0  0  0  0  0  0  0  0
   44.9830   35.3830   44.4850 C   0  0  0  0  0  0  0  0  0  0  0  0
   45.9060   34.7250   43.7740 N   0  0  0  0  0  0  0  0  0  0  0  0
   49.8379   29.9760   46.9051 H   0  0  0  0  0  0  0  0  0  0  0  0
   48.3823   29.0830   47.3761 H   0  0  0  0  0  0  0  0  0  0  0  0
   50.1539   27.4725   47.5421 H   0  0  0  0  0  0  0  0  0  0  0  0
   51.2703   28.6662   48.2916 H   0  0  0  0  0  0  0  0  0  0  0  0
   48.7556   27.9035   49.6300 H   0  0  0  0  0  0  0  0  0  0  0  0
   50.0731   28.6031   51.5064 H   0  0  0  0  0  0  0  0  0  0  0  0
   51.4382   28.8731   50.3613 H   0  0  0  0  0  0  0  0  0  0  0  0
   49.0674   30.4240   50.9379 H   0  0  0  0  0  0  0  0  0  0  0  0
   50.5669   32.3012   51.9272 H   0  0  0  0  0  0  0  0  0  0  0  0
   52.5916   33.7281   51.5956 H   0  0  0  0  0  0  0  0  0  0  0  0
   53.5765   31.6286   48.0488 H   0  0  0  0  0  0  0  0  0  0  0  0
   46.1795   32.2795   50.3250 H   0  0  0  0  0  0  0  0  0  0  0  0
   47.2939   33.0920   43.7395 H   0  0  0  0  0  0  0  0  0  0  0  0
   46.6840   32.3666   46.0855 H   0  0  0  0  0  0  0  0  0  0  0  0
   44.4819   36.2555   44.0404 H   0  0  0  0  0  0  0  0  0  0  0  0
  1  3  1  0
  1  2  2  0
  3  8  1  0
  4  5  1  0
  4  3  1  0
  5  6  1  0
  6  7  1  0
  8  7  1  0
  9  8  1  0
  9 10  2  0
 11 10  1  0
 12 11  2  0
 13 14  2  0
 13 12  1  0
 14  9  1  0
 15 17  1  0
 15  1  1  0
 17 16  2  0
 17 18  1  0
 19 17  1  0
 20 21  2  0
 21 22  1  0
 22 19  1  0
 23 22  2  0
 24 23  1  0
 25 20  1  0
 25 24  2  0
  4 26  1  0
  4 27  1  0
  5 28  1  0
  5 29  1  0
  6 30  1  0
  7 31  1  0
  7 32  1  0
  8 33  1  1
 10 34  1  0
 11 35  1  0
 13 36  1  0
 18 37  1  0
 20 38  1  0
 21 39  1  0
 24 40  1  0
M  ISO  8  26  13  27  13  28  13  29  13  30   5  31  13  32  13  33  13
M  ISO  7  34  14  35  14  36  14  37   3  38  14  39  14  40  14
M  END
>  <minimizedAffinity>  (1) 
-5.8589282

>  <minimizedRMSD>  (1) 
0.778428495

$$$$
