
     RDKit          3D

 43 46  0  0  1  0  0  0  0  0999 V2000
   47.7470   29.0280   47.8710 C   0  0  1  0  0  0  0  0  0  0  0  0
   47.4900   28.0180   46.7960 C   0  0  0  0  0  0  0  0  0  0  0  0
   48.6860   27.1830   46.4280 C   0  0  0  0  0  0  0  0  0  0  0  0
   49.4570   26.7100   47.6290 C   0  0  0  0  0  0  0  0  0  0  0  0
   49.6890   27.8030   48.6260 C   0  0  0  0  0  0  0  0  0  0  0  0
   49.2770   29.1730   48.0440 C   0  0  2  0  0  0  0  0  0  0  0  0
   46.2270   32.5250   46.3700 C   0  0  0  0  0  0  0  0  0  0  0  0
   46.0110   32.3870   47.7440 C   0  0  0  0  0  0  0  0  0  0  0  0
   46.4640   31.2790   48.3360 C   0  0  0  0  0  0  0  0  0  0  0  0
   47.1400   30.2930   47.5790 C   0  0  0  0  0  0  0  0  0  0  0  0
   47.1280   30.9860   45.8890 S   0  0  0  0  0  0  0  0  0  0  0  0
   44.5890   35.6010   45.0380 C   0  0  0  0  0  0  0  0  0  0  0  0
   45.1900   35.6800   43.7780 C   0  0  0  0  0  0  0  0  0  0  0  0
   46.1280   34.6950   43.4510 C   0  0  0  0  0  0  0  0  0  0  0  0
   46.4050   33.7130   44.3720 N   0  0  0  0  0  0  0  0  0  0  0  0
   45.8000   33.6810   45.5690 C   0  0  0  0  0  0  0  0  0  0  0  0
   44.8870   34.6310   45.9060 N   0  0  0  0  0  0  0  0  0  0  0  0
   49.5760   30.2130   49.0150 C   0  0  0  0  0  0  0  0  0  0  0  0
   48.8350   30.4350   49.9680 O   0  0  0  0  0  0  0  0  0  0  0  0
   50.5670   31.2040   49.3000 C   0  0  0  0  0  0  0  0  0  0  0  0
   51.9450   31.0890   49.0200 C   0  0  0  0  0  0  0  0  0  0  0  0
   52.9570   31.9720   49.3200 C   0  0  0  0  0  0  0  0  0  0  0  0
   52.5700   33.0760   49.9610 N   0  0  0  0  0  0  0  0  0  0  0  0
   51.2940   33.2770   50.2710 C   0  0  0  0  0  0  0  0  0  0  0  0
   50.4070   32.3650   49.9350 N   0  0  0  0  0  0  0  0  0  0  0  0
   47.2906   28.6784   48.8088 H   0  0  0  0  0  0  0  0  0  0  0  0
   46.6928   27.3434   47.1414 H   0  0  0  0  0  0  0  0  0  0  0  0
   47.2129   28.5836   45.8941 H   0  0  0  0  0  0  0  0  0  0  0  0
   48.3411   26.3044   45.8632 H   0  0  0  0  0  0  0  0  0  0  0  0
   49.3593   27.8139   45.8291 H   0  0  0  0  0  0  0  0  0  0  0  0
   48.8913   25.9020   48.1160 H   0  0  0  0  0  0  0  0  0  0  0  0
   50.4399   26.3607   47.2799 H   0  0  0  0  0  0  0  0  0  0  0  0
   49.0931   27.6006   49.5282 H   0  0  0  0  0  0  0  0  0  0  0  0
   50.7604   27.8329   48.8734 H   0  0  0  0  0  0  0  0  0  0  0  0
   49.7943   29.4387   47.1103 H   0  0  0  0  0  0  0  0  0  0  0  0
   45.4858   33.1645   48.3181 H   0  0  0  0  0  0  0  0  0  0  0  0
   46.3112   31.1324   49.4154 H   0  0  0  0  0  0  0  0  0  0  0  0
   43.8474   36.3618   45.3232 H   0  0  0  0  0  0  0  0  0  0  0  0
   44.9355   36.4844   43.0722 H   0  0  0  0  0  0  0  0  0  0  0  0
   46.6346   34.7062   42.4747 H   0  0  0  0  0  0  0  0  0  0  0  0
   52.2506   30.1733   48.4927 H   0  0  0  0  0  0  0  0  0  0  0  0
   54.0066   31.7817   49.0513 H   0  0  0  0  0  0  0  0  0  0  0  0
   50.9841   34.1905   50.7997 H   0  0  0  0  0  0  0  0  0  0  0  0
  1  6  1  0
  2  1  1  0
  3  2  1  0
  3  4  1  0
  4  5  1  0
  6  5  1  0
  6 18  1  0
  7  8  2  0
  8  9  1  0
 10  1  1  0
 10  9  2  0
 11  7  1  0
 11 10  1  0
 12 17  2  0
 13 12  1  0
 14 13  2  0
 14 15  1  0
 15 16  2  0
 16 17  1  0
 16  7  1  0
 18 20  1  0
 18 19  2  0
 20 25  1  0
 21 20  2  0
 21 22  1  0
 22 23  2  0
 23 24  1  0
 25 24  2  0
  1 26  1  1
  2 27  1  0
  2 28  1  0
  3 29  1  0
  3 30  1  0
  4 31  1  0
  4 32  1  0
  5 33  1  0
  5 34  1  0
  6 35  1  6
  8 36  1  0
  9 37  1  0
 12 38  1  0
 13 39  1  0
 14 40  1  0
 21 41  1  0
 22 42  1  0
 24 43  1  0
M  ISO  8  26  13  27  13  28  13  29  13  30  13  31  13  32  13  33  13
M  ISO  8  34  13  35  13  36  14  37  14  38  14  39  14  40  14  41  14
M  ISO  2  42  14  43  14
M  END
>  <minimizedAffinity>  (1) 
-5.43871832

>  <minimizedRMSD>  (1) 
2.21919751

$$$$
