
     RDKit          3D

 22 23  0  0  0  0  0  0  0  0999 V2000
   45.0320   35.0360   44.2690 C   0  0  0  0  0  0  0  0  0  0  0  0
   46.0760   34.7990   43.3670 C   0  0  0  0  0  0  0  0  0  0  0  0
   47.0640   33.8680   43.7260 C   0  0  0  0  0  0  0  0  0  0  0  0
   46.9340   33.2630   44.9230 N   0  0  0  0  0  0  0  0  0  0  0  0
   45.9270   33.5060   45.7690 C   0  0  0  0  0  0  0  0  0  0  0  0
   44.9780   34.3910   45.4400 N   0  0  0  0  0  0  0  0  0  0  0  0
   44.0360   35.9750   43.9070 N   0  0  0  0  0  0  0  0  0  0  0  0
   45.8100   32.8400   47.0550 C   0  0  0  0  0  0  0  0  0  0  0  0
   44.8490   33.0050   47.8390 O   0  0  0  0  0  0  0  0  0  0  0  0
   46.8740   31.9160   47.4710 C   0  0  0  0  0  0  0  0  0  0  0  0
   47.7990   32.2300   48.4230 C   0  0  0  0  0  0  0  0  0  0  0  0
   48.7960   31.3540   48.8070 C   0  0  0  0  0  0  0  0  0  0  0  0
   48.8800   30.1410   48.2340 N   0  0  0  0  0  0  0  0  0  0  0  0
   47.9550   29.8270   47.2800 C   0  0  0  0  0  0  0  0  0  0  0  0
   46.9820   30.6850   46.9090 N   0  0  0  0  0  0  0  0  0  0  0  0
   46.1211   35.3276   42.4034 H   0  0  0  0  0  0  0  0  0  0  0  0
   47.9084   33.6421   43.0583 H   0  0  0  0  0  0  0  0  0  0  0  0
   44.0928   36.4627   43.0016 H   0  0  0  0  0  0  0  0  0  0  0  0
   43.2547   36.1703   44.5491 H   0  0  0  0  0  0  0  0  0  0  0  0
   47.7493   33.2183   48.9033 H   0  0  0  0  0  0  0  0  0  0  0  0
   49.5202   31.6489   49.5807 H   0  0  0  0  0  0  0  0  0  0  0  0
   48.0048   28.8400   46.7970 H   0  0  0  0  0  0  0  0  0  0  0  0
  1  6  2  0
  2  3  2  0
  2  1  1  0
  3  4  1  0
  4  5  2  0
  5  8  1  0
  6  5  1  0
  7  1  1  0
  8 10  1  0
  8  9  2  0
 10 11  2  0
 11 12  1  0
 13 12  2  0
 14 13  1  0
 15 14  2  0
 15 10  1  0
  2 16  1  0
  3 17  1  0
  7 18  1  0
  7 19  1  0
 11 20  1  0
 12 21  1  0
 14 22  1  0
M  ISO  5  16  14  17  14  20  14  21  14  22  14
M  END
>  <minimizedAffinity>  (1) 
-4.7269969

>  <minimizedRMSD>  (1) 
0.847801328

$$$$
