
     RDKit          3D

 27 29  0  0  0  0  0  0  0  0999 V2000
   46.0060   34.5640   43.9500 C   0  0  0  0  0  0  0  0  0  0  0  0
   47.0810   33.8930   43.4710 C   0  0  0  0  0  0  0  0  0  0  0  0
   47.5200   32.8590   44.2630 C   0  0  0  0  0  0  0  0  0  0  0  0
   46.8580   32.5870   45.4520 N   0  0  0  0  0  0  0  0  0  0  0  0
   45.8000   33.2940   45.8660 C   0  0  0  0  0  0  0  0  0  0  0  0
   45.3510   34.3130   45.1060 N   0  0  0  0  0  0  0  0  0  0  0  0
   47.7880   34.2050   42.2920 C   0  0  0  0  0  0  0  0  0  0  0  0
   48.1590   35.3930   41.7510 C   0  0  0  0  0  0  0  0  0  0  0  0
   49.3150   34.6270   42.3900 C   0  0  0  0  0  0  0  0  0  0  0  0
   45.2710   35.6260   43.2340 C   0  0  0  0  0  0  0  0  0  0  0  0
   45.1580   36.8440   43.1120 O   0  0  0  0  0  0  0  0  0  0  0  0
   44.2990   34.9660   42.3150 C   0  0  0  0  0  0  0  0  0  0  0  0
   43.5690   35.6830   41.3680 C   0  0  0  0  0  0  0  0  0  0  0  0
   42.6540   35.1280   40.4880 C   0  0  0  0  0  0  0  0  0  0  0  0
   42.4400   33.8270   40.5330 N   0  0  0  0  0  0  0  0  0  0  0  0
   43.1120   33.1000   41.4190 C   0  0  0  0  0  0  0  0  0  0  0  0
   43.9900   33.6500   42.2600 N   0  0  0  0  0  0  0  0  0  0  0  0
   48.3864   32.2538   43.9578 H   0  0  0  0  0  0  0  0  0  0  0  0
   45.3024   33.0466   46.8153 H   0  0  0  0  0  0  0  0  0  0  0  0
   47.1565   33.4134   41.8623 H   0  0  0  0  0  0  0  0  0  0  0  0
   48.1383   35.5081   40.6572 H   0  0  0  0  0  0  0  0  0  0  0  0
   47.7847   36.4175   41.8937 H   0  0  0  0  0  0  0  0  0  0  0  0
   49.7584   34.9515   43.3429 H   0  0  0  0  0  0  0  0  0  0  0  0
   50.2994   34.2299   42.1012 H   0  0  0  0  0  0  0  0  0  0  0  0
   43.7315   36.7697   41.3156 H   0  0  0  0  0  0  0  0  0  0  0  0
   42.1164   35.7599   39.7658 H   0  0  0  0  0  0  0  0  0  0  0  0
   42.9398   32.0144   41.4605 H   0  0  0  0  0  0  0  0  0  0  0  0
  1  6  2  0
  2  1  1  0
  2  3  2  0
  3  4  1  0
  4  5  2  0
  6  5  1  0
  7  9  1  0
  7  2  1  0
  8  7  1  0
  8  9  1  0
 10  1  1  0
 11 10  2  0
 12 10  1  0
 13 12  2  0
 14 15  2  0
 14 13  1  0
 15 16  1  0
 16 17  2  0
 17 12  1  0
  3 18  1  0
  5 19  1  0
  7 20  1  0
  8 21  1  0
  8 22  1  0
  9 23  1  0
  9 24  1  0
 13 25  1  0
 14 26  1  0
 16 27  1  0
M  ISO  8  18  14  19  14  20  13  21  13  22  13  23  13  24  13  25  14
M  ISO  2  26  14  27  14
M  END
>  <minimizedAffinity>  (1) 
-4.91650343

>  <minimizedRMSD>  (1) 
1.18797278

$$$$
