
     RDKit          3D

 36 39  0  0  0  0  0  0  0  0999 V2000
   45.7030   34.6490   41.7650 C   0  0  0  0  0  0  0  0  0  0  0  0
   46.9130   34.8550   41.4600 O   0  0  0  0  0  0  0  0  0  0  0  0
   44.6240   34.3200   40.7790 C   0  0  0  0  0  0  0  0  0  0  0  0
   43.2780   34.6530   40.8960 C   0  0  0  0  0  0  0  0  0  0  0  0
   42.6850   34.1620   39.7880 N   0  0  0  0  0  0  0  0  0  0  0  0
   43.6260   33.5580   39.0300 C   0  0  0  0  0  0  0  0  0  0  0  0
   44.8310   33.6550   39.6410 N   0  0  0  0  0  0  0  0  0  0  0  0
   43.5210   32.8880   37.7690 N   0  0  0  0  0  0  0  0  0  0  0  0
   41.3120   34.2350   39.4240 C   0  0  0  0  0  0  0  0  0  0  0  0
   40.3130   34.1620   40.3740 C   0  0  0  0  0  0  0  0  0  0  0  0
   39.0260   34.2490   39.8500 C   0  0  0  0  0  0  0  0  0  0  0  0
   38.7330   34.3920   38.5440 N   0  0  0  0  0  0  0  0  0  0  0  0
   39.7360   34.4560   37.6760 C   0  0  0  0  0  0  0  0  0  0  0  0
   40.9930   34.3770   38.1310 N   0  0  0  0  0  0  0  0  0  0  0  0
   44.8090   35.9200   43.6650 C   0  0  0  0  0  0  0  0  0  0  0  0
   45.3940   34.7460   43.1510 C   0  0  0  0  0  0  0  0  0  0  0  0
   45.6180   33.7630   44.0880 C   0  0  0  0  0  0  0  0  0  0  0  0
   45.3040   33.9130   45.3810 N   0  0  0  0  0  0  0  0  0  0  0  0
   44.7410   35.0660   45.8310 C   0  0  0  0  0  0  0  0  0  0  0  0
   44.5000   36.0570   44.9650 N   0  0  0  0  0  0  0  0  0  0  0  0
   46.2050   32.5470   43.6590 C   0  0  0  0  0  0  0  0  0  0  0  0
   47.4770   32.0640   43.5890 C   0  0  0  0  0  0  0  0  0  0  0  0
   47.7250   30.8530   43.1310 C   0  0  0  0  0  0  0  0  0  0  0  0
   46.6860   30.0900   42.7300 C   0  0  0  0  0  0  0  0  0  0  0  0
   45.2600   31.1800   43.0260 S   0  0  0  0  0  0  0  0  0  0  0  0
   42.7979   35.2018   41.7196 H   0  0  0  0  0  0  0  0  0  0  0  0
   42.6067   32.8119   37.3008 H   0  0  0  0  0  0  0  0  0  0  0  0
   44.3597   32.4821   37.3301 H   0  0  0  0  0  0  0  0  0  0  0  0
   40.5157   34.0455   41.4489 H   0  0  0  0  0  0  0  0  0  0  0  0
   38.1848   34.1969   40.5569 H   0  0  0  0  0  0  0  0  0  0  0  0
   39.5374   34.5721   36.6003 H   0  0  0  0  0  0  0  0  0  0  0  0
   44.5981   36.7530   42.9782 H   0  0  0  0  0  0  0  0  0  0  0  0
   44.4866   35.1827   46.8948 H   0  0  0  0  0  0  0  0  0  0  0  0
   48.3132   32.6968   43.9211 H   0  0  0  0  0  0  0  0  0  0  0  0
   48.7557   30.4726   43.0768 H   0  0  0  0  0  0  0  0  0  0  0  0
   46.6985   29.0669   42.3260 H   0  0  0  0  0  0  0  0  0  0  0  0
  1 16  1  0
  2  1  2  0
  3  4  2  0
  3  1  1  0
  5  4  1  0
  6  7  2  0
  6  5  1  0
  7  3  1  0
  8  6  1  0
  9  5  1  0
  9 10  2  0
 11 10  1  0
 12 11  2  0
 13 14  2  0
 13 12  1  0
 14  9  1  0
 15 20  2  0
 16 15  1  0
 16 17  2  0
 17 18  1  0
 18 19  2  0
 20 19  1  0
 21 17  1  0
 22 21  2  0
 23 22  1  0
 24 25  1  0
 24 23  2  0
 25 21  1  0
  4 26  1  0
  8 27  1  0
  8 28  1  0
 10 29  1  0
 11 30  1  0
 13 31  1  0
 15 32  1  0
 19 33  1  0
 22 34  1  0
 23 35  1  0
 24 36  1  0
M  ISO  8  26  14  29  14  30  14  31  14  32  14  33  14  34  14  35  14
M  ISO  1  36  14
M  END
>  <minimizedAffinity>  (1) 
-5.64811563

>  <minimizedRMSD>  (1) 
1.5012573

$$$$
