
     RDKit          3D

 33 34  0  0  0  0  0  0  0  0999 V2000
   44.9820   33.7530   44.6520 N   0  0  0  0  0  0  0  0  0  0  0  0
   45.7430   32.5110   44.5330 C   0  0  0  0  0  0  0  0  0  0  0  0
   45.7690   32.7440   46.9530 C   0  0  0  0  0  0  0  0  0  0  0  0
   46.2760   32.1210   45.8210 C   0  0  0  0  0  0  0  0  0  0  0  0
   47.2510   31.1780   46.0220 C   0  0  0  0  0  0  0  0  0  0  0  0
   47.6780   30.8910   47.2900 N   0  0  0  0  0  0  0  0  0  0  0  0
   47.1740   31.5030   48.3670 C   0  0  0  0  0  0  0  0  0  0  0  0
   46.1940   32.4560   48.1970 N   0  0  0  0  0  0  0  0  0  0  0  0
   47.7630   30.5360   44.8040 C   0  0  0  0  0  0  0  0  0  0  0  0
   48.8090   29.6880   45.1450 F   0  0  0  0  0  0  0  0  0  0  0  0
   48.2810   31.5300   44.0310 F   0  0  0  0  0  0  0  0  0  0  0  0
   46.8250   29.7440   44.2280 F   0  0  0  0  0  0  0  0  0  0  0  0
   44.9150   34.3120   43.3480 C   0  0  0  0  0  0  0  0  0  0  0  0
   46.0730   35.1910   42.9910 C   0  0  0  0  0  0  0  0  0  0  0  0
   46.8780   34.5940   41.5030 S   0  0  0  0  0  0  0  0  0  0  0  0
   48.5080   33.9790   41.7070 C   0  0  0  0  0  0  0  0  0  0  0  0
   49.5860   34.3780   42.4430 C   0  0  0  0  0  0  0  0  0  0  0  0
   50.7760   33.7280   42.4830 C   0  0  0  0  0  0  0  0  0  0  0  0
   50.9310   32.5910   41.7410 N   0  0  0  0  0  0  0  0  0  0  0  0
   49.8550   32.1880   41.0000 C   0  0  0  0  0  0  0  0  0  0  0  0
   48.6670   32.8420   40.9640 N   0  0  0  0  0  0  0  0  0  0  0  0
   44.0341   33.5571   45.0042 H   0  0  0  0  0  0  0  0  0  0  0  0
   45.0822   31.7155   44.1581 H   0  0  0  0  0  0  0  0  0  0  0  0
   46.5777   32.6693   43.8343 H   0  0  0  0  0  0  0  0  0  0  0  0
   44.9858   33.5062   46.8279 H   0  0  0  0  0  0  0  0  0  0  0  0
   47.5367   31.2491   49.3739 H   0  0  0  0  0  0  0  0  0  0  0  0
   44.8729   33.4868   42.6218 H   0  0  0  0  0  0  0  0  0  0  0  0
   44.0188   34.9495   43.3257 H   0  0  0  0  0  0  0  0  0  0  0  0
   45.7110   36.2157   42.8207 H   0  0  0  0  0  0  0  0  0  0  0  0
   46.7982   35.1782   43.8180 H   0  0  0  0  0  0  0  0  0  0  0  0
   49.4824   35.2917   43.0467 H   0  0  0  0  0  0  0  0  0  0  0  0
   51.6016   34.1094   43.1018 H   0  0  0  0  0  0  0  0  0  0  0  0
   49.9592   31.2755   40.3946 H   0  0  0  0  0  0  0  0  0  0  0  0
  2  1  1  0
  2  4  1  0
  3  8  2  0
  4  5  2  0
  4  3  1  0
  5  6  1  0
  6  7  2  0
  8  7  1  0
  9 10  1  0
  9  5  1  0
 11  9  1  0
 12  9  1  0
 13  1  1  0
 14 13  1  0
 15 16  1  0
 15 14  1  0
 16 17  2  0
 17 18  1  0
 19 18  2  0
 20 19  1  0
 21 20  2  0
 21 16  1  0
  1 22  1  0
  2 23  1  0
  2 24  1  0
  3 25  1  0
  7 26  1  0
 13 27  1  0
 13 28  1  0
 14 29  1  0
 14 30  1  0
 17 31  1  0
 18 32  1  0
 20 33  1  0
M  ISO  8  22   5  23   8  24   8  25  14  26  14  27   8  28   8  29   8
M  ISO  4  30   8  31  14  32  14  33  14
M  END
>  <minimizedAffinity>  (1) 
-4.09392548

>  <minimizedRMSD>  (1) 
6.62871361

$$$$
