
     RDKit          3D

 39 41  0  0  0  0  0  0  0  0999 V2000
   41.0040   32.2680   41.5770 C   0  0  0  0  0  0  0  0  0  0  0  0
   42.2690   31.7090   41.5430 C   0  0  0  0  0  0  0  0  0  0  0  0
   42.4690   30.4990   42.1780 C   0  0  0  0  0  0  0  0  0  0  0  0
   41.4350   29.8880   42.8170 C   0  0  0  0  0  0  0  0  0  0  0  0
   40.1820   30.4150   42.8670 C   0  0  0  0  0  0  0  0  0  0  0  0
   40.0150   31.6340   42.2170 C   0  0  0  0  0  0  0  0  0  0  0  0
   40.4920   34.9790   38.9930 C   0  0  0  0  0  0  0  0  0  0  0  0
   40.6270   33.6860   39.5370 C   0  0  0  0  0  0  0  0  0  0  0  0
   40.8460   33.5500   40.8890 C   0  0  0  0  0  0  0  0  0  0  0  0
   40.9180   34.6880   41.6130 N   0  0  0  0  0  0  0  0  0  0  0  0
   40.7900   35.9260   41.0990 C   0  0  0  0  0  0  0  0  0  0  0  0
   40.5750   36.0620   39.7710 N   0  0  0  0  0  0  0  0  0  0  0  0
   43.3850   32.3990   40.8350 C   0  0  0  0  0  0  0  0  0  0  0  0
   44.3090   33.0720   41.7030 N   0  0  0  0  0  0  0  0  0  0  0  0
   44.9130   34.5260   41.0130 S   0  0  0  0  0  0  0  0  0  0  0  0
   43.8260   35.2820   40.3110 O   0  0  0  0  0  0  0  0  0  0  0  0
   46.0490   34.2670   40.0850 O   0  0  0  0  0  0  0  0  0  0  0  0
   45.4670   35.4610   42.2960 O   0  0  0  0  0  0  0  0  0  0  0  0
   45.3940   35.0270   43.6120 C   0  0  0  0  0  0  0  0  0  0  0  0
   44.5710   35.7330   44.4610 C   0  0  0  0  0  0  0  0  0  0  0  0
   44.5490   35.2360   45.7680 C   0  0  0  0  0  0  0  0  0  0  0  0
   45.2680   34.1560   46.1850 N   0  0  0  0  0  0  0  0  0  0  0  0
   46.0420   33.5290   45.2980 C   0  0  0  0  0  0  0  0  0  0  0  0
   46.1060   33.9540   44.0320 N   0  0  0  0  0  0  0  0  0  0  0  0
   43.4637   30.0296   42.1671 H   0  0  0  0  0  0  0  0  0  0  0  0
   41.6205   28.9251   43.3154 H   0  0  0  0  0  0  0  0  0  0  0  0
   39.3546   29.9104   43.3874 H   0  0  0  0  0  0  0  0  0  0  0  0
   39.0188   32.1002   42.2301 H   0  0  0  0  0  0  0  0  0  0  0  0
   40.3160   35.0982   37.9137 H   0  0  0  0  0  0  0  0  0  0  0  0
   40.5584   32.7986   38.8907 H   0  0  0  0  0  0  0  0  0  0  0  0
   40.8591   36.8113   41.7482 H   0  0  0  0  0  0  0  0  0  0  0  0
   43.9416   31.6480   40.2552 H   0  0  0  0  0  0  0  0  0  0  0  0
   42.9259   33.1733   40.2028 H   0  0  0  0  0  0  0  0  0  0  0  0
   43.8290   33.2988   42.5856 H   0  0  0  0  0  0  0  0  0  0  0  0
   43.2277   35.6981   40.9811 H   0  0  0  0  0  0  0  0  0  0  0  0
   46.8676   34.0804   40.6095 H   0  0  0  0  0  0  0  0  0  0  0  0
   43.9851   36.6071   44.1407 H   0  0  0  0  0  0  0  0  0  0  0  0
   43.9124   35.7481   46.5045 H   0  0  0  0  0  0  0  0  0  0  0  0
   46.6325   32.6551   45.6106 H   0  0  0  0  0  0  0  0  0  0  0  0
  1  6  2  0
  2  1  1  0
  2  3  2  0
  3  4  1  0
  4  5  2  0
  6  5  1  0
  7  8  2  0
  7 12  1  0
  8  9  1  0
  9  1  1  0
  9 10  2  0
 11 10  1  0
 12 11  2  0
 13  2  1  0
 13 14  1  0
 15 14  1  0
 15 18  1  0
 16 15  1  0
 17 15  1  0
 18 19  1  0
 19 24  1  0
 19 20  2  0
 20 21  1  0
 21 22  2  0
 23 22  1  0
 24 23  2  0
  3 25  1  0
  4 26  1  0
  5 27  1  0
  6 28  1  0
  7 29  1  0
  8 30  1  0
 11 31  1  0
 13 32  1  0
 13 33  1  0
 14 34  1  0
 16 35  1  0
 17 36  1  0
 20 37  1  0
 21 38  1  0
 23 39  1  0
M  ISO  8  25  14  26  14  27  14  28  14  29  14  30  14  31  14  32   8
M  ISO  7  33   8  34   5  35   3  36   3  37  14  38  14  39  14
M  END
>  <minimizedAffinity>  (1) 
-5.40513754

>  <minimizedRMSD>  (1) 
4.71427011

$$$$
