
     RDKit          3D

 36 38  0  0  0  0  0  0  0  0999 V2000
   45.1920   33.4610   41.1530 F   0  0  0  0  0  0  0  0  0  0  0  0
   46.3720   34.0660   41.0360 C   0  0  0  0  0  0  0  0  0  0  0  0
   46.8500   34.7980   42.0980 C   0  0  0  0  0  0  0  0  0  0  0  0
   48.0790   35.4650   42.0620 C   0  0  0  0  0  0  0  0  0  0  0  0
   48.8600   35.3930   40.9130 C   0  0  0  0  0  0  0  0  0  0  0  0
   48.3400   34.6470   39.8720 C   0  0  0  0  0  0  0  0  0  0  0  0
   47.1480   33.9930   39.8860 C   0  0  0  0  0  0  0  0  0  0  0  0
   45.4740   33.9950   45.4040 C   0  0  0  0  0  0  0  0  0  0  0  0
   44.6240   35.0930   45.6400 C   0  0  0  0  0  0  0  0  0  0  0  0
   44.5230   36.1240   44.6520 C   0  0  0  0  0  0  0  0  0  0  0  0
   45.2760   35.9670   43.5190 N   0  0  0  0  0  0  0  0  0  0  0  0
   46.0710   34.9030   43.3380 C   0  0  0  0  0  0  0  0  0  0  0  0
   46.1620   33.9400   44.2670 N   0  0  0  0  0  0  0  0  0  0  0  0
   45.5460   33.0070   46.4000 N   0  0  0  0  0  0  0  0  0  0  0  0
   46.7280   33.2840   38.7960 O   0  0  0  0  0  0  0  0  0  0  0  0
   48.1320   34.6640   37.0160 O   0  0  0  0  0  0  0  0  0  0  0  0
   47.3600   33.3880   37.2440 P   0  0  2  0  0  0  0  0  0  0  0  0
   46.0520   33.2900   36.1320 O   0  0  0  0  0  0  0  0  0  0  0  0
   48.3530   32.0820   36.8350 O   0  0  0  0  0  0  0  0  0  0  0  0
   48.9760   31.9690   35.6020 C   0  0  0  0  0  0  0  0  0  0  0  0
   50.0220   31.0940   35.3990 C   0  0  0  0  0  0  0  0  0  0  0  0
   50.5540   31.0810   34.1140 C   0  0  0  0  0  0  0  0  0  0  0  0
   50.0720   31.8820   33.1230 N   0  0  0  0  0  0  0  0  0  0  0  0
   49.0520   32.7220   33.3570 C   0  0  0  0  0  0  0  0  0  0  0  0
   48.5390   32.7400   34.5770 N   0  0  0  0  0  0  0  0  0  0  0  0
   48.4244   36.0406   42.9334 H   0  0  0  0  0  0  0  0  0  0  0  0
   49.8335   35.8996   40.8374 H   0  0  0  0  0  0  0  0  0  0  0  0
   48.9418   34.5764   38.9540 H   0  0  0  0  0  0  0  0  0  0  0  0
   44.0445   35.1576   46.5727 H   0  0  0  0  0  0  0  0  0  0  0  0
   43.8725   36.9993   44.7958 H   0  0  0  0  0  0  0  0  0  0  0  0
   46.1551   32.1868   46.2687 H   0  0  0  0  0  0  0  0  0  0  0  0
   44.9897   33.1027   47.2615 H   0  0  0  0  0  0  0  0  0  0  0  0
   45.1991   33.2261   36.6306 H   0  0  0  0  0  0  0  0  0  0  0  0
   50.4103   30.4486   36.2007 H   0  0  0  0  0  0  0  0  0  0  0  0
   51.3905   30.4024   33.8908 H   0  0  0  0  0  0  0  0  0  0  0  0
   48.6563   33.3725   32.5631 H   0  0  0  0  0  0  0  0  0  0  0  0
  2  1  1  0
  2  3  2  0
  3 12  1  0
  4  3  1  0
  5  4  2  0
  6  7  2  0
  6  5  1  0
  7  2  1  0
  8  9  2  0
  8 14  1  0
 10  9  1  0
 11 10  2  0
 12 11  1  0
 12 13  2  0
 13  8  1  0
 15  7  1  0
 17 16  2  0
 17 15  1  0
 18 17  1  0
 19 17  1  0
 20 19  1  0
 21 20  2  0
 22 21  1  0
 23 24  1  0
 23 22  2  0
 24 25  2  0
 25 20  1  0
  4 26  1  0
  5 27  1  0
  6 28  1  0
  9 29  1  0
 10 30  1  0
 14 31  1  0
 14 32  1  0
 18 33  1  0
 21 34  1  0
 22 35  1  0
 24 36  1  0
M  ISO  8  26  14  27  14  28  14  29  14  30  14  33   3  34  14  35  14
M  ISO  1  36  14
M  END
>  <minimizedAffinity>  (1) 
-6.66000509

>  <minimizedRMSD>  (1) 
0.963542938

$$$$
