
     RDKit          3D

 44 47  0  0  1  0  0  0  0  0999 V2000
   45.0890   32.0830   42.1560 C   0  0  1  0  0  0  0  0  0  0  0  0
   44.4750   33.4170   42.4750 C   0  0  0  0  0  0  0  0  0  0  0  0
   45.3260   33.3560   41.3830 C   0  0  1  0  0  0  0  0  0  0  0  0
   46.0840   31.5170   43.0650 C   0  0  0  0  0  0  0  0  0  0  0  0
   47.2540   31.0110   42.4800 C   0  0  0  0  0  0  0  0  0  0  0  0
   48.2110   30.4710   43.3550 C   0  0  0  0  0  0  0  0  0  0  0  0
   47.9300   30.4810   44.6960 N   0  0  0  0  0  0  0  0  0  0  0  0
   46.7630   30.9930   45.2050 C   0  0  0  0  0  0  0  0  0  0  0  0
   45.8190   31.5210   44.3840 N   0  0  0  0  0  0  0  0  0  0  0  0
   46.5830   30.9460   46.6140 N   0  0  0  0  0  0  0  0  0  0  0  0
   47.6600   31.3290   47.4730 C   0  0  0  0  0  0  0  0  0  0  0  0
   47.1310   32.1230   48.6190 C   0  0  0  0  0  0  0  0  0  0  0  0
   45.9110   31.7600   49.1060 O   0  0  0  0  0  0  0  0  0  0  0  0
   45.3680   30.5960   48.6380 C   0  0  0  0  0  0  0  0  0  0  0  0
   45.3200   30.5140   47.1320 C   0  0  0  0  0  0  0  0  0  0  0  0
   46.6160   34.0960   41.4050 C   0  0  0  0  0  0  0  0  0  0  0  0
   47.1420   34.6410   42.5530 C   0  0  0  0  0  0  0  0  0  0  0  0
   48.3020   35.3640   42.6180 C   0  0  0  0  0  0  0  0  0  0  0  0
   48.9970   35.5630   41.4470 C   0  0  0  0  0  0  0  0  0  0  0  0
   48.4970   35.0260   40.2620 C   0  0  0  0  0  0  0  0  0  0  0  0
   47.3300   34.3150   40.2720 C   0  0  0  0  0  0  0  0  0  0  0  0
   47.7630   32.7060   38.5480 C   0  0  0  0  0  0  0  0  0  0  0  0
   48.3790   32.3100   39.5400 O   0  0  0  0  0  0  0  0  0  0  0  0
   47.0760   33.9190   38.9100 N   0  0  0  0  0  0  0  0  0  0  0  0
   44.7628   31.0613   41.9117 H   0  0  0  0  0  0  0  0  0  0  0  0
   43.3976   33.5701   42.3147 H   0  0  0  0  0  0  0  0  0  0  0  0
   44.4409   34.0424   43.3793 H   0  0  0  0  0  0  0  0  0  0  0  0
   45.2479   33.6020   40.3137 H   0  0  0  0  0  0  0  0  0  0  0  0
   47.4139   31.0358   41.3920 H   0  0  0  0  0  0  0  0  0  0  0  0
   49.1555   30.0536   42.9759 H   0  0  0  0  0  0  0  0  0  0  0  0
   48.1623   30.4275   47.8537 H   0  0  0  0  0  0  0  0  0  0  0  0
   48.3778   31.9406   46.9067 H   0  0  0  0  0  0  0  0  0  0  0  0
   47.8557   32.0423   49.4426 H   0  0  0  0  0  0  0  0  0  0  0  0
   46.9929   33.1407   48.2251 H   0  0  0  0  0  0  0  0  0  0  0  0
   45.9708   29.7557   49.0129 H   0  0  0  0  0  0  0  0  0  0  0  0
   44.3287   30.5582   48.9962 H   0  0  0  0  0  0  0  0  0  0  0  0
   44.5198   31.1650   46.7501 H   0  0  0  0  0  0  0  0  0  0  0  0
   45.1166   29.4800   46.8167 H   0  0  0  0  0  0  0  0  0  0  0  0
   46.5881   34.4837   43.4902 H   0  0  0  0  0  0  0  0  0  0  0  0
   48.6661   35.7717   43.5726 H   0  0  0  0  0  0  0  0  0  0  0  0
   49.9346   36.1382   41.4462 H   0  0  0  0  0  0  0  0  0  0  0  0
   49.0421   35.1746   39.3182 H   0  0  0  0  0  0  0  0  0  0  0  0
   47.7419   32.2193   37.5617 H   0  0  0  0  0  0  0  0  0  0  0  0
   46.4693   34.4459   38.2656 H   0  0  0  0  0  0  0  0  0  0  0  0
  1  2  1  0
  1  4  1  0
  3 16  1  0
  3  1  1  0
  3  2  1  0
  4  9  1  0
  5  4  2  0
  5  6  1  0
  6  7  2  0
  7  8  1  0
  8 10  1  0
  9  8  2  0
 10 15  1  0
 10 11  1  0
 11 12  1  0
 12 13  1  0
 14 13  1  0
 15 14  1  0
 16 17  2  0
 17 18  1  0
 19 18  2  0
 20 21  2  0
 20 19  1  0
 21 16  1  0
 22 24  1  0
 22 23  2  0
 24 21  1  0
  1 25  1  6
  2 26  1  0
  2 27  1  0
  3 28  1  6
  5 29  1  0
  6 30  1  0
 11 31  1  0
 11 32  1  0
 12 33  1  0
 12 34  1  0
 14 35  1  0
 14 36  1  0
 15 37  1  0
 15 38  1  0
 17 39  1  0
 18 40  1  0
 19 41  1  0
 20 42  1  0
 22 43  1  0
 24 44  1  0
M  ISO  8  25  13  26  13  27  13  28  13  29  14  30  14  31  13  32  13
M  ISO  8  33  13  34  13  35  13  36  13  37  13  38  13  39  14  40  14
M  ISO  3  41  14  42  14  43   6
M  END
>  <minimizedAffinity>  (1) 
-5.29715061

>  <minimizedRMSD>  (1) 
2.54108

$$$$
