
     RDKit          3D

 26 27  0  0  0  0  0  0  0  0999 V2000
   45.2160   34.0940   45.7450 C   0  0  0  0  0  0  0  0  0  0  0  0
   45.9540   33.3610   44.7700 C   0  0  0  0  0  0  0  0  0  0  0  0
   46.6240   32.2250   45.1860 C   0  0  0  0  0  0  0  0  0  0  0  0
   46.5540   31.8550   46.4930 N   0  0  0  0  0  0  0  0  0  0  0  0
   45.8340   32.5920   47.3890 C   0  0  0  0  0  0  0  0  0  0  0  0
   45.1780   33.6900   47.0220 N   0  0  0  0  0  0  0  0  0  0  0  0
   45.8590   33.9800   43.5240 N   0  0  0  0  0  0  0  0  0  0  0  0
   46.6000   34.8580   42.6380 C   0  0  0  0  0  0  0  0  0  0  0  0
   46.5230   34.2880   41.2530 C   0  0  0  0  0  0  0  0  0  0  0  0
   45.2700   34.6180   40.7490 O   0  0  0  0  0  0  0  0  0  0  0  0
   44.2880   34.6360   41.7290 C   0  0  0  0  0  0  0  0  0  0  0  0
   44.5910   33.6540   42.8500 C   0  0  0  0  0  0  0  0  0  0  0  0
   47.3490   31.5280   44.1400 C   0  0  0  0  0  0  0  0  0  0  0  0
   48.0190   30.4350   44.7070 F   0  0  0  0  0  0  0  0  0  0  0  0
   48.3570   32.3520   43.7040 F   0  0  0  0  0  0  0  0  0  0  0  0
   46.5630   31.0240   43.1420 F   0  0  0  0  0  0  0  0  0  0  0  0
   44.6715   35.0017   45.4455 H   0  0  0  0  0  0  0  0  0  0  0  0
   45.7953   32.2701   48.4401 H   0  0  0  0  0  0  0  0  0  0  0  0
   46.1567   35.8646   42.6529 H   0  0  0  0  0  0  0  0  0  0  0  0
   47.6481   34.9342   42.9630 H   0  0  0  0  0  0  0  0  0  0  0  0
   47.3113   34.7226   40.6208 H   0  0  0  0  0  0  0  0  0  0  0  0
   46.6665   33.1975   41.2677 H   0  0  0  0  0  0  0  0  0  0  0  0
   44.2247   35.6498   42.1511 H   0  0  0  0  0  0  0  0  0  0  0  0
   43.3356   34.3412   41.2642 H   0  0  0  0  0  0  0  0  0  0  0  0
   43.7750   33.6895   43.5868 H   0  0  0  0  0  0  0  0  0  0  0  0
   44.6804   32.6483   42.4135 H   0  0  0  0  0  0  0  0  0  0  0  0
  1  6  2  0
  2  3  2  0
  2  1  1  0
  3  4  1  0
  4  5  2  0
  6  5  1  0
  7  2  1  0
  8  7  1  0
  9  8  1  0
 10  9  1  0
 10 11  1  0
 11 12  1  0
 12  7  1  0
 13 14  1  0
 13  3  1  0
 15 13  1  0
 16 13  1  0
  1 17  1  0
  5 18  1  0
  8 19  1  0
  8 20  1  0
  9 21  1  0
  9 22  1  0
 11 23  1  0
 11 24  1  0
 12 25  1  0
 12 26  1  0
M  ISO  8  17  14  18  14  19  13  20  13  21  13  22  13  23  13  24  13
M  ISO  2  25  13  26  13
M  END
>  <minimizedAffinity>  (1) 
-3.46273208

>  <minimizedRMSD>  (1) 
3.60734582

$$$$
