
     RDKit          3D

 39 42  0  0  0  0  0  0  0  0999 V2000
   47.7400   32.2420   48.2810 C   0  0  0  0  0  0  0  0  0  0  0  0
   47.4520   30.8880   48.3140 C   0  0  0  0  0  0  0  0  0  0  0  0
   46.6080   30.4230   47.3480 C   0  0  0  0  0  0  0  0  0  0  0  0
   46.1070   31.2730   46.4310 N   0  0  0  0  0  0  0  0  0  0  0  0
   46.3880   32.5590   46.4070 C   0  0  0  0  0  0  0  0  0  0  0  0
   47.2120   33.0220   47.3500 N   0  0  0  0  0  0  0  0  0  0  0  0
   46.2370   29.0580   47.2770 N   0  0  0  0  0  0  0  0  0  0  0  0
   47.1720   28.0700   46.7790 C   0  0  0  0  0  0  0  0  0  0  0  0
   47.1720   26.7880   47.5520 C   0  0  0  0  0  0  0  0  0  0  0  0
   45.9500   26.4250   48.0830 O   0  0  0  0  0  0  0  0  0  0  0  0
   44.9500   27.0090   47.3120 C   0  0  0  0  0  0  0  0  0  0  0  0
   44.9780   28.4870   47.6610 C   0  0  0  0  0  0  0  0  0  0  0  0
   45.9520   33.6350   45.5060 C   0  0  0  0  0  0  0  0  0  0  0  0
   44.9600   34.5150   45.7990 N   0  0  0  0  0  0  0  0  0  0  0  0
   44.5360   35.5030   45.0100 C   0  0  0  0  0  0  0  0  0  0  0  0
   45.1130   35.6830   43.8030 N   0  0  0  0  0  0  0  0  0  0  0  0
   46.1110   34.8780   43.3900 C   0  0  0  0  0  0  0  0  0  0  0  0
   46.6990   35.0690   42.1490 C   0  0  0  0  0  0  0  0  0  0  0  0
   47.7130   34.2560   41.7220 C   0  0  0  0  0  0  0  0  0  0  0  0
   48.1130   33.2570   42.5690 C   0  0  0  0  0  0  0  0  0  0  0  0
   47.5060   33.0960   43.7920 C   0  0  0  0  0  0  0  0  0  0  0  0
   46.4940   33.8770   44.2660 C   0  0  0  0  0  0  0  0  0  0  0  0
   48.0230   30.0800   49.3110 N   0  0  0  0  0  0  0  0  0  0  0  0
   48.4139   32.6740   49.0354 H   0  0  0  0  0  0  0  0  0  0  0  0
   46.9126   27.8440   45.7342 H   0  0  0  0  0  0  0  0  0  0  0  0
   48.1778   28.5035   46.8814 H   0  0  0  0  0  0  0  0  0  0  0  0
   47.5035   25.9839   46.8786 H   0  0  0  0  0  0  0  0  0  0  0  0
   47.8438   26.9463   48.4085 H   0  0  0  0  0  0  0  0  0  0  0  0
   43.9704   26.5742   47.5598 H   0  0  0  0  0  0  0  0  0  0  0  0
   45.1132   26.8407   46.2373 H   0  0  0  0  0  0  0  0  0  0  0  0
   44.8387   28.6079   48.7454 H   0  0  0  0  0  0  0  0  0  0  0  0
   44.1688   29.0009   47.1214 H   0  0  0  0  0  0  0  0  0  0  0  0
   43.7226   36.1659   45.3401 H   0  0  0  0  0  0  0  0  0  0  0  0
   46.3460   35.8840   41.5000 H   0  0  0  0  0  0  0  0  0  0  0  0
   48.1871   34.3987   40.7397 H   0  0  0  0  0  0  0  0  0  0  0  0
   48.9254   32.5788   42.2688 H   0  0  0  0  0  0  0  0  0  0  0  0
   47.8627   32.2777   44.4347 H   0  0  0  0  0  0  0  0  0  0  0  0
   47.8123   29.0722   49.3404 H   0  0  0  0  0  0  0  0  0  0  0  0
   48.6524   30.4953   50.0127 H   0  0  0  0  0  0  0  0  0  0  0  0
  1  2  2  0
  2 23  1  0
  3  2  1  0
  4  3  2  0
  5  4  1  0
  5  6  2  0
  6  1  1  0
  7  3  1  0
  7 12  1  0
  8  7  1  0
  8  9  1  0
  9 10  1  0
 11 12  1  0
 11 10  1  0
 13 14  2  0
 13  5  1  0
 15 14  1  0
 16 15  2  0
 17 16  1  0
 17 22  2  0
 18 17  1  0
 19 18  2  0
 19 20  1  0
 20 21  2  0
 21 22  1  0
 22 13  1  0
  1 24  1  0
  8 25  1  0
  8 26  1  0
  9 27  1  0
  9 28  1  0
 11 29  1  0
 11 30  1  0
 12 31  1  0
 12 32  1  0
 15 33  1  0
 18 34  1  0
 19 35  1  0
 20 36  1  0
 21 37  1  0
 23 38  1  0
 23 39  1  0
M  ISO  8  24  14  25  13  26  13  27  13  28  13  29  13  30  13  31  13
M  ISO  6  32  13  33  14  34  14  35  14  36  14  37  14
M  END
>  <minimizedAffinity>  (1) 
-6.54519796

>  <minimizedRMSD>  (1) 
0.288409442

$$$$
