
     RDKit          3D

 50 53  0  0  1  0  0  0  0  0999 V2000
   42.8610   34.3740   38.9560 C   0  0  1  0  0  0  0  0  0  0  0  0
   43.0820   35.1970   40.2160 C   0  0  1  0  0  0  0  0  0  0  0  0
   41.8290   35.6330   40.6860 O   0  0  0  0  0  0  0  0  0  0  0  0
   40.9520   35.9490   39.6460 C   0  0  0  0  0  0  0  0  0  0  0  0
   40.5050   34.7150   38.8880 C   0  0  2  0  0  0  0  0  0  0  0  0
   41.5910   33.6150   39.1650 C   0  0  1  0  0  0  0  0  0  0  0  0
   42.7610   35.2090   37.8330 O   0  0  0  0  0  0  0  0  0  0  0  0
   40.5680   34.9560   37.5240 O   0  0  0  0  0  0  0  0  0  0  0  0
   43.4950   34.2730   41.1880 O   0  0  0  0  0  0  0  0  0  0  0  0
   44.6350   34.3420   41.8860 C   0  0  0  0  0  0  0  0  0  0  0  0
   45.8700   34.4910   41.2380 C   0  0  0  0  0  0  0  0  0  0  0  0
   47.0200   34.5580   42.0030 C   0  0  0  0  0  0  0  0  0  0  0  0
   46.9230   34.4770   43.3770 N   0  0  0  0  0  0  0  0  0  0  0  0
   45.7100   34.3330   43.9720 C   0  0  0  0  0  0  0  0  0  0  0  0
   44.5770   34.2660   43.2290 N   0  0  0  0  0  0  0  0  0  0  0  0
   48.3750   34.7000   41.3740 C   0  0  0  0  0  0  0  0  0  0  0  0
   49.0720   36.0460   41.5510 C   0  0  0  0  0  0  0  0  0  0  0  0
   49.5550   34.7250   42.1820 C   0  0  0  0  0  0  0  0  0  0  0  0
   41.3490   32.5890   38.3290 O   0  0  0  0  0  0  0  0  0  0  0  0
   40.3820   31.6510   38.3870 C   0  0  0  0  0  0  0  0  0  0  0  0
   40.2800   30.7090   37.4830 O   0  0  0  0  0  0  0  0  0  0  0  0
   39.2570   31.2030   39.1570 N   0  0  0  0  0  0  0  0  0  0  0  0
   39.0070   29.7750   39.0920 C   0  0  0  0  0  0  0  0  0  0  0  0
   37.5590   29.4970   39.4450 C   0  0  0  0  0  0  0  0  0  0  0  0
   37.1720   29.9740   40.6710 O   0  0  0  0  0  0  0  0  0  0  0  0
   37.9200   31.0510   41.1210 C   0  0  0  0  0  0  0  0  0  0  0  0
   38.3420   31.9380   39.9780 C   0  0  0  0  0  0  0  0  0  0  0  0
   43.7041   33.6914   38.7737 H   0  0  0  0  0  0  0  0  0  0  0  0
   43.7760   36.0300   40.0304 H   0  0  0  0  0  0  0  0  0  0  0  0
   40.0665   36.4478   40.0669 H   0  0  0  0  0  0  0  0  0  0  0  0
   41.4817   36.6078   38.9421 H   0  0  0  0  0  0  0  0  0  0  0  0
   39.4864   34.4312   39.1912 H   0  0  0  0  0  0  0  0  0  0  0  0
   41.6137   33.1427   40.1582 H   0  0  0  0  0  0  0  0  0  0  0  0
   42.6486   36.1472   38.1283 H   0  0  0  0  0  0  0  0  0  0  0  0
   40.8152   35.9017   37.3671 H   0  0  0  0  0  0  0  0  0  0  0  0
   45.9228   34.5534   40.1410 H   0  0  0  0  0  0  0  0  0  0  0  0
   45.6460   34.2701   45.0683 H   0  0  0  0  0  0  0  0  0  0  0  0
   48.0805   34.0742   40.5187 H   0  0  0  0  0  0  0  0  0  0  0  0
   49.6248   36.5062   40.7187 H   0  0  0  0  0  0  0  0  0  0  0  0
   48.7986   37.0514   41.9037 H   0  0  0  0  0  0  0  0  0  0  0  0
   49.4747   34.5786   43.2692 H   0  0  0  0  0  0  0  0  0  0  0  0
   50.5052   34.1709   42.1709 H   0  0  0  0  0  0  0  0  0  0  0  0
   39.2117   29.4132   38.0736 H   0  0  0  0  0  0  0  0  0  0  0  0
   39.6637   29.2557   39.8055 H   0  0  0  0  0  0  0  0  0  0  0  0
   36.9226   29.9630   38.6783 H   0  0  0  0  0  0  0  0  0  0  0  0
   37.4509   28.4031   39.4860 H   0  0  0  0  0  0  0  0  0  0  0  0
   37.3141   31.6387   41.8263 H   0  0  0  0  0  0  0  0  0  0  0  0
   38.8243   30.6649   41.6141 H   0  0  0  0  0  0  0  0  0  0  0  0
   38.8345   32.8405   40.3690 H   0  0  0  0  0  0  0  0  0  0  0  0
   37.4643   32.2440   39.3897 H   0  0  0  0  0  0  0  0  0  0  0  0
  1  6  1  0
  1  2  1  0
  2  3  1  0
  2  9  1  0
  4  3  1  0
  5  6  1  0
  5  4  1  0
  7  1  1  0
  8  5  1  0
  9 10  1  0
 10 15  1  0
 11 10  2  0
 11 12  1  0
 12 13  2  0
 13 14  1  0
 15 14  2  0
 16 17  1  0
 16 12  1  0
 16 18  1  0
 17 18  1  0
 19 20  1  0
 19  6  1  0
 20 22  1  0
 21 20  2  0
 22 27  1  0
 23 22  1  0
 23 24  1  0
 24 25  1  0
 25 26  1  0
 27 26  1  0
  1 28  1  6
  2 29  1  6
  4 30  1  0
  4 31  1  0
  5 32  1  1
  6 33  1  1
  7 34  1  0
  8 35  1  0
 11 36  1  0
 14 37  1  0
 16 38  1  0
 17 39  1  0
 17 40  1  0
 18 41  1  0
 18 42  1  0
 23 43  1  0
 23 44  1  0
 24 45  1  0
 24 46  1  0
 26 47  1  0
 26 48  1  0
 27 49  1  0
 27 50  1  0
M  ISO  8  28  13  29  13  30  13  31  13  32  13  33  13  34   3  35   3
M  ISO  8  36  14  37  14  38  13  39  13  40  13  41  13  42  13  43  13
M  ISO  7  44  13  45  13  46  13  47  13  48  13  49  13  50  13
M  END
>  <minimizedAffinity>  (1) 
-6.53818035

>  <minimizedRMSD>  (1) 
1.96540117

$$$$
