
     RDKit          3D

 46 50  0  0  1  0  0  0  0  0999 V2000
   46.1880   32.1610   46.4780 C   0  0  1  0  0  0  0  0  0  0  0  0
   46.0540   32.2430   47.9400 C   0  0  0  0  0  0  0  0  0  0  0  0
   45.0830   31.3980   47.0220 C   0  0  2  0  0  0  0  0  0  0  0  0
   45.0460   29.9380   47.1550 C   0  0  0  0  0  0  0  0  0  0  0  0
   45.0580   29.2120   48.3050 C   0  0  0  0  0  0  0  0  0  0  0  0
   45.1530   27.8290   48.3920 C   0  0  0  0  0  0  0  0  0  0  0  0
   45.2450   27.1350   47.1750 C   0  0  0  0  0  0  0  0  0  0  0  0
   45.2320   27.8560   45.9830 C   0  0  0  0  0  0  0  0  0  0  0  0
   45.2640   27.1240   44.8120 C   0  0  0  0  0  0  0  0  0  0  0  0
   45.1850   27.7930   43.5960 C   0  0  0  0  0  0  0  0  0  0  0  0
   45.0720   29.1680   43.5550 C   0  0  0  0  0  0  0  0  0  0  0  0
   45.0460   29.8470   44.7510 C   0  0  0  0  0  0  0  0  0  0  0  0
   45.1320   29.2240   45.9870 C   0  0  0  0  0  0  0  0  0  0  0  0
   44.7130   35.3160   45.2460 C   0  0  0  0  0  0  0  0  0  0  0  0
   45.3630   35.4600   43.9660 C   0  0  0  0  0  0  0  0  0  0  0  0
   46.2940   34.4760   43.5770 C   0  0  0  0  0  0  0  0  0  0  0  0
   46.5400   33.4550   44.3970 N   0  0  0  0  0  0  0  0  0  0  0  0
   45.9000   33.3460   45.6130 C   0  0  0  0  0  0  0  0  0  0  0  0
   45.0160   34.2490   46.0210 N   0  0  0  0  0  0  0  0  0  0  0  0
   46.9490   34.5930   42.3210 N   0  0  0  0  0  0  0  0  0  0  0  0
   48.3610   34.9080   42.2300 C   0  0  0  0  0  0  0  0  0  0  0  0
   48.7420   35.4830   40.9070 C   0  0  0  0  0  0  0  0  0  0  0  0
   48.2180   34.8430   39.8150 O   0  0  0  0  0  0  0  0  0  0  0  0
   47.2110   33.9450   40.0580 C   0  0  0  0  0  0  0  0  0  0  0  0
   46.2020   34.3960   41.0950 C   0  0  0  0  0  0  0  0  0  0  0  0
   47.0402   31.8990   45.8337 H   0  0  0  0  0  0  0  0  0  0  0  0
   46.7797   31.7416   48.5972 H   0  0  0  0  0  0  0  0  0  0  0  0
   45.9494   33.0431   48.6876 H   0  0  0  0  0  0  0  0  0  0  0  0
   44.0096   31.3460   46.7870 H   0  0  0  0  0  0  0  0  0  0  0  0
   44.9861   29.7697   49.2504 H   0  0  0  0  0  0  0  0  0  0  0  0
   45.1560   27.3068   49.3601 H   0  0  0  0  0  0  0  0  0  0  0  0
   45.3262   26.0381   47.1629 H   0  0  0  0  0  0  0  0  0  0  0  0
   45.3507   26.0278   44.8413 H   0  0  0  0  0  0  0  0  0  0  0  0
   45.2128   27.2208   42.6570 H   0  0  0  0  0  0  0  0  0  0  0  0
   45.0049   29.7037   42.5966 H   0  0  0  0  0  0  0  0  0  0  0  0
   44.9520   30.9427   44.7257 H   0  0  0  0  0  0  0  0  0  0  0  0
   43.9813   36.0632   45.5871 H   0  0  0  0  0  0  0  0  0  0  0  0
   45.1380   36.3148   43.3113 H   0  0  0  0  0  0  0  0  0  0  0  0
   48.6094   35.6376   43.0148 H   0  0  0  0  0  0  0  0  0  0  0  0
   48.9183   33.9679   42.3549 H   0  0  0  0  0  0  0  0  0  0  0  0
   48.4037   36.5294   40.8817 H   0  0  0  0  0  0  0  0  0  0  0  0
   49.8334   35.3691   40.8301 H   0  0  0  0  0  0  0  0  0  0  0  0
   46.6760   33.7652   39.1138 H   0  0  0  0  0  0  0  0  0  0  0  0
   47.6897   33.0403   40.4608 H   0  0  0  0  0  0  0  0  0  0  0  0
   45.7268   35.3373   40.7817 H   0  0  0  0  0  0  0  0  0  0  0  0
   45.4008   33.6538   41.2266 H   0  0  0  0  0  0  0  0  0  0  0  0
  1  3  1  0
  1  2  1  0
  3  4  1  0
  3  2  1  0
  4  5  2  0
  5  6  1  0
  7  6  2  0
  8 13  2  0
  8  7  1  0
  9  8  1  0
 10  9  2  0
 11 10  1  0
 11 12  2  0
 12 13  1  0
 13  4  1  0
 14 19  2  0
 15 14  1  0
 16 15  2  0
 16 17  1  0
 17 18  2  0
 18 19  1  0
 18  1  1  0
 20 16  1  0
 21 20  1  0
 22 21  1  0
 23 24  1  0
 23 22  1  0
 24 25  1  0
 25 20  1  0
  1 26  1  1
  2 27  1  0
  2 28  1  0
  3 29  1  6
  5 30  1  0
  6 31  1  0
  7 32  1  0
  9 33  1  0
 10 34  1  0
 11 35  1  0
 12 36  1  0
 14 37  1  0
 15 38  1  0
 21 39  1  0
 21 40  1  0
 22 41  1  0
 22 42  1  0
 24 43  1  0
 24 44  1  0
 25 45  1  0
 25 46  1  0
M  ISO  8  26  13  27  13  28  13  29  13  30  14  31  14  32  14  33  14
M  ISO  8  34  14  35  14  36  14  37  14  38  14  39  13  40  13  41  13
M  ISO  5  42  13  43  13  44  13  45  13  46  13
M  END
>  <minimizedAffinity>  (1) 
-5.28292799

>  <minimizedRMSD>  (1) 
0.925867498

$$$$
