
     RDKit          3D

 50 52  0  0  1  0  0  0  0  0999 V2000
   46.6680   34.8470   41.9830 C   0  0  0  0  0  0  0  0  0  0  0  0
   45.2230   34.7220   41.6910 C   0  0  0  0  0  0  0  0  0  0  0  0
   44.3180   35.6920   42.2070 C   0  0  0  0  0  0  0  0  0  0  0  0
   42.6950   35.1200   41.5910 S   0  0  0  0  0  0  0  0  0  0  0  0
   43.5290   33.6310   40.7180 C   0  0  0  0  0  0  0  0  0  0  0  0
   44.6160   33.8060   40.9920 N   0  0  0  0  0  0  0  0  0  0  0  0
   42.8240   32.6810   39.9830 O   0  0  0  0  0  0  0  0  0  0  0  0
   41.0600   33.2440   38.1000 O   0  0  0  0  0  0  0  0  0  0  0  0
   42.5640   33.0310   38.3340 P   0  0  1  0  0  0  0  0  0  0  0  0
   43.3530   34.4840   37.9770 O   0  0  0  0  0  0  0  0  0  0  0  0
   43.1720   31.8030   37.3700 O   0  0  0  0  0  0  0  0  0  0  0  0
   43.6670   29.6140   37.7870 N   0  0  0  0  0  0  0  0  0  0  0  0
   42.6010   30.5720   37.5510 C   0  0  2  0  0  0  0  0  0  0  0  0
   41.7300   30.1370   36.3980 C   0  0  0  0  0  0  0  0  0  0  0  0
   41.9280   28.7700   36.2130 O   0  0  0  0  0  0  0  0  0  0  0  0
   43.1590   28.6410   35.5720 C   0  0  0  0  0  0  0  0  0  0  0  0
   44.2060   29.0550   36.5610 C   0  0  0  0  0  0  0  0  0  0  0  0
   47.5490   34.5330   40.8190 C   0  0  0  0  0  0  0  0  0  0  0  0
   48.7890   33.8380   41.1790 C   0  0  0  0  0  0  0  0  0  0  0  0
   49.0970   32.6910   40.4550 C   0  0  0  0  0  0  0  0  0  0  0  0
   50.2380   31.9740   40.7200 C   0  0  0  0  0  0  0  0  0  0  0  0
   51.0530   32.4530   41.7410 N   0  0  0  0  0  0  0  0  0  0  0  0
   50.7150   33.5710   42.4180 C   0  0  0  0  0  0  0  0  0  0  0  0
   49.6090   34.2270   42.1260 N   0  0  0  0  0  0  0  0  0  0  0  0
   47.9950   32.1290   39.1490 S   0  0  0  0  0  0  0  0  0  0  0  0
   48.8140   32.2690   37.5450 C   0  0  0  0  0  0  0  0  0  0  0  0
   48.5040   33.6260   36.9470 C   0  0  0  0  0  0  0  0  0  0  0  0
   48.0420   33.4180   35.6040 N   0  0  0  0  0  0  0  0  0  0  0  0
   46.8691   35.8807   42.3009 H   0  0  0  0  0  0  0  0  0  0  0  0
   46.9004   34.1116   42.7674 H   0  0  0  0  0  0  0  0  0  0  0  0
   44.5414   36.5729   42.8267 H   0  0  0  0  0  0  0  0  0  0  0  0
   43.6009   34.9406   38.8197 H   0  0  0  0  0  0  0  0  0  0  0  0
   44.4279   30.0875   38.2946 H   0  0  0  0  0  0  0  0  0  0  0  0
   41.9243   30.6293   38.4163 H   0  0  0  0  0  0  0  0  0  0  0  0
   40.6733   30.3349   36.6306 H   0  0  0  0  0  0  0  0  0  0  0  0
   41.9915   30.6924   35.4852 H   0  0  0  0  0  0  0  0  0  0  0  0
   43.3191   27.5968   35.2655 H   0  0  0  0  0  0  0  0  0  0  0  0
   43.2009   29.2653   34.6673 H   0  0  0  0  0  0  0  0  0  0  0  0
   44.8082   28.1713   36.8185 H   0  0  0  0  0  0  0  0  0  0  0  0
   44.8018   29.8468   36.0834 H   0  0  0  0  0  0  0  0  0  0  0  0
   47.8140   35.4775   40.3212 H   0  0  0  0  0  0  0  0  0  0  0  0
   46.9821   33.8538   40.1653 H   0  0  0  0  0  0  0  0  0  0  0  0
   50.4947   31.0667   40.1536 H   0  0  0  0  0  0  0  0  0  0  0  0
   51.3694   33.9388   43.2221 H   0  0  0  0  0  0  0  0  0  0  0  0
   49.9011   32.1638   37.6760 H   0  0  0  0  0  0  0  0  0  0  0  0
   48.4518   31.4766   36.8735 H   0  0  0  0  0  0  0  0  0  0  0  0
   47.7228   34.1260   37.5383 H   0  0  0  0  0  0  0  0  0  0  0  0
   49.4016   34.2618   36.9506 H   0  0  0  0  0  0  0  0  0  0  0  0
   47.1030   32.9952   35.6255 H   0  0  0  0  0  0  0  0  0  0  0  0
   48.0005   34.3216   35.1114 H   0  0  0  0  0  0  0  0  0  0  0  0
  2  1  1  0
  2  3  2  0
  4  3  1  0
  5  6  2  0
  5  4  1  0
  6  2  1  0
  7  5  1  0
  9  8  2  0
  9  7  1  0
 10  9  1  0
 11  9  1  0
 13 11  1  0
 13 12  1  0
 14 13  1  0
 15 14  1  0
 16 15  1  0
 16 17  1  0
 17 12  1  0
 18 19  1  0
 18  1  1  0
 19 24  2  0
 20 21  2  0
 20 19  1  0
 21 22  1  0
 22 23  2  0
 24 23  1  0
 25 20  1  0
 26 25  1  0
 27 26  1  0
 28 27  1  0
  1 29  1  0
  1 30  1  0
  3 31  1  0
 10 32  1  0
 12 33  1  0
 13 34  1  1
 14 35  1  0
 14 36  1  0
 16 37  1  0
 16 38  1  0
 17 39  1  0
 17 40  1  0
 18 41  1  0
 18 42  1  0
 21 43  1  0
 23 44  1  0
 26 45  1  0
 26 46  1  0
 27 47  1  0
 27 48  1  0
 28 49  1  0
 28 50  1  0
M  ISO  8  29   8  30   8  31  14  32   3  33   5  34  13  35  13  36  13
M  ISO  8  37  13  38  13  39  13  40  13  41   8  42   8  43  14  44  14
M  ISO  6  45   8  46   8  47   8  48   8  49   5  50   5
M  END
>  <minimizedAffinity>  (1) 
-4.3755641

>  <minimizedRMSD>  (1) 
2.46497011

$$$$
