
     RDKit          3D

 36 38  0  0  0  0  0  0  0  0999 V2000
   44.7260   34.1720   46.8430 C   0  0  0  0  0  0  0  0  0  0  0  0
   45.0760   34.4600   45.5160 C   0  0  0  0  0  0  0  0  0  0  0  0
   46.0060   33.6970   44.8420 C   0  0  0  0  0  0  0  0  0  0  0  0
   46.5590   32.6620   45.5250 N   0  0  0  0  0  0  0  0  0  0  0  0
   46.2140   32.3970   46.7950 C   0  0  0  0  0  0  0  0  0  0  0  0
   45.3100   33.1330   47.4600 N   0  0  0  0  0  0  0  0  0  0  0  0
   46.8560   31.2870   47.4120 N   0  0  0  0  0  0  0  0  0  0  0  0
   47.0750   31.3020   48.8450 C   0  0  0  0  0  0  0  0  0  0  0  0
   48.5160   30.9000   49.1420 C   0  0  0  0  0  0  0  0  0  0  0  0
   48.7140   29.6120   48.6550 O   0  0  0  0  0  0  0  0  0  0  0  0
   48.7020   29.6820   47.2630 C   0  0  0  0  0  0  0  0  0  0  0  0
   47.3290   30.1090   46.7360 C   0  0  0  0  0  0  0  0  0  0  0  0
   44.1940   32.5360   42.7700 Cl  0  0  0  0  0  0  0  0  0  0  0  0
   45.6230   33.4710   42.4520 C   0  0  0  0  0  0  0  0  0  0  0  0
   46.4000   33.9680   43.4480 C   0  0  0  0  0  0  0  0  0  0  0  0
   47.4990   34.6880   43.0730 C   0  0  0  0  0  0  0  0  0  0  0  0
   47.8440   34.9250   41.7920 C   0  0  0  0  0  0  0  0  0  0  0  0
   47.0620   34.4250   40.7750 C   0  0  0  0  0  0  0  0  0  0  0  0
   45.9450   33.6940   41.1250 C   0  0  0  0  0  0  0  0  0  0  0  0
   49.0380   35.7080   41.3810 C   0  0  0  0  0  0  0  0  0  0  0  0
   50.1510   34.9980   41.7480 F   0  0  0  0  0  0  0  0  0  0  0  0
   49.0280   36.9680   41.9600 F   0  0  0  0  0  0  0  0  0  0  0  0
   49.0140   35.8630   40.0070 F   0  0  0  0  0  0  0  0  0  0  0  0
   43.9835   34.7887   47.3706 H   0  0  0  0  0  0  0  0  0  0  0  0
   44.6004   35.3094   45.0038 H   0  0  0  0  0  0  0  0  0  0  0  0
   46.8888   32.3139   49.2341 H   0  0  0  0  0  0  0  0  0  0  0  0
   46.3884   30.5917   49.3289 H   0  0  0  0  0  0  0  0  0  0  0  0
   49.2074   31.5968   48.6456 H   0  0  0  0  0  0  0  0  0  0  0  0
   48.7051   30.9314   50.2252 H   0  0  0  0  0  0  0  0  0  0  0  0
   49.4546   30.4142   46.9351 H   0  0  0  0  0  0  0  0  0  0  0  0
   48.9298   28.6824   46.8645 H   0  0  0  0  0  0  0  0  0  0  0  0
   47.4077   30.3203   45.6594 H   0  0  0  0  0  0  0  0  0  0  0  0
   46.6158   29.2919   46.9196 H   0  0  0  0  0  0  0  0  0  0  0  0
   48.1416   35.0995   43.8653 H   0  0  0  0  0  0  0  0  0  0  0  0
   47.3187   34.6021   39.7201 H   0  0  0  0  0  0  0  0  0  0  0  0
   45.2996   33.2816   40.3355 H   0  0  0  0  0  0  0  0  0  0  0  0
  1  6  2  0
  2  1  1  0
  3  2  2  0
  3  4  1  0
  4  5  2  0
  5  7  1  0
  5  6  1  0
  7  8  1  0
  8  9  1  0
 10  9  1  0
 11 10  1  0
 12 11  1  0
 12  7  1  0
 14 13  1  0
 14 15  2  0
 15  3  1  0
 16 15  1  0
 17 16  2  0
 18 19  2  0
 18 17  1  0
 19 14  1  0
 20 21  1  0
 20 17  1  0
 20 22  1  0
 23 20  1  0
  1 24  1  0
  2 25  1  0
  8 26  1  0
  8 27  1  0
  9 28  1  0
  9 29  1  0
 11 30  1  0
 11 31  1  0
 12 32  1  0
 12 33  1  0
 16 34  1  0
 18 35  1  0
 19 36  1  0
M  ISO  8  24  14  25  14  26  13  27  13  28  13  29  13  30  13  31  13
M  ISO  5  32  13  33  13  34  14  35  14  36  14
M  END
>  <minimizedAffinity>  (1) 
-6.41283989

>  <minimizedRMSD>  (1) 
0.403171659

$$$$
