
     RDKit          3D

 31 33  0  0  0  0  0  0  0  0999 V2000
   45.5140   34.0150   44.8950 C   0  0  0  0  0  0  0  0  0  0  0  0
   45.1010   33.2480   43.7770 C   0  0  0  0  0  0  0  0  0  0  0  0
   45.4340   31.8960   43.7490 C   0  0  0  0  0  0  0  0  0  0  0  0
   46.1390   31.3890   44.8020 N   0  0  0  0  0  0  0  0  0  0  0  0
   46.5120   32.1470   45.8440 C   0  0  0  0  0  0  0  0  0  0  0  0
   46.2070   33.4510   45.8960 N   0  0  0  0  0  0  0  0  0  0  0  0
   47.2660   31.5500   46.9440 C   0  0  0  0  0  0  0  0  0  0  0  0
   47.5790   30.2170   46.9640 C   0  0  0  0  0  0  0  0  0  0  0  0
   48.2900   29.6330   47.9910 C   0  0  0  0  0  0  0  0  0  0  0  0
   48.6780   30.4570   49.0130 N   0  0  0  0  0  0  0  0  0  0  0  0
   48.3670   31.7520   48.9810 C   0  0  0  0  0  0  0  0  0  0  0  0
   47.6680   32.3500   47.9790 N   0  0  0  0  0  0  0  0  0  0  0  0
   44.3620   33.8150   42.6890 N   0  0  0  0  0  0  0  0  0  0  0  0
   43.5890   32.9270   41.8230 C   0  0  0  0  0  0  0  0  0  0  0  0
   42.6830   33.6980   40.9240 C   0  0  0  0  0  0  0  0  0  0  0  0
   42.4490   35.0000   41.2730 O   0  0  0  0  0  0  0  0  0  0  0  0
   43.6120   35.7520   41.4160 C   0  0  0  0  0  0  0  0  0  0  0  0
   44.4610   35.2720   42.5550 C   0  0  0  0  0  0  0  0  0  0  0  0
   45.2635   35.0850   44.9426 H   0  0  0  0  0  0  0  0  0  0  0  0
   45.1380   31.2565   42.9043 H   0  0  0  0  0  0  0  0  0  0  0  0
   47.2494   29.5857   46.1257 H   0  0  0  0  0  0  0  0  0  0  0  0
   48.5329   28.5602   47.9892 H   0  0  0  0  0  0  0  0  0  0  0  0
   48.6977   32.3799   49.8214 H   0  0  0  0  0  0  0  0  0  0  0  0
   44.2821   32.3332   41.2090 H   0  0  0  0  0  0  0  0  0  0  0  0
   42.9729   32.2736   42.4582 H   0  0  0  0  0  0  0  0  0  0  0  0
   41.7139   33.1782   40.8986 H   0  0  0  0  0  0  0  0  0  0  0  0
   43.1995   33.7421   39.9538 H   0  0  0  0  0  0  0  0  0  0  0  0
   44.1952   35.6827   40.4859 H   0  0  0  0  0  0  0  0  0  0  0  0
   43.3184   36.7906   41.6283 H   0  0  0  0  0  0  0  0  0  0  0  0
   45.5091   35.5481   42.3671 H   0  0  0  0  0  0  0  0  0  0  0  0
   44.1072   35.7403   43.4853 H   0  0  0  0  0  0  0  0  0  0  0  0
  1  6  2  0
  2  1  1  0
  3  2  2  0
  3  4  1  0
  4  5  2  0
  5  6  1  0
  5  7  1  0
  7  8  2  0
  7 12  1  0
  8  9  1  0
  9 10  2  0
 11 10  1  0
 12 11  2  0
 13  2  1  0
 14 13  1  0
 15 16  1  0
 15 14  1  0
 16 17  1  0
 17 18  1  0
 18 13  1  0
  1 19  1  0
  3 20  1  0
  8 21  1  0
  9 22  1  0
 11 23  1  0
 14 24  1  0
 14 25  1  0
 15 26  1  0
 15 27  1  0
 17 28  1  0
 17 29  1  0
 18 30  1  0
 18 31  1  0
M  ISO  8  19  14  20  14  21  14  22  14  23  14  24  13  25  13  26  13
M  ISO  5  27  13  28  13  29  13  30  13  31  13
M  END
>  <minimizedAffinity>  (1) 
-4.35439587

>  <minimizedRMSD>  (1) 
2.74505615

$$$$
