
     RDKit          3D

 48 50  0  0  1  0  0  0  0  0999 V2000
   47.1600   33.0570   46.6870 O   0  0  0  0  0  0  0  0  0  0  0  0
   45.6950   32.7990   46.6540 P   0  0  1  0  0  0  0  0  0  0  0  0
   45.3490   31.6390   45.4730 O   0  0  0  0  0  0  0  0  0  0  0  0
   45.2710   32.2240   48.1490 O   0  0  0  0  0  0  0  0  0  0  0  0
   47.1140   30.7070   48.1120 C   0  0  2  0  0  0  0  0  0  0  0  0
   45.6570   30.9140   48.2750 C   0  0  2  0  0  0  0  0  0  0  0  0
   45.0140   30.0300   47.3250 C   0  0  0  0  0  0  0  0  0  0  0  0
   45.9000   28.9940   47.0000 O   0  0  0  0  0  0  0  0  0  0  0  0
   46.9860   29.1630   47.7920 C   0  0  0  0  0  0  0  0  0  0  0  0
   47.8840   30.8240   49.2040 O   0  0  0  0  0  0  0  0  0  0  0  0
   49.0600   31.3750   49.2660 C   0  0  0  0  0  0  0  0  0  0  0  0
   49.8810   30.6570   50.3230 C   0  0  0  0  0  0  0  0  0  0  0  0
   44.9560   34.2960   46.3030 O   0  0  0  0  0  0  0  0  0  0  0  0
   44.7110   34.3110   42.7210 C   0  0  0  0  0  0  0  0  0  0  0  0
   44.7450   35.7070   42.3840 C   0  0  0  0  0  0  0  0  0  0  0  0
   44.8560   36.5990   43.4650 C   0  0  0  0  0  0  0  0  0  0  0  0
   44.9230   36.1170   44.7240 N   0  0  0  0  0  0  0  0  0  0  0  0
   44.8880   34.8040   44.9930 C   0  0  0  0  0  0  0  0  0  0  0  0
   44.7830   33.9320   43.9860 N   0  0  0  0  0  0  0  0  0  0  0  0
   44.6010   33.4050   41.7160 O   0  0  0  0  0  0  0  0  0  0  0  0
   43.4700   32.9300   39.7090 N   0  0  0  0  0  0  0  0  0  0  0  0
   43.3460   33.1780   41.1070 C   0  0  1  0  0  0  0  0  0  0  0  0
   42.6750   31.9600   41.7160 C   0  0  0  0  0  0  0  0  0  0  0  0
   41.3490   31.9850   41.2980 O   0  0  0  0  0  0  0  0  0  0  0  0
   41.2040   31.9880   39.9230 C   0  0  0  0  0  0  0  0  0  0  0  0
   42.4980   32.0220   39.1720 C   0  0  0  0  0  0  0  0  0  0  0  0
   45.0952   30.7880   45.9106 H   0  0  0  0  0  0  0  0  0  0  0  0
   47.5834   31.4232   47.4216 H   0  0  0  0  0  0  0  0  0  0  0  0
   45.3475   30.6687   49.3017 H   0  0  0  0  0  0  0  0  0  0  0  0
   44.1009   29.6091   47.7712 H   0  0  0  0  0  0  0  0  0  0  0  0
   44.7447   30.5897   46.4171 H   0  0  0  0  0  0  0  0  0  0  0  0
   46.8599   28.5962   48.7263 H   0  0  0  0  0  0  0  0  0  0  0  0
   47.8920   28.7987   47.2856 H   0  0  0  0  0  0  0  0  0  0  0  0
   49.5596   31.2912   48.2896 H   0  0  0  0  0  0  0  0  0  0  0  0
   48.9613   32.4388   49.5278 H   0  0  0  0  0  0  0  0  0  0  0  0
   49.5359   30.9588   51.3229 H   0  0  0  0  0  0  0  0  0  0  0  0
   49.7596   29.5700   50.2058 H   0  0  0  0  0  0  0  0  0  0  0  0
   50.9421   30.9222   50.2058 H   0  0  0  0  0  0  0  0  0  0  0  0
   44.6876   36.0570   41.3428 H   0  0  0  0  0  0  0  0  0  0  0  0
   44.8881   37.6838   43.2857 H   0  0  0  0  0  0  0  0  0  0  0  0
   43.3770   33.8287   39.2144 H   0  0  0  0  0  0  0  0  0  0  0  0
   42.7512   34.0883   41.2731 H   0  0  0  0  0  0  0  0  0  0  0  0
   43.1663   31.0408   41.3644 H   0  0  0  0  0  0  0  0  0  0  0  0
   42.7448   31.9765   42.8137 H   0  0  0  0  0  0  0  0  0  0  0  0
   40.6591   31.0781   39.6312 H   0  0  0  0  0  0  0  0  0  0  0  0
   40.6623   32.9095   39.6633 H   0  0  0  0  0  0  0  0  0  0  0  0
   42.2860   32.3189   38.1342 H   0  0  0  0  0  0  0  0  0  0  0  0
   42.9327   31.0145   39.2490 H   0  0  0  0  0  0  0  0  0  0  0  0
  2  1  2  0
  2  4  1  0
  3  2  1  0
  4  6  1  0
  5  6  1  0
  5 10  1  0
  7  6  1  0
  8  7  1  0
  8  9  1  0
  9  5  1  0
 10 11  1  0
 11 12  1  0
 13  2  1  0
 14 19  1  0
 15 14  2  0
 15 16  1  0
 16 17  2  0
 17 18  1  0
 18 13  1  0
 19 18  2  0
 20 14  1  0
 21 22  1  0
 22 20  1  0
 22 23  1  0
 24 23  1  0
 25 24  1  0
 26 21  1  0
 26 25  1  0
  3 27  1  0
  5 28  1  6
  6 29  1  1
  7 30  1  0
  7 31  1  0
  9 32  1  0
  9 33  1  0
 11 34  1  0
 11 35  1  0
 12 36  1  0
 12 37  1  0
 12 38  1  0
 15 39  1  0
 16 40  1  0
 21 41  1  0
 22 42  1  6
 23 43  1  0
 23 44  1  0
 25 45  1  0
 25 46  1  0
 26 47  1  0
 26 48  1  0
M  ISO  8  27   3  28  13  29  13  30  13  31  13  32  13  33  13  34   8
M  ISO  8  35   8  36   8  37   8  38   8  39  14  40  14  41   5  42  13
M  ISO  6  43  13  44  13  45  13  46  13  47  13  48  13
M  END
>  <minimizedAffinity>  (1) 
-4.73254776

>  <minimizedRMSD>  (1) 
4.56074858

$$$$
