
     RDKit          3D

 47 50  0  0  1  0  0  0  0  0999 V2000
   48.3110   34.0770   40.9490 C   0  0  0  0  0  0  0  0  0  0  0  0
   47.5950   34.1730   39.7780 C   0  0  0  0  0  0  0  0  0  0  0  0
   47.8130   33.3380   38.6780 C   0  0  0  0  0  0  0  0  0  0  0  0
   48.7900   32.4100   38.8390 N   0  0  0  0  0  0  0  0  0  0  0  0
   49.4890   32.3160   39.9790 C   0  0  0  0  0  0  0  0  0  0  0  0
   49.2470   33.1380   41.0070 N   0  0  0  0  0  0  0  0  0  0  0  0
   50.5510   31.2770   40.1740 C   0  0  2  0  0  0  0  0  0  0  0  0
   50.8990   30.8710   41.5700 C   0  0  0  0  0  0  0  0  0  0  0  0
   51.8420   31.7610   40.7420 C   0  0  1  0  0  0  0  0  0  0  0  0
   53.0630   31.1150   40.3930 N   0  0  0  0  0  0  0  0  0  0  0  0
   53.3040   29.8470   41.0060 C   0  0  0  0  0  0  0  0  0  0  0  0
   54.7240   29.4410   40.6020 C   0  0  0  0  0  0  0  0  0  0  0  0
   54.8490   29.2370   39.2570 O   0  0  0  0  0  0  0  0  0  0  0  0
   54.1760   30.0780   38.4340 C   0  0  0  0  0  0  0  0  0  0  0  0
   53.4560   31.2270   39.0330 C   0  0  0  0  0  0  0  0  0  0  0  0
   48.0590   34.9450   42.0730 C   0  0  0  0  0  0  0  0  0  0  0  0
   46.6050   34.9220   42.4250 C   0  0  0  0  0  0  0  0  0  0  0  0
   44.6160   36.3410   44.1390 Cl  0  0  0  0  0  0  0  0  0  0  0  0
   45.4460   34.8920   44.6580 C   0  0  0  0  0  0  0  0  0  0  0  0
   46.3430   34.3280   43.7710 C   0  0  0  0  0  0  0  0  0  0  0  0
   47.0020   33.1850   44.1690 C   0  0  0  0  0  0  0  0  0  0  0  0
   46.7740   32.6180   45.4130 C   0  0  0  0  0  0  0  0  0  0  0  0
   45.8530   33.2200   46.2920 C   0  0  0  0  0  0  0  0  0  0  0  0
   45.2020   34.3560   45.8880 C   0  0  0  0  0  0  0  0  0  0  0  0
   44.2780   35.0070   46.7030 O   0  0  0  0  0  0  0  0  0  0  0  0
   46.8136   34.9436   39.7037 H   0  0  0  0  0  0  0  0  0  0  0  0
   47.2333   33.4270   37.7474 H   0  0  0  0  0  0  0  0  0  0  0  0
   50.2560   30.7121   39.2774 H   0  0  0  0  0  0  0  0  0  0  0  0
   50.3469   31.2931   42.4227 H   0  0  0  0  0  0  0  0  0  0  0  0
   50.9931   29.9167   42.1090 H   0  0  0  0  0  0  0  0  0  0  0  0
   52.2995   32.7592   40.8065 H   0  0  0  0  0  0  0  0  0  0  0  0
   53.2282   29.9317   42.1001 H   0  0  0  0  0  0  0  0  0  0  0  0
   52.5655   29.0985   40.6829 H   0  0  0  0  0  0  0  0  0  0  0  0
   55.4180   30.2395   40.9033 H   0  0  0  0  0  0  0  0  0  0  0  0
   54.9553   28.4911   41.1062 H   0  0  0  0  0  0  0  0  0  0  0  0
   53.4324   29.4757   37.8915 H   0  0  0  0  0  0  0  0  0  0  0  0
   54.9627   30.5425   37.8214 H   0  0  0  0  0  0  0  0  0  0  0  0
   52.5450   31.3916   38.4388 H   0  0  0  0  0  0  0  0  0  0  0  0
   54.1822   32.0531   39.0172 H   0  0  0  0  0  0  0  0  0  0  0  0
   48.6478   34.6021   42.9366 H   0  0  0  0  0  0  0  0  0  0  0  0
   48.3485   35.9722   41.8065 H   0  0  0  0  0  0  0  0  0  0  0  0
   46.2253   35.9544   42.4168 H   0  0  0  0  0  0  0  0  0  0  0  0
   46.0946   34.2928   41.6809 H   0  0  0  0  0  0  0  0  0  0  0  0
   47.7234   32.7132   43.4857 H   0  0  0  0  0  0  0  0  0  0  0  0
   47.3087   31.7042   45.7116 H   0  0  0  0  0  0  0  0  0  0  0  0
   45.6599   32.7864   47.2843 H   0  0  0  0  0  0  0  0  0  0  0  0
   44.0733   34.6492   47.6031 H   0  0  0  0  0  0  0  0  0  0  0  0
  1  6  1  0
  1 16  1  0
  2  1  2  0
  3  4  2  0
  3  2  1  0
  4  5  1  0
  5  7  1  0
  5  6  2  0
  7  9  1  0
  7  8  1  0
  9  8  1  0
 10 15  1  0
 10  9  1  0
 10 11  1  0
 12 11  1  0
 13 12  1  0
 14 15  1  0
 14 13  1  0
 16 17  1  0
 17 20  1  0
 18 19  1  0
 19 24  2  0
 20 21  2  0
 20 19  1  0
 21 22  1  0
 22 23  2  0
 24 23  1  0
 24 25  1  0
  2 26  1  0
  3 27  1  0
  7 28  1  6
  8 29  1  0
  8 30  1  0
  9 31  1  1
 11 32  1  0
 11 33  1  0
 12 34  1  0
 12 35  1  0
 14 36  1  0
 14 37  1  0
 15 38  1  0
 15 39  1  0
 16 40  1  0
 16 41  1  0
 17 42  1  0
 17 43  1  0
 21 44  1  0
 22 45  1  0
 23 46  1  0
 25 47  1  0
M  ISO  8  26  14  27  14  28  13  29  13  30  13  31  13  32  13  33  13
M  ISO  8  34  13  35  13  36  13  37  13  38  13  39  13  40   8  41   8
M  ISO  6  42   8  43   8  44  14  45  14  46  14  47   3
M  END
>  <minimizedAffinity>  (1) 
-5.85760355

>  <minimizedRMSD>  (1) 
0.538729906

$$$$
