
     RDKit          3D

 48 51  0  0  1  0  0  0  0  0999 V2000
   47.4220   32.9300   44.3850 C   0  0  2  0  0  0  0  0  0  0  0  0
   47.3580   33.3470   42.9600 C   0  0  1  0  0  0  0  0  0  0  0  0
   47.3180   32.1530   42.0070 C   0  0  0  0  0  0  0  0  0  0  0  0
   48.4420   31.3990   42.3600 O   0  0  0  0  0  0  0  0  0  0  0  0
   48.2610   30.7500   43.5610 C   0  0  0  0  0  0  0  0  0  0  0  0
   47.2650   31.3990   44.4690 C   0  0  1  0  0  0  0  0  0  0  0  0
   45.0040   36.1520   42.8250 C   0  0  0  0  0  0  0  0  0  0  0  0
   43.9840   35.7050   41.9310 C   0  0  0  0  0  0  0  0  0  0  0  0
   44.1630   34.4040   41.3960 C   0  0  0  0  0  0  0  0  0  0  0  0
   45.2530   33.6880   41.7510 N   0  0  0  0  0  0  0  0  0  0  0  0
   46.1830   34.1700   42.6010 C   0  0  0  0  0  0  0  0  0  0  0  0
   46.0610   35.4030   43.1400 N   0  0  0  0  0  0  0  0  0  0  0  0
   44.8440   37.3970   43.3450 O   0  0  0  0  0  0  0  0  0  0  0  0
   46.4390   33.5090   45.1910 O   0  0  0  0  0  0  0  0  0  0  0  0
   47.4220   31.0600   45.7940 O   0  0  0  0  0  0  0  0  0  0  0  0
   46.5560   28.5140   45.5330 F   0  0  0  0  0  0  0  0  0  0  0  0
   46.2410   29.3350   46.5550 C   0  0  0  0  0  0  0  0  0  0  0  0
   46.6350   30.6380   46.7700 C   0  0  0  0  0  0  0  0  0  0  0  0
   46.1440   31.2210   47.9270 C   0  0  0  0  0  0  0  0  0  0  0  0
   45.3190   30.6160   48.8490 C   0  0  0  0  0  0  0  0  0  0  0  0
   44.9600   29.3280   48.5890 C   0  0  0  0  0  0  0  0  0  0  0  0
   45.4000   28.6640   47.4590 C   0  0  0  0  0  0  0  0  0  0  0  0
   44.9340   27.3240   47.3350 N   0  0  0  0  0  0  0  0  0  0  0  0
   43.7720   26.8950   46.5790 C   0  0  0  0  0  0  0  0  0  0  0  0
   43.0800   25.8710   47.4890 C   0  0  0  0  0  0  0  0  0  0  0  0
   43.9200   24.7830   47.5050 O   0  0  0  0  0  0  0  0  0  0  0  0
   45.1110   24.9900   48.1460 C   0  0  0  0  0  0  0  0  0  0  0  0
   45.7090   26.3420   48.0350 C   0  0  0  0  0  0  0  0  0  0  0  0
   48.3972   33.2727   44.7612 H   0  0  0  0  0  0  0  0  0  0  0  0
   48.2758   33.9434   42.8508 H   0  0  0  0  0  0  0  0  0  0  0  0
   47.3836   32.4858   40.9606 H   0  0  0  0  0  0  0  0  0  0  0  0
   46.3824   31.5799   42.0862 H   0  0  0  0  0  0  0  0  0  0  0  0
   47.9190   29.7259   43.3507 H   0  0  0  0  0  0  0  0  0  0  0  0
   49.2286   30.7796   44.0833 H   0  0  0  0  0  0  0  0  0  0  0  0
   46.2782   31.0485   44.1322 H   0  0  0  0  0  0  0  0  0  0  0  0
   43.1157   36.3295   41.6740 H   0  0  0  0  0  0  0  0  0  0  0  0
   43.4230   33.9822   40.6999 H   0  0  0  0  0  0  0  0  0  0  0  0
   44.0523   37.9382   43.0991 H   0  0  0  0  0  0  0  0  0  0  0  0
   46.6708   33.3724   46.1437 H   0  0  0  0  0  0  0  0  0  0  0  0
   46.4399   32.2613   48.1273 H   0  0  0  0  0  0  0  0  0  0  0  0
   44.9686   31.1448   49.7476 H   0  0  0  0  0  0  0  0  0  0  0  0
   44.3025   28.8022   49.2970 H   0  0  0  0  0  0  0  0  0  0  0  0
   43.1057   27.7458   46.3735 H   0  0  0  0  0  0  0  0  0  0  0  0
   44.0420   26.4709   45.6006 H   0  0  0  0  0  0  0  0  0  0  0  0
   42.9550   26.2777   48.5034 H   0  0  0  0  0  0  0  0  0  0  0  0
   42.0742   25.6107   47.1275 H   0  0  0  0  0  0  0  0  0  0  0  0
   45.6026   24.1893   48.7179 H   0  0  0  0  0  0  0  0  0  0  0  0
   46.6930   26.5786   48.4660 H   0  0  0  0  0  0  0  0  0  0  0  0
  1  6  1  0
  1 14  1  0
  2  1  1  0
  3  4  1  0
  3  2  1  0
  4  5  1  0
  5  6  1  0
  6 15  1  0
  7 12  2  0
  7 13  1  0
  8  7  1  0
  9 10  1  0
  9  8  2  0
 10 11  2  0
 11  2  1  0
 11 12  1  0
 15 18  1  0
 16 17  1  0
 17 18  2  0
 17 22  1  0
 18 19  1  0
 19 20  2  0
 21 20  1  0
 22 21  2  0
 23 22  1  0
 23 28  1  0
 24 23  1  0
 24 25  1  0
 25 26  1  0
 26 27  1  0
 28 27  2  0
  1 29  1  1
  2 30  1  6
  3 31  1  0
  3 32  1  0
  5 33  1  0
  5 34  1  0
  6 35  1  6
  8 36  1  0
  9 37  1  0
 13 38  1  0
 14 39  1  0
 19 40  1  0
 20 41  1  0
 21 42  1  0
 24 43  1  0
 24 44  1  0
 25 45  1  0
 25 46  1  0
 27 47  1  0
 28 48  1  0
M  ISO  8  29  13  30  13  31  13  32  13  33  13  34  13  35  13  36  14
M  ISO  8  37  14  38   3  39   3  40  14  41  14  42  14  43  13  44  13
M  ISO  4  45  13  46  13  47  13  48  13
M  END
>  <minimizedAffinity>  (1) 
-5.55074358

>  <minimizedRMSD>  (1) 
1.35805237

$$$$
