
     RDKit          3D

 39 41  0  0  0  0  0  0  0  0999 V2000
   46.2290   32.0380   47.3180 C   0  0  0  0  0  0  0  0  0  0  0  0
   45.3820   32.3630   48.3430 C   0  0  0  0  0  0  0  0  0  0  0  0
   44.8550   31.4830   49.2370 C   0  0  0  0  0  0  0  0  0  0  0  0
   45.2090   30.1730   49.0850 C   0  0  0  0  0  0  0  0  0  0  0  0
   46.0720   29.7920   48.0570 C   0  0  0  0  0  0  0  0  0  0  0  0
   46.5920   30.7290   47.1620 C   0  0  0  0  0  0  0  0  0  0  0  0
   47.3860   29.8390   46.3540 N   0  0  0  0  0  0  0  0  0  0  0  0
   47.3310   29.1070   45.1040 C   0  0  0  0  0  0  0  0  0  0  0  0
   48.6360   29.1860   44.3920 C   0  0  0  0  0  0  0  0  0  0  0  0
   49.7530   29.3440   45.1720 O   0  0  0  0  0  0  0  0  0  0  0  0
   49.5610   28.7540   46.4220 C   0  0  0  0  0  0  0  0  0  0  0  0
   48.6150   29.6830   47.1550 C   0  0  0  0  0  0  0  0  0  0  0  0
   46.8440   32.8790   46.2710 C   0  0  0  0  0  0  0  0  0  0  0  0
   46.1670   32.6970   44.9300 C   0  0  0  0  0  0  0  0  0  0  0  0
   44.5210   35.9790   44.7640 C   0  0  0  0  0  0  0  0  0  0  0  0
   44.9240   36.4590   43.4930 C   0  0  0  0  0  0  0  0  0  0  0  0
   45.7740   35.6260   42.7480 C   0  0  0  0  0  0  0  0  0  0  0  0
   46.1630   34.4450   43.2440 N   0  0  0  0  0  0  0  0  0  0  0  0
   45.7340   34.0460   44.4780 C   0  0  0  0  0  0  0  0  0  0  0  0
   44.9390   34.7820   45.2220 N   0  0  0  0  0  0  0  0  0  0  0  0
   45.1048   33.4218   48.4529 H   0  0  0  0  0  0  0  0  0  0  0  0
   44.1788   31.8100   50.0406 H   0  0  0  0  0  0  0  0  0  0  0  0
   44.8121   29.4148   49.7760 H   0  0  0  0  0  0  0  0  0  0  0  0
   46.3481   28.7327   47.9496 H   0  0  0  0  0  0  0  0  0  0  0  0
   47.0964   28.0528   45.3126 H   0  0  0  0  0  0  0  0  0  0  0  0
   46.5523   29.5516   44.4669 H   0  0  0  0  0  0  0  0  0  0  0  0
   48.7593   28.2563   43.8172 H   0  0  0  0  0  0  0  0  0  0  0  0
   48.5779   30.0987   43.7808 H   0  0  0  0  0  0  0  0  0  0  0  0
   49.1140   27.7548   46.3130 H   0  0  0  0  0  0  0  0  0  0  0  0
   50.5085   28.6186   46.9641 H   0  0  0  0  0  0  0  0  0  0  0  0
   49.0933   30.6639   47.2931 H   0  0  0  0  0  0  0  0  0  0  0  0
   48.3676   29.2626   48.1409 H   0  0  0  0  0  0  0  0  0  0  0  0
   46.7630   33.9345   46.5698 H   0  0  0  0  0  0  0  0  0  0  0  0
   47.8962   32.5760   46.1652 H   0  0  0  0  0  0  0  0  0  0  0  0
   46.8726   32.2638   44.2058 H   0  0  0  0  0  0  0  0  0  0  0  0
   45.3080   32.0147   45.0120 H   0  0  0  0  0  0  0  0  0  0  0  0
   43.8555   36.5939   45.3877 H   0  0  0  0  0  0  0  0  0  0  0  0
   44.5882   37.4339   43.1098 H   0  0  0  0  0  0  0  0  0  0  0  0
   46.1212   35.9447   41.7541 H   0  0  0  0  0  0  0  0  0  0  0  0
  1  2  2  0
  2  3  1  0
  4  3  2  0
  5  4  1  0
  6  1  1  0
  6  5  2  0
  7 12  1  0
  7  6  1  0
  8  7  1  0
  9  8  1  0
  9 10  1  0
 10 11  1  0
 11 12  1  0
 13  1  1  0
 14 13  1  0
 15 20  2  0
 16 15  1  0
 17 18  1  0
 17 16  2  0
 18 19  2  0
 19 14  1  0
 19 20  1  0
  2 21  1  0
  3 22  1  0
  4 23  1  0
  5 24  1  0
  8 25  1  0
  8 26  1  0
  9 27  1  0
  9 28  1  0
 11 29  1  0
 11 30  1  0
 12 31  1  0
 12 32  1  0
 13 33  1  0
 13 34  1  0
 14 35  1  0
 14 36  1  0
 15 37  1  0
 16 38  1  0
 17 39  1  0
M  ISO  8  21  14  22  14  23  14  24  14  25  13  26  13  27  13  28  13
M  ISO  8  29  13  30  13  31  13  32  13  33   8  34   8  35   8  36   8
M  ISO  3  37  14  38  14  39  14
M  END
>  <minimizedAffinity>  (1) 
-4.85114622

>  <minimizedRMSD>  (1) 
1.26530302

$$$$
