
     RDKit          3D

 47 49  0  0  1  0  0  0  0  0999 V2000
   48.2580   30.6700   45.6890 F   0  0  0  0  0  0  0  0  0  0  0  0
   47.5100   31.1090   46.7560 C   0  0  0  0  0  0  0  0  0  0  0  0
   46.3600   31.8110   46.5390 C   0  0  0  0  0  0  0  0  0  0  0  0
   45.6610   32.2220   47.6660 C   0  0  0  0  0  0  0  0  0  0  0  0
   46.1140   31.9300   48.9280 C   0  0  0  0  0  0  0  0  0  0  0  0
   47.2990   31.2090   49.0850 C   0  0  0  0  0  0  0  0  0  0  0  0
   48.0260   30.7800   47.9820 C   0  0  0  0  0  0  0  0  0  0  0  0
   44.9310   33.6740   43.7410 C   0  0  0  0  0  0  0  0  0  0  0  0
   44.9690   32.7590   42.6790 C   0  0  0  0  0  0  0  0  0  0  0  0
   45.4970   31.4860   42.9460 C   0  0  0  0  0  0  0  0  0  0  0  0
   45.9390   31.1960   44.1860 N   0  0  0  0  0  0  0  0  0  0  0  0
   45.8830   32.1180   45.1870 C   0  0  0  0  0  0  0  0  0  0  0  0
   45.3830   33.3350   44.9540 N   0  0  0  0  0  0  0  0  0  0  0  0
   44.4670   33.1600   41.3630 C   0  0  0  0  0  0  0  0  0  0  0  0
   43.2730   33.8460   41.4850 F   0  0  0  0  0  0  0  0  0  0  0  0
   45.3800   34.0630   40.8010 F   0  0  0  0  0  0  0  0  0  0  0  0
   44.2810   32.1470   40.4830 F   0  0  0  0  0  0  0  0  0  0  0  0
   44.4230   34.8990   43.4870 O   0  0  0  0  0  0  0  0  0  0  0  0
   45.1660   36.0920   43.2540 C   0  0  0  0  0  0  0  0  0  0  0  0
   45.0310   36.8840   44.3860 F   0  0  0  0  0  0  0  0  0  0  0  0
   46.4630   35.7810   42.9630 F   0  0  0  0  0  0  0  0  0  0  0  0
   44.5620   36.8050   42.2390 F   0  0  0  0  0  0  0  0  0  0  0  0
   49.2960   30.0060   48.1430 C   0  0  0  0  0  0  0  0  0  0  0  0
   50.6670   30.6890   50.1120 C   0  0  2  0  0  0  0  0  0  0  0  0
   49.6190   29.7520   49.6040 C   0  0  2  0  0  0  0  0  0  0  0  0
   49.8940   28.4160   49.8350 O   0  0  0  0  0  0  0  0  0  0  0  0
   51.1220   28.0170   49.3580 C   0  0  0  0  0  0  0  0  0  0  0  0
   52.1830   28.6550   50.1890 C   0  0  2  0  0  0  0  0  0  0  0  0
   51.8960   30.0400   50.6570 C   0  0  1  0  0  0  0  0  0  0  0  0
   50.1580   31.5460   51.0910 O   0  0  0  0  0  0  0  0  0  0  0  0
   53.3690   28.6320   49.4170 O   0  0  0  0  0  0  0  0  0  0  0  0
   53.0250   30.8310   50.4110 O   0  0  0  0  0  0  0  0  0  0  0  0
   44.7278   32.7916   47.5452 H   0  0  0  0  0  0  0  0  0  0  0  0
   45.5470   32.2619   49.8102 H   0  0  0  0  0  0  0  0  0  0  0  0
   47.6623   30.9772   50.0971 H   0  0  0  0  0  0  0  0  0  0  0  0
   45.5497   30.7301   42.1486 H   0  0  0  0  0  0  0  0  0  0  0  0
   49.1919   29.0396   47.6280 H   0  0  0  0  0  0  0  0  0  0  0  0
   50.1152   30.5984   47.7094 H   0  0  0  0  0  0  0  0  0  0  0  0
   50.9674   31.2449   49.2116 H   0  0  0  0  0  0  0  0  0  0  0  0
   48.7216   29.9760   50.1994 H   0  0  0  0  0  0  0  0  0  0  0  0
   51.2076   26.9223   49.4236 H   0  0  0  0  0  0  0  0  0  0  0  0
   51.2341   28.3198   48.3065 H   0  0  0  0  0  0  0  0  0  0  0  0
   52.2615   28.0798   51.1233 H   0  0  0  0  0  0  0  0  0  0  0  0
   51.6753   29.9521   51.7310 H   0  0  0  0  0  0  0  0  0  0  0  0
   50.3718   31.1861   51.9881 H   0  0  0  0  0  0  0  0  0  0  0  0
   54.1546   28.6168   50.0193 H   0  0  0  0  0  0  0  0  0  0  0  0
   53.4254   31.1115   51.2719 H   0  0  0  0  0  0  0  0  0  0  0  0
  1  2  1  0
  2  7  2  0
  3  2  1  0
  3  4  2  0
  4  5  1  0
  5  6  2  0
  7 23  1  0
  7  6  1  0
  8 13  2  0
  9 10  2  0
  9  8  1  0
 10 11  1  0
 11 12  2  0
 12  3  1  0
 13 12  1  0
 14 15  1  0
 14  9  1  0
 16 14  1  0
 17 14  1  0
 18  8  1  0
 19 18  1  0
 19 20  1  0
 21 19  1  0
 22 19  1  0
 24 29  1  0
 24 30  1  0
 25 23  1  0
 25 26  1  0
 25 24  1  0
 27 26  1  0
 27 28  1  0
 28 31  1  0
 28 29  1  0
 29 32  1  0
  4 33  1  0
  5 34  1  0
  6 35  1  0
 10 36  1  0
 23 37  1  0
 23 38  1  0
 24 39  1  6
 25 40  1  1
 27 41  1  0
 27 42  1  0
 28 43  1  1
 29 44  1  1
 30 45  1  0
 31 46  1  0
 32 47  1  0
M  ISO  8  33  14  34  14  35  14  36  14  37   8  38   8  39  13  40  13
M  ISO  7  41  13  42  13  43  13  44  13  45   3  46   3  47   3
M  END
>  <minimizedAffinity>  (1) 
-5.89395618

>  <minimizedRMSD>  (1) 
2.96401548

$$$$
