
     RDKit          3D

 45 47  0  0  1  0  0  0  0  0999 V2000
   44.4870   35.5900   45.0430 C   0  0  0  0  0  0  0  0  0  0  0  0
   44.9820   35.8110   43.7460 C   0  0  0  0  0  0  0  0  0  0  0  0
   46.0030   34.9860   43.3110 C   0  0  0  0  0  0  0  0  0  0  0  0
   46.4740   34.0240   44.1300 N   0  0  0  0  0  0  0  0  0  0  0  0
   45.9910   33.8260   45.3620 C   0  0  0  0  0  0  0  0  0  0  0  0
   44.9880   34.6170   45.8230 N   0  0  0  0  0  0  0  0  0  0  0  0
   45.5050   32.4360   47.3940 C   0  0  1  0  0  0  0  0  0  0  0  0
   46.4690   32.8020   46.3070 C   0  0  1  0  0  0  0  0  0  0  0  0
   46.5650   31.4400   45.5990 C   0  0  0  0  0  0  0  0  0  0  0  0
   46.3250   30.4770   46.5280 O   0  0  0  0  0  0  0  0  0  0  0  0
   46.0800   31.0720   47.7630 C   0  0  0  0  0  0  0  0  0  0  0  0
   45.4420   33.3270   48.4250 O   0  0  0  0  0  0  0  0  0  0  0  0
   46.4860   35.2100   42.0290 O   0  0  0  0  0  0  0  0  0  0  0  0
   46.4910   32.6830   41.2050 O   0  0  0  0  0  0  0  0  0  0  0  0
   47.3130   33.9600   41.1900 P   0  0  1  0  0  0  0  0  0  0  0  0
   47.5980   34.4920   39.6290 O   0  0  0  0  0  0  0  0  0  0  0  0
   48.7580   33.7010   42.0380 O   0  0  0  0  0  0  0  0  0  0  0  0
   50.4050   32.2910   41.0130 C   0  0  2  0  0  0  0  0  0  0  0  0
   49.1340   32.3610   41.7940 C   0  0  1  0  0  0  0  0  0  0  0  0
   49.1400   31.6240   42.9510 O   0  0  0  0  0  0  0  0  0  0  0  0
   50.0760   30.6060   42.9580 C   0  0  0  0  0  0  0  0  0  0  0  0
   50.2210   29.9340   41.6070 C   0  0  1  0  0  0  0  0  0  0  0  0
   50.5910   30.8880   40.5050 C   0  0  1  0  0  0  0  0  0  0  0  0
   51.5140   32.7720   41.6860 O   0  0  0  0  0  0  0  0  0  0  0  0
   51.1460   28.9170   41.7120 O   0  0  0  0  0  0  0  0  0  0  0  0
   49.6860   30.7180   39.4340 O   0  0  0  0  0  0  0  0  0  0  0  0
   43.6748   36.2250   45.4265 H   0  0  0  0  0  0  0  0  0  0  0  0
   44.5746   36.6063   43.1045 H   0  0  0  0  0  0  0  0  0  0  0  0
   44.4456   32.4324   47.0980 H   0  0  0  0  0  0  0  0  0  0  0  0
   47.3976   33.2478   46.6929 H   0  0  0  0  0  0  0  0  0  0  0  0
   45.8161   31.3812   44.7954 H   0  0  0  0  0  0  0  0  0  0  0  0
   47.5609   31.3061   45.1516 H   0  0  0  0  0  0  0  0  0  0  0  0
   47.0111   31.1806   48.3386 H   0  0  0  0  0  0  0  0  0  0  0  0
   45.4040   30.4796   48.3971 H   0  0  0  0  0  0  0  0  0  0  0  0
   45.4765   32.8388   49.2856 H   0  0  0  0  0  0  0  0  0  0  0  0
   48.0653   35.3643   39.6578 H   0  0  0  0  0  0  0  0  0  0  0  0
   50.3105   32.9766   40.1580 H   0  0  0  0  0  0  0  0  0  0  0  0
   48.3717   31.8899   41.1561 H   0  0  0  0  0  0  0  0  0  0  0  0
   51.0503   31.0260   43.2483 H   0  0  0  0  0  0  0  0  0  0  0  0
   49.7319   29.8437   43.6725 H   0  0  0  0  0  0  0  0  0  0  0  0
   49.2383   29.5271   41.3263 H   0  0  0  0  0  0  0  0  0  0  0  0
   51.6273   30.7052   40.1846 H   0  0  0  0  0  0  0  0  0  0  0  0
   51.3620   32.7061   42.6620 H   0  0  0  0  0  0  0  0  0  0  0  0
   51.3196   28.7262   42.6678 H   0  0  0  0  0  0  0  0  0  0  0  0
   48.7790   30.5476   39.7923 H   0  0  0  0  0  0  0  0  0  0  0  0
  1  6  2  0
  2  1  1  0
  3  2  2  0
  3  4  1  0
  4  5  2  0
  5  6  1  0
  5  8  1  0
  7 11  1  0
  7 12  1  0
  8  7  1  0
  9  8  1  0
  9 10  1  0
 10 11  1  0
 13  3  1  0
 15 14  2  0
 15 13  1  0
 15 17  1  0
 16 15  1  0
 18 24  1  0
 18 19  1  0
 19 17  1  0
 19 20  1  0
 20 21  1  0
 22 25  1  0
 22 21  1  0
 23 26  1  0
 23 18  1  0
 23 22  1  0
  1 27  1  0
  2 28  1  0
  7 29  1  6
  8 30  1  1
  9 31  1  0
  9 32  1  0
 11 33  1  0
 11 34  1  0
 12 35  1  0
 16 36  1  0
 18 37  1  6
 19 38  1  6
 21 39  1  0
 21 40  1  0
 22 41  1  6
 23 42  1  6
 24 43  1  0
 25 44  1  0
 26 45  1  0
M  ISO  8  27  14  28  14  29  13  30  13  31  13  32  13  33  13  34  13
M  ISO  8  35   3  36   3  37  13  38  13  39  13  40  13  41  13  42  13
M  ISO  3  43   3  44   3  45   3
M  END
>  <minimizedAffinity>  (1) 
-5.88501358

>  <minimizedRMSD>  (1) 
2.77781749

$$$$
