
     RDKit          3D

 41 42  0  0  1  0  0  0  0  0999 V2000
   46.4630   32.8720   43.1770 O   0  0  0  0  0  0  0  0  0  0  0  0
   46.9760   33.3720   44.3600 C   0  0  0  0  0  0  0  0  0  0  0  0
   45.8810   33.3800   45.4000 C   0  0  0  0  0  0  0  0  0  0  0  0
   45.9210   31.7280   48.7780 C   0  0  0  0  0  0  0  0  0  0  0  0
   45.5500   32.5880   47.6970 C   0  0  0  0  0  0  0  0  0  0  0  0
   46.2630   32.4860   46.5130 C   0  0  0  0  0  0  0  0  0  0  0  0
   47.2710   31.5890   46.4170 N   0  0  0  0  0  0  0  0  0  0  0  0
   47.5880   30.7940   47.4650 C   0  0  0  0  0  0  0  0  0  0  0  0
   46.9290   30.8570   48.6280 N   0  0  0  0  0  0  0  0  0  0  0  0
   45.2260   31.8070   49.9940 N   0  0  0  0  0  0  0  0  0  0  0  0
   47.0610   35.0770   41.8980 O   0  0  0  0  0  0  0  0  0  0  0  0
   47.2360   33.5760   41.8360 P   0  0  2  0  0  0  0  0  0  0  0  0
   46.5690   32.8870   40.4550 O   0  0  0  0  0  0  0  0  0  0  0  0
   48.8750   33.1570   41.8360 O   0  0  0  0  0  0  0  0  0  0  0  0
   50.1850   31.9030   40.3100 C   0  0  1  0  0  0  0  0  0  0  0  0
   49.1340   31.8840   41.3930 C   0  0  1  0  0  0  0  0  0  0  0  0
   49.3520   30.9700   42.3910 O   0  0  0  0  0  0  0  0  0  0  0  0
   50.6470   30.9380   42.8840 C   0  0  0  0  0  0  0  0  0  0  0  0
   51.5440   30.4950   41.7460 C   0  0  1  0  0  0  0  0  0  0  0  0
   51.5780   31.6760   40.7890 C   0  0  2  0  0  0  0  0  0  0  0  0
   49.8990   30.9340   39.3250 O   0  0  0  0  0  0  0  0  0  0  0  0
   52.8160   30.1310   42.1640 O   0  0  0  0  0  0  0  0  0  0  0  0
   52.0700   32.8120   41.4080 O   0  0  0  0  0  0  0  0  0  0  0  0
   47.8057   32.7356   44.7015 H   0  0  0  0  0  0  0  0  0  0  0  0
   47.3498   34.3945   44.2028 H   0  0  0  0  0  0  0  0  0  0  0  0
   45.7421   34.4027   45.7804 H   0  0  0  0  0  0  0  0  0  0  0  0
   44.9405   33.0295   44.9499 H   0  0  0  0  0  0  0  0  0  0  0  0
   44.7248   33.3077   47.8021 H   0  0  0  0  0  0  0  0  0  0  0  0
   48.4126   30.0739   47.3577 H   0  0  0  0  0  0  0  0  0  0  0  0
   45.4870   31.1912   50.7773 H   0  0  0  0  0  0  0  0  0  0  0  0
   44.4547   32.4808   50.1035 H   0  0  0  0  0  0  0  0  0  0  0  0
   45.9048   32.2009   40.7163 H   0  0  0  0  0  0  0  0  0  0  0  0
   50.1424   32.9235   39.9015 H   0  0  0  0  0  0  0  0  0  0  0  0
   48.2102   31.5053   40.9312 H   0  0  0  0  0  0  0  0  0  0  0  0
   50.9438   31.9387   43.2312 H   0  0  0  0  0  0  0  0  0  0  0  0
   50.7252   30.2476   43.7368 H   0  0  0  0  0  0  0  0  0  0  0  0
   51.1523   29.5846   41.2688 H   0  0  0  0  0  0  0  0  0  0  0  0
   52.2496   31.4568   39.9458 H   0  0  0  0  0  0  0  0  0  0  0  0
   49.6477   30.0825   39.7630 H   0  0  0  0  0  0  0  0  0  0  0  0
   52.8482   30.1218   43.1534 H   0  0  0  0  0  0  0  0  0  0  0  0
   52.0214   32.6998   42.3904 H   0  0  0  0  0  0  0  0  0  0  0  0
  1  2  1  0
  2  3  1  0
  3  6  1  0
  4 10  1  0
  5  4  2  0
  6  5  1  0
  7  6  2  0
  7  8  1  0
  8  9  2  0
  9  4  1  0
 12 14  1  0
 12 11  2  0
 12  1  1  0
 13 12  1  0
 15 21  1  0
 15 20  1  0
 15 16  1  0
 16 14  1  0
 16 17  1  0
 17 18  1  0
 19 22  1  0
 19 18  1  0
 20 23  1  0
 20 19  1  0
  2 24  1  0
  2 25  1  0
  3 26  1  0
  3 27  1  0
  5 28  1  0
  8 29  1  0
 10 30  1  0
 10 31  1  0
 13 32  1  0
 15 33  1  6
 16 34  1  6
 18 35  1  0
 18 36  1  0
 19 37  1  6
 20 38  1  6
 21 39  1  0
 22 40  1  0
 23 41  1  0
M  ISO  8  24   8  25   8  26   8  27   8  28  14  29  14  32   3  33  13
M  ISO  8  34  13  35  13  36  13  37  13  38  13  39   3  40   3  41   3
M  END
>  <minimizedAffinity>  (1) 
-4.80876064

>  <minimizedRMSD>  (1) 
4.88608837

$$$$
