
     RDKit          3D

 52 54  0  0  1  0  0  0  0  0999 V2000
   47.3390   33.0210   46.8260 O   0  0  0  0  0  0  0  0  0  0  0  0
   46.0360   32.5160   46.3160 P   0  0  1  0  0  0  0  0  0  0  0  0
   46.3220   31.2350   45.2450 O   0  0  0  0  0  0  0  0  0  0  0  0
   45.1760   31.9770   47.6150 O   0  0  0  0  0  0  0  0  0  0  0  0
   46.9690   30.4390   47.9650 C   0  0  2  0  0  0  0  0  0  0  0  0
   45.5070   30.6790   47.8950 C   0  0  2  0  0  0  0  0  0  0  0  0
   44.9820   29.7270   46.9410 C   0  0  0  0  0  0  0  0  0  0  0  0
   45.8790   28.6550   46.8340 O   0  0  0  0  0  0  0  0  0  0  0  0
   46.8390   28.8780   47.7600 C   0  0  0  0  0  0  0  0  0  0  0  0
   47.5710   30.6440   49.1510 O   0  0  0  0  0  0  0  0  0  0  0  0
   48.7610   31.1550   49.3190 C   0  0  0  0  0  0  0  0  0  0  0  0
   49.5590   30.2290   50.2290 C   0  0  0  0  0  0  0  0  0  0  0  0
   45.2970   33.8440   45.5340 O   0  0  0  0  0  0  0  0  0  0  0  0
   44.6870   33.5600   42.0170 C   0  0  0  0  0  0  0  0  0  0  0  0
   45.6410   34.4460   41.4220 C   0  0  0  0  0  0  0  0  0  0  0  0
   46.4790   35.1200   42.3170 C   0  0  0  0  0  0  0  0  0  0  0  0
   46.3530   34.9130   43.6410 N   0  0  0  0  0  0  0  0  0  0  0  0
   45.4390   34.0700   44.1560 C   0  0  0  0  0  0  0  0  0  0  0  0
   44.6090   33.3950   43.3470 N   0  0  0  0  0  0  0  0  0  0  0  0
   43.8340   32.8670   41.1880 O   0  0  0  0  0  0  0  0  0  0  0  0
   42.3580   32.5150   39.3370 C   0  0  1  0  0  0  0  0  0  0  0  0
   43.0730   33.5230   40.1840 C   0  0  1  0  0  0  0  0  0  0  0  0
   42.1740   34.3910   40.7760 O   0  0  0  0  0  0  0  0  0  0  0  0
   41.6510   35.3030   39.8560 C   0  0  0  0  0  0  0  0  0  0  0  0
   41.5570   34.6590   38.4770 C   0  0  1  0  0  0  0  0  0  0  0  0
   41.2160   33.2010   38.6300 C   0  0  1  0  0  0  0  0  0  0  0  0
   43.2230   31.9110   38.4070 O   0  0  0  0  0  0  0  0  0  0  0  0
   40.5900   35.3380   37.7630 O   0  0  0  0  0  0  0  0  0  0  0  0
   41.0000   32.6010   37.4040 O   0  0  0  0  0  0  0  0  0  0  0  0
   46.5063   30.4095   45.7596 H   0  0  0  0  0  0  0  0  0  0  0  0
   47.5598   31.0805   47.2946 H   0  0  0  0  0  0  0  0  0  0  0  0
   45.0469   30.5238   48.8820 H   0  0  0  0  0  0  0  0  0  0  0  0
   44.0046   29.3585   47.2858 H   0  0  0  0  0  0  0  0  0  0  0  0
   44.8571   30.2098   45.9605 H   0  0  0  0  0  0  0  0  0  0  0  0
   46.5593   28.3991   48.7100 H   0  0  0  0  0  0  0  0  0  0  0  0
   47.7979   28.4563   47.4244 H   0  0  0  0  0  0  0  0  0  0  0  0
   49.2667   31.2461   48.3464 H   0  0  0  0  0  0  0  0  0  0  0  0
   48.6823   32.1541   49.7724 H   0  0  0  0  0  0  0  0  0  0  0  0
   49.3467   30.4753   51.2798 H   0  0  0  0  0  0  0  0  0  0  0  0
   49.2728   29.1853   50.0320 H   0  0  0  0  0  0  0  0  0  0  0  0
   50.6335   30.3580   50.0320 H   0  0  0  0  0  0  0  0  0  0  0  0
   45.7106   34.5875   40.3334 H   0  0  0  0  0  0  0  0  0  0  0  0
   47.2401   35.8184   41.9390 H   0  0  0  0  0  0  0  0  0  0  0  0
   41.9734   31.7137   39.9851 H   0  0  0  0  0  0  0  0  0  0  0  0
   43.7473   34.1008   39.5347 H   0  0  0  0  0  0  0  0  0  0  0  0
   40.6474   35.6137   40.1818 H   0  0  0  0  0  0  0  0  0  0  0  0
   42.3138   36.1791   39.8003 H   0  0  0  0  0  0  0  0  0  0  0  0
   42.5133   34.7192   37.9368 H   0  0  0  0  0  0  0  0  0  0  0  0
   40.2877   33.1116   39.2134 H   0  0  0  0  0  0  0  0  0  0  0  0
   43.9320   31.4159   38.8890 H   0  0  0  0  0  0  0  0  0  0  0  0
   39.9638   35.7777   38.3912 H   0  0  0  0  0  0  0  0  0  0  0  0
   40.6679   31.6786   37.5420 H   0  0  0  0  0  0  0  0  0  0  0  0
  2  1  2  0
  2  4  1  0
  3  2  1  0
  4  6  1  0
  5 10  1  0
  6  5  1  0
  7  6  1  0
  8  7  1  0
  8  9  1  0
  9  5  1  0
 10 11  1  0
 11 12  1  0
 13  2  1  0
 14 19  1  0
 15 14  2  0
 15 16  1  0
 16 17  2  0
 17 18  1  0
 18 13  1  0
 19 18  2  0
 20 14  1  0
 21 27  1  0
 21 22  1  0
 22 23  1  0
 22 20  1  0
 24 23  1  0
 25 28  1  0
 25 26  1  0
 25 24  1  0
 26 29  1  0
 26 21  1  0
  3 30  1  0
  5 31  1  6
  6 32  1  1
  7 33  1  0
  7 34  1  0
  9 35  1  0
  9 36  1  0
 11 37  1  0
 11 38  1  0
 12 39  1  0
 12 40  1  0
 12 41  1  0
 15 42  1  0
 16 43  1  0
 21 44  1  1
 22 45  1  6
 24 46  1  0
 24 47  1  0
 25 48  1  6
 26 49  1  1
 27 50  1  0
 28 51  1  0
 29 52  1  0
M  ISO  8  30   3  31  13  32  13  33  13  34  13  35  13  36  13  37   8
M  ISO  8  38   8  39   8  40   8  41   8  42  14  43  14  44  13  45  13
M  ISO  7  46  13  47  13  48  13  49  13  50   3  51   3  52   3
M  END
>  <minimizedAffinity>  (1) 
-4.89835691

>  <minimizedRMSD>  (1) 
5.62804222

$$$$
