
     RDKit          3D

 28 29  0  0  1  0  0  0  0  0999 V2000
   41.1400   34.9050   41.4660 C   0  0  2  0  0  0  0  0  0  0  0  0
   42.3310   34.0010   41.2250 C   0  0  1  0  0  0  0  0  0  0  0  0
   42.2920   33.4880   39.9090 O   0  0  0  0  0  0  0  0  0  0  0  0
   42.5390   34.6060   39.0890 C   0  0  0  0  0  0  0  0  0  0  0  0
   41.3010   35.4790   39.0500 C   0  0  2  0  0  0  0  0  0  0  0  0
   41.0820   36.0230   40.4500 C   0  0  1  0  0  0  0  0  0  0  0  0
   41.2370   35.4290   42.7410 O   0  0  0  0  0  0  0  0  0  0  0  0
   40.2030   34.7190   38.6490 O   0  0  0  0  0  0  0  0  0  0  0  0
   39.8600   36.6520   40.5570 O   0  0  0  0  0  0  0  0  0  0  0  0
   43.9050   34.8500   41.4210 S   0  0  0  0  0  0  0  0  0  0  0  0
   44.4050   35.5390   44.0750 C   0  0  0  0  0  0  0  0  0  0  0  0
   44.5190   34.5670   43.0760 C   0  0  0  0  0  0  0  0  0  0  0  0
   45.1240   33.3500   43.3880 C   0  0  0  0  0  0  0  0  0  0  0  0
   45.5750   33.1820   44.6730 N   0  0  0  0  0  0  0  0  0  0  0  0
   45.4440   34.1380   45.5950 C   0  0  0  0  0  0  0  0  0  0  0  0
   44.8650   35.3280   45.3330 N   0  0  0  0  0  0  0  0  0  0  0  0
   40.2166   34.3161   41.3628 H   0  0  0  0  0  0  0  0  0  0  0  0
   42.2620   33.2010   41.9769 H   0  0  0  0  0  0  0  0  0  0  0  0
   43.3827   35.1821   39.4968 H   0  0  0  0  0  0  0  0  0  0  0  0
   42.7864   34.2701   38.0712 H   0  0  0  0  0  0  0  0  0  0  0  0
   41.4254   36.3052   38.3346 H   0  0  0  0  0  0  0  0  0  0  0  0
   41.8818   36.7522   40.6463 H   0  0  0  0  0  0  0  0  0  0  0  0
   41.1034   34.7073   43.4054 H   0  0  0  0  0  0  0  0  0  0  0  0
   39.7224   34.3863   39.4480 H   0  0  0  0  0  0  0  0  0  0  0  0
   39.6319   36.7694   41.5132 H   0  0  0  0  0  0  0  0  0  0  0  0
   43.9292   36.5010   43.8337 H   0  0  0  0  0  0  0  0  0  0  0  0
   45.2352   32.5565   42.6343 H   0  0  0  0  0  0  0  0  0  0  0  0
   45.8236   33.9479   46.6098 H   0  0  0  0  0  0  0  0  0  0  0  0
  1  7  1  0
  2 10  1  0
  2  1  1  0
  3  2  1  0
  4  3  1  0
  5  8  1  0
  5  4  1  0
  5  6  1  0
  6  9  1  0
  6  1  1  0
 10 12  1  0
 11 16  2  0
 12 13  2  0
 12 11  1  0
 13 14  1  0
 14 15  2  0
 16 15  1  0
  1 17  1  1
  2 18  1  1
  4 19  1  0
  4 20  1  0
  5 21  1  6
  6 22  1  1
  7 23  1  0
  8 24  1  0
  9 25  1  0
 11 26  1  0
 13 27  1  0
 15 28  1  0
M  ISO  8  17  13  18  13  19  13  20  13  21  13  22  13  23   3  24   3
M  ISO  4  25   3  26  14  27  14  28  14
M  END
>  <minimizedAffinity>  (1) 
-4.74705029

>  <minimizedRMSD>  (1) 
1.41072321

$$$$
