
     RDKit          3D

 54 56  0  0  1  0  0  0  0  0999 V2000
   46.7480   34.3970   43.5320 N   0  0  0  0  0  0  0  0  0  0  0  0
   46.4910   35.0130   42.2790 C   0  0  0  0  0  0  0  0  0  0  0  0
   45.0300   35.1160   41.8990 C   0  0  0  0  0  0  0  0  0  0  0  0
   44.0950   35.2960   43.0580 C   0  0  0  0  0  0  0  0  0  0  0  0
   44.8450   35.4450   44.3600 C   0  0  0  0  0  0  0  0  0  0  0  0
   45.7190   34.1410   44.4230 C   0  0  2  0  0  0  0  0  0  0  0  0
   47.9020   33.5470   43.5430 C   0  0  0  0  0  0  0  0  0  0  0  0
   47.6350   32.3580   42.6730 C   0  0  0  0  0  0  0  0  0  0  0  0
   51.1860   32.2030   41.4580 C   0  0  0  0  0  0  0  0  0  0  0  0
   50.0640   32.4220   42.2790 C   0  0  0  0  0  0  0  0  0  0  0  0
   48.8120   32.1210   41.7950 C   0  0  0  0  0  0  0  0  0  0  0  0
   48.7280   31.6290   40.5490 N   0  0  0  0  0  0  0  0  0  0  0  0
   49.8060   31.4250   39.7770 C   0  0  0  0  0  0  0  0  0  0  0  0
   51.0360   31.7060   40.2160 N   0  0  0  0  0  0  0  0  0  0  0  0
   46.1630   34.1640   45.7410 O   0  0  0  0  0  0  0  0  0  0  0  0
   45.6150   31.5740   45.5170 O   0  0  0  0  0  0  0  0  0  0  0  0
   46.0140   32.6680   46.5000 P   0  0  2  0  0  0  0  0  0  0  0  0
   44.6850   32.8130   47.5700 O   0  0  0  0  0  0  0  0  0  0  0  0
   47.3470   32.2550   47.4030 O   0  0  0  0  0  0  0  0  0  0  0  0
   48.6590   30.4620   48.1470 C   0  0  2  0  0  0  0  0  0  0  0  0
   47.2490   31.0490   48.0670 C   0  0  2  0  0  0  0  0  0  0  0  0
   46.4050   30.2150   47.3360 O   0  0  0  0  0  0  0  0  0  0  0  0
   46.5030   28.8930   47.7640 C   0  0  0  0  0  0  0  0  0  0  0  0
   47.8430   28.2780   47.4450 C   0  0  1  0  0  0  0  0  0  0  0  0
   48.7820   29.4160   47.0650 C   0  0  1  0  0  0  0  0  0  0  0  0
   48.8160   29.9080   49.4290 O   0  0  0  0  0  0  0  0  0  0  0  0
   48.3730   27.6150   48.5670 O   0  0  0  0  0  0  0  0  0  0  0  0
   48.2460   29.9600   45.8900 O   0  0  0  0  0  0  0  0  0  0  0  0
   46.9075   36.0307   42.3084 H   0  0  0  0  0  0  0  0  0  0  0  0
   46.9589   34.3683   41.5204 H   0  0  0  0  0  0  0  0  0  0  0  0
   44.9106   35.9770   41.2248 H   0  0  0  0  0  0  0  0  0  0  0  0
   44.7620   34.1589   41.4277 H   0  0  0  0  0  0  0  0  0  0  0  0
   43.4884   36.1982   42.8903 H   0  0  0  0  0  0  0  0  0  0  0  0
   43.4584   34.4017   43.1283 H   0  0  0  0  0  0  0  0  0  0  0  0
   45.4785   36.3442   44.3495 H   0  0  0  0  0  0  0  0  0  0  0  0
   44.1809   35.5612   45.2292 H   0  0  0  0  0  0  0  0  0  0  0  0
   45.2469   33.1785   44.1765 H   0  0  0  0  0  0  0  0  0  0  0  0
   48.7715   34.0994   43.1572 H   0  0  0  0  0  0  0  0  0  0  0  0
   48.1132   33.2175   44.5710 H   0  0  0  0  0  0  0  0  0  0  0  0
   47.4613   31.4729   43.3026 H   0  0  0  0  0  0  0  0  0  0  0  0
   46.7443   32.5444   42.0551 H   0  0  0  0  0  0  0  0  0  0  0  0
   52.1924   32.4396   41.8338 H   0  0  0  0  0  0  0  0  0  0  0  0
   50.1866   32.8283   43.2938 H   0  0  0  0  0  0  0  0  0  0  0  0
   49.6746   31.0186   38.7633 H   0  0  0  0  0  0  0  0  0  0  0  0
   45.0087   32.7777   48.5049 H   0  0  0  0  0  0  0  0  0  0  0  0
   49.4428   31.2182   47.9928 H   0  0  0  0  0  0  0  0  0  0  0  0
   46.8372   31.1643   49.0805 H   0  0  0  0  0  0  0  0  0  0  0  0
   46.3520   28.8632   48.8532 H   0  0  0  0  0  0  0  0  0  0  0  0
   45.7348   28.3126   47.2319 H   0  0  0  0  0  0  0  0  0  0  0  0
   47.7308   27.5461   46.6315 H   0  0  0  0  0  0  0  0  0  0  0  0
   49.8263   29.0931   46.9417 H   0  0  0  0  0  0  0  0  0  0  0  0
   48.6207   30.5971   50.1125 H   0  0  0  0  0  0  0  0  0  0  0  0
   48.0325   28.0409   49.3933 H   0  0  0  0  0  0  0  0  0  0  0  0
   47.5705   30.6456   46.1220 H   0  0  0  0  0  0  0  0  0  0  0  0
  1  7  1  0
  1  6  1  0
  2  1  1  0
  3  2  1  0
  3  4  1  0
  4  5  1  0
  5  6  1  0
  6 15  1  0
  8  7  1  0
  9 10  2  0
 11 10  1  0
 11  8  1  0
 12 11  2  0
 13 14  2  0
 13 12  1  0
 14  9  1  0
 15 17  1  0
 17 16  2  0
 17 19  1  0
 17 18  1  0
 20 26  1  0
 21 19  1  0
 21 20  1  0
 22 23  1  0
 22 21  1  0
 24 23  1  0
 24 27  1  0
 25 28  1  0
 25 24  1  0
 25 20  1  0
  2 29  1  0
  2 30  1  0
  3 31  1  0
  3 32  1  0
  4 33  1  0
  4 34  1  0
  5 35  1  0
  5 36  1  0
  6 37  1  6
  7 38  1  0
  7 39  1  0
  8 40  1  0
  8 41  1  0
  9 42  1  0
 10 43  1  0
 13 44  1  0
 18 45  1  0
 20 46  1  6
 21 47  1  1
 23 48  1  0
 23 49  1  0
 24 50  1  6
 25 51  1  6
 26 52  1  0
 27 53  1  0
 28 54  1  0
M  ISO  8  29  13  30  13  31  13  32  13  33  13  34  13  35  13  36  13
M  ISO  8  37  13  38   8  39   8  40   8  41   8  42  14  43  14  44  14
M  ISO  8  45   3  46  13  47  13  48  13  49  13  50  13  51  13  52   3
M  ISO  2  53   3  54   3
M  END
>  <minimizedAffinity>  (1) 
-5.38762093

>  <minimizedRMSD>  (1) 
3.47046447

$$$$
