
     RDKit          3D

 31 32  0  0  1  0  0  0  0  0999 V2000
   41.9600   34.1880   40.5800 O   0  0  0  0  0  0  0  0  0  0  0  0
   39.6030   34.2140   41.0930 C   0  0  1  0  0  0  0  0  0  0  0  0
   40.7670   34.8010   40.3400 C   0  0  2  0  0  0  0  0  0  0  0  0
   40.4140   34.9360   39.0050 O   0  0  0  0  0  0  0  0  0  0  0  0
   40.3030   33.6560   38.4640 C   0  0  0  0  0  0  0  0  0  0  0  0
   39.1270   32.8960   39.0410 C   0  0  1  0  0  0  0  0  0  0  0  0
   39.2680   32.8500   40.5260 C   0  0  2  0  0  0  0  0  0  0  0  0
   39.8520   34.0260   42.4320 O   0  0  0  0  0  0  0  0  0  0  0  0
   37.9140   33.3850   38.5980 O   0  0  0  0  0  0  0  0  0  0  0  0
   38.0690   32.4540   41.1350 O   0  0  0  0  0  0  0  0  0  0  0  0
   43.0700   34.9580   40.2200 C   0  0  0  0  0  0  0  0  0  0  0  0
   43.8720   35.4630   42.4470 C   0  0  0  0  0  0  0  0  0  0  0  0
   44.1530   34.9020   41.2100 C   0  0  0  0  0  0  0  0  0  0  0  0
   45.4140   34.3530   41.0400 C   0  0  0  0  0  0  0  0  0  0  0  0
   46.2860   34.3910   42.0620 N   0  0  0  0  0  0  0  0  0  0  0  0
   45.9730   34.9500   43.2590 C   0  0  0  0  0  0  0  0  0  0  0  0
   44.7420   35.5090   43.4900 N   0  0  0  0  0  0  0  0  0  0  0  0
   38.7827   34.9384   40.9818 H   0  0  0  0  0  0  0  0  0  0  0  0
   40.9735   35.8093   40.7282 H   0  0  0  0  0  0  0  0  0  0  0  0
   40.1712   33.7409   37.3752 H   0  0  0  0  0  0  0  0  0  0  0  0
   41.2202   33.1017   38.7119 H   0  0  0  0  0  0  0  0  0  0  0  0
   39.1363   31.8595   38.6727 H   0  0  0  0  0  0  0  0  0  0  0  0
   40.0749   32.1314   40.7323 H   0  0  0  0  0  0  0  0  0  0  0  0
   39.1863   34.5286   42.9652 H   0  0  0  0  0  0  0  0  0  0  0  0
   37.3464   33.6138   39.3762 H   0  0  0  0  0  0  0  0  0  0  0  0
   38.1718   32.4879   42.1191 H   0  0  0  0  0  0  0  0  0  0  0  0
   43.4552   34.5892   39.2579 H   0  0  0  0  0  0  0  0  0  0  0  0
   42.7373   36.0045   40.1553 H   0  0  0  0  0  0  0  0  0  0  0  0
   42.8741   35.9018   42.5942 H   0  0  0  0  0  0  0  0  0  0  0  0
   45.6973   33.8926   40.0820 H   0  0  0  0  0  0  0  0  0  0  0  0
   46.7243   34.9547   44.0624 H   0  0  0  0  0  0  0  0  0  0  0  0
  2  8  1  0
  3  1  1  0
  3  2  1  0
  4  3  1  0
  5  4  1  0
  5  6  1  0
  6  9  1  0
  6  7  1  0
  7  2  1  0
  7 10  1  0
 11  1  1  0
 11 13  1  0
 12 17  2  0
 13 12  1  0
 14 13  2  0
 14 15  1  0
 15 16  2  0
 16 17  1  0
  2 18  1  1
  3 19  1  1
  5 20  1  0
  5 21  1  0
  6 22  1  6
  7 23  1  6
  8 24  1  0
  9 25  1  0
 10 26  1  0
 11 27  1  0
 11 28  1  0
 12 29  1  0
 14 30  1  0
 16 31  1  0
M  ISO  8  18  13  19  13  20  13  21  13  22  13  23  13  24   3  25   3
M  ISO  6  26   3  27   8  28   8  29  14  30  14  31  14
M  END
>  <minimizedAffinity>  (1) 
-5.16286087

>  <minimizedRMSD>  (1) 
3.326689

$$$$
