
     RDKit          3D

 53 56  0  0  1  0  0  0  0  0999 V2000
   49.0590   32.8380   38.0290 C   0  0  1  0  0  0  0  0  0  0  0  0
   48.5320   34.2570   38.5810 C   0  0  1  0  0  0  0  0  0  0  0  0
   47.6790   34.5410   37.5800 O   0  0  0  0  0  0  0  0  0  0  0  0
   46.8190   33.4100   37.6640 C   0  0  0  0  0  0  0  0  0  0  0  0
   47.7960   32.2790   37.4450 C   0  0  1  0  0  0  0  0  0  0  0  0
   49.9020   33.1770   36.9610 O   0  0  0  0  0  0  0  0  0  0  0  0
   47.8080   33.9030   39.7200 O   0  0  0  0  0  0  0  0  0  0  0  0
   48.0630   34.6440   41.9570 C   0  0  2  0  0  0  0  0  0  0  0  0
   46.7410   33.8790   42.2200 C   0  0  1  0  0  0  0  0  0  0  0  0
   47.2510   32.6540   42.5330 O   0  0  0  0  0  0  0  0  0  0  0  0
   48.1380   32.3790   41.4730 C   0  0  0  0  0  0  0  0  0  0  0  0
   48.5480   33.7310   40.8540 C   0  0  1  0  0  0  0  0  0  0  0  0
   44.5350   36.0700   44.4100 C   0  0  0  0  0  0  0  0  0  0  0  0
   45.2060   35.6800   43.2480 C   0  0  0  0  0  0  0  0  0  0  0  0
   45.9620   34.5280   43.2810 C   0  0  0  0  0  0  0  0  0  0  0  0
   46.0020   33.8350   44.4710 N   0  0  0  0  0  0  0  0  0  0  0  0
   45.3450   34.2340   45.5740 C   0  0  0  0  0  0  0  0  0  0  0  0
   44.6100   35.3570   45.5370 N   0  0  0  0  0  0  0  0  0  0  0  0
   48.9320   34.4860   43.0030 O   0  0  0  0  0  0  0  0  0  0  0  0
   47.9080   32.0350   36.0910 O   0  0  0  0  0  0  0  0  0  0  0  0
   46.5730   32.0050   34.1120 C   0  0  1  0  0  0  0  0  0  0  0  0
   46.6400   31.7480   35.5920 C   0  0  1  0  0  0  0  0  0  0  0  0
   46.1860   30.4930   35.9350 O   0  0  0  0  0  0  0  0  0  0  0  0
   46.7950   29.4240   35.3560 C   0  0  0  0  0  0  0  0  0  0  0  0
   47.1880   29.5740   33.9280 C   0  0  2  0  0  0  0  0  0  0  0  0
   46.6610   30.7970   33.2520 C   0  0  2  0  0  0  0  0  0  0  0  0
   45.4630   32.7850   33.7870 O   0  0  0  0  0  0  0  0  0  0  0  0
   46.7740   28.4820   33.1610 O   0  0  0  0  0  0  0  0  0  0  0  0
   47.4380   31.0230   32.1080 O   0  0  0  0  0  0  0  0  0  0  0  0
   49.5628   32.1731   38.7460 H   0  0  0  0  0  0  0  0  0  0  0  0
   49.2484   35.0581   38.8155 H   0  0  0  0  0  0  0  0  0  0  0  0
   46.3386   33.3418   38.6512 H   0  0  0  0  0  0  0  0  0  0  0  0
   45.9816   33.4266   36.9509 H   0  0  0  0  0  0  0  0  0  0  0  0
   47.5145   31.3176   37.8994 H   0  0  0  0  0  0  0  0  0  0  0  0
   50.7600   33.5220   37.3145 H   0  0  0  0  0  0  0  0  0  0  0  0
   47.9716   35.7250   41.7751 H   0  0  0  0  0  0  0  0  0  0  0  0
   46.0104   33.8399   41.3986 H   0  0  0  0  0  0  0  0  0  0  0  0
   49.0269   31.8541   41.8528 H   0  0  0  0  0  0  0  0  0  0  0  0
   47.6575   31.7364   40.7205 H   0  0  0  0  0  0  0  0  0  0  0  0
   49.6028   33.8680   40.5735 H   0  0  0  0  0  0  0  0  0  0  0  0
   43.9293   36.9881   44.3963 H   0  0  0  0  0  0  0  0  0  0  0  0
   45.1326   36.2786   42.3281 H   0  0  0  0  0  0  0  0  0  0  0  0
   45.4092   33.6444   46.5005 H   0  0  0  0  0  0  0  0  0  0  0  0
   48.4398   34.5755   43.8573 H   0  0  0  0  0  0  0  0  0  0  0  0
   47.4899   32.5682   33.8836 H   0  0  0  0  0  0  0  0  0  0  0  0
   45.9420   32.4424   36.0825 H   0  0  0  0  0  0  0  0  0  0  0  0
   47.7066   29.2067   35.9320 H   0  0  0  0  0  0  0  0  0  0  0  0
   46.0436   28.6207   35.3674 H   0  0  0  0  0  0  0  0  0  0  0  0
   48.2842   29.6501   33.9788 H   0  0  0  0  0  0  0  0  0  0  0  0
   45.6112   30.6044   32.9857 H   0  0  0  0  0  0  0  0  0  0  0  0
   45.0225   33.0945   34.6178 H   0  0  0  0  0  0  0  0  0  0  0  0
   46.4946   27.7450   33.7600 H   0  0  0  0  0  0  0  0  0  0  0  0
   48.3527   31.2890   32.3776 H   0  0  0  0  0  0  0  0  0  0  0  0
  1  2  1  0
  2  7  1  0
  3  4  1  0
  3  2  1  0
  5  4  1  0
  5  1  1  0
  6  1  1  0
  7 12  1  0
  8  9  1  0
  8 19  1  0
  9 10  1  0
  9 15  1  0
 11 10  1  0
 12 11  1  0
 12  8  1  0
 13 18  2  0
 14 15  2  0
 14 13  1  0
 15 16  1  0
 16 17  2  0
 18 17  1  0
 20  5  1  0
 21 27  1  0
 21 22  1  0
 22 23  1  0
 22 20  1  0
 24 23  1  0
 25 28  1  0
 25 24  1  0
 26 29  1  0
 26 25  1  0
 26 21  1  0
  1 30  1  1
  2 31  1  1
  4 32  1  0
  4 33  1  0
  5 34  1  1
  6 35  1  0
  8 36  1  6
  9 37  1  6
 11 38  1  0
 11 39  1  0
 12 40  1  6
 13 41  1  0
 14 42  1  0
 17 43  1  0
 19 44  1  0
 21 45  1  6
 22 46  1  1
 24 47  1  0
 24 48  1  0
 25 49  1  1
 26 50  1  6
 27 51  1  0
 28 52  1  0
 29 53  1  0
M  ISO  8  30  13  31  13  32  13  33  13  34  13  35   3  36  13  37  13
M  ISO  8  38  13  39  13  40  13  41  14  42  14  43  14  44   3  45  13
M  ISO  8  46  13  47  13  48  13  49  13  50  13  51   3  52   3  53   3
M  END
>  <minimizedAffinity>  (1) 
-6.6546073

>  <minimizedRMSD>  (1) 
2.22878265

$$$$
