
     RDKit          3D

 42 44  0  0  1  0  0  0  0  0999 V2000
   46.8040   34.8850   42.1720 C   0  0  0  0  0  0  0  0  0  0  0  0
   48.0640   35.4640   42.0250 C   0  0  0  0  0  0  0  0  0  0  0  0
   48.8590   35.3690   40.8890 C   0  0  0  0  0  0  0  0  0  0  0  0
   48.3680   34.6470   39.8200 C   0  0  0  0  0  0  0  0  0  0  0  0
   47.1440   34.0940   39.9750 C   0  0  0  0  0  0  0  0  0  0  0  0
   46.4090   34.2070   41.0840 N   0  0  0  0  0  0  0  0  0  0  0  0
   44.4340   35.9150   44.8990 C   0  0  0  0  0  0  0  0  0  0  0  0
   45.1010   35.9780   43.6640 C   0  0  0  0  0  0  0  0  0  0  0  0
   46.0160   34.9980   43.3810 C   0  0  0  0  0  0  0  0  0  0  0  0
   46.2240   34.0140   44.3190 N   0  0  0  0  0  0  0  0  0  0  0  0
   45.5720   33.9750   45.4950 C   0  0  0  0  0  0  0  0  0  0  0  0
   44.6790   34.9340   45.7730 N   0  0  0  0  0  0  0  0  0  0  0  0
   46.6340   33.3700   38.9130 O   0  0  0  0  0  0  0  0  0  0  0  0
   48.0600   34.6130   37.0700 O   0  0  0  0  0  0  0  0  0  0  0  0
   47.4110   33.2940   37.3880 P   0  0  1  0  0  0  0  0  0  0  0  0
   48.6010   32.0860   37.4620 O   0  0  0  0  0  0  0  0  0  0  0  0
   46.2410   32.9270   36.2220 O   0  0  0  0  0  0  0  0  0  0  0  0
   44.5950   31.3990   35.5050 C   0  0  1  0  0  0  0  0  0  0  0  0
   45.9180   31.5880   36.1560 C   0  0  1  0  0  0  0  0  0  0  0  0
   46.9700   30.9600   35.5140 O   0  0  0  0  0  0  0  0  0  0  0  0
   46.6280   29.7710   34.8870 C   0  0  0  0  0  0  0  0  0  0  0  0
   45.8050   30.1390   33.6810 C   0  0  1  0  0  0  0  0  0  0  0  0
   44.6730   31.0450   34.0410 C   0  0  1  0  0  0  0  0  0  0  0  0
   43.7610   30.5110   36.1840 O   0  0  0  0  0  0  0  0  0  0  0  0
   46.6610   30.8350   32.7970 O   0  0  0  0  0  0  0  0  0  0  0  0
   43.4810   30.3740   33.7250 O   0  0  0  0  0  0  0  0  0  0  0  0
   48.4594   36.0407   42.8741 H   0  0  0  0  0  0  0  0  0  0  0  0
   49.8459   35.8527   40.8434 H   0  0  0  0  0  0  0  0  0  0  0  0
   48.9429   34.5277   38.8898 H   0  0  0  0  0  0  0  0  0  0  0  0
   43.6947   36.6893   45.1518 H   0  0  0  0  0  0  0  0  0  0  0  0
   44.8955   36.7873   42.9479 H   0  0  0  0  0  0  0  0  0  0  0  0
   45.7690   33.1686   46.2167 H   0  0  0  0  0  0  0  0  0  0  0  0
   48.8038   31.8801   38.4089 H   0  0  0  0  0  0  0  0  0  0  0  0
   44.1345   32.3961   35.5665 H   0  0  0  0  0  0  0  0  0  0  0  0
   45.7960   31.1341   37.1505 H   0  0  0  0  0  0  0  0  0  0  0  0
   47.5350   29.2315   34.5767 H   0  0  0  0  0  0  0  0  0  0  0  0
   46.0640   29.1139   35.5654 H   0  0  0  0  0  0  0  0  0  0  0  0
   45.3835   29.2258   33.2357 H   0  0  0  0  0  0  0  0  0  0  0  0
   44.8306   31.9810   33.4851 H   0  0  0  0  0  0  0  0  0  0  0  0
   43.8748   30.6321   37.1600 H   0  0  0  0  0  0  0  0  0  0  0  0
   47.3137   31.3657   33.3191 H   0  0  0  0  0  0  0  0  0  0  0  0
   43.0177   30.1132   34.5602 H   0  0  0  0  0  0  0  0  0  0  0  0
  1  9  1  0
  2  1  2  0
  3  2  1  0
  4  5  1  0
  4  3  2  0
  5  6  2  0
  6  1  1  0
  7 12  2  0
  8  7  1  0
  9  8  2  0
  9 10  1  0
 10 11  2  0
 11 12  1  0
 13  5  1  0
 15 14  2  0
 15 16  1  0
 15 13  1  0
 17 15  1  0
 18 19  1  0
 18 24  1  0
 19 17  1  0
 20 19  1  0
 21 20  1  0
 22 25  1  0
 22 23  1  0
 22 21  1  0
 23 26  1  0
 23 18  1  0
  2 27  1  0
  3 28  1  0
  4 29  1  0
  7 30  1  0
  8 31  1  0
 11 32  1  0
 16 33  1  0
 18 34  1  6
 19 35  1  1
 21 36  1  0
 21 37  1  0
 22 38  1  6
 23 39  1  6
 24 40  1  0
 25 41  1  0
 26 42  1  0
M  ISO  8  27  14  28  14  29  14  30  14  31  14  32  14  33   3  34  13
M  ISO  8  35  13  36  13  37  13  38  13  39  13  40   3  41   3  42   3
M  END
>  <minimizedAffinity>  (1) 
-6.33276224

>  <minimizedRMSD>  (1) 
3.32650781

$$$$
