
     RDKit          3D

 42 44  0  0  1  0  0  0  0  0999 V2000
   48.2550   33.0610   41.6490 C   0  0  0  0  0  0  0  0  0  0  0  0
   47.9170   34.3700   41.9400 C   0  0  0  0  0  0  0  0  0  0  0  0
   48.8960   35.2310   42.3900 C   0  0  0  0  0  0  0  0  0  0  0  0
   50.1870   34.7530   42.5360 C   0  0  0  0  0  0  0  0  0  0  0  0
   50.4700   33.4570   42.2350 C   0  0  0  0  0  0  0  0  0  0  0  0
   49.5270   32.5570   41.7820 C   0  0  0  0  0  0  0  0  0  0  0  0
   46.4850   34.7180   41.7320 C   0  0  0  0  0  0  0  0  0  0  0  0
   45.8230   34.9550   43.0560 C   0  0  0  0  0  0  0  0  0  0  0  0
   45.9360   33.9420   44.0110 C   0  0  0  0  0  0  0  0  0  0  0  0
   45.3360   34.1430   45.2570 C   0  0  0  0  0  0  0  0  0  0  0  0
   44.6850   35.3000   45.4630 N   0  0  0  0  0  0  0  0  0  0  0  0
   44.5870   36.2750   44.5150 C   0  0  0  0  0  0  0  0  0  0  0  0
   45.1600   36.0980   43.3090 N   0  0  0  0  0  0  0  0  0  0  0  0
   47.3120   32.1140   41.1810 O   0  0  0  0  0  0  0  0  0  0  0  0
   49.8820   31.2620   41.4950 O   0  0  0  0  0  0  0  0  0  0  0  0
   52.1360   30.6200   41.4020 C   0  0  2  0  0  0  0  0  0  0  0  0
   50.8400   30.7830   40.6350 C   0  0  2  0  0  0  0  0  0  0  0  0
   50.9930   31.6270   39.5370 O   0  0  0  0  0  0  0  0  0  0  0  0
   51.9360   31.1190   38.6510 C   0  0  0  0  0  0  0  0  0  0  0  0
   53.2810   31.2060   39.3290 C   0  0  1  0  0  0  0  0  0  0  0  0
   53.2720   30.2180   40.4820 C   0  0  1  0  0  0  0  0  0  0  0  0
   51.9300   29.6410   42.3640 O   0  0  0  0  0  0  0  0  0  0  0  0
   54.3430   30.9650   38.4560 O   0  0  0  0  0  0  0  0  0  0  0  0
   54.4700   30.3220   41.1790 O   0  0  0  0  0  0  0  0  0  0  0  0
   48.6556   36.2776   42.6284 H   0  0  0  0  0  0  0  0  0  0  0  0
   50.9837   35.4210   42.8953 H   0  0  0  0  0  0  0  0  0  0  0  0
   51.5057   33.1077   42.3593 H   0  0  0  0  0  0  0  0  0  0  0  0
   46.4158   35.6298   41.1206 H   0  0  0  0  0  0  0  0  0  0  0  0
   45.9803   33.8874   41.2169 H   0  0  0  0  0  0  0  0  0  0  0  0
   46.4814   33.0130   43.7888 H   0  0  0  0  0  0  0  0  0  0  0  0
   45.3949   33.3775   46.0448 H   0  0  0  0  0  0  0  0  0  0  0  0
   44.0410   37.2043   44.7347 H   0  0  0  0  0  0  0  0  0  0  0  0
   46.3669   32.3789   41.0515 H   0  0  0  0  0  0  0  0  0  0  0  0
   52.4182   31.5759   41.8673 H   0  0  0  0  0  0  0  0  0  0  0  0
   50.5306   29.8052   40.2373 H   0  0  0  0  0  0  0  0  0  0  0  0
   51.9418   31.7136   37.7256 H   0  0  0  0  0  0  0  0  0  0  0  0
   51.7001   30.0778   38.3858 H   0  0  0  0  0  0  0  0  0  0  0  0
   53.4398   32.2307   39.6960 H   0  0  0  0  0  0  0  0  0  0  0  0
   53.1486   29.1870   40.1188 H   0  0  0  0  0  0  0  0  0  0  0  0
   52.0142   30.0413   43.2655 H   0  0  0  0  0  0  0  0  0  0  0  0
   55.1634   30.7788   38.9779 H   0  0  0  0  0  0  0  0  0  0  0  0
   54.2881   30.3062   42.1520 H   0  0  0  0  0  0  0  0  0  0  0  0
  1  6  2  0
  1  2  1  0
  2  3  2  0
  3  4  1  0
  5  4  2  0
  6  5  1  0
  7  2  1  0
  7  8  1  0
  8 13  1  0
  8  9  2  0
  9 10  1  0
 10 11  2  0
 12 11  1  0
 13 12  2  0
 14  1  1  0
 15  6  1  0
 16 22  1  0
 17 16  1  0
 17 15  1  0
 18 17  1  0
 19 20  1  0
 19 18  1  0
 20 23  1  0
 20 21  1  0
 21 24  1  0
 21 16  1  0
  3 25  1  0
  4 26  1  0
  5 27  1  0
  7 28  1  0
  7 29  1  0
  9 30  1  0
 10 31  1  0
 12 32  1  0
 14 33  1  0
 16 34  1  1
 17 35  1  6
 19 36  1  0
 19 37  1  0
 20 38  1  1
 21 39  1  6
 22 40  1  0
 23 41  1  0
 24 42  1  0
M  ISO  8  25  14  26  14  27  14  28   8  29   8  30  14  31  14  32  14
M  ISO  8  33   3  34  13  35  13  36  13  37  13  38  13  39  13  40   3
M  ISO  2  41   3  42   3
M  END
>  <minimizedAffinity>  (1) 
-5.64928532

>  <minimizedRMSD>  (1) 
1.312222

$$$$
