
     RDKit          3D

 46 48  0  0  1  0  0  0  0  0999 V2000
   48.8270   33.4400   40.3960 C   0  0  0  0  0  0  0  0  0  0  0  0
   48.8170   32.7090   39.2230 C   0  0  0  0  0  0  0  0  0  0  0  0
   49.6110   31.5820   39.0660 C   0  0  0  0  0  0  0  0  0  0  0  0
   50.4030   31.2320   40.1330 N   0  0  0  0  0  0  0  0  0  0  0  0
   50.3850   31.9690   41.2590 C   0  0  0  0  0  0  0  0  0  0  0  0
   49.6180   33.0410   41.3850 N   0  0  0  0  0  0  0  0  0  0  0  0
   47.9460   34.6210   40.4620 C   0  0  0  0  0  0  0  0  0  0  0  0
   47.2920   34.7860   41.8110 C   0  0  0  0  0  0  0  0  0  0  0  0
   45.8070   34.7920   41.7690 C   0  0  0  0  0  0  0  0  0  0  0  0
   45.0790   35.6490   42.6470 C   0  0  0  0  0  0  0  0  0  0  0  0
   43.3280   35.2920   42.2130 S   0  0  0  0  0  0  0  0  0  0  0  0
   43.8840   34.0260   40.9010 C   0  0  0  0  0  0  0  0  0  0  0  0
   45.0180   34.0810   40.9950 N   0  0  0  0  0  0  0  0  0  0  0  0
   42.9860   33.3050   40.1120 O   0  0  0  0  0  0  0  0  0  0  0  0
   41.3640   33.1640   38.0240 O   0  0  0  0  0  0  0  0  0  0  0  0
   42.3520   34.0820   38.7420 P   0  0  0  0  0  0  0  0  0  0  0  0
   41.5620   35.4780   39.2510 O   0  0  0  0  0  0  0  0  0  0  0  0
   43.6240   34.5210   37.7040 O   0  0  0  0  0  0  0  0  0  0  0  0
   47.7510   33.2200   37.8520 S   0  0  0  0  0  0  0  0  0  0  0  0
   48.0710   32.8110   35.2190 C   0  0  2  0  0  0  0  0  0  0  0  0
   47.8550   32.0350   36.5220 C   0  0  2  0  0  0  0  0  0  0  0  0
   46.6460   31.3370   36.4860 O   0  0  0  0  0  0  0  0  0  0  0  0
   45.6940   32.1960   35.9370 C   0  0  0  0  0  0  0  0  0  0  0  0
   45.8080   32.0580   34.4360 C   0  0  2  0  0  0  0  0  0  0  0  0
   47.2780   32.1980   34.0890 C   0  0  1  0  0  0  0  0  0  0  0  0
   49.4160   32.7510   34.8570 O   0  0  0  0  0  0  0  0  0  0  0  0
   45.0120   32.9980   33.7820 O   0  0  0  0  0  0  0  0  0  0  0  0
   47.4100   33.0310   32.9870 O   0  0  0  0  0  0  0  0  0  0  0  0
   49.6067   30.9979   38.1339 H   0  0  0  0  0  0  0  0  0  0  0  0
   51.0275   31.6715   42.1009 H   0  0  0  0  0  0  0  0  0  0  0  0
   48.5449   35.5188   40.2493 H   0  0  0  0  0  0  0  0  0  0  0  0
   47.1459   34.4799   39.7204 H   0  0  0  0  0  0  0  0  0  0  0  0
   47.6159   33.9557   42.4557 H   0  0  0  0  0  0  0  0  0  0  0  0
   47.6022   35.7688   42.1956 H   0  0  0  0  0  0  0  0  0  0  0  0
   45.4692   36.3508   43.3988 H   0  0  0  0  0  0  0  0  0  0  0  0
   41.5461   35.5060   40.2405 H   0  0  0  0  0  0  0  0  0  0  0  0
   44.4099   34.7922   38.2415 H   0  0  0  0  0  0  0  0  0  0  0  0
   47.7467   33.8482   35.3896 H   0  0  0  0  0  0  0  0  0  0  0  0
   48.6837   31.3250   36.6606 H   0  0  0  0  0  0  0  0  0  0  0  0
   44.6857   31.9086   36.2698 H   0  0  0  0  0  0  0  0  0  0  0  0
   45.8643   33.2350   36.2555 H   0  0  0  0  0  0  0  0  0  0  0  0
   45.4391   31.0782   34.0987 H   0  0  0  0  0  0  0  0  0  0  0  0
   47.6638   31.1879   33.8870 H   0  0  0  0  0  0  0  0  0  0  0  0
   49.9765   32.7260   35.6727 H   0  0  0  0  0  0  0  0  0  0  0  0
   44.5408   33.5545   34.4516 H   0  0  0  0  0  0  0  0  0  0  0  0
   47.5574   33.9612   33.2922 H   0  0  0  0  0  0  0  0  0  0  0  0
  1  7  1  0
  1  6  2  0
  2  1  1  0
  3  2  2  0
  3  4  1  0
  4  5  2  0
  5  6  1  0
  7  8  1  0
  9  8  1  0
  9 10  2  0
 11 10  1  0
 12 13  2  0
 12 11  1  0
 13  9  1  0
 14 12  1  0
 15 16  2  0
 16 17  1  0
 16 14  1  0
 18 16  1  0
 19  2  1  0
 20 26  1  0
 20 21  1  0
 21 19  1  0
 22 21  1  0
 23 22  1  0
 24 27  1  0
 24 23  1  0
 25 28  1  0
 25 24  1  0
 25 20  1  0
  3 29  1  0
  5 30  1  0
  7 31  1  0
  7 32  1  0
  8 33  1  0
  8 34  1  0
 10 35  1  0
 17 36  1  0
 18 37  1  0
 20 38  1  1
 21 39  1  1
 23 40  1  0
 23 41  1  0
 24 42  1  1
 25 43  1  6
 26 44  1  0
 27 45  1  0
 28 46  1  0
M  ISO  8  29  14  30  14  31   8  32   8  33   8  34   8  35  14  36   3
M  ISO  8  37   3  38  13  39  13  40  13  41  13  42  13  43  13  44   3
M  ISO  2  45   3  46   3
M  END
>  <minimizedAffinity>  (1) 
-6.5931406

>  <minimizedRMSD>  (1) 
3.21128011

$$$$
