
     RDKit          3D

 36 37  0  0  1  0  0  0  0  0999 V2000
   44.6190   31.5980   48.8880 O   0  0  0  0  0  0  0  0  0  0  0  0
   45.5870   31.7780   47.7030 P   0  0  1  0  0  0  0  0  0  0  0  0
   45.3180   30.5080   46.6420 O   0  0  0  0  0  0  0  0  0  0  0  0
   45.2650   33.3100   47.0710 O   0  0  0  0  0  0  0  0  0  0  0  0
   45.4940   35.1210   43.9370 C   0  0  0  0  0  0  0  0  0  0  0  0
   46.5320   34.4310   43.3290 C   0  0  0  0  0  0  0  0  0  0  0  0
   47.1300   33.3640   44.0030 C   0  0  0  0  0  0  0  0  0  0  0  0
   46.6420   33.0660   45.2370 N   0  0  0  0  0  0  0  0  0  0  0  0
   45.6330   33.7520   45.8080 C   0  0  0  0  0  0  0  0  0  0  0  0
   45.0500   34.7890   45.1540 N   0  0  0  0  0  0  0  0  0  0  0  0
   44.8560   36.2570   43.2210 C   0  0  0  0  0  0  0  0  0  0  0  0
   47.1900   31.7050   48.2370 O   0  0  0  0  0  0  0  0  0  0  0  0
   49.0200   30.3310   48.8850 C   0  0  2  0  0  0  0  0  0  0  0  0
   47.7540   30.4530   48.0580 C   0  0  2  0  0  0  0  0  0  0  0  0
   48.1250   30.3660   46.7180 O   0  0  0  0  0  0  0  0  0  0  0  0
   48.7320   29.1800   46.3730 C   0  0  0  0  0  0  0  0  0  0  0  0
   50.0040   28.9280   47.1690 C   0  0  1  0  0  0  0  0  0  0  0  0
   49.5920   28.9370   48.6240 C   0  0  1  0  0  0  0  0  0  0  0  0
   48.7940   30.4230   50.2420 O   0  0  0  0  0  0  0  0  0  0  0  0
   50.4430   27.6540   46.8250 O   0  0  0  0  0  0  0  0  0  0  0  0
   50.6110   28.6040   49.4930 O   0  0  0  0  0  0  0  0  0  0  0  0
   45.1427   29.6802   47.1559 H   0  0  0  0  0  0  0  0  0  0  0  0
   46.8805   34.7210   42.3268 H   0  0  0  0  0  0  0  0  0  0  0  0
   47.9567   32.7916   43.5569 H   0  0  0  0  0  0  0  0  0  0  0  0
   44.4541   36.9727   43.9533 H   0  0  0  0  0  0  0  0  0  0  0  0
   45.6040   36.7592   42.5900 H   0  0  0  0  0  0  0  0  0  0  0  0
   44.0378   35.8796   42.5900 H   0  0  0  0  0  0  0  0  0  0  0  0
   49.6915   31.1531   48.5963 H   0  0  0  0  0  0  0  0  0  0  0  0
   47.0405   29.6698   48.3538 H   0  0  0  0  0  0  0  0  0  0  0  0
   48.0286   28.3553   46.5602 H   0  0  0  0  0  0  0  0  0  0  0  0
   49.0074   29.2404   45.3097 H   0  0  0  0  0  0  0  0  0  0  0  0
   50.7937   29.6696   46.9781 H   0  0  0  0  0  0  0  0  0  0  0  0
   48.8423   28.1549   48.8145 H   0  0  0  0  0  0  0  0  0  0  0  0
   49.5908   30.0987   50.7320 H   0  0  0  0  0  0  0  0  0  0  0  0
   50.6224   27.1334   47.6478 H   0  0  0  0  0  0  0  0  0  0  0  0
   50.2960   28.7069   50.4259 H   0  0  0  0  0  0  0  0  0  0  0  0
  2 12  1  0
  2  1  2  0
  3  2  1  0
  4  2  1  0
  5 10  2  0
  6  5  1  0
  6  7  2  0
  7  8  1  0
  8  9  2  0
  9  4  1  0
 10  9  1  0
 11  5  1  0
 13 19  1  0
 14 12  1  0
 14 13  1  0
 15 14  1  0
 16 15  1  0
 16 17  1  0
 17 20  1  0
 17 18  1  0
 18 13  1  0
 18 21  1  0
  3 22  1  0
  6 23  1  0
  7 24  1  0
 11 25  1  0
 11 26  1  0
 11 27  1  0
 13 28  1  6
 14 29  1  1
 16 30  1  0
 16 31  1  0
 17 32  1  1
 18 33  1  6
 19 34  1  0
 20 35  1  0
 21 36  1  0
M  ISO  8  22   3  23  14  24  14  25   8  26   8  27   8  28  13  29  13
M  ISO  7  30  13  31  13  32  13  33  13  34   3  35   3  36   3
M  END
>  <minimizedAffinity>  (1) 
-5.0849328

>  <minimizedRMSD>  (1) 
1.76884341

$$$$
