
     RDKit          3D

 35 36  0  0  1  0  0  0  0  0999 V2000
   47.5200   32.1570   48.5020 O   0  0  0  0  0  0  0  0  0  0  0  0
   45.5600   30.6220   47.6910 O   0  0  0  0  0  0  0  0  0  0  0  0
   45.8810   31.9390   48.4350 P   0  0  1  0  0  0  0  0  0  0  0  0
   45.2060   31.7710   49.9640 O   0  0  0  0  0  0  0  0  0  0  0  0
   45.1490   33.2100   47.6030 O   0  0  0  0  0  0  0  0  0  0  0  0
   47.0400   33.1560   44.5010 C   0  0  0  0  0  0  0  0  0  0  0  0
   46.5940   32.8400   45.7960 C   0  0  0  0  0  0  0  0  0  0  0  0
   45.5490   33.5570   46.3300 C   0  0  0  0  0  0  0  0  0  0  0  0
   45.0030   34.5360   45.5730 N   0  0  0  0  0  0  0  0  0  0  0  0
   45.4240   34.8410   44.3410 C   0  0  0  0  0  0  0  0  0  0  0  0
   46.4560   34.1400   43.8010 N   0  0  0  0  0  0  0  0  0  0  0  0
   48.5000   31.4350   49.0930 C   0  0  0  0  0  0  0  0  0  0  0  0
   49.6080   32.0720   49.1790 O   0  0  0  0  0  0  0  0  0  0  0  0
   50.5520   30.7900   50.3200 C   0  0  2  0  0  0  0  0  0  0  0  0
   49.2250   30.3340   49.7560 C   0  0  2  0  0  0  0  0  0  0  0  0
   49.3600   29.2290   48.9250 O   0  0  0  0  0  0  0  0  0  0  0  0
   50.5750   29.1230   48.2900 C   0  0  0  0  0  0  0  0  0  0  0  0
   51.7770   29.0810   49.1780 C   0  0  2  0  0  0  0  0  0  0  0  0
   51.3270   29.5020   50.5670 C   0  0  1  0  0  0  0  0  0  0  0  0
   50.3490   31.4680   51.5440 O   0  0  0  0  0  0  0  0  0  0  0  0
   52.7040   30.0710   48.7840 O   0  0  0  0  0  0  0  0  0  0  0  0
   52.4060   29.6850   51.4170 O   0  0  0  0  0  0  0  0  0  0  0  0
   45.8978   31.9432   50.6509 H   0  0  0  0  0  0  0  0  0  0  0  0
   47.8743   32.5921   44.0583 H   0  0  0  0  0  0  0  0  0  0  0  0
   47.0721   32.0339   46.3718 H   0  0  0  0  0  0  0  0  0  0  0  0
   44.9413   35.6490   43.7716 H   0  0  0  0  0  0  0  0  0  0  0  0
   51.0805   31.4786   49.6444 H   0  0  0  0  0  0  0  0  0  0  0  0
   48.6120   30.0141   50.6115 H   0  0  0  0  0  0  0  0  0  0  0  0
   50.5640   28.1982   47.6945 H   0  0  0  0  0  0  0  0  0  0  0  0
   50.6790   30.0413   47.6934 H   0  0  0  0  0  0  0  0  0  0  0  0
   52.2206   28.0753   49.1369 H   0  0  0  0  0  0  0  0  0  0  0  0
   50.7121   28.7410   51.0698 H   0  0  0  0  0  0  0  0  0  0  0  0
   50.5334   30.8522   52.2969 H   0  0  0  0  0  0  0  0  0  0  0  0
   53.0986   30.4924   49.5883 H   0  0  0  0  0  0  0  0  0  0  0  0
   52.0985   29.6328   52.3566 H   0  0  0  0  0  0  0  0  0  0  0  0
  1 12  1  0
  3  2  2  0
  3  1  1  0
  3  4  1  0
  5  3  1  0
  6  7  2  0
  7  8  1  0
  8  5  1  0
  9  8  2  0
 10  9  1  0
 11 10  2  0
 11  6  1  0
 12 13  2  0
 14 19  1  0
 14 20  1  0
 15 12  1  0
 15 14  1  0
 16 15  1  0
 17 16  1  0
 17 18  1  0
 18 21  1  0
 18 19  1  0
 19 22  1  0
  4 23  1  0
  6 24  1  0
  7 25  1  0
 10 26  1  0
 14 27  1  6
 15 28  1  1
 17 29  1  0
 17 30  1  0
 18 31  1  1
 19 32  1  1
 20 33  1  0
 21 34  1  0
 22 35  1  0
M  ISO  8  23   3  24  14  25  14  26  14  27  13  28  13  29  13  30  13
M  ISO  5  31  13  32  13  33   3  34   3  35   3
M  END
>  <minimizedAffinity>  (1) 
-5.35800838

>  <minimizedRMSD>  (1) 
1.1201719

$$$$
