
     RDKit          3D

 53 55  0  0  1  0  0  0  0  0999 V2000
   44.7250   35.7470   44.6330 C   0  0  0  0  0  0  0  0  0  0  0  0
   44.0860   35.9060   43.3790 C   0  0  0  0  0  0  0  0  0  0  0  0
   44.0880   34.8120   42.5350 C   0  0  0  0  0  0  0  0  0  0  0  0
   44.6830   33.6680   42.9280 N   0  0  0  0  0  0  0  0  0  0  0  0
   45.2750   33.5750   44.1320 C   0  0  0  0  0  0  0  0  0  0  0  0
   45.3040   34.5800   44.9780 N   0  0  0  0  0  0  0  0  0  0  0  0
   45.9020   32.2870   44.4850 C   0  0  0  0  0  0  0  0  0  0  0  0
   46.7140   32.4670   45.7460 C   0  0  0  0  0  0  0  0  0  0  0  0
   46.1370   31.7800   46.8770 C   0  0  0  0  0  0  0  0  0  0  0  0
   45.3860   32.2920   47.8970 C   0  0  0  0  0  0  0  0  0  0  0  0
   44.8850   31.5540   48.9220 C   0  0  0  0  0  0  0  0  0  0  0  0
   45.1520   30.2000   48.9350 C   0  0  0  0  0  0  0  0  0  0  0  0
   45.9060   29.6730   47.9150 C   0  0  0  0  0  0  0  0  0  0  0  0
   46.4020   30.4470   46.8870 C   0  0  0  0  0  0  0  0  0  0  0  0
   48.5050   29.3400   46.4150 C   0  0  0  0  0  0  0  0  0  0  0  0
   49.3190   29.6840   47.3440 O   0  0  0  0  0  0  0  0  0  0  0  0
   47.1420   29.5840   46.0080 N   0  0  0  0  0  0  0  0  0  0  0  0
   43.4170   34.9890   41.2240 C   0  0  0  0  0  0  0  0  0  0  0  0
   41.9820   35.4710   41.3980 C   0  0  0  0  0  0  0  0  0  0  0  0
   41.9870   34.8960   38.9840 C   0  0  1  0  0  0  0  0  0  0  0  0
   41.2430   35.5420   40.0680 C   0  0  1  0  0  0  0  0  0  0  0  0
   39.9590   35.1540   40.3270 O   0  0  0  0  0  0  0  0  0  0  0  0
   39.2660   34.6270   39.2690 C   0  0  0  0  0  0  0  0  0  0  0  0
   39.9930   33.3490   38.8930 C   0  0  1  0  0  0  0  0  0  0  0  0
   41.2620   33.8420   38.2030 C   0  0  2  0  0  0  0  0  0  0  0  0
   42.4830   35.8250   38.0460 O   0  0  0  0  0  0  0  0  0  0  0  0
   40.3170   32.5860   40.0170 O   0  0  0  0  0  0  0  0  0  0  0  0
   42.1050   32.7550   37.9130 O   0  0  0  0  0  0  0  0  0  0  0  0
   44.7491   36.5911   45.3379 H   0  0  0  0  0  0  0  0  0  0  0  0
   43.6108   36.8552   43.0907 H   0  0  0  0  0  0  0  0  0  0  0  0
   45.1215   31.5303   44.6533 H   0  0  0  0  0  0  0  0  0  0  0  0
   46.5556   31.9538   43.6654 H   0  0  0  0  0  0  0  0  0  0  0  0
   47.7265   32.0734   45.5730 H   0  0  0  0  0  0  0  0  0  0  0  0
   46.7329   33.5414   45.9812 H   0  0  0  0  0  0  0  0  0  0  0  0
   45.1732   33.3712   47.8879 H   0  0  0  0  0  0  0  0  0  0  0  0
   44.2851   32.0213   49.7169 H   0  0  0  0  0  0  0  0  0  0  0  0
   44.7702   29.5583   49.7428 H   0  0  0  0  0  0  0  0  0  0  0  0
   46.1221   28.5944   47.9182 H   0  0  0  0  0  0  0  0  0  0  0  0
   48.9950   28.6477   45.7145 H   0  0  0  0  0  0  0  0  0  0  0  0
   46.7329   29.1730   45.1567 H   0  0  0  0  0  0  0  0  0  0  0  0
   43.4097   34.0262   40.6921 H   0  0  0  0  0  0  0  0  0  0  0  0
   43.9707   35.7463   40.6496 H   0  0  0  0  0  0  0  0  0  0  0  0
   41.4509   34.7746   42.0635 H   0  0  0  0  0  0  0  0  0  0  0  0
   42.0114   36.4835   41.8268 H   0  0  0  0  0  0  0  0  0  0  0  0
   42.7914   34.3976   39.5449 H   0  0  0  0  0  0  0  0  0  0  0  0
   41.1732   36.5547   39.6444 H   0  0  0  0  0  0  0  0  0  0  0  0
   38.2292   34.4056   39.5625 H   0  0  0  0  0  0  0  0  0  0  0  0
   39.2208   35.3302   38.4244 H   0  0  0  0  0  0  0  0  0  0  0  0
   39.3759   32.6955   38.2589 H   0  0  0  0  0  0  0  0  0  0  0  0
   40.9533   34.3235   37.2634 H   0  0  0  0  0  0  0  0  0  0  0  0
   42.8914   36.5900   38.5235 H   0  0  0  0  0  0  0  0  0  0  0  0
   40.0999   33.0971   40.8366 H   0  0  0  0  0  0  0  0  0  0  0  0
   42.4209   32.3477   38.7582 H   0  0  0  0  0  0  0  0  0  0  0  0
  1  6  2  0
  2  1  1  0
  3  4  1  0
  3  2  2  0
  4  5  2  0
  5  7  1  0
  5  6  1  0
  7  8  1  0
  8  9  1  0
  9 14  1  0
  9 10  2  0
 10 11  1  0
 11 12  2  0
 13 12  1  0
 14 13  2  0
 15 16  2  0
 17 15  1  0
 17 14  1  0
 18 19  1  0
 18  3  1  0
 20 26  1  0
 20 21  1  0
 21 22  1  0
 21 19  1  0
 23 22  1  0
 24 23  1  0
 24 27  1  0
 25 28  1  0
 25 24  1  0
 25 20  1  0
  1 29  1  0
  2 30  1  0
  7 31  1  0
  7 32  1  0
  8 33  1  0
  8 34  1  0
 10 35  1  0
 11 36  1  0
 12 37  1  0
 13 38  1  0
 15 39  1  0
 17 40  1  0
 18 41  1  0
 18 42  1  0
 19 43  1  0
 19 44  1  0
 20 45  1  1
 21 46  1  6
 23 47  1  0
 23 48  1  0
 24 49  1  6
 25 50  1  6
 26 51  1  0
 27 52  1  0
 28 53  1  0
M  ISO  8  29  14  30  14  31   8  32   8  33   8  34   8  35  14  36  14
M  ISO  8  37  14  38  14  39   6  41   8  42   8  43   8  44   8  45  13
M  ISO  8  46  13  47  13  48  13  49  13  50  13  51   3  52   3  53   3
M  END
>  <minimizedAffinity>  (1) 
-6.28030348

>  <minimizedRMSD>  (1) 
0.781657577

$$$$
