
     RDKit          3D

 58 61  0  0  1  0  0  0  0  0999 V2000
   45.8170   29.9170   46.9360 C   0  0  0  0  0  0  0  0  0  0  0  0
   44.9930   34.5680   44.8890 C   0  0  0  0  0  0  0  0  0  0  0  0
   45.9450   34.5610   43.8320 C   0  0  0  0  0  0  0  0  0  0  0  0
   47.0750   33.7620   43.9640 C   0  0  0  0  0  0  0  0  0  0  0  0
   47.1960   33.0350   45.1020 N   0  0  0  0  0  0  0  0  0  0  0  0
   46.3100   33.0380   46.0910 C   0  0  0  0  0  0  0  0  0  0  0  0
   45.2360   33.8080   45.9470 N   0  0  0  0  0  0  0  0  0  0  0  0
   46.5230   32.2560   47.2210 N   0  0  0  0  0  0  0  0  0  0  0  0
   47.7140   32.4330   48.0220 C   0  0  0  0  0  0  0  0  0  0  0  0
   48.0020   31.2830   48.9360 C   0  0  0  0  0  0  0  0  0  0  0  0
   46.8770   30.5800   49.4550 N   0  0  0  0  0  0  0  0  0  0  0  0
   45.6200   31.1840   49.0830 C   0  0  0  0  0  0  0  0  0  0  0  0
   45.5160   31.2410   47.5960 C   0  0  2  0  0  0  0  0  0  0  0  0
   44.6990   28.9910   47.3510 C   0  0  0  0  0  0  0  0  0  0  0  0
   44.6420   27.7520   46.8600 C   0  0  0  0  0  0  0  0  0  0  0  0
   43.5920   26.7590   47.1920 C   0  0  0  0  0  0  0  0  0  0  0  0
   42.6130   26.6770   46.0330 C   0  0  2  0  0  0  0  0  0  0  0  0
   43.0690   25.9910   44.7840 C   0  0  0  0  0  0  0  0  0  0  0  0
   42.8390   27.4830   44.8250 C   0  0  1  0  0  0  0  0  0  0  0  0
   40.9370   29.0800   44.8900 C   0  0  1  0  0  0  0  0  0  0  0  0
   41.7290   28.1020   44.0470 C   0  0  2  0  0  0  0  0  0  0  0  0
   40.8000   27.1960   43.5560 O   0  0  0  0  0  0  0  0  0  0  0  0
   40.1370   27.8360   42.5220 C   0  0  0  0  0  0  0  0  0  0  0  0
   39.5030   29.1360   42.8680 C   0  0  1  0  0  0  0  0  0  0  0  0
   40.2190   29.9620   43.8940 C   0  0  2  0  0  0  0  0  0  0  0  0
   40.0120   28.3310   45.6050 O   0  0  0  0  0  0  0  0  0  0  0  0
   39.4740   29.9180   41.6990 O   0  0  0  0  0  0  0  0  0  0  0  0
   41.1820   30.7940   43.3350 O   0  0  0  0  0  0  0  0  0  0  0  0
   46.7860   29.5276   47.2816 H   0  0  0  0  0  0  0  0  0  0  0  0
   45.8799   30.0133   45.8420 H   0  0  0  0  0  0  0  0  0  0  0  0
   44.0840   35.1847   44.8300 H   0  0  0  0  0  0  0  0  0  0  0  0
   45.7907   35.1734   42.9314 H   0  0  0  0  0  0  0  0  0  0  0  0
   47.8412   33.7212   43.1758 H   0  0  0  0  0  0  0  0  0  0  0  0
   48.5715   32.5616   47.3452 H   0  0  0  0  0  0  0  0  0  0  0  0
   47.5449   33.3142   48.6583 H   0  0  0  0  0  0  0  0  0  0  0  0
   48.6181   30.5613   48.3795 H   0  0  0  0  0  0  0  0  0  0  0  0
   48.4943   31.7278   49.8133 H   0  0  0  0  0  0  0  0  0  0  0  0
   46.8975   29.6149   49.0957 H   0  0  0  0  0  0  0  0  0  0  0  0
   44.7912   30.5832   49.4857 H   0  0  0  0  0  0  0  0  0  0  0  0
   45.5675   32.2032   49.4934 H   0  0  0  0  0  0  0  0  0  0  0  0
   44.4953   31.4864   47.2674 H   0  0  0  0  0  0  0  0  0  0  0  0
   43.9314   29.3381   48.0583 H   0  0  0  0  0  0  0  0  0  0  0  0
   45.4311   27.4447   46.1580 H   0  0  0  0  0  0  0  0  0  0  0  0
   44.0533   25.7741   47.3569 H   0  0  0  0  0  0  0  0  0  0  0  0
   43.0637   27.0648   48.1071 H   0  0  0  0  0  0  0  0  0  0  0  0
   41.7628   26.5661   46.7221 H   0  0  0  0  0  0  0  0  0  0  0  0
   42.3800   25.3393   44.2267 H   0  0  0  0  0  0  0  0  0  0  0  0
   43.9056   25.3316   44.5096 H   0  0  0  0  0  0  0  0  0  0  0  0
   43.4365   28.3804   44.6067 H   0  0  0  0  0  0  0  0  0  0  0  0
   41.5490   29.6756   45.5833 H   0  0  0  0  0  0  0  0  0  0  0  0
   42.2467   28.5910   43.2086 H   0  0  0  0  0  0  0  0  0  0  0  0
   39.3478   27.1616   42.1581 H   0  0  0  0  0  0  0  0  0  0  0  0
   40.9068   28.0687   41.7715 H   0  0  0  0  0  0  0  0  0  0  0  0
   38.5206   28.8772   43.2898 H   0  0  0  0  0  0  0  0  0  0  0  0
   39.4386   30.5679   44.3776 H   0  0  0  0  0  0  0  0  0  0  0  0
   40.1657   28.4555   46.5750 H   0  0  0  0  0  0  0  0  0  0  0  0
   39.4385   30.8765   41.9440 H   0  0  0  0  0  0  0  0  0  0  0  0
   41.6947   31.2369   44.0569 H   0  0  0  0  0  0  0  0  0  0  0  0
  1 14  1  0
  1 13  1  0
  2  7  2  0
  3  4  2  0
  3  2  1  0
  4  5  1  0
  5  6  2  0
  6  8  1  0
  7  6  1  0
  8 13  1  0
  8  9  1  0
  9 10  1  0
 10 11  1  0
 12 11  1  0
 13 12  1  0
 15 16  1  0
 15 14  2  0
 17 16  1  0
 18 19  1  0
 18 17  1  0
 19 17  1  0
 20 26  1  0
 21 22  1  0
 21 19  1  0
 21 20  1  0
 23 24  1  0
 23 22  1  0
 24 27  1  0
 24 25  1  0
 25 28  1  0
 25 20  1  0
  1 29  1  0
  1 30  1  0
  2 31  1  0
  3 32  1  0
  4 33  1  0
  9 34  1  0
  9 35  1  0
 10 36  1  0
 10 37  1  0
 11 38  1  0
 12 39  1  0
 12 40  1  0
 13 41  1  1
 14 42  1  0
 15 43  1  0
 16 44  1  0
 16 45  1  0
 17 46  1  1
 18 47  1  0
 18 48  1  0
 19 49  1  1
 20 50  1  1
 21 51  1  6
 23 52  1  0
 23 53  1  0
 24 54  1  1
 25 55  1  1
 26 56  1  0
 27 57  1  0
 28 58  1  0
M  ISO  8  29   8  30   8  31  14  32  14  33  14  34  13  35  13  36  13
M  ISO  8  37  13  38   5  39  13  40  13  41  13  44   8  45   8  46  13
M  ISO  8  47  13  48  13  49  13  50  13  51  13  52  13  53  13  54  13
M  ISO  4  55  13  56   3  57   3  58   3
M  END
>  <minimizedAffinity>  (1) 
-6.33693743

>  <minimizedRMSD>  (1) 
2.23681998

$$$$
