
     RDKit          3D

 34 35  0  0  1  0  0  0  0  0999 V2000
   44.8480   35.0030   44.5990 C   0  0  0  0  0  0  0  0  0  0  0  0
   44.8210   34.3520   43.3700 C   0  0  0  0  0  0  0  0  0  0  0  0
   45.3050   33.0570   43.3070 C   0  0  0  0  0  0  0  0  0  0  0  0
   45.7880   32.4750   44.4530 N   0  0  0  0  0  0  0  0  0  0  0  0
   45.7990   33.1360   45.6260 C   0  0  0  0  0  0  0  0  0  0  0  0
   45.3310   34.3940   45.6950 N   0  0  0  0  0  0  0  0  0  0  0  0
   46.3790   31.0210   46.6670 C   0  0  1  0  0  0  0  0  0  0  0  0
   46.3190   32.5140   46.8660 C   0  0  2  0  0  0  0  0  0  0  0  0
   45.4420   32.8160   47.8850 O   0  0  0  0  0  0  0  0  0  0  0  0
   45.8440   32.3450   49.1210 C   0  0  0  0  0  0  0  0  0  0  0  0
   46.0890   30.8590   49.0850 C   0  0  2  0  0  0  0  0  0  0  0  0
   46.9880   30.4470   47.9370 C   0  0  1  0  0  0  0  0  0  0  0  0
   45.1030   30.4800   46.5400 O   0  0  0  0  0  0  0  0  0  0  0  0
   44.8750   30.1800   48.9580 O   0  0  0  0  0  0  0  0  0  0  0  0
   47.0080   29.0580   47.9090 O   0  0  0  0  0  0  0  0  0  0  0  0
   44.3080   34.9840   42.1720 C   0  0  0  0  0  0  0  0  0  0  0  0
   43.3460   34.5510   41.3930 C   0  0  0  0  0  0  0  0  0  0  0  0
   42.9110   35.3040   40.1770 C   0  0  0  0  0  0  0  0  0  0  0  0
   44.4680   36.0325   44.6748 H   0  0  0  0  0  0  0  0  0  0  0  0
   45.3028   32.5040   42.3561 H   0  0  0  0  0  0  0  0  0  0  0  0
   46.9554   30.7885   45.7594 H   0  0  0  0  0  0  0  0  0  0  0  0
   47.3248   32.8870   47.1096 H   0  0  0  0  0  0  0  0  0  0  0  0
   46.7736   32.8548   49.4141 H   0  0  0  0  0  0  0  0  0  0  0  0
   45.0439   32.5484   49.8480 H   0  0  0  0  0  0  0  0  0  0  0  0
   46.5906   30.5977   50.0285 H   0  0  0  0  0  0  0  0  0  0  0  0
   48.0192   30.8159   48.0397 H   0  0  0  0  0  0  0  0  0  0  0  0
   44.7220   30.3185   47.4394 H   0  0  0  0  0  0  0  0  0  0  0  0
   44.5141   29.9782   49.8575 H   0  0  0  0  0  0  0  0  0  0  0  0
   47.0130   28.7093   48.8355 H   0  0  0  0  0  0  0  0  0  0  0  0
   44.7788   35.9352   41.8827 H   0  0  0  0  0  0  0  0  0  0  0  0
   42.8437   33.6046   41.6420 H   0  0  0  0  0  0  0  0  0  0  0  0
   42.3823   36.2191   40.4820 H   0  0  0  0  0  0  0  0  0  0  0  0
   43.7930   35.5727   39.5771 H   0  0  0  0  0  0  0  0  0  0  0  0
   42.2376   34.6742   39.5771 H   0  0  0  0  0  0  0  0  0  0  0  0
  1  6  2  0
  2  1  1  0
  3  2  2  0
  3  4  1  0
  4  5  2  0
  5  6  1  0
  7 13  1  0
  7  8  1  0
  7 12  1  0
  8  5  1  0
  8  9  1  0
  9 10  1  0
 11 14  1  0
 11 10  1  0
 12 15  1  0
 12 11  1  0
 16  2  1  0
 17 16  2  0
 18 17  1  0
  1 19  1  0
  3 20  1  0
  7 21  1  6
  8 22  1  1
 10 23  1  0
 10 24  1  0
 11 25  1  1
 12 26  1  1
 13 27  1  0
 14 28  1  0
 15 29  1  0
 16 30  1  0
 17 31  1  0
 18 32  1  0
 18 33  1  0
 18 34  1  0
M  ISO  8  19  14  20  14  21  13  22  13  23  13  24  13  25  13  26  13
M  ISO  6  27   3  28   3  29   3  32   8  33   8  34   8
M  END
>  <minimizedAffinity>  (1) 
-5.33856392

>  <minimizedRMSD>  (1) 
1.3422395

$$$$
