
     RDKit          3D

 45 48  0  0  1  0  0  0  0  0999 V2000
   48.1670   34.3040   42.2530 C   0  0  0  0  0  0  0  0  0  0  0  0
   47.5430   33.9320   41.0740 C   0  0  0  0  0  0  0  0  0  0  0  0
   46.5500   32.9610   41.1580 C   0  0  0  0  0  0  0  0  0  0  0  0
   46.2560   32.4450   42.3640 N   0  0  0  0  0  0  0  0  0  0  0  0
   46.8770   32.8250   43.4920 C   0  0  0  0  0  0  0  0  0  0  0  0
   47.8410   33.7630   43.4280 N   0  0  0  0  0  0  0  0  0  0  0  0
   46.3570   30.9030   44.9100 C   0  0  0  0  0  0  0  0  0  0  0  0
   46.5540   32.2590   44.8040 C   0  0  0  0  0  0  0  0  0  0  0  0
   46.4450   33.0620   45.9290 C   0  0  0  0  0  0  0  0  0  0  0  0
   46.1370   32.4620   47.1370 C   0  0  0  0  0  0  0  0  0  0  0  0
   45.9670   32.9740   48.3780 N   0  0  0  0  0  0  0  0  0  0  0  0
   45.6730   31.9790   49.2400 C   0  0  0  0  0  0  0  0  0  0  0  0
   45.6490   30.7870   48.5450 C   0  0  0  0  0  0  0  0  0  0  0  0
   45.9370   31.0900   47.2430 C   0  0  0  0  0  0  0  0  0  0  0  0
   46.0480   30.3120   46.1260 C   0  0  0  0  0  0  0  0  0  0  0  0
   45.7250   33.4990   38.8610 C   0  0  1  0  0  0  0  0  0  0  0  0
   45.8150   32.4890   39.9480 C   0  0  1  0  0  0  0  0  0  0  0  0
   46.2490   31.2270   39.5670 O   0  0  0  0  0  0  0  0  0  0  0  0
   47.3530   31.2600   38.7320 C   0  0  0  0  0  0  0  0  0  0  0  0
   46.8500   31.7890   37.3860 C   0  0  2  0  0  0  0  0  0  0  0  0
   46.5120   33.2380   37.6360 C   0  0  1  0  0  0  0  0  0  0  0  0
   44.3950   33.7740   38.4750 O   0  0  0  0  0  0  0  0  0  0  0  0
   45.7370   31.0090   37.0840 O   0  0  0  0  0  0  0  0  0  0  0  0
   45.8480   33.7340   36.5090 O   0  0  0  0  0  0  0  0  0  0  0  0
   49.1860   35.3120   42.1120 C   0  0  0  0  0  0  0  0  0  0  0  0
   49.2010   36.2610   41.2920 O   0  0  0  0  0  0  0  0  0  0  0  0
   50.1820   35.0190   43.0890 N   0  0  0  0  0  0  0  0  0  0  0  0
   47.8209   34.3854   40.1111 H   0  0  0  0  0  0  0  0  0  0  0  0
   46.4462   30.2737   44.0122 H   0  0  0  0  0  0  0  0  0  0  0  0
   46.5996   34.1491   45.8628 H   0  0  0  0  0  0  0  0  0  0  0  0
   46.0494   33.9702   48.6262 H   0  0  0  0  0  0  0  0  0  0  0  0
   45.4839   32.0979   50.3171 H   0  0  0  0  0  0  0  0  0  0  0  0
   45.4394   29.7890   48.9574 H   0  0  0  0  0  0  0  0  0  0  0  0
   45.8935   29.2248   46.1903 H   0  0  0  0  0  0  0  0  0  0  0  0
   46.1856   34.3705   39.3491 H   0  0  0  0  0  0  0  0  0  0  0  0
   44.7575   32.3663   40.2248 H   0  0  0  0  0  0  0  0  0  0  0  0
   48.1225   31.9304   39.1425 H   0  0  0  0  0  0  0  0  0  0  0  0
   47.8089   30.2643   38.6281 H   0  0  0  0  0  0  0  0  0  0  0  0
   47.5563   31.7334   36.5446 H   0  0  0  0  0  0  0  0  0  0  0  0
   47.4642   33.7604   37.8102 H   0  0  0  0  0  0  0  0  0  0  0  0
   43.8343   33.8899   39.2826 H   0  0  0  0  0  0  0  0  0  0  0  0
   45.3074   30.7079   37.9236 H   0  0  0  0  0  0  0  0  0  0  0  0
   45.0889   34.3010   36.7961 H   0  0  0  0  0  0  0  0  0  0  0  0
   51.0157   35.6183   43.1702 H   0  0  0  0  0  0  0  0  0  0  0  0
   50.0679   34.2080   43.7136 H   0  0  0  0  0  0  0  0  0  0  0  0
  1  6  2  0
  2  3  2  0
  2  1  1  0
  3  4  1  0
  4  5  2  0
  5  8  1  0
  6  5  1  0
  7 15  2  0
  8  7  1  0
  8  9  2  0
  9 10  1  0
 10 14  2  0
 10 11  1  0
 11 12  1  0
 13 12  2  0
 14 13  1  0
 15 14  1  0
 16 22  1  0
 16 17  1  0
 17  3  1  0
 18 17  1  0
 19 18  1  0
 20 23  1  0
 20 21  1  0
 20 19  1  0
 21 24  1  0
 21 16  1  0
 25  1  1  0
 25 27  1  0
 26 25  2  0
  2 28  1  0
  7 29  1  0
  9 30  1  0
 11 31  1  0
 12 32  1  0
 13 33  1  0
 15 34  1  0
 16 35  1  1
 17 36  1  1
 19 37  1  0
 19 38  1  0
 20 39  1  6
 21 40  1  1
 22 41  1  0
 23 42  1  0
 24 43  1  0
 27 44  1  0
 27 45  1  0
M  ISO  8  28  14  29  14  30  14  31   9  32  14  33  14  34  14  35  13
M  ISO  8  36  13  37  13  38  13  39  13  40  13  41   3  42   3  43   3
M  END
>  <minimizedAffinity>  (1) 
-6.96355152

>  <minimizedRMSD>  (1) 
4.97170305

$$$$
