
     RDKit          3D

 52 55  0  0  1  0  0  0  0  0999 V2000
   47.1590   32.4290   44.4590 C   0  0  0  0  0  0  0  0  0  0  0  0
   47.9760   32.6520   43.4340 C   0  0  0  0  0  0  0  0  0  0  0  0
   48.7080   31.5750   43.0390 C   0  0  0  0  0  0  0  0  0  0  0  0
   48.5470   30.3590   43.7210 N   0  0  0  0  0  0  0  0  0  0  0  0
   47.7190   30.2060   44.7310 C   0  0  0  0  0  0  0  0  0  0  0  0
   46.9650   31.2700   45.1570 N   0  0  0  0  0  0  0  0  0  0  0  0
   48.2460   33.8940   42.7950 C   0  0  1  0  0  0  0  0  0  0  0  0
   49.2780   34.2400   41.9870 C   0  0  0  0  0  0  0  0  0  0  0  0
   47.9680   34.0580   41.2860 C   0  0  1  0  0  0  0  0  0  0  0  0
   47.0520   33.4640   39.1420 C   0  0  1  0  0  0  0  0  0  0  0  0
   47.9210   32.9590   40.3210 C   0  0  1  0  0  0  0  0  0  0  0  0
   49.1890   32.8210   39.6850 O   0  0  0  0  0  0  0  0  0  0  0  0
   49.1140   32.1790   38.4770 C   0  0  0  0  0  0  0  0  0  0  0  0
   48.7450   33.2180   37.4260 C   0  0  2  0  0  0  0  0  0  0  0  0
   47.9090   34.2550   38.1830 C   0  0  2  0  0  0  0  0  0  0  0  0
   46.4700   32.4060   38.4820 O   0  0  0  0  0  0  0  0  0  0  0  0
   48.0580   32.6500   36.3710 O   0  0  0  0  0  0  0  0  0  0  0  0
   48.8260   35.0440   38.8610 O   0  0  0  0  0  0  0  0  0  0  0  0
   46.2080   33.3920   45.0500 C   0  0  0  0  0  0  0  0  0  0  0  0
   45.6810   33.9700   45.9620 O   0  0  0  0  0  0  0  0  0  0  0  0
   44.4130   31.6520   43.2380 Cl  0  0  0  0  0  0  0  0  0  0  0  0
   44.5940   33.3820   43.0110 C   0  0  0  0  0  0  0  0  0  0  0  0
   45.4450   34.0420   43.9350 C   0  0  0  0  0  0  0  0  0  0  0  0
   45.4970   35.3880   43.6600 C   0  0  0  0  0  0  0  0  0  0  0  0
   44.9060   36.1050   42.7130 C   0  0  0  0  0  0  0  0  0  0  0  0
   44.0960   35.4000   41.8510 C   0  0  0  0  0  0  0  0  0  0  0  0
   43.9320   34.0520   41.9880 C   0  0  0  0  0  0  0  0  0  0  0  0
   43.1010   33.4690   41.0750 O   0  0  0  0  0  0  0  0  0  0  0  0
   40.8950   32.9520   39.7560 O   0  0  0  0  0  0  0  0  0  0  0  0
   41.4270   33.2090   41.1460 P   0  0  0  0  0  0  0  0  0  0  0  0
   41.1070   31.8980   42.1790 O   0  0  0  0  0  0  0  0  0  0  0  0
   40.6200   34.5280   41.8320 O   0  0  0  0  0  0  0  0  0  0  0  0
   49.4140   31.6561   42.1993 H   0  0  0  0  0  0  0  0  0  0  0  0
   47.6314   29.2304   45.2315 H   0  0  0  0  0  0  0  0  0  0  0  0
   47.9139   34.3281   43.7496 H   0  0  0  0  0  0  0  0  0  0  0  0
   49.7053   35.2504   42.0682 H   0  0  0  0  0  0  0  0  0  0  0  0
   50.2762   33.8068   41.8258 H   0  0  0  0  0  0  0  0  0  0  0  0
   47.2104   34.6028   40.7035 H   0  0  0  0  0  0  0  0  0  0  0  0
   46.2553   34.1087   39.5415 H   0  0  0  0  0  0  0  0  0  0  0  0
   47.5844   32.0448   40.8319 H   0  0  0  0  0  0  0  0  0  0  0  0
   50.0860   31.7261   38.2318 H   0  0  0  0  0  0  0  0  0  0  0  0
   48.3601   31.3787   38.5107 H   0  0  0  0  0  0  0  0  0  0  0  0
   49.6297   33.6781   36.9617 H   0  0  0  0  0  0  0  0  0  0  0  0
   47.2683   34.8882   37.5517 H   0  0  0  0  0  0  0  0  0  0  0  0
   46.1147   31.7601   39.1428 H   0  0  0  0  0  0  0  0  0  0  0  0
   47.3444   32.0600   36.7213 H   0  0  0  0  0  0  0  0  0  0  0  0
   48.6983   34.9341   39.8366 H   0  0  0  0  0  0  0  0  0  0  0  0
   46.1370   35.9689   44.3404 H   0  0  0  0  0  0  0  0  0  0  0  0
   45.0534   37.1913   42.6224 H   0  0  0  0  0  0  0  0  0  0  0  0
   43.5740   35.9305   41.0410 H   0  0  0  0  0  0  0  0  0  0  0  0
   41.1794   32.1946   43.1207 H   0  0  0  0  0  0  0  0  0  0  0  0
   40.6601   34.4624   42.8190 H   0  0  0  0  0  0  0  0  0  0  0  0
  1 19  1  0
  1  6  2  0
  2  1  1  0
  3  2  2  0
  3  4  1  0
  4  5  2  0
  5  6  1  0
  7  2  1  0
  8  7  1  0
  9  8  1  0
  9  7  1  0
 10 16  1  0
 10 11  1  0
 11 12  1  0
 11  9  1  0
 13 12  1  0
 14 17  1  0
 14 15  1  0
 14 13  1  0
 15 18  1  0
 15 10  1  0
 19 20  2  0
 22 21  1  0
 22 23  2  0
 23 19  1  0
 24 23  1  0
 25 24  2  0
 26 27  2  0
 26 25  1  0
 27 22  1  0
 28 30  1  0
 28 27  1  0
 29 30  2  0
 30 32  1  0
 30 31  1  0
  3 33  1  0
  5 34  1  0
  7 35  1  1
  8 36  1  0
  8 37  1  0
  9 38  1  1
 10 39  1  1
 11 40  1  1
 13 41  1  0
 13 42  1  0
 14 43  1  6
 15 44  1  6
 16 45  1  0
 17 46  1  0
 18 47  1  0
 24 48  1  0
 25 49  1  0
 26 50  1  0
 31 51  1  0
 32 52  1  0
M  ISO  8  33  14  34  14  35  13  36  13  37  13  38  13  39  13  40  13
M  ISO  8  41  13  42  13  43  13  44  13  45   3  46   3  47   3  48  14
M  ISO  4  49  14  50  14  51   3  52   3
M  END
>  <minimizedAffinity>  (1) 
-6.4170742

>  <minimizedRMSD>  (1) 
1.26821983

$$$$
