
     RDKit          3D

 33 34  0  0  1  0  0  0  0  0999 V2000
   46.3700   34.1790   40.7790 C   0  0  0  0  0  0  0  0  0  0  0  0
   44.4290   35.2170   42.0090 C   0  0  0  0  0  0  0  0  0  0  0  0
   44.9440   34.4170   40.9740 C   0  0  0  0  0  0  0  0  0  0  0  0
   43.9810   33.8680   40.1180 C   0  0  0  0  0  0  0  0  0  0  0  0
   42.6550   34.1400   40.3370 N   0  0  0  0  0  0  0  0  0  0  0  0
   42.2260   34.9130   41.3450 C   0  0  0  0  0  0  0  0  0  0  0  0
   43.1260   35.4590   42.1910 N   0  0  0  0  0  0  0  0  0  0  0  0
   44.4710   33.0180   39.0360 C   0  0  0  0  0  0  0  0  0  0  0  0
   43.4550   32.7660   38.1360 F   0  0  0  0  0  0  0  0  0  0  0  0
   44.7550   31.7800   39.6430 F   0  0  0  0  0  0  0  0  0  0  0  0
   45.5180   33.5160   38.3730 F   0  0  0  0  0  0  0  0  0  0  0  0
   47.9930   33.2820   42.5060 C   0  0  1  0  0  0  0  0  0  0  0  0
   47.1600   34.4220   42.0480 C   0  0  1  0  0  0  0  0  0  0  0  0
   47.8630   35.6480   41.9720 O   0  0  0  0  0  0  0  0  0  0  0  0
   49.0260   35.5470   41.2170 C   0  0  0  0  0  0  0  0  0  0  0  0
   49.9830   34.7490   42.1160 C   0  0  2  0  0  0  0  0  0  0  0  0
   49.4350   33.3380   42.0630 C   0  0  2  0  0  0  0  0  0  0  0  0
   48.0530   33.2180   43.9180 O   0  0  0  0  0  0  0  0  0  0  0  0
   49.7840   35.2720   43.4150 O   0  0  0  0  0  0  0  0  0  0  0  0
   49.6290   32.8810   40.7570 O   0  0  0  0  0  0  0  0  0  0  0  0
   46.5168   33.1358   40.4626 H   0  0  0  0  0  0  0  0  0  0  0  0
   46.7316   34.8797   40.0120 H   0  0  0  0  0  0  0  0  0  0  0  0
   45.1416   35.6721   42.7127 H   0  0  0  0  0  0  0  0  0  0  0  0
   41.1508   35.1008   41.4817 H   0  0  0  0  0  0  0  0  0  0  0  0
   47.4937   32.4128   42.0530 H   0  0  0  0  0  0  0  0  0  0  0  0
   46.4177   34.5081   42.8552 H   0  0  0  0  0  0  0  0  0  0  0  0
   48.8358   35.0113   40.2753 H   0  0  0  0  0  0  0  0  0  0  0  0
   49.4323   36.5284   40.9311 H   0  0  0  0  0  0  0  0  0  0  0  0
   51.0456   34.7891   41.8343 H   0  0  0  0  0  0  0  0  0  0  0  0
   49.9632   32.6787   42.7675 H   0  0  0  0  0  0  0  0  0  0  0  0
   47.4298   33.8827   44.3052 H   0  0  0  0  0  0  0  0  0  0  0  0
   50.0424   34.5928   44.0873 H   0  0  0  0  0  0  0  0  0  0  0  0
   50.0157   31.9700   40.7802 H   0  0  0  0  0  0  0  0  0  0  0  0
  1  3  1  0
  2  7  2  0
  3  2  1  0
  4  5  1  0
  4  3  2  0
  5  6  2  0
  6  7  1  0
  8 10  1  0
  8  4  1  0
  9  8  1  0
 11  8  1  0
 12 18  1  0
 13  1  1  0
 13 12  1  0
 14 13  1  0
 15 14  1  0
 15 16  1  0
 16 19  1  0
 17 20  1  0
 17 16  1  0
 17 12  1  0
  1 21  1  0
  1 22  1  0
  2 23  1  0
  6 24  1  0
 12 25  1  6
 13 26  1  1
 15 27  1  0
 15 28  1  0
 16 29  1  6
 17 30  1  1
 18 31  1  0
 19 32  1  0
 20 33  1  0
M  ISO  8  21   8  22   8  23  14  24  14  25  13  26  13  27  13  28  13
M  ISO  5  29  13  30  13  31   3  32   3  33   3
M  END
>  <minimizedAffinity>  (1) 
-4.99067163

>  <minimizedRMSD>  (1) 
5.67798853

$$$$
