
     RDKit          3D

 30 31  0  0  1  0  0  0  0  0999 V2000
   43.8310   35.6800   41.4670 C   0  0  0  0  0  0  0  0  0  0  0  0
   44.3510   35.8720   43.8320 C   0  0  0  0  0  0  0  0  0  0  0  0
   44.3500   35.0460   42.6930 C   0  0  0  0  0  0  0  0  0  0  0  0
   44.8260   33.7520   42.8440 C   0  0  0  0  0  0  0  0  0  0  0  0
   45.2590   33.3620   44.0590 N   0  0  0  0  0  0  0  0  0  0  0  0
   45.2490   34.1730   45.1270 C   0  0  0  0  0  0  0  0  0  0  0  0
   44.7910   35.4580   45.0380 N   0  0  0  0  0  0  0  0  0  0  0  0
   42.5470   34.4770   39.7280 C   0  0  1  0  0  0  0  0  0  0  0  0
   42.4790   35.1290   41.0650 C   0  0  2  0  0  0  0  0  0  0  0  0
   41.4540   35.9890   41.2680 O   0  0  0  0  0  0  0  0  0  0  0  0
   40.2570   35.7140   40.7290 C   0  0  0  0  0  0  0  0  0  0  0  0
   40.1870   35.1010   39.3830 C   0  0  1  0  0  0  0  0  0  0  0  0
   41.2240   34.0150   39.2010 C   0  0  1  0  0  0  0  0  0  0  0  0
   43.0430   35.4550   38.8430 O   0  0  0  0  0  0  0  0  0  0  0  0
   38.9380   34.4940   39.2400 O   0  0  0  0  0  0  0  0  0  0  0  0
   41.2480   33.7240   37.8500 O   0  0  0  0  0  0  0  0  0  0  0  0
   43.7348   36.7618   41.6414 H   0  0  0  0  0  0  0  0  0  0  0  0
   44.5380   35.4666   40.6518 H   0  0  0  0  0  0  0  0  0  0  0  0
   43.9762   36.9016   43.7346 H   0  0  0  0  0  0  0  0  0  0  0  0
   44.8495   33.0589   41.9901 H   0  0  0  0  0  0  0  0  0  0  0  0
   45.6164   33.7970   46.0933 H   0  0  0  0  0  0  0  0  0  0  0  0
   43.1765   33.5794   39.8176 H   0  0  0  0  0  0  0  0  0  0  0  0
   42.2176   34.3185   41.7613 H   0  0  0  0  0  0  0  0  0  0  0  0
   39.7449   35.0282   41.4199 H   0  0  0  0  0  0  0  0  0  0  0  0
   39.8045   36.7062   40.5848 H   0  0  0  0  0  0  0  0  0  0  0  0
   40.3613   35.8967   38.6438 H   0  0  0  0  0  0  0  0  0  0  0  0
   40.9831   33.1024   39.7659 H   0  0  0  0  0  0  0  0  0  0  0  0
   43.4243   36.2068   39.3621 H   0  0  0  0  0  0  0  0  0  0  0  0
   38.5568   34.3087   40.1347 H   0  0  0  0  0  0  0  0  0  0  0  0
   41.3287   32.7453   37.7246 H   0  0  0  0  0  0  0  0  0  0  0  0
  1  3  1  0
  2  7  2  0
  3  4  2  0
  3  2  1  0
  4  5  1  0
  5  6  2  0
  7  6  1  0
  8 14  1  0
  8  9  1  0
  9 10  1  0
  9  1  1  0
 11 10  1  0
 12 15  1  0
 12 11  1  0
 13 16  1  0
 13 12  1  0
 13  8  1  0
  1 17  1  0
  1 18  1  0
  2 19  1  0
  4 20  1  0
  6 21  1  0
  8 22  1  1
  9 23  1  1
 11 24  1  0
 11 25  1  0
 12 26  1  6
 13 27  1  1
 14 28  1  0
 15 29  1  0
 16 30  1  0
M  ISO  8  17   8  18   8  19  14  20  14  21  14  22  13  23  13  24  13
M  ISO  6  25  13  26  13  27  13  28   3  29   3  30   3
M  END
>  <minimizedAffinity>  (1) 
-5.21845293

>  <minimizedRMSD>  (1) 
1.60431445

$$$$
