
     RDKit          3D

 50 54  0  0  1  0  0  0  0  0999 V2000
   45.9280   33.1450   41.6190 C   0  0  0  0  0  0  0  0  0  0  0  0
   47.0960   33.8520   41.3010 C   0  0  0  0  0  0  0  0  0  0  0  0
   48.0760   33.9420   42.2640 C   0  0  0  0  0  0  0  0  0  0  0  0
   47.8410   33.3360   43.4650 N   0  0  0  0  0  0  0  0  0  0  0  0
   46.7210   32.6630   43.7630 C   0  0  0  0  0  0  0  0  0  0  0  0
   45.7520   32.5660   42.8280 N   0  0  0  0  0  0  0  0  0  0  0  0
   46.8750   30.7470   45.2770 C   0  0  0  0  0  0  0  0  0  0  0  0
   46.5670   32.0560   45.0680 C   0  0  0  0  0  0  0  0  0  0  0  0
   46.0900   32.8810   46.0940 C   0  0  0  0  0  0  0  0  0  0  0  0
   45.9130   32.3800   47.3750 C   0  0  0  0  0  0  0  0  0  0  0  0
   45.4840   32.8730   48.5740 N   0  0  0  0  0  0  0  0  0  0  0  0
   45.5460   31.8390   49.4770 C   0  0  0  0  0  0  0  0  0  0  0  0
   46.0020   30.7510   48.8280 N   0  0  0  0  0  0  0  0  0  0  0  0
   46.2350   31.0550   47.5400 C   0  0  0  0  0  0  0  0  0  0  0  0
   46.7050   30.2200   46.5560 C   0  0  0  0  0  0  0  0  0  0  0  0
   49.3270   34.6760   41.9760 C   0  0  0  0  0  0  0  0  0  0  0  0
   49.0660   35.7870   41.1450 F   0  0  0  0  0  0  0  0  0  0  0  0
   49.8600   35.1890   43.1360 F   0  0  0  0  0  0  0  0  0  0  0  0
   50.1870   33.8290   41.3580 F   0  0  0  0  0  0  0  0  0  0  0  0
   47.2160   34.4110   40.0740 O   0  0  0  0  0  0  0  0  0  0  0  0
   47.2010   33.6840   38.9270 C   0  0  0  0  0  0  0  0  0  0  0  0
   48.4860   33.8160   38.3990 C   0  0  0  0  0  0  0  0  0  0  0  0
   48.4580   32.8420   36.8530 S   0  0  0  0  0  0  0  0  0  0  0  0
   46.6610   32.3820   37.1510 C   0  0  0  0  0  0  0  0  0  0  0  0
   46.5150   32.9280   38.1120 N   0  0  0  0  0  0  0  0  0  0  0  0
   45.7940   32.1540   34.8910 C   0  0  1  0  0  0  0  0  0  0  0  0
   45.8140   31.5210   36.2620 C   0  0  2  0  0  0  0  0  0  0  0  0
   44.5120   31.4880   36.7520 O   0  0  0  0  0  0  0  0  0  0  0  0
   43.7730   30.5810   36.0040 C   0  0  0  0  0  0  0  0  0  0  0  0
   44.4730   30.1060   34.7720 C   0  0  2  0  0  0  0  0  0  0  0  0
   45.1130   31.1790   33.9540 C   0  0  2  0  0  0  0  0  0  0  0  0
   45.0510   33.3290   34.9940 O   0  0  0  0  0  0  0  0  0  0  0  0
   43.4730   29.5290   33.9550 O   0  0  0  0  0  0  0  0  0  0  0  0
   46.1350   30.6120   33.1640 O   0  0  0  0  0  0  0  0  0  0  0  0
   45.1327   33.0589   40.8640 H   0  0  0  0  0  0  0  0  0  0  0  0
   47.2496   30.1191   44.4551 H   0  0  0  0  0  0  0  0  0  0  0  0
   45.8539   33.9343   45.8823 H   0  0  0  0  0  0  0  0  0  0  0  0
   45.1732   33.8362   48.7651 H   0  0  0  0  0  0  0  0  0  0  0  0
   45.2718   31.8910   50.5410 H   0  0  0  0  0  0  0  0  0  0  0  0
   46.9401   29.1671   46.7709 H   0  0  0  0  0  0  0  0  0  0  0  0
   49.3299   34.3818   38.8206 H   0  0  0  0  0  0  0  0  0  0  0  0
   46.8017   32.3829   34.5139 H   0  0  0  0  0  0  0  0  0  0  0  0
   46.2189   30.4990   36.2229 H   0  0  0  0  0  0  0  0  0  0  0  0
   43.5520   29.7083   36.6361 H   0  0  0  0  0  0  0  0  0  0  0  0
   42.8622   31.1027   35.6750 H   0  0  0  0  0  0  0  0  0  0  0  0
   45.2773   29.4293   35.0962 H   0  0  0  0  0  0  0  0  0  0  0  0
   44.3485   31.6675   33.3320 H   0  0  0  0  0  0  0  0  0  0  0  0
   44.9120   33.5489   35.9492 H   0  0  0  0  0  0  0  0  0  0  0  0
   42.7727   29.1249   34.5263 H   0  0  0  0  0  0  0  0  0  0  0  0
   46.8311   30.2258   33.7525 H   0  0  0  0  0  0  0  0  0  0  0  0
  1  6  2  0
  2  1  1  0
  2  3  2  0
  3  4  1  0
  4  5  2  0
  5  8  1  0
  6  5  1  0
  7 15  2  0
  8  7  1  0
  8  9  2  0
  9 10  1  0
 10 14  2  0
 10 11  1  0
 11 12  1  0
 13 12  2  0
 14 13  1  0
 15 14  1  0
 16  3  1  0
 16 18  1  0
 17 16  1  0
 19 16  1  0
 20  2  1  0
 21 20  1  0
 22 21  2  0
 23 24  1  0
 23 22  1  0
 24 25  2  0
 25 21  1  0
 26 32  1  0
 26 27  1  0
 27 28  1  0
 27 24  1  0
 29 28  1  0
 30 33  1  0
 30 29  1  0
 31 34  1  0
 31 30  1  0
 31 26  1  0
  1 35  1  0
  7 36  1  0
  9 37  1  0
 11 38  1  0
 12 39  1  0
 15 40  1  0
 22 41  1  0
 26 42  1  6
 27 43  1  6
 29 44  1  0
 29 45  1  0
 30 46  1  1
 31 47  1  6
 32 48  1  0
 33 49  1  0
 34 50  1  0
M  END
>  <minimizedAffinity>  (1) 
-7.40429688

>  <minimizedRMSD>  (1) 
0.857391536

$$$$
