
     RDKit          3D

 35 36  0  0  1  0  0  0  0  0999 V2000
   48.3800   35.1130   40.6940 O   0  0  0  0  0  0  0  0  0  0  0  0
   49.6470   35.2790   42.9220 O   0  0  0  0  0  0  0  0  0  0  0  0
   48.9940   34.2930   42.0190 P   0  0  2  0  0  0  0  0  0  0  0  0
   50.1890   33.2250   41.4950 O   0  0  0  0  0  0  0  0  0  0  0  0
   47.7380   33.4510   42.8230 O   0  0  0  0  0  0  0  0  0  0  0  0
   46.1500   35.2550   42.7670 C   0  0  0  0  0  0  0  0  0  0  0  0
   46.7000   34.1600   43.4450 C   0  0  0  0  0  0  0  0  0  0  0  0
   46.1890   33.8310   44.6980 C   0  0  0  0  0  0  0  0  0  0  0  0
   45.1800   34.5890   45.2050 N   0  0  0  0  0  0  0  0  0  0  0  0
   44.6760   35.6330   44.5260 C   0  0  0  0  0  0  0  0  0  0  0  0
   45.1590   35.9590   43.3210 N   0  0  0  0  0  0  0  0  0  0  0  0
   48.1430   34.5660   39.4730 C   0  0  0  0  0  0  0  0  0  0  0  0
   47.1050   33.8060   39.5120 O   0  0  0  0  0  0  0  0  0  0  0  0
   48.9530   32.9150   37.8180 C   0  0  1  0  0  0  0  0  0  0  0  0
   47.8900   33.9720   38.1380 C   0  0  1  0  0  0  0  0  0  0  0  0
   46.6310   33.4240   38.1160 O   0  0  0  0  0  0  0  0  0  0  0  0
   46.2070   33.0760   36.8430 C   0  0  0  0  0  0  0  0  0  0  0  0
   47.3560   32.5350   36.0140 C   0  0  1  0  0  0  0  0  0  0  0  0
   48.2760   31.8310   37.0110 C   0  0  1  0  0  0  0  0  0  0  0  0
   49.9840   33.4310   37.0360 O   0  0  0  0  0  0  0  0  0  0  0  0
   46.9590   31.7140   34.9870 O   0  0  0  0  0  0  0  0  0  0  0  0
   49.1980   31.0980   36.2590 O   0  0  0  0  0  0  0  0  0  0  0  0
   50.6391   32.8227   42.2796 H   0  0  0  0  0  0  0  0  0  0  0  0
   46.5350   35.5361   41.7757 H   0  0  0  0  0  0  0  0  0  0  0  0
   46.5919   32.9783   45.2642 H   0  0  0  0  0  0  0  0  0  0  0  0
   43.8591   36.2252   44.9643 H   0  0  0  0  0  0  0  0  0  0  0  0
   49.3809   32.5495   38.7632 H   0  0  0  0  0  0  0  0  0  0  0  0
   47.9500   34.7558   37.3685 H   0  0  0  0  0  0  0  0  0  0  0  0
   45.4269   32.3046   36.9225 H   0  0  0  0  0  0  0  0  0  0  0  0
   45.8121   33.9755   36.3481 H   0  0  0  0  0  0  0  0  0  0  0  0
   47.8735   33.3515   35.4890 H   0  0  0  0  0  0  0  0  0  0  0  0
   47.7488   31.1500   37.6954 H   0  0  0  0  0  0  0  0  0  0  0  0
   50.6968   33.7877   37.6232 H   0  0  0  0  0  0  0  0  0  0  0  0
   46.5598   30.8884   35.3600 H   0  0  0  0  0  0  0  0  0  0  0  0
   49.8089   30.6123   36.8681 H   0  0  0  0  0  0  0  0  0  0  0  0
  1  3  1  0
  3  5  1  0
  3  2  2  0
  4  3  1  0
  5  7  1  0
  6 11  2  0
  6  7  1  0
  7  8  2  0
  8  9  1  0
 10  9  2  0
 11 10  1  0
 12 13  2  0
 12  1  1  0
 14 20  1  0
 14 15  1  0
 15 12  1  0
 16 15  1  0
 17 16  1  0
 18 21  1  0
 18 17  1  0
 18 19  1  0
 19 22  1  0
 19 14  1  0
  4 23  1  0
  6 24  1  0
  8 25  1  0
 10 26  1  0
 14 27  1  1
 15 28  1  6
 17 29  1  0
 17 30  1  0
 18 31  1  6
 19 32  1  1
 20 33  1  0
 21 34  1  0
 22 35  1  0
M  ISO  8  23   3  24  14  25  14  26  14  27  13  28  13  29  13  30  13
M  ISO  5  31  13  32  13  33   3  34   3  35   3
M  END
>  <minimizedAffinity>  (1) 
-5.2963891

>  <minimizedRMSD>  (1) 
0.826287925

$$$$
