
     RDKit          3D

 35 37  0  0  0  0  0  0  0  0999 V2000
   46.3780   33.6840   44.7260 C   0  0  0  0  0  0  0  0  0  0  0  0
   45.2000   34.3440   44.9380 C   0  0  0  0  0  0  0  0  0  0  0  0
   44.7040   35.3460   44.1330 C   0  0  0  0  0  0  0  0  0  0  0  0
   45.4380   35.7150   43.0350 C   0  0  0  0  0  0  0  0  0  0  0  0
   46.6220   35.0780   42.7880 C   0  0  0  0  0  0  0  0  0  0  0  0
   47.0920   34.0720   43.6200 C   0  0  0  0  0  0  0  0  0  0  0  0
   47.6380   30.4360   45.8280 C   0  0  0  0  0  0  0  0  0  0  0  0
   47.7310   30.5670   47.2000 C   0  0  0  0  0  0  0  0  0  0  0  0
   47.3590   31.7840   47.7630 C   0  0  0  0  0  0  0  0  0  0  0  0
   46.9140   32.8160   46.9770 N   0  0  0  0  0  0  0  0  0  0  0  0
   46.8390   32.6340   45.6180 C   0  0  0  0  0  0  0  0  0  0  0  0
   47.2030   31.4530   45.0880 N   0  0  0  0  0  0  0  0  0  0  0  0
   48.3250   33.5160   43.2300 N   0  0  0  0  0  0  0  0  0  0  0  0
   49.7360   34.1890   42.5350 S   0  0  0  0  0  0  0  0  0  0  0  0
   49.4440   34.5190   41.0760 O   0  0  0  0  0  0  0  0  0  0  0  0
   50.2290   35.4190   43.2090 O   0  0  0  0  0  0  0  0  0  0  0  0
   50.8710   32.9410   42.4800 O   0  0  0  0  0  0  0  0  0  0  0  0
   51.0170   32.1590   41.3540 C   0  0  0  0  0  0  0  0  0  0  0  0
   52.0090   31.6350   40.5500 C   0  0  0  0  0  0  0  0  0  0  0  0
   51.4400   30.9000   39.5280 C   0  0  0  0  0  0  0  0  0  0  0  0
   50.1210   30.9970   39.7400 N   0  0  0  0  0  0  0  0  0  0  0  0
   49.8420   31.7330   40.8080 N   0  0  0  0  0  0  0  0  0  0  0  0
   44.6042   34.0538   45.8159 H   0  0  0  0  0  0  0  0  0  0  0  0
   43.7467   35.8360   44.3644 H   0  0  0  0  0  0  0  0  0  0  0  0
   45.0801   36.5101   42.3644 H   0  0  0  0  0  0  0  0  0  0  0  0
   47.2159   35.3697   41.9093 H   0  0  0  0  0  0  0  0  0  0  0  0
   47.9240   29.4894   45.3462 H   0  0  0  0  0  0  0  0  0  0  0  0
   48.0875   29.7365   47.8270 H   0  0  0  0  0  0  0  0  0  0  0  0
   47.4227   31.9200   48.8527 H   0  0  0  0  0  0  0  0  0  0  0  0
   48.3908   32.5016   43.3962 H   0  0  0  0  0  0  0  0  0  0  0  0
   48.7887   35.2596   41.0300 H   0  0  0  0  0  0  0  0  0  0  0  0
   50.1810   35.2992   44.1906 H   0  0  0  0  0  0  0  0  0  0  0  0
   53.0889   31.7806   40.7002 H   0  0  0  0  0  0  0  0  0  0  0  0
   51.9545   30.3571   38.7214 H   0  0  0  0  0  0  0  0  0  0  0  0
   49.4077   30.5528   39.1444 H   0  0  0  0  0  0  0  0  0  0  0  0
  1  2  2  0
  1 11  1  0
  3  2  1  0
  4  3  2  0
  5  4  1  0
  5  6  2  0
  6  1  1  0
  7  8  2  0
  8  9  1  0
 10  9  2  0
 11 10  1  0
 12 11  2  0
 12  7  1  0
 13  6  1  0
 14 16  1  0
 14 13  1  0
 15 14  1  0
 17 14  1  0
 18 17  1  0
 19 18  1  0
 20 21  1  0
 20 19  2  0
 21 22  1  0
 22 18  2  0
  2 23  1  0
  3 24  1  0
  4 25  1  0
  5 26  1  0
  7 27  1  0
  8 28  1  0
  9 29  1  0
 13 30  1  0
 15 31  1  0
 16 32  1  0
 19 33  1  0
 20 34  1  0
 21 35  1  0
M  ISO  8  23  14  24  14  25  14  26  14  27  14  28  14  29  14  31   3
M  ISO  4  32   3  33  14  34  14  35   9
M  END
>  <minimizedAffinity>  (1) 
-6.10875368

>  <minimizedRMSD>  (1) 
2.20295954

$$$$
