
     RDKit          3D

 38 40  0  0  0  0  0  0  0  0999 V2000
   43.3340   34.7480   40.4160 C   0  0  0  0  0  0  0  0  0  0  0  0
   44.2350   33.7250   40.1350 C   0  0  0  0  0  0  0  0  0  0  0  0
   45.3700   33.6240   40.9090 C   0  0  0  0  0  0  0  0  0  0  0  0
   45.6010   34.5090   41.9230 C   0  0  0  0  0  0  0  0  0  0  0  0
   44.7290   35.5270   42.2220 C   0  0  0  0  0  0  0  0  0  0  0  0
   43.5990   35.5960   41.4230 C   0  0  0  0  0  0  0  0  0  0  0  0
   39.8520   34.3340   39.0060 C   0  0  0  0  0  0  0  0  0  0  0  0
   40.9490   34.2150   39.8790 C   0  0  0  0  0  0  0  0  0  0  0  0
   42.1480   34.8160   39.5760 C   0  0  0  0  0  0  0  0  0  0  0  0
   42.2150   35.5160   38.4130 N   0  0  0  0  0  0  0  0  0  0  0  0
   41.1630   35.6340   37.5700 C   0  0  0  0  0  0  0  0  0  0  0  0
   39.9940   35.0460   37.8670 N   0  0  0  0  0  0  0  0  0  0  0  0
   43.9710   32.7730   39.0300 C   0  0  0  0  0  0  0  0  0  0  0  0
   45.1310   32.2030   38.4380 N   0  0  0  0  0  0  0  0  0  0  0  0
   45.7870   33.1810   37.1770 S   0  0  0  0  0  0  0  0  0  0  0  0
   44.8200   34.2360   36.7590 O   0  0  0  0  0  0  0  0  0  0  0  0
   46.2150   32.3580   36.0150 O   0  0  0  0  0  0  0  0  0  0  0  0
   47.1550   33.9180   37.8540 O   0  0  0  0  0  0  0  0  0  0  0  0
   48.3620   33.2780   37.8780 C   0  0  0  0  0  0  0  0  0  0  0  0
   48.7650   32.5260   38.9730 C   0  0  0  0  0  0  0  0  0  0  0  0
   50.0180   32.0100   38.6950 C   0  0  0  0  0  0  0  0  0  0  0  0
   50.2880   32.4780   37.4670 N   0  0  0  0  0  0  0  0  0  0  0  0
   49.3330   33.2240   36.9640 N   0  0  0  0  0  0  0  0  0  0  0  0
   46.0969   32.8231   40.7084 H   0  0  0  0  0  0  0  0  0  0  0  0
   46.5178   34.4028   42.5214 H   0  0  0  0  0  0  0  0  0  0  0  0
   44.9149   36.2388   43.0398 H   0  0  0  0  0  0  0  0  0  0  0  0
   42.8726   36.3966   41.6266 H   0  0  0  0  0  0  0  0  0  0  0  0
   38.8922   33.8539   39.2477 H   0  0  0  0  0  0  0  0  0  0  0  0
   40.8468   33.6376   40.8097 H   0  0  0  0  0  0  0  0  0  0  0  0
   41.2663   36.2126   36.6402 H   0  0  0  0  0  0  0  0  0  0  0  0
   43.3523   31.9540   39.4257 H   0  0  0  0  0  0  0  0  0  0  0  0
   43.4743   33.3520   38.2375 H   0  0  0  0  0  0  0  0  0  0  0  0
   45.8477   32.0827   39.1679 H   0  0  0  0  0  0  0  0  0  0  0  0
   44.4291   34.6624   37.5624 H   0  0  0  0  0  0  0  0  0  0  0  0
   46.6465   31.5282   36.3394 H   0  0  0  0  0  0  0  0  0  0  0  0
   48.1901   32.3684   39.8975 H   0  0  0  0  0  0  0  0  0  0  0  0
   50.6450   31.3676   39.3307 H   0  0  0  0  0  0  0  0  0  0  0  0
   51.1636   32.2709   36.9657 H   0  0  0  0  0  0  0  0  0  0  0  0
  1  6  2  0
  2  1  1  0
  2  3  2  0
  3  4  1  0
  4  5  2  0
  6  5  1  0
  7  8  2  0
  9  8  1  0
  9  1  1  0
 10  9  2  0
 11 12  2  0
 11 10  1  0
 12  7  1  0
 13  2  1  0
 14 13  1  0
 15 18  1  0
 15 14  1  0
 16 15  1  0
 17 15  1  0
 18 19  1  0
 19 20  1  0
 21 20  2  0
 22 21  1  0
 23 22  1  0
 23 19  2  0
  3 24  1  0
  4 25  1  0
  5 26  1  0
  6 27  1  0
  7 28  1  0
  8 29  1  0
 11 30  1  0
 13 31  1  0
 13 32  1  0
 14 33  1  0
 16 34  1  0
 17 35  1  0
 20 36  1  0
 21 37  1  0
 22 38  1  0
M  ISO  8  24  14  25  14  26  14  27  14  28  14  29  14  30  14  31   8
M  ISO  7  32   8  33   5  34   3  35   3  36  14  37  14  38   9
M  END
>  <minimizedAffinity>  (1) 
-4.96876001

>  <minimizedRMSD>  (1) 
7.00833511

$$$$
