
     RDKit          3D

 26 27  0  0  0  0  0  0  0  0999 V2000
   47.1730   33.7270   41.6920 O   0  0  0  0  0  0  0  0  0  0  0  0
   46.6360   34.9770   41.9980 C   0  0  0  0  0  0  0  0  0  0  0  0
   45.5730   33.9670   45.4240 C   0  0  0  0  0  0  0  0  0  0  0  0
   46.2350   33.9390   44.1730 C   0  0  0  0  0  0  0  0  0  0  0  0
   45.9710   34.9760   43.2920 C   0  0  0  0  0  0  0  0  0  0  0  0
   45.0960   35.9600   43.6740 N   0  0  0  0  0  0  0  0  0  0  0  0
   44.4800   35.9520   44.8830 C   0  0  0  0  0  0  0  0  0  0  0  0
   44.7210   34.9600   45.7470 N   0  0  0  0  0  0  0  0  0  0  0  0
   49.1380   32.8080   40.2390 O   0  0  0  0  0  0  0  0  0  0  0  0
   48.1460   33.9360   40.3130 P   0  0  2  0  0  0  0  0  0  0  0  0
   48.8760   35.4410   40.4530 O   0  0  0  0  0  0  0  0  0  0  0  0
   47.1470   33.8510   38.9650 O   0  0  0  0  0  0  0  0  0  0  0  0
   47.6600   33.5500   37.7080 C   0  0  0  0  0  0  0  0  0  0  0  0
   48.8370   33.5430   36.9650 C   0  0  0  0  0  0  0  0  0  0  0  0
   48.5110   33.0780   35.7040 C   0  0  0  0  0  0  0  0  0  0  0  0
   47.1810   32.8130   35.6820 N   0  0  0  0  0  0  0  0  0  0  0  0
   46.6730   33.0960   36.8850 N   0  0  0  0  0  0  0  0  0  0  0  0
   47.4479   35.7190   42.0152 H   0  0  0  0  0  0  0  0  0  0  0  0
   45.8895   35.2264   41.2296 H   0  0  0  0  0  0  0  0  0  0  0  0
   45.7581   33.1603   46.1486 H   0  0  0  0  0  0  0  0  0  0  0  0
   46.9302   33.1278   43.9109 H   0  0  0  0  0  0  0  0  0  0  0  0
   43.7837   36.7600   45.1520 H   0  0  0  0  0  0  0  0  0  0  0  0
   48.9855   35.6668   41.4107 H   0  0  0  0  0  0  0  0  0  0  0  0
   49.8345   33.8485   37.3137 H   0  0  0  0  0  0  0  0  0  0  0  0
   49.2093   32.9460   34.8644 H   0  0  0  0  0  0  0  0  0  0  0  0
   46.6519   32.4542   34.8744 H   0  0  0  0  0  0  0  0  0  0  0  0
  1  2  1  0
  2  5  1  0
  3  8  2  0
  4  3  1  0
  5  6  1  0
  5  4  2  0
  6  7  2  0
  7  8  1  0
 10  9  2  0
 10 11  1  0
 10  1  1  0
 12 10  1  0
 13 12  1  0
 14 13  1  0
 15 14  2  0
 16 15  1  0
 16 17  1  0
 17 13  2  0
  2 18  1  0
  2 19  1  0
  3 20  1  0
  4 21  1  0
  7 22  1  0
 11 23  1  0
 14 24  1  0
 15 25  1  0
 16 26  1  0
M  ISO  8  18   8  19   8  20  14  21  14  22  14  23   3  24  14  25  14
M  ISO  1  26   9
M  END
>  <minimizedAffinity>  (1) 
-4.65144348

>  <minimizedRMSD>  (1) 
3.35126424

$$$$
