
     RDKit          3D

 26 28  0  0  0  0  0  0  0  0999 V2000
   45.3830   36.2050   43.3470 C   0  0  0  0  0  0  0  0  0  0  0  0
   46.0340   34.9910   43.0470 C   0  0  0  0  0  0  0  0  0  0  0  0
   45.8990   34.0030   44.0160 C   0  0  0  0  0  0  0  0  0  0  0  0
   45.2020   34.1890   45.1540 N   0  0  0  0  0  0  0  0  0  0  0  0
   44.5900   35.3870   45.3950 C   0  0  0  0  0  0  0  0  0  0  0  0
   44.6850   36.3820   44.4940 N   0  0  0  0  0  0  0  0  0  0  0  0
   46.5110   32.7700   43.7990 C   0  0  0  0  0  0  0  0  0  0  0  0
   47.7840   32.2780   43.9510 C   0  0  0  0  0  0  0  0  0  0  0  0
   48.1340   31.0350   43.6620 C   0  0  0  0  0  0  0  0  0  0  0  0
   47.1440   30.2190   43.1860 C   0  0  0  0  0  0  0  0  0  0  0  0
   45.6610   31.3340   43.1740 S   0  0  0  0  0  0  0  0  0  0  0  0
   46.7340   34.8380   41.8280 C   0  0  0  0  0  0  0  0  0  0  0  0
   47.9110   35.3290   41.8290 O   0  0  0  0  0  0  0  0  0  0  0  0
   46.1380   34.1650   40.6390 C   0  0  0  0  0  0  0  0  0  0  0  0
   46.8290   33.4660   39.6710 C   0  0  0  0  0  0  0  0  0  0  0  0
   45.7960   33.0620   38.8210 C   0  0  0  0  0  0  0  0  0  0  0  0
   44.5840   33.4930   39.2580 N   0  0  0  0  0  0  0  0  0  0  0  0
   44.8180   34.1780   40.3900 N   0  0  0  0  0  0  0  0  0  0  0  0
   45.4439   37.0344   42.6270 H   0  0  0  0  0  0  0  0  0  0  0  0
   44.0206   35.5377   46.3240 H   0  0  0  0  0  0  0  0  0  0  0  0
   48.5588   32.9575   44.3358 H   0  0  0  0  0  0  0  0  0  0  0  0
   49.1653   30.6769   43.7971 H   0  0  0  0  0  0  0  0  0  0  0  0
   47.2109   29.1631   42.8849 H   0  0  0  0  0  0  0  0  0  0  0  0
   47.9095   33.2764   39.5896 H   0  0  0  0  0  0  0  0  0  0  0  0
   45.9461   32.4668   37.9082 H   0  0  0  0  0  0  0  0  0  0  0  0
   43.6704   33.3280   38.8118 H   0  0  0  0  0  0  0  0  0  0  0  0
  1  6  2  0
  2  1  1  0
  2  3  2  0
  3  4  1  0
  4  5  2  0
  6  5  1  0
  7  8  2  0
  7  3  1  0
  9  8  1  0
 10  9  2  0
 11 10  1  0
 11  7  1  0
 12 13  2  0
 12  2  1  0
 14 12  1  0
 15 14  1  0
 16 17  1  0
 16 15  2  0
 17 18  1  0
 18 14  2  0
  1 19  1  0
  5 20  1  0
  8 21  1  0
  9 22  1  0
 10 23  1  0
 15 24  1  0
 16 25  1  0
 17 26  1  0
M  ISO  8  19  14  20  14  21  14  22  14  23  14  24  14  25  14  26   9
M  END
>  <minimizedAffinity>  (1) 
-4.34885025

>  <minimizedRMSD>  (1) 
1.15416157

$$$$
