
     RDKit          3D

 47 49  0  0  1  0  0  0  0  0999 V2000
   46.6090   34.3900   43.6010 N   0  0  0  0  0  0  0  0  0  0  0  0
   46.2960   35.0330   42.3830 C   0  0  0  0  0  0  0  0  0  0  0  0
   44.8110   35.1290   42.0880 C   0  0  0  0  0  0  0  0  0  0  0  0
   43.9540   35.3110   43.3080 C   0  0  0  0  0  0  0  0  0  0  0  0
   44.7750   35.4280   44.5660 C   0  0  0  0  0  0  0  0  0  0  0  0
   45.6590   34.1160   44.5540 C   0  0  2  0  0  0  0  0  0  0  0  0
   47.7830   33.5510   43.5330 C   0  0  0  0  0  0  0  0  0  0  0  0
   47.5260   32.4620   42.5530 C   0  0  0  0  0  0  0  0  0  0  0  0
   51.1530   32.3070   41.5850 C   0  0  0  0  0  0  0  0  0  0  0  0
   49.9730   32.5460   42.3120 C   0  0  0  0  0  0  0  0  0  0  0  0
   48.7520   32.2010   41.7720 C   0  0  0  0  0  0  0  0  0  0  0  0
   48.7620   31.6450   40.5650 N   0  0  0  0  0  0  0  0  0  0  0  0
   49.8840   31.4140   39.8660 C   0  0  0  0  0  0  0  0  0  0  0  0
   51.0900   31.7360   40.3590 N   0  0  0  0  0  0  0  0  0  0  0  0
   46.1680   34.1110   45.8370 O   0  0  0  0  0  0  0  0  0  0  0  0
   45.6300   31.5260   45.5930 O   0  0  0  0  0  0  0  0  0  0  0  0
   46.0380   32.6120   46.5920 P   0  0  2  0  0  0  0  0  0  0  0  0
   44.7280   32.7490   47.6770 O   0  0  0  0  0  0  0  0  0  0  0  0
   47.3950   32.2110   47.4650 O   0  0  0  0  0  0  0  0  0  0  0  0
   47.6760   30.8610   47.2440 C   0  0  0  0  0  0  0  0  0  0  0  0
   48.4980   30.4000   48.3960 C   0  0  0  0  0  0  0  0  0  0  0  0
   48.9230   31.0890   49.5230 C   0  0  0  0  0  0  0  0  0  0  0  0
   49.6600   30.1940   50.2830 C   0  0  0  0  0  0  0  0  0  0  0  0
   49.6670   29.0180   49.6240 N   0  0  0  0  0  0  0  0  0  0  0  0
   48.9770   29.1350   48.5000 N   0  0  0  0  0  0  0  0  0  0  0  0
   46.7065   36.0530   42.4171 H   0  0  0  0  0  0  0  0  0  0  0  0
   46.7359   34.4200   41.5826 H   0  0  0  0  0  0  0  0  0  0  0  0
   44.6464   35.9866   41.4191 H   0  0  0  0  0  0  0  0  0  0  0  0
   44.5155   34.1723   41.6326 H   0  0  0  0  0  0  0  0  0  0  0  0
   43.3565   36.2267   43.1881 H   0  0  0  0  0  0  0  0  0  0  0  0
   43.3107   34.4240   43.4050 H   0  0  0  0  0  0  0  0  0  0  0  0
   45.4069   36.3280   44.5407 H   0  0  0  0  0  0  0  0  0  0  0  0
   44.1588   35.5209   45.4725 H   0  0  0  0  0  0  0  0  0  0  0  0
   45.1860   33.1497   44.3248 H   0  0  0  0  0  0  0  0  0  0  0  0
   48.6476   34.1477   43.2069 H   0  0  0  0  0  0  0  0  0  0  0  0
   48.0005   33.1245   44.5234 H   0  0  0  0  0  0  0  0  0  0  0  0
   47.2320   31.5480   43.0897 H   0  0  0  0  0  0  0  0  0  0  0  0
   46.7164   32.7652   41.8729 H   0  0  0  0  0  0  0  0  0  0  0  0
   52.1278   32.5842   42.0128 H   0  0  0  0  0  0  0  0  0  0  0  0
   50.0240   33.0072   43.3093 H   0  0  0  0  0  0  0  0  0  0  0  0
   49.8139   30.9520   38.8702 H   0  0  0  0  0  0  0  0  0  0  0  0
   45.0649   32.7138   48.6072 H   0  0  0  0  0  0  0  0  0  0  0  0
   46.7415   30.2833   47.1901 H   0  0  0  0  0  0  0  0  0  0  0  0
   48.2122   30.7193   46.2940 H   0  0  0  0  0  0  0  0  0  0  0  0
   48.7153   32.1415   49.7662 H   0  0  0  0  0  0  0  0  0  0  0  0
   50.1487   30.4045   51.2457 H   0  0  0  0  0  0  0  0  0  0  0  0
   50.1371   28.1598   49.9456 H   0  0  0  0  0  0  0  0  0  0  0  0
  1  6  1  0
  2  1  1  0
  3  2  1  0
  3  4  1  0
  4  5  1  0
  6  5  1  0
  6 15  1  0
  7  1  1  0
  8  7  1  0
  9 10  2  0
 11 10  1  0
 11  8  1  0
 12 11  2  0
 13 14  2  0
 13 12  1  0
 14  9  1  0
 15 17  1  0
 17 16  2  0
 17 19  1  0
 17 18  1  0
 20 19  1  0
 20 21  1  0
 21 25  2  0
 21 22  1  0
 22 23  2  0
 24 23  1  0
 25 24  1  0
  2 26  1  0
  2 27  1  0
  3 28  1  0
  3 29  1  0
  4 30  1  0
  4 31  1  0
  5 32  1  0
  5 33  1  0
  6 34  1  6
  7 35  1  0
  7 36  1  0
  8 37  1  0
  8 38  1  0
  9 39  1  0
 10 40  1  0
 13 41  1  0
 18 42  1  0
 20 43  1  0
 20 44  1  0
 22 45  1  0
 23 46  1  0
 24 47  1  0
M  ISO  8  26  13  27  13  28  13  29  13  30  13  31  13  32  13  33  13
M  ISO  8  34  13  35   8  36   8  37   8  38   8  39  14  40  14  41  14
M  ISO  6  42   3  43   8  44   8  45  14  46  14  47   9
M  END
>  <minimizedAffinity>  (1) 
-5.03441763

>  <minimizedRMSD>  (1) 
2.79981136

$$$$
