
     RDKit          3D

 42 46  0  0  0  0  0  0  0  0999 V2000
   44.8230   36.0010   43.3290 Cl  0  0  0  0  0  0  0  0  0  0  0  0
   45.5660   34.7490   44.2710 C   0  0  0  0  0  0  0  0  0  0  0  0
   46.6800   34.0920   43.7970 C   0  0  0  0  0  0  0  0  0  0  0  0
   47.1920   33.1170   44.6210 C   0  0  0  0  0  0  0  0  0  0  0  0
   46.6800   32.7640   45.8530 C   0  0  0  0  0  0  0  0  0  0  0  0
   45.5660   33.4430   46.2950 C   0  0  0  0  0  0  0  0  0  0  0  0
   44.9440   32.9720   47.8560 Cl  0  0  0  0  0  0  0  0  0  0  0  0
   45.0200   34.4220   45.5110 C   0  0  0  0  0  0  0  0  0  0  0  0
   47.3750   31.6940   46.5790 C   0  0  0  0  0  0  0  0  0  0  0  0
   47.4930   30.4080   46.0870 C   0  0  0  0  0  0  0  0  0  0  0  0
   48.1430   29.3880   46.7560 C   0  0  0  0  0  0  0  0  0  0  0  0
   48.7090   29.6470   47.9800 C   0  0  0  0  0  0  0  0  0  0  0  0
   49.3290   28.6380   48.5980 N   0  0  0  0  0  0  0  0  0  0  0  0
   49.9210   28.7960   49.8110 C   0  0  0  0  0  0  0  0  0  0  0  0
   49.8470   30.0710   50.3800 C   0  0  0  0  0  0  0  0  0  0  0  0
   49.2080   31.0900   49.7320 C   0  0  0  0  0  0  0  0  0  0  0  0
   48.6160   30.9050   48.5000 C   0  0  0  0  0  0  0  0  0  0  0  0
   47.9600   31.9220   47.8190 C   0  0  0  0  0  0  0  0  0  0  0  0
   48.8930   35.5550   41.3060 C   0  0  0  0  0  0  0  0  0  0  0  0
   48.4360   35.0220   40.0990 C   0  0  0  0  0  0  0  0  0  0  0  0
   47.3370   34.1360   40.1500 C   0  0  0  0  0  0  0  0  0  0  0  0
   46.8030   33.8640   41.3590 N   0  0  0  0  0  0  0  0  0  0  0  0
   47.2790   34.4050   42.5090 C   0  0  0  0  0  0  0  0  0  0  0  0
   48.3280   35.2540   42.4860 N   0  0  0  0  0  0  0  0  0  0  0  0
   46.7810   33.5230   38.9500 C   0  0  0  0  0  0  0  0  0  0  0  0
   47.4070   33.5460   37.7190 C   0  0  0  0  0  0  0  0  0  0  0  0
   46.5550   32.8580   36.8550 C   0  0  0  0  0  0  0  0  0  0  0  0
   45.4710   32.4510   37.5640 N   0  0  0  0  0  0  0  0  0  0  0  0
   45.6200   32.8560   38.8200 N   0  0  0  0  0  0  0  0  0  0  0  0
   48.0820   32.5745   44.2694 H   0  0  0  0  0  0  0  0  0  0  0  0
   44.1308   34.9629   45.8669 H   0  0  0  0  0  0  0  0  0  0  0  0
   47.0445   30.1835   45.1080 H   0  0  0  0  0  0  0  0  0  0  0  0
   48.2060   28.3827   46.3140 H   0  0  0  0  0  0  0  0  0  0  0  0
   50.4316   27.9644   50.3186 H   0  0  0  0  0  0  0  0  0  0  0  0
   50.3088   30.2559   51.3611 H   0  0  0  0  0  0  0  0  0  0  0  0
   49.1646   32.0824   50.2044 H   0  0  0  0  0  0  0  0  0  0  0  0
   47.9024   32.9244   48.2683 H   0  0  0  0  0  0  0  0  0  0  0  0
   49.7477   36.2472   41.2893 H   0  0  0  0  0  0  0  0  0  0  0  0
   48.9143   35.2825   39.1433 H   0  0  0  0  0  0  0  0  0  0  0  0
   48.3737   34.0092   37.4720 H   0  0  0  0  0  0  0  0  0  0  0  0
   46.7309   32.6766   35.7844 H   0  0  0  0  0  0  0  0  0  0  0  0
   44.6709   31.9197   37.1919 H   0  0  0  0  0  0  0  0  0  0  0  0
  1  2  1  0
  2  8  2  0
  3  2  1  0
  3  4  2  0
  4  5  1  0
  5  6  2  0
  5  9  1  0
  6  7  1  0
  8  6  1  0
  9 18  1  0
 10  9  2  0
 10 11  1  0
 11 12  2  0
 12 17  1  0
 12 13  1  0
 13 14  2  0
 14 15  1  0
 16 15  2  0
 17 16  1  0
 18 17  2  0
 19 24  2  0
 20 21  2  0
 20 19  1  0
 21 22  1  0
 22 23  2  0
 23  3  1  0
 24 23  1  0
 25 21  1  0
 26 25  1  0
 27 28  1  0
 27 26  2  0
 28 29  1  0
 29 25  2  0
  4 30  1  0
  8 31  1  0
 10 32  1  0
 11 33  1  0
 14 34  1  0
 15 35  1  0
 16 36  1  0
 18 37  1  0
 19 38  1  0
 20 39  1  0
 26 40  1  0
 27 41  1  0
 28 42  1  0
M  ISO  8  30  14  31  14  32  14  33  14  34  14  35  14  36  14  37  14
M  ISO  5  38  14  39  14  40  14  41  14  42   9
M  END
>  <minimizedAffinity>  (1) 
-7.0536027

>  <minimizedRMSD>  (1) 
0.157787889

$$$$
