
     RDKit          3D

 23 24  0  0  0  0  0  0  0  0999 V2000
   46.9570   34.7140   41.7560 C   0  0  0  0  0  0  0  0  0  0  0  0
   44.6040   36.0070   44.3950 C   0  0  0  0  0  0  0  0  0  0  0  0
   45.3250   35.8840   43.1990 C   0  0  0  0  0  0  0  0  0  0  0  0
   46.2050   34.8260   43.0280 C   0  0  0  0  0  0  0  0  0  0  0  0
   46.3120   33.9530   44.0580 N   0  0  0  0  0  0  0  0  0  0  0  0
   45.6110   34.0850   45.2060 C   0  0  0  0  0  0  0  0  0  0  0  0
   44.7660   35.0980   45.3750 N   0  0  0  0  0  0  0  0  0  0  0  0
   48.2910   35.4310   41.9240 C   0  0  0  0  0  0  0  0  0  0  0  0
   49.3370   34.3550   41.8800 C   0  0  0  0  0  0  0  0  0  0  0  0
   49.1120   33.1620   41.1860 C   0  0  0  0  0  0  0  0  0  0  0  0
   50.3120   32.4750   41.4070 C   0  0  0  0  0  0  0  0  0  0  0  0
   51.1530   33.1990   42.1560 N   0  0  0  0  0  0  0  0  0  0  0  0
   50.5560   34.3610   42.4510 N   0  0  0  0  0  0  0  0  0  0  0  0
   46.3833   35.1817   40.9423 H   0  0  0  0  0  0  0  0  0  0  0  0
   47.1243   33.6558   41.5066 H   0  0  0  0  0  0  0  0  0  0  0  0
   43.9061   36.8460   44.5328 H   0  0  0  0  0  0  0  0  0  0  0  0
   45.1929   36.6256   42.3974 H   0  0  0  0  0  0  0  0  0  0  0  0
   45.7409   33.3458   46.0101 H   0  0  0  0  0  0  0  0  0  0  0  0
   48.4457   36.1504   41.1064 H   0  0  0  0  0  0  0  0  0  0  0  0
   48.3315   35.9993   42.8649 H   0  0  0  0  0  0  0  0  0  0  0  0
   48.2255   32.8463   40.6163 H   0  0  0  0  0  0  0  0  0  0  0  0
   50.5347   31.4712   41.0161 H   0  0  0  0  0  0  0  0  0  0  0  0
   52.0963   32.9119   42.4539 H   0  0  0  0  0  0  0  0  0  0  0  0
  1  8  1  0
  1  4  1  0
  2  7  2  0
  3  2  1  0
  4  3  2  0
  4  5  1  0
  5  6  2  0
  6  7  1  0
  9  8  1  0
  9 13  2  0
 10 11  2  0
 10  9  1  0
 11 12  1  0
 12 13  1  0
  1 14  1  0
  1 15  1  0
  2 16  1  0
  3 17  1  0
  6 18  1  0
  8 19  1  0
  8 20  1  0
 10 21  1  0
 11 22  1  0
 12 23  1  0
M  ISO  8  14   8  15   8  16  14  17  14  18  14  19   8  20   8  21  14
M  ISO  2  22  14  23   9
M  END
>  <minimizedAffinity>  (1) 
-4.56061268

>  <minimizedRMSD>  (1) 
2.09700918

$$$$
