
     RDKit          3D

 48 52  0  0  1  0  0  0  0  0999 V2000
   47.0480   31.0440   46.8710 C   0  0  0  0  0  0  0  0  0  0  0  0
   46.6160   31.5140   48.2170 C   0  0  1  0  0  0  0  0  0  0  0  0
   46.3610   30.4060   49.1830 C   0  0  0  0  0  0  0  0  0  0  0  0
   47.4860   31.3120   49.3870 C   0  0  1  0  0  0  0  0  0  0  0  0
   48.9050   30.9130   49.1530 C   0  0  2  0  0  0  0  0  0  0  0  0
   49.5560   30.1510   50.3320 C   0  0  0  0  0  0  0  0  0  0  0  0
   49.9640   31.5410   50.0460 C   0  0  1  0  0  0  0  0  0  0  0  0
   51.3280   31.7710   49.5580 C   0  0  0  0  0  0  0  0  0  0  0  0
   51.9860   30.8500   48.7360 C   0  0  0  0  0  0  0  0  0  0  0  0
   53.2510   31.3600   48.4520 C   0  0  0  0  0  0  0  0  0  0  0  0
   53.3370   32.5460   49.0880 N   0  0  0  0  0  0  0  0  0  0  0  0
   52.1890   32.7600   49.7310 N   0  0  0  0  0  0  0  0  0  0  0  0
   46.0130   33.0290   46.1410 C   0  0  0  0  0  0  0  0  0  0  0  0
   46.8350   32.1200   45.8300 C   0  0  0  0  0  0  0  0  0  0  0  0
   44.5770   35.9600   44.4260 C   0  0  0  0  0  0  0  0  0  0  0  0
   45.2100   35.9430   43.1940 C   0  0  0  0  0  0  0  0  0  0  0  0
   46.0970   34.9370   42.9900 C   0  0  0  0  0  0  0  0  0  0  0  0
   46.3290   34.0130   43.9630 N   0  0  0  0  0  0  0  0  0  0  0  0
   45.6980   34.0600   45.1480 C   0  0  0  0  0  0  0  0  0  0  0  0
   44.8310   35.0410   45.3510 N   0  0  0  0  0  0  0  0  0  0  0  0
   46.8390   34.7870   41.7410 C   0  0  0  0  0  0  0  0  0  0  0  0
   48.0480   35.3610   41.4760 C   0  0  0  0  0  0  0  0  0  0  0  0
   48.7400   35.2110   40.2930 C   0  0  0  0  0  0  0  0  0  0  0  0
   48.2040   34.4350   39.2850 C   0  0  0  0  0  0  0  0  0  0  0  0
   46.9920   33.8320   39.4910 C   0  0  0  0  0  0  0  0  0  0  0  0
   46.3410   34.0150   40.6970 C   0  0  0  0  0  0  0  0  0  0  0  0
   48.1161   30.7832   46.9062 H   0  0  0  0  0  0  0  0  0  0  0  0
   46.4469   30.1648   46.5960 H   0  0  0  0  0  0  0  0  0  0  0  0
   46.0922   32.3958   47.8195 H   0  0  0  0  0  0  0  0  0  0  0  0
   45.4902   30.4499   49.8537 H   0  0  0  0  0  0  0  0  0  0  0  0
   46.2440   29.3151   49.1037 H   0  0  0  0  0  0  0  0  0  0  0  0
   47.8122   31.9076   50.2524 H   0  0  0  0  0  0  0  0  0  0  0  0
   48.7852   30.7777   48.0679 H   0  0  0  0  0  0  0  0  0  0  0  0
   48.9663   29.9262   51.2330 H   0  0  0  0  0  0  0  0  0  0  0  0
   50.0862   29.1931   50.4384 H   0  0  0  0  0  0  0  0  0  0  0  0
   49.9975   32.4811   50.6161 H   0  0  0  0  0  0  0  0  0  0  0  0
   51.5774   29.8936   48.3777 H   0  0  0  0  0  0  0  0  0  0  0  0
   54.0269   30.8881   47.8312 H   0  0  0  0  0  0  0  0  0  0  0  0
   54.1502   33.1781   49.0786 H   0  0  0  0  0  0  0  0  0  0  0  0
   45.5441   33.0457   47.1359 H   0  0  0  0  0  0  0  0  0  0  0  0
   47.3614   32.1124   44.8642 H   0  0  0  0  0  0  0  0  0  0  0  0
   43.8467   36.7533   44.6435 H   0  0  0  0  0  0  0  0  0  0  0  0
   45.0051   36.7021   42.4247 H   0  0  0  0  0  0  0  0  0  0  0  0
   48.5015   35.9860   42.2594 H   0  0  0  0  0  0  0  0  0  0  0  0
   49.7123   35.7062   40.1534 H   0  0  0  0  0  0  0  0  0  0  0  0
   48.7406   34.3035   38.3338 H   0  0  0  0  0  0  0  0  0  0  0  0
   46.5409   33.2084   38.7051 H   0  0  0  0  0  0  0  0  0  0  0  0
   45.3693   33.5194   40.8394 H   0  0  0  0  0  0  0  0  0  0  0  0
  1  2  1  0
  2  3  1  0
  2  4  1  0
  3  4  1  0
  5  4  1  0
  5  7  1  0
  5  6  1  0
  7  6  1  0
  8 12  2  0
  8  7  1  0
  9  8  1  0
 10  9  2  0
 10 11  1  0
 11 12  1  0
 14 13  2  0
 14  1  1  0
 15 20  2  0
 16 15  1  0
 17 16  2  0
 17 18  1  0
 18 19  2  0
 19 20  1  0
 19 13  1  0
 21 17  1  0
 22 21  2  0
 23 22  1  0
 24 25  1  0
 24 23  2  0
 25 26  2  0
 26 21  1  0
  1 27  1  0
  1 28  1  0
  2 29  1  6
  3 30  1  0
  3 31  1  0
  4 32  1  1
  5 33  1  6
  6 34  1  0
  6 35  1  0
  7 36  1  1
  9 37  1  0
 10 38  1  0
 11 39  1  0
 13 40  1  0
 14 41  1  0
 15 42  1  0
 16 43  1  0
 22 44  1  0
 23 45  1  0
 24 46  1  0
 25 47  1  0
 26 48  1  0
M  ISO  8  27   8  28   8  29  13  30  13  31  13  32  13  33  13  34  13
M  ISO  8  35  13  36  13  37  14  38  14  39   9  42  14  43  14  44  14
M  ISO  4  45  14  46  14  47  14  48  14
M  END
>  <minimizedAffinity>  (1) 
-6.69538021

>  <minimizedRMSD>  (1) 
0.904375792

$$$$
