
     RDKit          3D

 30 32  0  0  0  0  0  0  0  0999 V2000
   46.5050   33.8970   40.2390 C   0  0  0  0  0  0  0  0  0  0  0  0
   47.8560   33.9240   40.0310 C   0  0  0  0  0  0  0  0  0  0  0  0
   48.6140   34.6470   40.9210 C   0  0  0  0  0  0  0  0  0  0  0  0
   48.0760   35.3330   41.9940 C   0  0  0  0  0  0  0  0  0  0  0  0
   46.6960   35.2730   42.1610 C   0  0  0  0  0  0  0  0  0  0  0  0
   45.9100   34.5580   41.2870 C   0  0  0  0  0  0  0  0  0  0  0  0
   48.8000   32.9240   36.5130 C   0  0  0  0  0  0  0  0  0  0  0  0
   48.2690   33.6720   37.5820 C   0  0  0  0  0  0  0  0  0  0  0  0
   48.3850   33.1930   38.8950 C   0  0  0  0  0  0  0  0  0  0  0  0
   49.0230   32.0060   39.0280 N   0  0  0  0  0  0  0  0  0  0  0  0
   49.5230   31.3030   38.0180 C   0  0  0  0  0  0  0  0  0  0  0  0
   49.4070   31.7730   36.7490 N   0  0  0  0  0  0  0  0  0  0  0  0
   48.6570   33.4490   35.2110 N   0  0  0  0  0  0  0  0  0  0  0  0
   44.4620   34.4920   41.4590 C   0  0  0  0  0  0  0  0  0  0  0  0
   43.5430   35.4610   41.1150 C   0  0  0  0  0  0  0  0  0  0  0  0
   42.2790   35.0130   41.4410 C   0  0  0  0  0  0  0  0  0  0  0  0
   42.4490   33.7960   41.9700 N   0  0  0  0  0  0  0  0  0  0  0  0
   43.7510   33.4710   41.9870 N   0  0  0  0  0  0  0  0  0  0  0  0
   44.9410   32.5430   38.6270 N   0  0  0  0  0  0  0  0  0  0  0  0
   45.6530   33.1600   39.3470 C   0  0  0  0  0  0  0  0  0  0  0  0
   49.7033   34.6815   40.7720 H   0  0  0  0  0  0  0  0  0  0  0  0
   48.7126   35.9027   42.6870 H   0  0  0  0  0  0  0  0  0  0  0  0
   46.2274   35.8041   43.0026 H   0  0  0  0  0  0  0  0  0  0  0  0
   47.7644   34.6299   37.3873 H   0  0  0  0  0  0  0  0  0  0  0  0
   50.0286   30.3448   38.2084 H   0  0  0  0  0  0  0  0  0  0  0  0
   48.1775   34.3494   35.0686 H   0  0  0  0  0  0  0  0  0  0  0  0
   49.0322   32.9318   34.4031 H   0  0  0  0  0  0  0  0  0  0  0  0
   43.7789   36.4323   40.6558 H   0  0  0  0  0  0  0  0  0  0  0  0
   41.3280   35.5465   41.2958 H   0  0  0  0  0  0  0  0  0  0  0  0
   41.6882   33.1937   42.3154 H   0  0  0  0  0  0  0  0  0  0  0  0
  1  6  2  0
  2  1  1  0
  2  3  2  0
  3  4  1  0
  4  5  2  0
  6 14  1  0
  6  5  1  0
  7 12  2  0
  7  8  1  0
  8  9  2  0
  9 10  1  0
  9  2  1  0
 11 10  2  0
 12 11  1  0
 13  7  1  0
 14 18  2  0
 15 16  2  0
 15 14  1  0
 16 17  1  0
 17 18  1  0
 19 20  3  0
 20  1  1  0
  3 21  1  0
  4 22  1  0
  5 23  1  0
  8 24  1  0
 11 25  1  0
 13 26  1  0
 13 27  1  0
 15 28  1  0
 16 29  1  0
 17 30  1  0
M  ISO  8  21  14  22  14  23  14  24  14  25  14  28  14  29  14  30   9
M  END
>  <minimizedAffinity>  (1) 
-5.24611044

>  <minimizedRMSD>  (1) 
6.54042816

$$$$
