
     RDKit          3D

 43 46  0  0  1  0  0  0  0  0999 V2000
   47.2890   33.5370   42.9990 C   0  0  0  0  0  0  0  0  0  0  0  0
   48.3340   33.2670   43.6480 O   0  0  0  0  0  0  0  0  0  0  0  0
   47.0160   33.0710   41.6660 N   0  0  0  0  0  0  0  0  0  0  0  0
   45.8120   32.5110   41.0820 C   0  0  0  0  0  0  0  0  0  0  0  0
   45.4820   33.2820   39.7870 C   0  0  0  0  0  0  0  0  0  0  0  0
   46.5900   33.0710   38.7830 C   0  0  0  0  0  0  0  0  0  0  0  0
   47.7840   32.4580   39.4570 C   0  0  0  0  0  0  0  0  0  0  0  0
   48.1230   33.1780   40.7390 C   0  0  2  0  0  0  0  0  0  0  0  0
   45.9180   35.5710   42.9890 C   0  0  0  0  0  0  0  0  0  0  0  0
   46.2990   34.3720   43.6410 C   0  0  0  0  0  0  0  0  0  0  0  0
   45.7220   34.0450   44.8490 C   0  0  0  0  0  0  0  0  0  0  0  0
   44.8050   34.8870   45.3720 N   0  0  0  0  0  0  0  0  0  0  0  0
   44.4300   36.0390   44.7590 C   0  0  0  0  0  0  0  0  0  0  0  0
   44.9940   36.3560   43.5800 N   0  0  0  0  0  0  0  0  0  0  0  0
   46.1280   32.8180   45.5030 C   0  0  0  0  0  0  0  0  0  0  0  0
   45.7460   31.6140   44.9890 C   0  0  0  0  0  0  0  0  0  0  0  0
   46.1430   30.4540   45.6270 C   0  0  0  0  0  0  0  0  0  0  0  0
   46.9190   30.4580   46.7730 C   0  0  0  0  0  0  0  0  0  0  0  0
   47.2780   31.7110   47.2500 C   0  0  0  0  0  0  0  0  0  0  0  0
   46.8740   32.8180   46.6040 N   0  0  0  0  0  0  0  0  0  0  0  0
   49.4190   32.7300   41.2890 C   0  0  0  0  0  0  0  0  0  0  0  0
   49.9770   31.4600   41.3930 C   0  0  0  0  0  0  0  0  0  0  0  0
   51.2240   31.4980   41.9810 C   0  0  0  0  0  0  0  0  0  0  0  0
   51.4110   32.8060   42.2310 N   0  0  0  0  0  0  0  0  0  0  0  0
   50.3790   33.5330   41.8390 N   0  0  0  0  0  0  0  0  0  0  0  0
   45.9742   31.4484   40.8484 H   0  0  0  0  0  0  0  0  0  0  0  0
   44.9766   32.5988   41.7922 H   0  0  0  0  0  0  0  0  0  0  0  0
   44.5337   32.9115   39.3706 H   0  0  0  0  0  0  0  0  0  0  0  0
   45.3880   34.3548   40.0113 H   0  0  0  0  0  0  0  0  0  0  0  0
   46.8754   34.0395   38.3465 H   0  0  0  0  0  0  0  0  0  0  0  0
   46.2357   32.3948   37.9910 H   0  0  0  0  0  0  0  0  0  0  0  0
   47.5643   31.4047   39.6855 H   0  0  0  0  0  0  0  0  0  0  0  0
   48.6447   32.5388   38.7768 H   0  0  0  0  0  0  0  0  0  0  0  0
   48.2636   34.2497   40.5346 H   0  0  0  0  0  0  0  0  0  0  0  0
   46.3648   35.8546   42.0246 H   0  0  0  0  0  0  0  0  0  0  0  0
   43.6798   36.6999   45.2176 H   0  0  0  0  0  0  0  0  0  0  0  0
   45.1301   31.5667   44.0788 H   0  0  0  0  0  0  0  0  0  0  0  0
   45.8291   29.4873   45.2064 H   0  0  0  0  0  0  0  0  0  0  0  0
   47.2308   29.5291   47.2730 H   0  0  0  0  0  0  0  0  0  0  0  0
   47.8936   31.7980   48.1574 H   0  0  0  0  0  0  0  0  0  0  0  0
   49.4843   30.5388   41.0486 H   0  0  0  0  0  0  0  0  0  0  0  0
   51.9030   30.6593   42.1944 H   0  0  0  0  0  0  0  0  0  0  0  0
   52.2559   33.1942   42.6742 H   0  0  0  0  0  0  0  0  0  0  0  0
  1 10  1  0
  1  2  2  0
  3  1  1  0
  4  3  1  0
  5  4  1  0
  6  7  1  0
  6  5  1  0
  7  8  1  0
  8 21  1  0
  8  3  1  0
  9 14  2  0
  9 10  1  0
 10 11  2  0
 11 12  1  0
 11 15  1  0
 13 12  2  0
 14 13  1  0
 15 20  1  0
 16 15  2  0
 16 17  1  0
 17 18  2  0
 18 19  1  0
 20 19  2  0
 21 22  1  0
 21 25  2  0
 22 23  2  0
 23 24  1  0
 25 24  1  0
  4 26  1  0
  4 27  1  0
  5 28  1  0
  5 29  1  0
  6 30  1  0
  6 31  1  0
  7 32  1  0
  7 33  1  0
  8 34  1  6
  9 35  1  0
 13 36  1  0
 16 37  1  0
 17 38  1  0
 18 39  1  0
 19 40  1  0
 22 41  1  0
 23 42  1  0
 24 43  1  0
M  ISO  8  26  13  27  13  28  13  29  13  30  13  31  13  32  13  33  13
M  ISO  8  34  13  35  14  36  14  37  14  38  14  39  14  40  14  41  14
M  ISO  2  42  14  43   9
M  END
>  <minimizedAffinity>  (1) 
-5.68098497

>  <minimizedRMSD>  (1) 
0.483679771

$$$$
