
     RDKit          3D

 44 46  0  0  0  0  0  0  0  0999 V2000
   43.0220   32.4950   41.6750 C   0  0  0  0  0  0  0  0  0  0  0  0
   43.6180   34.9220   41.8800 C   0  0  0  0  0  0  0  0  0  0  0  0
   43.8840   33.5930   42.2020 C   0  0  0  0  0  0  0  0  0  0  0  0
   44.9580   33.3110   43.0140 C   0  0  0  0  0  0  0  0  0  0  0  0
   45.7430   34.3190   43.4930 C   0  0  0  0  0  0  0  0  0  0  0  0
   45.5100   35.6350   43.1980 C   0  0  0  0  0  0  0  0  0  0  0  0
   44.4240   35.8740   42.3800 C   0  0  0  0  0  0  0  0  0  0  0  0
   40.1750   35.6850   40.5390 C   0  0  0  0  0  0  0  0  0  0  0  0
   41.2110   35.4800   41.4700 C   0  0  0  0  0  0  0  0  0  0  0  0
   42.4720   35.1570   41.0200 C   0  0  0  0  0  0  0  0  0  0  0  0
   42.6520   35.0520   39.6680 N   0  0  0  0  0  0  0  0  0  0  0  0
   41.6480   35.2530   38.7790 C   0  0  0  0  0  0  0  0  0  0  0  0
   40.4100   35.5700   39.2380 N   0  0  0  0  0  0  0  0  0  0  0  0
   42.7170   31.4650   42.6160 N   0  0  0  0  0  0  0  0  0  0  0  0
   41.0460   31.0430   42.6120 S   0  0  0  0  0  0  0  0  0  0  0  0
   40.1890   32.2530   42.3900 O   0  0  0  0  0  0  0  0  0  0  0  0
   40.6680   30.3510   43.8730 O   0  0  0  0  0  0  0  0  0  0  0  0
   40.8090   29.9770   41.3220 O   0  0  0  0  0  0  0  0  0  0  0  0
   40.1610   28.8530   41.8190 C   0  0  0  0  0  0  0  0  0  0  0  0
   41.1010   27.6440   41.6890 C   0  0  0  0  0  0  0  0  0  0  0  0
   40.9810   26.8740   42.9530 C   0  0  0  0  0  0  0  0  0  0  0  0
   40.9760   25.5370   43.2450 C   0  0  0  0  0  0  0  0  0  0  0  0
   40.8310   25.4450   44.6240 C   0  0  0  0  0  0  0  0  0  0  0  0
   40.7520   26.6920   45.1300 N   0  0  0  0  0  0  0  0  0  0  0  0
   40.8440   27.5190   44.1260 N   0  0  0  0  0  0  0  0  0  0  0  0
   42.0745   32.9381   41.3345 H   0  0  0  0  0  0  0  0  0  0  0  0
   43.5938   32.0150   40.8671 H   0  0  0  0  0  0  0  0  0  0  0  0
   45.1851   32.2677   43.2785 H   0  0  0  0  0  0  0  0  0  0  0  0
   46.5950   34.0644   44.1405 H   0  0  0  0  0  0  0  0  0  0  0  0
   46.1441   36.4459   43.5858 H   0  0  0  0  0  0  0  0  0  0  0  0
   44.2024   36.9192   42.1186 H   0  0  0  0  0  0  0  0  0  0  0  0
   39.1653   35.9419   40.8919 H   0  0  0  0  0  0  0  0  0  0  0  0
   41.0149   35.5770   42.5480 H   0  0  0  0  0  0  0  0  0  0  0  0
   41.8342   35.1604   37.6988 H   0  0  0  0  0  0  0  0  0  0  0  0
   43.2698   30.6283   42.3809 H   0  0  0  0  0  0  0  0  0  0  0  0
   39.9205   32.6321   43.2642 H   0  0  0  0  0  0  0  0  0  0  0  0
   40.9635   30.8920   44.6477 H   0  0  0  0  0  0  0  0  0  0  0  0
   39.9053   29.0109   42.8772 H   0  0  0  0  0  0  0  0  0  0  0  0
   39.2367   28.6716   41.2509 H   0  0  0  0  0  0  0  0  0  0  0  0
   40.8003   27.0198   40.8346 H   0  0  0  0  0  0  0  0  0  0  0  0
   42.1389   27.9657   41.5180 H   0  0  0  0  0  0  0  0  0  0  0  0
   41.0681   24.7040   42.5325 H   0  0  0  0  0  0  0  0  0  0  0  0
   40.7879   24.5118   45.2048 H   0  0  0  0  0  0  0  0  0  0  0  0
   40.6401   26.9440   46.1224 H   0  0  0  0  0  0  0  0  0  0  0  0
  1  3  1  0
  1 14  1  0
  2  3  1  0
  2  7  2  0
  3  4  2  0
  4  5  1  0
  6  5  2  0
  7  6  1  0
  8  9  2  0
 10  9  1  0
 10  2  1  0
 11 10  2  0
 12 13  2  0
 12 11  1  0
 13  8  1  0
 15 14  1  0
 15 17  1  0
 16 15  1  0
 18 19  1  0
 18 15  1  0
 20 19  1  0
 20 21  1  0
 21 22  1  0
 21 25  2  0
 22 23  2  0
 23 24  1  0
 25 24  1  0
  1 26  1  0
  1 27  1  0
  4 28  1  0
  5 29  1  0
  6 30  1  0
  7 31  1  0
  8 32  1  0
  9 33  1  0
 12 34  1  0
 14 35  1  0
 16 36  1  0
 17 37  1  0
 19 38  1  0
 19 39  1  0
 20 40  1  0
 20 41  1  0
 22 42  1  0
 23 43  1  0
 24 44  1  0
M  ISO  8  26   8  27   8  28  14  29  14  30  14  31  14  32  14  33  14
M  ISO  8  34  14  35   5  36   3  37   3  38   8  39   8  40   8  41   8
M  ISO  3  42  14  43  14  44   9
M  END
>  <minimizedAffinity>  (1) 
-5.06638718

>  <minimizedRMSD>  (1) 
1.1130172

$$$$
