
     RDKit          3D

 23 24  0  0  0  0  0  0  0  0999 V2000
   46.8650   33.4330   44.1910 C   0  0  0  0  0  0  0  0  0  0  0  0
   46.1590   34.5050   43.6440 C   0  0  0  0  0  0  0  0  0  0  0  0
   46.6780   35.0940   42.4890 C   0  0  0  0  0  0  0  0  0  0  0  0
   47.8330   34.5880   41.9740 N   0  0  0  0  0  0  0  0  0  0  0  0
   48.4930   33.5540   42.5220 C   0  0  0  0  0  0  0  0  0  0  0  0
   48.0080   32.9660   43.6450 N   0  0  0  0  0  0  0  0  0  0  0  0
   49.7300   33.0230   41.9590 C   0  0  0  0  0  0  0  0  0  0  0  0
   49.8260   32.0420   41.0150 C   0  0  0  0  0  0  0  0  0  0  0  0
   51.1730   31.8600   40.7800 C   0  0  0  0  0  0  0  0  0  0  0  0
   51.8240   32.7250   41.5770 N   0  0  0  0  0  0  0  0  0  0  0  0
   50.9750   33.4270   42.2870 N   0  0  0  0  0  0  0  0  0  0  0  0
   44.9430   34.9380   44.2960 C   0  0  0  0  0  0  0  0  0  0  0  0
   44.7720   36.4260   44.0420 C   0  0  0  0  0  0  0  0  0  0  0  0
   46.4762   32.9509   45.1001 H   0  0  0  0  0  0  0  0  0  0  0  0
   46.1685   35.9424   42.0088 H   0  0  0  0  0  0  0  0  0  0  0  0
   48.9946   31.5036   40.5367 H   0  0  0  0  0  0  0  0  0  0  0  0
   51.6264   31.1458   40.0770 H   0  0  0  0  0  0  0  0  0  0  0  0
   52.8483   32.8226   41.6233 H   0  0  0  0  0  0  0  0  0  0  0  0
   44.0836   34.3888   43.8839 H   0  0  0  0  0  0  0  0  0  0  0  0
   45.0006   34.7412   45.3767 H   0  0  0  0  0  0  0  0  0  0  0  0
   44.7109   36.9574   45.0032 H   0  0  0  0  0  0  0  0  0  0  0  0
   45.6329   36.8016   43.4694 H   0  0  0  0  0  0  0  0  0  0  0  0
   43.8484   36.5965   43.4694 H   0  0  0  0  0  0  0  0  0  0  0  0
  2  1  2  0
  2 12  1  0
  3  2  1  0
  4  3  2  0
  4  5  1  0
  5  6  2  0
  6  1  1  0
  7 11  2  0
  7  5  1  0
  8  7  1  0
  9  8  2  0
  9 10  1  0
 10 11  1  0
 13 12  1  0
  1 14  1  0
  3 15  1  0
  8 16  1  0
  9 17  1  0
 10 18  1  0
 12 19  1  0
 12 20  1  0
 13 21  1  0
 13 22  1  0
 13 23  1  0
M  ISO  8  14  14  15  14  16  14  17  14  18   9  19   8  20   8  21   8
M  ISO  2  22   8  23   8
M  END
>  <minimizedAffinity>  (1) 
-4.02121496

>  <minimizedRMSD>  (1) 
6.34482145

$$$$
