
     RDKit          3D

 42 45  0  0  1  0  0  0  0  0999 V2000
   43.3210   34.4240   40.7530 C   0  0  0  0  0  0  0  0  0  0  0  0
   43.2380   35.6270   40.3740 O   0  0  0  0  0  0  0  0  0  0  0  0
   41.9610   33.9970   40.4620 N   0  0  0  0  0  0  0  0  0  0  0  0
   41.5670   34.1100   39.0780 C   0  0  0  0  0  0  0  0  0  0  0  0
   40.7410   35.3960   39.0040 C   0  0  0  0  0  0  0  0  0  0  0  0
   39.9600   35.4830   40.3110 C   0  0  0  0  0  0  0  0  0  0  0  0
   39.6480   34.1110   40.8660 C   0  0  0  0  0  0  0  0  0  0  0  0
   40.9470   33.4710   41.3830 C   0  0  1  0  0  0  0  0  0  0  0  0
   40.8620   32.0080   41.3810 C   0  0  0  0  0  0  0  0  0  0  0  0
   40.3890   31.2410   42.4510 C   0  0  0  0  0  0  0  0  0  0  0  0
   40.4450   29.9080   42.1140 C   0  0  0  0  0  0  0  0  0  0  0  0
   40.9490   29.8660   40.8500 N   0  0  0  0  0  0  0  0  0  0  0  0
   41.1840   31.1130   40.4460 N   0  0  0  0  0  0  0  0  0  0  0  0
   44.3940   33.7680   41.2740 O   0  0  0  0  0  0  0  0  0  0  0  0
   45.7140   34.1050   41.1160 C   0  0  0  0  0  0  0  0  0  0  0  0
   46.3570   34.7430   42.1860 C   0  0  0  0  0  0  0  0  0  0  0  0
   47.7130   35.0750   41.9910 C   0  0  0  0  0  0  0  0  0  0  0  0
   48.3100   34.7670   40.8010 N   0  0  0  0  0  0  0  0  0  0  0  0
   47.6400   34.1600   39.8240 C   0  0  0  0  0  0  0  0  0  0  0  0
   46.3520   33.8270   39.9720 N   0  0  0  0  0  0  0  0  0  0  0  0
   45.6360   35.0270   43.4100 C   0  0  0  0  0  0  0  0  0  0  0  0
   44.9880   36.2340   43.6420 C   0  0  0  0  0  0  0  0  0  0  0  0
   44.4490   36.0690   44.9020 C   0  0  0  0  0  0  0  0  0  0  0  0
   44.7480   34.8530   45.3990 N   0  0  0  0  0  0  0  0  0  0  0  0
   45.4680   34.2380   44.4770 N   0  0  0  0  0  0  0  0  0  0  0  0
   42.4521   34.1813   38.4288 H   0  0  0  0  0  0  0  0  0  0  0  0
   40.9966   33.2329   38.7383 H   0  0  0  0  0  0  0  0  0  0  0  0
   41.4033   36.2678   38.8980 H   0  0  0  0  0  0  0  0  0  0  0  0
   40.0653   35.3861   38.1360 H   0  0  0  0  0  0  0  0  0  0  0  0
   40.5584   36.0385   41.0481 H   0  0  0  0  0  0  0  0  0  0  0  0
   39.0086   35.9970   40.1095 H   0  0  0  0  0  0  0  0  0  0  0  0
   38.9281   34.2028   41.6926 H   0  0  0  0  0  0  0  0  0  0  0  0
   39.2132   33.4813   40.0758 H   0  0  0  0  0  0  0  0  0  0  0  0
   41.1769   33.7138   42.4310 H   0  0  0  0  0  0  0  0  0  0  0  0
   40.0290   31.6405   43.4106 H   0  0  0  0  0  0  0  0  0  0  0  0
   40.1446   29.0529   42.7373 H   0  0  0  0  0  0  0  0  0  0  0  0
   41.1199   29.0129   40.2987 H   0  0  0  0  0  0  0  0  0  0  0  0
   48.2836   35.5759   42.7870 H   0  0  0  0  0  0  0  0  0  0  0  0
   48.1534   33.9282   38.8792 H   0  0  0  0  0  0  0  0  0  0  0  0
   44.9207   37.1104   42.9806 H   0  0  0  0  0  0  0  0  0  0  0  0
   43.8545   36.8291   45.4300 H   0  0  0  0  0  0  0  0  0  0  0  0
   44.4702   34.4768   46.3167 H   0  0  0  0  0  0  0  0  0  0  0  0
  1 14  1  0
  2  1  2  0
  3  1  1  0
  3  8  1  0
  4  3  1  0
  5  4  1  0
  5  6  1  0
  6  7  1  0
  7  8  1  0
  9  8  1  0
  9 10  1  0
 11 10  2  0
 12 11  1  0
 13 12  1  0
 13  9  2  0
 15 14  1  0
 15 16  1  0
 16 21  1  0
 17 16  2  0
 18 17  1  0
 19 20  1  0
 19 18  2  0
 20 15  2  0
 21 22  1  0
 21 25  2  0
 22 23  2  0
 23 24  1  0
 25 24  1  0
  4 26  1  0
  4 27  1  0
  5 28  1  0
  5 29  1  0
  6 30  1  0
  6 31  1  0
  7 32  1  0
  7 33  1  0
  8 34  1  1
 10 35  1  0
 11 36  1  0
 12 37  1  0
 17 38  1  0
 19 39  1  0
 22 40  1  0
 23 41  1  0
 24 42  1  0
M  ISO  8  26  13  27  13  28  13  29  13  30  13  31  13  32  13  33  13
M  ISO  8  34  13  35  14  36  14  37   9  38  14  39  14  40  14  41  14
M  ISO  1  42   9
M  END
>  <minimizedAffinity>  (1) 
-6.59022474

>  <minimizedRMSD>  (1) 
0.290500343

$$$$
