
     RDKit          3D

 23 24  0  0  0  0  0  0  0  0999 V2000
   46.9870   32.2670   44.3970 C   0  0  0  0  0  0  0  0  0  0  0  0
   46.2700   33.2990   44.9630 C   0  0  0  0  0  0  0  0  0  0  0  0
   46.0100   33.2010   46.3590 C   0  0  0  0  0  0  0  0  0  0  0  0
   46.4690   32.1230   47.0280 N   0  0  0  0  0  0  0  0  0  0  0  0
   47.1600   31.1440   46.4370 C   0  0  0  0  0  0  0  0  0  0  0  0
   47.4130   31.2190   45.1430 N   0  0  0  0  0  0  0  0  0  0  0  0
   45.7220   34.4830   44.3430 C   0  0  0  0  0  0  0  0  0  0  0  0
   45.8400   35.1570   43.1570 C   0  0  0  0  0  0  0  0  0  0  0  0
   45.0090   36.2440   43.0590 C   0  0  0  0  0  0  0  0  0  0  0  0
   44.3620   36.2310   44.2270 N   0  0  0  0  0  0  0  0  0  0  0  0
   44.7780   35.2210   44.9510 N   0  0  0  0  0  0  0  0  0  0  0  0
   47.3360   32.3150   42.9780 C   0  0  0  0  0  0  0  0  0  0  0  0
   48.7540   32.8490   42.8250 C   0  0  0  0  0  0  0  0  0  0  0  0
   45.4465   33.9879   46.8816 H   0  0  0  0  0  0  0  0  0  0  0  0
   47.5149   30.2834   47.0229 H   0  0  0  0  0  0  0  0  0  0  0  0
   46.5347   34.8557   42.3591 H   0  0  0  0  0  0  0  0  0  0  0  0
   44.9020   36.9520   42.2239 H   0  0  0  0  0  0  0  0  0  0  0  0
   43.6447   36.9116   44.5152 H   0  0  0  0  0  0  0  0  0  0  0  0
   47.2766   31.3031   42.5508 H   0  0  0  0  0  0  0  0  0  0  0  0
   46.6345   32.9766   42.4487 H   0  0  0  0  0  0  0  0  0  0  0  0
   49.1929   33.0143   43.8200 H   0  0  0  0  0  0  0  0  0  0  0  0
   49.3632   32.1187   42.2722 H   0  0  0  0  0  0  0  0  0  0  0  0
   48.7301   33.7997   42.2722 H   0  0  0  0  0  0  0  0  0  0  0  0
  1  2  2  0
  1  6  1  0
  2  3  1  0
  3  4  2  0
  5  4  1  0
  6  5  2  0
  7 11  2  0
  7  2  1  0
  8  7  1  0
  9  8  2  0
  9 10  1  0
 10 11  1  0
 12  1  1  0
 13 12  1  0
  3 14  1  0
  5 15  1  0
  8 16  1  0
  9 17  1  0
 10 18  1  0
 12 19  1  0
 12 20  1  0
 13 21  1  0
 13 22  1  0
 13 23  1  0
M  ISO  8  14  14  15  14  16  14  17  14  18   9  19   8  20   8  21   8
M  ISO  2  22   8  23   8
M  END
>  <minimizedAffinity>  (1) 
-3.89380336

>  <minimizedRMSD>  (1) 
3.81893539

$$$$
