
     RDKit          3D

 29 31  0  0  0  0  0  0  0  0999 V2000
   44.8120   30.7330   48.1790 Cl  0  0  0  0  0  0  0  0  0  0  0  0
   46.0000   30.5760   46.8660 C   0  0  0  0  0  0  0  0  0  0  0  0
   46.3880   31.6760   46.1870 C   0  0  0  0  0  0  0  0  0  0  0  0
   47.3350   31.5040   45.2110 C   0  0  0  0  0  0  0  0  0  0  0  0
   47.8560   30.2630   44.9440 C   0  0  0  0  0  0  0  0  0  0  0  0
   47.4370   29.1320   45.6600 C   0  0  0  0  0  0  0  0  0  0  0  0
   46.4910   29.3200   46.6340 C   0  0  0  0  0  0  0  0  0  0  0  0
   46.1090   28.0950   47.3280 C   0  0  0  0  0  0  0  0  0  0  0  0
   46.6780   26.8600   47.5060 C   0  0  0  0  0  0  0  0  0  0  0  0
   45.9210   26.0220   48.2540 C   0  0  0  0  0  0  0  0  0  0  0  0
   44.8570   26.7450   48.5510 N   0  0  0  0  0  0  0  0  0  0  0  0
   44.9580   27.9330   48.0230 N   0  0  0  0  0  0  0  0  0  0  0  0
   45.7890   32.9610   46.4820 C   0  0  0  0  0  0  0  0  0  0  0  0
   45.4740   33.1720   47.6880 O   0  0  0  0  0  0  0  0  0  0  0  0
   44.5000   35.9080   44.8050 C   0  0  0  0  0  0  0  0  0  0  0  0
   45.0910   35.9040   43.5390 C   0  0  0  0  0  0  0  0  0  0  0  0
   45.9520   34.8380   43.2930 C   0  0  0  0  0  0  0  0  0  0  0  0
   46.1550   33.9000   44.2680 N   0  0  0  0  0  0  0  0  0  0  0  0
   45.5620   33.9530   45.4630 C   0  0  0  0  0  0  0  0  0  0  0  0
   44.7330   34.9650   45.7210 N   0  0  0  0  0  0  0  0  0  0  0  0
   47.6823   32.3734   44.6335 H   0  0  0  0  0  0  0  0  0  0  0  0
   48.6149   30.1533   44.1553 H   0  0  0  0  0  0  0  0  0  0  0  0
   47.8506   28.1349   45.4485 H   0  0  0  0  0  0  0  0  0  0  0  0
   47.6533   26.5776   47.0829 H   0  0  0  0  0  0  0  0  0  0  0  0
   46.1408   24.9843   48.5452 H   0  0  0  0  0  0  0  0  0  0  0  0
   44.0618   26.4178   49.1180 H   0  0  0  0  0  0  0  0  0  0  0  0
   43.8104   36.7265   45.0590 H   0  0  0  0  0  0  0  0  0  0  0  0
   44.8907   36.6857   42.7915 H   0  0  0  0  0  0  0  0  0  0  0  0
   46.4644   34.7507   42.3235 H   0  0  0  0  0  0  0  0  0  0  0  0
  2  1  1  0
  3 13  1  0
  3  2  2  0
  4  3  1  0
  5  4  2  0
  5  6  1  0
  6  7  2  0
  7  2  1  0
  7  8  1  0
  8  9  1  0
  8 12  2  0
  9 10  2  0
 10 11  1  0
 12 11  1  0
 13 14  2  0
 15 20  2  0
 16 15  1  0
 17 16  2  0
 17 18  1  0
 18 19  2  0
 19 20  1  0
 19 13  1  0
  4 21  1  0
  5 22  1  0
  6 23  1  0
  9 24  1  0
 10 25  1  0
 11 26  1  0
 15 27  1  0
 16 28  1  0
 17 29  1  0
M  ISO  8  21  14  22  14  23  14  24  14  25  14  26   9  27  14  28  14
M  ISO  1  29  14
M  END
>  <minimizedAffinity>  (1) 
-5.00064564

>  <minimizedRMSD>  (1) 
0.823918164

$$$$
