
     RDKit          3D

 42 45  0  0  1  0  0  0  0  0999 V2000
   47.8340   32.8910   41.8200 C   0  0  1  0  0  0  0  0  0  0  0  0
   47.5130   32.2090   40.5480 C   0  0  0  0  0  0  0  0  0  0  0  0
   48.5510   32.7210   39.5430 C   0  0  0  0  0  0  0  0  0  0  0  0
   48.2000   34.1750   39.2740 C   0  0  0  0  0  0  0  0  0  0  0  0
   48.1240   35.0210   40.5020 C   0  0  0  0  0  0  0  0  0  0  0  0
   47.6330   34.3890   41.7360 C   0  0  1  0  0  0  0  0  0  0  0  0
   45.4050   30.9910   44.0020 C   0  0  0  0  0  0  0  0  0  0  0  0
   46.0770   31.5250   42.9020 C   0  0  0  0  0  0  0  0  0  0  0  0
   47.1810   32.3590   43.0080 C   0  0  0  0  0  0  0  0  0  0  0  0
   47.5810   32.6370   44.2590 N   0  0  0  0  0  0  0  0  0  0  0  0
   46.9420   32.1290   45.3400 C   0  0  0  0  0  0  0  0  0  0  0  0
   45.8840   31.3290   45.2280 N   0  0  0  0  0  0  0  0  0  0  0  0
   46.2420   34.7600   42.0520 C   0  0  0  0  0  0  0  0  0  0  0  0
   45.7790   35.3230   43.2490 C   0  0  0  0  0  0  0  0  0  0  0  0
   44.4070   35.6090   43.2870 C   0  0  0  0  0  0  0  0  0  0  0  0
   43.6410   35.3220   42.1730 C   0  0  0  0  0  0  0  0  0  0  0  0
   44.1190   34.7710   41.0140 C   0  0  0  0  0  0  0  0  0  0  0  0
   45.4410   34.4930   40.9720 N   0  0  0  0  0  0  0  0  0  0  0  0
   43.2120   34.5100   39.8960 C   0  0  0  0  0  0  0  0  0  0  0  0
   41.9720   35.0780   39.6870 C   0  0  0  0  0  0  0  0  0  0  0  0
   41.5300   34.4960   38.4950 C   0  0  0  0  0  0  0  0  0  0  0  0
   42.4700   33.6330   38.0360 N   0  0  0  0  0  0  0  0  0  0  0  0
   43.4900   33.6590   38.9110 N   0  0  0  0  0  0  0  0  0  0  0  0
   48.9037   32.6725   41.9540 H   0  0  0  0  0  0  0  0  0  0  0  0
   47.5942   31.1182   40.6642 H   0  0  0  0  0  0  0  0  0  0  0  0
   46.4845   32.4176   40.2184 H   0  0  0  0  0  0  0  0  0  0  0  0
   49.5628   32.6454   39.9680 H   0  0  0  0  0  0  0  0  0  0  0  0
   48.5385   32.1278   38.6167 H   0  0  0  0  0  0  0  0  0  0  0  0
   48.9677   34.5985   38.6097 H   0  0  0  0  0  0  0  0  0  0  0  0
   47.1971   34.1809   38.8222 H   0  0  0  0  0  0  0  0  0  0  0  0
   49.1375   35.3968   40.7057 H   0  0  0  0  0  0  0  0  0  0  0  0
   47.3740   35.7900   40.2650 H   0  0  0  0  0  0  0  0  0  0  0  0
   48.2858   34.8106   42.5146 H   0  0  0  0  0  0  0  0  0  0  0  0
   44.5331   30.3310   43.8831 H   0  0  0  0  0  0  0  0  0  0  0  0
   45.7118   31.2711   41.8960 H   0  0  0  0  0  0  0  0  0  0  0  0
   47.3098   32.3863   46.3443 H   0  0  0  0  0  0  0  0  0  0  0  0
   46.4459   35.5264   44.0998 H   0  0  0  0  0  0  0  0  0  0  0  0
   43.9501   36.0522   44.1841 H   0  0  0  0  0  0  0  0  0  0  0  0
   42.5667   35.5536   42.2209 H   0  0  0  0  0  0  0  0  0  0  0  0
   41.4516   35.8176   40.3133 H   0  0  0  0  0  0  0  0  0  0  0  0
   40.5678   34.7059   38.0049 H   0  0  0  0  0  0  0  0  0  0  0  0
   42.4131   33.0649   37.1787 H   0  0  0  0  0  0  0  0  0  0  0  0
  1  9  1  0
  2  1  1  0
  3  2  1  0
  4  3  1  0
  4  5  1  0
  5  6  1  0
  6  1  1  0
  6 13  1  0
  7 12  2  0
  8  9  2  0
  8  7  1  0
  9 10  1  0
 10 11  2  0
 12 11  1  0
 13 14  2  0
 14 15  1  0
 16 15  2  0
 17 16  1  0
 18 17  2  0
 18 13  1  0
 19 17  1  0
 20 19  1  0
 21 20  2  0
 22 21  1  0
 22 23  1  0
 23 19  2  0
  1 24  1  1
  2 25  1  0
  2 26  1  0
  3 27  1  0
  3 28  1  0
  4 29  1  0
  4 30  1  0
  5 31  1  0
  5 32  1  0
  6 33  1  1
  7 34  1  0
  8 35  1  0
 11 36  1  0
 14 37  1  0
 15 38  1  0
 16 39  1  0
 20 40  1  0
 21 41  1  0
 22 42  1  0
M  ISO  8  24  13  25  13  26  13  27  13  28  13  29  13  30  13  31  13
M  ISO  8  32  13  33  13  34  14  35  14  36  14  37  14  38  14  39  14
M  ISO  3  40  14  41  14  42   9
M  END
>  <minimizedAffinity>  (1) 
-5.61214113

>  <minimizedRMSD>  (1) 
0.198620021

$$$$
