
     RDKit          3D

 22 23  0  0  0  0  0  0  0  0999 V2000
   44.9950   35.0980   44.9840 C   0  0  0  0  0  0  0  0  0  0  0  0
   45.8630   34.5790   44.0160 C   0  0  0  0  0  0  0  0  0  0  0  0
   46.5230   33.4120   44.3420 C   0  0  0  0  0  0  0  0  0  0  0  0
   46.3230   32.8270   45.5320 N   0  0  0  0  0  0  0  0  0  0  0  0
   45.4740   33.3590   46.4500 C   0  0  0  0  0  0  0  0  0  0  0  0
   44.8060   34.5040   46.1700 N   0  0  0  0  0  0  0  0  0  0  0  0
   45.9580   35.3190   42.8130 N   0  0  0  0  0  0  0  0  0  0  0  0
   45.2200   32.7490   47.7800 C   0  0  0  0  0  0  0  0  0  0  0  0
   46.4430   32.1220   48.3410 C   0  0  0  0  0  0  0  0  0  0  0  0
   47.7730   32.4210   48.2370 C   0  0  0  0  0  0  0  0  0  0  0  0
   48.4880   31.4910   48.9740 C   0  0  0  0  0  0  0  0  0  0  0  0
   47.5790   30.6530   49.5070 N   0  0  0  0  0  0  0  0  0  0  0  0
   46.3680   31.0340   49.1260 N   0  0  0  0  0  0  0  0  0  0  0  0
   44.4486   36.0267   44.7630 H   0  0  0  0  0  0  0  0  0  0  0  0
   47.2183   32.9582   43.6205 H   0  0  0  0  0  0  0  0  0  0  0  0
   45.4075   36.1814   42.6940 H   0  0  0  0  0  0  0  0  0  0  0  0
   46.5777   34.9951   42.0567 H   0  0  0  0  0  0  0  0  0  0  0  0
   44.8724   33.5317   48.4703 H   0  0  0  0  0  0  0  0  0  0  0  0
   44.4590   31.9644   47.6568 H   0  0  0  0  0  0  0  0  0  0  0  0
   48.2022   33.2573   47.6656 H   0  0  0  0  0  0  0  0  0  0  0  0
   49.5800   31.4462   49.0987 H   0  0  0  0  0  0  0  0  0  0  0  0
   47.7903   29.8469   50.1124 H   0  0  0  0  0  0  0  0  0  0  0  0
  1  6  2  0
  2  3  2  0
  2  1  1  0
  3  4  1  0
  4  5  2  0
  5  8  1  0
  6  5  1  0
  7  2  1  0
  8  9  1  0
  9 13  2  0
 10  9  1  0
 10 11  2  0
 11 12  1  0
 13 12  1  0
  1 14  1  0
  3 15  1  0
  7 16  1  0
  7 17  1  0
  8 18  1  0
  8 19  1  0
 10 20  1  0
 11 21  1  0
 12 22  1  0
M  ISO  7  14  14  15  14  18   8  19   8  20  14  21  14  22   9
M  END
>  <minimizedAffinity>  (1) 
-4.44628859

>  <minimizedRMSD>  (1) 
2.10521913

$$$$
