
     RDKit          3D

 28 30  0  0  1  0  0  0  0  0999 V2000
   46.5200   33.5000   43.4010 C   0  0  0  0  0  0  0  0  0  0  0  0
   46.6550   34.7840   42.8160 C   0  0  0  0  0  0  0  0  0  0  0  0
   47.5130   34.9890   41.7220 C   0  0  0  0  0  0  0  0  0  0  0  0
   48.1870   33.8880   41.2840 N   0  0  0  0  0  0  0  0  0  0  0  0
   48.0210   32.6730   41.8840 C   0  0  0  0  0  0  0  0  0  0  0  0
   47.2150   32.4740   42.9100 N   0  0  0  0  0  0  0  0  0  0  0  0
   45.6140   33.3550   44.5510 C   0  0  1  0  0  0  0  0  0  0  0  0
   46.3750   33.5360   45.9130 C   0  0  1  0  0  0  0  0  0  0  0  0
   45.2210   34.3860   45.4340 C   0  0  0  0  0  0  0  0  0  0  0  0
   45.9870   32.5200   46.9620 C   0  0  0  0  0  0  0  0  0  0  0  0
   46.9430   32.3330   47.9190 F   0  0  0  0  0  0  0  0  0  0  0  0
   44.8190   32.9710   47.6080 F   0  0  0  0  0  0  0  0  0  0  0  0
   45.6210   31.3170   46.3770 F   0  0  0  0  0  0  0  0  0  0  0  0
   48.7890   31.6550   41.3080 O   0  0  0  0  0  0  0  0  0  0  0  0
   50.1260   31.7790   41.0480 C   0  0  0  0  0  0  0  0  0  0  0  0
   50.7270   31.2040   39.9470 C   0  0  0  0  0  0  0  0  0  0  0  0
   52.0760   31.5510   40.0340 C   0  0  0  0  0  0  0  0  0  0  0  0
   52.2140   32.2930   41.1440 N   0  0  0  0  0  0  0  0  0  0  0  0
   51.0610   32.4470   41.7760 N   0  0  0  0  0  0  0  0  0  0  0  0
   46.0815   35.6298   43.2230 H   0  0  0  0  0  0  0  0  0  0  0  0
   47.6330   35.9750   41.2493 H   0  0  0  0  0  0  0  0  0  0  0  0
   44.9854   32.6338   44.0080 H   0  0  0  0  0  0  0  0  0  0  0  0
   47.4105   33.6909   46.2501 H   0  0  0  0  0  0  0  0  0  0  0  0
   45.4071   35.4329   45.1523 H   0  0  0  0  0  0  0  0  0  0  0  0
   44.2547   34.6576   45.8840 H   0  0  0  0  0  0  0  0  0  0  0  0
   50.2443   30.5993   39.1651 H   0  0  0  0  0  0  0  0  0  0  0  0
   52.8724   31.2706   39.3290 H   0  0  0  0  0  0  0  0  0  0  0  0
   53.1072   32.6934   41.4646 H   0  0  0  0  0  0  0  0  0  0  0  0
  1  7  1  0
  2  1  2  0
  3  2  1  0
  4  3  2  0
  4  5  1  0
  5  6  2  0
  6  1  1  0
  7  9  1  0
  7  8  1  0
  8 10  1  0
  9  8  1  0
 10 12  1  0
 10 11  1  0
 13 10  1  0
 14  5  1  0
 15 14  1  0
 15 19  2  0
 16 17  2  0
 16 15  1  0
 17 18  1  0
 18 19  1  0
  2 20  1  0
  3 21  1  0
  7 22  1  1
  8 23  1  6
  9 24  1  0
  9 25  1  0
 16 26  1  0
 17 27  1  0
 18 28  1  0
M  ISO  8  20  14  21  14  22  13  23  13  24  13  25  13  26  14  27  14
M  ISO  1  28   9
M  END
>  <minimizedAffinity>  (1) 
-4.71597815

>  <minimizedRMSD>  (1) 
6.76904964

$$$$
