
     RDKit          3D

 46 49  0  0  1  0  0  0  0  0999 V2000
   47.3360   33.7140   42.8340 C   0  0  0  0  0  0  0  0  0  0  0  0
   48.4550   33.5340   43.4290 O   0  0  0  0  0  0  0  0  0  0  0  0
   47.0420   33.1920   41.5450 N   0  0  0  0  0  0  0  0  0  0  0  0
   45.8310   32.5260   41.0450 C   0  0  0  0  0  0  0  0  0  0  0  0
   45.3820   33.1970   39.7560 C   0  0  0  0  0  0  0  0  0  0  0  0
   46.4230   33.0710   38.6850 C   0  0  0  0  0  0  0  0  0  0  0  0
   47.7170   32.5730   39.3020 C   0  0  0  0  0  0  0  0  0  0  0  0
   48.0640   33.3130   40.5430 C   0  0  2  0  0  0  0  0  0  0  0  0
   45.9440   35.7230   42.9530 C   0  0  0  0  0  0  0  0  0  0  0  0
   46.3260   34.4910   43.5200 C   0  0  0  0  0  0  0  0  0  0  0  0
   45.7460   34.0490   44.6960 C   0  0  0  0  0  0  0  0  0  0  0  0
   44.8120   34.8420   45.2660 N   0  0  0  0  0  0  0  0  0  0  0  0
   44.4270   36.0380   44.7360 C   0  0  0  0  0  0  0  0  0  0  0  0
   45.0060   36.4560   43.5820 N   0  0  0  0  0  0  0  0  0  0  0  0
   46.1610   32.7860   45.2480 C   0  0  0  0  0  0  0  0  0  0  0  0
   45.8040   31.6210   44.6560 C   0  0  0  0  0  0  0  0  0  0  0  0
   46.2190   30.4270   45.2120 C   0  0  0  0  0  0  0  0  0  0  0  0
   46.9960   30.3630   46.3680 C   0  0  0  0  0  0  0  0  0  0  0  0
   47.3360   31.5950   46.9380 C   0  0  0  0  0  0  0  0  0  0  0  0
   46.9150   32.7230   46.3700 N   0  0  0  0  0  0  0  0  0  0  0  0
   49.4400   32.9510   41.0050 C   0  0  0  0  0  0  0  0  0  0  0  0
   49.7140   31.4900   40.9490 C   0  0  0  0  0  0  0  0  0  0  0  0
   50.7480   31.0430   40.1500 C   0  0  0  0  0  0  0  0  0  0  0  0
   50.7720   29.6540   40.2910 C   0  0  0  0  0  0  0  0  0  0  0  0
   49.7730   29.3100   41.1540 N   0  0  0  0  0  0  0  0  0  0  0  0
   49.1610   30.4330   41.5280 N   0  0  0  0  0  0  0  0  0  0  0  0
   46.0490   31.4656   40.8502 H   0  0  0  0  0  0  0  0  0  0  0  0
   45.0320   32.6026   41.7971 H   0  0  0  0  0  0  0  0  0  0  0  0
   44.4523   32.7218   39.4097 H   0  0  0  0  0  0  0  0  0  0  0  0
   45.2205   34.2660   39.9591 H   0  0  0  0  0  0  0  0  0  0  0  0
   46.5918   34.0529   38.2189 H   0  0  0  0  0  0  0  0  0  0  0  0
   46.0809   32.3590   37.9195 H   0  0  0  0  0  0  0  0  0  0  0  0
   47.6070   31.5056   39.5442 H   0  0  0  0  0  0  0  0  0  0  0  0
   48.5248   32.7350   38.5732 H   0  0  0  0  0  0  0  0  0  0  0  0
   48.0969   34.3895   40.3193 H   0  0  0  0  0  0  0  0  0  0  0  0
   46.4017   36.0779   42.0178 H   0  0  0  0  0  0  0  0  0  0  0  0
   43.6621   36.6519   45.2341 H   0  0  0  0  0  0  0  0  0  0  0  0
   45.1906   31.6260   43.7429 H   0  0  0  0  0  0  0  0  0  0  0  0
   45.9243   29.4871   44.7224 H   0  0  0  0  0  0  0  0  0  0  0  0
   47.3206   29.4065   46.8035 H   0  0  0  0  0  0  0  0  0  0  0  0
   47.9483   31.6312   47.8511 H   0  0  0  0  0  0  0  0  0  0  0  0
   50.1704   33.4680   40.3653 H   0  0  0  0  0  0  0  0  0  0  0  0
   49.5213   33.2576   42.0583 H   0  0  0  0  0  0  0  0  0  0  0  0
   51.4169   31.6566   39.5287 H   0  0  0  0  0  0  0  0  0  0  0  0
   51.4698   28.9626   39.7960 H   0  0  0  0  0  0  0  0  0  0  0  0
   49.5351   28.3559   41.4606 H   0  0  0  0  0  0  0  0  0  0  0  0
  1  2  2  0
  1 10  1  0
  3  1  1  0
  4  3  1  0
  5  4  1  0
  6  7  1  0
  6  5  1  0
  7  8  1  0
  8 21  1  0
  8  3  1  0
  9 10  2  0
  9 14  1  0
 10 11  1  0
 11 15  1  0
 11 12  2  0
 13 12  1  0
 14 13  2  0
 15 20  2  0
 16 17  2  0
 16 15  1  0
 17 18  1  0
 18 19  2  0
 20 19  1  0
 22 21  1  0
 22 26  2  0
 23 24  2  0
 23 22  1  0
 24 25  1  0
 25 26  1  0
  4 27  1  0
  4 28  1  0
  5 29  1  0
  5 30  1  0
  6 31  1  0
  6 32  1  0
  7 33  1  0
  7 34  1  0
  8 35  1  6
  9 36  1  0
 13 37  1  0
 16 38  1  0
 17 39  1  0
 18 40  1  0
 19 41  1  0
 21 42  1  0
 21 43  1  0
 23 44  1  0
 24 45  1  0
 25 46  1  0
M  ISO  8  27  13  28  13  29  13  30  13  31  13  32  13  33  13  34  13
M  ISO  8  35  13  36  14  37  14  38  14  39  14  40  14  41  14  42   8
M  ISO  4  43   8  44  14  45  14  46   9
M  END
>  <minimizedAffinity>  (1) 
-4.87111139

>  <minimizedRMSD>  (1) 
0.507963002

$$$$
