
     RDKit          3D

 37 40  0  0  0  0  0  0  0  0999 V2000
   44.6050   34.9110   41.2380 F   0  0  0  0  0  0  0  0  0  0  0  0
   44.8930   34.0120   40.2460 C   0  0  0  0  0  0  0  0  0  0  0  0
   46.1390   33.4740   40.1720 C   0  0  0  0  0  0  0  0  0  0  0  0
   46.3180   32.5060   39.2090 C   0  0  0  0  0  0  0  0  0  0  0  0
   45.3120   32.0970   38.3620 C   0  0  0  0  0  0  0  0  0  0  0  0
   44.1060   32.6880   38.5060 C   0  0  0  0  0  0  0  0  0  0  0  0
   43.8640   33.6500   39.4380 C   0  0  0  0  0  0  0  0  0  0  0  0
   42.4970   34.1300   39.5630 C   0  0  0  0  0  0  0  0  0  0  0  0
   42.1210   35.2840   38.8680 C   0  0  0  0  0  0  0  0  0  0  0  0
   40.8920   35.8330   39.1080 C   0  0  0  0  0  0  0  0  0  0  0  0
   40.0360   35.2550   40.0240 C   0  0  0  0  0  0  0  0  0  0  0  0
   40.4620   34.0960   40.6900 C   0  0  0  0  0  0  0  0  0  0  0  0
   41.6840   33.5310   40.4610 C   0  0  0  0  0  0  0  0  0  0  0  0
   41.7380   32.3220   41.2210 C   0  0  0  0  0  0  0  0  0  0  0  0
   42.7060   31.7440   42.0770 C   0  0  0  0  0  0  0  0  0  0  0  0
   42.0750   30.5850   42.5470 C   0  0  0  0  0  0  0  0  0  0  0  0
   40.8510   30.4860   42.0190 N   0  0  0  0  0  0  0  0  0  0  0  0
   40.6230   31.5130   41.2200 N   0  0  0  0  0  0  0  0  0  0  0  0
   49.0730   35.4180   41.5390 C   0  0  0  0  0  0  0  0  0  0  0  0
   48.0810   34.9640   40.6760 C   0  0  0  0  0  0  0  0  0  0  0  0
   47.1740   33.9530   41.0600 C   0  0  0  0  0  0  0  0  0  0  0  0
   47.3310   33.4650   42.2970 N   0  0  0  0  0  0  0  0  0  0  0  0
   48.2980   33.9170   43.1170 C   0  0  0  0  0  0  0  0  0  0  0  0
   49.1580   34.8800   42.7440 N   0  0  0  0  0  0  0  0  0  0  0  0
   47.3090   32.0385   39.1119 H   0  0  0  0  0  0  0  0  0  0  0  0
   45.4834   31.3219   37.6005 H   0  0  0  0  0  0  0  0  0  0  0  0
   43.2851   32.3789   37.8423 H   0  0  0  0  0  0  0  0  0  0  0  0
   42.8043   35.7434   38.1386 H   0  0  0  0  0  0  0  0  0  0  0  0
   40.5835   36.7404   38.5681 H   0  0  0  0  0  0  0  0  0  0  0  0
   39.0467   35.6914   40.2262 H   0  0  0  0  0  0  0  0  0  0  0  0
   39.7885   33.6262   41.4219 H   0  0  0  0  0  0  0  0  0  0  0  0
   43.7132   32.1161   42.3160 H   0  0  0  0  0  0  0  0  0  0  0  0
   42.5208   29.8631   43.2471 H   0  0  0  0  0  0  0  0  0  0  0  0
   40.1851   29.7230   42.2070 H   0  0  0  0  0  0  0  0  0  0  0  0
   49.7718   36.2077   41.2258 H   0  0  0  0  0  0  0  0  0  0  0  0
   48.0015   35.4032   39.6706 H   0  0  0  0  0  0  0  0  0  0  0  0
   48.3872   33.4844   44.1244 H   0  0  0  0  0  0  0  0  0  0  0  0
  2  1  1  0
  3  2  2  0
  3 21  1  0
  4  3  1  0
  5  6  1  0
  5  4  2  0
  6  7  2  0
  7  8  1  0
  7  2  1  0
  8 13  2  0
  9 10  2  0
  9  8  1  0
 10 11  1  0
 11 12  2  0
 13 12  1  0
 13 14  1  0
 14 15  1  0
 15 16  2  0
 17 16  1  0
 18 14  2  0
 18 17  1  0
 19 24  2  0
 20 21  2  0
 20 19  1  0
 21 22  1  0
 22 23  2  0
 24 23  1  0
  4 25  1  0
  5 26  1  0
  6 27  1  0
  9 28  1  0
 10 29  1  0
 11 30  1  0
 12 31  1  0
 15 32  1  0
 16 33  1  0
 17 34  1  0
 19 35  1  0
 20 36  1  0
 23 37  1  0
M  ISO  8  25  14  26  14  27  14  28  14  29  14  30  14  31  14  32  14
M  ISO  5  33  14  34   9  35  14  36  14  37  14
M  END
>  <minimizedAffinity>  (1) 
-5.60510635

>  <minimizedRMSD>  (1) 
6.19750929

$$$$
