
     RDKit          3D

 44 47  0  0  1  0  0  0  0  0999 V2000
   46.8070   31.2190   46.2390 C   0  0  2  0  0  0  0  0  0  0  0  0
   45.6510   30.2510   46.3250 C   0  0  0  0  0  0  0  0  0  0  0  0
   45.1430   30.2470   47.7450 C   0  0  0  0  0  0  0  0  0  0  0  0
   44.8690   31.6090   48.2960 C   0  0  0  0  0  0  0  0  0  0  0  0
   46.0020   32.5620   48.0590 C   0  0  0  0  0  0  0  0  0  0  0  0
   46.3750   32.5840   46.6050 C   0  0  2  0  0  0  0  0  0  0  0  0
   47.5300   31.1580   44.9830 C   0  0  0  0  0  0  0  0  0  0  0  0
   48.0900   29.9110   44.6100 C   0  0  0  0  0  0  0  0  0  0  0  0
   48.8060   29.8660   43.3900 C   0  0  0  0  0  0  0  0  0  0  0  0
   48.9130   31.0290   42.6520 N   0  0  0  0  0  0  0  0  0  0  0  0
   48.3420   32.1840   43.0890 C   0  0  0  0  0  0  0  0  0  0  0  0
   47.6670   32.2420   44.2270 N   0  0  0  0  0  0  0  0  0  0  0  0
   48.5080   33.3800   42.2560 C   0  0  0  0  0  0  0  0  0  0  0  0
   47.9950   33.4700   41.0170 C   0  0  0  0  0  0  0  0  0  0  0  0
   48.1630   34.6090   40.2380 C   0  0  0  0  0  0  0  0  0  0  0  0
   48.8730   35.6510   40.7700 C   0  0  0  0  0  0  0  0  0  0  0  0
   49.3980   35.5680   42.0280 C   0  0  0  0  0  0  0  0  0  0  0  0
   49.2190   34.4390   42.7750 N   0  0  0  0  0  0  0  0  0  0  0  0
   45.2700   32.9920   45.7850 N   0  0  0  0  0  0  0  0  0  0  0  0
   45.1280   34.2640   45.1520 C   0  0  0  0  0  0  0  0  0  0  0  0
   44.5970   35.4410   45.6350 C   0  0  0  0  0  0  0  0  0  0  0  0
   44.6450   36.4180   44.7130 N   0  0  0  0  0  0  0  0  0  0  0  0
   45.2050   35.8730   43.6380 C   0  0  0  0  0  0  0  0  0  0  0  0
   45.4900   34.5990   43.9010 N   0  0  0  0  0  0  0  0  0  0  0  0
   47.5500   30.8993   46.9845 H   0  0  0  0  0  0  0  0  0  0  0  0
   44.8481   30.5686   45.6434 H   0  0  0  0  0  0  0  0  0  0  0  0
   45.9791   29.2415   46.0364 H   0  0  0  0  0  0  0  0  0  0  0  0
   44.2091   29.6666   47.7767 H   0  0  0  0  0  0  0  0  0  0  0  0
   45.9367   29.8061   48.3659 H   0  0  0  0  0  0  0  0  0  0  0  0
   43.9646   32.0092   47.8144 H   0  0  0  0  0  0  0  0  0  0  0  0
   44.7373   31.5097   49.3836 H   0  0  0  0  0  0  0  0  0  0  0  0
   45.6965   33.5720   48.3697 H   0  0  0  0  0  0  0  0  0  0  0  0
   46.8727   32.2323   48.6447 H   0  0  0  0  0  0  0  0  0  0  0  0
   47.1829   33.3118   46.4386 H   0  0  0  0  0  0  0  0  0  0  0  0
   47.9734   29.0174   45.2408 H   0  0  0  0  0  0  0  0  0  0  0  0
   49.2650   28.9301   43.0388 H   0  0  0  0  0  0  0  0  0  0  0  0
   47.4276   32.6206   40.6089 H   0  0  0  0  0  0  0  0  0  0  0  0
   47.7383   34.6709   39.2252 H   0  0  0  0  0  0  0  0  0  0  0  0
   49.0225   36.5657   40.1776 H   0  0  0  0  0  0  0  0  0  0  0  0
   49.9672   36.4138   42.4411 H   0  0  0  0  0  0  0  0  0  0  0  0
   44.5137   32.3078   45.6406 H   0  0  0  0  0  0  0  0  0  0  0  0
   44.1857   35.5650   46.6476 H   0  0  0  0  0  0  0  0  0  0  0  0
   44.3158   37.3883   44.8180 H   0  0  0  0  0  0  0  0  0  0  0  0
   45.4010   36.3896   42.6868 H   0  0  0  0  0  0  0  0  0  0  0  0
  1  2  1  0
  1  6  1  0
  2  3  1  0
  3  4  1  0
  5  4  1  0
  6  5  1  0
  7  1  1  0
  8  7  2  0
  9  8  1  0
 10 11  1  0
 10  9  2  0
 11 12  2  0
 12  7  1  0
 13 18  1  0
 13 11  1  0
 14 13  2  0
 15 16  2  0
 15 14  1  0
 16 17  1  0
 17 18  2  0
 19  6  1  0
 20 21  2  0
 20 19  1  0
 22 21  1  0
 23 24  2  0
 23 22  1  0
 24 20  1  0
  1 25  1  1
  2 26  1  0
  2 27  1  0
  3 28  1  0
  3 29  1  0
  4 30  1  0
  4 31  1  0
  5 32  1  0
  5 33  1  0
  6 34  1  1
  8 35  1  0
  9 36  1  0
 14 37  1  0
 15 38  1  0
 16 39  1  0
 17 40  1  0
 19 41  1  0
 21 42  1  0
 22 43  1  0
 23 44  1  0
M  ISO  8  25  13  26  13  27  13  28  13  29  13  30  13  31  13  32  13
M  ISO  8  33  13  34  13  35  14  36  14  37  14  38  14  39  14  40  14
M  ISO  3  42  14  43   9  44  14
M  END
>  <minimizedAffinity>  (1) 
-6.29565096

>  <minimizedRMSD>  (1) 
4.15399837

$$$$
