
     RDKit          3D

 24 25  0  0  0  0  0  0  0  0999 V2000
   44.2780   35.1100   42.5240 C   0  0  0  0  0  0  0  0  0  0  0  0
   44.2140   33.8380   42.6120 O   0  0  0  0  0  0  0  0  0  0  0  0
   45.1460   35.6930   43.4980 N   0  0  0  0  0  0  0  0  0  0  0  0
   45.6870   34.6270   44.3320 C   0  0  0  0  0  0  0  0  0  0  0  0
   45.2880   34.3630   45.6170 C   0  0  0  0  0  0  0  0  0  0  0  0
   45.9260   33.2960   46.2440 C   0  0  0  0  0  0  0  0  0  0  0  0
   46.8600   32.6280   45.5560 N   0  0  0  0  0  0  0  0  0  0  0  0
   47.2250   32.9160   44.2970 C   0  0  0  0  0  0  0  0  0  0  0  0
   46.6250   33.9470   43.6560 N   0  0  0  0  0  0  0  0  0  0  0  0
   44.2850   35.1820   46.1700 N   0  0  0  0  0  0  0  0  0  0  0  0
   43.5940   35.9120   41.5880 O   0  0  0  0  0  0  0  0  0  0  0  0
   42.4760   35.3710   40.9600 C   0  0  0  0  0  0  0  0  0  0  0  0
   42.1040   34.7470   39.7910 C   0  0  0  0  0  0  0  0  0  0  0  0
   40.7840   34.4950   39.8860 N   0  0  0  0  0  0  0  0  0  0  0  0
   40.3130   34.9340   41.0630 C   0  0  0  0  0  0  0  0  0  0  0  0
   41.3520   35.4730   41.7280 N   0  0  0  0  0  0  0  0  0  0  0  0
   45.3542   36.6971   43.5944 H   0  0  0  0  0  0  0  0  0  0  0  0
   45.6699   33.0102   47.2749 H   0  0  0  0  0  0  0  0  0  0  0  0
   48.0014   32.3223   43.7924 H   0  0  0  0  0  0  0  0  0  0  0  0
   43.9575   35.0165   47.1324 H   0  0  0  0  0  0  0  0  0  0  0  0
   43.8788   35.9466   45.6121 H   0  0  0  0  0  0  0  0  0  0  0  0
   42.7588   34.5012   38.9420 H   0  0  0  0  0  0  0  0  0  0  0  0
   40.2183   34.0323   39.1602 H   0  0  0  0  0  0  0  0  0  0  0  0
   39.2740   34.8663   41.4177 H   0  0  0  0  0  0  0  0  0  0  0  0
  1  2  2  0
  1  3  1  0
  3  4  1  0
  4  5  2  0
  5 10  1  0
  5  6  1  0
  7  6  2  0
  8  7  1  0
  9  8  2  0
  9  4  1  0
 11  1  1  0
 12 11  1  0
 12 16  1  0
 13 14  1  0
 13 12  2  0
 14 15  1  0
 15 16  2  0
  3 17  1  0
  6 18  1  0
  8 19  1  0
 10 20  1  0
 10 21  1  0
 13 22  1  0
 14 23  1  0
 15 24  1  0
M  ISO  5  18  14  19  14  22  14  23   9  24  14
M  END
>  <minimizedAffinity>  (1) 
-4.87941742

>  <minimizedRMSD>  (1) 
0.542158663

$$$$
