
     RDKit          3D

 31 34  0  0  0  0  0  0  0  0999 V2000
   47.1400   33.3670   39.1960 C   0  0  0  0  0  0  0  0  0  0  0  0
   48.4810   33.0860   39.3920 C   0  0  0  0  0  0  0  0  0  0  0  0
   49.0310   33.2990   40.6800 C   0  0  0  0  0  0  0  0  0  0  0  0
   48.1820   33.7710   41.6380 N   0  0  0  0  0  0  0  0  0  0  0  0
   46.8750   34.0320   41.3980 C   0  0  0  0  0  0  0  0  0  0  0  0
   46.3580   33.8320   40.1850 N   0  0  0  0  0  0  0  0  0  0  0  0
   46.0810   34.5230   42.4700 N   0  0  0  0  0  0  0  0  0  0  0  0
   45.1880   35.5410   42.3990 C   0  0  0  0  0  0  0  0  0  0  0  0
   44.6360   35.7060   43.6370 N   0  0  0  0  0  0  0  0  0  0  0  0
   45.2010   34.7840   44.4390 C   0  0  0  0  0  0  0  0  0  0  0  0
   45.0490   34.4710   45.7620 C   0  0  0  0  0  0  0  0  0  0  0  0
   45.7390   33.4910   46.3380 N   0  0  0  0  0  0  0  0  0  0  0  0
   46.6270   32.7540   45.6490 C   0  0  0  0  0  0  0  0  0  0  0  0
   46.7760   33.0630   44.3520 N   0  0  0  0  0  0  0  0  0  0  0  0
   46.1090   34.0330   43.7260 C   0  0  0  0  0  0  0  0  0  0  0  0
   44.1450   35.1710   46.5960 N   0  0  0  0  0  0  0  0  0  0  0  0
   46.5180   33.0710   37.5220 S   0  0  0  0  0  0  0  0  0  0  0  0
   47.7770   32.2310   36.6020 C   0  0  0  0  0  0  0  0  0  0  0  0
   48.5020   33.0420   35.7230 C   0  0  0  0  0  0  0  0  0  0  0  0
   49.4280   32.2700   35.0860 N   0  0  0  0  0  0  0  0  0  0  0  0
   49.2890   31.0150   35.5520 C   0  0  0  0  0  0  0  0  0  0  0  0
   48.2900   30.9930   36.4680 N   0  0  0  0  0  0  0  0  0  0  0  0
   49.1039   32.7069   38.5685 H   0  0  0  0  0  0  0  0  0  0  0  0
   50.0898   33.0941   40.8969 H   0  0  0  0  0  0  0  0  0  0  0  0
   44.9500   36.1306   41.5014 H   0  0  0  0  0  0  0  0  0  0  0  0
   47.1997   31.9427   46.1221 H   0  0  0  0  0  0  0  0  0  0  0  0
   44.0534   34.9113   47.5885 H   0  0  0  0  0  0  0  0  0  0  0  0
   43.5787   35.9401   46.2105 H   0  0  0  0  0  0  0  0  0  0  0  0
   48.3507   34.1209   35.5711 H   0  0  0  0  0  0  0  0  0  0  0  0
   50.1072   32.5879   34.3799 H   0  0  0  0  0  0  0  0  0  0  0  0
   49.8890   30.1475   35.2400 H   0  0  0  0  0  0  0  0  0  0  0  0
  1  2  2  0
  1  6  1  0
  2  3  1  0
  3  4  2  0
  5  4  1  0
  5  7  1  0
  6  5  2  0
  7 15  1  0
  8  7  1  0
  8  9  2  0
  9 10  1  0
 10 11  2  0
 11 12  1  0
 11 16  1  0
 13 12  2  0
 14 13  1  0
 15 14  2  0
 15 10  1  0
 17  1  1  0
 18 17  1  0
 19 18  2  0
 20 21  1  0
 20 19  1  0
 21 22  2  0
 22 18  1  0
  2 23  1  0
  3 24  1  0
  8 25  1  0
 13 26  1  0
 16 27  1  0
 16 28  1  0
 19 29  1  0
 20 30  1  0
 21 31  1  0
M  ISO  7  23  14  24  14  25  14  26  14  29  14  30   9  31  14
M  END
>  <minimizedAffinity>  (1) 
-5.89930582

>  <minimizedRMSD>  (1) 
1.38577831

$$$$
