
     RDKit          3D

 27 29  0  0  0  0  0  0  0  0999 V2000
   45.9920   32.8070   47.0490 C   0  0  0  0  0  0  0  0  0  0  0  0
   47.2480   32.4000   47.4320 C   0  0  0  0  0  0  0  0  0  0  0  0
   47.4700   31.5840   48.5240 C   0  0  0  0  0  0  0  0  0  0  0  0
   46.3970   31.1430   49.2830 C   0  0  0  0  0  0  0  0  0  0  0  0
   45.1170   31.5310   48.9290 C   0  0  0  0  0  0  0  0  0  0  0  0
   44.9400   32.3480   47.8290 C   0  0  0  0  0  0  0  0  0  0  0  0
   44.5940   35.4660   44.9720 C   0  0  0  0  0  0  0  0  0  0  0  0
   45.2950   35.3390   43.7670 C   0  0  0  0  0  0  0  0  0  0  0  0
   46.2700   34.3170   43.6630 C   0  0  0  0  0  0  0  0  0  0  0  0
   46.4770   33.5060   44.7470 N   0  0  0  0  0  0  0  0  0  0  0  0
   45.7750   33.6640   45.8980 C   0  0  0  0  0  0  0  0  0  0  0  0
   44.8420   34.6440   45.9940 N   0  0  0  0  0  0  0  0  0  0  0  0
   48.8250   31.1800   48.8880 C   0  0  0  0  0  0  0  0  0  0  0  0
   49.3870   29.9430   48.6580 C   0  0  0  0  0  0  0  0  0  0  0  0
   50.6590   29.9530   49.1380 N   0  0  0  0  0  0  0  0  0  0  0  0
   50.8570   31.2010   49.6550 C   0  0  0  0  0  0  0  0  0  0  0  0
   49.7510   31.9250   49.4990 N   0  0  0  0  0  0  0  0  0  0  0  0
   48.1134   32.7388   46.8435 H   0  0  0  0  0  0  0  0  0  0  0  0
   46.5611   30.4931   50.1552 H   0  0  0  0  0  0  0  0  0  0  0  0
   44.2505   31.1930   49.5164 H   0  0  0  0  0  0  0  0  0  0  0  0
   43.9170   32.6488   47.5588 H   0  0  0  0  0  0  0  0  0  0  0  0
   43.8310   36.2512   45.0777 H   0  0  0  0  0  0  0  0  0  0  0  0
   45.0939   36.0152   42.9230 H   0  0  0  0  0  0  0  0  0  0  0  0
   46.8458   34.1783   42.7360 H   0  0  0  0  0  0  0  0  0  0  0  0
   48.8907   29.0918   48.1690 H   0  0  0  0  0  0  0  0  0  0  0  0
   51.3357   29.1768   49.1161 H   0  0  0  0  0  0  0  0  0  0  0  0
   51.7860   31.5534   50.1270 H   0  0  0  0  0  0  0  0  0  0  0  0
  1  2  2  0
  1  6  1  0
  2  3  1  0
  3 13  1  0
  3  4  2  0
  5  4  1  0
  6  5  2  0
  7 12  2  0
  8  7  1  0
  9  8  2  0
  9 10  1  0
 10 11  2  0
 11 12  1  0
 11  1  1  0
 13 17  1  0
 14 13  2  0
 14 15  1  0
 15 16  1  0
 17 16  2  0
  2 18  1  0
  4 19  1  0
  5 20  1  0
  6 21  1  0
  7 22  1  0
  8 23  1  0
  9 24  1  0
 14 25  1  0
 15 26  1  0
 16 27  1  0
M  ISO  8  18  14  19  14  20  14  21  14  22  14  23  14  24  14  25  14
M  ISO  2  26   9  27  14
M  END
>  <minimizedAffinity>  (1) 
-5.51095915

>  <minimizedRMSD>  (1) 
0.759517074

$$$$
