
     RDKit          3D

 20 21  0  0  0  0  0  0  0  0999 V2000
   46.9260   34.8950   42.1690 C   0  0  0  0  0  0  0  0  0  0  0  0
   47.9770   35.5540   41.9330 O   0  0  0  0  0  0  0  0  0  0  0  0
   46.1860   34.8570   43.3820 C   0  0  0  0  0  0  0  0  0  0  0  0
   45.2650   35.8770   43.5070 C   0  0  0  0  0  0  0  0  0  0  0  0
   44.4900   35.9150   44.6760 C   0  0  0  0  0  0  0  0  0  0  0  0
   44.6910   34.9460   45.6180 N   0  0  0  0  0  0  0  0  0  0  0  0
   45.6060   33.9710   45.4470 C   0  0  0  0  0  0  0  0  0  0  0  0
   46.3560   33.9240   44.3290 N   0  0  0  0  0  0  0  0  0  0  0  0
   46.4140   34.1010   41.1310 O   0  0  0  0  0  0  0  0  0  0  0  0
   47.0990   33.9900   39.9120 C   0  0  0  0  0  0  0  0  0  0  0  0
   48.3000   34.4540   39.4810 C   0  0  0  0  0  0  0  0  0  0  0  0
   48.4940   34.0610   38.2020 N   0  0  0  0  0  0  0  0  0  0  0  0
   47.4140   33.3440   37.8150 C   0  0  0  0  0  0  0  0  0  0  0  0
   46.5650   33.3020   38.8600 N   0  0  0  0  0  0  0  0  0  0  0  0
   45.1427   36.6336   42.7180 H   0  0  0  0  0  0  0  0  0  0  0  0
   43.7399   36.7046   44.8301 H   0  0  0  0  0  0  0  0  0  0  0  0
   45.7414   33.2073   46.2270 H   0  0  0  0  0  0  0  0  0  0  0  0
   49.0031   35.0540   40.0774 H   0  0  0  0  0  0  0  0  0  0  0  0
   49.3198   34.2708   37.6233 H   0  0  0  0  0  0  0  0  0  0  0  0
   47.2580   32.8810   36.8294 H   0  0  0  0  0  0  0  0  0  0  0  0
  1  3  1  0
  2  1  2  0
  3  4  2  0
  3  8  1  0
  4  5  1  0
  5  6  2  0
  7  6  1  0
  8  7  2  0
  9  1  1  0
 10  9  1  0
 11 10  2  0
 12 11  1  0
 13 12  1  0
 13 14  2  0
 14 10  1  0
  4 15  1  0
  5 16  1  0
  7 17  1  0
 11 18  1  0
 12 19  1  0
 13 20  1  0
M  ISO  6  15  14  16  14  17  14  18  14  19   9  20  14
M  END
>  <minimizedAffinity>  (1) 
-4.11722231

>  <minimizedRMSD>  (1) 
0.382955849

$$$$
