
     RDKit          3D

 37 40  0  0  1  0  0  0  0  0999 V2000
   48.0510   33.2380   43.1920 N   0  0  0  0  0  0  0  0  0  0  0  0
   49.2190   33.2900   42.4350 C   0  0  0  0  0  0  0  0  0  0  0  0
   50.3770   32.8660   42.6800 O   0  0  0  0  0  0  0  0  0  0  0  0
   46.2840   32.0980   44.4830 C   0  0  1  0  0  0  0  0  0  0  0  0
   46.4310   31.3650   43.3020 C   0  0  0  0  0  0  0  0  0  0  0  0
   47.6580   32.0940   43.9340 C   0  0  1  0  0  0  0  0  0  0  0  0
   45.0510   33.9830   43.1740 C   0  0  0  0  0  0  0  0  0  0  0  0
   45.5400   33.4420   44.4080 C   0  0  0  0  0  0  0  0  0  0  0  0
   45.3430   34.1880   45.5560 C   0  0  0  0  0  0  0  0  0  0  0  0
   44.7070   35.3760   45.4600 N   0  0  0  0  0  0  0  0  0  0  0  0
   44.2510   35.8760   44.2820 C   0  0  0  0  0  0  0  0  0  0  0  0
   44.4340   35.1450   43.1050 N   0  0  0  0  0  0  0  0  0  0  0  0
   49.1810   33.9480   41.0670 C   0  0  2  0  0  0  0  0  0  0  0  0
   48.6520   35.4260   41.0130 C   0  0  0  0  0  0  0  0  0  0  0  0
   47.9100   34.2820   40.4130 C   0  0  1  0  0  0  0  0  0  0  0  0
   47.8650   34.1790   38.9050 C   0  0  0  0  0  0  0  0  0  0  0  0
   48.6370   34.8470   38.2310 O   0  0  0  0  0  0  0  0  0  0  0  0
   46.8970   33.2820   38.2710 C   0  0  0  0  0  0  0  0  0  0  0  0
   46.2160   32.1960   38.7840 C   0  0  0  0  0  0  0  0  0  0  0  0
   45.4160   31.6420   37.8620 N   0  0  0  0  0  0  0  0  0  0  0  0
   45.5870   32.3900   36.7320 C   0  0  0  0  0  0  0  0  0  0  0  0
   46.4770   33.3660   36.9970 N   0  0  0  0  0  0  0  0  0  0  0  0
   47.4436   34.0695   43.2143 H   0  0  0  0  0  0  0  0  0  0  0  0
   45.8585   31.8298   45.4613 H   0  0  0  0  0  0  0  0  0  0  0  0
   45.9921   31.7371   42.3645 H   0  0  0  0  0  0  0  0  0  0  0  0
   46.2120   30.3322   42.9932 H   0  0  0  0  0  0  0  0  0  0  0  0
   48.6595   31.8559   44.3218 H   0  0  0  0  0  0  0  0  0  0  0  0
   45.1965   33.4058   42.2490 H   0  0  0  0  0  0  0  0  0  0  0  0
   45.6980   33.8204   46.5301 H   0  0  0  0  0  0  0  0  0  0  0  0
   43.7409   36.8502   44.2547 H   0  0  0  0  0  0  0  0  0  0  0  0
   50.0739   33.3906   40.7478 H   0  0  0  0  0  0  0  0  0  0  0  0
   48.2774   35.9176   41.9229 H   0  0  0  0  0  0  0  0  0  0  0  0
   49.0371   36.3944   40.6609 H   0  0  0  0  0  0  0  0  0  0  0  0
   46.8787   33.9170   40.5281 H   0  0  0  0  0  0  0  0  0  0  0  0
   46.3170   31.8320   39.8171 H   0  0  0  0  0  0  0  0  0  0  0  0
   44.8014   30.8240   37.9808 H   0  0  0  0  0  0  0  0  0  0  0  0
   45.0832   32.2236   35.7684 H   0  0  0  0  0  0  0  0  0  0  0  0
  1  6  1  0
  2  3  2  0
  2  1  1  0
  5  6  1  0
  5  4  1  0
  6  4  1  0
  7  8  2  0
  8  4  1  0
  8  9  1  0
 10  9  2  0
 11 10  1  0
 12  7  1  0
 12 11  2  0
 13  2  1  0
 14 13  1  0
 15 14  1  0
 15 13  1  0
 16 15  1  0
 17 16  2  0
 18 19  2  0
 18 16  1  0
 20 19  1  0
 21 22  2  0
 21 20  1  0
 22 18  1  0
  1 23  1  0
  4 24  1  1
  5 25  1  0
  5 26  1  0
  6 27  1  1
  7 28  1  0
  9 29  1  0
 11 30  1  0
 13 31  1  6
 14 32  1  0
 14 33  1  0
 15 34  1  1
 19 35  1  0
 20 36  1  0
 21 37  1  0
M  ISO  8  24  13  25  13  26  13  27  13  28  14  29  14  30  14  31  13
M  ISO  6  32  13  33  13  34  13  35  14  36   9  37  14
M  END
>  <minimizedAffinity>  (1) 
-4.75734949

>  <minimizedRMSD>  (1) 
0.365531623

$$$$
