
     RDKit          3D

 38 41  0  0  1  0  0  0  0  0999 V2000
   45.9230   33.5080   45.8220 C   0  0  0  0  0  0  0  0  0  0  0  0
   46.6810   33.6330   44.6510 C   0  0  0  0  0  0  0  0  0  0  0  0
   47.3070   32.4590   44.1370 C   0  0  0  0  0  0  0  0  0  0  0  0
   47.1270   31.2860   44.8180 N   0  0  0  0  0  0  0  0  0  0  0  0
   46.3860   31.2340   45.9370 C   0  0  0  0  0  0  0  0  0  0  0  0
   45.7810   32.3380   46.4460 N   0  0  0  0  0  0  0  0  0  0  0  0
   46.2730   29.9800   46.5530 N   0  0  0  0  0  0  0  0  0  0  0  0
   47.4280   29.2780   47.0100 C   0  0  2  0  0  0  0  0  0  0  0  0
   47.1920   27.8600   47.3870 C   0  0  0  0  0  0  0  0  0  0  0  0
   45.9110   27.5360   47.8950 N   0  0  0  0  0  0  0  0  0  0  0  0
   45.0330   28.6400   48.0410 C   0  0  0  0  0  0  0  0  0  0  0  0
   44.9620   29.3780   46.7350 C   0  0  0  0  0  0  0  0  0  0  0  0
   48.1740   30.0470   48.0430 C   0  0  0  0  0  0  0  0  0  0  0  0
   47.7670   30.8690   49.0610 C   0  0  0  0  0  0  0  0  0  0  0  0
   48.8120   31.3420   49.7570 N   0  0  0  0  0  0  0  0  0  0  0  0
   49.8920   30.8110   49.1720 C   0  0  0  0  0  0  0  0  0  0  0  0
   49.5140   30.0440   48.1560 N   0  0  0  0  0  0  0  0  0  0  0  0
   51.2700   31.0390   49.5790 C   0  0  0  0  0  0  0  0  0  0  0  0
   51.9970   30.2370   50.4690 C   0  0  0  0  0  0  0  0  0  0  0  0
   53.2490   30.6740   50.6660 N   0  0  0  0  0  0  0  0  0  0  0  0
   53.3210   31.7570   49.9000 C   0  0  0  0  0  0  0  0  0  0  0  0
   52.1700   31.9800   49.2610 N   0  0  0  0  0  0  0  0  0  0  0  0
   45.4312   34.3994   46.2385 H   0  0  0  0  0  0  0  0  0  0  0  0
   46.7899   34.6036   44.1449 H   0  0  0  0  0  0  0  0  0  0  0  0
   47.9156   32.4955   43.2215 H   0  0  0  0  0  0  0  0  0  0  0  0
   48.0832   29.2015   46.1298 H   0  0  0  0  0  0  0  0  0  0  0  0
   47.3586   27.2457   46.4898 H   0  0  0  0  0  0  0  0  0  0  0  0
   47.8869   27.6650   48.2172 H   0  0  0  0  0  0  0  0  0  0  0  0
   45.4728   26.8608   47.2524 H   0  0  0  0  0  0  0  0  0  0  0  0
   44.0307   28.2811   48.3178 H   0  0  0  0  0  0  0  0  0  0  0  0
   45.4042   29.3109   48.8297 H   0  0  0  0  0  0  0  0  0  0  0  0
   44.1849   30.1555   46.7753 H   0  0  0  0  0  0  0  0  0  0  0  0
   44.7036   28.7071   45.9025 H   0  0  0  0  0  0  0  0  0  0  0  0
   46.7164   31.1105   49.2799 H   0  0  0  0  0  0  0  0  0  0  0  0
   48.7881   31.9773   50.5674 H   0  0  0  0  0  0  0  0  0  0  0  0
   51.5832   29.3415   50.9556 H   0  0  0  0  0  0  0  0  0  0  0  0
   53.9799   30.2675   51.2672 H   0  0  0  0  0  0  0  0  0  0  0  0
   54.2156   32.3899   49.8043 H   0  0  0  0  0  0  0  0  0  0  0  0
  1  6  2  0
  2  1  1  0
  3  2  2  0
  3  4  1  0
  4  5  2  0
  5  6  1  0
  5  7  1  0
  7 12  1  0
  7  8  1  0
  8  9  1  0
  8 13  1  0
  9 10  1  0
 10 11  1  0
 12 11  1  0
 13 17  1  0
 13 14  2  0
 14 15  1  0
 16 18  1  0
 16 15  1  0
 17 16  2  0
 18 19  2  0
 19 20  1  0
 21 20  1  0
 22 18  1  0
 22 21  2  0
  1 23  1  0
  2 24  1  0
  3 25  1  0
  8 26  1  6
  9 27  1  0
  9 28  1  0
 10 29  1  0
 11 30  1  0
 11 31  1  0
 12 32  1  0
 12 33  1  0
 14 34  1  0
 15 35  1  0
 19 36  1  0
 20 37  1  0
 21 38  1  0
M  ISO  8  23  14  24  14  25  14  26  13  27  13  28  13  29   5  30  13
M  ISO  8  31  13  32  13  33  13  34  14  35   9  36  14  37   9  38  14
M  END
>  <minimizedAffinity>  (1) 
-4.87933826

>  <minimizedRMSD>  (1) 
0.0699636415

$$$$
