
     RDKit          3D

 44 47  0  0  0  0  0  0  0  0999 V2000
   43.7660   34.8730   40.6620 O   0  0  0  0  0  0  0  0  0  0  0  0
   42.9710   32.3010   39.3980 Cl  0  0  0  0  0  0  0  0  0  0  0  0
   41.9080   33.6000   39.9050 C   0  0  0  0  0  0  0  0  0  0  0  0
   42.3750   34.7730   40.4910 C   0  0  0  0  0  0  0  0  0  0  0  0
   41.5020   35.7560   40.8680 C   0  0  0  0  0  0  0  0  0  0  0  0
   40.1360   35.6480   40.6970 C   0  0  0  0  0  0  0  0  0  0  0  0
   39.6370   34.4700   40.1060 C   0  0  0  0  0  0  0  0  0  0  0  0
   37.9130   34.2540   39.8510 Cl  0  0  0  0  0  0  0  0  0  0  0  0
   40.5500   33.5010   39.7380 C   0  0  0  0  0  0  0  0  0  0  0  0
   39.8870   31.3740   41.3030 F   0  0  0  0  0  0  0  0  0  0  0  0
   39.7160   31.2160   39.9480 C   0  0  0  0  0  0  0  0  0  0  0  0
   40.0430   32.2760   39.1260 C   0  0  0  0  0  0  0  0  0  0  0  0
   39.8550   32.0780   37.7550 C   0  0  0  0  0  0  0  0  0  0  0  0
   39.3650   30.8630   37.3050 C   0  0  0  0  0  0  0  0  0  0  0  0
   39.0530   29.8290   38.1920 C   0  0  0  0  0  0  0  0  0  0  0  0
   39.2270   29.9940   39.5580 C   0  0  0  0  0  0  0  0  0  0  0  0
   44.3140   34.3330   41.8260 C   0  0  0  0  0  0  0  0  0  0  0  0
   44.0480   33.1940   42.3630 O   0  0  0  0  0  0  0  0  0  0  0  0
   45.2940   35.0680   42.5680 N   0  0  0  0  0  0  0  0  0  0  0  0
   45.6550   34.3070   43.7500 C   0  0  0  0  0  0  0  0  0  0  0  0
   45.1930   34.5080   45.0130 C   0  0  0  0  0  0  0  0  0  0  0  0
   45.6580   33.6760   46.0000 C   0  0  0  0  0  0  0  0  0  0  0  0
   46.5390   32.7180   45.6450 N   0  0  0  0  0  0  0  0  0  0  0  0
   46.9830   32.5330   44.3960 C   0  0  0  0  0  0  0  0  0  0  0  0
   46.5340   33.3460   43.4090 N   0  0  0  0  0  0  0  0  0  0  0  0
   47.9480   31.4600   44.0980 C   0  0  0  0  0  0  0  0  0  0  0  0
   48.0740   30.2980   44.8010 C   0  0  0  0  0  0  0  0  0  0  0  0
   49.0730   29.6250   44.1750 N   0  0  0  0  0  0  0  0  0  0  0  0
   49.5640   30.3310   43.1150 C   0  0  0  0  0  0  0  0  0  0  0  0
   48.8380   31.4860   43.0890 N   0  0  0  0  0  0  0  0  0  0  0  0
   44.2710   35.5600   45.2010 N   0  0  0  0  0  0  0  0  0  0  0  0
   41.9049   36.6710   41.3267 H   0  0  0  0  0  0  0  0  0  0  0  0
   39.4590   36.4557   41.0120 H   0  0  0  0  0  0  0  0  0  0  0  0
   40.0939   32.8794   37.0404 H   0  0  0  0  0  0  0  0  0  0  0  0
   39.2182   30.7086   36.2258 H   0  0  0  0  0  0  0  0  0  0  0  0
   38.6659   28.8756   37.8031 H   0  0  0  0  0  0  0  0  0  0  0  0
   38.9892   29.1992   40.2803 H   0  0  0  0  0  0  0  0  0  0  0  0
   45.6795   35.9864   42.3057 H   0  0  0  0  0  0  0  0  0  0  0  0
   45.3247   33.7861   47.0425 H   0  0  0  0  0  0  0  0  0  0  0  0
   47.4950   29.9775   45.6797 H   0  0  0  0  0  0  0  0  0  0  0  0
   49.4172   28.6981   44.4636 H   0  0  0  0  0  0  0  0  0  0  0  0
   50.3710   30.0330   42.4295 H   0  0  0  0  0  0  0  0  0  0  0  0
   43.8925   35.7515   46.1396 H   0  0  0  0  0  0  0  0  0  0  0  0
   43.9767   36.1362   44.3996 H   0  0  0  0  0  0  0  0  0  0  0  0
  1 17  1  0
  2  3  1  0
  3  4  2  0
  4  1  1  0
  4  5  1  0
  6  5  2  0
  7  6  1  0
  8  7  1  0
  9  3  1  0
  9  7  2  0
 11 10  1  0
 12  9  1  0
 12 11  2  0
 13 12  1  0
 14 13  2  0
 14 15  1  0
 15 16  2  0
 16 11  1  0
 17 18  2  0
 17 19  1  0
 19 20  1  0
 20 21  2  0
 21 31  1  0
 21 22  1  0
 23 22  2  0
 24 23  1  0
 25 20  1  0
 25 24  2  0
 26 24  1  0
 26 27  2  0
 28 27  1  0
 29 28  1  0
 30 29  2  0
 30 26  1  0
  5 32  1  0
  6 33  1  0
 13 34  1  0
 14 35  1  0
 15 36  1  0
 16 37  1  0
 19 38  1  0
 22 39  1  0
 27 40  1  0
 28 41  1  0
 29 42  1  0
 31 43  1  0
 31 44  1  0
M  ISO  8  32  14  33  14  34  14  35  14  36  14  37  14  39  14  40  14
M  ISO  2  41   9  42  14
M  END
>  <minimizedAffinity>  (1) 
-6.27231359

>  <minimizedRMSD>  (1) 
0.433671504

$$$$
