
     RDKit          3D

 46 49  0  0  1  0  0  0  0  0999 V2000
   48.0520   33.3890   42.3960 C   0  0  1  0  0  0  0  0  0  0  0  0
   46.5840   33.7230   42.1350 C   0  0  2  0  0  0  0  0  0  0  0  0
   46.4340   34.6430   41.1380 O   0  0  0  0  0  0  0  0  0  0  0  0
   46.7900   34.0470   39.9560 C   0  0  0  0  0  0  0  0  0  0  0  0
   48.2710   33.8390   39.9310 C   0  0  2  0  0  0  0  0  0  0  0  0
   48.8610   33.2180   41.1840 C   0  0  2  0  0  0  0  0  0  0  0  0
   44.6180   35.8520   44.5780 C   0  0  0  0  0  0  0  0  0  0  0  0
   45.2040   35.4230   43.3800 C   0  0  0  0  0  0  0  0  0  0  0  0
   45.9450   34.1950   43.3740 C   0  0  0  0  0  0  0  0  0  0  0  0
   46.0510   33.5010   44.5170 N   0  0  0  0  0  0  0  0  0  0  0  0
   45.4610   33.9580   45.6690 C   0  0  0  0  0  0  0  0  0  0  0  0
   44.7510   35.1230   45.6940 N   0  0  0  0  0  0  0  0  0  0  0  0
   48.6270   34.2580   43.3120 O   0  0  0  0  0  0  0  0  0  0  0  0
   48.8150   35.1190   39.7180 O   0  0  0  0  0  0  0  0  0  0  0  0
   49.2020   31.8770   40.9200 O   0  0  0  0  0  0  0  0  0  0  0  0
   51.3610   32.5470   41.6130 N   0  0  0  0  0  0  0  0  0  0  0  0
   51.0720   31.9350   42.9310 C   0  0  0  0  0  0  0  0  0  0  0  0
   51.5750   30.5370   42.6600 C   0  0  0  0  0  0  0  0  0  0  0  0
   50.9650   30.2860   41.2710 C   0  0  0  0  0  0  0  0  0  0  0  0
   50.5630   31.6920   40.7790 C   0  0  1  0  0  0  0  0  0  0  0  0
   51.0270   31.6790   39.3450 C   0  0  0  0  0  0  0  0  0  0  0  0
   50.2280   31.7060   38.2020 C   0  0  0  0  0  0  0  0  0  0  0  0
   50.9340   31.6390   37.0760 N   0  0  0  0  0  0  0  0  0  0  0  0
   52.2000   31.5690   37.5050 C   0  0  0  0  0  0  0  0  0  0  0  0
   52.2690   31.5910   38.8440 N   0  0  0  0  0  0  0  0  0  0  0  0
   48.0450   32.3905   42.8575 H   0  0  0  0  0  0  0  0  0  0  0  0
   46.0885   32.8000   41.7995 H   0  0  0  0  0  0  0  0  0  0  0  0
   46.2814   33.0757   39.8669 H   0  0  0  0  0  0  0  0  0  0  0  0
   46.4953   34.6926   39.1155 H   0  0  0  0  0  0  0  0  0  0  0  0
   48.5157   33.1104   39.1441 H   0  0  0  0  0  0  0  0  0  0  0  0
   49.7762   33.7769   41.4290 H   0  0  0  0  0  0  0  0  0  0  0  0
   44.0463   36.7914   44.6024 H   0  0  0  0  0  0  0  0  0  0  0  0
   45.0977   36.0173   42.4605 H   0  0  0  0  0  0  0  0  0  0  0  0
   45.5629   33.3713   46.5938 H   0  0  0  0  0  0  0  0  0  0  0  0
   48.4237   33.9508   44.2309 H   0  0  0  0  0  0  0  0  0  0  0  0
   48.9979   35.5492   40.5907 H   0  0  0  0  0  0  0  0  0  0  0  0
   51.0502   33.5279   41.5677 H   0  0  0  0  0  0  0  0  0  0  0  0
   51.6300   32.4235   43.7435 H   0  0  0  0  0  0  0  0  0  0  0  0
   50.0261   32.0042   43.2648 H   0  0  0  0  0  0  0  0  0  0  0  0
   52.6740   30.4984   42.6342 H   0  0  0  0  0  0  0  0  0  0  0  0
   51.2999   29.7942   43.4232 H   0  0  0  0  0  0  0  0  0  0  0  0
   51.7050   29.8323   40.5953 H   0  0  0  0  0  0  0  0  0  0  0  0
   50.1141   29.5896   41.3023 H   0  0  0  0  0  0  0  0  0  0  0  0
   49.1305   31.7753   38.2286 H   0  0  0  0  0  0  0  0  0  0  0  0
   50.5886   31.6406   36.1056 H   0  0  0  0  0  0  0  0  0  0  0  0
   53.0749   31.5018   36.8417 H   0  0  0  0  0  0  0  0  0  0  0  0
  1 13  1  0
  2  1  1  0
  2  9  1  0
  3  2  1  0
  4  3  1  0
  5  4  1  0
  5  6  1  0
  6  1  1  0
  7 12  2  0
  8  7  1  0
  9  8  2  0
  9 10  1  0
 10 11  2  0
 11 12  1  0
 14  5  1  0
 15  6  1  0
 16 17  1  0
 18 17  1  0
 19 18  1  0
 20 15  1  6
 20 19  1  0
 20 16  1  0
 21 20  1  0
 22 21  2  0
 23 24  1  0
 23 22  1  0
 24 25  2  0
 25 21  1  0
  1 26  1  1
  2 27  1  6
  4 28  1  0
  4 29  1  0
  5 30  1  6
  6 31  1  1
  7 32  1  0
  8 33  1  0
 11 34  1  0
 13 35  1  0
 14 36  1  0
 16 37  1  0
 17 38  1  0
 17 39  1  0
 18 40  1  0
 18 41  1  0
 19 42  1  0
 19 43  1  0
 22 44  1  0
 23 45  1  0
 24 46  1  0
M  ISO  8  26  13  27  13  28  13  29  13  30  13  31  13  32  14  33  14
M  ISO  8  34  14  35   3  36   3  37   5  38  13  39  13  40  13  41  13
M  ISO  5  42  13  43  13  44  14  45   9  46  14
M  END
>  <minimizedAffinity>  (1) 
-5.91790819

>  <minimizedRMSD>  (1) 
1.03203642

$$$$
