
     RDKit          3D

 38 41  0  0  1  0  0  0  0  0999 V2000
   39.8510   33.3070   42.3590 N   0  0  0  0  0  0  0  0  0  0  0  0
   39.9790   34.4140   41.4060 C   0  0  2  0  0  0  0  0  0  0  0  0
   39.0340   34.2960   40.2650 C   0  0  0  0  0  0  0  0  0  0  0  0
   38.0230   33.2770   40.4820 N   0  0  0  0  0  0  0  0  0  0  0  0
   38.5300   32.0120   40.8780 C   0  0  0  0  0  0  0  0  0  0  0  0
   39.8960   32.0930   41.5110 C   0  0  2  0  0  0  0  0  0  0  0  0
   40.2240   30.8870   42.2730 C   0  0  0  0  0  0  0  0  0  0  0  0
   39.5100   29.7570   42.5400 C   0  0  0  0  0  0  0  0  0  0  0  0
   40.2220   28.8980   43.2920 N   0  0  0  0  0  0  0  0  0  0  0  0
   41.4010   29.4840   43.5070 C   0  0  0  0  0  0  0  0  0  0  0  0
   41.4190   30.6820   42.9010 N   0  0  0  0  0  0  0  0  0  0  0  0
   43.5230   34.3830   40.7330 C   0  0  0  0  0  0  0  0  0  0  0  0
   42.9350   34.3850   39.4620 C   0  0  0  0  0  0  0  0  0  0  0  0
   41.5560   34.4040   39.5800 C   0  0  0  0  0  0  0  0  0  0  0  0
   41.3370   34.4100   40.8930 N   0  0  0  0  0  0  0  0  0  0  0  0
   42.4810   34.3980   41.5650 N   0  0  0  0  0  0  0  0  0  0  0  0
   47.2420   33.8680   40.5450 C   0  0  0  0  0  0  0  0  0  0  0  0
   45.8660   33.7740   40.1540 C   0  0  0  0  0  0  0  0  0  0  0  0
   44.9610   34.3790   40.9900 C   0  0  0  0  0  0  0  0  0  0  0  0
   45.3970   35.0150   42.1070 N   0  0  0  0  0  0  0  0  0  0  0  0
   46.6970   35.0920   42.4570 C   0  0  0  0  0  0  0  0  0  0  0  0
   47.5970   34.5120   41.6640 N   0  0  0  0  0  0  0  0  0  0  0  0
   40.6307   33.3120   43.0320 H   0  0  0  0  0  0  0  0  0  0  0  0
   39.7416   35.3500   41.9328 H   0  0  0  0  0  0  0  0  0  0  0  0
   39.6043   34.0397   39.3600 H   0  0  0  0  0  0  0  0  0  0  0  0
   38.5174   35.2613   40.1584 H   0  0  0  0  0  0  0  0  0  0  0  0
   37.3840   33.6109   41.2176 H   0  0  0  0  0  0  0  0  0  0  0  0
   37.8336   31.5677   41.6043 H   0  0  0  0  0  0  0  0  0  0  0  0
   38.6256   31.3986   39.9699 H   0  0  0  0  0  0  0  0  0  0  0  0
   40.6941   32.1582   40.7568 H   0  0  0  0  0  0  0  0  0  0  0  0
   38.4850   29.5715   42.1866 H   0  0  0  0  0  0  0  0  0  0  0  0
   39.9182   27.9747   43.6328 H   0  0  0  0  0  0  0  0  0  0  0  0
   42.2287   29.0532   44.0895 H   0  0  0  0  0  0  0  0  0  0  0  0
   43.4873   34.3732   38.5107 H   0  0  0  0  0  0  0  0  0  0  0  0
   40.8099   34.4123   38.7717 H   0  0  0  0  0  0  0  0  0  0  0  0
   48.0171   33.4046   39.9169 H   0  0  0  0  0  0  0  0  0  0  0  0
   45.5543   33.2487   39.2392 H   0  0  0  0  0  0  0  0  0  0  0  0
   47.0058   35.6190   43.3718 H   0  0  0  0  0  0  0  0  0  0  0  0
  2  1  1  0
  3  4  1  0
  3  2  1  0
  4  5  1  0
  5  6  1  0
  6  7  1  0
  6  1  1  0
  7  8  2  0
  7 11  1  0
  8  9  1  0
  9 10  1  0
 11 10  2  0
 12 19  1  0
 12 16  2  0
 13 14  2  0
 13 12  1  0
 14 15  1  0
 15  2  1  0
 15 16  1  0
 17 22  2  0
 18 17  1  0
 18 19  2  0
 19 20  1  0
 20 21  2  0
 22 21  1  0
  1 23  1  0
  2 24  1  1
  3 25  1  0
  3 26  1  0
  4 27  1  0
  5 28  1  0
  5 29  1  0
  6 30  1  6
  8 31  1  0
  9 32  1  0
 10 33  1  0
 13 34  1  0
 14 35  1  0
 17 36  1  0
 18 37  1  0
 21 38  1  0
M  ISO  8  23   5  24  13  25  13  26  13  27   5  28  13  29  13  30  13
M  ISO  8  31  14  32   9  33  14  34  14  35  14  36  14  37  14  38  14
M  END
>  <minimizedAffinity>  (1) 
-6.07133818

>  <minimizedRMSD>  (1) 
5.01871252

$$$$
