
     RDKit          3D

 19 20  0  0  0  0  0  0  0  0999 V2000
   46.1760   34.7980   43.3000 C   0  0  0  0  0  0  0  0  0  0  0  0
   45.2570   35.8540   43.3280 C   0  0  0  0  0  0  0  0  0  0  0  0
   44.4920   36.0110   44.4840 C   0  0  0  0  0  0  0  0  0  0  0  0
   44.6810   35.1380   45.5070 N   0  0  0  0  0  0  0  0  0  0  0  0
   45.5760   34.1380   45.4340 C   0  0  0  0  0  0  0  0  0  0  0  0
   46.3290   33.9560   44.3390 N   0  0  0  0  0  0  0  0  0  0  0  0
   45.7940   33.1890   46.5220 C   0  0  0  0  0  0  0  0  0  0  0  0
   46.9070   32.3820   46.4010 C   0  0  0  0  0  0  0  0  0  0  0  0
   46.9460   31.5740   47.4940 N   0  0  0  0  0  0  0  0  0  0  0  0
   45.8770   31.8710   48.2810 C   0  0  0  0  0  0  0  0  0  0  0  0
   45.1660   32.8700   47.6800 N   0  0  0  0  0  0  0  0  0  0  0  0
   46.9370   34.6860   42.0810 C   0  0  0  0  0  0  0  0  0  0  0  0
   47.9620   35.3450   41.7740 O   0  0  0  0  0  0  0  0  0  0  0  0
   45.1426   36.5340   42.4710 H   0  0  0  0  0  0  0  0  0  0  0  0
   43.7536   36.8223   44.5649 H   0  0  0  0  0  0  0  0  0  0  0  0
   47.6301   32.3908   45.5722 H   0  0  0  0  0  0  0  0  0  0  0  0
   47.6616   30.8601   47.6919 H   0  0  0  0  0  0  0  0  0  0  0  0
   45.6279   31.3889   49.2378 H   0  0  0  0  0  0  0  0  0  0  0  0
   46.5847   33.9487   41.3446 H   0  0  0  0  0  0  0  0  0  0  0  0
  1  2  2  0
  1  6  1  0
  2  3  1  0
  3  4  2  0
  5  4  1  0
  5  7  1  0
  6  5  2  0
  7 11  1  0
  8  7  2  0
  8  9  1  0
  9 10  1  0
 11 10  2  0
 12  1  1  0
 13 12  2  0
  2 14  1  0
  3 15  1  0
  8 16  1  0
  9 17  1  0
 10 18  1  0
 12 19  1  0
M  ISO  6  14  14  15  14  16  14  17   9  18  14  19   6
M  END
>  <minimizedAffinity>  (1) 
-4.35935497

>  <minimizedRMSD>  (1) 
0.236083567

$$$$
