
     RDKit          3D

 30 32  0  0  0  0  0  0  0  0999 V2000
   47.4900   31.8160   44.8010 Cl  0  0  0  0  0  0  0  0  0  0  0  0
   46.6940   31.9180   46.3630 C   0  0  0  0  0  0  0  0  0  0  0  0
   45.8270   32.9790   46.5770 C   0  0  0  0  0  0  0  0  0  0  0  0
   45.2120   33.0600   47.7780 C   0  0  0  0  0  0  0  0  0  0  0  0
   45.4620   32.0960   48.7490 C   0  0  0  0  0  0  0  0  0  0  0  0
   46.3190   31.0490   48.5330 C   0  0  0  0  0  0  0  0  0  0  0  0
   46.9560   30.9560   47.3040 C   0  0  0  0  0  0  0  0  0  0  0  0
   44.5310   35.8500   44.7280 C   0  0  0  0  0  0  0  0  0  0  0  0
   45.2150   35.8010   43.4880 C   0  0  0  0  0  0  0  0  0  0  0  0
   46.1370   34.7270   43.3400 C   0  0  0  0  0  0  0  0  0  0  0  0
   46.2830   33.8620   44.3660 N   0  0  0  0  0  0  0  0  0  0  0  0
   45.6050   33.9580   45.5220 C   0  0  0  0  0  0  0  0  0  0  0  0
   44.7300   34.9600   45.6890 N   0  0  0  0  0  0  0  0  0  0  0  0
   46.8250   34.7060   42.0490 C   0  0  0  0  0  0  0  0  0  0  0  0
   47.6230   33.5640   41.9950 F   0  0  0  0  0  0  0  0  0  0  0  0
   47.7010   35.7620   42.0380 F   0  0  0  0  0  0  0  0  0  0  0  0
   45.9750   34.6760   40.9660 F   0  0  0  0  0  0  0  0  0  0  0  0
   47.8770   29.8580   47.0280 C   0  0  0  0  0  0  0  0  0  0  0  0
   49.1450   29.7250   47.5470 C   0  0  0  0  0  0  0  0  0  0  0  0
   49.7410   28.6060   47.1000 N   0  0  0  0  0  0  0  0  0  0  0  0
   48.8360   28.0270   46.2880 C   0  0  0  0  0  0  0  0  0  0  0  0
   47.6920   28.7710   46.2270 N   0  0  0  0  0  0  0  0  0  0  0  0
   44.5159   33.8858   47.9868 H   0  0  0  0  0  0  0  0  0  0  0  0
   44.9552   32.1768   49.7220 H   0  0  0  0  0  0  0  0  0  0  0  0
   46.4981   30.2985   49.3170 H   0  0  0  0  0  0  0  0  0  0  0  0
   43.8059   36.6592   44.8995 H   0  0  0  0  0  0  0  0  0  0  0  0
   45.0449   36.5427   42.6937 H   0  0  0  0  0  0  0  0  0  0  0  0
   49.6108   30.4423   48.2387 H   0  0  0  0  0  0  0  0  0  0  0  0
   50.6856   28.2652   47.3290 H   0  0  0  0  0  0  0  0  0  0  0  0
   48.9963   27.0827   45.7471 H   0  0  0  0  0  0  0  0  0  0  0  0
  1  2  1  0
  2  3  2  0
  2  7  1  0
  3  4  1  0
  4  5  2  0
  6  5  1  0
  7  6  2  0
  8 13  2  0
  9  8  1  0
 10  9  2  0
 10 11  1  0
 11 12  2  0
 12 13  1  0
 12  3  1  0
 14 10  1  0
 15 14  1  0
 16 14  1  0
 17 14  1  0
 18  7  1  0
 18 19  2  0
 20 19  1  0
 21 20  1  0
 22 21  2  0
 22 18  1  0
  4 23  1  0
  5 24  1  0
  6 25  1  0
  8 26  1  0
  9 27  1  0
 19 28  1  0
 20 29  1  0
 21 30  1  0
M  ISO  8  23  14  24  14  25  14  26  14  27  14  28  14  29   9  30  14
M  END
>  <minimizedAffinity>  (1) 
-5.84788036

>  <minimizedRMSD>  (1) 
0.394020796

$$$$
