
     RDKit          3D

 26 28  0  0  1  0  0  0  0  0999 V2000
   46.5870   32.4870   46.1850 C   0  0  1  0  0  0  0  0  0  0  0  0
   47.0130   32.7680   47.5890 C   0  0  0  0  0  0  0  0  0  0  0  0
   45.6730   32.1740   47.3320 C   0  0  2  0  0  0  0  0  0  0  0  0
   46.1920   34.7720   43.3360 C   0  0  0  0  0  0  0  0  0  0  0  0
   45.1710   35.6570   43.7570 C   0  0  0  0  0  0  0  0  0  0  0  0
   44.6260   35.4460   45.0400 C   0  0  0  0  0  0  0  0  0  0  0  0
   45.1120   34.4130   45.7850 N   0  0  0  0  0  0  0  0  0  0  0  0
   46.0970   33.6010   45.3090 C   0  0  0  0  0  0  0  0  0  0  0  0
   46.6420   33.7560   44.1170 N   0  0  0  0  0  0  0  0  0  0  0  0
   46.7040   35.0440   42.0270 C   0  0  0  0  0  0  0  0  0  0  0  0
   47.9070   35.3580   41.7700 O   0  0  0  0  0  0  0  0  0  0  0  0
   45.4120   30.7560   47.6870 C   0  0  0  0  0  0  0  0  0  0  0  0
   45.2750   30.3090   49.0030 C   0  0  0  0  0  0  0  0  0  0  0  0
   45.0490   28.9710   48.9260 N   0  0  0  0  0  0  0  0  0  0  0  0
   45.0410   28.5810   47.6260 C   0  0  0  0  0  0  0  0  0  0  0  0
   45.2670   29.6920   46.8710 N   0  0  0  0  0  0  0  0  0  0  0  0
   47.0697   31.9515   45.3542 H   0  0  0  0  0  0  0  0  0  0  0  0
   47.8026   32.1603   48.0551 H   0  0  0  0  0  0  0  0  0  0  0  0
   47.3776   33.6562   48.1258 H   0  0  0  0  0  0  0  0  0  0  0  0
   44.6417   32.4423   47.6049 H   0  0  0  0  0  0  0  0  0  0  0  0
   44.8179   36.4743   43.1110 H   0  0  0  0  0  0  0  0  0  0  0  0
   43.8299   36.0975   45.4295 H   0  0  0  0  0  0  0  0  0  0  0  0
   46.0035   34.9759   41.1816 H   0  0  0  0  0  0  0  0  0  0  0  0
   45.3374   30.9172   49.9175 H   0  0  0  0  0  0  0  0  0  0  0  0
   44.9054   28.3469   49.7327 H   0  0  0  0  0  0  0  0  0  0  0  0
   44.8818   27.5588   47.2520 H   0  0  0  0  0  0  0  0  0  0  0  0
  1  3  1  0
  1  2  1  0
  3  2  1  0
  3 12  1  0
  4  5  2  0
  4  9  1  0
  5  6  1  0
  6  7  2  0
  8  7  1  0
  8  1  1  0
  9  8  2  0
 10  4  1  0
 11 10  2  0
 12 13  2  0
 14 13  1  0
 15 14  1  0
 16 15  2  0
 16 12  1  0
  1 17  1  6
  2 18  1  0
  2 19  1  0
  3 20  1  6
  5 21  1  0
  6 22  1  0
 10 23  1  0
 13 24  1  0
 14 25  1  0
 15 26  1  0
M  ISO  8  17  13  18  13  19  13  20  13  21  14  22  14  23   6  24  14
M  ISO  2  25   9  26  14
M  END
>  <minimizedAffinity>  (1) 
-4.89171696

>  <minimizedRMSD>  (1) 
0.865689754

$$$$
