
     RDKit          3D

 38 40  0  0  0  0  0  0  0  0999 V2000
   45.1730   34.4820   42.2900 C   0  0  0  0  0  0  0  0  0  0  0  0
   46.5070   34.2680   41.9630 C   0  0  0  0  0  0  0  0  0  0  0  0
   47.4330   34.0260   42.9920 C   0  0  0  0  0  0  0  0  0  0  0  0
   46.9570   34.0170   44.2550 N   0  0  0  0  0  0  0  0  0  0  0  0
   45.6640   34.2260   44.5590 C   0  0  0  0  0  0  0  0  0  0  0  0
   44.7980   34.4540   43.5700 N   0  0  0  0  0  0  0  0  0  0  0  0
   48.8400   33.7970   42.6940 C   0  0  0  0  0  0  0  0  0  0  0  0
   49.7980   34.7810   42.6540 C   0  0  0  0  0  0  0  0  0  0  0  0
   50.9290   34.1070   42.3450 N   0  0  0  0  0  0  0  0  0  0  0  0
   50.7190   32.7670   42.1940 C   0  0  0  0  0  0  0  0  0  0  0  0
   49.3970   32.6050   42.4200 N   0  0  0  0  0  0  0  0  0  0  0  0
   45.2780   34.1880   45.9540 C   0  0  0  0  0  0  0  0  0  0  0  0
   44.3900   34.9880   46.3440 O   0  0  0  0  0  0  0  0  0  0  0  0
   45.9490   33.2270   46.7890 N   0  0  0  0  0  0  0  0  0  0  0  0
   44.0640   34.7870   40.9260 S   0  0  0  0  0  0  0  0  0  0  0  0
   42.3260   34.6540   41.3970 C   0  0  0  0  0  0  0  0  0  0  0  0
   41.4510   35.6890   40.7860 C   0  0  0  0  0  0  0  0  0  0  0  0
   42.1050   35.9910   37.8330 Cl  0  0  0  0  0  0  0  0  0  0  0  0
   40.7050   35.1840   38.4470 C   0  0  0  0  0  0  0  0  0  0  0  0
   40.5030   35.1040   39.8170 C   0  0  0  0  0  0  0  0  0  0  0  0
   39.3600   34.4420   40.2300 C   0  0  0  0  0  0  0  0  0  0  0  0
   38.4020   33.8560   39.4070 C   0  0  0  0  0  0  0  0  0  0  0  0
   38.6350   33.9540   38.0500 C   0  0  0  0  0  0  0  0  0  0  0  0
   37.4890   33.2480   36.9230 Cl  0  0  0  0  0  0  0  0  0  0  0  0
   39.7550   34.6010   37.5920 C   0  0  0  0  0  0  0  0  0  0  0  0
   46.8335   34.2878   40.9127 H   0  0  0  0  0  0  0  0  0  0  0  0
   49.6745   35.8596   42.8311 H   0  0  0  0  0  0  0  0  0  0  0  0
   51.8493   34.5564   42.2355 H   0  0  0  0  0  0  0  0  0  0  0  0
   51.4596   31.9929   41.9444 H   0  0  0  0  0  0  0  0  0  0  0  0
   45.7116   33.1589   47.7890 H   0  0  0  0  0  0  0  0  0  0  0  0
   46.6666   32.6073   46.3867 H   0  0  0  0  0  0  0  0  0  0  0  0
   41.9588   33.6644   41.0872 H   0  0  0  0  0  0  0  0  0  0  0  0
   42.2801   34.8022   42.4860 H   0  0  0  0  0  0  0  0  0  0  0  0
   40.8817   36.1895   41.5831 H   0  0  0  0  0  0  0  0  0  0  0  0
   42.0914   36.4038   40.2485 H   0  0  0  0  0  0  0  0  0  0  0  0
   39.1919   34.3719   41.3148 H   0  0  0  0  0  0  0  0  0  0  0  0
   37.5152   33.3470   39.8126 H   0  0  0  0  0  0  0  0  0  0  0  0
   39.9163   34.6661   36.5058 H   0  0  0  0  0  0  0  0  0  0  0  0
  1  6  1  0
  2  1  2  0
  2  3  1  0
  3  4  2  0
  4  5  1  0
  5 12  1  0
  6  5  2  0
  7  3  1  0
  8  7  2  0
  9  8  1  0
 10  9  1  0
 10 11  2  0
 11  7  1  0
 12 13  2  0
 12 14  1  0
 15 16  1  0
 15  1  1  0
 17 16  1  0
 18 19  1  0
 19 20  2  0
 20 21  1  0
 20 17  1  0
 22 21  2  0
 23 22  1  0
 24 23  1  0
 25 23  2  0
 25 19  1  0
  2 26  1  0
  8 27  1  0
  9 28  1  0
 10 29  1  0
 14 30  1  0
 14 31  1  0
 16 32  1  0
 16 33  1  0
 17 34  1  0
 17 35  1  0
 21 36  1  0
 22 37  1  0
 25 38  1  0
M  ISO  8  26  14  27  14  28   9  29  14  32   8  33   8  34   8  35   8
M  ISO  3  36  14  37  14  38  14
M  END
>  <minimizedAffinity>  (1) 
-7.13971424

>  <minimizedRMSD>  (1) 
0.824066997

$$$$
