
     RDKit          3D

 44 46  0  0  1  0  0  0  0  0999 V2000
   46.7270   34.3800   43.6490 N   0  0  0  0  0  0  0  0  0  0  0  0
   46.3360   35.2080   42.5580 C   0  0  0  0  0  0  0  0  0  0  0  0
   44.8440   35.3790   42.3920 C   0  0  0  0  0  0  0  0  0  0  0  0
   44.0560   35.3470   43.6730 C   0  0  0  0  0  0  0  0  0  0  0  0
   44.9640   35.2700   44.8780 C   0  0  0  0  0  0  0  0  0  0  0  0
   45.8150   33.9750   44.6070 C   0  0  2  0  0  0  0  0  0  0  0  0
   47.8590   33.5440   43.3710 C   0  0  0  0  0  0  0  0  0  0  0  0
   47.3900   32.3560   42.5820 C   0  0  0  0  0  0  0  0  0  0  0  0
   50.2240   31.6720   40.2080 C   0  0  0  0  0  0  0  0  0  0  0  0
   49.4670   31.7640   41.3910 C   0  0  0  0  0  0  0  0  0  0  0  0
   48.1850   32.2620   41.3280 C   0  0  0  0  0  0  0  0  0  0  0  0
   47.7180   32.6380   40.1310 N   0  0  0  0  0  0  0  0  0  0  0  0
   48.4530   32.5460   39.0030 C   0  0  0  0  0  0  0  0  0  0  0  0
   49.7070   32.0650   39.0320 N   0  0  0  0  0  0  0  0  0  0  0  0
   46.4150   33.7750   45.8410 O   0  0  0  0  0  0  0  0  0  0  0  0
   45.6940   31.2620   45.3410 O   0  0  0  0  0  0  0  0  0  0  0  0
   46.1700   32.2230   46.4400 P   0  0  2  0  0  0  0  0  0  0  0  0
   44.8430   32.3340   47.5160 O   0  0  0  0  0  0  0  0  0  0  0  0
   47.4760   31.6300   47.2800 O   0  0  0  0  0  0  0  0  0  0  0  0
   47.6540   30.2610   47.4500 C   0  0  0  0  0  0  0  0  0  0  0  0
   46.7040   29.2860   47.7600 C   0  0  0  0  0  0  0  0  0  0  0  0
   47.2750   28.0790   47.8370 N   0  0  0  0  0  0  0  0  0  0  0  0
   48.5770   28.2900   47.5760 C   0  0  0  0  0  0  0  0  0  0  0  0
   48.8320   29.5910   47.3400 N   0  0  0  0  0  0  0  0  0  0  0  0
   46.7794   36.2034   42.7084 H   0  0  0  0  0  0  0  0  0  0  0  0
   46.6923   34.7059   41.6465 H   0  0  0  0  0  0  0  0  0  0  0  0
   44.6634   36.3481   41.9040 H   0  0  0  0  0  0  0  0  0  0  0  0
   44.4996   34.5205   41.7967 H   0  0  0  0  0  0  0  0  0  0  0  0
   43.4474   36.2607   43.7415 H   0  0  0  0  0  0  0  0  0  0  0  0
   43.4171   34.4516   43.6637 H   0  0  0  0  0  0  0  0  0  0  0  0
   45.6087   36.1589   44.9431 H   0  0  0  0  0  0  0  0  0  0  0  0
   44.4141   35.2326   45.8299 H   0  0  0  0  0  0  0  0  0  0  0  0
   45.2999   33.0666   44.2614 H   0  0  0  0  0  0  0  0  0  0  0  0
   48.6022   34.1073   42.7875 H   0  0  0  0  0  0  0  0  0  0  0  0
   48.3236   33.2129   44.3115 H   0  0  0  0  0  0  0  0  0  0  0  0
   47.5289   31.4407   43.1761 H   0  0  0  0  0  0  0  0  0  0  0  0
   46.3235   32.4699   42.3379 H   0  0  0  0  0  0  0  0  0  0  0  0
   51.2489   31.2744   40.2467 H   0  0  0  0  0  0  0  0  0  0  0  0
   49.8937   31.4425   42.3525 H   0  0  0  0  0  0  0  0  0  0  0  0
   48.0189   32.8697   38.0455 H   0  0  0  0  0  0  0  0  0  0  0  0
   45.1718   32.3065   48.4494 H   0  0  0  0  0  0  0  0  0  0  0  0
   45.6336   29.4833   47.9190 H   0  0  0  0  0  0  0  0  0  0  0  0
   46.8164   27.1817   48.0502 H   0  0  0  0  0  0  0  0  0  0  0  0
   49.3398   27.4976   47.5575 H   0  0  0  0  0  0  0  0  0  0  0  0
  1  6  1  0
  2  1  1  0
  3  2  1  0
  3  4  1  0
  4  5  1  0
  6  5  1  0
  6 15  1  0
  7  1  1  0
  8  7  1  0
  9 10  2  0
 11 10  1  0
 11  8  1  0
 12 11  2  0
 13 14  2  0
 13 12  1  0
 14  9  1  0
 15 17  1  0
 17 16  2  0
 17 19  1  0
 17 18  1  0
 19 20  1  0
 20 21  2  0
 21 22  1  0
 23 22  1  0
 24 20  1  0
 24 23  2  0
  2 25  1  0
  2 26  1  0
  3 27  1  0
  3 28  1  0
  4 29  1  0
  4 30  1  0
  5 31  1  0
  5 32  1  0
  6 33  1  6
  7 34  1  0
  7 35  1  0
  8 36  1  0
  8 37  1  0
  9 38  1  0
 10 39  1  0
 13 40  1  0
 18 41  1  0
 21 42  1  0
 22 43  1  0
 23 44  1  0
M  ISO  8  25  13  26  13  27  13  28  13  29  13  30  13  31  13  32  13
M  ISO  8  33  13  34   8  35   8  36   8  37   8  38  14  39  14  40  14
M  ISO  4  41   3  42  14  43   9  44  14
M  END
>  <minimizedAffinity>  (1) 
-4.49949598

>  <minimizedRMSD>  (1) 
1.84259593

$$$$
