
     RDKit          3D

 23 24  0  0  0  0  0  0  0  0999 V2000
   46.4570   33.5190   39.9530 C   0  0  0  0  0  0  0  0  0  0  0  0
   47.7590   33.9340   39.6900 C   0  0  0  0  0  0  0  0  0  0  0  0
   48.3850   34.7500   40.6320 C   0  0  0  0  0  0  0  0  0  0  0  0
   47.6870   35.0950   41.7530 N   0  0  0  0  0  0  0  0  0  0  0  0
   46.4220   34.6750   41.9810 C   0  0  0  0  0  0  0  0  0  0  0  0
   45.8040   33.8840   41.0760 N   0  0  0  0  0  0  0  0  0  0  0  0
   45.6810   35.0440   43.1780 C   0  0  0  0  0  0  0  0  0  0  0  0
   45.3180   34.3160   44.2950 C   0  0  0  0  0  0  0  0  0  0  0  0
   44.6400   35.1120   45.1240 N   0  0  0  0  0  0  0  0  0  0  0  0
   44.5470   36.3410   44.5820 C   0  0  0  0  0  0  0  0  0  0  0  0
   45.1900   36.2720   43.3940 N   0  0  0  0  0  0  0  0  0  0  0  0
   48.3920   33.4970   38.4710 C   0  0  0  0  0  0  0  0  0  0  0  0
   48.4350   34.6540   37.4930 C   0  0  0  0  0  0  0  0  0  0  0  0
   45.9449   32.8742   39.2237 H   0  0  0  0  0  0  0  0  0  0  0  0
   49.4140   35.1061   40.4757 H   0  0  0  0  0  0  0  0  0  0  0  0
   45.5497   33.2553   44.4716 H   0  0  0  0  0  0  0  0  0  0  0  0
   44.2495   34.8307   46.0346 H   0  0  0  0  0  0  0  0  0  0  0  0
   44.0499   37.2209   45.0163 H   0  0  0  0  0  0  0  0  0  0  0  0
   49.4163   33.1598   38.6881 H   0  0  0  0  0  0  0  0  0  0  0  0
   47.8215   32.6637   38.0349 H   0  0  0  0  0  0  0  0  0  0  0  0
   48.4703   35.6027   38.0487 H   0  0  0  0  0  0  0  0  0  0  0  0
   49.3305   34.5662   36.8603 H   0  0  0  0  0  0  0  0  0  0  0  0
   47.5355   34.6329   36.8603 H   0  0  0  0  0  0  0  0  0  0  0  0
  1  6  2  0
  2  1  1  0
  2  3  2  0
  3  4  1  0
  4  5  2  0
  5  7  1  0
  6  5  1  0
  7 11  1  0
  7  8  2  0
  8  9  1  0
 10  9  1  0
 11 10  2  0
 12  2  1  0
 13 12  1  0
  1 14  1  0
  3 15  1  0
  8 16  1  0
  9 17  1  0
 10 18  1  0
 12 19  1  0
 12 20  1  0
 13 21  1  0
 13 22  1  0
 13 23  1  0
M  ISO  8  14  14  15  14  16  14  17   9  18  14  19   8  20   8  21   8
M  ISO  2  22   8  23   8
M  END
>  <minimizedAffinity>  (1) 
-4.25976133

>  <minimizedRMSD>  (1) 
4.5095253

$$$$
