
     RDKit          3D

 36 38  0  0  0  0  0  0  0  0999 V2000
   46.0480   33.9790   41.5940 N   0  0  0  0  0  0  0  0  0  0  0  0
   46.8230   33.0790   40.8210 C   0  0  0  0  0  0  0  0  0  0  0  0
   47.9670   33.9930   40.3580 C   0  0  0  0  0  0  0  0  0  0  0  0
   48.7340   34.6070   41.4710 C   0  0  0  0  0  0  0  0  0  0  0  0
   48.0910   34.6460   42.7950 C   0  0  0  0  0  0  0  0  0  0  0  0
   46.6340   34.3190   42.8820 C   0  0  0  0  0  0  0  0  0  0  0  0
   45.9560   34.4200   44.1450 C   0  0  0  0  0  0  0  0  0  0  0  0
   45.0370   35.3010   44.6500 C   0  0  0  0  0  0  0  0  0  0  0  0
   44.7300   34.9600   45.9110 N   0  0  0  0  0  0  0  0  0  0  0  0
   45.4570   33.8640   46.1940 C   0  0  0  0  0  0  0  0  0  0  0  0
   46.1980   33.5410   45.1180 N   0  0  0  0  0  0  0  0  0  0  0  0
   44.9790   34.7060   41.1890 C   0  0  0  0  0  0  0  0  0  0  0  0
   44.0880   33.8840   40.2920 C   0  0  0  0  0  0  0  0  0  0  0  0
   42.6930   34.2380   40.6120 C   0  0  0  0  0  0  0  0  0  0  0  0
   42.3380   35.4830   41.0720 C   0  0  0  0  0  0  0  0  0  0  0  0
   40.9990   35.7690   41.3560 C   0  0  0  0  0  0  0  0  0  0  0  0
   40.1020   34.7680   41.1520 N   0  0  0  0  0  0  0  0  0  0  0  0
   40.4740   33.5710   40.7050 C   0  0  0  0  0  0  0  0  0  0  0  0
   41.7570   33.3290   40.4450 N   0  0  0  0  0  0  0  0  0  0  0  0
   47.1965   32.2426   41.4301 H   0  0  0  0  0  0  0  0  0  0  0  0
   46.2707   32.5962   40.0014 H   0  0  0  0  0  0  0  0  0  0  0  0
   48.6607   33.3971   39.7466 H   0  0  0  0  0  0  0  0  0  0  0  0
   47.5082   34.8178   39.7931 H   0  0  0  0  0  0  0  0  0  0  0  0
   49.6723   34.0426   41.5761 H   0  0  0  0  0  0  0  0  0  0  0  0
   48.8516   35.6623   41.1837 H   0  0  0  0  0  0  0  0  0  0  0  0
   48.6662   34.9083   43.6952 H   0  0  0  0  0  0  0  0  0  0  0  0
   44.6147   36.1579   44.1047 H   0  0  0  0  0  0  0  0  0  0  0  0
   44.0693   35.4415   46.5375 H   0  0  0  0  0  0  0  0  0  0  0  0
   45.4473   33.3200   47.1500 H   0  0  0  0  0  0  0  0  0  0  0  0
   44.4059   35.0284   42.0708 H   0  0  0  0  0  0  0  0  0  0  0  0
   45.3373   35.5814   40.6275 H   0  0  0  0  0  0  0  0  0  0  0  0
   44.2555   32.8124   40.4755 H   0  0  0  0  0  0  0  0  0  0  0  0
   44.3076   34.0884   39.2337 H   0  0  0  0  0  0  0  0  0  0  0  0
   43.1077   36.2554   41.2170 H   0  0  0  0  0  0  0  0  0  0  0  0
   40.6865   36.7564   41.7266 H   0  0  0  0  0  0  0  0  0  0  0  0
   39.7225   32.7827   40.5506 H   0  0  0  0  0  0  0  0  0  0  0  0
  1  6  1  0
  2  1  1  0
  3  2  1  0
  3  4  1  0
  4  5  1  0
  5  6  2  0
  6  7  1  0
  7  8  2  0
  7 11  1  0
  8  9  1  0
  9 10  1  0
 11 10  2  0
 12  1  1  0
 13 14  1  0
 13 12  1  0
 14 15  2  0
 15 16  1  0
 17 16  2  0
 18 17  1  0
 19 14  1  0
 19 18  2  0
  2 20  1  0
  2 21  1  0
  3 22  1  0
  3 23  1  0
  4 24  1  0
  4 25  1  0
  5 26  1  0
  8 27  1  0
  9 28  1  0
 10 29  1  0
 12 30  1  0
 12 31  1  0
 13 32  1  0
 13 33  1  0
 15 34  1  0
 16 35  1  0
 18 36  1  0
M  ISO  8  20  13  21  13  22  13  23  13  24  13  25  13  26  13  27  14
M  ISO  8  28   9  29  14  30   8  31   8  32   8  33   8  34  14  35  14
M  ISO  1  36  14
M  END
>  <minimizedAffinity>  (1) 
-4.94501257

>  <minimizedRMSD>  (1) 
4.45891428

$$$$
