
     RDKit          3D

 41 43  0  0  1  0  0  0  0  0999 V2000
   45.7750   31.2650   46.6290 C   0  0  2  0  0  0  0  0  0  0  0  0
   45.7870   30.5260   47.9290 C   0  0  0  0  0  0  0  0  0  0  0  0
   45.0130   29.2720   47.7360 C   0  0  0  0  0  0  0  0  0  0  0  0
   44.3680   29.1090   46.4000 C   0  0  0  0  0  0  0  0  0  0  0  0
   45.4020   29.2340   45.3090 C   0  0  0  0  0  0  0  0  0  0  0  0
   46.3050   30.3490   45.5460 C   0  0  2  0  0  0  0  0  0  0  0  0
   47.5890   29.7230   45.9750 C   0  0  0  0  0  0  0  0  0  0  0  0
   48.5540   29.9200   44.8340 C   0  0  0  0  0  0  0  0  0  0  0  0
   48.1480   30.8030   43.8270 C   0  0  0  0  0  0  0  0  0  0  0  0
   49.1370   30.8410   42.9100 N   0  0  0  0  0  0  0  0  0  0  0  0
   50.1290   30.0190   43.3140 C   0  0  0  0  0  0  0  0  0  0  0  0
   49.7870   29.4630   44.4660 N   0  0  0  0  0  0  0  0  0  0  0  0
   46.4610   32.5780   46.6600 C   0  0  0  0  0  0  0  0  0  0  0  0
   47.3910   32.8400   47.4530 O   0  0  0  0  0  0  0  0  0  0  0  0
   44.5950   35.3460   45.1750 C   0  0  0  0  0  0  0  0  0  0  0  0
   45.1190   35.4630   43.8620 C   0  0  0  0  0  0  0  0  0  0  0  0
   46.1260   34.5680   43.5260 C   0  0  0  0  0  0  0  0  0  0  0  0
   46.4790   33.7040   44.4800 N   0  0  0  0  0  0  0  0  0  0  0  0
   45.9940   33.5910   45.7000 C   0  0  0  0  0  0  0  0  0  0  0  0
   45.0180   34.4450   46.0540 N   0  0  0  0  0  0  0  0  0  0  0  0
   46.6730   34.6720   42.1770 C   0  0  0  0  0  0  0  0  0  0  0  0
   47.3680   33.5160   41.8650 F   0  0  0  0  0  0  0  0  0  0  0  0
   47.5300   35.7240   42.1820 F   0  0  0  0  0  0  0  0  0  0  0  0
   45.6730   34.7860   41.2170 F   0  0  0  0  0  0  0  0  0  0  0  0
   44.7322   31.5355   46.4067 H   0  0  0  0  0  0  0  0  0  0  0  0
   46.8218   30.2884   48.2166 H   0  0  0  0  0  0  0  0  0  0  0  0
   45.3414   31.1379   48.7271 H   0  0  0  0  0  0  0  0  0  0  0  0
   45.6987   28.4251   47.8859 H   0  0  0  0  0  0  0  0  0  0  0  0
   44.1892   29.3130   48.4638 H   0  0  0  0  0  0  0  0  0  0  0  0
   43.8956   28.1173   46.3422 H   0  0  0  0  0  0  0  0  0  0  0  0
   43.6076   29.8929   46.2682 H   0  0  0  0  0  0  0  0  0  0  0  0
   44.8891   29.3892   44.3484 H   0  0  0  0  0  0  0  0  0  0  0  0
   45.9972   28.3091   45.2944 H   0  0  0  0  0  0  0  0  0  0  0  0
   46.4229   30.9716   44.6468 H   0  0  0  0  0  0  0  0  0  0  0  0
   47.9676   30.2136   46.8838 H   0  0  0  0  0  0  0  0  0  0  0  0
   47.4567   28.6563   46.2088 H   0  0  0  0  0  0  0  0  0  0  0  0
   47.2008   31.3611   43.7901 H   0  0  0  0  0  0  0  0  0  0  0  0
   49.1355   31.4028   42.0467 H   0  0  0  0  0  0  0  0  0  0  0  0
   51.0700   29.8400   42.7731 H   0  0  0  0  0  0  0  0  0  0  0  0
   43.7965   36.0379   45.4811 H   0  0  0  0  0  0  0  0  0  0  0  0
   44.7496   36.2178   43.1523 H   0  0  0  0  0  0  0  0  0  0  0  0
  1 13  1  0
  1  2  1  0
  3  2  1  0
  4  3  1  0
  5  6  1  0
  5  4  1  0
  6  7  1  0
  6  1  1  0
  8  7  1  0
  9  8  2  0
 10 11  1  0
 10  9  1  0
 11 12  2  0
 12  8  1  0
 13 14  2  0
 15 20  2  0
 16 15  1  0
 17 16  2  0
 17 18  1  0
 18 19  2  0
 19 20  1  0
 19 13  1  0
 21 23  1  0
 21 17  1  0
 22 21  1  0
 24 21  1  0
  1 25  1  6
  2 26  1  0
  2 27  1  0
  3 28  1  0
  3 29  1  0
  4 30  1  0
  4 31  1  0
  5 32  1  0
  5 33  1  0
  6 34  1  6
  7 35  1  0
  7 36  1  0
  9 37  1  0
 10 38  1  0
 11 39  1  0
 15 40  1  0
 16 41  1  0
M  ISO  8  25  13  26  13  27  13  28  13  29  13  30  13  31  13  32  13
M  ISO  8  33  13  34  13  35   8  36   8  37  14  38   9  39  14  40  14
M  ISO  1  41  14
M  END
>  <minimizedAffinity>  (1) 
-5.23556805

>  <minimizedRMSD>  (1) 
1.10882843

$$$$
