
     RDKit          3D

 31 33  0  0  0  0  0  0  0  0999 V2000
   44.9450   34.3530   42.0910 C   0  0  0  0  0  0  0  0  0  0  0  0
   46.2450   34.3810   41.6940 C   0  0  0  0  0  0  0  0  0  0  0  0
   47.1650   34.1920   43.2810 S   0  0  0  0  0  0  0  0  0  0  0  0
   45.5530   34.1060   44.2290 C   0  0  0  0  0  0  0  0  0  0  0  0
   44.8120   34.2110   43.3690 N   0  0  0  0  0  0  0  0  0  0  0  0
   41.5990   35.1460   40.5740 C   0  0  0  0  0  0  0  0  0  0  0  0
   42.6290   35.0730   41.5320 C   0  0  0  0  0  0  0  0  0  0  0  0
   43.8090   34.4710   41.1560 C   0  0  0  0  0  0  0  0  0  0  0  0
   43.8840   33.9900   39.8720 N   0  0  0  0  0  0  0  0  0  0  0  0
   42.8760   34.0810   38.9910 C   0  0  0  0  0  0  0  0  0  0  0  0
   41.7310   34.6630   39.3500 N   0  0  0  0  0  0  0  0  0  0  0  0
   42.3650   35.6230   42.8090 N   0  0  0  0  0  0  0  0  0  0  0  0
   45.4700   33.9420   45.7230 C   0  0  0  0  0  0  0  0  0  0  0  0
   46.4280   32.9150   46.2250 C   0  0  0  0  0  0  0  0  0  0  0  0
   45.9680   32.1510   47.3940 C   0  0  0  0  0  0  0  0  0  0  0  0
   45.8270   32.3500   48.7430 C   0  0  0  0  0  0  0  0  0  0  0  0
   45.3290   31.2730   49.3520 N   0  0  0  0  0  0  0  0  0  0  0  0
   45.1460   30.3650   48.3820 C   0  0  0  0  0  0  0  0  0  0  0  0
   45.5240   30.8790   47.2090 N   0  0  0  0  0  0  0  0  0  0  0  0
   46.6487   34.4897   40.6765 H   0  0  0  0  0  0  0  0  0  0  0  0
   40.6484   35.6230   40.8547 H   0  0  0  0  0  0  0  0  0  0  0  0
   42.9938   33.6765   37.9749 H   0  0  0  0  0  0  0  0  0  0  0  0
   43.0879   35.5930   43.5421 H   0  0  0  0  0  0  0  0  0  0  0  0
   41.4500   36.0533   43.0053 H   0  0  0  0  0  0  0  0  0  0  0  0
   45.7005   34.9062   46.1997 H   0  0  0  0  0  0  0  0  0  0  0  0
   44.4519   33.6087   45.9728 H   0  0  0  0  0  0  0  0  0  0  0  0
   46.6238   32.2040   45.4089 H   0  0  0  0  0  0  0  0  0  0  0  0
   47.3230   33.4648   46.5515 H   0  0  0  0  0  0  0  0  0  0  0  0
   46.0922   33.2840   49.2601 H   0  0  0  0  0  0  0  0  0  0  0  0
   45.1274   31.1619   50.3559 H   0  0  0  0  0  0  0  0  0  0  0  0
   44.7455   29.3513   48.5302 H   0  0  0  0  0  0  0  0  0  0  0  0
  1  5  1  0
  2  1  2  0
  2  3  1  0
  3  4  1  0
  4 13  1  0
  5  4  2  0
  6  7  2  0
  7 12  1  0
  8  7  1  0
  8  1  1  0
  9  8  2  0
 10 11  2  0
 10  9  1  0
 11  6  1  0
 13 14  1  0
 14 15  1  0
 15 16  2  0
 16 17  1  0
 18 17  1  0
 19 15  1  0
 19 18  2  0
  2 20  1  0
  6 21  1  0
 10 22  1  0
 12 23  1  0
 12 24  1  0
 13 25  1  0
 13 26  1  0
 14 27  1  0
 14 28  1  0
 16 29  1  0
 17 30  1  0
 18 31  1  0
M  ISO  8  20  14  21  14  22  14  25   8  26   8  27   8  28   8  29  14
M  ISO  2  30   9  31  14
M  END
>  <minimizedAffinity>  (1) 
-5.26693964

>  <minimizedRMSD>  (1) 
6.30849028

$$$$
