
     RDKit          3D

 32 34  0  0  0  0  0  0  0  0999 V2000
   47.4500   34.0210   39.4180 C   0  0  0  0  0  0  0  0  0  0  0  0
   46.3120   33.5570   39.8160 O   0  0  0  0  0  0  0  0  0  0  0  0
   47.6460   33.5000   38.0610 C   0  0  0  0  0  0  0  0  0  0  0  0
   48.7420   33.7290   37.1860 C   0  0  0  0  0  0  0  0  0  0  0  0
   48.6760   33.1240   35.9760 C   0  0  0  0  0  0  0  0  0  0  0  0
   47.6390   32.3530   35.6210 C   0  0  0  0  0  0  0  0  0  0  0  0
   46.5330   32.4390   37.1810 S   0  0  0  0  0  0  0  0  0  0  0  0
   47.1950   31.5810   34.5220 C   0  0  0  0  0  0  0  0  0  0  0  0
   45.9150   31.2270   34.1680 C   0  0  0  0  0  0  0  0  0  0  0  0
   46.0840   30.4870   33.0330 N   0  0  0  0  0  0  0  0  0  0  0  0
   47.4070   30.3940   32.7100 C   0  0  0  0  0  0  0  0  0  0  0  0
   48.0960   31.0900   33.6590 N   0  0  0  0  0  0  0  0  0  0  0  0
   48.0390   34.7960   40.3550 O   0  0  0  0  0  0  0  0  0  0  0  0
   49.3840   35.4900   42.4310 O   0  0  0  0  0  0  0  0  0  0  0  0
   48.8040   34.2900   41.7400 P   0  0  2  0  0  0  0  0  0  0  0  0
   50.0590   33.2660   41.3260 O   0  0  0  0  0  0  0  0  0  0  0  0
   47.6830   33.4820   42.7630 O   0  0  0  0  0  0  0  0  0  0  0  0
   46.1320   35.3080   42.7670 C   0  0  0  0  0  0  0  0  0  0  0  0
   46.6680   34.1940   43.4060 C   0  0  0  0  0  0  0  0  0  0  0  0
   46.1660   33.8390   44.6610 C   0  0  0  0  0  0  0  0  0  0  0  0
   45.1730   34.6070   45.1940 N   0  0  0  0  0  0  0  0  0  0  0  0
   44.6800   35.6770   44.5480 C   0  0  0  0  0  0  0  0  0  0  0  0
   45.1590   36.0160   43.3500 N   0  0  0  0  0  0  0  0  0  0  0  0
   49.5947   34.3611   37.4747 H   0  0  0  0  0  0  0  0  0  0  0  0
   49.4999   33.2702   35.2619 H   0  0  0  0  0  0  0  0  0  0  0  0
   44.9746   31.4805   34.6793 H   0  0  0  0  0  0  0  0  0  0  0  0
   45.3181   30.0578   32.4944 H   0  0  0  0  0  0  0  0  0  0  0  0
   47.8354   29.8599   31.8490 H   0  0  0  0  0  0  0  0  0  0  0  0
   50.4858   32.9178   42.1486 H   0  0  0  0  0  0  0  0  0  0  0  0
   46.5103   35.6073   41.7784 H   0  0  0  0  0  0  0  0  0  0  0  0
   46.5599   32.9664   45.2026 H   0  0  0  0  0  0  0  0  0  0  0  0
   43.8795   36.2749   45.0081 H   0  0  0  0  0  0  0  0  0  0  0  0
  1  2  2  0
  1 13  1  0
  3  1  1  0
  4  3  2  0
  5  4  1  0
  6  5  2  0
  6  7  1  0
  7  3  1  0
  8  6  1  0
  9  8  2  0
 10  9  1  0
 11 10  1  0
 11 12  2  0
 12  8  1  0
 13 15  1  0
 15 14  2  0
 15 17  1  0
 16 15  1  0
 17 19  1  0
 18 23  2  0
 18 19  1  0
 19 20  2  0
 20 21  1  0
 22 21  2  0
 23 22  1  0
  4 24  1  0
  5 25  1  0
  9 26  1  0
 10 27  1  0
 11 28  1  0
 16 29  1  0
 18 30  1  0
 20 31  1  0
 22 32  1  0
M  ISO  8  24  14  25  14  26  14  27   9  28  14  29   3  30  14  31  14
M  ISO  1  32  14
M  END
>  <minimizedAffinity>  (1) 
-5.22606039

>  <minimizedRMSD>  (1) 
0.342692405

$$$$
