
     RDKit          3D

 49 53  0  0  1  0  0  0  0  0999 V2000
   47.2390   32.2000   40.8400 C   0  0  1  0  0  0  0  0  0  0  0  0
   46.3700   31.6590   39.7740 C   0  0  0  0  0  0  0  0  0  0  0  0
   47.1300   31.8750   38.4640 C   0  0  0  0  0  0  0  0  0  0  0  0
   47.1320   33.3720   38.2140 C   0  0  0  0  0  0  0  0  0  0  0  0
   47.6770   34.1790   39.3460 C   0  0  0  0  0  0  0  0  0  0  0  0
   47.4340   33.6960   40.7120 C   0  0  1  0  0  0  0  0  0  0  0  0
   45.1820   31.0130   43.7760 C   0  0  0  0  0  0  0  0  0  0  0  0
   45.5980   31.3560   42.4910 C   0  0  0  0  0  0  0  0  0  0  0  0
   46.8620   31.8510   42.2050 C   0  0  0  0  0  0  0  0  0  0  0  0
   47.6920   31.9900   43.2510 N   0  0  0  0  0  0  0  0  0  0  0  0
   47.3040   31.6620   44.5090 C   0  0  0  0  0  0  0  0  0  0  0  0
   46.0920   31.1870   44.7830 N   0  0  0  0  0  0  0  0  0  0  0  0
   46.3630   34.4350   41.4040 C   0  0  0  0  0  0  0  0  0  0  0  0
   46.4890   35.1730   42.5890 C   0  0  0  0  0  0  0  0  0  0  0  0
   45.3250   35.8080   43.0340 C   0  0  0  0  0  0  0  0  0  0  0  0
   44.1740   35.6600   42.2850 C   0  0  0  0  0  0  0  0  0  0  0  0
   44.0700   34.9360   41.1310 C   0  0  0  0  0  0  0  0  0  0  0  0
   45.1960   34.3210   40.7000 N   0  0  0  0  0  0  0  0  0  0  0  0
   42.6990   35.1650   39.0530 C   0  0  0  0  0  0  0  0  0  0  0  0
   42.8200   34.8150   40.3790 C   0  0  0  0  0  0  0  0  0  0  0  0
   41.7010   34.3240   41.0220 C   0  0  0  0  0  0  0  0  0  0  0  0
   40.4710   34.1640   40.4190 C   0  0  0  0  0  0  0  0  0  0  0  0
   39.2630   33.7190   40.8200 N   0  0  0  0  0  0  0  0  0  0  0  0
   38.3870   33.7780   39.7960 C   0  0  0  0  0  0  0  0  0  0  0  0
   39.0850   34.2870   38.6970 C   0  0  0  0  0  0  0  0  0  0  0  0
   40.3860   34.5260   39.0890 C   0  0  0  0  0  0  0  0  0  0  0  0
   41.4750   35.0230   38.3990 C   0  0  0  0  0  0  0  0  0  0  0  0
   48.1974   31.6889   40.6663 H   0  0  0  0  0  0  0  0  0  0  0  0
   46.1862   30.5869   39.9374 H   0  0  0  0  0  0  0  0  0  0  0  0
   45.3899   32.1582   39.7595 H   0  0  0  0  0  0  0  0  0  0  0  0
   48.1611   31.5029   38.5561 H   0  0  0  0  0  0  0  0  0  0  0  0
   46.6564   31.3317   37.6330 H   0  0  0  0  0  0  0  0  0  0  0  0
   47.7431   33.5723   37.3215 H   0  0  0  0  0  0  0  0  0  0  0  0
   46.0818   33.6735   38.0866 H   0  0  0  0  0  0  0  0  0  0  0  0
   48.7667   34.2416   39.2093 H   0  0  0  0  0  0  0  0  0  0  0  0
   47.1355   35.1348   39.2902 H   0  0  0  0  0  0  0  0  0  0  0  0
   48.3812   33.9127   41.2277 H   0  0  0  0  0  0  0  0  0  0  0  0
   44.1725   30.6219   43.9711 H   0  0  0  0  0  0  0  0  0  0  0  0
   44.8877   31.2277   41.6609 H   0  0  0  0  0  0  0  0  0  0  0  0
   48.0192   31.7939   45.3343 H   0  0  0  0  0  0  0  0  0  0  0  0
   47.4417   35.2479   43.1337 H   0  0  0  0  0  0  0  0  0  0  0  0
   45.3262   36.4089   43.9554 H   0  0  0  0  0  0  0  0  0  0  0  0
   43.2671   36.1663   42.6471 H   0  0  0  0  0  0  0  0  0  0  0  0
   43.5699   35.5577   38.5077 H   0  0  0  0  0  0  0  0  0  0  0  0
   41.7966   34.0430   42.0812 H   0  0  0  0  0  0  0  0  0  0  0  0
   39.0418   33.3835   41.7684 H   0  0  0  0  0  0  0  0  0  0  0  0
   37.3277   33.4826   39.8209 H   0  0  0  0  0  0  0  0  0  0  0  0
   38.6694   34.4658   37.6944 H   0  0  0  0  0  0  0  0  0  0  0  0
   41.3774   35.3050   37.3403 H   0  0  0  0  0  0  0  0  0  0  0  0
  1  9  1  0
  2  1  1  0
  3  2  1  0
  4  3  1  0
  4  5  1  0
  5  6  1  0
  6  1  1  0
  6 13  1  0
  7 12  2  0
  8  7  1  0
  9  8  2  0
  9 10  1  0
 10 11  2  0
 11 12  1  0
 13 14  2  0
 14 15  1  0
 16 15  2  0
 17 16  1  0
 18 17  2  0
 18 13  1  0
 19 20  2  0
 20 21  1  0
 20 17  1  0
 22 23  1  0
 22 21  2  0
 24 23  1  0
 25 26  1  0
 25 24  2  0
 26 22  1  0
 27 19  1  0
 27 26  2  0
  1 28  1  6
  2 29  1  0
  2 30  1  0
  3 31  1  0
  3 32  1  0
  4 33  1  0
  4 34  1  0
  5 35  1  0
  5 36  1  0
  6 37  1  1
  7 38  1  0
  8 39  1  0
 11 40  1  0
 14 41  1  0
 15 42  1  0
 16 43  1  0
 19 44  1  0
 21 45  1  0
 23 46  1  0
 24 47  1  0
 25 48  1  0
 27 49  1  0
M  ISO  8  28  13  29  13  30  13  31  13  32  13  33  13  34  13  35  13
M  ISO  8  36  13  37  13  38  14  39  14  40  14  41  14  42  14  43  14
M  ISO  6  44  14  45  14  46   9  47  14  48  14  49  14
M  END
>  <minimizedAffinity>  (1) 
-6.53187466

>  <minimizedRMSD>  (1) 
1.52877688

$$$$
