
     RDKit          3D

 49 53  0  0  1  0  0  0  0  0999 V2000
   47.3400   32.7140   43.9330 C   0  0  0  0  0  0  0  0  0  0  0  0
   48.2700   33.2290   43.1350 C   0  0  0  0  0  0  0  0  0  0  0  0
   49.0530   32.3100   42.5100 C   0  0  0  0  0  0  0  0  0  0  0  0
   48.8290   30.9440   42.7420 N   0  0  0  0  0  0  0  0  0  0  0  0
   47.8880   30.5020   43.5470 C   0  0  0  0  0  0  0  0  0  0  0  0
   47.0780   31.3960   44.1970 N   0  0  0  0  0  0  0  0  0  0  0  0
   48.5940   34.5940   42.9620 C   0  0  1  0  0  0  0  0  0  0  0  0
   49.5400   35.1680   42.1710 C   0  0  0  0  0  0  0  0  0  0  0  0
   48.1660   35.3250   41.6580 C   0  0  1  0  0  0  0  0  0  0  0  0
   46.6220   33.8460   40.1370 C   0  0  0  0  0  0  0  0  0  0  0  0
   47.7360   34.5930   40.4660 C   0  0  0  0  0  0  0  0  0  0  0  0
   48.6580   34.6470   39.4080 C   0  0  0  0  0  0  0  0  0  0  0  0
   48.4650   34.0270   38.1890 C   0  0  0  0  0  0  0  0  0  0  0  0
   49.1870   33.9420   37.0580 N   0  0  0  0  0  0  0  0  0  0  0  0
   48.5510   33.2110   36.1470 C   0  0  0  0  0  0  0  0  0  0  0  0
   47.3670   32.7860   36.6710 C   0  0  0  0  0  0  0  0  0  0  0  0
   47.3380   33.3080   37.9420 C   0  0  0  0  0  0  0  0  0  0  0  0
   46.3940   33.2150   38.9390 C   0  0  0  0  0  0  0  0  0  0  0  0
   46.3140   33.4630   44.6890 C   0  0  0  0  0  0  0  0  0  0  0  0
   45.7780   33.8440   45.6910 O   0  0  0  0  0  0  0  0  0  0  0  0
   44.4100   31.7710   42.9470 Cl  0  0  0  0  0  0  0  0  0  0  0  0
   44.5070   33.5170   42.8310 C   0  0  0  0  0  0  0  0  0  0  0  0
   45.4190   34.1480   43.7080 C   0  0  0  0  0  0  0  0  0  0  0  0
   45.3920   35.5110   43.5240 C   0  0  0  0  0  0  0  0  0  0  0  0
   44.6830   36.2650   42.6960 C   0  0  0  0  0  0  0  0  0  0  0  0
   43.8140   35.5870   41.8700 C   0  0  0  0  0  0  0  0  0  0  0  0
   43.7120   34.2180   41.9230 C   0  0  0  0  0  0  0  0  0  0  0  0
   42.8190   33.6700   41.0600 O   0  0  0  0  0  0  0  0  0  0  0  0
   40.5220   33.1220   39.9160 O   0  0  0  0  0  0  0  0  0  0  0  0
   41.1690   33.3370   41.2660 P   0  0  0  0  0  0  0  0  0  0  0  0
   41.0020   31.9700   42.2520 O   0  0  0  0  0  0  0  0  0  0  0  0
   40.3820   34.5890   42.0880 O   0  0  0  0  0  0  0  0  0  0  0  0
   49.8541   32.6338   41.8293 H   0  0  0  0  0  0  0  0  0  0  0  0
   47.7518   29.4209   43.6978 H   0  0  0  0  0  0  0  0  0  0  0  0
   48.4340   34.6556   44.0486 H   0  0  0  0  0  0  0  0  0  0  0  0
   50.0742   36.0559   42.5402 H   0  0  0  0  0  0  0  0  0  0  0  0
   50.4585   34.7724   41.7128 H   0  0  0  0  0  0  0  0  0  0  0  0
   47.4781   36.1363   41.3778 H   0  0  0  0  0  0  0  0  0  0  0  0
   45.8435   33.7471   40.9078 H   0  0  0  0  0  0  0  0  0  0  0  0
   49.5873   35.2158   39.5589 H   0  0  0  0  0  0  0  0  0  0  0  0
   50.1071   34.3828   36.9164 H   0  0  0  0  0  0  0  0  0  0  0  0
   48.9204   32.9861   35.1356 H   0  0  0  0  0  0  0  0  0  0  0  0
   46.6028   32.1625   36.1839 H   0  0  0  0  0  0  0  0  0  0  0  0
   45.4686   32.6425   38.7782 H   0  0  0  0  0  0  0  0  0  0  0  0
   46.0771   36.0720   44.1767 H   0  0  0  0  0  0  0  0  0  0  0  0
   44.7821   37.3602   42.6702 H   0  0  0  0  0  0  0  0  0  0  0  0
   43.1928   36.1497   41.1577 H   0  0  0  0  0  0  0  0  0  0  0  0
   41.0354   32.2430   43.2030 H   0  0  0  0  0  0  0  0  0  0  0  0
   40.4698   34.4493   43.0641 H   0  0  0  0  0  0  0  0  0  0  0  0
  1  6  1  0
  1 19  1  0
  2  1  2  0
  3  4  2  0
  3  2  1  0
  4  5  1  0
  5  6  2  0
  7  2  1  0
  8  7  1  0
  9  8  1  0
  9  7  1  0
 10 11  2  0
 11  9  1  0
 12 11  1  0
 13 12  2  0
 14 13  1  0
 15 16  2  0
 15 14  1  0
 16 17  1  0
 17 13  1  0
 17 18  2  0
 18 10  1  0
 19 20  2  0
 22 21  1  0
 22 23  2  0
 23 19  1  0
 24 23  1  0
 25 24  2  0
 26 27  2  0
 26 25  1  0
 27 22  1  0
 28 30  1  0
 28 27  1  0
 29 30  2  0
 30 32  1  0
 30 31  1  0
  3 33  1  0
  5 34  1  0
  7 35  1  1
  8 36  1  0
  8 37  1  0
  9 38  1  1
 10 39  1  0
 12 40  1  0
 14 41  1  0
 15 42  1  0
 16 43  1  0
 18 44  1  0
 24 45  1  0
 25 46  1  0
 26 47  1  0
 31 48  1  0
 32 49  1  0
M  ISO  8  33  14  34  14  35  13  36  13  37  13  38  13  39  14  40  14
M  ISO  8  41   9  42  14  43  14  44  14  45  14  46  14  47  14  48   3
M  ISO  1  49   3
M  END
>  <minimizedAffinity>  (1) 
-7.32765102

>  <minimizedRMSD>  (1) 
0.550331175

$$$$
