
     RDKit          3D

 44 47  0  0  1  0  0  0  0  0999 V2000
   45.2320   34.7630   43.8110 C   0  0  0  0  0  0  0  0  0  0  0  0
   45.9180   34.2930   42.6930 C   0  0  0  0  0  0  0  0  0  0  0  0
   46.8140   33.2320   42.8170 C   0  0  0  0  0  0  0  0  0  0  0  0
   46.9670   32.7110   44.0350 N   0  0  0  0  0  0  0  0  0  0  0  0
   46.3000   33.1670   45.1170 C   0  0  0  0  0  0  0  0  0  0  0  0
   45.4310   34.1920   45.0170 N   0  0  0  0  0  0  0  0  0  0  0  0
   48.2270   33.8640   40.8750 C   0  0  2  0  0  0  0  0  0  0  0  0
   47.4940   32.7960   41.6080 C   0  0  2  0  0  0  0  0  0  0  0  0
   46.6180   32.3210   40.5890 O   0  0  0  0  0  0  0  0  0  0  0  0
   47.4780   32.0970   39.5400 C   0  0  0  0  0  0  0  0  0  0  0  0
   48.6550   33.0320   39.6480 C   0  0  1  0  0  0  0  0  0  0  0  0
   49.2660   34.4200   41.5560 O   0  0  0  0  0  0  0  0  0  0  0  0
   48.7950   33.8910   38.5590 O   0  0  0  0  0  0  0  0  0  0  0  0
   44.2760   35.9150   43.6530 C   0  0  0  0  0  0  0  0  0  0  0  0
   42.7840   35.4370   41.6170 C   0  0  0  0  0  0  0  0  0  0  0  0
   43.6370   36.0340   40.8710 O   0  0  0  0  0  0  0  0  0  0  0  0
   43.0980   35.3950   42.9920 N   0  0  0  0  0  0  0  0  0  0  0  0
   40.6130   34.1160   41.7370 C   0  0  0  0  0  0  0  0  0  0  0  0
   41.5710   34.8440   41.0690 C   0  0  0  0  0  0  0  0  0  0  0  0
   41.3320   35.0250   39.7020 C   0  0  0  0  0  0  0  0  0  0  0  0
   40.2330   34.5310   39.0300 C   0  0  0  0  0  0  0  0  0  0  0  0
   39.8320   34.5950   37.7550 N   0  0  0  0  0  0  0  0  0  0  0  0
   38.6570   33.9210   37.6470 C   0  0  0  0  0  0  0  0  0  0  0  0
   38.2920   33.4130   38.8720 C   0  0  0  0  0  0  0  0  0  0  0  0
   39.2950   33.8070   39.7330 C   0  0  0  0  0  0  0  0  0  0  0  0
   39.5090   33.6140   41.0810 C   0  0  0  0  0  0  0  0  0  0  0  0
   45.7524   34.7598   41.7108 H   0  0  0  0  0  0  0  0  0  0  0  0
   46.4688   32.6941   46.0957 H   0  0  0  0  0  0  0  0  0  0  0  0
   47.6410   34.7706   40.6637 H   0  0  0  0  0  0  0  0  0  0  0  0
   48.1571   32.0268   42.0307 H   0  0  0  0  0  0  0  0  0  0  0  0
   46.9528   32.2766   38.5903 H   0  0  0  0  0  0  0  0  0  0  0  0
   47.8321   31.0560   39.5716 H   0  0  0  0  0  0  0  0  0  0  0  0
   49.6141   32.4964   39.7057 H   0  0  0  0  0  0  0  0  0  0  0  0
   49.1061   34.3345   42.5293 H   0  0  0  0  0  0  0  0  0  0  0  0
   48.9454   34.8140   38.8839 H   0  0  0  0  0  0  0  0  0  0  0  0
   44.0079   36.3223   44.6390 H   0  0  0  0  0  0  0  0  0  0  0  0
   44.7308   36.7270   43.0667 H   0  0  0  0  0  0  0  0  0  0  0  0
   42.4035   34.9381   43.6001 H   0  0  0  0  0  0  0  0  0  0  0  0
   40.7303   33.9310   42.8150 H   0  0  0  0  0  0  0  0  0  0  0  0
   42.0705   35.6001   39.1241 H   0  0  0  0  0  0  0  0  0  0  0  0
   40.3278   35.0722   36.9886 H   0  0  0  0  0  0  0  0  0  0  0  0
   38.0824   33.7996   36.7169 H   0  0  0  0  0  0  0  0  0  0  0  0
   37.3961   32.8218   39.1125 H   0  0  0  0  0  0  0  0  0  0  0  0
   38.7699   33.0368   41.6560 H   0  0  0  0  0  0  0  0  0  0  0  0
  1  6  2  0
  2  3  2  0
  2  1  1  0
  3  4  1  0
  4  5  2  0
  6  5  1  0
  7 12  1  0
  7  8  1  0
  8  3  1  0
  9  8  1  0
 10 11  1  0
 10  9  1  0
 11  7  1  0
 13 11  1  0
 14  1  1  0
 15 17  1  0
 16 15  2  0
 17 14  1  0
 19 15  1  0
 19 18  2  0
 20 19  1  0
 21 20  2  0
 21 25  1  0
 22 21  1  0
 23 22  1  0
 23 24  2  0
 24 25  1  0
 25 26  2  0
 26 18  1  0
  2 27  1  0
  5 28  1  0
  7 29  1  6
  8 30  1  1
 10 31  1  0
 10 32  1  0
 11 33  1  1
 12 34  1  0
 13 35  1  0
 14 36  1  0
 14 37  1  0
 17 38  1  0
 18 39  1  0
 20 40  1  0
 22 41  1  0
 23 42  1  0
 24 43  1  0
 26 44  1  0
M  ISO  8  27  14  28  14  29  13  30  13  31  13  32  13  33  13  34   3
M  ISO  8  35   3  36   8  37   8  39  14  40  14  41   9  42  14  43  14
M  ISO  1  44  14
M  END
>  <minimizedAffinity>  (1) 
-6.5636344

>  <minimizedRMSD>  (1) 
7.35804462

$$$$
