
     RDKit          3D

 43 47  0  0  0  0  0  0  0  0999 V2000
   45.5830   33.1150   46.5350 C   0  0  0  0  0  0  0  0  0  0  0  0
   44.4010   36.2000   44.8240 C   0  0  0  0  0  0  0  0  0  0  0  0
   45.0890   36.0880   43.5990 C   0  0  0  0  0  0  0  0  0  0  0  0
   45.9190   34.9900   43.3920 C   0  0  0  0  0  0  0  0  0  0  0  0
   46.0410   34.0540   44.3820 N   0  0  0  0  0  0  0  0  0  0  0  0
   45.3650   34.1910   45.5520 C   0  0  0  0  0  0  0  0  0  0  0  0
   44.5650   35.2470   45.7560 N   0  0  0  0  0  0  0  0  0  0  0  0
   47.9640   35.2020   41.9590 C   0  0  0  0  0  0  0  0  0  0  0  0
   46.6630   34.8010   42.1540 C   0  0  0  0  0  0  0  0  0  0  0  0
   46.0770   34.1900   41.0800 C   0  0  0  0  0  0  0  0  0  0  0  0
   46.6980   33.9670   39.8680 C   0  0  0  0  0  0  0  0  0  0  0  0
   46.2180   33.3740   38.7370 N   0  0  0  0  0  0  0  0  0  0  0  0
   47.2240   33.4040   37.8310 C   0  0  0  0  0  0  0  0  0  0  0  0
   48.3240   34.0150   38.4010 C   0  0  0  0  0  0  0  0  0  0  0  0
   48.0060   34.3800   39.6980 C   0  0  0  0  0  0  0  0  0  0  0  0
   48.6110   34.9930   40.7590 C   0  0  0  0  0  0  0  0  0  0  0  0
   46.8180   31.9860   45.8660 S   0  0  0  0  0  0  0  0  0  0  0  0
   47.7570   31.2160   47.1650 C   0  0  0  0  0  0  0  0  0  0  0  0
   47.9910   31.9620   48.2940 C   0  0  0  0  0  0  0  0  0  0  0  0
   48.7190   31.3840   49.3160 C   0  0  0  0  0  0  0  0  0  0  0  0
   49.2110   30.0910   49.2340 C   0  0  0  0  0  0  0  0  0  0  0  0
   49.9130   29.5550   50.2390 N   0  0  0  0  0  0  0  0  0  0  0  0
   50.3980   28.3010   50.1750 C   0  0  0  0  0  0  0  0  0  0  0  0
   50.1650   27.5540   49.0450 C   0  0  0  0  0  0  0  0  0  0  0  0
   49.4380   28.0960   47.9940 C   0  0  0  0  0  0  0  0  0  0  0  0
   48.9360   29.3990   48.0660 C   0  0  0  0  0  0  0  0  0  0  0  0
   48.2130   29.9330   47.0150 C   0  0  0  0  0  0  0  0  0  0  0  0
   45.9434   33.5429   47.4821 H   0  0  0  0  0  0  0  0  0  0  0  0
   44.6419   32.5791   46.7278 H   0  0  0  0  0  0  0  0  0  0  0  0
   43.7382   37.0570   45.0143 H   0  0  0  0  0  0  0  0  0  0  0  0
   44.9720   36.8554   42.8197 H   0  0  0  0  0  0  0  0  0  0  0  0
   48.5010   35.7010   42.7791 H   0  0  0  0  0  0  0  0  0  0  0  0
   45.0360   33.8521   41.1901 H   0  0  0  0  0  0  0  0  0  0  0  0
   45.2760   32.9809   38.5993 H   0  0  0  0  0  0  0  0  0  0  0  0
   47.1734   33.0061   36.8067 H   0  0  0  0  0  0  0  0  0  0  0  0
   49.2920   34.1836   37.9064 H   0  0  0  0  0  0  0  0  0  0  0  0
   49.6520   35.3321   40.6521 H   0  0  0  0  0  0  0  0  0  0  0  0
   47.6098   32.9901   48.3820 H   0  0  0  0  0  0  0  0  0  0  0  0
   48.9149   31.9701   50.2260 H   0  0  0  0  0  0  0  0  0  0  0  0
   50.9719   27.8806   51.0140 H   0  0  0  0  0  0  0  0  0  0  0  0
   50.5543   26.5277   48.9736 H   0  0  0  0  0  0  0  0  0  0  0  0
   49.2544   27.4926   47.0928 H   0  0  0  0  0  0  0  0  0  0  0  0
   48.0134   29.3544   46.1010 H   0  0  0  0  0  0  0  0  0  0  0  0
  2  7  2  0
  3  2  1  0
  4  3  2  0
  4  5  1  0
  5  6  2  0
  6  7  1  0
  6  1  1  0
  8  9  2  0
  9  4  1  0
 10  9  1  0
 11 10  2  0
 12 11  1  0
 13 14  2  0
 13 12  1  0
 14 15  1  0
 15 11  1  0
 15 16  2  0
 16  8  1  0
 17  1  1  0
 17 18  1  0
 18 19  2  0
 19 20  1  0
 21 20  2  0
 21 22  1  0
 23 22  2  0
 24 23  1  0
 25 26  1  0
 25 24  2  0
 26 21  1  0
 27 18  1  0
 27 26  2  0
  1 28  1  0
  1 29  1  0
  2 30  1  0
  3 31  1  0
  8 32  1  0
 10 33  1  0
 12 34  1  0
 13 35  1  0
 14 36  1  0
 16 37  1  0
 19 38  1  0
 20 39  1  0
 23 40  1  0
 24 41  1  0
 25 42  1  0
 27 43  1  0
M  END
>  <minimizedAffinity>  (1) 
-7.2309227

>  <minimizedRMSD>  (1) 
0.712290108

$$$$
