
     RDKit          3D

 42 46  0  0  0  0  0  0  0  0999 V2000
   44.2970   34.8780   41.2840 C   0  0  0  0  0  0  0  0  0  0  0  0
   44.2320   34.1660   40.0970 C   0  0  0  0  0  0  0  0  0  0  0  0
   45.4040   33.5670   39.6370 C   0  0  0  0  0  0  0  0  0  0  0  0
   46.5260   33.7170   40.3720 N   0  0  0  0  0  0  0  0  0  0  0  0
   46.5570   34.4190   41.5280 C   0  0  0  0  0  0  0  0  0  0  0  0
   45.4350   34.9770   41.9450 N   0  0  0  0  0  0  0  0  0  0  0  0
   45.8040   31.4780   38.4990 C   0  0  0  0  0  0  0  0  0  0  0  0
   45.4860   32.8000   38.4240 C   0  0  0  0  0  0  0  0  0  0  0  0
   45.2620   33.3160   37.1660 C   0  0  0  0  0  0  0  0  0  0  0  0
   45.3590   32.5190   36.0470 C   0  0  0  0  0  0  0  0  0  0  0  0
   45.1810   32.8200   34.7460 N   0  0  0  0  0  0  0  0  0  0  0  0
   45.3790   31.7150   33.9840 C   0  0  0  0  0  0  0  0  0  0  0  0
   45.6890   30.7010   34.8560 C   0  0  0  0  0  0  0  0  0  0  0  0
   45.6810   31.1820   36.1430 C   0  0  0  0  0  0  0  0  0  0  0  0
   45.9130   30.6340   37.4000 C   0  0  0  0  0  0  0  0  0  0  0  0
   42.7450   35.6300   41.8290 S   0  0  0  0  0  0  0  0  0  0  0  0
   40.5270   35.3550   40.3250 C   0  0  0  0  0  0  0  0  0  0  0  0
   41.3440   34.6960   41.2340 C   0  0  0  0  0  0  0  0  0  0  0  0
   41.0630   33.4180   41.6240 C   0  0  0  0  0  0  0  0  0  0  0  0
   39.9690   32.7210   41.1450 C   0  0  0  0  0  0  0  0  0  0  0  0
   39.1430   33.3910   40.2250 C   0  0  0  0  0  0  0  0  0  0  0  0
   39.3990   34.6830   39.8090 C   0  0  0  0  0  0  0  0  0  0  0  0
   38.1110   32.4960   39.8840 O   0  0  0  0  0  0  0  0  0  0  0  0
   38.1360   31.4650   40.8290 C   0  0  0  0  0  0  0  0  0  0  0  0
   39.4450   31.4430   41.3570 O   0  0  0  0  0  0  0  0  0  0  0  0
   47.6710   34.5970   42.3070 O   0  0  0  0  0  0  0  0  0  0  0  0
   48.9070   34.8460   41.7020 C   0  0  0  0  0  0  0  0  0  0  0  0
   49.5120   33.7420   41.1970 F   0  0  0  0  0  0  0  0  0  0  0  0
   48.6430   35.8140   40.7140 F   0  0  0  0  0  0  0  0  0  0  0  0
   49.7400   35.3980   42.6780 F   0  0  0  0  0  0  0  0  0  0  0  0
   43.2892   34.0765   39.5375 H   0  0  0  0  0  0  0  0  0  0  0  0
   45.9868   31.0496   39.4955 H   0  0  0  0  0  0  0  0  0  0  0  0
   45.0022   34.3790   37.0540 H   0  0  0  0  0  0  0  0  0  0  0  0
   44.9315   33.7512   34.3834 H   0  0  0  0  0  0  0  0  0  0  0  0
   45.3059   31.6456   32.8886 H   0  0  0  0  0  0  0  0  0  0  0  0
   45.9099   29.6625   34.5684 H   0  0  0  0  0  0  0  0  0  0  0  0
   46.1731   29.5720   37.5200 H   0  0  0  0  0  0  0  0  0  0  0  0
   40.7556   36.3845   40.0122 H   0  0  0  0  0  0  0  0  0  0  0  0
   41.7312   32.9250   42.3454 H   0  0  0  0  0  0  0  0  0  0  0  0
   38.7342   35.1799   39.0871 H   0  0  0  0  0  0  0  0  0  0  0  0
   37.4063   31.6629   41.6280 H   0  0  0  0  0  0  0  0  0  0  0  0
   37.8723   30.4990   40.3738 H   0  0  0  0  0  0  0  0  0  0  0  0
  1 16  1  0
  1  6  1  0
  2  1  2  0
  3  2  1  0
  3  4  2  0
  4  5  1  0
  5  6  2  0
  5 26  1  0
  8  7  2  0
  8  3  1  0
  9  8  1  0
 10 14  1  0
 10  9  2  0
 11 10  1  0
 12 11  1  0
 12 13  2  0
 13 14  1  0
 14 15  2  0
 15  7  1  0
 17 18  2  0
 18 19  1  0
 18 16  1  0
 20 25  1  0
 20 19  2  0
 21 20  1  0
 22 21  2  0
 22 17  1  0
 23 21  1  0
 23 24  1  0
 24 25  1  0
 27 26  1  0
 27 30  1  0
 28 27  1  0
 29 27  1  0
  2 31  1  0
  7 32  1  0
  9 33  1  0
 11 34  1  0
 12 35  1  0
 13 36  1  0
 15 37  1  0
 17 38  1  0
 19 39  1  0
 22 40  1  0
 24 41  1  0
 24 42  1  0
M  ISO  8  31  14  32  14  33  14  34   9  35  14  36  14  37  14  38  14
M  ISO  4  39  14  40  14  41  13  42  13
M  END
>  <minimizedAffinity>  (1) 
-6.62392759

>  <minimizedRMSD>  (1) 
0.902346313

$$$$
