
     RDKit          3D

 52 56  0  0  1  0  0  0  0  0999 V2000
   47.9630   33.6640   41.7080 C   0  0  0  0  0  0  0  0  0  0  0  0
   48.5260   34.8060   42.2190 C   0  0  0  0  0  0  0  0  0  0  0  0
   49.8570   34.9150   42.5780 C   0  0  0  0  0  0  0  0  0  0  0  0
   50.6050   33.7470   42.3780 C   0  0  0  0  0  0  0  0  0  0  0  0
   50.0300   32.5760   41.8540 C   0  0  0  0  0  0  0  0  0  0  0  0
   48.7250   32.5460   41.5280 N   0  0  0  0  0  0  0  0  0  0  0  0
   50.8680   31.4020   41.6550 C   0  0  1  0  0  0  0  0  0  0  0  0
   52.0580   31.7360   40.6630 C   0  0  0  0  0  0  0  0  0  0  0  0
   52.5220   30.3100   40.2410 C   0  0  0  0  0  0  0  0  0  0  0  0
   53.2700   29.8020   41.4690 C   0  0  0  0  0  0  0  0  0  0  0  0
   52.3690   29.6710   42.6400 C   0  0  0  0  0  0  0  0  0  0  0  0
   51.3480   30.7300   42.8240 C   0  0  2  0  0  0  0  0  0  0  0  0
   49.9100   29.9190   43.5970 S   0  0  0  0  0  0  0  0  0  0  0  0
   44.6880   32.6850   40.3990 C   0  0  0  0  0  0  0  0  0  0  0  0
   43.8720   33.7530   40.7320 C   0  0  0  0  0  0  0  0  0  0  0  0
   44.4530   34.7940   41.4050 C   0  0  0  0  0  0  0  0  0  0  0  0
   45.7890   34.7230   41.7050 N   0  0  0  0  0  0  0  0  0  0  0  0
   46.5550   33.6300   41.3470 C   0  0  0  0  0  0  0  0  0  0  0  0
   46.0060   32.6540   40.7160 N   0  0  0  0  0  0  0  0  0  0  0  0
   43.7900   35.9420   41.8330 N   0  0  0  0  0  0  0  0  0  0  0  0
   41.4370   33.6260   41.3350 C   0  0  0  0  0  0  0  0  0  0  0  0
   42.4510   33.8240   40.4100 C   0  0  0  0  0  0  0  0  0  0  0  0
   42.1370   34.1110   39.0820 C   0  0  0  0  0  0  0  0  0  0  0  0
   40.8120   34.1950   38.7010 C   0  0  0  0  0  0  0  0  0  0  0  0
   40.2320   34.4520   37.5100 N   0  0  0  0  0  0  0  0  0  0  0  0
   38.8960   34.4160   37.6860 C   0  0  0  0  0  0  0  0  0  0  0  0
   38.6280   34.1270   39.0270 C   0  0  0  0  0  0  0  0  0  0  0  0
   39.8510   33.9890   39.6590 C   0  0  0  0  0  0  0  0  0  0  0  0
   40.1010   33.7050   40.9720 C   0  0  0  0  0  0  0  0  0  0  0  0
   47.8806   35.6869   42.3509 H   0  0  0  0  0  0  0  0  0  0  0  0
   50.2915   35.8396   42.9858 H   0  0  0  0  0  0  0  0  0  0  0  0
   51.6737   33.7464   42.6387 H   0  0  0  0  0  0  0  0  0  0  0  0
   50.1806   30.6650   41.2142 H   0  0  0  0  0  0  0  0  0  0  0  0
   51.7079   32.3171   39.7971 H   0  0  0  0  0  0  0  0  0  0  0  0
   52.8529   32.3522   41.1084 H   0  0  0  0  0  0  0  0  0  0  0  0
   51.6591   29.6672   40.0123 H   0  0  0  0  0  0  0  0  0  0  0  0
   53.1415   30.3122   39.3321 H   0  0  0  0  0  0  0  0  0  0  0  0
   53.7045   28.8176   41.2407 H   0  0  0  0  0  0  0  0  0  0  0  0
   54.0564   30.5294   41.7189 H   0  0  0  0  0  0  0  0  0  0  0  0
   51.8391   28.7117   42.5456 H   0  0  0  0  0  0  0  0  0  0  0  0
   53.0269   29.7522   43.5178 H   0  0  0  0  0  0  0  0  0  0  0  0
   51.8441   31.5157   43.4127 H   0  0  0  0  0  0  0  0  0  0  0  0
   50.0268   29.9849   44.9604 H   0  0  0  0  0  0  0  0  0  0  0  0
   44.2518   31.8320   39.8585 H   0  0  0  0  0  0  0  0  0  0  0  0
   44.3068   36.6784   42.3346 H   0  0  0  0  0  0  0  0  0  0  0  0
   42.7830   36.0544   41.6479 H   0  0  0  0  0  0  0  0  0  0  0  0
   41.6982   33.4013   42.3797 H   0  0  0  0  0  0  0  0  0  0  0  0
   42.9375   34.2691   38.3443 H   0  0  0  0  0  0  0  0  0  0  0  0
   40.7226   34.6418   36.6244 H   0  0  0  0  0  0  0  0  0  0  0  0
   38.1416   34.5859   36.9037 H   0  0  0  0  0  0  0  0  0  0  0  0
   37.6354   34.0283   39.4908 H   0  0  0  0  0  0  0  0  0  0  0  0
   39.2900   33.5482   41.6984 H   0  0  0  0  0  0  0  0  0  0  0  0
  1  2  2  0
  2  3  1  0
  4  3  2  0
  5  4  1  0
  6  1  1  0
  6  5  2  0
  7  5  1  0
  7 12  1  0
  8  7  1  0
  9  8  1  0
  9 10  1  0
 10 11  1  0
 11 12  1  0
 12 13  1  0
 14 19  2  0
 14 15  1  0
 15 16  2  0
 16 17  1  0
 16 20  1  0
 18 17  2  0
 18  1  1  0
 19 18  1  0
 22 15  1  0
 22 21  2  0
 23 22  1  0
 24 23  2  0
 24 28  1  0
 25 26  1  0
 25 24  1  0
 26 27  2  0
 27 28  1  0
 28 29  2  0
 29 21  1  0
  2 30  1  0
  3 31  1  0
  4 32  1  0
  7 33  1  6
  8 34  1  0
  8 35  1  0
  9 36  1  0
  9 37  1  0
 10 38  1  0
 10 39  1  0
 11 40  1  0
 11 41  1  0
 12 42  1  1
 13 43  1  0
 14 44  1  0
 20 45  1  0
 20 46  1  0
 21 47  1  0
 23 48  1  0
 25 49  1  0
 26 50  1  0
 27 51  1  0
 29 52  1  0
M  ISO  8  30  14  31  14  32  14  33  13  34  13  35  13  36  13  37  13
M  ISO  8  38  13  39  13  40  13  41  13  42  13  43  11  44  14  47  14
M  ISO  5  48  14  49   9  50  14  51  14  52  14
M  END
>  <minimizedAffinity>  (1) 
-6.84521103

>  <minimizedRMSD>  (1) 
7.38287687

$$$$
