
     RDKit          3D

 26 28  0  0  0  0  0  0  0  0999 V2000
   47.2390   31.3230   44.7550 C   0  0  0  0  0  0  0  0  0  0  0  0
   47.0450   32.6840   44.7350 C   0  0  0  0  0  0  0  0  0  0  0  0
   46.3910   33.3410   45.7570 C   0  0  0  0  0  0  0  0  0  0  0  0
   45.9030   32.6630   46.8470 C   0  0  0  0  0  0  0  0  0  0  0  0
   45.2420   32.9920   47.9770 N   0  0  0  0  0  0  0  0  0  0  0  0
   44.9860   31.9210   48.7480 C   0  0  0  0  0  0  0  0  0  0  0  0
   45.5200   30.8390   48.0630 C   0  0  0  0  0  0  0  0  0  0  0  0
   46.0850   31.3020   46.8920 C   0  0  0  0  0  0  0  0  0  0  0  0
   46.7400   30.6640   45.8580 C   0  0  0  0  0  0  0  0  0  0  0  0
   47.3430   35.2170   42.0880 C   0  0  0  0  0  0  0  0  0  0  0  0
   48.5660   34.8750   41.4850 C   0  0  0  0  0  0  0  0  0  0  0  0
   49.2610   33.7890   41.9930 C   0  0  0  0  0  0  0  0  0  0  0  0
   48.7210   33.1260   43.0370 N   0  0  0  0  0  0  0  0  0  0  0  0
   47.5380   33.4760   43.6030 C   0  0  0  0  0  0  0  0  0  0  0  0
   46.8420   34.5230   43.1320 N   0  0  0  0  0  0  0  0  0  0  0  0
   48.9850   35.6870   40.3910 N   0  0  0  0  0  0  0  0  0  0  0  0
   47.7591   30.7940   43.9428 H   0  0  0  0  0  0  0  0  0  0  0  0
   46.2576   34.4313   45.6974 H   0  0  0  0  0  0  0  0  0  0  0  0
   44.9654   33.9538   48.2207 H   0  0  0  0  0  0  0  0  0  0  0  0
   44.4641   31.9057   49.7162 H   0  0  0  0  0  0  0  0  0  0  0  0
   45.4970   29.7910   48.3964 H   0  0  0  0  0  0  0  0  0  0  0  0
   46.8705   29.5734   45.9173 H   0  0  0  0  0  0  0  0  0  0  0  0
   46.7773   36.0758   41.6975 H   0  0  0  0  0  0  0  0  0  0  0  0
   50.2225   33.4773   41.5589 H   0  0  0  0  0  0  0  0  0  0  0  0
   48.4002   36.4766   40.0821 H   0  0  0  0  0  0  0  0  0  0  0  0
   49.8726   35.4841   39.9094 H   0  0  0  0  0  0  0  0  0  0  0  0
  1  9  2  0
  2  1  1  0
  2  3  2  0
  3  4  1  0
  4  8  2  0
  4  5  1  0
  5  6  1  0
  7  6  2  0
  8  7  1  0
  9  8  1  0
 10 15  2  0
 11 12  2  0
 11 10  1  0
 12 13  1  0
 13 14  2  0
 14  2  1  0
 15 14  1  0
 16 11  1  0
  1 17  1  0
  3 18  1  0
  5 19  1  0
  6 20  1  0
  7 21  1  0
  9 22  1  0
 10 23  1  0
 12 24  1  0
 16 25  1  0
 16 26  1  0
M  ISO  8  17  14  18  14  19   9  20  14  21  14  22  14  23  14  24  14
M  END
>  <minimizedAffinity>  (1) 
-5.37406015

>  <minimizedRMSD>  (1) 
3.32739258

$$$$
