
     RDKit          3D

 43 47  0  0  0  0  0  0  0  0999 V2000
   46.4690   33.6520   41.1030 C   0  0  0  0  0  0  0  0  0  0  0  0
   46.8490   34.6520   41.9720 C   0  0  0  0  0  0  0  0  0  0  0  0
   47.9240   35.4110   41.6110 C   0  0  0  0  0  0  0  0  0  0  0  0
   48.6120   35.1960   40.4240 C   0  0  0  0  0  0  0  0  0  0  0  0
   48.2230   34.1990   39.5700 C   0  0  0  0  0  0  0  0  0  0  0  0
   47.1210   33.3970   39.9060 C   0  0  0  0  0  0  0  0  0  0  0  0
   44.5360   36.0140   44.6050 C   0  0  0  0  0  0  0  0  0  0  0  0
   45.2440   35.8910   43.4000 C   0  0  0  0  0  0  0  0  0  0  0  0
   46.0970   34.8290   43.1890 C   0  0  0  0  0  0  0  0  0  0  0  0
   46.1770   33.9510   44.2230 N   0  0  0  0  0  0  0  0  0  0  0  0
   45.5080   34.0600   45.3720 C   0  0  0  0  0  0  0  0  0  0  0  0
   44.6830   35.0960   45.5650 N   0  0  0  0  0  0  0  0  0  0  0  0
   45.3760   32.8470   41.4220 O   0  0  0  0  0  0  0  0  0  0  0  0
   46.6890   32.3830   39.0850 O   0  0  0  0  0  0  0  0  0  0  0  0
   46.7470   32.3670   37.7490 C   0  0  0  0  0  0  0  0  0  0  0  0
   45.7420   32.5350   36.8200 C   0  0  0  0  0  0  0  0  0  0  0  0
   46.0520   32.4750   35.4790 C   0  0  0  0  0  0  0  0  0  0  0  0
   47.4240   32.2380   35.1610 C   0  0  0  0  0  0  0  0  0  0  0  0
   48.2380   32.1060   36.7850 S   0  0  0  0  0  0  0  0  0  0  0  0
   48.9170   33.0410   33.3820 C   0  0  0  0  0  0  0  0  0  0  0  0
   48.0010   32.1320   33.8710 C   0  0  0  0  0  0  0  0  0  0  0  0
   47.5800   31.0360   33.1190 C   0  0  0  0  0  0  0  0  0  0  0  0
   48.0720   30.8180   31.8350 C   0  0  0  0  0  0  0  0  0  0  0  0
   47.8600   29.8790   30.8960 N   0  0  0  0  0  0  0  0  0  0  0  0
   48.6090   30.1410   29.8000 C   0  0  0  0  0  0  0  0  0  0  0  0
   49.3110   31.2940   30.0820 C   0  0  0  0  0  0  0  0  0  0  0  0
   48.9920   31.7380   31.3500 C   0  0  0  0  0  0  0  0  0  0  0  0
   49.4080   32.8290   32.1100 C   0  0  0  0  0  0  0  0  0  0  0  0
   48.2558   36.2180   42.2808 H   0  0  0  0  0  0  0  0  0  0  0  0
   49.4739   35.8299   40.1686 H   0  0  0  0  0  0  0  0  0  0  0  0
   48.7685   34.0282   38.6302 H   0  0  0  0  0  0  0  0  0  0  0  0
   43.8591   36.8671   44.7598 H   0  0  0  0  0  0  0  0  0  0  0  0
   45.1169   36.6507   42.6147 H   0  0  0  0  0  0  0  0  0  0  0  0
   45.6340   33.3010   46.1581 H   0  0  0  0  0  0  0  0  0  0  0  0
   45.0952   32.1261   40.8044 H   0  0  0  0  0  0  0  0  0  0  0  0
   44.7066   32.7145   37.1452 H   0  0  0  0  0  0  0  0  0  0  0  0
   45.2873   32.6022   34.6986 H   0  0  0  0  0  0  0  0  0  0  0  0
   49.2434   33.9021   33.9836 H   0  0  0  0  0  0  0  0  0  0  0  0
   46.8489   30.3338   33.5462 H   0  0  0  0  0  0  0  0  0  0  0  0
   47.2209   29.0775   30.9964 H   0  0  0  0  0  0  0  0  0  0  0  0
   48.6497   29.5529   28.8713 H   0  0  0  0  0  0  0  0  0  0  0  0
   50.0190   31.7863   29.3991 H   0  0  0  0  0  0  0  0  0  0  0  0
   50.1404   33.5334   31.6889 H   0  0  0  0  0  0  0  0  0  0  0  0
  1 13  1  0
  1  2  2  0
  2  9  1  0
  3  2  1  0
  4  3  2  0
  5  6  2  0
  5  4  1  0
  6  1  1  0
  7 12  2  0
  8  7  1  0
  9  8  2  0
  9 10  1  0
 10 11  2  0
 11 12  1  0
 14  6  1  0
 15 14  1  0
 16 15  2  0
 17 16  1  0
 18 17  2  0
 18 19  1  0
 19 15  1  0
 20 21  2  0
 21 18  1  0
 22 21  1  0
 23 22  2  0
 24 23  1  0
 25 26  2  0
 25 24  1  0
 26 27  1  0
 27 23  1  0
 27 28  2  0
 28 20  1  0
  3 29  1  0
  4 30  1  0
  5 31  1  0
  7 32  1  0
  8 33  1  0
 11 34  1  0
 13 35  1  0
 16 36  1  0
 17 37  1  0
 20 38  1  0
 22 39  1  0
 24 40  1  0
 25 41  1  0
 26 42  1  0
 28 43  1  0
M  ISO  8  29  14  30  14  31  14  32  14  33  14  34  14  35   3  36  14
M  ISO  7  37  14  38  14  39  14  40   9  41  14  42  14  43  14
M  END
>  <minimizedAffinity>  (1) 
-7.25943947

>  <minimizedRMSD>  (1) 
0.894962847

$$$$
