
     RDKit          3D

 42 45  0  0  0  0  0  0  0  0999 V2000
   44.9650   35.0490   45.1820 C   0  0  0  0  0  0  0  0  0  0  0  0
   45.6710   34.7380   44.0160 C   0  0  0  0  0  0  0  0  0  0  0  0
   46.4660   33.5930   44.0400 C   0  0  0  0  0  0  0  0  0  0  0  0
   46.5130   32.8500   45.1690 N   0  0  0  0  0  0  0  0  0  0  0  0
   45.8220   33.1810   46.2660 C   0  0  0  0  0  0  0  0  0  0  0  0
   45.0570   34.2640   46.2790 N   0  0  0  0  0  0  0  0  0  0  0  0
   47.0390   32.1980   41.9230 C   0  0  0  0  0  0  0  0  0  0  0  0
   47.2940   33.0050   43.0070 C   0  0  0  0  0  0  0  0  0  0  0  0
   48.6610   33.2790   43.1720 C   0  0  0  0  0  0  0  0  0  0  0  0
   49.6710   32.8070   42.3610 C   0  0  0  0  0  0  0  0  0  0  0  0
   50.9970   32.9270   42.3210 N   0  0  0  0  0  0  0  0  0  0  0  0
   51.4830   32.2290   41.2790 C   0  0  0  0  0  0  0  0  0  0  0  0
   50.4500   31.6210   40.5970 C   0  0  0  0  0  0  0  0  0  0  0  0
   49.3250   32.0000   41.2970 C   0  0  0  0  0  0  0  0  0  0  0  0
   48.0000   31.7060   41.0950 C   0  0  0  0  0  0  0  0  0  0  0  0
   45.5200   35.5960   42.8160 C   0  0  0  0  0  0  0  0  0  0  0  0
   44.8120   36.6940   43.2810 F   0  0  0  0  0  0  0  0  0  0  0  0
   44.6960   34.9000   41.9170 F   0  0  0  0  0  0  0  0  0  0  0  0
   46.7120   35.8780   42.2870 F   0  0  0  0  0  0  0  0  0  0  0  0
   45.8610   32.4300   47.4340 O   0  0  0  0  0  0  0  0  0  0  0  0
   45.4520   31.0990   47.4560 C   0  0  0  0  0  0  0  0  0  0  0  0
   46.6410   30.2600   47.6750 C   0  0  0  0  0  0  0  0  0  0  0  0
   46.8930   28.9740   47.2470 C   0  0  0  0  0  0  0  0  0  0  0  0
   48.0850   28.4190   47.5870 C   0  0  0  0  0  0  0  0  0  0  0  0
   48.9970   29.0560   48.3030 N   0  0  0  0  0  0  0  0  0  0  0  0
   48.7430   30.3050   48.7160 C   0  0  0  0  0  0  0  0  0  0  0  0
   47.5650   30.9180   48.4070 N   0  0  0  0  0  0  0  0  0  0  0  0
   49.8210   30.9510   49.5160 C   0  0  0  0  0  0  0  0  0  0  0  0
   49.7690   32.3290   49.4130 F   0  0  0  0  0  0  0  0  0  0  0  0
   51.0680   30.4980   49.0780 F   0  0  0  0  0  0  0  0  0  0  0  0
   49.7270   30.6310   50.8530 F   0  0  0  0  0  0  0  0  0  0  0  0
   44.3262   35.9442   45.2072 H   0  0  0  0  0  0  0  0  0  0  0  0
   45.9923   31.9337   41.7121 H   0  0  0  0  0  0  0  0  0  0  0  0
   48.9495   33.9222   44.0165 H   0  0  0  0  0  0  0  0  0  0  0  0
   51.5639   33.4714   42.9867 H   0  0  0  0  0  0  0  0  0  0  0  0
   52.5471   32.1542   41.0105 H   0  0  0  0  0  0  0  0  0  0  0  0
   50.5100   30.9827   39.7032 H   0  0  0  0  0  0  0  0  0  0  0  0
   47.7104   31.0628   40.2509 H   0  0  0  0  0  0  0  0  0  0  0  0
   44.7306   30.9439   48.2718 H   0  0  0  0  0  0  0  0  0  0  0  0
   44.9673   30.8330   46.5050 H   0  0  0  0  0  0  0  0  0  0  0  0
   46.1548   28.4171   46.6512 H   0  0  0  0  0  0  0  0  0  0  0  0
   48.3019   27.3939   47.2520 H   0  0  0  0  0  0  0  0  0  0  0  0
  1  6  2  0
  2  3  2  0
  2  1  1  0
  3  4  1  0
  4  5  2  0
  5  6  1  0
  5 20  1  0
  7  8  2  0
  8  9  1  0
  8  3  1  0
 10  9  2  0
 11 10  1  0
 12 11  1  0
 13 12  2  0
 13 14  1  0
 14 10  1  0
 15 14  2  0
 15  7  1  0
 16 17  1  0
 16  2  1  0
 18 16  1  0
 19 16  1  0
 20 21  1  0
 21 22  1  0
 22 27  2  0
 23 24  2  0
 23 22  1  0
 24 25  1  0
 25 26  2  0
 26 28  1  0
 27 26  1  0
 28 31  1  0
 29 28  1  0
 30 28  1  0
  1 32  1  0
  7 33  1  0
  9 34  1  0
 11 35  1  0
 12 36  1  0
 13 37  1  0
 15 38  1  0
 21 39  1  0
 21 40  1  0
 23 41  1  0
 24 42  1  0
M  ISO  8  32  14  33  14  34  14  35   9  36  14  37  14  38  14  39   8
M  ISO  3  40   8  41  14  42  14
M  END
>  <minimizedAffinity>  (1) 
-6.43732691

>  <minimizedRMSD>  (1) 
0.80409956

$$$$
