
     RDKit          3D

 40 43  0  0  0  0  0  0  0  0999 V2000
   44.6750   36.0800   44.0200 C   0  0  0  0  0  0  0  0  0  0  0  0
   44.9120   35.2530   45.1250 C   0  0  0  0  0  0  0  0  0  0  0  0
   45.6570   34.0840   44.9090 C   0  0  0  0  0  0  0  0  0  0  0  0
   46.0970   33.8270   43.6660 N   0  0  0  0  0  0  0  0  0  0  0  0
   45.8480   34.6570   42.6050 C   0  0  0  0  0  0  0  0  0  0  0  0
   45.1420   35.7720   42.7890 N   0  0  0  0  0  0  0  0  0  0  0  0
   48.5760   35.7000   41.9870 Cl  0  0  0  0  0  0  0  0  0  0  0  0
   47.6090   34.7250   40.9050 C   0  0  0  0  0  0  0  0  0  0  0  0
   46.3690   34.2950   41.2780 C   0  0  0  0  0  0  0  0  0  0  0  0
   45.5730   33.5160   40.4350 C   0  0  0  0  0  0  0  0  0  0  0  0
   46.1200   33.2130   39.2110 C   0  0  0  0  0  0  0  0  0  0  0  0
   47.3650   33.6420   38.8280 C   0  0  0  0  0  0  0  0  0  0  0  0
   48.1300   34.4050   39.6680 C   0  0  0  0  0  0  0  0  0  0  0  0
   45.9050   33.2140   46.0780 C   0  0  0  0  0  0  0  0  0  0  0  0
   46.0940   31.7790   45.6900 C   0  0  0  0  0  0  0  0  0  0  0  0
   47.8750   29.9970   45.9730 C   0  0  0  0  0  0  0  0  0  0  0  0
   47.1100   31.0600   46.4320 C   0  0  0  0  0  0  0  0  0  0  0  0
   47.3730   31.4460   47.7410 C   0  0  0  0  0  0  0  0  0  0  0  0
   48.3170   30.8520   48.5730 C   0  0  0  0  0  0  0  0  0  0  0  0
   48.6710   31.1200   49.8430 N   0  0  0  0  0  0  0  0  0  0  0  0
   49.6300   30.2540   50.1770 C   0  0  0  0  0  0  0  0  0  0  0  0
   49.8820   29.4270   49.0950 C   0  0  0  0  0  0  0  0  0  0  0  0
   49.0500   29.7930   48.0540 C   0  0  0  0  0  0  0  0  0  0  0  0
   48.8200   29.3840   46.7710 C   0  0  0  0  0  0  0  0  0  0  0  0
   44.0940   37.0039   44.1570 H   0  0  0  0  0  0  0  0  0  0  0  0
   44.5289   35.5100   46.1236 H   0  0  0  0  0  0  0  0  0  0  0  0
   44.5727   33.1675   40.7316 H   0  0  0  0  0  0  0  0  0  0  0  0
   45.5346   32.6008   38.5092 H   0  0  0  0  0  0  0  0  0  0  0  0
   47.7528   33.3700   37.8352 H   0  0  0  0  0  0  0  0  0  0  0  0
   49.1292   34.7524   39.3664 H   0  0  0  0  0  0  0  0  0  0  0  0
   46.8121   33.5635   46.5928 H   0  0  0  0  0  0  0  0  0  0  0  0
   45.0233   33.2718   46.7331 H   0  0  0  0  0  0  0  0  0  0  0  0
   45.1357   31.2593   45.8370 H   0  0  0  0  0  0  0  0  0  0  0  0
   46.4362   31.7917   44.6447 H   0  0  0  0  0  0  0  0  0  0  0  0
   47.7243   29.6332   44.9459 H   0  0  0  0  0  0  0  0  0  0  0  0
   46.7907   32.2847   48.1503 H   0  0  0  0  0  0  0  0  0  0  0  0
   48.2757   31.8562   50.4452 H   0  0  0  0  0  0  0  0  0  0  0  0
   50.1372   30.2051   51.1519 H   0  0  0  0  0  0  0  0  0  0  0  0
   50.6219   28.6135   49.0686 H   0  0  0  0  0  0  0  0  0  0  0  0
   49.4027   28.5448   46.3634 H   0  0  0  0  0  0  0  0  0  0  0  0
  1  2  2  0
  3  2  1  0
  3 14  1  0
  4  3  2  0
  5  6  2  0
  5  4  1  0
  6  1  1  0
  8  9  2  0
  8  7  1  0
  9  5  1  0
 10  9  1  0
 11 10  2  0
 12 11  1  0
 12 13  2  0
 13  8  1  0
 15 14  1  0
 15 17  1  0
 16 17  2  0
 16 24  1  0
 17 18  1  0
 18 19  2  0
 19 20  1  0
 20 21  1  0
 22 21  2  0
 23 19  1  0
 23 22  1  0
 24 23  2  0
  1 25  1  0
  2 26  1  0
 10 27  1  0
 11 28  1  0
 12 29  1  0
 13 30  1  0
 14 31  1  0
 14 32  1  0
 15 33  1  0
 15 34  1  0
 16 35  1  0
 18 36  1  0
 20 37  1  0
 21 38  1  0
 22 39  1  0
 24 40  1  0
M  ISO  8  25  14  26  14  27  14  28  14  29  14  30  14  31   8  32   8
M  ISO  8  33   8  34   8  35  14  36  14  37   9  38  14  39  14  40  14
M  END
>  <minimizedAffinity>  (1) 
-6.50248241

>  <minimizedRMSD>  (1) 
1.04347646

$$$$
