
     RDKit          3D

 44 48  0  0  0  0  0  0  0  0999 V2000
   45.5910   32.5770   39.9080 Cl  0  0  0  0  0  0  0  0  0  0  0  0
   46.9280   33.6900   39.8230 C   0  0  0  0  0  0  0  0  0  0  0  0
   47.4030   34.3020   40.9520 C   0  0  0  0  0  0  0  0  0  0  0  0
   48.4710   35.1980   40.9230 C   0  0  0  0  0  0  0  0  0  0  0  0
   49.0220   35.4310   39.6740 C   0  0  0  0  0  0  0  0  0  0  0  0
   48.5430   34.8130   38.5390 C   0  0  0  0  0  0  0  0  0  0  0  0
   47.5180   33.9590   38.5980 C   0  0  0  0  0  0  0  0  0  0  0  0
   46.4010   32.5530   44.0380 C   0  0  0  0  0  0  0  0  0  0  0  0
   45.5760   33.5020   44.6720 C   0  0  0  0  0  0  0  0  0  0  0  0
   45.3760   34.7200   44.0380 C   0  0  0  0  0  0  0  0  0  0  0  0
   45.9860   34.9360   42.8340 N   0  0  0  0  0  0  0  0  0  0  0  0
   46.7710   34.0110   42.2490 C   0  0  0  0  0  0  0  0  0  0  0  0
   46.9700   32.8330   42.8560 N   0  0  0  0  0  0  0  0  0  0  0  0
   44.5170   35.8170   44.6070 C   0  0  0  0  0  0  0  0  0  0  0  0
   45.0540   37.0400   44.3640 F   0  0  0  0  0  0  0  0  0  0  0  0
   43.2610   35.7350   44.0200 F   0  0  0  0  0  0  0  0  0  0  0  0
   44.4090   35.5560   45.9530 F   0  0  0  0  0  0  0  0  0  0  0  0
   46.9900   33.2910   37.4100 C   0  0  0  0  0  0  0  0  0  0  0  0
   45.6480   32.9920   37.2010 C   0  0  0  0  0  0  0  0  0  0  0  0
   45.4930   32.3660   35.9910 C   0  0  0  0  0  0  0  0  0  0  0  0
   46.7980   32.3120   35.5040 C   0  0  0  0  0  0  0  0  0  0  0  0
   47.6420   32.8600   36.3580 O   0  0  0  0  0  0  0  0  0  0  0  0
   46.6660   30.5110   33.8710 C   0  0  0  0  0  0  0  0  0  0  0  0
   47.2170   31.7290   34.2110 C   0  0  0  0  0  0  0  0  0  0  0  0
   48.1190   32.4150   33.4260 C   0  0  0  0  0  0  0  0  0  0  0  0
   48.4890   31.8420   32.2250 C   0  0  0  0  0  0  0  0  0  0  0  0
   49.3270   32.2160   31.2260 N   0  0  0  0  0  0  0  0  0  0  0  0
   49.3460   31.2920   30.2440 C   0  0  0  0  0  0  0  0  0  0  0  0
   48.4740   30.2800   30.6450 C   0  0  0  0  0  0  0  0  0  0  0  0
   47.9450   30.6250   31.8730 C   0  0  0  0  0  0  0  0  0  0  0  0
   47.0390   29.9280   32.6560 C   0  0  0  0  0  0  0  0  0  0  0  0
   48.8507   35.6874   41.8320 H   0  0  0  0  0  0  0  0  0  0  0  0
   49.8668   36.1299   39.5852 H   0  0  0  0  0  0  0  0  0  0  0  0
   49.0131   35.0269   37.5678 H   0  0  0  0  0  0  0  0  0  0  0  0
   46.5796   31.5777   44.5143 H   0  0  0  0  0  0  0  0  0  0  0  0
   45.1040   33.2841   45.6414 H   0  0  0  0  0  0  0  0  0  0  0  0
   44.8324   33.2233   37.9020 H   0  0  0  0  0  0  0  0  0  0  0  0
   44.5688   31.9980   35.5214 H   0  0  0  0  0  0  0  0  0  0  0  0
   45.9503   30.0103   34.5397 H   0  0  0  0  0  0  0  0  0  0  0  0
   48.5295   33.3844   33.7448 H   0  0  0  0  0  0  0  0  0  0  0  0
   49.8749   33.0881   31.2185 H   0  0  0  0  0  0  0  0  0  0  0  0
   49.9316   31.3290   29.3136 H   0  0  0  0  0  0  0  0  0  0  0  0
   48.2466   29.3640   30.0799 H   0  0  0  0  0  0  0  0  0  0  0  0
   46.6308   28.9580   32.3357 H   0  0  0  0  0  0  0  0  0  0  0  0
  2  1  1  0
  2  3  2  0
  3 12  1  0
  4  3  1  0
  5  4  2  0
  6  7  2  0
  6  5  1  0
  7  2  1  0
  8  9  2  0
 10 14  1  0
 10  9  1  0
 11 10  2  0
 12 11  1  0
 12 13  2  0
 13  8  1  0
 14 17  1  0
 15 14  1  0
 16 14  1  0
 18  7  1  0
 19 18  2  0
 20 19  1  0
 21 20  2  0
 21 22  1  0
 22 18  1  0
 23 24  2  0
 24 21  1  0
 25 24  1  0
 26 25  2  0
 27 26  1  0
 28 29  2  0
 28 27  1  0
 29 30  1  0
 30 26  1  0
 30 31  2  0
 31 23  1  0
  4 32  1  0
  5 33  1  0
  6 34  1  0
  8 35  1  0
  9 36  1  0
 19 37  1  0
 20 38  1  0
 23 39  1  0
 25 40  1  0
 27 41  1  0
 28 42  1  0
 29 43  1  0
 31 44  1  0
M  END
>  <minimizedAffinity>  (1) 
-7.17907143

>  <minimizedRMSD>  (1) 
2.72441602

$$$$
