
     RDKit          3D

 47 51  0  0  0  0  0  0  0  0999 V2000
   45.0590   34.0000   40.7830 C   0  0  0  0  0  0  0  0  0  0  0  0
   44.0070   33.6340   39.9810 C   0  0  0  0  0  0  0  0  0  0  0  0
   44.3050   33.0610   38.7690 C   0  0  0  0  0  0  0  0  0  0  0  0
   45.5930   32.8390   38.3240 C   0  0  0  0  0  0  0  0  0  0  0  0
   46.6150   33.2190   39.1540 C   0  0  0  0  0  0  0  0  0  0  0  0
   46.3770   33.7970   40.3780 C   0  0  0  0  0  0  0  0  0  0  0  0
   40.7550   35.3560   40.8200 C   0  0  0  0  0  0  0  0  0  0  0  0
   42.0550   35.1370   40.3270 C   0  0  0  0  0  0  0  0  0  0  0  0
   42.6710   33.8830   40.4810 C   0  0  0  0  0  0  0  0  0  0  0  0
   41.9320   32.9490   41.1190 N   0  0  0  0  0  0  0  0  0  0  0  0
   40.7000   33.1740   41.5800 C   0  0  0  0  0  0  0  0  0  0  0  0
   40.1150   34.3590   41.4360 N   0  0  0  0  0  0  0  0  0  0  0  0
   40.1810   36.6270   40.6410 N   0  0  0  0  0  0  0  0  0  0  0  0
   47.5310   34.1650   41.1850 C   0  0  0  0  0  0  0  0  0  0  0  0
   48.1240   35.3550   40.8620 C   0  0  0  0  0  0  0  0  0  0  0  0
   49.2360   35.8810   41.5170 C   0  0  0  0  0  0  0  0  0  0  0  0
   49.7570   35.1430   42.5520 C   0  0  0  0  0  0  0  0  0  0  0  0
   49.1810   33.9500   42.8940 C   0  0  0  0  0  0  0  0  0  0  0  0
   48.0680   33.4460   42.2230 C   0  0  0  0  0  0  0  0  0  0  0  0
   47.6090   31.0170   41.8330 C   0  0  0  0  0  0  0  0  0  0  0  0
   47.4330   32.1740   42.5600 C   0  0  0  0  0  0  0  0  0  0  0  0
   46.5970   32.0590   43.6510 C   0  0  0  0  0  0  0  0  0  0  0  0
   45.9890   30.8410   43.9630 C   0  0  0  0  0  0  0  0  0  0  0  0
   45.1420   30.4720   44.9610 N   0  0  0  0  0  0  0  0  0  0  0  0
   44.8320   29.1530   44.8280 C   0  0  0  0  0  0  0  0  0  0  0  0
   45.4880   28.6450   43.7180 C   0  0  0  0  0  0  0  0  0  0  0  0
   46.1980   29.7120   43.2030 C   0  0  0  0  0  0  0  0  0  0  0  0
   47.0210   29.8060   42.1210 C   0  0  0  0  0  0  0  0  0  0  0  0
   44.6400   35.0980   43.1120 N   0  0  0  0  0  0  0  0  0  0  0  0
   44.8250   34.6040   42.0600 C   0  0  0  0  0  0  0  0  0  0  0  0
   43.4713   32.7623   38.1166 H   0  0  0  0  0  0  0  0  0  0  0  0
   45.7903   32.3770   37.3454 H   0  0  0  0  0  0  0  0  0  0  0  0
   47.6542   33.0570   38.8318 H   0  0  0  0  0  0  0  0  0  0  0  0
   42.5917   35.9515   39.8185 H   0  0  0  0  0  0  0  0  0  0  0  0
   40.1581   32.3633   42.0890 H   0  0  0  0  0  0  0  0  0  0  0  0
   40.7104   37.3680   40.1598 H   0  0  0  0  0  0  0  0  0  0  0  0
   39.2312   36.8171   40.9911 H   0  0  0  0  0  0  0  0  0  0  0  0
   47.6951   35.9343   40.0311 H   0  0  0  0  0  0  0  0  0  0  0  0
   49.6767   36.8437   41.2187 H   0  0  0  0  0  0  0  0  0  0  0  0
   50.6347   35.5101   43.1042 H   0  0  0  0  0  0  0  0  0  0  0  0
   49.6098   33.3703   43.7247 H   0  0  0  0  0  0  0  0  0  0  0  0
   48.2701   31.0645   40.9551 H   0  0  0  0  0  0  0  0  0  0  0  0
   46.4066   32.9384   44.2838 H   0  0  0  0  0  0  0  0  0  0  0  0
   44.7897   31.0940   45.7025 H   0  0  0  0  0  0  0  0  0  0  0  0
   44.1680   28.5826   45.4941 H   0  0  0  0  0  0  0  0  0  0  0  0
   45.4513   27.6159   43.3312 H   0  0  0  0  0  0  0  0  0  0  0  0
   47.2126   28.9275   41.4873 H   0  0  0  0  0  0  0  0  0  0  0  0
  1 30  1  0
  2  9  1  0
  2  1  2  0
  3  2  1  0
  4  3  2  0
  4  5  1  0
  5  6  2  0
  6  1  1  0
  6 14  1  0
  7 12  2  0
  8  9  2  0
  8  7  1  0
  9 10  1  0
 10 11  2  0
 12 11  1  0
 13  7  1  0
 14 19  1  0
 15 14  2  0
 15 16  1  0
 16 17  2  0
 17 18  1  0
 19 21  1  0
 19 18  2  0
 20 28  2  0
 20 21  1  0
 21 22  2  0
 22 23  1  0
 23 24  1  0
 25 24  1  0
 26 25  2  0
 27 26  1  0
 27 23  2  0
 28 27  1  0
 30 29  3  0
  3 31  1  0
  4 32  1  0
  5 33  1  0
  8 34  1  0
 11 35  1  0
 13 36  1  0
 13 37  1  0
 15 38  1  0
 16 39  1  0
 17 40  1  0
 18 41  1  0
 20 42  1  0
 22 43  1  0
 24 44  1  0
 25 45  1  0
 26 46  1  0
 28 47  1  0
M  ISO  8  31  14  32  14  33  14  34  14  35  14  38  14  39  14  40  14
M  ISO  7  41  14  42  14  43  14  44   9  45  14  46  14  47  14
M  END
>  <minimizedAffinity>  (1) 
-6.48374367

>  <minimizedRMSD>  (1) 
0.865178764

$$$$
