
     RDKit          3D

 53 58  0  0  0  0  0  0  0  0999 V2000
   45.7910   33.6060   45.6110 C   0  0  0  0  0  0  0  0  0  0  0  0
   44.8660   34.6300   45.8780 C   0  0  0  0  0  0  0  0  0  0  0  0
   44.7850   35.4350   44.7910 C   0  0  0  0  0  0  0  0  0  0  0  0
   45.6240   34.9290   43.8900 N   0  0  0  0  0  0  0  0  0  0  0  0
   46.2350   33.8370   44.3570 N   0  0  0  0  0  0  0  0  0  0  0  0
   47.4840   31.7190   48.2390 C   0  0  0  0  0  0  0  0  0  0  0  0
   46.8260   30.4800   48.2000 C   0  0  0  0  0  0  0  0  0  0  0  0
   45.8090   30.3170   47.2660 C   0  0  0  0  0  0  0  0  0  0  0  0
   45.5340   31.3610   46.4730 N   0  0  0  0  0  0  0  0  0  0  0  0
   46.1640   32.5420   46.5140 C   0  0  0  0  0  0  0  0  0  0  0  0
   47.1420   32.7020   47.4090 N   0  0  0  0  0  0  0  0  0  0  0  0
   45.2290   28.1060   48.0680 C   0  0  0  0  0  0  0  0  0  0  0  0
   45.0440   29.0860   47.1160 C   0  0  0  0  0  0  0  0  0  0  0  0
   44.1610   28.8690   46.0810 C   0  0  0  0  0  0  0  0  0  0  0  0
   43.4390   27.6790   45.9600 C   0  0  0  0  0  0  0  0  0  0  0  0
   42.5390   27.2360   45.0630 N   0  0  0  0  0  0  0  0  0  0  0  0
   42.1710   25.9950   45.4570 C   0  0  0  0  0  0  0  0  0  0  0  0
   42.8430   25.6460   46.6130 C   0  0  0  0  0  0  0  0  0  0  0  0
   43.6580   26.7140   46.9460 C   0  0  0  0  0  0  0  0  0  0  0  0
   44.5380   26.9090   47.9930 C   0  0  0  0  0  0  0  0  0  0  0  0
   45.8510   35.4860   42.5670 C   0  0  0  0  0  0  0  0  0  0  0  0
   45.4400   34.5090   41.5150 C   0  0  0  0  0  0  0  0  0  0  0  0
   43.1200   35.1630   40.6610 C   0  0  0  0  0  0  0  0  0  0  0  0
   44.0120   34.3370   41.3040 C   0  0  0  0  0  0  0  0  0  0  0  0
   43.4920   33.1590   41.8370 C   0  0  0  0  0  0  0  0  0  0  0  0
   42.1670   32.8360   41.7310 C   0  0  0  0  0  0  0  0  0  0  0  0
   41.4030   31.7990   42.1350 N   0  0  0  0  0  0  0  0  0  0  0  0
   40.1320   31.9610   41.7740 C   0  0  0  0  0  0  0  0  0  0  0  0
   40.0120   33.1710   41.0880 C   0  0  0  0  0  0  0  0  0  0  0  0
   41.2830   33.6620   41.0900 C   0  0  0  0  0  0  0  0  0  0  0  0
   41.7890   34.8330   40.5570 C   0  0  0  0  0  0  0  0  0  0  0  0
   40.8880   35.7530   39.8610 C   0  0  0  0  0  0  0  0  0  0  0  0
   40.9650   35.9380   38.6250 O   0  0  0  0  0  0  0  0  0  0  0  0
   44.3017   34.7568   46.8137 H   0  0  0  0  0  0  0  0  0  0  0  0
   44.1526   36.3277   44.6762 H   0  0  0  0  0  0  0  0  0  0  0  0
   48.2939   31.8802   48.9657 H   0  0  0  0  0  0  0  0  0  0  0  0
   47.1053   29.6658   48.8849 H   0  0  0  0  0  0  0  0  0  0  0  0
   45.9330   28.2772   48.8957 H   0  0  0  0  0  0  0  0  0  0  0  0
   44.0201   29.6570   45.3266 H   0  0  0  0  0  0  0  0  0  0  0  0
   42.1961   27.7441   44.2353 H   0  0  0  0  0  0  0  0  0  0  0  0
   41.4434   25.3572   44.9337 H   0  0  0  0  0  0  0  0  0  0  0  0
   42.7482   24.6988   47.1642 H   0  0  0  0  0  0  0  0  0  0  0  0
   44.6867   26.1276   48.7528 H   0  0  0  0  0  0  0  0  0  0  0  0
   45.2618   36.4082   42.4557 H   0  0  0  0  0  0  0  0  0  0  0  0
   46.9224   35.7066   42.4510 H   0  0  0  0  0  0  0  0  0  0  0  0
   45.8798   34.8403   40.5627 H   0  0  0  0  0  0  0  0  0  0  0  0
   45.7985   33.5324   41.8725 H   0  0  0  0  0  0  0  0  0  0  0  0
   43.4780   36.1057   40.2215 H   0  0  0  0  0  0  0  0  0  0  0  0
   44.1686   32.4669   42.3596 H   0  0  0  0  0  0  0  0  0  0  0  0
   41.7586   30.9852   42.6567 H   0  0  0  0  0  0  0  0  0  0  0  0
   39.3120   31.2579   41.9818 H   0  0  0  0  0  0  0  0  0  0  0  0
   39.1081   33.6202   40.6507 H   0  0  0  0  0  0  0  0  0  0  0  0
   40.1244   36.2952   40.4380 H   0  0  0  0  0  0  0  0  0  0  0  0
  1  2  1  0
  1 10  1  0
  3  2  2  0
  4  5  1  0
  4  3  1  0
  5  1  2  0
  7  6  2  0
  8  7  1  0
  9 10  1  0
  9  8  2  0
 10 11  2  0
 11  6  1  0
 13  8  1  0
 13 12  2  0
 14 13  1  0
 15 14  2  0
 15 19  1  0
 16 17  1  0
 16 15  1  0
 17 18  2  0
 18 19  1  0
 19 20  2  0
 20 12  1  0
 21  4  1  0
 22 21  1  0
 23 24  2  0
 24 22  1  0
 24 25  1  0
 26 25  2  0
 26 27  1  0
 28 27  1  0
 29 30  1  0
 29 28  2  0
 30 26  1  0
 31 23  1  0
 31 30  2  0
 32 31  1  0
 33 32  2  0
  2 34  1  0
  3 35  1  0
  6 36  1  0
  7 37  1  0
 12 38  1  0
 14 39  1  0
 16 40  1  0
 17 41  1  0
 18 42  1  0
 20 43  1  0
 21 44  1  0
 21 45  1  0
 22 46  1  0
 22 47  1  0
 23 48  1  0
 25 49  1  0
 27 50  1  0
 28 51  1  0
 29 52  1  0
 32 53  1  0
M  END
>  <minimizedAffinity>  (1) 
-7.14138603

>  <minimizedRMSD>  (1) 
8.95816708

$$$$
