
     RDKit          3D

 49 53  0  0  1  0  0  0  0  0999 V2000
   46.0470   31.5860   47.5930 N   0  0  0  0  0  0  0  0  0  0  0  0
   46.9110   32.4370   48.3400 C   0  0  0  0  0  0  0  0  0  0  0  0
   48.3210   31.8730   48.4010 C   0  0  0  0  0  0  0  0  0  0  0  0
   48.2220   30.5930   49.2190 C   0  0  0  0  0  0  0  0  0  0  0  0
   47.3290   29.6670   48.4230 C   0  0  0  0  0  0  0  0  0  0  0  0
   45.9860   30.2950   48.0950 C   0  0  2  0  0  0  0  0  0  0  0  0
   44.4260   29.3760   46.2920 C   0  0  0  0  0  0  0  0  0  0  0  0
   45.1730   29.2810   47.4420 C   0  0  0  0  0  0  0  0  0  0  0  0
   45.0530   27.9910   47.9880 C   0  0  0  0  0  0  0  0  0  0  0  0
   44.3140   26.9380   47.4930 C   0  0  0  0  0  0  0  0  0  0  0  0
   44.1270   25.6790   47.9260 N   0  0  0  0  0  0  0  0  0  0  0  0
   43.3000   25.1040   47.0350 C   0  0  0  0  0  0  0  0  0  0  0  0
   42.9580   25.9910   46.0350 C   0  0  0  0  0  0  0  0  0  0  0  0
   43.6140   27.1650   46.3390 C   0  0  0  0  0  0  0  0  0  0  0  0
   43.6560   28.3920   45.7130 C   0  0  0  0  0  0  0  0  0  0  0  0
   45.9130   31.8890   46.2170 C   0  0  0  0  0  0  0  0  0  0  0  0
   46.2310   33.9210   44.6140 C   0  0  1  0  0  0  0  0  0  0  0  0
   45.2270   34.2730   45.5500 C   0  0  0  0  0  0  0  0  0  0  0  0
   46.2620   33.3280   46.0380 C   0  0  1  0  0  0  0  0  0  0  0  0
   44.7390   32.7670   42.9880 C   0  0  0  0  0  0  0  0  0  0  0  0
   46.0590   32.9650   43.4870 C   0  0  0  0  0  0  0  0  0  0  0  0
   47.0830   32.2650   42.9060 C   0  0  0  0  0  0  0  0  0  0  0  0
   46.7720   31.4110   41.8740 N   0  0  0  0  0  0  0  0  0  0  0  0
   45.5170   31.2400   41.4180 C   0  0  0  0  0  0  0  0  0  0  0  0
   44.4680   31.9200   41.9710 N   0  0  0  0  0  0  0  0  0  0  0  0
   46.9411   33.4269   47.8613 H   0  0  0  0  0  0  0  0  0  0  0  0
   46.5221   32.5136   49.3661 H   0  0  0  0  0  0  0  0  0  0  0  0
   48.6893   31.6526   47.3882 H   0  0  0  0  0  0  0  0  0  0  0  0
   49.0235   32.5885   48.8532 H   0  0  0  0  0  0  0  0  0  0  0  0
   49.2177   30.1449   49.3522 H   0  0  0  0  0  0  0  0  0  0  0  0
   47.8169   30.7834   50.2238 H   0  0  0  0  0  0  0  0  0  0  0  0
   47.8372   29.4092   47.4821 H   0  0  0  0  0  0  0  0  0  0  0  0
   47.1397   28.7747   49.0377 H   0  0  0  0  0  0  0  0  0  0  0  0
   45.4239   30.5683   49.0002 H   0  0  0  0  0  0  0  0  0  0  0  0
   44.4455   30.3474   45.7762 H   0  0  0  0  0  0  0  0  0  0  0  0
   45.6125   27.8003   48.9157 H   0  0  0  0  0  0  0  0  0  0  0  0
   44.5334   25.2445   48.7668 H   0  0  0  0  0  0  0  0  0  0  0  0
   42.9437   24.0651   47.0954 H   0  0  0  0  0  0  0  0  0  0  0  0
   42.2994   25.8011   45.1747 H   0  0  0  0  0  0  0  0  0  0  0  0
   43.0952   28.5785   44.7852 H   0  0  0  0  0  0  0  0  0  0  0  0
   46.5957   31.2608   45.6260 H   0  0  0  0  0  0  0  0  0  0  0  0
   44.8854   31.6946   45.8761 H   0  0  0  0  0  0  0  0  0  0  0  0
   46.8668   34.5366   43.9608 H   0  0  0  0  0  0  0  0  0  0  0  0
   45.2010   35.2967   45.9516 H   0  0  0  0  0  0  0  0  0  0  0  0
   44.1279   34.2368   45.5235 H   0  0  0  0  0  0  0  0  0  0  0  0
   46.9693   33.2861   46.8794 H   0  0  0  0  0  0  0  0  0  0  0  0
   43.9098   33.3246   43.4480 H   0  0  0  0  0  0  0  0  0  0  0  0
   48.1201   32.3821   43.2535 H   0  0  0  0  0  0  0  0  0  0  0  0
   45.3328   30.5424   40.5877 H   0  0  0  0  0  0  0  0  0  0  0  0
  1  6  1  0
  1  2  1  0
  2  3  1  0
  3  4  1  0
  5  4  1  0
  6  5  1  0
  7  8  2  0
  8  9  1  0
  8  6  1  0
 10 11  1  0
 10  9  2  0
 12 11  1  0
 13 14  1  0
 13 12  2  0
 14 10  1  0
 15  7  1  0
 15 14  2  0
 16  1  1  0
 17 18  1  0
 17 19  1  0
 18 19  1  0
 19 16  1  0
 20 21  2  0
 21 17  1  0
 22 21  1  0
 23 22  2  0
 24 23  1  0
 24 25  2  0
 25 20  1  0
  2 26  1  0
  2 27  1  0
  3 28  1  0
  3 29  1  0
  4 30  1  0
  4 31  1  0
  5 32  1  0
  5 33  1  0
  6 34  1  1
  7 35  1  0
  9 36  1  0
 11 37  1  0
 12 38  1  0
 13 39  1  0
 15 40  1  0
 16 41  1  0
 16 42  1  0
 17 43  1  6
 18 44  1  0
 18 45  1  0
 19 46  1  1
 20 47  1  0
 22 48  1  0
 24 49  1  0
M  ISO  8  26  13  27  13  28  13  29  13  30  13  31  13  32  13  33  13
M  ISO  8  34  13  35  14  36  14  37   9  38  14  39  14  40  14  41   8
M  ISO  8  42   8  43  13  44  13  45  13  46  13  47  14  48  14  49  14
M  END
>  <minimizedAffinity>  (1) 
-4.80452967

>  <minimizedRMSD>  (1) 
1.28538954

$$$$
