
     RDKit          3D

 42 46  0  0  1  0  0  0  0  0999 V2000
   46.9850   32.6710   44.2650 C   0  0  0  0  0  0  0  0  0  0  0  0
   47.0710   31.8910   45.4120 C   0  0  0  0  0  0  0  0  0  0  0  0
   46.3900   32.1740   46.5940 C   0  0  0  0  0  0  0  0  0  0  0  0
   45.5810   33.2770   46.6600 C   0  0  0  0  0  0  0  0  0  0  0  0
   45.4620   34.0800   45.5520 C   0  0  0  0  0  0  0  0  0  0  0  0
   44.6690   35.2030   45.5940 C   0  0  0  0  0  0  0  0  0  0  0  0
   44.5140   36.0510   44.5490 C   0  0  0  0  0  0  0  0  0  0  0  0
   45.2030   35.7250   43.4180 C   0  0  0  0  0  0  0  0  0  0  0  0
   46.0190   34.5920   43.3270 C   0  0  0  0  0  0  0  0  0  0  0  0
   46.1600   33.7610   44.3870 C   0  0  0  0  0  0  0  0  0  0  0  0
   46.6150   34.5110   41.9790 C   0  0  0  0  0  0  0  0  0  0  0  0
   47.9170   35.2890   41.8320 C   0  0  0  0  0  0  0  0  0  0  0  0
   48.5950   35.2090   40.6730 C   0  0  0  0  0  0  0  0  0  0  0  0
   48.1520   34.4610   39.6340 C   0  0  0  0  0  0  0  0  0  0  0  0
   46.5870   33.7930   40.4040 S   0  0  0  0  0  0  0  0  0  0  0  0
   47.7240   32.3020   43.1460 N   0  0  0  0  0  0  0  0  0  0  0  0
   49.8740   31.0930   42.5380 C   0  0  1  0  0  0  0  0  0  0  0  0
   48.7410   30.4230   41.7860 C   0  0  0  0  0  0  0  0  0  0  0  0
   48.5460   31.1180   43.1240 C   0  0  2  0  0  0  0  0  0  0  0  0
   51.6480   28.7830   44.8520 C   0  0  0  0  0  0  0  0  0  0  0  0
   52.9220   28.6760   44.2170 C   0  0  0  0  0  0  0  0  0  0  0  0
   53.1260   29.3950   43.0110 C   0  0  0  0  0  0  0  0  0  0  0  0
   52.1380   30.1400   42.5110 N   0  0  0  0  0  0  0  0  0  0  0  0
   50.9310   30.2180   43.1460 C   0  0  0  0  0  0  0  0  0  0  0  0
   50.7020   29.5440   44.3000 N   0  0  0  0  0  0  0  0  0  0  0  0
   47.7138   30.9988   45.3851 H   0  0  0  0  0  0  0  0  0  0  0  0
   46.5014   31.5159   47.4684 H   0  0  0  0  0  0  0  0  0  0  0  0
   45.0356   33.5159   47.5849 H   0  0  0  0  0  0  0  0  0  0  0  0
   44.1310   35.4248   46.5275 H   0  0  0  0  0  0  0  0  0  0  0  0
   43.8744   36.9439   44.6087 H   0  0  0  0  0  0  0  0  0  0  0  0
   45.1133   36.3810   42.5396 H   0  0  0  0  0  0  0  0  0  0  0  0
   48.2962   35.9059   42.6601 H   0  0  0  0  0  0  0  0  0  0  0  0
   49.5367   35.7673   40.5657 H   0  0  0  0  0  0  0  0  0  0  0  0
   48.5844   34.2964   38.6360 H   0  0  0  0  0  0  0  0  0  0  0  0
   47.6825   32.8947   42.3047 H   0  0  0  0  0  0  0  0  0  0  0  0
   50.6134   31.8709   42.2966 H   0  0  0  0  0  0  0  0  0  0  0  0
   48.3437   30.8694   40.8625 H   0  0  0  0  0  0  0  0  0  0  0  0
   48.5432   29.4222   41.3745 H   0  0  0  0  0  0  0  0  0  0  0  0
   48.1739   30.8449   44.1225 H   0  0  0  0  0  0  0  0  0  0  0  0
   51.4482   28.2423   45.7888 H   0  0  0  0  0  0  0  0  0  0  0  0
   53.7207   28.0554   44.6493 H   0  0  0  0  0  0  0  0  0  0  0  0
   54.0936   29.3387   42.4907 H   0  0  0  0  0  0  0  0  0  0  0  0
  1 10  1  0
  1  2  2  0
  2  3  1  0
  3  4  2  0
  5  6  2  0
  5  4  1  0
  7  6  1  0
  8  7  2  0
  9  8  1  0
  9 10  2  0
 10  5  1  0
 11  9  1  0
 12 11  2  0
 13 12  1  0
 14 15  1  0
 14 13  2  0
 15 11  1  0
 16  1  1  0
 17 19  1  0
 17 24  1  0
 18 17  1  0
 18 19  1  0
 19 16  1  0
 21 20  2  0
 22 21  1  0
 23 22  2  0
 23 24  1  0
 24 25  2  0
 25 20  1  0
  2 26  1  0
  3 27  1  0
  4 28  1  0
  6 29  1  0
  7 30  1  0
  8 31  1  0
 12 32  1  0
 13 33  1  0
 14 34  1  0
 16 35  1  0
 17 36  1  6
 18 37  1  0
 18 38  1  0
 19 39  1  1
 20 40  1  0
 21 41  1  0
 22 42  1  0
M  ISO  8  26  14  27  14  28  14  29  14  30  14  31  14  32  14  33  14
M  ISO  8  34  14  36  13  37  13  38  13  39  13  40  14  41  14  42  14
M  END
>  <minimizedAffinity>  (1) 
-5.82299995

>  <minimizedRMSD>  (1) 
2.50466323

$$$$
