
     RDKit          3D

 44 47  0  0  1  0  0  0  0  0999 V2000
   42.8090   34.3840   38.8950 C   0  0  1  0  0  0  0  0  0  0  0  0
   43.0430   35.1860   40.1650 C   0  0  1  0  0  0  0  0  0  0  0  0
   41.7960   35.6160   40.6550 O   0  0  0  0  0  0  0  0  0  0  0  0
   40.8980   35.9340   39.6330 C   0  0  0  0  0  0  0  0  0  0  0  0
   40.4470   34.7000   38.8740 C   0  0  2  0  0  0  0  0  0  0  0  0
   41.5510   33.6110   39.1180 C   0  0  1  0  0  0  0  0  0  0  0  0
   42.6820   35.2280   37.7830 O   0  0  0  0  0  0  0  0  0  0  0  0
   40.4870   34.9530   37.5100 O   0  0  0  0  0  0  0  0  0  0  0  0
   43.4810   34.2540   41.1190 O   0  0  0  0  0  0  0  0  0  0  0  0
   44.6140   34.3500   41.8250 C   0  0  0  0  0  0  0  0  0  0  0  0
   45.8550   34.4760   41.1830 C   0  0  0  0  0  0  0  0  0  0  0  0
   46.9970   34.5730   41.9620 C   0  0  0  0  0  0  0  0  0  0  0  0
   46.8790   34.5440   43.3410 N   0  0  0  0  0  0  0  0  0  0  0  0
   45.6640   34.4220   43.9230 C   0  0  0  0  0  0  0  0  0  0  0  0
   44.5380   34.3250   43.1680 N   0  0  0  0  0  0  0  0  0  0  0  0
   48.3560   34.6940   41.3530 C   0  0  0  0  0  0  0  0  0  0  0  0
   49.0680   36.0350   41.5290 C   0  0  0  0  0  0  0  0  0  0  0  0
   49.5310   34.7100   42.1630 C   0  0  0  0  0  0  0  0  0  0  0  0
   41.2960   32.5840   38.2850 O   0  0  0  0  0  0  0  0  0  0  0  0
   40.3670   31.6320   38.3390 C   0  0  0  0  0  0  0  0  0  0  0  0
   40.0320   30.8880   37.2980 O   0  0  0  0  0  0  0  0  0  0  0  0
   39.4350   31.0870   39.5030 C   0  0  0  0  0  0  0  0  0  0  0  0
   38.3710   31.5450   40.0600 C   0  0  0  0  0  0  0  0  0  0  0  0
   37.7770   30.8510   41.0650 C   0  0  0  0  0  0  0  0  0  0  0  0
   38.3890   29.6490   41.4310 C   0  0  0  0  0  0  0  0  0  0  0  0
   39.8820   29.5990   40.2170 S   0  0  0  0  0  0  0  0  0  0  0  0
   43.6583   33.7169   38.6862 H   0  0  0  0  0  0  0  0  0  0  0  0
   43.7318   36.0241   39.9830 H   0  0  0  0  0  0  0  0  0  0  0  0
   40.0165   36.4231   40.0732 H   0  0  0  0  0  0  0  0  0  0  0  0
   41.4093   36.6027   38.9249 H   0  0  0  0  0  0  0  0  0  0  0  0
   39.4374   34.4039   39.1949 H   0  0  0  0  0  0  0  0  0  0  0  0
   41.6047   33.1307   40.1061 H   0  0  0  0  0  0  0  0  0  0  0  0
   42.5419   36.1589   38.0895 H   0  0  0  0  0  0  0  0  0  0  0  0
   40.6398   35.9193   37.3579 H   0  0  0  0  0  0  0  0  0  0  0  0
   45.9202   34.4973   40.0851 H   0  0  0  0  0  0  0  0  0  0  0  0
   45.5864   34.4011   45.0201 H   0  0  0  0  0  0  0  0  0  0  0  0
   48.0597   34.0635   40.5018 H   0  0  0  0  0  0  0  0  0  0  0  0
   49.6292   36.4869   40.6979 H   0  0  0  0  0  0  0  0  0  0  0  0
   48.8055   37.0445   41.8783 H   0  0  0  0  0  0  0  0  0  0  0  0
   49.4451   34.5671   43.2503 H   0  0  0  0  0  0  0  0  0  0  0  0
   50.4749   34.1452   42.1557 H   0  0  0  0  0  0  0  0  0  0  0  0
   37.9413   32.4997   39.7225 H   0  0  0  0  0  0  0  0  0  0  0  0
   36.8658   31.2144   41.5627 H   0  0  0  0  0  0  0  0  0  0  0  0
   38.0959   28.9251   42.2056 H   0  0  0  0  0  0  0  0  0  0  0  0
  1  6  1  0
  1  2  1  0
  2  3  1  0
  2  9  1  0
  4  3  1  0
  5  6  1  0
  5  4  1  0
  7  1  1  0
  8  5  1  0
  9 10  1  0
 10 15  1  0
 11 10  2  0
 11 12  1  0
 12 13  2  0
 13 14  1  0
 15 14  2  0
 16 17  1  0
 16 12  1  0
 16 18  1  0
 17 18  1  0
 19 20  1  0
 19  6  1  0
 20 22  1  0
 21 20  2  0
 22 23  2  0
 22 26  1  0
 23 24  1  0
 24 25  2  0
 26 25  1  0
  1 27  1  6
  2 28  1  6
  4 29  1  0
  4 30  1  0
  5 31  1  1
  6 32  1  1
  7 33  1  0
  8 34  1  0
 11 35  1  0
 14 36  1  0
 16 37  1  0
 17 38  1  0
 17 39  1  0
 18 40  1  0
 18 41  1  0
 23 42  1  0
 24 43  1  0
 25 44  1  0
M  ISO  8  27  13  28  13  29  13  30  13  31  13  32  13  33   3  34   3
M  ISO  8  35  14  36  14  37  13  38  13  39  13  40  13  41  13  42  14
M  ISO  2  43  14  44  14
M  END
>  <minimizedAffinity>  (1) 
-6.23507071

>  <minimizedRMSD>  (1) 
1.8763696

$$$$
