
     RDKit          3D

 37 39  0  0  0  0  0  0  0  0999 V2000
   45.6400   31.5730   47.1050 C   0  0  0  0  0  0  0  0  0  0  0  0
   45.4970   32.0450   48.4290 C   0  0  0  0  0  0  0  0  0  0  0  0
   45.2730   31.2180   49.5120 C   0  0  0  0  0  0  0  0  0  0  0  0
   45.1870   29.8670   49.2680 C   0  0  0  0  0  0  0  0  0  0  0  0
   45.3280   29.4000   47.9620 C   0  0  0  0  0  0  0  0  0  0  0  0
   45.5430   30.2520   46.9610 N   0  0  0  0  0  0  0  0  0  0  0  0
   44.7830   36.5820   43.8520 C   0  0  0  0  0  0  0  0  0  0  0  0
   45.6860   36.2880   42.8110 C   0  0  0  0  0  0  0  0  0  0  0  0
   46.3360   35.0380   42.8390 C   0  0  0  0  0  0  0  0  0  0  0  0
   46.0670   34.1760   43.8600 N   0  0  0  0  0  0  0  0  0  0  0  0
   45.1940   34.5060   44.8330 C   0  0  0  0  0  0  0  0  0  0  0  0
   44.5470   35.7120   44.8330 N   0  0  0  0  0  0  0  0  0  0  0  0
   45.8740   32.5220   46.0350 C   0  0  0  0  0  0  0  0  0  0  0  0
   46.8900   32.3490   45.2970 O   0  0  0  0  0  0  0  0  0  0  0  0
   44.9230   33.5920   45.8990 N   0  0  0  0  0  0  0  0  0  0  0  0
   45.2390   27.9740   47.7140 C   0  0  0  0  0  0  0  0  0  0  0  0
   44.5780   27.1980   48.5480 C   0  0  0  0  0  0  0  0  0  0  0  0
   44.4020   25.7240   48.4310 C   0  0  0  0  0  0  0  0  0  0  0  0
   43.3930   25.3710   47.3830 C   0  0  0  0  0  0  0  0  0  0  0  0
   42.1160   25.8460   47.2090 C   0  0  0  0  0  0  0  0  0  0  0  0
   41.3540   25.3900   46.1740 C   0  0  0  0  0  0  0  0  0  0  0  0
   41.9410   24.4080   45.2940 C   0  0  0  0  0  0  0  0  0  0  0  0
   43.6710   24.1700   46.0390 S   0  0  0  0  0  0  0  0  0  0  0  0
   45.5678   33.1283   48.6065 H   0  0  0  0  0  0  0  0  0  0  0  0
   45.1676   31.6234   50.5291 H   0  0  0  0  0  0  0  0  0  0  0  0
   45.0090   29.1629   50.0942 H   0  0  0  0  0  0  0  0  0  0  0  0
   44.2617   37.5506   43.8547 H   0  0  0  0  0  0  0  0  0  0  0  0
   45.8771   37.0101   42.0035 H   0  0  0  0  0  0  0  0  0  0  0  0
   47.0497   34.7621   42.0488 H   0  0  0  0  0  0  0  0  0  0  0  0
   44.1088   33.6925   46.5218 H   0  0  0  0  0  0  0  0  0  0  0  0
   45.7245   27.5396   46.8277 H   0  0  0  0  0  0  0  0  0  0  0  0
   44.1103   27.6864   49.4156 H   0  0  0  0  0  0  0  0  0  0  0  0
   45.3675   25.2692   48.1645 H   0  0  0  0  0  0  0  0  0  0  0  0
   44.0417   25.3427   49.3978 H   0  0  0  0  0  0  0  0  0  0  0  0
   41.7080   26.5942   47.9045 H   0  0  0  0  0  0  0  0  0  0  0  0
   40.3293   25.7572   46.0156 H   0  0  0  0  0  0  0  0  0  0  0  0
   41.4976   23.9203   44.4134 H   0  0  0  0  0  0  0  0  0  0  0  0
  1  2  2  0
  2  3  1  0
  4  3  2  0
  5  4  1  0
  6  1  1  0
  6  5  2  0
  7 12  2  0
  8  9  2  0
  8  7  1  0
  9 10  1  0
 10 11  2  0
 11 15  1  0
 12 11  1  0
 13  1  1  0
 14 13  2  0
 15 13  1  0
 16  5  1  0
 16 17  2  0
 18 17  1  0
 19 18  1  0
 20 19  2  0
 21 20  1  0
 22 23  1  0
 22 21  2  0
 23 19  1  0
  2 24  1  0
  3 25  1  0
  4 26  1  0
  7 27  1  0
  8 28  1  0
  9 29  1  0
 15 30  1  0
 16 31  1  0
 17 32  1  0
 18 33  1  0
 18 34  1  0
 20 35  1  0
 21 36  1  0
 22 37  1  0
M  ISO  8  24  14  25  14  26  14  27  14  28  14  29  14  33   8  34   8
M  ISO  3  35  14  36  14  37  14
M  END
>  <minimizedAffinity>  (1) 
-5.68999147

>  <minimizedRMSD>  (1) 
1.70086062

$$$$
