
     RDKit          3D

 26 28  0  0  1  0  0  0  0  0999 V2000
   46.6270   35.0880   41.9320 C   0  0  1  0  0  0  0  0  0  0  0  0
   48.1560   35.3460   41.9450 C   0  0  0  0  0  0  0  0  0  0  0  0
   47.4500   34.1030   41.3250 C   0  0  2  0  0  0  0  0  0  0  0  0
   44.6890   35.3140   45.1330 C   0  0  0  0  0  0  0  0  0  0  0  0
   45.1480   35.6680   43.8220 C   0  0  0  0  0  0  0  0  0  0  0  0
   46.1260   34.8370   43.3410 C   0  0  0  0  0  0  0  0  0  0  0  0
   46.6080   33.7660   44.0750 N   0  0  0  0  0  0  0  0  0  0  0  0
   46.1360   33.4890   45.2960 C   0  0  0  0  0  0  0  0  0  0  0  0
   45.1640   34.2730   45.8310 N   0  0  0  0  0  0  0  0  0  0  0  0
   44.6490   36.7800   43.1010 N   0  0  0  0  0  0  0  0  0  0  0  0
   47.4650   33.9760   39.8720 C   0  0  0  0  0  0  0  0  0  0  0  0
   48.2760   34.4220   38.8890 C   0  0  0  0  0  0  0  0  0  0  0  0
   47.9940   34.1120   37.5800 C   0  0  0  0  0  0  0  0  0  0  0  0
   46.8460   33.3260   37.3520 C   0  0  0  0  0  0  0  0  0  0  0  0
   46.1780   33.0390   39.0300 S   0  0  0  0  0  0  0  0  0  0  0  0
   45.7244   35.5943   41.5593 H   0  0  0  0  0  0  0  0  0  0  0  0
   48.6039   36.1196   41.3039 H   0  0  0  0  0  0  0  0  0  0  0  0
   48.9372   35.5435   42.6938 H   0  0  0  0  0  0  0  0  0  0  0  0
   47.5401   33.0147   41.4573 H   0  0  0  0  0  0  0  0  0  0  0  0
   43.9028   35.9314   45.5920 H   0  0  0  0  0  0  0  0  0  0  0  0
   46.5319   32.6331   45.8622 H   0  0  0  0  0  0  0  0  0  0  0  0
   45.0139   36.9901   42.1610 H   0  0  0  0  0  0  0  0  0  0  0  0
   43.9212   37.3787   43.5166 H   0  0  0  0  0  0  0  0  0  0  0  0
   49.1586   35.0308   39.1347 H   0  0  0  0  0  0  0  0  0  0  0  0
   48.6310   34.4592   36.7531 H   0  0  0  0  0  0  0  0  0  0  0  0
   46.4463   32.9694   36.3912 H   0  0  0  0  0  0  0  0  0  0  0  0
  1  2  1  0
  1  6  1  0
  3  1  1  0
  3  2  1  0
  4  9  2  0
  5  4  1  0
  6  5  2  0
  6  7  1  0
  7  8  2  0
  8  9  1  0
 10  5  1  0
 11  3  1  0
 12 11  2  0
 13 12  1  0
 14 13  2  0
 14 15  1  0
 15 11  1  0
  1 16  1  6
  2 17  1  0
  2 18  1  0
  3 19  1  1
  4 20  1  0
  8 21  1  0
 10 22  1  0
 10 23  1  0
 12 24  1  0
 13 25  1  0
 14 26  1  0
M  ISO  8  16  13  17  13  18  13  19  13  20  14  21  14  24  14  25  14
M  ISO  1  26  14
M  END
>  <minimizedAffinity>  (1) 
-5.10379505

>  <minimizedRMSD>  (1) 
0.459690452

$$$$
