
     RDKit          3D

 33 36  0  0  0  0  0  0  0  0999 V2000
   47.6320   35.0450   42.0600 C   0  0  0  0  0  0  0  0  0  0  0  0
   48.7540   35.6060   42.1460 O   0  0  0  0  0  0  0  0  0  0  0  0
   46.2090   33.6910   40.4520 C   0  0  0  0  0  0  0  0  0  0  0  0
   47.3410   34.4290   40.7410 C   0  0  0  0  0  0  0  0  0  0  0  0
   48.3010   34.6130   39.7530 C   0  0  0  0  0  0  0  0  0  0  0  0
   48.1830   34.0880   38.4760 C   0  0  0  0  0  0  0  0  0  0  0  0
   48.9610   34.1290   37.3770 N   0  0  0  0  0  0  0  0  0  0  0  0
   48.3640   33.4400   36.3960 C   0  0  0  0  0  0  0  0  0  0  0  0
   47.1570   32.9410   36.8910 C   0  0  0  0  0  0  0  0  0  0  0  0
   47.0470   33.3550   38.2120 C   0  0  0  0  0  0  0  0  0  0  0  0
   46.0920   33.1660   39.1740 C   0  0  0  0  0  0  0  0  0  0  0  0
   46.6460   34.9570   43.1010 C   0  0  0  0  0  0  0  0  0  0  0  0
   45.5950   35.8500   43.0340 C   0  0  0  0  0  0  0  0  0  0  0  0
   44.6310   35.7600   44.0630 C   0  0  0  0  0  0  0  0  0  0  0  0
   44.7850   34.8190   45.0430 N   0  0  0  0  0  0  0  0  0  0  0  0
   45.8240   33.9850   45.0500 C   0  0  0  0  0  0  0  0  0  0  0  0
   46.7590   34.0480   44.0810 N   0  0  0  0  0  0  0  0  0  0  0  0
   45.8800   33.0300   46.1390 C   0  0  0  0  0  0  0  0  0  0  0  0
   45.2970   33.0040   47.3580 C   0  0  0  0  0  0  0  0  0  0  0  0
   45.5280   31.9630   48.2020 C   0  0  0  0  0  0  0  0  0  0  0  0
   46.3660   30.9500   47.7710 C   0  0  0  0  0  0  0  0  0  0  0  0
   46.8740   31.4460   46.1140 S   0  0  0  0  0  0  0  0  0  0  0  0
   45.4283   33.5259   41.2091 H   0  0  0  0  0  0  0  0  0  0  0  0
   49.1968   35.2033   39.9962 H   0  0  0  0  0  0  0  0  0  0  0  0
   49.8678   34.6119   37.3032 H   0  0  0  0  0  0  0  0  0  0  0  0
   48.7556   33.2928   35.3787 H   0  0  0  0  0  0  0  0  0  0  0  0
   46.4277   32.3321   36.3365 H   0  0  0  0  0  0  0  0  0  0  0  0
   45.1982   32.5755   38.9240 H   0  0  0  0  0  0  0  0  0  0  0  0
   45.5128   36.5903   42.2245 H   0  0  0  0  0  0  0  0  0  0  0  0
   43.7661   36.4395   44.0756 H   0  0  0  0  0  0  0  0  0  0  0  0
   44.6348   33.8259   47.6679 H   0  0  0  0  0  0  0  0  0  0  0  0
   45.0623   31.9274   49.1979 H   0  0  0  0  0  0  0  0  0  0  0  0
   46.6580   30.0419   48.3188 H   0  0  0  0  0  0  0  0  0  0  0  0
  1  2  2  0
  1 12  1  0
  3  4  2  0
  4  1  1  0
  5  4  1  0
  6  5  2  0
  7  6  1  0
  8  9  2  0
  8  7  1  0
  9 10  1  0
 10  6  1  0
 10 11  2  0
 11  3  1  0
 12 17  1  0
 13 12  2  0
 13 14  1  0
 14 15  2  0
 15 16  1  0
 16 18  1  0
 17 16  2  0
 18 19  2  0
 19 20  1  0
 21 20  2  0
 22 18  1  0
 22 21  1  0
  3 23  1  0
  5 24  1  0
  7 25  1  0
  8 26  1  0
  9 27  1  0
 11 28  1  0
 13 29  1  0
 14 30  1  0
 19 31  1  0
 20 32  1  0
 21 33  1  0
M  ISO  8  23  14  24  14  25   9  26  14  27  14  28  14  29  14  30  14
M  ISO  3  31  14  32  14  33  14
M  END
>  <minimizedAffinity>  (1) 
-6.3041153

>  <minimizedRMSD>  (1) 
0.569982231

$$$$
