
     RDKit          3D

 20 21  0  0  0  0  0  0  0  0999 V2000
   44.4770   35.9710   44.6980 C   0  0  0  0  0  0  0  0  0  0  0  0
   45.2100   35.9280   43.4860 C   0  0  0  0  0  0  0  0  0  0  0  0
   46.1140   34.8870   43.3620 C   0  0  0  0  0  0  0  0  0  0  0  0
   46.2680   33.9780   44.3500 N   0  0  0  0  0  0  0  0  0  0  0  0
   45.5440   34.0590   45.4930 C   0  0  0  0  0  0  0  0  0  0  0  0
   44.6590   35.0560   45.6470 N   0  0  0  0  0  0  0  0  0  0  0  0
   46.8850   34.7950   42.1520 C   0  0  0  0  0  0  0  0  0  0  0  0
   48.0900   35.3390   41.7950 C   0  0  0  0  0  0  0  0  0  0  0  0
   48.5890   35.0690   40.5430 C   0  0  0  0  0  0  0  0  0  0  0  0
   47.8310   34.2550   39.7150 C   0  0  0  0  0  0  0  0  0  0  0  0
   46.3470   33.8630   40.7750 S   0  0  0  0  0  0  0  0  0  0  0  0
   45.8410   32.9810   46.4680 C   0  0  0  0  0  0  0  0  0  0  0  0
   45.0040   33.0190   47.5510 F   0  0  0  0  0  0  0  0  0  0  0  0
   47.1530   33.0810   46.9030 F   0  0  0  0  0  0  0  0  0  0  0  0
   45.7730   31.7420   45.8160 F   0  0  0  0  0  0  0  0  0  0  0  0
   43.7440   36.7756   44.8573 H   0  0  0  0  0  0  0  0  0  0  0  0
   45.0692   36.6762   42.6921 H   0  0  0  0  0  0  0  0  0  0  0  0
   48.6469   35.9786   42.4955 H   0  0  0  0  0  0  0  0  0  0  0  0
   49.5525   35.4827   40.2107 H   0  0  0  0  0  0  0  0  0  0  0  0
   48.0501   33.9233   38.6893 H   0  0  0  0  0  0  0  0  0  0  0  0
  1  6  2  0
  2  1  1  0
  3  2  2  0
  3  4  1  0
  4  5  2  0
  5  6  1  0
  5 12  1  0
  7  3  1  0
  8  7  2  0
  9  8  1  0
 10  9  2  0
 10 11  1  0
 11  7  1  0
 12 14  1  0
 12 13  1  0
 15 12  1  0
  1 16  1  0
  2 17  1  0
  8 18  1  0
  9 19  1  0
 10 20  1  0
M  ISO  5  16  14  17  14  18  14  19  14  20  14
M  END
>  <minimizedAffinity>  (1) 
-5.4603219

>  <minimizedRMSD>  (1) 
0.469860464

$$$$
