
     RDKit          3D

 43 46  0  0  1  0  0  0  0  0999 V2000
   47.1360   34.8070   42.0070 C   0  0  2  0  0  0  0  0  0  0  0  0
   46.3680   34.2880   40.7910 C   0  0  0  0  0  0  0  0  0  0  0  0
   47.5640   34.1300   39.8310 C   0  0  0  0  0  0  0  0  0  0  0  0
   48.6960   33.6770   40.6990 C   0  0  1  0  0  0  0  0  0  0  0  0
   48.1860   33.7330   42.1090 C   0  0  0  0  0  0  0  0  0  0  0  0
   44.5640   35.8080   44.5700 C   0  0  0  0  0  0  0  0  0  0  0  0
   45.2950   35.8460   43.3730 C   0  0  0  0  0  0  0  0  0  0  0  0
   46.2710   34.8670   43.2160 C   0  0  0  0  0  0  0  0  0  0  0  0
   46.4950   33.9060   44.2130 N   0  0  0  0  0  0  0  0  0  0  0  0
   45.7510   33.9290   45.3480 C   0  0  0  0  0  0  0  0  0  0  0  0
   44.7910   34.8780   45.5200 N   0  0  0  0  0  0  0  0  0  0  0  0
   49.1490   32.2570   40.4450 C   0  0  2  0  0  0  0  0  0  0  0  0
   50.3520   31.8370   41.1560 C   0  0  0  0  0  0  0  0  0  0  0  0
   50.3580   31.9650   39.6710 C   0  0  1  0  0  0  0  0  0  0  0  0
   50.3710   30.7730   38.9100 O   0  0  0  0  0  0  0  0  0  0  0  0
   50.8320   30.8950   36.3490 O   0  0  0  0  0  0  0  0  0  0  0  0
   51.5170   30.9320   37.6950 P   0  0  1  0  0  0  0  0  0  0  0  0
   52.2960   32.4570   37.8260 O   0  0  0  0  0  0  0  0  0  0  0  0
   52.7200   29.7880   37.7050 O   0  0  0  0  0  0  0  0  0  0  0  0
   53.8880   30.0310   36.9890 C   0  0  0  0  0  0  0  0  0  0  0  0
   55.0700   30.6420   37.2040 C   0  0  0  0  0  0  0  0  0  0  0  0
   56.0240   30.6960   36.2490 C   0  0  0  0  0  0  0  0  0  0  0  0
   55.6870   30.0710   35.0290 C   0  0  0  0  0  0  0  0  0  0  0  0
   53.9450   29.4240   35.3620 S   0  0  0  0  0  0  0  0  0  0  0  0
   47.5268   35.8316   41.9209 H   0  0  0  0  0  0  0  0  0  0  0  0
   45.8668   33.3299   40.9929 H   0  0  0  0  0  0  0  0  0  0  0  0
   45.5440   34.9233   40.4341 H   0  0  0  0  0  0  0  0  0  0  0  0
   47.8045   35.0900   39.3508 H   0  0  0  0  0  0  0  0  0  0  0  0
   47.3530   33.4178   39.0197 H   0  0  0  0  0  0  0  0  0  0  0  0
   49.5593   34.3263   40.4912 H   0  0  0  0  0  0  0  0  0  0  0  0
   48.9824   34.0155   42.8133 H   0  0  0  0  0  0  0  0  0  0  0  0
   47.8084   32.7717   42.4874 H   0  0  0  0  0  0  0  0  0  0  0  0
   43.7803   36.5612   44.7391 H   0  0  0  0  0  0  0  0  0  0  0  0
   45.1069   36.6074   42.6017 H   0  0  0  0  0  0  0  0  0  0  0  0
   45.9248   33.1774   46.1321 H   0  0  0  0  0  0  0  0  0  0  0  0
   48.1100   31.9092   40.3473 H   0  0  0  0  0  0  0  0  0  0  0  0
   50.9073   32.5581   41.7737 H   0  0  0  0  0  0  0  0  0  0  0  0
   50.5969   31.0382   41.8715 H   0  0  0  0  0  0  0  0  0  0  0  0
   50.9693   32.5087   38.9356 H   0  0  0  0  0  0  0  0  0  0  0  0
   52.4133   32.6866   38.7818 H   0  0  0  0  0  0  0  0  0  0  0  0
   55.2627   31.1083   38.1815 H   0  0  0  0  0  0  0  0  0  0  0  0
   56.9930   31.1910   36.4104 H   0  0  0  0  0  0  0  0  0  0  0  0
   56.2892   29.9829   34.1127 H   0  0  0  0  0  0  0  0  0  0  0  0
  1  5  1  0
  1  8  1  0
  2  1  1  0
  3  4  1  0
  3  2  1  0
  4  5  1  0
  6 11  2  0
  7  6  1  0
  8  7  2  0
  8  9  1  0
  9 10  2  0
 10 11  1  0
 12  4  1  0
 12 13  1  0
 14 12  1  0
 14 13  1  0
 15 14  1  0
 17 16  2  0
 17 19  1  0
 17 18  1  0
 17 15  1  0
 20 21  2  0
 20 19  1  0
 22 21  1  0
 23 24  1  0
 23 22  2  0
 24 20  1  0
  1 25  1  6
  2 26  1  0
  2 27  1  0
  3 28  1  0
  3 29  1  0
  4 30  1  1
  5 31  1  0
  5 32  1  0
  6 33  1  0
  7 34  1  0
 10 35  1  0
 12 36  1  6
 13 37  1  0
 13 38  1  0
 14 39  1  1
 18 40  1  0
 21 41  1  0
 22 42  1  0
 23 43  1  0
M  ISO  8  25  13  26  13  27  13  28  13  29  13  30  13  31  13  32  13
M  ISO  8  33  14  34  14  35  14  36  13  37  13  38  13  39  13  40   3
M  ISO  3  41  14  42  14  43  14
M  END
>  <minimizedAffinity>  (1) 
-5.50344038

>  <minimizedRMSD>  (1) 
1.64113212

$$$$
