
     RDKit          3D

 34 36  0  0  0  0  0  0  0  0999 V2000
   44.1230   33.5150   40.6410 C   0  0  0  0  0  0  0  0  0  0  0  0
   44.4430   34.6660   41.3790 C   0  0  0  0  0  0  0  0  0  0  0  0
   43.4680   35.6780   41.5250 C   0  0  0  0  0  0  0  0  0  0  0  0
   42.2550   35.4750   40.9320 N   0  0  0  0  0  0  0  0  0  0  0  0
   41.9920   34.3540   40.2330 C   0  0  0  0  0  0  0  0  0  0  0  0
   42.9170   33.4100   40.1020 N   0  0  0  0  0  0  0  0  0  0  0  0
   39.7880   33.5980   41.7270 F   0  0  0  0  0  0  0  0  0  0  0  0
   39.5880   33.8180   40.3980 C   0  0  0  0  0  0  0  0  0  0  0  0
   40.6720   34.1990   39.6210 C   0  0  0  0  0  0  0  0  0  0  0  0
   40.5390   34.4370   38.2790 C   0  0  0  0  0  0  0  0  0  0  0  0
   39.2800   34.2880   37.7060 C   0  0  0  0  0  0  0  0  0  0  0  0
   38.1730   33.9050   38.4690 C   0  0  0  0  0  0  0  0  0  0  0  0
   38.3440   33.6690   39.8400 C   0  0  0  0  0  0  0  0  0  0  0  0
   45.7530   34.8570   42.0040 C   0  0  0  0  0  0  0  0  0  0  0  0
   46.9020   34.8190   41.3200 C   0  0  0  0  0  0  0  0  0  0  0  0
   48.1960   35.0300   42.0730 C   0  0  0  0  0  0  0  0  0  0  0  0
   49.1840   34.0120   41.8470 C   0  0  0  0  0  0  0  0  0  0  0  0
   50.3970   33.8140   42.4260 C   0  0  0  0  0  0  0  0  0  0  0  0
   51.1850   32.7580   42.0470 C   0  0  0  0  0  0  0  0  0  0  0  0
   50.6600   31.9010   41.0280 C   0  0  0  0  0  0  0  0  0  0  0  0
   48.9820   32.6520   40.6160 S   0  0  0  0  0  0  0  0  0  0  0  0
   44.8632   32.7116   40.5121 H   0  0  0  0  0  0  0  0  0  0  0  0
   43.6782   36.5950   42.0950 H   0  0  0  0  0  0  0  0  0  0  0  0
   41.4044   34.7379   37.6703 H   0  0  0  0  0  0  0  0  0  0  0  0
   39.1529   34.4756   36.6296 H   0  0  0  0  0  0  0  0  0  0  0  0
   37.1840   33.7907   38.0011 H   0  0  0  0  0  0  0  0  0  0  0  0
   37.4887   33.3672   40.4624 H   0  0  0  0  0  0  0  0  0  0  0  0
   45.7945   35.0405   43.0878 H   0  0  0  0  0  0  0  0  0  0  0  0
   46.9053   34.6384   40.2349 H   0  0  0  0  0  0  0  0  0  0  0  0
   48.6205   35.9967   41.7644 H   0  0  0  0  0  0  0  0  0  0  0  0
   47.9467   34.9950   43.1438 H   0  0  0  0  0  0  0  0  0  0  0  0
   50.7496   34.5062   43.2048 H   0  0  0  0  0  0  0  0  0  0  0  0
   52.1700   32.5786   42.5026 H   0  0  0  0  0  0  0  0  0  0  0  0
   51.1285   31.0089   40.5868 H   0  0  0  0  0  0  0  0  0  0  0  0
  1  2  2  0
  2  3  1  0
  2 14  1  0
  4  3  2  0
  5  4  1  0
  6  5  2  0
  6  1  1  0
  8  7  1  0
  9  5  1  0
  9  8  2  0
 10  9  1  0
 11 10  2  0
 11 12  1  0
 12 13  2  0
 13  8  1  0
 15 14  2  0
 15 16  1  0
 17 16  1  0
 17 18  2  0
 19 18  1  0
 20 19  2  0
 21 20  1  0
 21 17  1  0
  1 22  1  0
  3 23  1  0
 10 24  1  0
 11 25  1  0
 12 26  1  0
 13 27  1  0
 14 28  1  0
 15 29  1  0
 16 30  1  0
 16 31  1  0
 18 32  1  0
 19 33  1  0
 20 34  1  0
M  ISO  8  22  14  23  14  24  14  25  14  26  14  27  14  30   8  31   8
M  ISO  3  32  14  33  14  34  14
M  END
>  <minimizedAffinity>  (1) 
-6.09572601

>  <minimizedRMSD>  (1) 
0.809273005

$$$$
