
     RDKit          3D

 36 39  0  0  0  0  0  0  0  0999 V2000
   46.7730   31.9640   45.8780 S   0  0  0  0  0  0  0  0  0  0  0  0
   47.7210   31.2330   47.1890 C   0  0  0  0  0  0  0  0  0  0  0  0
   47.9930   32.0050   48.2960 C   0  0  0  0  0  0  0  0  0  0  0  0
   48.7230   31.4490   49.3100 C   0  0  0  0  0  0  0  0  0  0  0  0
   49.1950   30.1410   49.2570 C   0  0  0  0  0  0  0  0  0  0  0  0
   49.9090   29.6280   50.2720 N   0  0  0  0  0  0  0  0  0  0  0  0
   50.3740   28.3650   50.2430 C   0  0  0  0  0  0  0  0  0  0  0  0
   50.1110   27.5890   49.1520 C   0  0  0  0  0  0  0  0  0  0  0  0
   49.3760   28.1040   48.0960 C   0  0  0  0  0  0  0  0  0  0  0  0
   48.8840   29.4180   48.1090 C   0  0  0  0  0  0  0  0  0  0  0  0
   48.1560   29.9280   47.0680 C   0  0  0  0  0  0  0  0  0  0  0  0
   45.5800   33.1400   46.5270 C   0  0  0  0  0  0  0  0  0  0  0  0
   44.4030   36.1940   44.7420 C   0  0  0  0  0  0  0  0  0  0  0  0
   45.1280   36.0840   43.5360 C   0  0  0  0  0  0  0  0  0  0  0  0
   45.9880   34.9860   43.3660 C   0  0  0  0  0  0  0  0  0  0  0  0
   46.1070   34.0540   44.3590 N   0  0  0  0  0  0  0  0  0  0  0  0
   45.3900   34.1980   45.5040 C   0  0  0  0  0  0  0  0  0  0  0  0
   44.5630   35.2450   45.6830 N   0  0  0  0  0  0  0  0  0  0  0  0
   46.7560   34.7980   42.1820 C   0  0  0  0  0  0  0  0  0  0  0  0
   47.9710   35.2750   41.8460 C   0  0  0  0  0  0  0  0  0  0  0  0
   48.5720   35.0030   40.6690 C   0  0  0  0  0  0  0  0  0  0  0  0
   47.7720   34.1380   39.7990 C   0  0  0  0  0  0  0  0  0  0  0  0
   46.2530   33.8150   40.7620 S   0  0  0  0  0  0  0  0  0  0  0  0
   47.6325   33.0421   48.3631 H   0  0  0  0  0  0  0  0  0  0  0  0
   48.9450   32.0574   50.1992 H   0  0  0  0  0  0  0  0  0  0  0  0
   50.9569   27.9649   51.0857 H   0  0  0  0  0  0  0  0  0  0  0  0
   50.4824   26.5544   49.1106 H   0  0  0  0  0  0  0  0  0  0  0  0
   49.1728   27.4652   47.2238 H   0  0  0  0  0  0  0  0  0  0  0  0
   47.9280   29.3260   46.1761 H   0  0  0  0  0  0  0  0  0  0  0  0
   44.6237   32.6336   46.7248 H   0  0  0  0  0  0  0  0  0  0  0  0
   45.9411   33.5755   47.4704 H   0  0  0  0  0  0  0  0  0  0  0  0
   43.7198   37.0397   44.9098 H   0  0  0  0  0  0  0  0  0  0  0  0
   45.0220   36.8419   42.7459 H   0  0  0  0  0  0  0  0  0  0  0  0
   48.4984   35.9174   42.5665 H   0  0  0  0  0  0  0  0  0  0  0  0
   49.5628   35.3917   40.3909 H   0  0  0  0  0  0  0  0  0  0  0  0
   48.0272   33.7675   38.7952 H   0  0  0  0  0  0  0  0  0  0  0  0
  1 12  1  0
  1  2  1  0
  2  3  2  0
  3  4  1  0
  5  4  2  0
  5  6  1  0
  7  6  2  0
  8  7  1  0
  9 10  1  0
  9  8  2  0
 10  5  1  0
 11  2  1  0
 11 10  2  0
 13 18  2  0
 14 13  1  0
 15 14  2  0
 15 16  1  0
 16 17  2  0
 17 18  1  0
 17 12  1  0
 19 15  1  0
 20 19  2  0
 21 20  1  0
 22 21  2  0
 22 23  1  0
 23 19  1  0
  3 24  1  0
  4 25  1  0
  7 26  1  0
  8 27  1  0
  9 28  1  0
 11 29  1  0
 12 30  1  0
 12 31  1  0
 13 32  1  0
 14 33  1  0
 20 34  1  0
 21 35  1  0
 22 36  1  0
M  ISO  8  24  14  25  14  26  14  27  14  28  14  29  14  30   8  31   8
M  ISO  5  32  14  33  14  34  14  35  14  36  14
M  END
>  <minimizedAffinity>  (1) 
-6.14310122

>  <minimizedRMSD>  (1) 
0.671243489

$$$$
