
     RDKit          3D

 36 38  0  0  1  0  0  0  0  0999 V2000
   46.9940   30.4030   48.1530 C   0  0  2  0  0  0  0  0  0  0  0  0
   45.5660   30.7100   48.4060 C   0  0  2  0  0  0  0  0  0  0  0  0
   44.8510   29.8300   47.4510 C   0  0  0  0  0  0  0  0  0  0  0  0
   45.6290   28.6960   47.2680 O   0  0  0  0  0  0  0  0  0  0  0  0
   46.8470   28.9030   47.8280 C   0  0  0  0  0  0  0  0  0  0  0  0
   45.2440   32.0430   48.2510 O   0  0  0  0  0  0  0  0  0  0  0  0
   47.2790   32.8550   46.9000 O   0  0  0  0  0  0  0  0  0  0  0  0
   45.8010   32.5960   46.7810 P   0  0  1  0  0  0  0  0  0  0  0  0
   45.5590   31.3970   45.6060 O   0  0  0  0  0  0  0  0  0  0  0  0
   45.0490   34.0580   46.3110 O   0  0  0  0  0  0  0  0  0  0  0  0
   44.9750   36.3250   43.5650 C   0  0  0  0  0  0  0  0  0  0  0  0
   45.0180   35.4860   42.4190 C   0  0  0  0  0  0  0  0  0  0  0  0
   45.0740   34.1070   42.6470 C   0  0  0  0  0  0  0  0  0  0  0  0
   45.0830   33.6650   43.9220 N   0  0  0  0  0  0  0  0  0  0  0  0
   45.0410   34.5030   44.9850 C   0  0  0  0  0  0  0  0  0  0  0  0
   44.9870   35.8310   44.7910 N   0  0  0  0  0  0  0  0  0  0  0  0
   44.9230   37.6870   43.3320 O   0  0  0  0  0  0  0  0  0  0  0  0
   47.7860   30.6280   49.2690 O   0  0  0  0  0  0  0  0  0  0  0  0
   48.9880   30.8600   49.5090 C   0  0  0  0  0  0  0  0  0  0  0  0
   49.9610   31.9690   49.6140 C   0  0  0  0  0  0  0  0  0  0  0  0
   51.2600   31.6900   49.9260 C   0  0  0  0  0  0  0  0  0  0  0  0
   51.6680   30.3350   50.1480 C   0  0  0  0  0  0  0  0  0  0  0  0
   50.1070   29.3800   49.9000 S   0  0  0  0  0  0  0  0  0  0  0  0
   47.4864   31.0125   47.3809 H   0  0  0  0  0  0  0  0  0  0  0  0
   45.2862   30.5234   49.4533 H   0  0  0  0  0  0  0  0  0  0  0  0
   43.8692   29.5501   47.8606 H   0  0  0  0  0  0  0  0  0  0  0  0
   44.6881   30.3473   46.4940 H   0  0  0  0  0  0  0  0  0  0  0  0
   46.9340   28.3138   48.7528 H   0  0  0  0  0  0  0  0  0  0  0  0
   47.6380   28.5918   47.1297 H   0  0  0  0  0  0  0  0  0  0  0  0
   45.3840   30.5299   46.0505 H   0  0  0  0  0  0  0  0  0  0  0  0
   45.0077   35.9014   41.4005 H   0  0  0  0  0  0  0  0  0  0  0  0
   45.1099   33.3989   41.8060 H   0  0  0  0  0  0  0  0  0  0  0  0
   44.9151   38.0304   42.4035 H   0  0  0  0  0  0  0  0  0  0  0  0
   49.6411   33.0074   49.4425 H   0  0  0  0  0  0  0  0  0  0  0  0
   51.9936   32.5056   50.0070 H   0  0  0  0  0  0  0  0  0  0  0  0
   52.6682   29.9555   50.4040 H   0  0  0  0  0  0  0  0  0  0  0  0
  1  2  1  0
  1 18  1  0
  3  2  1  0
  4  3  1  0
  4  5  1  0
  5  1  1  0
  6  2  1  0
  8  7  2  0
  8  6  1  0
  9  8  1  0
 10  8  1  0
 11 16  2  0
 12 13  2  0
 12 11  1  0
 13 14  1  0
 14 15  2  0
 15 10  1  0
 16 15  1  0
 17 11  1  0
 18 19  1  0
 19 20  2  0
 19 23  1  0
 20 21  1  0
 21 22  2  0
 23 22  1  0
  1 24  1  6
  2 25  1  1
  3 26  1  0
  3 27  1  0
  5 28  1  0
  5 29  1  0
  9 30  1  0
 12 31  1  0
 13 32  1  0
 17 33  1  0
 20 34  1  0
 21 35  1  0
 22 36  1  0
M  ISO  8  24  13  25  13  26  13  27  13  28  13  29  13  30   3  31  14
M  ISO  5  32  14  33   3  34  14  35  14  36  14
M  END
>  <minimizedAffinity>  (1) 
-5.33585024

>  <minimizedRMSD>  (1) 
1.14618444

$$$$
