
     RDKit          3D

 20 21  0  0  0  0  0  0  0  0999 V2000
   46.4710   34.7770   43.1510 C   0  0  0  0  0  0  0  0  0  0  0  0
   45.5850   35.8490   43.0790 C   0  0  0  0  0  0  0  0  0  0  0  0
   44.6760   35.9940   44.1460 C   0  0  0  0  0  0  0  0  0  0  0  0
   44.7170   35.0900   45.1660 N   0  0  0  0  0  0  0  0  0  0  0  0
   45.6140   34.0610   45.1690 C   0  0  0  0  0  0  0  0  0  0  0  0
   46.4810   33.9180   44.1570 N   0  0  0  0  0  0  0  0  0  0  0  0
   47.3570   34.7140   42.0190 C   0  0  0  0  0  0  0  0  0  0  0  0
   48.1950   35.5880   41.6650 O   0  0  0  0  0  0  0  0  0  0  0  0
   47.2630   33.5630   41.2500 O   0  0  0  0  0  0  0  0  0  0  0  0
   47.2670   33.6260   39.8730 C   0  0  0  0  0  0  0  0  0  0  0  0
   48.1690   34.1850   39.0520 C   0  0  0  0  0  0  0  0  0  0  0  0
   47.9770   34.1340   37.6960 C   0  0  0  0  0  0  0  0  0  0  0  0
   46.8300   33.4900   37.2550 C   0  0  0  0  0  0  0  0  0  0  0  0
   45.9600   32.9160   38.8330 S   0  0  0  0  0  0  0  0  0  0  0  0
   45.5943   36.5487   42.2303 H   0  0  0  0  0  0  0  0  0  0  0  0
   43.9486   36.8191   44.1558 H   0  0  0  0  0  0  0  0  0  0  0  0
   45.6253   33.3464   46.0052 H   0  0  0  0  0  0  0  0  0  0  0  0
   49.0589   34.6821   39.4655 H   0  0  0  0  0  0  0  0  0  0  0  0
   48.6956   34.5808   36.9932 H   0  0  0  0  0  0  0  0  0  0  0  0
   46.4993   33.3451   36.2159 H   0  0  0  0  0  0  0  0  0  0  0  0
  1  6  1  0
  2  1  2  0
  2  3  1  0
  3  4  2  0
  4  5  1  0
  6  5  2  0
  7  1  1  0
  8  7  2  0
  9  7  1  0
 10  9  1  0
 11 10  2  0
 12 11  1  0
 13 12  2  0
 13 14  1  0
 14 10  1  0
  2 15  1  0
  3 16  1  0
  5 17  1  0
 11 18  1  0
 12 19  1  0
 13 20  1  0
M  ISO  6  15  14  16  14  17  14  18  14  19  14  20  14
M  END
>  <minimizedAffinity>  (1) 
-4.1312418

>  <minimizedRMSD>  (1) 
0.672340691

$$$$
