
     RDKit          3D

 44 48  0  0  1  0  0  0  0  0999 V2000
   45.2260   36.0410   43.3900 C   0  0  0  0  0  0  0  0  0  0  0  0
   46.0180   34.9210   43.1650 C   0  0  0  0  0  0  0  0  0  0  0  0
   46.0860   33.9760   44.1550 C   0  0  0  0  0  0  0  0  0  0  0  0
   45.3800   34.1730   45.3120 N   0  0  0  0  0  0  0  0  0  0  0  0
   44.6200   35.2700   45.5020 C   0  0  0  0  0  0  0  0  0  0  0  0
   44.5490   36.1870   44.5500 N   0  0  0  0  0  0  0  0  0  0  0  0
   46.7110   34.8360   41.9590 N   0  0  0  0  0  0  0  0  0  0  0  0
   48.0030   35.3840   41.7860 C   0  0  0  0  0  0  0  0  0  0  0  0
   48.6630   35.0580   40.4710 C   0  0  0  0  0  0  0  0  0  0  0  0
   48.4590   33.7500   39.9920 N   0  0  0  0  0  0  0  0  0  0  0  0
   47.1780   33.2120   40.1660 C   0  0  0  0  0  0  0  0  0  0  0  0
   46.2180   34.2100   40.7810 C   0  0  0  0  0  0  0  0  0  0  0  0
   46.4600   32.0230   45.4170 C   0  0  0  0  0  0  0  0  0  0  0  0
   46.7840   32.7560   44.2560 C   0  0  0  0  0  0  0  0  0  0  0  0
   47.7710   32.1070   43.5360 C   0  0  0  0  0  0  0  0  0  0  0  0
   48.3740   30.9350   43.8620 C   0  0  0  0  0  0  0  0  0  0  0  0
   47.9990   30.2890   45.0220 C   0  0  0  0  0  0  0  0  0  0  0  0
   47.0310   30.8280   45.8130 C   0  0  0  0  0  0  0  0  0  0  0  0
   48.7900   29.1600   45.0710 O   0  0  0  0  0  0  0  0  0  0  0  0
   49.6270   29.0920   43.9330 C   0  0  1  0  0  0  0  0  0  0  0  0
   49.3580   30.2580   43.1580 O   0  0  0  0  0  0  0  0  0  0  0  0
   51.0650   29.0660   44.3270 C   0  0  0  0  0  0  0  0  0  0  0  0
   52.0890   29.9740   43.9940 C   0  0  0  0  0  0  0  0  0  0  0  0
   53.3280   29.6840   44.5090 C   0  0  0  0  0  0  0  0  0  0  0  0
   53.5250   28.5870   45.2840 C   0  0  0  0  0  0  0  0  0  0  0  0
   51.8480   27.8260   45.3480 S   0  0  0  0  0  0  0  0  0  0  0  0
   45.1496   36.8174   42.6146 H   0  0  0  0  0  0  0  0  0  0  0  0
   44.0629   35.4022   46.4412 H   0  0  0  0  0  0  0  0  0  0  0  0
   47.9228   36.4782   41.8654 H   0  0  0  0  0  0  0  0  0  0  0  0
   48.6344   34.9342   42.5664 H   0  0  0  0  0  0  0  0  0  0  0  0
   48.2760   35.7583   39.7161 H   0  0  0  0  0  0  0  0  0  0  0  0
   49.7449   35.1461   40.6492 H   0  0  0  0  0  0  0  0  0  0  0  0
   49.1260   33.1322   40.4762 H   0  0  0  0  0  0  0  0  0  0  0  0
   46.7874   32.9024   39.1854 H   0  0  0  0  0  0  0  0  0  0  0  0
   47.2610   32.3559   40.8517 H   0  0  0  0  0  0  0  0  0  0  0  0
   46.0073   34.9916   40.0362 H   0  0  0  0  0  0  0  0  0  0  0  0
   45.3179   33.6485   41.0717 H   0  0  0  0  0  0  0  0  0  0  0  0
   45.6792   32.4420   46.0688 H   0  0  0  0  0  0  0  0  0  0  0  0
   48.1010   32.5897   42.6043 H   0  0  0  0  0  0  0  0  0  0  0  0
   46.7127   30.3276   46.7395 H   0  0  0  0  0  0  0  0  0  0  0  0
   49.4277   28.1722   43.3636 H   0  0  0  0  0  0  0  0  0  0  0  0
   51.9079   30.8568   43.3632 H   0  0  0  0  0  0  0  0  0  0  0  0
   54.1747   30.3512   44.2902 H   0  0  0  0  0  0  0  0  0  0  0  0
   54.4552   28.2387   45.7567 H   0  0  0  0  0  0  0  0  0  0  0  0
  1  6  2  0
  2  1  1  0
  2  3  2  0
  3 14  1  0
  3  4  1  0
  4  5  2  0
  6  5  1  0
  7  2  1  0
  8  7  1  0
  9  8  1  0
 10 11  1  0
 10  9  1  0
 11 12  1  0
 12  7  1  0
 13 18  2  0
 14 13  1  0
 15 16  1  0
 15 14  2  0
 16 17  2  0
 17 19  1  0
 17 18  1  0
 20 22  1  0
 20 19  1  0
 21 16  1  0
 21 20  1  0
 22 26  1  0
 23 22  2  0
 23 24  1  0
 24 25  2  0
 25 26  1  0
  1 27  1  0
  5 28  1  0
  8 29  1  0
  8 30  1  0
  9 31  1  0
  9 32  1  0
 10 33  1  0
 11 34  1  0
 11 35  1  0
 12 36  1  0
 12 37  1  0
 13 38  1  0
 15 39  1  0
 18 40  1  0
 20 41  1  6
 23 42  1  0
 24 43  1  0
 25 44  1  0
M  ISO  8  27  14  28  14  29  13  30  13  31  13  32  13  33   5  34  13
M  ISO  8  35  13  36  13  37  13  38  14  39  14  40  14  41  13  42  14
M  ISO  2  43  14  44  14
M  END
>  <minimizedAffinity>  (1) 
-5.32768679

>  <minimizedRMSD>  (1) 
0.585545063

$$$$
