
     RDKit          3D

 33 35  0  0  0  0  0  0  0  0999 V2000
   46.5370   32.6570   46.1020 C   0  0  0  0  0  0  0  0  0  0  0  0
   46.5290   31.3390   45.5370 C   0  0  0  0  0  0  0  0  0  0  0  0
   45.4130   30.4840   46.0790 C   0  0  0  0  0  0  0  0  0  0  0  0
   45.6410   30.2810   47.5680 C   0  0  0  0  0  0  0  0  0  0  0  0
   45.8770   31.5750   48.2830 C   0  0  0  0  0  0  0  0  0  0  0  0
   45.6650   32.7580   47.3730 C   0  0  0  0  0  0  0  0  0  0  0  0
   46.1340   33.7380   45.1790 C   0  0  0  0  0  0  0  0  0  0  0  0
   46.8250   33.8080   43.9850 C   0  0  0  0  0  0  0  0  0  0  0  0
   46.2950   34.7750   43.1380 C   0  0  0  0  0  0  0  0  0  0  0  0
   45.2280   35.5530   43.4710 N   0  0  0  0  0  0  0  0  0  0  0  0
   44.6050   35.4510   44.6360 C   0  0  0  0  0  0  0  0  0  0  0  0
   45.0730   34.5410   45.4660 N   0  0  0  0  0  0  0  0  0  0  0  0
   48.0040   33.4250   43.3710 C   0  0  0  0  0  0  0  0  0  0  0  0
   48.9530   34.5050   42.9830 C   0  0  0  0  0  0  0  0  0  0  0  0
   50.0490   34.1500   42.2860 C   0  0  0  0  0  0  0  0  0  0  0  0
   50.3550   32.8240   41.9020 C   0  0  0  0  0  0  0  0  0  0  0  0
   48.8640   31.9510   42.6430 S   0  0  0  0  0  0  0  0  0  0  0  0
   47.5979   32.8106   46.3486 H   0  0  0  0  0  0  0  0  0  0  0  0
   47.4886   30.8520   45.7648 H   0  0  0  0  0  0  0  0  0  0  0  0
   46.3741   31.4418   44.4528 H   0  0  0  0  0  0  0  0  0  0  0  0
   44.4481   30.9864   45.9164 H   0  0  0  0  0  0  0  0  0  0  0  0
   45.3983   29.5122   45.5639 H   0  0  0  0  0  0  0  0  0  0  0  0
   44.7541   29.7939   47.9995 H   0  0  0  0  0  0  0  0  0  0  0  0
   46.5386   29.6572   47.6914 H   0  0  0  0  0  0  0  0  0  0  0  0
   45.1795   31.6470   49.1306 H   0  0  0  0  0  0  0  0  0  0  0  0
   46.9205   31.5908   48.6308 H   0  0  0  0  0  0  0  0  0  0  0  0
   45.9286   33.6780   47.9153 H   0  0  0  0  0  0  0  0  0  0  0  0
   44.6086   32.7734   47.0668 H   0  0  0  0  0  0  0  0  0  0  0  0
   46.7599   34.9185   42.1515 H   0  0  0  0  0  0  0  0  0  0  0  0
   43.7471   36.0889   44.8951 H   0  0  0  0  0  0  0  0  0  0  0  0
   48.7656   35.5540   43.2557 H   0  0  0  0  0  0  0  0  0  0  0  0
   50.7529   34.9441   41.9961 H   0  0  0  0  0  0  0  0  0  0  0  0
   51.2101   32.4230   41.3381 H   0  0  0  0  0  0  0  0  0  0  0  0
  1  6  1  0
  2  3  1  0
  2  1  1  0
  3  4  1  0
  4  5  1  0
  6  5  1  0
  7 12  1  0
  7  1  1  0
  8  7  2  0
  9 10  2  0
  9  8  1  0
 10 11  1  0
 11 12  2  0
 13  8  1  0
 14 13  2  0
 15 14  1  0
 16 15  2  0
 16 17  1  0
 17 13  1  0
  1 18  1  0
  2 19  1  0
  2 20  1  0
  3 21  1  0
  3 22  1  0
  4 23  1  0
  4 24  1  0
  5 25  1  0
  5 26  1  0
  6 27  1  0
  6 28  1  0
  9 29  1  0
 11 30  1  0
 14 31  1  0
 15 32  1  0
 16 33  1  0
M  ISO  8  18  13  19  13  20  13  21  13  22  13  23  13  24  13  25  13
M  ISO  8  26  13  27  13  28  13  29  14  30  14  31  14  32  14  33  14
M  END
>  <minimizedAffinity>  (1) 
-5.12869549

>  <minimizedRMSD>  (1) 
5.06028461

$$$$
