
     RDKit          3D

 36 38  0  0  0  0  0  0  0  0999 V2000
   48.4820   34.0510   41.7380 N   0  0  0  0  0  0  0  0  0  0  0  0
   49.6740   34.7260   42.1160 C   0  0  0  0  0  0  0  0  0  0  0  0
   50.5180   33.5640   42.6650 C   0  0  0  0  0  0  0  0  0  0  0  0
   50.7470   32.4830   41.6720 C   0  0  0  0  0  0  0  0  0  0  0  0
   49.8280   32.4120   40.4920 C   0  0  0  0  0  0  0  0  0  0  0  0
   48.5990   33.2460   40.5500 C   0  0  0  0  0  0  0  0  0  0  0  0
   47.7320   33.0690   39.4820 C   0  0  0  0  0  0  0  0  0  0  0  0
   46.6160   32.3440   39.2130 C   0  0  0  0  0  0  0  0  0  0  0  0
   46.0330   32.4400   37.9810 C   0  0  0  0  0  0  0  0  0  0  0  0
   46.5350   33.2530   36.9740 C   0  0  0  0  0  0  0  0  0  0  0  0
   48.0360   33.9920   37.8730 S   0  0  0  0  0  0  0  0  0  0  0  0
   47.3550   33.8940   42.4650 C   0  0  0  0  0  0  0  0  0  0  0  0
   46.5310   35.1610   42.4550 C   0  0  0  0  0  0  0  0  0  0  0  0
   45.1530   34.7900   42.0730 C   0  0  0  0  0  0  0  0  0  0  0  0
   44.7510   33.4780   42.0250 C   0  0  0  0  0  0  0  0  0  0  0  0
   43.4390   33.1560   41.6570 C   0  0  0  0  0  0  0  0  0  0  0  0
   42.6190   34.2050   41.3590 N   0  0  0  0  0  0  0  0  0  0  0  0
   43.0400   35.4630   41.4150 C   0  0  0  0  0  0  0  0  0  0  0  0
   44.2910   35.7360   41.7670 N   0  0  0  0  0  0  0  0  0  0  0  0
   50.1587   35.2020   41.2508 H   0  0  0  0  0  0  0  0  0  0  0  0
   49.5189   35.5470   42.8314 H   0  0  0  0  0  0  0  0  0  0  0  0
   51.4943   33.9604   42.9808 H   0  0  0  0  0  0  0  0  0  0  0  0
   49.9587   33.1230   43.5032 H   0  0  0  0  0  0  0  0  0  0  0  0
   51.7693   32.6047   41.2846 H   0  0  0  0  0  0  0  0  0  0  0  0
   50.5570   31.5525   42.2271 H   0  0  0  0  0  0  0  0  0  0  0  0
   50.0515   31.7737   39.6244 H   0  0  0  0  0  0  0  0  0  0  0  0
   46.1847   31.6847   39.9807 H   0  0  0  0  0  0  0  0  0  0  0  0
   45.1280   31.8483   37.7787 H   0  0  0  0  0  0  0  0  0  0  0  0
   46.1690   33.4209   35.9504 H   0  0  0  0  0  0  0  0  0  0  0  0
   46.7606   33.0735   42.0367 H   0  0  0  0  0  0  0  0  0  0  0  0
   47.6339   33.6621   43.5035 H   0  0  0  0  0  0  0  0  0  0  0  0
   46.5334   35.6187   43.4552 H   0  0  0  0  0  0  0  0  0  0  0  0
   46.9480   35.8894   41.7439 H   0  0  0  0  0  0  0  0  0  0  0  0
   45.4620   32.6772   42.2765 H   0  0  0  0  0  0  0  0  0  0  0  0
   43.0885   32.1143   41.6107 H   0  0  0  0  0  0  0  0  0  0  0  0
   42.3493   36.2829   41.1687 H   0  0  0  0  0  0  0  0  0  0  0  0
  1  2  1  0
  1 12  1  0
  2  3  1  0
  4  3  1  0
  5  6  2  0
  5  4  1  0
  6  1  1  0
  7  6  1  0
  8  7  2  0
  9  8  1  0
 10 11  1  0
 10  9  2  0
 11  7  1  0
 13 12  1  0
 14 13  1  0
 15 14  2  0
 16 15  1  0
 17 18  1  0
 17 16  2  0
 18 19  2  0
 19 14  1  0
  2 20  1  0
  2 21  1  0
  3 22  1  0
  3 23  1  0
  4 24  1  0
  4 25  1  0
  5 26  1  0
  8 27  1  0
  9 28  1  0
 10 29  1  0
 12 30  1  0
 12 31  1  0
 13 32  1  0
 13 33  1  0
 15 34  1  0
 16 35  1  0
 18 36  1  0
M  ISO  8  20  13  21  13  22  13  23  13  24  13  25  13  26  13  27  14
M  ISO  8  28  14  29  14  30   8  31   8  32   8  33   8  34  14  35  14
M  ISO  1  36  14
M  END
>  <minimizedAffinity>  (1) 
-4.06423712

>  <minimizedRMSD>  (1) 
4.70972824

$$$$
