
     RDKit          3D

 28 30  0  0  0  0  0  0  0  0999 V2000
   45.2930   33.8110   43.4980 C   0  0  0  0  0  0  0  0  0  0  0  0
   45.7110   33.0510   44.6100 C   0  0  0  0  0  0  0  0  0  0  0  0
   45.5060   33.6020   45.8730 C   0  0  0  0  0  0  0  0  0  0  0  0
   44.9320   34.8080   45.9970 N   0  0  0  0  0  0  0  0  0  0  0  0
   44.5350   35.5260   44.8960 C   0  0  0  0  0  0  0  0  0  0  0  0
   44.7230   35.0160   43.6890 N   0  0  0  0  0  0  0  0  0  0  0  0
   45.9330   32.8250   47.0280 C   0  0  0  0  0  0  0  0  0  0  0  0
   44.9930   32.2800   47.8760 C   0  0  0  0  0  0  0  0  0  0  0  0
   45.4250   31.5520   48.9570 C   0  0  0  0  0  0  0  0  0  0  0  0
   46.7620   31.3260   49.2560 C   0  0  0  0  0  0  0  0  0  0  0  0
   47.6430   31.9010   48.3650 C   0  0  0  0  0  0  0  0  0  0  0  0
   47.2210   32.6180   47.3000 N   0  0  0  0  0  0  0  0  0  0  0  0
   46.3120   31.7840   44.4040 C   0  0  0  0  0  0  0  0  0  0  0  0
   47.5300   31.7330   44.1070 O   0  0  0  0  0  0  0  0  0  0  0  0
   45.5280   30.5230   44.5330 C   0  0  0  0  0  0  0  0  0  0  0  0
   45.5260   29.6110   45.4950 C   0  0  0  0  0  0  0  0  0  0  0  0
   44.7270   28.5130   45.4280 C   0  0  0  0  0  0  0  0  0  0  0  0
   43.9030   28.4280   44.2500 C   0  0  0  0  0  0  0  0  0  0  0  0
   44.3970   30.0130   43.3350 S   0  0  0  0  0  0  0  0  0  0  0  0
   45.4320   33.4211   42.4789 H   0  0  0  0  0  0  0  0  0  0  0  0
   44.0660   36.5138   45.0156 H   0  0  0  0  0  0  0  0  0  0  0  0
   43.9185   32.4253   47.6905 H   0  0  0  0  0  0  0  0  0  0  0  0
   44.6659   31.1217   49.6268 H   0  0  0  0  0  0  0  0  0  0  0  0
   47.0895   30.7397   50.1272 H   0  0  0  0  0  0  0  0  0  0  0  0
   48.7235   31.7721   48.5260 H   0  0  0  0  0  0  0  0  0  0  0  0
   46.1846   29.7454   46.3657 H   0  0  0  0  0  0  0  0  0  0  0  0
   44.7111   27.7457   46.2160 H   0  0  0  0  0  0  0  0  0  0  0  0
   43.1804   27.6513   43.9591 H   0  0  0  0  0  0  0  0  0  0  0  0
  1  6  2  0
  1  2  1  0
  2  3  2  0
  3  4  1  0
  3  7  1  0
  5  4  2  0
  6  5  1  0
  7 12  1  0
  7  8  2  0
  8  9  1  0
  9 10  2  0
 11 10  1  0
 12 11  2  0
 13 15  1  0
 13  2  1  0
 14 13  2  0
 15 16  2  0
 17 16  1  0
 18 17  2  0
 19 18  1  0
 19 15  1  0
  1 20  1  0
  5 21  1  0
  8 22  1  0
  9 23  1  0
 10 24  1  0
 11 25  1  0
 16 26  1  0
 17 27  1  0
 18 28  1  0
M  ISO  8  20  14  21  14  22  14  23  14  24  14  25  14  26  14  27  14
M  ISO  1  28  14
M  END
>  <minimizedAffinity>  (1) 
-4.58489704

>  <minimizedRMSD>  (1) 
4.72054958

$$$$
