
     RDKit          3D

 45 48  0  0  0  0  0  0  0  0999 V2000
   45.6680   30.0130   44.7030 Br  0  0  0  0  0  0  0  0  0  0  0  0
   45.6690   30.6120   46.5290 C   0  0  0  0  0  0  0  0  0  0  0  0
   46.3290   31.7820   46.7730 C   0  0  0  0  0  0  0  0  0  0  0  0
   46.3150   32.1980   48.1060 C   0  0  0  0  0  0  0  0  0  0  0  0
   45.6880   31.4970   49.1160 C   0  0  0  0  0  0  0  0  0  0  0  0
   45.0440   30.3280   48.7920 C   0  0  0  0  0  0  0  0  0  0  0  0
   45.0230   29.8660   47.4970 C   0  0  0  0  0  0  0  0  0  0  0  0
   47.0320   32.6250   45.8130 C   0  0  0  0  0  0  0  0  0  0  0  0
   44.5250   35.3420   45.3710 C   0  0  0  0  0  0  0  0  0  0  0  0
   44.7390   35.7280   44.0370 C   0  0  0  0  0  0  0  0  0  0  0  0
   45.7380   35.0480   43.3280 C   0  0  0  0  0  0  0  0  0  0  0  0
   46.4390   34.0740   43.9260 N   0  0  0  0  0  0  0  0  0  0  0  0
   46.2130   33.7100   45.2320 C   0  0  0  0  0  0  0  0  0  0  0  0
   45.2560   34.3690   45.8990 N   0  0  0  0  0  0  0  0  0  0  0  0
   44.3690   28.6820   47.1730 O   0  0  0  0  0  0  0  0  0  0  0  0
   44.0650   26.1270   46.8890 O   0  0  0  0  0  0  0  0  0  0  0  0
   44.9930   27.1440   47.5540 P   0  0  2  0  0  0  0  0  0  0  0  0
   44.9530   26.9700   49.2200 O   0  0  0  0  0  0  0  0  0  0  0  0
   46.5430   26.9330   46.9330 O   0  0  0  0  0  0  0  0  0  0  0  0
   47.6910   27.3070   47.6220 C   0  0  0  0  0  0  0  0  0  0  0  0
   48.2340   28.5750   47.6440 C   0  0  0  0  0  0  0  0  0  0  0  0
   49.3860   28.8520   48.3620 C   0  0  0  0  0  0  0  0  0  0  0  0
   49.9760   27.8120   49.0600 C   0  0  0  0  0  0  0  0  0  0  0  0
   49.4600   26.5140   49.0660 C   0  0  0  0  0  0  0  0  0  0  0  0
   50.1000   25.5180   49.7850 C   0  0  0  0  0  0  0  0  0  0  0  0
   49.5660   24.2310   49.7750 C   0  0  0  0  0  0  0  0  0  0  0  0
   48.4090   23.9730   49.0470 C   0  0  0  0  0  0  0  0  0  0  0  0
   47.8220   25.0090   48.3530 C   0  0  0  0  0  0  0  0  0  0  0  0
   48.3040   26.2870   48.3300 C   0  0  0  0  0  0  0  0  0  0  0  0
   46.8312   33.1343   48.3648 H   0  0  0  0  0  0  0  0  0  0  0  0
   45.7036   31.8646   50.1526 H   0  0  0  0  0  0  0  0  0  0  0  0
   44.5372   29.7524   49.5806 H   0  0  0  0  0  0  0  0  0  0  0  0
   47.8936   33.0808   46.3228 H   0  0  0  0  0  0  0  0  0  0  0  0
   47.3219   31.9712   44.9772 H   0  0  0  0  0  0  0  0  0  0  0  0
   43.7548   35.8443   45.9748 H   0  0  0  0  0  0  0  0  0  0  0  0
   44.1479   36.5293   43.5696 H   0  0  0  0  0  0  0  0  0  0  0  0
   45.9471   35.3131   42.2811 H   0  0  0  0  0  0  0  0  0  0  0  0
   45.1530   27.8402   49.6476 H   0  0  0  0  0  0  0  0  0  0  0  0
   47.7427   29.3819   47.0805 H   0  0  0  0  0  0  0  0  0  0  0  0
   49.8173   29.8638   48.3770 H   0  0  0  0  0  0  0  0  0  0  0  0
   50.8911   28.0169   49.6350 H   0  0  0  0  0  0  0  0  0  0  0  0
   51.0147   25.7394   50.3545 H   0  0  0  0  0  0  0  0  0  0  0  0
   50.0563   23.4240   50.3393 H   0  0  0  0  0  0  0  0  0  0  0  0
   47.9720   22.9638   49.0257 H   0  0  0  0  0  0  0  0  0  0  0  0
   46.9073   24.7931   47.7814 H   0  0  0  0  0  0  0  0  0  0  0  0
  1  2  1  0
  2  3  2  0
  2  7  1  0
  3  4  1  0
  4  5  2  0
  6  5  1  0
  7  6  2  0
  8  3  1  0
  9 14  2  0
 10  9  1  0
 11 12  1  0
 11 10  2  0
 12 13  2  0
 13  8  1  0
 13 14  1  0
 15  7  1  0
 15 17  1  0
 17 16  2  0
 17 18  1  0
 19 17  1  0
 19 20  1  0
 20 21  2  0
 20 29  1  0
 21 22  1  0
 22 23  2  0
 23 24  1  0
 24 25  2  0
 26 25  1  0
 27 26  2  0
 28 27  1  0
 29 28  2  0
 29 24  1  0
  4 30  1  0
  5 31  1  0
  6 32  1  0
  8 33  1  0
  8 34  1  0
  9 35  1  0
 10 36  1  0
 11 37  1  0
 18 38  1  0
 21 39  1  0
 22 40  1  0
 23 41  1  0
 25 42  1  0
 26 43  1  0
 27 44  1  0
 28 45  1  0
M  ISO  8  30  14  31  14  32  14  33   8  34   8  35  14  36  14  37  14
M  ISO  8  38   3  39  14  40  14  41  14  42  14  43  14  44  14  45  14
M  END
>  <minimizedAffinity>  (1) 
-5.76313448

>  <minimizedRMSD>  (1) 
2.18991947

$$$$
