
     RDKit          3D

 45 48  0  0  1  0  0  0  0  0999 V2000
   47.8110   34.1080   41.9820 N   0  0  0  0  0  0  0  0  0  0  0  0
   47.9440   35.0730   40.9560 C   0  0  0  0  0  0  0  0  0  0  0  0
   49.1530   35.8170   41.3710 C   0  0  0  0  0  0  0  0  0  0  0  0
   49.7010   35.1840   42.6370 C   0  0  0  0  0  0  0  0  0  0  0  0
   49.0350   33.8000   42.6000 C   0  0  2  0  0  0  0  0  0  0  0  0
   46.5700   33.6120   42.2920 C   0  0  0  0  0  0  0  0  0  0  0  0
   44.6000   35.9550   44.5200 C   0  0  0  0  0  0  0  0  0  0  0  0
   45.2330   35.4580   43.3440 C   0  0  0  0  0  0  0  0  0  0  0  0
   45.9120   34.2430   43.4160 C   0  0  0  0  0  0  0  0  0  0  0  0
   45.9220   33.6120   44.6100 N   0  0  0  0  0  0  0  0  0  0  0  0
   45.3040   34.1050   45.7400 C   0  0  0  0  0  0  0  0  0  0  0  0
   44.6510   35.2650   45.6900 N   0  0  0  0  0  0  0  0  0  0  0  0
   49.7680   33.0400   41.6760 O   0  0  0  0  0  0  0  0  0  0  0  0
   48.6850   30.9210   42.8630 O   0  0  0  0  0  0  0  0  0  0  0  0
   49.3170   31.4480   41.5930 P   0  0  2  0  0  0  0  0  0  0  0  0
   50.7090   30.5190   41.3090 O   0  0  0  0  0  0  0  0  0  0  0  0
   48.2930   31.1640   40.2490 O   0  0  0  0  0  0  0  0  0  0  0  0
   48.3000   31.8790   39.0840 C   0  0  0  0  0  0  0  0  0  0  0  0
   49.3380   32.3350   38.3340 C   0  0  0  0  0  0  0  0  0  0  0  0
   49.1770   33.0500   37.1700 C   0  0  0  0  0  0  0  0  0  0  0  0
   47.9060   33.3440   36.7040 C   0  0  0  0  0  0  0  0  0  0  0  0
   46.8320   32.8900   37.4540 C   0  0  0  0  0  0  0  0  0  0  0  0
   45.5930   33.2170   36.9320 C   0  0  0  0  0  0  0  0  0  0  0  0
   44.4720   32.8100   37.6040 C   0  0  0  0  0  0  0  0  0  0  0  0
   44.6110   32.1010   38.7570 C   0  0  0  0  0  0  0  0  0  0  0  0
   45.8440   31.7720   39.2820 C   0  0  0  0  0  0  0  0  0  0  0  0
   47.0100   32.1680   38.6270 C   0  0  0  0  0  0  0  0  0  0  0  0
   47.3083   35.2303   40.0722 H   0  0  0  0  0  0  0  0  0  0  0  0
   49.5833   36.6845   40.8492 H   0  0  0  0  0  0  0  0  0  0  0  0
   50.7975   35.1033   42.6039 H   0  0  0  0  0  0  0  0  0  0  0  0
   49.4926   35.7579   43.5520 H   0  0  0  0  0  0  0  0  0  0  0  0
   48.9586   33.2798   43.5662 H   0  0  0  0  0  0  0  0  0  0  0  0
   45.9254   33.7344   41.4091 H   0  0  0  0  0  0  0  0  0  0  0  0
   46.7271   32.5628   42.5829 H   0  0  0  0  0  0  0  0  0  0  0  0
   44.0611   36.9131   44.4803 H   0  0  0  0  0  0  0  0  0  0  0  0
   45.1867   36.0210   42.4001 H   0  0  0  0  0  0  0  0  0  0  0  0
   45.3503   33.5402   46.6828 H   0  0  0  0  0  0  0  0  0  0  0  0
   51.1095   30.2517   42.1740 H   0  0  0  0  0  0  0  0  0  0  0  0
   50.3612   32.1208   38.6762 H   0  0  0  0  0  0  0  0  0  0  0  0
   50.0596   33.3891   36.6078 H   0  0  0  0  0  0  0  0  0  0  0  0
   47.7549   33.9149   35.7760 H   0  0  0  0  0  0  0  0  0  0  0  0
   45.5106   33.7914   35.9975 H   0  0  0  0  0  0  0  0  0  0  0  0
   43.4715   33.0530   37.2168 H   0  0  0  0  0  0  0  0  0  0  0  0
   43.7055   31.7776   39.2913 H   0  0  0  0  0  0  0  0  0  0  0  0
   45.9074   31.1971   40.2177 H   0  0  0  0  0  0  0  0  0  0  0  0
  1  6  1  0
  1  5  1  0
  2  3  2  0
  2  1  1  0
  3  4  1  0
  5  4  1  0
  6  9  1  0
  7 12  2  0
  8  9  2  0
  8  7  1  0
  9 10  1  0
 10 11  2  0
 12 11  1  0
 13  5  1  0
 15 13  1  0
 15 14  2  0
 16 15  1  0
 17 15  1  0
 18 17  1  0
 19 18  2  0
 20 19  1  0
 21 20  2  0
 21 22  1  0
 22 27  2  0
 23 22  1  0
 23 24  2  0
 24 25  1  0
 25 26  2  0
 27 18  1  0
 27 26  1  0
  2 28  1  0
  3 29  1  0
  4 30  1  0
  4 31  1  0
  5 32  1  1
  6 33  1  0
  6 34  1  0
  7 35  1  0
  8 36  1  0
 11 37  1  0
 16 38  1  0
 19 39  1  0
 20 40  1  0
 21 41  1  0
 23 42  1  0
 24 43  1  0
 25 44  1  0
 26 45  1  0
M  ISO  8  28  13  29  13  30  13  31  13  32  13  33   8  34   8  35  14
M  ISO  8  36  14  37  14  38   3  39  14  40  14  41  14  42  14  43  14
M  ISO  2  44  14  45  14
M  END
>  <minimizedAffinity>  (1) 
-5.41532326

>  <minimizedRMSD>  (1) 
3.8049829

$$$$
