
     RDKit          3D

 30 32  0  0  0  0  0  0  0  0999 V2000
   44.6200   35.3410   45.1700 C   0  0  0  0  0  0  0  0  0  0  0  0
   45.3450   35.0990   44.0120 C   0  0  0  0  0  0  0  0  0  0  0  0
   46.2160   34.0180   44.0270 C   0  0  0  0  0  0  0  0  0  0  0  0
   46.3110   33.2760   45.1380 N   0  0  0  0  0  0  0  0  0  0  0  0
   45.6060   33.5200   46.2500 C   0  0  0  0  0  0  0  0  0  0  0  0
   44.7510   34.5590   46.2760 N   0  0  0  0  0  0  0  0  0  0  0  0
   45.1050   36.0290   42.8720 C   0  0  0  0  0  0  0  0  0  0  0  0
   45.2350   37.2990   43.3540 F   0  0  0  0  0  0  0  0  0  0  0  0
   43.8040   35.8120   42.4360 F   0  0  0  0  0  0  0  0  0  0  0  0
   46.0090   35.6950   41.8730 F   0  0  0  0  0  0  0  0  0  0  0  0
   45.6740   32.7800   47.4150 O   0  0  0  0  0  0  0  0  0  0  0  0
   46.6570   31.9310   47.7970 C   0  0  0  0  0  0  0  0  0  0  0  0
   47.8770   32.1180   48.4080 C   0  0  0  0  0  0  0  0  0  0  0  0
   48.7580   31.1070   48.7230 C   0  0  0  0  0  0  0  0  0  0  0  0
   48.4370   29.8000   48.4220 C   0  0  0  0  0  0  0  0  0  0  0  0
   47.2200   29.5610   47.8060 C   0  0  0  0  0  0  0  0  0  0  0  0
   46.9720   28.2380   47.5390 C   0  0  0  0  0  0  0  0  0  0  0  0
   45.7840   27.9010   46.9260 C   0  0  0  0  0  0  0  0  0  0  0  0
   44.8760   28.8840   46.5950 C   0  0  0  0  0  0  0  0  0  0  0  0
   45.1750   30.1960   46.8860 C   0  0  0  0  0  0  0  0  0  0  0  0
   46.3390   30.6040   47.4950 C   0  0  0  0  0  0  0  0  0  0  0  0
   43.9196   36.1888   45.1948 H   0  0  0  0  0  0  0  0  0  0  0  0
   46.8190   33.7746   43.1398 H   0  0  0  0  0  0  0  0  0  0  0  0
   48.1686   33.1477   48.6625 H   0  0  0  0  0  0  0  0  0  0  0  0
   49.7145   31.3414   49.2131 H   0  0  0  0  0  0  0  0  0  0  0  0
   49.1242   28.9755   48.6630 H   0  0  0  0  0  0  0  0  0  0  0  0
   47.7051   27.4633   47.8082 H   0  0  0  0  0  0  0  0  0  0  0  0
   45.5607   26.8477   46.7010 H   0  0  0  0  0  0  0  0  0  0  0  0
   43.9260   28.6238   46.1053 H   0  0  0  0  0  0  0  0  0  0  0  0
   44.4374   30.9657   46.6147 H   0  0  0  0  0  0  0  0  0  0  0  0
  1  6  2  0
  2  3  2  0
  2  1  1  0
  3  4  1  0
  4  5  2  0
  5  6  1  0
  5 11  1  0
  7  8  1  0
  7  2  1  0
  9  7  1  0
 10  7  1  0
 11 12  1  0
 12 13  2  0
 13 14  1  0
 15 14  2  0
 16 15  1  0
 17 16  2  0
 18 17  1  0
 19 20  1  0
 19 18  2  0
 20 21  2  0
 21 12  1  0
 21 16  1  0
  1 22  1  0
  3 23  1  0
 13 24  1  0
 14 25  1  0
 15 26  1  0
 17 27  1  0
 18 28  1  0
 19 29  1  0
 20 30  1  0
M  ISO  8  22  14  23  14  24  14  25  14  26  14  27  14  28  14  29  14
M  ISO  1  30  14
M  END
>  <minimizedAffinity>  (1) 
-5.58488131

>  <minimizedRMSD>  (1) 
1.35010803

$$$$
