
     RDKit          3D

 55 59  0  0  1  0  0  0  0  0999 V2000
   47.1750   34.1170   42.4640 C   0  0  2  0  0  0  0  0  0  0  0  0
   48.5690   34.6350   42.6430 C   0  0  0  0  0  0  0  0  0  0  0  0
   48.9280   35.6480   41.6230 C   0  0  0  0  0  0  0  0  0  0  0  0
   48.7580   35.1270   40.2180 C   0  0  0  0  0  0  0  0  0  0  0  0
   47.5010   34.3350   40.0130 C   0  0  0  0  0  0  0  0  0  0  0  0
   46.5370   34.4370   41.1660 C   0  0  1  0  0  0  0  0  0  0  0  0
   46.2830   34.4810   43.5840 C   0  0  0  0  0  0  0  0  0  0  0  0
   45.5600   35.6370   43.3480 C   0  0  0  0  0  0  0  0  0  0  0  0
   44.6610   36.1050   44.3220 C   0  0  0  0  0  0  0  0  0  0  0  0
   44.5770   35.3320   45.4860 N   0  0  0  0  0  0  0  0  0  0  0  0
   45.3040   34.2170   45.6670 C   0  0  0  0  0  0  0  0  0  0  0  0
   46.1530   33.8030   44.7060 N   0  0  0  0  0  0  0  0  0  0  0  0
   45.4360   33.4280   40.9360 C   0  0  2  0  0  0  0  0  0  0  0  0
   45.0550   33.1330   39.4980 C   0  0  0  0  0  0  0  0  0  0  0  0
   44.1300   33.8640   40.3720 C   0  0  1  0  0  0  0  0  0  0  0  0
   42.9480   33.2570   41.0760 C   0  0  0  0  0  0  0  0  0  0  0  0
   41.7980   34.1860   41.2490 C   0  0  0  0  0  0  0  0  0  0  0  0
   41.2620   34.5910   39.9260 C   0  0  0  0  0  0  0  0  0  0  0  0
   41.8780   35.6060   39.2030 C   0  0  0  0  0  0  0  0  0  0  0  0
   41.4430   36.0100   37.9460 C   0  0  0  0  0  0  0  0  0  0  0  0
   40.3620   35.3830   37.3940 C   0  0  0  0  0  0  0  0  0  0  0  0
   39.7030   34.3630   38.0670 C   0  0  0  0  0  0  0  0  0  0  0  0
   38.6090   33.7560   37.4920 C   0  0  0  0  0  0  0  0  0  0  0  0
   37.9640   32.7580   38.1730 C   0  0  0  0  0  0  0  0  0  0  0  0
   38.3990   32.3620   39.4220 C   0  0  0  0  0  0  0  0  0  0  0  0
   39.5080   33.0140   39.9460 C   0  0  0  0  0  0  0  0  0  0  0  0
   40.1820   34.0170   39.2960 C   0  0  0  0  0  0  0  0  0  0  0  0
   47.3152   33.0260   42.4622 H   0  0  0  0  0  0  0  0  0  0  0  0
   48.6510   35.0925   43.6400 H   0  0  0  0  0  0  0  0  0  0  0  0
   49.2601   33.7864   42.5321 H   0  0  0  0  0  0  0  0  0  0  0  0
   48.2816   36.5282   41.7550 H   0  0  0  0  0  0  0  0  0  0  0  0
   49.9884   35.9056   41.7616 H   0  0  0  0  0  0  0  0  0  0  0  0
   48.7433   35.9849   39.5296 H   0  0  0  0  0  0  0  0  0  0  0  0
   49.6002   34.4461   40.0252 H   0  0  0  0  0  0  0  0  0  0  0  0
   47.0002   34.7038   39.1057 H   0  0  0  0  0  0  0  0  0  0  0  0
   47.7929   33.2781   39.9253 H   0  0  0  0  0  0  0  0  0  0  0  0
   46.1652   35.4713   41.2110 H   0  0  0  0  0  0  0  0  0  0  0  0
   45.6880   36.1865   42.4037 H   0  0  0  0  0  0  0  0  0  0  0  0
   44.0636   37.0175   44.1791 H   0  0  0  0  0  0  0  0  0  0  0  0
   45.2063   33.6420   46.5996 H   0  0  0  0  0  0  0  0  0  0  0  0
   45.7379   32.8502   41.8220 H   0  0  0  0  0  0  0  0  0  0  0  0
   44.8234   32.1027   39.1901 H   0  0  0  0  0  0  0  0  0  0  0  0
   45.5131   33.3226   38.5161 H   0  0  0  0  0  0  0  0  0  0  0  0
   43.5701   34.7905   40.1768 H   0  0  0  0  0  0  0  0  0  0  0  0
   42.6062   32.3900   40.4916 H   0  0  0  0  0  0  0  0  0  0  0  0
   43.2878   32.9831   42.0857 H   0  0  0  0  0  0  0  0  0  0  0  0
   41.0065   33.6814   41.8225 H   0  0  0  0  0  0  0  0  0  0  0  0
   42.1391   35.0825   41.7875 H   0  0  0  0  0  0  0  0  0  0  0  0
   42.7487   36.1122   39.6454 H   0  0  0  0  0  0  0  0  0  0  0  0
   41.9588   36.8182   37.4067 H   0  0  0  0  0  0  0  0  0  0  0  0
   40.0077   35.6915   36.3994 H   0  0  0  0  0  0  0  0  0  0  0  0
   38.2573   34.0688   36.4978 H   0  0  0  0  0  0  0  0  0  0  0  0
   37.0902   32.2668   37.7200 H   0  0  0  0  0  0  0  0  0  0  0  0
   37.8883   31.5629   39.9794 H   0  0  0  0  0  0  0  0  0  0  0  0
   39.8668   32.7084   40.9399 H   0  0  0  0  0  0  0  0  0  0  0  0
  1  2  1  0
  1  7  1  0
  3  2  1  0
  4  3  1  0
  5  4  1  0
  5  6  1  0
  6  1  1  0
  7 12  1  0
  8  7  2  0
  8  9  1  0
  9 10  2  0
 10 11  1  0
 12 11  2  0
 13  6  1  0
 14 15  1  0
 14 13  1  0
 15 13  1  0
 15 16  1  0
 16 17  1  0
 18 17  1  0
 19 18  2  0
 20 19  1  0
 21 20  2  0
 21 22  1  0
 22 27  2  0
 23 22  1  0
 23 24  2  0
 24 25  1  0
 25 26  2  0
 27 18  1  0
 27 26  1  0
  1 28  1  6
  2 29  1  0
  2 30  1  0
  3 31  1  0
  3 32  1  0
  4 33  1  0
  4 34  1  0
  5 35  1  0
  5 36  1  0
  6 37  1  1
  8 38  1  0
  9 39  1  0
 11 40  1  0
 13 41  1  1
 14 42  1  0
 14 43  1  0
 15 44  1  6
 16 45  1  0
 16 46  1  0
 17 47  1  0
 17 48  1  0
 19 49  1  0
 20 50  1  0
 21 51  1  0
 23 52  1  0
 24 53  1  0
 25 54  1  0
 26 55  1  0
M  ISO  8  28  13  29  13  30  13  31  13  32  13  33  13  34  13  35  13
M  ISO  8  36  13  37  13  38  14  39  14  40  14  41  13  42  13  43  13
M  ISO  8  44  13  45   8  46   8  47   8  48   8  49  14  50  14  51  14
M  ISO  4  52  14  53  14  54  14  55  14
M  END
>  <minimizedAffinity>  (1) 
-7.93536615

>  <minimizedRMSD>  (1) 
2.22392917

$$$$
