
     RDKit          3D

 48 51  0  0  1  0  0  0  0  0999 V2000
   47.2610   34.0440   42.4910 C   0  0  2  0  0  0  0  0  0  0  0  0
   48.6050   34.6060   42.6050 C   0  0  0  0  0  0  0  0  0  0  0  0
   48.8910   35.6640   41.5840 C   0  0  0  0  0  0  0  0  0  0  0  0
   48.6660   35.1860   40.1710 C   0  0  0  0  0  0  0  0  0  0  0  0
   47.4700   34.2750   39.9910 C   0  0  2  0  0  0  0  0  0  0  0  0
   46.5650   34.3540   41.2040 C   0  0  0  0  0  0  0  0  0  0  0  0
   46.3670   34.3960   43.6000 C   0  0  0  0  0  0  0  0  0  0  0  0
   45.5560   35.5060   43.3720 C   0  0  0  0  0  0  0  0  0  0  0  0
   44.6550   35.9150   44.3550 C   0  0  0  0  0  0  0  0  0  0  0  0
   44.6250   35.1820   45.5140 N   0  0  0  0  0  0  0  0  0  0  0  0
   45.4190   34.1160   45.7140 C   0  0  0  0  0  0  0  0  0  0  0  0
   46.2600   33.7570   44.7570 N   0  0  0  0  0  0  0  0  0  0  0  0
   47.9650   32.8930   39.7520 C   0  0  0  0  0  0  0  0  0  0  0  0
   47.0810   31.9610   39.0460 C   0  0  0  0  0  0  0  0  0  0  0  0
   47.1270   31.9420   37.5880 C   0  0  0  0  0  0  0  0  0  0  0  0
   48.4200   32.3390   37.1680 C   0  0  0  0  0  0  0  0  0  0  0  0
   48.8270   32.5170   35.8400 C   0  0  0  0  0  0  0  0  0  0  0  0
   47.9200   32.2960   34.8330 C   0  0  0  0  0  0  0  0  0  0  0  0
   46.6530   31.9090   35.1870 C   0  0  0  0  0  0  0  0  0  0  0  0
   45.6570   31.6340   34.2880 C   0  0  0  0  0  0  0  0  0  0  0  0
   44.3870   31.2190   34.6670 C   0  0  0  0  0  0  0  0  0  0  0  0
   44.0670   31.0640   36.0020 C   0  0  0  0  0  0  0  0  0  0  0  0
   45.0700   31.3420   36.8960 C   0  0  0  0  0  0  0  0  0  0  0  0
   46.3180   31.7520   36.4990 C   0  0  0  0  0  0  0  0  0  0  0  0
   47.4622   32.9631   42.5257 H   0  0  0  0  0  0  0  0  0  0  0  0
   48.7154   35.0476   43.6064 H   0  0  0  0  0  0  0  0  0  0  0  0
   49.3177   33.7858   42.4341 H   0  0  0  0  0  0  0  0  0  0  0  0
   48.2314   36.5236   41.7739 H   0  0  0  0  0  0  0  0  0  0  0  0
   49.9525   35.9371   41.6771 H   0  0  0  0  0  0  0  0  0  0  0  0
   48.5234   36.0685   39.5300 H   0  0  0  0  0  0  0  0  0  0  0  0
   49.5512   34.5914   39.9009 H   0  0  0  0  0  0  0  0  0  0  0  0
   46.8698   34.5896   39.1245 H   0  0  0  0  0  0  0  0  0  0  0  0
   46.1555   35.3730   41.2667 H   0  0  0  0  0  0  0  0  0  0  0  0
   45.7798   33.5953   41.0708 H   0  0  0  0  0  0  0  0  0  0  0  0
   45.6260   36.0565   42.4222 H   0  0  0  0  0  0  0  0  0  0  0  0
   43.9987   36.7853   44.2076 H   0  0  0  0  0  0  0  0  0  0  0  0
   45.3707   33.5516   46.6569 H   0  0  0  0  0  0  0  0  0  0  0  0
   48.8919   32.9738   39.1652 H   0  0  0  0  0  0  0  0  0  0  0  0
   48.0748   32.4612   40.7577 H   0  0  0  0  0  0  0  0  0  0  0  0
   47.3298   30.9476   39.3940 H   0  0  0  0  0  0  0  0  0  0  0  0
   46.0662   32.3129   39.2835 H   0  0  0  0  0  0  0  0  0  0  0  0
   49.1689   32.5234   37.9524 H   0  0  0  0  0  0  0  0  0  0  0  0
   49.8560   32.8286   35.6074 H   0  0  0  0  0  0  0  0  0  0  0  0
   48.2005   32.4251   33.7772 H   0  0  0  0  0  0  0  0  0  0  0  0
   45.8731   31.7472   33.2154 H   0  0  0  0  0  0  0  0  0  0  0  0
   43.6290   31.0118   33.8973 H   0  0  0  0  0  0  0  0  0  0  0  0
   43.0686   30.7375   36.3284 H   0  0  0  0  0  0  0  0  0  0  0  0
   44.8661   31.2321   37.9713 H   0  0  0  0  0  0  0  0  0  0  0  0
  1  2  1  0
  1  7  1  0
  3  2  1  0
  4  3  1  0
  5  4  1  0
  5  6  1  0
  6  1  1  0
  7 12  1  0
  8  7  2  0
  8  9  1  0
  9 10  2  0
 10 11  1  0
 12 11  2  0
 13  5  1  0
 14 13  1  0
 15 14  1  0
 16 15  2  0
 17 16  1  0
 18 19  1  0
 18 17  2  0
 19 24  2  0
 20 21  2  0
 20 19  1  0
 21 22  1  0
 22 23  2  0
 24 23  1  0
 24 15  1  0
  1 25  1  6
  2 26  1  0
  2 27  1  0
  3 28  1  0
  3 29  1  0
  4 30  1  0
  4 31  1  0
  5 32  1  6
  6 33  1  0
  6 34  1  0
  8 35  1  0
  9 36  1  0
 11 37  1  0
 13 38  1  0
 13 39  1  0
 14 40  1  0
 14 41  1  0
 16 42  1  0
 17 43  1  0
 18 44  1  0
 20 45  1  0
 21 46  1  0
 22 47  1  0
 23 48  1  0
M  ISO  8  25  13  26  13  27  13  28  13  29  13  30  13  31  13  32  13
M  ISO  8  33  13  34  13  35  14  36  14  37  14  38   8  39   8  40   8
M  ISO  8  41   8  42  14  43  14  44  14  45  14  46  14  47  14  48  14
M  END
>  <minimizedAffinity>  (1) 
-6.06302977

>  <minimizedRMSD>  (1) 
1.09424305

$$$$
