
     RDKit          3D

 43 45  0  0  0  0  0  0  0  0999 V2000
   45.2770   35.9060   43.0690 C   0  0  0  0  0  0  0  0  0  0  0  0
   43.8940   35.1200   41.0940 C   0  0  0  0  0  0  0  0  0  0  0  0
   44.0300   35.8450   42.2110 C   0  0  0  0  0  0  0  0  0  0  0  0
   42.6690   35.1860   40.4440 O   0  0  0  0  0  0  0  0  0  0  0  0
   41.4700   35.6380   40.9400 C   0  0  0  0  0  0  0  0  0  0  0  0
   40.3940   33.5570   41.5320 C   0  0  0  0  0  0  0  0  0  0  0  0
   40.3420   34.6970   40.7100 C   0  0  0  0  0  0  0  0  0  0  0  0
   39.3050   34.8230   39.8380 C   0  0  0  0  0  0  0  0  0  0  0  0
   38.3940   33.8290   39.8320 N   0  0  0  0  0  0  0  0  0  0  0  0
   38.4310   32.7490   40.6020 C   0  0  0  0  0  0  0  0  0  0  0  0
   39.4640   32.5670   41.5080 N   0  0  0  0  0  0  0  0  0  0  0  0
   44.9740   35.3260   44.2730 O   0  0  0  0  0  0  0  0  0  0  0  0
   45.1060   32.7580   43.5950 O   0  0  0  0  0  0  0  0  0  0  0  0
   45.7410   33.8020   44.4600 P   0  0  1  0  0  0  0  0  0  0  0  0
   47.3800   33.9770   43.9940 O   0  0  0  0  0  0  0  0  0  0  0  0
   45.7300   33.3970   46.0660 O   0  0  0  0  0  0  0  0  0  0  0  0
   46.0480   32.4050   46.8430 C   0  0  0  0  0  0  0  0  0  0  0  0
   45.3850   32.6770   48.0650 C   0  0  0  0  0  0  0  0  0  0  0  0
   45.4590   31.8510   49.1870 C   0  0  0  0  0  0  0  0  0  0  0  0
   46.2370   30.7000   49.0720 C   0  0  0  0  0  0  0  0  0  0  0  0
   46.9110   30.3680   47.9200 C   0  0  0  0  0  0  0  0  0  0  0  0
   47.6960   29.2520   47.7290 C   0  0  0  0  0  0  0  0  0  0  0  0
   48.3420   28.9890   46.5370 C   0  0  0  0  0  0  0  0  0  0  0  0
   48.1800   29.9050   45.4890 C   0  0  0  0  0  0  0  0  0  0  0  0
   47.3940   31.0100   45.6990 C   0  0  0  0  0  0  0  0  0  0  0  0
   46.7650   31.2440   46.8930 C   0  0  0  0  0  0  0  0  0  0  0  0
   45.5781   36.9530   43.2211 H   0  0  0  0  0  0  0  0  0  0  0  0
   46.1101   35.3781   42.5820 H   0  0  0  0  0  0  0  0  0  0  0  0
   44.7163   34.4995   40.7082 H   0  0  0  0  0  0  0  0  0  0  0  0
   43.1660   36.4453   42.5320 H   0  0  0  0  0  0  0  0  0  0  0  0
   41.5779   35.7944   42.0235 H   0  0  0  0  0  0  0  0  0  0  0  0
   41.2290   36.5694   40.4067 H   0  0  0  0  0  0  0  0  0  0  0  0
   41.2354   33.4616   42.2341 H   0  0  0  0  0  0  0  0  0  0  0  0
   39.2144   35.6929   39.1709 H   0  0  0  0  0  0  0  0  0  0  0  0
   37.6363   31.9928   40.5207 H   0  0  0  0  0  0  0  0  0  0  0  0
   47.9482   34.0377   44.8024 H   0  0  0  0  0  0  0  0  0  0  0  0
   44.7773   33.5914   48.1332 H   0  0  0  0  0  0  0  0  0  0  0  0
   44.9283   32.0965   50.1187 H   0  0  0  0  0  0  0  0  0  0  0  0
   46.3152   30.0285   49.9398 H   0  0  0  0  0  0  0  0  0  0  0  0
   47.8131   28.5411   48.5602 H   0  0  0  0  0  0  0  0  0  0  0  0
   48.9635   28.0897   46.4143 H   0  0  0  0  0  0  0  0  0  0  0  0
   48.6723   29.7418   44.5189 H   0  0  0  0  0  0  0  0  0  0  0  0
   47.2646   31.7329   44.8801 H   0  0  0  0  0  0  0  0  0  0  0  0
  1 12  1  0
  2  3  2  0
  3  1  1  0
  4  5  1  0
  4  2  1  0
  7  5  1  0
  7  6  2  0
  8  7  1  0
  9  8  2  0
  9 10  1  0
 10 11  2  0
 11  6  1  0
 12 14  1  0
 14 13  2  0
 14 16  1  0
 15 14  1  0
 16 17  1  0
 17 26  1  0
 17 18  2  0
 18 19  1  0
 20 19  2  0
 21 20  1  0
 22 21  2  0
 23 22  1  0
 24 25  1  0
 24 23  2  0
 25 26  2  0
 26 21  1  0
  1 27  1  0
  1 28  1  0
  2 29  1  0
  3 30  1  0
  5 31  1  0
  5 32  1  0
  6 33  1  0
  8 34  1  0
 10 35  1  0
 15 36  1  0
 18 37  1  0
 19 38  1  0
 20 39  1  0
 22 40  1  0
 23 41  1  0
 24 42  1  0
 25 43  1  0
M  ISO  8  27   8  28   8  31   8  32   8  33  14  34  14  35  14  36   3
M  ISO  7  37  14  38  14  39  14  40  14  41  14  42  14  43  14
M  END
>  <minimizedAffinity>  (1) 
-5.98675632

>  <minimizedRMSD>  (1) 
1.40016699

$$$$
