
     RDKit          3D

 45 48  0  0  0  0  0  0  0  0999 V2000
   48.5030   33.9320   41.3240 C   0  0  0  0  0  0  0  0  0  0  0  0
   48.7890   32.6400   40.9160 C   0  0  0  0  0  0  0  0  0  0  0  0
   49.9890   32.0350   41.2670 C   0  0  0  0  0  0  0  0  0  0  0  0
   50.8590   32.7860   42.0340 N   0  0  0  0  0  0  0  0  0  0  0  0
   50.5410   34.0410   42.4100 C   0  0  0  0  0  0  0  0  0  0  0  0
   49.3890   34.5960   42.0610 N   0  0  0  0  0  0  0  0  0  0  0  0
   47.2040   34.4880   40.8990 C   0  0  0  0  0  0  0  0  0  0  0  0
   46.3680   34.9880   42.0330 C   0  0  0  0  0  0  0  0  0  0  0  0
   44.9090   34.9400   41.7670 C   0  0  0  0  0  0  0  0  0  0  0  0
   43.9950   35.4660   42.7440 C   0  0  0  0  0  0  0  0  0  0  0  0
   42.3570   35.1740   41.9550 S   0  0  0  0  0  0  0  0  0  0  0  0
   43.1890   34.3920   40.4390 C   0  0  0  0  0  0  0  0  0  0  0  0
   44.2900   34.4680   40.7210 N   0  0  0  0  0  0  0  0  0  0  0  0
   42.4680   33.9070   39.3560 O   0  0  0  0  0  0  0  0  0  0  0  0
   40.4860   34.3080   37.6330 O   0  0  0  0  0  0  0  0  0  0  0  0
   41.5580   35.0370   38.4500 P   0  0  0  0  0  0  0  0  0  0  0  0
   40.8000   36.0860   39.5470 O   0  0  0  0  0  0  0  0  0  0  0  0
   42.5890   35.9270   37.4500 O   0  0  0  0  0  0  0  0  0  0  0  0
   47.6140   31.7180   39.9250 S   0  0  0  0  0  0  0  0  0  0  0  0
   47.7940   32.0360   38.2000 C   0  0  0  0  0  0  0  0  0  0  0  0
   48.9760   32.4770   37.6450 C   0  0  0  0  0  0  0  0  0  0  0  0
   49.0600   32.7070   36.3050 C   0  0  0  0  0  0  0  0  0  0  0  0
   47.9590   32.5030   35.4730 C   0  0  0  0  0  0  0  0  0  0  0  0
   46.7740   32.0570   36.0520 C   0  0  0  0  0  0  0  0  0  0  0  0
   45.6730   31.8500   35.2310 C   0  0  0  0  0  0  0  0  0  0  0  0
   44.4770   31.4090   35.7540 C   0  0  0  0  0  0  0  0  0  0  0  0
   44.3650   31.1650   37.1250 C   0  0  0  0  0  0  0  0  0  0  0  0
   45.4790   31.3780   37.9340 C   0  0  0  0  0  0  0  0  0  0  0  0
   46.6740   31.8160   37.4240 C   0  0  0  0  0  0  0  0  0  0  0  0
   50.2342   31.0104   40.9506 H   0  0  0  0  0  0  0  0  0  0  0  0
   51.2529   34.6168   43.0196 H   0  0  0  0  0  0  0  0  0  0  0  0
   47.3923   35.3248   40.2103 H   0  0  0  0  0  0  0  0  0  0  0  0
   46.6440   33.6709   40.4207 H   0  0  0  0  0  0  0  0  0  0  0  0
   46.5797   34.3708   42.9186 H   0  0  0  0  0  0  0  0  0  0  0  0
   46.6318   36.0451   42.1842 H   0  0  0  0  0  0  0  0  0  0  0  0
   44.2179   35.9268   43.7176 H   0  0  0  0  0  0  0  0  0  0  0  0
   41.0060   35.8009   40.4724 H   0  0  0  0  0  0  0  0  0  0  0  0
   43.2085   36.4618   38.0071 H   0  0  0  0  0  0  0  0  0  0  0  0
   49.8542   32.6437   38.2861 H   0  0  0  0  0  0  0  0  0  0  0  0
   50.0087   33.0583   35.8732 H   0  0  0  0  0  0  0  0  0  0  0  0
   48.0252   32.6891   34.3909 H   0  0  0  0  0  0  0  0  0  0  0  0
   45.7568   32.0403   34.1508 H   0  0  0  0  0  0  0  0  0  0  0  0
   43.6121   31.2494   35.0934 H   0  0  0  0  0  0  0  0  0  0  0  0
   43.4169   30.8120   37.5568 H   0  0  0  0  0  0  0  0  0  0  0  0
   45.3974   31.1891   39.0146 H   0  0  0  0  0  0  0  0  0  0  0  0
  1  6  2  0
  2  3  2  0
  2  1  1  0
  3  4  1  0
  4  5  2  0
  6  5  1  0
  7  1  1  0
  7  8  1  0
  9  8  1  0
  9 10  2  0
 11 10  1  0
 12 13  2  0
 12 11  1  0
 13  9  1  0
 14 12  1  0
 15 16  2  0
 16 14  1  0
 16 17  1  0
 18 16  1  0
 19  2  1  0
 20 19  1  0
 21 20  2  0
 22 21  1  0
 23 24  1  0
 23 22  2  0
 24 29  2  0
 25 26  2  0
 25 24  1  0
 26 27  1  0
 27 28  2  0
 29 28  1  0
 29 20  1  0
  3 30  1  0
  5 31  1  0
  7 32  1  0
  7 33  1  0
  8 34  1  0
  8 35  1  0
 10 36  1  0
 17 37  1  0
 18 38  1  0
 21 39  1  0
 22 40  1  0
 23 41  1  0
 25 42  1  0
 26 43  1  0
 27 44  1  0
 28 45  1  0
M  ISO  8  30  14  31  14  32   8  33   8  34   8  35   8  36  14  37   3
M  ISO  8  38   3  39  14  40  14  41  14  42  14  43  14  44  14  45  14
M  END
>  <minimizedAffinity>  (1) 
-5.27936029

>  <minimizedRMSD>  (1) 
0.519193053

$$$$
