
     RDKit          3D

 42 45  0  0  1  0  0  0  0  0999 V2000
   47.6540   35.1610   41.8270 C   0  0  1  0  0  0  0  0  0  0  0  0
   49.1450   34.9260   41.6160 C   0  0  0  0  0  0  0  0  0  0  0  0
   48.1830   34.9030   40.4470 C   0  0  1  0  0  0  0  0  0  0  0  0
   46.8950   34.0490   42.4310 C   0  0  0  0  0  0  0  0  0  0  0  0
   46.1040   34.4070   43.6150 C   0  0  0  0  0  0  0  0  0  0  0  0
   45.3670   35.5470   43.4480 C   0  0  0  0  0  0  0  0  0  0  0  0
   44.5610   36.0300   44.4960 C   0  0  0  0  0  0  0  0  0  0  0  0
   44.5820   35.2800   45.6540 N   0  0  0  0  0  0  0  0  0  0  0  0
   45.3170   34.1590   45.7940 C   0  0  0  0  0  0  0  0  0  0  0  0
   46.0620   33.7410   44.7800 N   0  0  0  0  0  0  0  0  0  0  0  0
   47.9160   33.6780   39.8930 O   0  0  0  0  0  0  0  0  0  0  0  0
   48.6120   34.9370   37.6500 O   0  0  0  0  0  0  0  0  0  0  0  0
   48.3690   33.5780   38.2690 P   0  0  1  0  0  0  0  0  0  0  0  0
   49.8590   32.7210   38.2130 O   0  0  0  0  0  0  0  0  0  0  0  0
   47.2100   32.6990   37.4250 O   0  0  0  0  0  0  0  0  0  0  0  0
   47.2620   32.3410   36.1020 C   0  0  0  0  0  0  0  0  0  0  0  0
   48.3540   32.5300   35.2820 C   0  0  0  0  0  0  0  0  0  0  0  0
   48.2460   32.1140   33.9770 C   0  0  0  0  0  0  0  0  0  0  0  0
   47.0940   31.5270   33.4930 C   0  0  0  0  0  0  0  0  0  0  0  0
   45.9970   31.3350   34.3100 C   0  0  0  0  0  0  0  0  0  0  0  0
   44.8670   30.7460   33.7870 C   0  0  0  0  0  0  0  0  0  0  0  0
   43.7660   30.5520   34.6020 C   0  0  0  0  0  0  0  0  0  0  0  0
   43.8390   30.9570   35.9160 C   0  0  0  0  0  0  0  0  0  0  0  0
   44.9800   31.5440   36.4190 C   0  0  0  0  0  0  0  0  0  0  0  0
   46.1050   31.7560   35.6310 C   0  0  0  0  0  0  0  0  0  0  0  0
   47.0557   35.9522   42.3025 H   0  0  0  0  0  0  0  0  0  0  0  0
   49.8566   35.7572   41.7294 H   0  0  0  0  0  0  0  0  0  0  0  0
   49.8939   34.2330   42.0270 H   0  0  0  0  0  0  0  0  0  0  0  0
   48.1172   35.4312   39.4843 H   0  0  0  0  0  0  0  0  0  0  0  0
   46.2080   33.6517   41.6693 H   0  0  0  0  0  0  0  0  0  0  0  0
   47.6420   33.3166   42.7710 H   0  0  0  0  0  0  0  0  0  0  0  0
   45.4043   36.0884   42.4912 H   0  0  0  0  0  0  0  0  0  0  0  0
   43.9556   36.9432   44.3985 H   0  0  0  0  0  0  0  0  0  0  0  0
   45.2990   33.5969   46.7394 H   0  0  0  0  0  0  0  0  0  0  0  0
   50.1712   32.5414   39.1351 H   0  0  0  0  0  0  0  0  0  0  0  0
   49.2766   32.9961   35.6582 H   0  0  0  0  0  0  0  0  0  0  0  0
   49.1011   32.2525   33.2991 H   0  0  0  0  0  0  0  0  0  0  0  0
   47.0491   31.2075   32.4414 H   0  0  0  0  0  0  0  0  0  0  0  0
   44.8403   30.4333   32.7327 H   0  0  0  0  0  0  0  0  0  0  0  0
   42.8515   30.0841   34.2086 H   0  0  0  0  0  0  0  0  0  0  0  0
   42.9714   30.8094   36.5759 H   0  0  0  0  0  0  0  0  0  0  0  0
   45.0008   31.8536   37.4743 H   0  0  0  0  0  0  0  0  0  0  0  0
  1  4  1  0
  2  1  1  0
  3  2  1  0
  3  1  1  0
  4  5  1  0
  5 10  1  0
  6  5  2  0
  6  7  1  0
  7  8  2  0
  8  9  1  0
 10  9  2  0
 11  3  1  0
 13 12  2  0
 13 11  1  0
 14 13  1  0
 15 13  1  0
 16 15  1  0
 17 16  2  0
 18 17  1  0
 19 18  2  0
 19 20  1  0
 20 25  2  0
 21 20  1  0
 21 22  2  0
 22 23  1  0
 23 24  2  0
 25 16  1  0
 25 24  1  0
  1 26  1  6
  2 27  1  0
  2 28  1  0
  3 29  1  6
  4 30  1  0
  4 31  1  0
  6 32  1  0
  7 33  1  0
  9 34  1  0
 14 35  1  0
 17 36  1  0
 18 37  1  0
 19 38  1  0
 21 39  1  0
 22 40  1  0
 23 41  1  0
 24 42  1  0
M  ISO  8  26  13  27  13  28  13  29  13  30   8  31   8  32  14  33  14
M  ISO  8  34  14  35   3  36  14  37  14  38  14  39  14  40  14  41  14
M  ISO  1  42  14
M  END
>  <minimizedAffinity>  (1) 
-5.73988581

>  <minimizedRMSD>  (1) 
1.3686285

$$$$
