
     RDKit          3D

 42 45  0  0  0  0  0  0  0  0999 V2000
   46.3570   32.1890   47.4520 C   0  0  0  0  0  0  0  0  0  0  0  0
   45.0210   32.3320   47.8060 C   0  0  0  0  0  0  0  0  0  0  0  0
   44.4450   31.6810   48.8570 C   0  0  0  0  0  0  0  0  0  0  0  0
   45.2460   30.8450   49.5880 C   0  0  0  0  0  0  0  0  0  0  0  0
   46.5910   30.7040   49.2320 C   0  0  0  0  0  0  0  0  0  0  0  0
   47.1790   31.3670   48.1650 C   0  0  0  0  0  0  0  0  0  0  0  0
   48.5300   30.8350   48.2860 C   0  0  0  0  0  0  0  0  0  0  0  0
   49.1390   31.4640   49.3860 C   0  0  0  0  0  0  0  0  0  0  0  0
   50.4450   31.1880   49.7440 C   0  0  0  0  0  0  0  0  0  0  0  0
   51.1590   30.2730   49.0010 C   0  0  0  0  0  0  0  0  0  0  0  0
   50.5640   29.6550   47.9250 C   0  0  0  0  0  0  0  0  0  0  0  0
   51.1940   28.7060   47.1320 C   0  0  0  0  0  0  0  0  0  0  0  0
   50.5370   28.0960   46.0670 C   0  0  0  0  0  0  0  0  0  0  0  0
   49.2150   28.4190   45.7580 C   0  0  0  0  0  0  0  0  0  0  0  0
   48.5550   29.3570   46.5190 C   0  0  0  0  0  0  0  0  0  0  0  0
   49.2720   29.9170   47.5550 C   0  0  0  0  0  0  0  0  0  0  0  0
   47.0690   32.8530   46.3310 C   0  0  0  0  0  0  0  0  0  0  0  0
   46.3940   32.5620   45.0200 C   0  0  0  0  0  0  0  0  0  0  0  0
   44.6180   35.7520   44.5800 C   0  0  0  0  0  0  0  0  0  0  0  0
   45.1090   36.1830   43.3120 C   0  0  0  0  0  0  0  0  0  0  0  0
   46.0390   35.3770   42.6800 C   0  0  0  0  0  0  0  0  0  0  0  0
   46.4400   34.2420   43.2650 N   0  0  0  0  0  0  0  0  0  0  0  0
   45.9360   33.8820   44.4760 C   0  0  0  0  0  0  0  0  0  0  0  0
   45.0520   34.6030   45.1290 N   0  0  0  0  0  0  0  0  0  0  0  0
   44.3935   33.0072   47.2057 H   0  0  0  0  0  0  0  0  0  0  0  0
   43.3829   31.8215   49.1066 H   0  0  0  0  0  0  0  0  0  0  0  0
   44.8363   30.2908   50.4453 H   0  0  0  0  0  0  0  0  0  0  0  0
   47.2184   30.0288   49.8324 H   0  0  0  0  0  0  0  0  0  0  0  0
   48.5628   32.1925   49.9752 H   0  0  0  0  0  0  0  0  0  0  0  0
   50.9066   31.6900   50.6071 H   0  0  0  0  0  0  0  0  0  0  0  0
   52.2001   30.0376   49.2669 H   0  0  0  0  0  0  0  0  0  0  0  0
   52.2361   28.4296   47.3500 H   0  0  0  0  0  0  0  0  0  0  0  0
   51.0680   27.3481   45.4598 H   0  0  0  0  0  0  0  0  0  0  0  0
   48.7057   27.9291   44.9150 H   0  0  0  0  0  0  0  0  0  0  0  0
   47.5134   29.6439   46.3121 H   0  0  0  0  0  0  0  0  0  0  0  0
   47.0734   33.9399   46.5005 H   0  0  0  0  0  0  0  0  0  0  0  0
   48.0981   32.4666   46.2900 H   0  0  0  0  0  0  0  0  0  0  0  0
   47.1027   32.0893   44.3241 H   0  0  0  0  0  0  0  0  0  0  0  0
   45.5486   31.8708   45.1522 H   0  0  0  0  0  0  0  0  0  0  0  0
   43.8772   36.3651   45.1142 H   0  0  0  0  0  0  0  0  0  0  0  0
   44.7613   37.1207   42.8540 H   0  0  0  0  0  0  0  0  0  0  0  0
   46.4472   35.6678   41.7008 H   0  0  0  0  0  0  0  0  0  0  0  0
  1  2  2  0
  1  6  1  0
  2  3  1  0
  3  4  2  0
  5  4  1  0
  6  7  1  0
  6  5  2  0
  7  8  2  0
  8  9  1  0
 10  9  2  0
 11 10  1  0
 12 11  2  0
 13 12  1  0
 14 13  2  0
 14 15  1  0
 15 16  2  0
 16 11  1  0
 16  7  1  0
 17  1  1  0
 18 17  1  0
 19 24  2  0
 20 19  1  0
 21 22  1  0
 21 20  2  0
 22 23  2  0
 23 18  1  0
 23 24  1  0
  2 25  1  0
  3 26  1  0
  4 27  1  0
  5 28  1  0
  8 29  1  0
  9 30  1  0
 10 31  1  0
 12 32  1  0
 13 33  1  0
 14 34  1  0
 15 35  1  0
 17 36  1  0
 17 37  1  0
 18 38  1  0
 18 39  1  0
 19 40  1  0
 20 41  1  0
 21 42  1  0
M  ISO  8  25  14  26  14  27  14  28  14  29  14  30  14  31  14  32  14
M  ISO  8  33  14  34  14  35  14  36   8  37   8  38   8  39   8  40  14
M  ISO  2  41  14  42  14
M  END
>  <minimizedAffinity>  (1) 
-5.63699484

>  <minimizedRMSD>  (1) 
4.08126926

$$$$
