
     RDKit          3D

 43 46  0  0  0  0  0  0  0  0999 V2000
   44.5420   34.9150   42.1170 C   0  0  0  0  0  0  0  0  0  0  0  0
   45.2970   34.7900   41.1330 O   0  0  0  0  0  0  0  0  0  0  0  0
   44.8780   35.0310   44.5380 C   0  0  0  0  0  0  0  0  0  0  0  0
   44.9370   34.3000   43.3800 C   0  0  0  0  0  0  0  0  0  0  0  0
   45.3720   32.9520   43.3780 C   0  0  0  0  0  0  0  0  0  0  0  0
   45.7320   32.4110   44.5870 N   0  0  0  0  0  0  0  0  0  0  0  0
   45.6680   33.1440   45.7120 C   0  0  0  0  0  0  0  0  0  0  0  0
   45.2470   34.4320   45.6840 N   0  0  0  0  0  0  0  0  0  0  0  0
   46.0540   32.5550   46.9820 C   0  0  0  0  0  0  0  0  0  0  0  0
   47.3380   32.2490   47.2900 C   0  0  0  0  0  0  0  0  0  0  0  0
   47.7230   31.6950   48.4800 C   0  0  0  0  0  0  0  0  0  0  0  0
   46.7340   31.4490   49.3870 N   0  0  0  0  0  0  0  0  0  0  0  0
   45.4890   31.7490   49.0800 C   0  0  0  0  0  0  0  0  0  0  0  0
   45.0710   32.2960   47.9220 N   0  0  0  0  0  0  0  0  0  0  0  0
   43.4600   35.6480   41.7390 O   0  0  0  0  0  0  0  0  0  0  0  0
   42.7170   35.3980   40.6080 C   0  0  0  0  0  0  0  0  0  0  0  0
   41.2220   35.6360   40.7980 C   0  0  0  0  0  0  0  0  0  0  0  0
   40.4380   34.3890   40.8220 C   0  0  0  0  0  0  0  0  0  0  0  0
   40.3810   33.5380   41.9290 C   0  0  0  0  0  0  0  0  0  0  0  0
   39.6270   32.3820   41.9470 C   0  0  0  0  0  0  0  0  0  0  0  0
   38.8840   32.0190   40.8410 C   0  0  0  0  0  0  0  0  0  0  0  0
   38.9150   32.8360   39.7260 C   0  0  0  0  0  0  0  0  0  0  0  0
   38.1820   32.5080   38.5790 C   0  0  0  0  0  0  0  0  0  0  0  0
   38.2080   33.3080   37.4600 C   0  0  0  0  0  0  0  0  0  0  0  0
   38.9680   34.4640   37.4540 C   0  0  0  0  0  0  0  0  0  0  0  0
   39.6890   34.7860   38.5870 C   0  0  0  0  0  0  0  0  0  0  0  0
   39.6720   33.9900   39.7210 C   0  0  0  0  0  0  0  0  0  0  0  0
   44.5386   36.0773   44.5301 H   0  0  0  0  0  0  0  0  0  0  0  0
   45.4192   32.3649   42.4490 H   0  0  0  0  0  0  0  0  0  0  0  0
   48.1150   32.4582   46.5400 H   0  0  0  0  0  0  0  0  0  0  0  0
   48.7759   31.4599   48.6946 H   0  0  0  0  0  0  0  0  0  0  0  0
   44.7210   31.5335   49.8375 H   0  0  0  0  0  0  0  0  0  0  0  0
   42.8683   34.3481   40.3168 H   0  0  0  0  0  0  0  0  0  0  0  0
   43.0607   36.0991   39.8332 H   0  0  0  0  0  0  0  0  0  0  0  0
   41.0696   36.1640   41.7509 H   0  0  0  0  0  0  0  0  0  0  0  0
   40.8718   36.2278   39.9394 H   0  0  0  0  0  0  0  0  0  0  0  0
   40.9624   33.8009   42.8251 H   0  0  0  0  0  0  0  0  0  0  0  0
   39.6179   31.7476   42.8456 H   0  0  0  0  0  0  0  0  0  0  0  0
   38.2804   31.0994   40.8470 H   0  0  0  0  0  0  0  0  0  0  0  0
   37.5729   31.5920   38.5724 H   0  0  0  0  0  0  0  0  0  0  0  0
   37.6246   33.0285   36.5703 H   0  0  0  0  0  0  0  0  0  0  0  0
   38.9974   35.1126   36.5660 H   0  0  0  0  0  0  0  0  0  0  0  0
   40.2960   35.7034   38.5893 H   0  0  0  0  0  0  0  0  0  0  0  0
  1  4  1  0
  2  1  2  0
  3  8  2  0
  4  3  1  0
  5  4  2  0
  5  6  1  0
  6  7  2  0
  7  9  1  0
  8  7  1  0
  9 10  2  0
  9 14  1  0
 10 11  1  0
 11 12  2  0
 13 12  1  0
 14 13  2  0
 15  1  1  0
 16 17  1  0
 16 15  1  0
 17 18  1  0
 18 19  2  0
 19 20  1  0
 21 20  2  0
 22 21  1  0
 23 22  2  0
 24 23  1  0
 25 24  2  0
 25 26  1  0
 26 27  2  0
 27 22  1  0
 27 18  1  0
  3 28  1  0
  5 29  1  0
 10 30  1  0
 11 31  1  0
 13 32  1  0
 16 33  1  0
 16 34  1  0
 17 35  1  0
 17 36  1  0
 19 37  1  0
 20 38  1  0
 21 39  1  0
 23 40  1  0
 24 41  1  0
 25 42  1  0
 26 43  1  0
M  ISO  8  28  14  29  14  30  14  31  14  32  14  33   8  34   8  35   8
M  ISO  8  36   8  37  14  38  14  39  14  40  14  41  14  42  14  43  14
M  END
>  <minimizedAffinity>  (1) 
-6.85818624

>  <minimizedRMSD>  (1) 
1.53736663

$$$$
