
     RDKit          3D

 43 47  0  0  1  0  0  0  0  0999 V2000
   49.5110   31.3960   48.9170 C   0  0  1  0  0  0  0  0  0  0  0  0
   49.0480   29.9940   48.8380 C   0  0  0  0  0  0  0  0  0  0  0  0
   48.0790   31.1900   49.1960 C   0  0  2  0  0  0  0  0  0  0  0  0
   51.6460   31.1060   51.9950 C   0  0  0  0  0  0  0  0  0  0  0  0
   50.7940   30.7210   50.9750 C   0  0  0  0  0  0  0  0  0  0  0  0
   50.4330   31.6970   50.0530 C   0  0  0  0  0  0  0  0  0  0  0  0
   50.9150   32.9540   50.1840 N   0  0  0  0  0  0  0  0  0  0  0  0
   51.7510   33.2840   51.2070 C   0  0  0  0  0  0  0  0  0  0  0  0
   52.1100   32.3470   52.1100 N   0  0  0  0  0  0  0  0  0  0  0  0
   52.0630   30.0750   52.9950 C   0  0  0  0  0  0  0  0  0  0  0  0
   50.9600   29.7450   53.7480 F   0  0  0  0  0  0  0  0  0  0  0  0
   53.0090   30.6510   53.8150 F   0  0  0  0  0  0  0  0  0  0  0  0
   52.5390   28.9490   52.3680 F   0  0  0  0  0  0  0  0  0  0  0  0
   47.1570   31.5050   48.0670 C   0  0  0  0  0  0  0  0  0  0  0  0
   46.1490   30.7270   47.5440 C   0  0  0  0  0  0  0  0  0  0  0  0
   45.6380   31.5200   46.5390 C   0  0  0  0  0  0  0  0  0  0  0  0
   46.3300   32.7360   46.4760 C   0  0  0  0  0  0  0  0  0  0  0  0
   47.2000   32.6160   47.4180 O   0  0  0  0  0  0  0  0  0  0  0  0
   45.9650   33.7240   45.4990 C   0  0  0  0  0  0  0  0  0  0  0  0
   44.9570   34.6480   45.6990 C   0  0  0  0  0  0  0  0  0  0  0  0
   44.5780   35.6080   44.7930 C   0  0  0  0  0  0  0  0  0  0  0  0
   45.2280   35.6880   43.5830 C   0  0  0  0  0  0  0  0  0  0  0  0
   46.2430   34.7990   43.3150 C   0  0  0  0  0  0  0  0  0  0  0  0
   46.8830   34.8940   42.0980 C   0  0  0  0  0  0  0  0  0  0  0  0
   47.9070   34.0330   41.7730 C   0  0  0  0  0  0  0  0  0  0  0  0
   48.2650   33.0710   42.7160 C   0  0  0  0  0  0  0  0  0  0  0  0
   47.5960   33.0240   43.9070 C   0  0  0  0  0  0  0  0  0  0  0  0
   46.5680   33.8660   44.2700 C   0  0  0  0  0  0  0  0  0  0  0  0
   50.0259   32.0795   48.2258 H   0  0  0  0  0  0  0  0  0  0  0  0
   48.9709   29.4870   47.8649 H   0  0  0  0  0  0  0  0  0  0  0  0
   49.3323   29.0383   49.3025 H   0  0  0  0  0  0  0  0  0  0  0  0
   47.4030   31.4737   50.0161 H   0  0  0  0  0  0  0  0  0  0  0  0
   50.4194   29.6897   50.8971 H   0  0  0  0  0  0  0  0  0  0  0  0
   52.1329   34.3116   51.2973 H   0  0  0  0  0  0  0  0  0  0  0  0
   45.8299   29.7204   47.8522 H   0  0  0  0  0  0  0  0  0  0  0  0
   44.8042   31.2376   45.8794 H   0  0  0  0  0  0  0  0  0  0  0  0
   44.4172   34.6118   46.6567 H   0  0  0  0  0  0  0  0  0  0  0  0
   43.7625   36.3063   45.0324 H   0  0  0  0  0  0  0  0  0  0  0  0
   44.9411   36.4495   42.8429 H   0  0  0  0  0  0  0  0  0  0  0  0
   46.5723   35.6660   41.3787 H   0  0  0  0  0  0  0  0  0  0  0  0
   48.4238   34.1018   40.8044 H   0  0  0  0  0  0  0  0  0  0  0  0
   49.0759   32.3585   42.5043 H   0  0  0  0  0  0  0  0  0  0  0  0
   47.9020   32.2547   44.6313 H   0  0  0  0  0  0  0  0  0  0  0  0
  1  3  1  0
  1  6  1  0
  2  1  1  0
  2  3  1  0
  4  9  2  0
  4 10  1  0
  5  4  1  0
  6  7  1  0
  6  5  2  0
  7  8  2  0
  8  9  1  0
 10 11  1  0
 10 12  1  0
 13 10  1  0
 14  3  1  0
 15 14  2  0
 16 15  1  0
 17 16  2  0
 17 18  1  0
 18 14  1  0
 19 20  2  0
 19 17  1  0
 21 20  1  0
 22 21  2  0
 23 22  1  0
 23 28  2  0
 24 23  1  0
 25 24  2  0
 25 26  1  0
 26 27  2  0
 27 28  1  0
 28 19  1  0
  1 29  1  6
  2 30  1  0
  2 31  1  0
  3 32  1  1
  5 33  1  0
  8 34  1  0
 15 35  1  0
 16 36  1  0
 20 37  1  0
 21 38  1  0
 22 39  1  0
 24 40  1  0
 25 41  1  0
 26 42  1  0
 27 43  1  0
M  END
>  <minimizedAffinity>  (1) 
-7.46392202

>  <minimizedRMSD>  (1) 
7.0638504

$$$$
