
     RDKit          3D

 39 42  0  0  0  0  0  0  0  0999 V2000
   47.7100   32.0550   45.1630 Cl  0  0  0  0  0  0  0  0  0  0  0  0
   46.6950   32.0590   46.5990 C   0  0  0  0  0  0  0  0  0  0  0  0
   45.7020   33.0160   46.6820 C   0  0  0  0  0  0  0  0  0  0  0  0
   44.9170   33.0170   47.7960 C   0  0  0  0  0  0  0  0  0  0  0  0
   45.1450   32.0670   48.7920 C   0  0  0  0  0  0  0  0  0  0  0  0
   46.1380   31.1230   48.6930 C   0  0  0  0  0  0  0  0  0  0  0  0
   46.9440   31.1130   47.5630 C   0  0  0  0  0  0  0  0  0  0  0  0
   48.0050   30.1190   47.4370 C   0  0  0  0  0  0  0  0  0  0  0  0
   47.9910   29.0110   46.6100 C   0  0  0  0  0  0  0  0  0  0  0  0
   49.0260   28.1240   46.5480 C   0  0  0  0  0  0  0  0  0  0  0  0
   50.1400   28.3310   47.3370 C   0  0  0  0  0  0  0  0  0  0  0  0
   50.1700   29.4350   48.1700 C   0  0  0  0  0  0  0  0  0  0  0  0
   51.3170   29.6090   48.9540 C   0  0  0  0  0  0  0  0  0  0  0  0
   51.3470   30.7150   49.7860 C   0  0  0  0  0  0  0  0  0  0  0  0
   50.3230   31.6510   49.8920 C   0  0  0  0  0  0  0  0  0  0  0  0
   49.2410   31.3890   49.0800 C   0  0  0  0  0  0  0  0  0  0  0  0
   49.1200   30.3170   48.2200 C   0  0  0  0  0  0  0  0  0  0  0  0
   44.5240   35.8870   44.7580 C   0  0  0  0  0  0  0  0  0  0  0  0
   45.2140   35.7680   43.5270 C   0  0  0  0  0  0  0  0  0  0  0  0
   46.0860   34.6680   43.4060 C   0  0  0  0  0  0  0  0  0  0  0  0
   46.2080   33.8130   44.4470 N   0  0  0  0  0  0  0  0  0  0  0  0
   45.5230   33.9730   45.6060 C   0  0  0  0  0  0  0  0  0  0  0  0
   44.6870   35.0100   45.7470 N   0  0  0  0  0  0  0  0  0  0  0  0
   46.7810   34.5850   42.1140 C   0  0  0  0  0  0  0  0  0  0  0  0
   47.4420   33.3630   42.0530 F   0  0  0  0  0  0  0  0  0  0  0  0
   47.7800   35.5400   42.1360 F   0  0  0  0  0  0  0  0  0  0  0  0
   45.9590   34.6650   41.0310 F   0  0  0  0  0  0  0  0  0  0  0  0
   44.1125   33.7587   47.9087 H   0  0  0  0  0  0  0  0  0  0  0  0
   44.5071   32.0742   49.6881 H   0  0  0  0  0  0  0  0  0  0  0  0
   46.2919   30.3871   49.4960 H   0  0  0  0  0  0  0  0  0  0  0  0
   47.1091   28.8374   45.9759 H   0  0  0  0  0  0  0  0  0  0  0  0
   48.9735   27.2539   45.8771 H   0  0  0  0  0  0  0  0  0  0  0  0
   50.9879   27.6310   47.3038 H   0  0  0  0  0  0  0  0  0  0  0  0
   52.1561   28.8991   48.9108 H   0  0  0  0  0  0  0  0  0  0  0  0
   52.2429   30.8643   50.4066 H   0  0  0  0  0  0  0  0  0  0  0  0
   50.3727   32.5212   50.5631 H   0  0  0  0  0  0  0  0  0  0  0  0
   48.3999   32.0967   49.1211 H   0  0  0  0  0  0  0  0  0  0  0  0
   43.8320   36.7299   44.9018 H   0  0  0  0  0  0  0  0  0  0  0  0
   45.0769   36.4933   42.7115 H   0  0  0  0  0  0  0  0  0  0  0  0
  1  2  1  0
  2  3  2  0
  2  7  1  0
  3  4  1  0
  4  5  2  0
  6  5  1  0
  7  6  2  0
  8  7  1  0
  8 17  1  0
  9  8  2  0
 10  9  1  0
 10 11  2  0
 11 12  1  0
 12 17  2  0
 12 13  1  0
 13 14  2  0
 14 15  1  0
 16 15  2  0
 17 16  1  0
 18 23  2  0
 19 18  1  0
 20 19  2  0
 20 21  1  0
 21 22  2  0
 22 23  1  0
 22  3  1  0
 24 26  1  0
 24 20  1  0
 25 24  1  0
 27 24  1  0
  4 28  1  0
  5 29  1  0
  6 30  1  0
  9 31  1  0
 10 32  1  0
 11 33  1  0
 13 34  1  0
 14 35  1  0
 15 36  1  0
 16 37  1  0
 18 38  1  0
 19 39  1  0
M  ISO  8  28  14  29  14  30  14  31  14  32  14  33  14  34  14  35  14
M  ISO  4  36  14  37  14  38  14  39  14
M  END
>  <minimizedAffinity>  (1) 
-6.78651762

>  <minimizedRMSD>  (1) 
1.12118256

$$$$
