
     RDKit          3D

 27 29  0  0  0  0  0  0  0  0999 V2000
   46.9910   33.5180   41.9920 C   0  0  0  0  0  0  0  0  0  0  0  0
   47.6560   32.4590   42.6000 C   0  0  0  0  0  0  0  0  0  0  0  0
   47.5880   32.1370   43.9350 C   0  0  0  0  0  0  0  0  0  0  0  0
   46.8030   32.9110   44.7570 C   0  0  0  0  0  0  0  0  0  0  0  0
   46.1170   33.9650   44.2370 C   0  0  0  0  0  0  0  0  0  0  0  0
   45.3170   34.7030   45.0500 C   0  0  0  0  0  0  0  0  0  0  0  0
   44.5610   35.7730   44.5650 C   0  0  0  0  0  0  0  0  0  0  0  0
   44.6810   36.0300   43.1960 C   0  0  0  0  0  0  0  0  0  0  0  0
   45.4930   35.2660   42.4240 C   0  0  0  0  0  0  0  0  0  0  0  0
   46.2390   34.2180   42.8960 C   0  0  0  0  0  0  0  0  0  0  0  0
   48.1880   34.3780   38.4750 C   0  0  0  0  0  0  0  0  0  0  0  0
   48.1310   34.4000   39.8660 C   0  0  0  0  0  0  0  0  0  0  0  0
   47.1800   33.6860   40.5800 C   0  0  0  0  0  0  0  0  0  0  0  0
   46.3310   32.9770   39.7990 N   0  0  0  0  0  0  0  0  0  0  0  0
   46.3730   32.9430   38.4660 C   0  0  0  0  0  0  0  0  0  0  0  0
   47.2990   33.6430   37.8230 N   0  0  0  0  0  0  0  0  0  0  0  0
   49.1530   35.1100   37.8590 O   0  0  0  0  0  0  0  0  0  0  0  0
   48.2888   31.8265   41.9601 H   0  0  0  0  0  0  0  0  0  0  0  0
   48.1487   31.2799   44.3363 H   0  0  0  0  0  0  0  0  0  0  0  0
   46.7299   32.6793   45.8298 H   0  0  0  0  0  0  0  0  0  0  0  0
   45.2630   34.4512   46.1194 H   0  0  0  0  0  0  0  0  0  0  0  0
   43.9126   36.3750   45.2186 H   0  0  0  0  0  0  0  0  0  0  0  0
   44.1138   36.8563   42.7427 H   0  0  0  0  0  0  0  0  0  0  0  0
   45.5568   35.5024   41.3516 H   0  0  0  0  0  0  0  0  0  0  0  0
   48.8657   35.0046   40.4179 H   0  0  0  0  0  0  0  0  0  0  0  0
   45.6453   32.3391   37.9040 H   0  0  0  0  0  0  0  0  0  0  0  0
   49.2171   35.1130   36.8711 H   0  0  0  0  0  0  0  0  0  0  0  0
  1  2  2  0
  1 10  1  0
  2  3  1  0
  3  4  2  0
  5  4  1  0
  5  6  2  0
  7  6  1  0
  8  7  2  0
  9 10  2  0
  9  8  1  0
 10  5  1  0
 11 12  2  0
 12 13  1  0
 13  1  1  0
 14 13  2  0
 15 14  1  0
 16 15  2  0
 16 11  1  0
 17 11  1  0
  2 18  1  0
  3 19  1  0
  4 20  1  0
  6 21  1  0
  7 22  1  0
  8 23  1  0
  9 24  1  0
 12 25  1  0
 15 26  1  0
 17 27  1  0
M  ISO  8  18  14  19  14  20  14  21  14  22  14  23  14  24  14  25  14
M  ISO  2  26  14  27   3
M  END
>  <minimizedAffinity>  (1) 
-5.58472157

>  <minimizedRMSD>  (1) 
5.53544807

$$$$
