
     RDKit          3D

 53 57  0  0  0  0  0  0  0  0999 V2000
   44.2810   34.3410   41.8130 C   0  0  0  0  0  0  0  0  0  0  0  0
   44.0500   33.1990   42.3230 O   0  0  0  0  0  0  0  0  0  0  0  0
   45.2050   35.1000   42.5810 N   0  0  0  0  0  0  0  0  0  0  0  0
   45.5890   34.3320   43.7560 C   0  0  0  0  0  0  0  0  0  0  0  0
   45.1540   34.5650   45.0220 C   0  0  0  0  0  0  0  0  0  0  0  0
   45.6350   33.7400   46.0020 C   0  0  0  0  0  0  0  0  0  0  0  0
   46.4890   32.7720   45.6400 N   0  0  0  0  0  0  0  0  0  0  0  0
   46.9110   32.5500   44.3970 C   0  0  0  0  0  0  0  0  0  0  0  0
   46.4350   33.3630   43.4430 N   0  0  0  0  0  0  0  0  0  0  0  0
   47.8420   31.5200   43.9060 C   0  0  0  0  0  0  0  0  0  0  0  0
   47.6440   30.1670   44.2100 C   0  0  0  0  0  0  0  0  0  0  0  0
   48.4560   29.1570   43.7970 C   0  0  0  0  0  0  0  0  0  0  0  0
   49.5570   29.4440   43.0240 C   0  0  0  0  0  0  0  0  0  0  0  0
   49.7970   30.7580   42.6960 C   0  0  0  0  0  0  0  0  0  0  0  0
   50.9050   31.0170   41.9220 C   0  0  0  0  0  0  0  0  0  0  0  0
   51.2130   32.3040   41.5520 C   0  0  0  0  0  0  0  0  0  0  0  0
   50.3480   33.3090   42.0010 C   0  0  0  0  0  0  0  0  0  0  0  0
   49.2550   32.9950   42.7730 C   0  0  0  0  0  0  0  0  0  0  0  0
   48.9400   31.7280   43.1450 C   0  0  0  0  0  0  0  0  0  0  0  0
   44.2380   35.6350   45.2300 N   0  0  0  0  0  0  0  0  0  0  0  0
   43.7330   34.8660   40.6400 O   0  0  0  0  0  0  0  0  0  0  0  0
   42.9420   32.2820   39.4010 Cl  0  0  0  0  0  0  0  0  0  0  0  0
   41.8700   33.5830   39.8910 C   0  0  0  0  0  0  0  0  0  0  0  0
   42.3410   34.7650   40.4690 C   0  0  0  0  0  0  0  0  0  0  0  0
   41.4660   35.7480   40.8330 C   0  0  0  0  0  0  0  0  0  0  0  0
   40.0950   35.6360   40.6570 C   0  0  0  0  0  0  0  0  0  0  0  0
   39.5980   34.4600   40.0800 C   0  0  0  0  0  0  0  0  0  0  0  0
   37.8770   34.2410   39.8230 Cl  0  0  0  0  0  0  0  0  0  0  0  0
   40.5040   33.5000   39.7290 C   0  0  0  0  0  0  0  0  0  0  0  0
   39.8490   31.3730   41.2950 F   0  0  0  0  0  0  0  0  0  0  0  0
   39.6810   31.2030   39.9420 C   0  0  0  0  0  0  0  0  0  0  0  0
   40.0040   32.2630   39.1240 C   0  0  0  0  0  0  0  0  0  0  0  0
   39.8210   32.0580   37.7430 C   0  0  0  0  0  0  0  0  0  0  0  0
   39.3410   30.8380   37.3010 C   0  0  0  0  0  0  0  0  0  0  0  0
   39.0320   29.8020   38.1890 C   0  0  0  0  0  0  0  0  0  0  0  0
   39.2010   29.9730   39.5620 C   0  0  0  0  0  0  0  0  0  0  0  0
   45.5477   36.0420   42.3441 H   0  0  0  0  0  0  0  0  0  0  0  0
   45.3312   33.8668   47.0516 H   0  0  0  0  0  0  0  0  0  0  0  0
   46.7713   29.9030   44.8254 H   0  0  0  0  0  0  0  0  0  0  0  0
   48.2337   28.1174   44.0793 H   0  0  0  0  0  0  0  0  0  0  0  0
   50.2277   28.6439   42.6774 H   0  0  0  0  0  0  0  0  0  0  0  0
   51.5494   30.1869   41.5968 H   0  0  0  0  0  0  0  0  0  0  0  0
   52.0941   32.5329   40.9346 H   0  0  0  0  0  0  0  0  0  0  0  0
   50.5445   34.3578   41.7340 H   0  0  0  0  0  0  0  0  0  0  0  0
   48.6008   33.8138   43.1071 H   0  0  0  0  0  0  0  0  0  0  0  0
   43.8893   35.8376   46.1778 H   0  0  0  0  0  0  0  0  0  0  0  0
   43.9240   36.2065   44.4327 H   0  0  0  0  0  0  0  0  0  0  0  0
   41.8655   36.6678   41.2850 H   0  0  0  0  0  0  0  0  0  0  0  0
   39.4173   36.4471   40.9616 H   0  0  0  0  0  0  0  0  0  0  0  0
   40.0566   32.8573   37.0250 H   0  0  0  0  0  0  0  0  0  0  0  0
   39.1984   30.6782   36.2220 H   0  0  0  0  0  0  0  0  0  0  0  0
   38.6528   28.8452   37.8007 H   0  0  0  0  0  0  0  0  0  0  0  0
   38.9671   29.1808   40.2884 H   0  0  0  0  0  0  0  0  0  0  0  0
  1  2  2  0
  1  3  1  0
  3  4  1  0
  4  5  2  0
  5 20  1  0
  5  6  1  0
  7  6  2  0
  8  7  1  0
  9  4  1  0
  9  8  2  0
 10 11  2  0
 10  8  1  0
 12 11  1  0
 13 12  2  0
 14 13  1  0
 14 19  2  0
 15 14  1  0
 16 15  2  0
 16 17  1  0
 17 18  2  0
 18 19  1  0
 19 10  1  0
 21  1  1  0
 22 23  1  0
 23 24  2  0
 24 21  1  0
 24 25  1  0
 26 25  2  0
 27 26  1  0
 28 27  1  0
 29 23  1  0
 29 27  2  0
 31 30  1  0
 32 29  1  0
 32 31  2  0
 33 32  1  0
 34 33  2  0
 34 35  1  0
 35 36  2  0
 36 31  1  0
  3 37  1  0
  6 38  1  0
 11 39  1  0
 12 40  1  0
 13 41  1  0
 15 42  1  0
 16 43  1  0
 17 44  1  0
 18 45  1  0
 20 46  1  0
 20 47  1  0
 25 48  1  0
 26 49  1  0
 33 50  1  0
 34 51  1  0
 35 52  1  0
 36 53  1  0
M  END
>  <minimizedAffinity>  (1) 
-7.23221207

>  <minimizedRMSD>  (1) 
0.802369118

$$$$
