
     RDKit          3D

 32 34  0  0  0  0  0  0  0  0999 V2000
   47.8260   34.7660   42.4500 C   0  0  0  0  0  0  0  0  0  0  0  0
   48.0720   33.5930   43.1750 C   0  0  0  0  0  0  0  0  0  0  0  0
   47.1300   33.1770   44.1260 C   0  0  0  0  0  0  0  0  0  0  0  0
   46.0140   33.9670   44.2750 N   0  0  0  0  0  0  0  0  0  0  0  0
   45.8030   35.0820   43.5690 C   0  0  0  0  0  0  0  0  0  0  0  0
   46.7100   35.4590   42.6740 N   0  0  0  0  0  0  0  0  0  0  0  0
   47.1310   31.9950   44.9220 C   0  0  0  0  0  0  0  0  0  0  0  0
   47.7590   30.8600   44.3770 C   0  0  0  0  0  0  0  0  0  0  0  0
   47.8480   29.6320   44.9890 C   0  0  0  0  0  0  0  0  0  0  0  0
   47.2940   29.4620   46.2250 C   0  0  0  0  0  0  0  0  0  0  0  0
   46.6540   30.5160   46.8380 C   0  0  0  0  0  0  0  0  0  0  0  0
   46.0500   30.3840   48.0650 C   0  0  0  0  0  0  0  0  0  0  0  0
   45.3610   31.4240   48.6880 C   0  0  0  0  0  0  0  0  0  0  0  0
   45.3220   32.6220   47.9810 C   0  0  0  0  0  0  0  0  0  0  0  0
   45.9360   32.7330   46.7560 C   0  0  0  0  0  0  0  0  0  0  0  0
   46.6120   31.7030   46.1560 C   0  0  0  0  0  0  0  0  0  0  0  0
   48.8500   35.1710   41.4540 C   0  0  0  0  0  0  0  0  0  0  0  0
   48.3940   35.0790   40.1660 F   0  0  0  0  0  0  0  0  0  0  0  0
   49.2410   36.4910   41.7350 F   0  0  0  0  0  0  0  0  0  0  0  0
   50.0030   34.3990   41.6350 F   0  0  0  0  0  0  0  0  0  0  0  0
   44.5730   35.8920   43.7850 C   0  0  0  0  0  0  0  0  0  0  0  0
   43.6140   35.5940   42.8700 F   0  0  0  0  0  0  0  0  0  0  0  0
   44.8870   37.2520   43.7670 F   0  0  0  0  0  0  0  0  0  0  0  0
   44.0360   35.6680   45.0550 F   0  0  0  0  0  0  0  0  0  0  0  0
   48.9878   33.0089   43.0012 H   0  0  0  0  0  0  0  0  0  0  0  0
   48.2154   30.9634   43.3815 H   0  0  0  0  0  0  0  0  0  0  0  0
   48.3595   28.7965   44.4886 H   0  0  0  0  0  0  0  0  0  0  0  0
   47.3586   28.4866   46.7295 H   0  0  0  0  0  0  0  0  0  0  0  0
   46.1128   29.4137   48.5793 H   0  0  0  0  0  0  0  0  0  0  0  0
   44.8813   31.3056   49.6708 H   0  0  0  0  0  0  0  0  0  0  0  0
   44.7947   33.4886   48.4065 H   0  0  0  0  0  0  0  0  0  0  0  0
   45.8819   33.6979   46.2306 H   0  0  0  0  0  0  0  0  0  0  0  0
  1  6  2  0
  1  2  1  0
  2  3  2  0
  3  4  1  0
  3  7  1  0
  5 21  1  0
  5  4  2  0
  6  5  1  0
  7 16  1  0
  8  7  2  0
  8  9  1  0
  9 10  2  0
 10 11  1  0
 11 12  2  0
 12 13  1  0
 14 13  2  0
 15 14  1  0
 16 15  2  0
 16 11  1  0
 17 20  1  0
 17 19  1  0
 17  1  1  0
 18 17  1  0
 21 24  1  0
 22 21  1  0
 23 21  1  0
  2 25  1  0
  8 26  1  0
  9 27  1  0
 10 28  1  0
 12 29  1  0
 13 30  1  0
 14 31  1  0
 15 32  1  0
M  ISO  8  25  14  26  14  27  14  28  14  29  14  30  14  31  14  32  14
M  END
>  <minimizedAffinity>  (1) 
-7.16516447

>  <minimizedRMSD>  (1) 
0.283180088

$$$$
