
     RDKit          3D

 49 54  0  0  1  0  0  0  0  0999 V2000
   46.3670   32.4050   46.1770 C   0  0  1  0  0  0  0  0  0  0  0  0
   46.8170   32.5830   47.5640 C   0  0  0  0  0  0  0  0  0  0  0  0
   45.4390   31.9150   47.1760 C   0  0  2  0  0  0  0  0  0  0  0  0
   45.2000   30.5060   47.4920 C   0  0  0  0  0  0  0  0  0  0  0  0
   45.0790   29.9440   48.7270 C   0  0  0  0  0  0  0  0  0  0  0  0
   44.9800   28.5860   48.9960 C   0  0  0  0  0  0  0  0  0  0  0  0
   45.0110   27.7260   47.8790 C   0  0  0  0  0  0  0  0  0  0  0  0
   45.1310   28.2820   46.6160 C   0  0  0  0  0  0  0  0  0  0  0  0
   45.0980   27.4030   45.5520 C   0  0  0  0  0  0  0  0  0  0  0  0
   45.1500   27.9050   44.2470 C   0  0  0  0  0  0  0  0  0  0  0  0
   45.2290   29.2630   44.0260 C   0  0  0  0  0  0  0  0  0  0  0  0
   45.2590   30.0910   45.1230 C   0  0  0  0  0  0  0  0  0  0  0  0
   45.2200   29.6370   46.4290 C   0  0  0  0  0  0  0  0  0  0  0  0
   44.6610   35.4630   45.0110 C   0  0  0  0  0  0  0  0  0  0  0  0
   45.2490   35.6770   43.7250 C   0  0  0  0  0  0  0  0  0  0  0  0
   46.2300   34.7620   43.2980 C   0  0  0  0  0  0  0  0  0  0  0  0
   46.5520   33.7570   44.1160 N   0  0  0  0  0  0  0  0  0  0  0  0
   45.9810   33.5730   45.3340 C   0  0  0  0  0  0  0  0  0  0  0  0
   45.0530   34.4160   45.7650 N   0  0  0  0  0  0  0  0  0  0  0  0
   47.0030   34.8220   42.0820 C   0  0  0  0  0  0  0  0  0  0  0  0
   48.1870   35.5710   42.1230 C   0  0  0  0  0  0  0  0  0  0  0  0
   49.0590   35.7350   41.0730 C   0  0  0  0  0  0  0  0  0  0  0  0
   48.7690   35.1230   39.8750 C   0  0  0  0  0  0  0  0  0  0  0  0
   47.6240   34.3670   39.7600 C   0  0  0  0  0  0  0  0  0  0  0  0
   47.3320   33.7160   38.5810 C   0  0  0  0  0  0  0  0  0  0  0  0
   46.2050   32.9090   38.4300 C   0  0  0  0  0  0  0  0  0  0  0  0
   45.3910   32.8070   39.5650 C   0  0  0  0  0  0  0  0  0  0  0  0
   45.7070   33.4690   40.7280 C   0  0  0  0  0  0  0  0  0  0  0  0
   46.8060   34.2520   40.8530 C   0  0  0  0  0  0  0  0  0  0  0  0
   46.8514   31.9425   45.3044 H   0  0  0  0  0  0  0  0  0  0  0  0
   47.6395   31.9742   47.9675 H   0  0  0  0  0  0  0  0  0  0  0  0
   47.1466   33.4226   48.1936 H   0  0  0  0  0  0  0  0  0  0  0  0
   44.3660   32.0753   47.3573 H   0  0  0  0  0  0  0  0  0  0  0  0
   45.0579   30.6278   49.5883 H   0  0  0  0  0  0  0  0  0  0  0  0
   44.8829   28.2024   50.0224 H   0  0  0  0  0  0  0  0  0  0  0  0
   44.9413   26.6358   48.0080 H   0  0  0  0  0  0  0  0  0  0  0  0
   45.0315   26.3193   45.7283 H   0  0  0  0  0  0  0  0  0  0  0  0
   45.1277   27.2121   43.3930 H   0  0  0  0  0  0  0  0  0  0  0  0
   45.2668   29.6711   43.0052 H   0  0  0  0  0  0  0  0  0  0  0  0
   45.3173   31.1761   44.9525 H   0  0  0  0  0  0  0  0  0  0  0  0
   43.8894   36.1521   45.3849 H   0  0  0  0  0  0  0  0  0  0  0  0
   44.9461   36.5249   43.0931 H   0  0  0  0  0  0  0  0  0  0  0  0
   48.4387   36.0676   43.0717 H   0  0  0  0  0  0  0  0  0  0  0  0
   49.9689   36.3423   41.1879 H   0  0  0  0  0  0  0  0  0  0  0  0
   49.4466   35.2369   39.0160 H   0  0  0  0  0  0  0  0  0  0  0  0
   48.0140   33.8376   37.7265 H   0  0  0  0  0  0  0  0  0  0  0  0
   45.9723   32.3904   37.4882 H   0  0  0  0  0  0  0  0  0  0  0  0
   44.4834   32.1867   39.5254 H   0  0  0  0  0  0  0  0  0  0  0  0
   45.0387   33.3582   41.5946 H   0  0  0  0  0  0  0  0  0  0  0  0
  1  3  1  0
  1  2  1  0
  3  4  1  0
  3  2  1  0
  4  5  2  0
  5  6  1  0
  7  6  2  0
  8  7  1  0
  9  8  2  0
 10  9  1  0
 11 10  2  0
 11 12  1  0
 12 13  2  0
 13  8  1  0
 13  4  1  0
 14 19  2  0
 15 14  1  0
 16 15  2  0
 16 17  1  0
 17 18  2  0
 18 19  1  0
 18  1  1  0
 20 21  2  0
 20 16  1  0
 22 21  1  0
 23 22  2  0
 24 23  1  0
 24 29  2  0
 25 24  1  0
 26 25  2  0
 26 27  1  0
 27 28  2  0
 28 29  1  0
 29 20  1  0
  1 30  1  6
  2 31  1  0
  2 32  1  0
  3 33  1  1
  5 34  1  0
  6 35  1  0
  7 36  1  0
  9 37  1  0
 10 38  1  0
 11 39  1  0
 12 40  1  0
 14 41  1  0
 15 42  1  0
 21 43  1  0
 22 44  1  0
 23 45  1  0
 25 46  1  0
 26 47  1  0
 27 48  1  0
 28 49  1  0
M  ISO  8  30  13  31  13  32  13  33  13  34  14  35  14  36  14  37  14
M  ISO  8  38  14  39  14  40  14  41  14  42  14  43  14  44  14  45  14
M  ISO  4  46  14  47  14  48  14  49  14
M  END
>  <minimizedAffinity>  (1) 
-6.94391298

>  <minimizedRMSD>  (1) 
1.13570046

$$$$
