
     RDKit          3D

 44 48  0  0  0  0  0  0  0  0999 V2000
   45.4680   32.9460   41.1900 Cl  0  0  0  0  0  0  0  0  0  0  0  0
   46.8110   34.0560   41.1040 C   0  0  0  0  0  0  0  0  0  0  0  0
   47.1390   34.8860   42.1380 C   0  0  0  0  0  0  0  0  0  0  0  0
   48.2040   35.7100   41.9470 C   0  0  0  0  0  0  0  0  0  0  0  0
   48.9260   35.7360   40.8050 C   0  0  0  0  0  0  0  0  0  0  0  0
   48.6030   34.9080   39.7650 C   0  0  0  0  0  0  0  0  0  0  0  0
   47.5190   34.0490   39.9220 C   0  0  0  0  0  0  0  0  0  0  0  0
   44.5230   35.6340   44.7760 C   0  0  0  0  0  0  0  0  0  0  0  0
   45.2830   35.7150   43.6110 C   0  0  0  0  0  0  0  0  0  0  0  0
   46.3360   34.8200   43.3450 C   0  0  0  0  0  0  0  0  0  0  0  0
   46.5520   33.8820   44.3010 N   0  0  0  0  0  0  0  0  0  0  0  0
   45.8080   33.8140   45.4250 C   0  0  0  0  0  0  0  0  0  0  0  0
   44.8090   34.6850   45.6500 N   0  0  0  0  0  0  0  0  0  0  0  0
   47.1520   33.1460   38.8040 C   0  0  0  0  0  0  0  0  0  0  0  0
   48.0130   32.1670   38.3060 C   0  0  0  0  0  0  0  0  0  0  0  0
   47.0380   31.3890   36.9770 S   0  0  0  0  0  0  0  0  0  0  0  0
   45.5720   32.5480   37.3140 C   0  0  0  0  0  0  0  0  0  0  0  0
   46.0040   33.1480   38.1590 N   0  0  0  0  0  0  0  0  0  0  0  0
   44.3180   32.5590   36.6230 N   0  0  0  0  0  0  0  0  0  0  0  0
   49.3580   31.7460   38.6390 C   0  0  0  0  0  0  0  0  0  0  0  0
   50.2680   31.9970   37.6090 C   0  0  0  0  0  0  0  0  0  0  0  0
   51.5970   31.6600   37.7560 C   0  0  0  0  0  0  0  0  0  0  0  0
   52.0730   31.0670   38.9170 C   0  0  0  0  0  0  0  0  0  0  0  0
   51.1720   30.8210   39.9280 C   0  0  0  0  0  0  0  0  0  0  0  0
   51.5710   30.2350   41.1170 C   0  0  0  0  0  0  0  0  0  0  0  0
   50.6090   30.0230   42.0890 C   0  0  0  0  0  0  0  0  0  0  0  0
   49.2730   30.3600   41.9470 C   0  0  0  0  0  0  0  0  0  0  0  0
   48.8830   30.9470   40.7540 C   0  0  0  0  0  0  0  0  0  0  0  0
   49.8420   31.1570   39.7870 C   0  0  0  0  0  0  0  0  0  0  0  0
   48.4921   36.3892   42.7629 H   0  0  0  0  0  0  0  0  0  0  0  0
   49.7774   36.4262   40.7112 H   0  0  0  0  0  0  0  0  0  0  0  0
   49.1837   34.9207   38.8308 H   0  0  0  0  0  0  0  0  0  0  0  0
   43.7038   36.3437   44.9639 H   0  0  0  0  0  0  0  0  0  0  0  0
   45.0531   36.5018   42.8774 H   0  0  0  0  0  0  0  0  0  0  0  0
   46.0226   33.0330   46.1693 H   0  0  0  0  0  0  0  0  0  0  0  0
   43.5886   33.2354   36.8903 H   0  0  0  0  0  0  0  0  0  0  0  0
   44.1453   31.8905   35.8586 H   0  0  0  0  0  0  0  0  0  0  0  0
   49.9225   32.4659   36.6759 H   0  0  0  0  0  0  0  0  0  0  0  0
   52.2970   31.8662   36.9329 H   0  0  0  0  0  0  0  0  0  0  0  0
   53.1352   30.8024   39.0256 H   0  0  0  0  0  0  0  0  0  0  0  0
   52.6194   29.9470   41.2839 H   0  0  0  0  0  0  0  0  0  0  0  0
   50.9253   29.5574   43.0341 H   0  0  0  0  0  0  0  0  0  0  0  0
   48.5481   30.1686   42.7519 H   0  0  0  0  0  0  0  0  0  0  0  0
   47.8359   31.2376   40.5834 H   0  0  0  0  0  0  0  0  0  0  0  0
  2  1  1  0
  2  3  2  0
  3 10  1  0
  4  3  1  0
  5  4  2  0
  6  7  2  0
  6  5  1  0
  7  2  1  0
  8 13  2  0
  9  8  1  0
 10  9  2  0
 10 11  1  0
 11 12  2  0
 12 13  1  0
 14  7  1  0
 15 20  1  0
 15 14  2  0
 16 17  1  0
 16 15  1  0
 17 18  2  0
 18 14  1  0
 19 17  1  0
 20 29  2  0
 21 22  2  0
 21 20  1  0
 22 23  1  0
 23 24  2  0
 24 25  1  0
 25 26  2  0
 27 26  1  0
 28 27  2  0
 29 24  1  0
 29 28  1  0
  4 30  1  0
  5 31  1  0
  6 32  1  0
  8 33  1  0
  9 34  1  0
 12 35  1  0
 19 36  1  0
 19 37  1  0
 21 38  1  0
 22 39  1  0
 23 40  1  0
 25 41  1  0
 26 42  1  0
 27 43  1  0
 28 44  1  0
M  ISO  8  30  14  31  14  32  14  33  14  34  14  35  14  38  14  39  14
M  ISO  5  40  14  41  14  42  14  43  14  44  14
M  END
>  <minimizedAffinity>  (1) 
-6.56016207

>  <minimizedRMSD>  (1) 
2.36382103

$$$$
