
     RDKit          3D

 27 29  0  0  0  0  0  0  0  0999 V2000
   46.1610   32.5320   46.5740 C   0  0  0  0  0  0  0  0  0  0  0  0
   45.4820   32.8390   47.7580 C   0  0  0  0  0  0  0  0  0  0  0  0
   45.4900   32.0460   48.8750 C   0  0  0  0  0  0  0  0  0  0  0  0
   46.1950   30.8690   48.8730 C   0  0  0  0  0  0  0  0  0  0  0  0
   46.8860   30.5070   47.7400 C   0  0  0  0  0  0  0  0  0  0  0  0
   47.5810   29.3170   47.7810 C   0  0  0  0  0  0  0  0  0  0  0  0
   48.2940   28.8980   46.6780 C   0  0  0  0  0  0  0  0  0  0  0  0
   48.2710   29.7180   45.5570 C   0  0  0  0  0  0  0  0  0  0  0  0
   47.5570   30.8940   45.5800 C   0  0  0  0  0  0  0  0  0  0  0  0
   46.8370   31.3430   46.6590 C   0  0  0  0  0  0  0  0  0  0  0  0
   44.8310   35.0900   44.4220 C   0  0  0  0  0  0  0  0  0  0  0  0
   45.7030   35.2100   43.3350 C   0  0  0  0  0  0  0  0  0  0  0  0
   46.8120   34.3620   43.3450 C   0  0  0  0  0  0  0  0  0  0  0  0
   46.9610   33.5130   44.3680 N   0  0  0  0  0  0  0  0  0  0  0  0
   46.1340   33.3960   45.4010 C   0  0  0  0  0  0  0  0  0  0  0  0
   45.0930   34.2100   45.3690 N   0  0  0  0  0  0  0  0  0  0  0  0
   43.7110   35.8990   44.4790 O   0  0  0  0  0  0  0  0  0  0  0  0
   44.9059   33.7754   47.7943 H   0  0  0  0  0  0  0  0  0  0  0  0
   44.9321   32.3524   49.7721 H   0  0  0  0  0  0  0  0  0  0  0  0
   46.2075   30.2244   49.7642 H   0  0  0  0  0  0  0  0  0  0  0  0
   47.5666   28.7023   48.6931 H   0  0  0  0  0  0  0  0  0  0  0  0
   48.8578   27.9535   46.6853 H   0  0  0  0  0  0  0  0  0  0  0  0
   48.8234   29.4273   44.6512 H   0  0  0  0  0  0  0  0  0  0  0  0
   47.5636   31.5161   44.6728 H   0  0  0  0  0  0  0  0  0  0  0  0
   45.5257   35.9289   42.5216 H   0  0  0  0  0  0  0  0  0  0  0  0
   47.5483   34.3914   42.5283 H   0  0  0  0  0  0  0  0  0  0  0  0
   43.5350   36.5524   43.7563 H   0  0  0  0  0  0  0  0  0  0  0  0
  1 10  1  0
  1  2  2  0
  2  3  1  0
  4  3  2  0
  5  6  2  0
  5  4  1  0
  7  6  1  0
  8  9  1  0
  8  7  2  0
  9 10  2  0
 10  5  1  0
 11 17  1  0
 11 16  2  0
 12 13  2  0
 12 11  1  0
 13 14  1  0
 14 15  2  0
 15  1  1  0
 16 15  1  0
  2 18  1  0
  3 19  1  0
  4 20  1  0
  6 21  1  0
  7 22  1  0
  8 23  1  0
  9 24  1  0
 12 25  1  0
 13 26  1  0
 17 27  1  0
M  ISO  8  18  14  19  14  20  14  21  14  22  14  23  14  24  14  25  14
M  ISO  2  26  14  27   3
M  END
>  <minimizedAffinity>  (1) 
-5.64974833

>  <minimizedRMSD>  (1) 
2.42147684

$$$$
