
     RDKit          3D

 40 43  0  0  0  0  0  0  0  0999 V2000
   45.2790   36.1110   43.5320 C   0  0  0  0  0  0  0  0  0  0  0  0
   45.7830   34.8740   43.2050 C   0  0  0  0  0  0  0  0  0  0  0  0
   45.6230   33.9050   44.1440 C   0  0  0  0  0  0  0  0  0  0  0  0
   44.9990   34.1580   45.3240 N   0  0  0  0  0  0  0  0  0  0  0  0
   44.5170   35.3830   45.6100 C   0  0  0  0  0  0  0  0  0  0  0  0
   44.6640   36.3420   44.7100 N   0  0  0  0  0  0  0  0  0  0  0  0
   46.3620   34.7000   41.9420 N   0  0  0  0  0  0  0  0  0  0  0  0
   47.7250   35.0060   41.7420 C   0  0  0  0  0  0  0  0  0  0  0  0
   48.2670   34.6700   40.4230 C   0  0  0  0  0  0  0  0  0  0  0  0
   47.6870   33.6450   39.6840 N   0  0  0  0  0  0  0  0  0  0  0  0
   46.4180   33.1940   40.0180 C   0  0  0  0  0  0  0  0  0  0  0  0
   45.6550   34.2360   40.7840 C   0  0  0  0  0  0  0  0  0  0  0  0
   45.9930   32.5240   44.1760 C   0  0  0  0  0  0  0  0  0  0  0  0
   45.9990   31.4710   43.2370 C   0  0  0  0  0  0  0  0  0  0  0  0
   46.4830   30.2050   43.4060 C   0  0  0  0  0  0  0  0  0  0  0  0
   47.0310   29.9100   44.6310 C   0  0  0  0  0  0  0  0  0  0  0  0
   47.0950   30.8380   45.6470 C   0  0  0  0  0  0  0  0  0  0  0  0
   47.6560   30.4520   46.8230 C   0  0  0  0  0  0  0  0  0  0  0  0
   47.7250   31.3660   47.8420 C   0  0  0  0  0  0  0  0  0  0  0  0
   47.2400   32.6480   47.6850 C   0  0  0  0  0  0  0  0  0  0  0  0
   46.6860   32.9690   46.4640 C   0  0  0  0  0  0  0  0  0  0  0  0
   46.5790   32.0990   45.3830 C   0  0  0  0  0  0  0  0  0  0  0  0
   45.3804   36.9362   42.8118 H   0  0  0  0  0  0  0  0  0  0  0  0
   44.0137   35.5812   46.5678 H   0  0  0  0  0  0  0  0  0  0  0  0
   47.8539   36.0878   41.8943 H   0  0  0  0  0  0  0  0  0  0  0  0
   48.2794   34.3839   42.4601 H   0  0  0  0  0  0  0  0  0  0  0  0
   48.2041   35.5812   39.8100 H   0  0  0  0  0  0  0  0  0  0  0  0
   49.2737   34.2879   40.6478 H   0  0  0  0  0  0  0  0  0  0  0  0
   48.3194   32.8345   39.7486 H   0  0  0  0  0  0  0  0  0  0  0  0
   45.8688   32.9528   39.0959 H   0  0  0  0  0  0  0  0  0  0  0  0
   46.5216   32.3016   40.6528 H   0  0  0  0  0  0  0  0  0  0  0  0
   45.4661   35.0927   40.1203 H   0  0  0  0  0  0  0  0  0  0  0  0
   44.7181   33.7747   41.1295 H   0  0  0  0  0  0  0  0  0  0  0  0
   45.5624   31.6961   42.2528 H   0  0  0  0  0  0  0  0  0  0  0  0
   46.4363   29.4576   42.6002 H   0  0  0  0  0  0  0  0  0  0  0  0
   47.4314   28.9005   44.8060 H   0  0  0  0  0  0  0  0  0  0  0  0
   48.0450   29.4314   46.9538 H   0  0  0  0  0  0  0  0  0  0  0  0
   48.1750   31.0723   48.8018 H   0  0  0  0  0  0  0  0  0  0  0  0
   47.2931   33.3840   48.5007 H   0  0  0  0  0  0  0  0  0  0  0  0
   46.2991   33.9905   46.3344 H   0  0  0  0  0  0  0  0  0  0  0  0
  1  6  2  0
  2  1  1  0
  2  3  2  0
  3 13  1  0
  3  4  1  0
  4  5  2  0
  6  5  1  0
  7  2  1  0
  8  7  1  0
  9  8  1  0
 10 11  1  0
 10  9  1  0
 11 12  1  0
 12  7  1  0
 13 22  2  0
 14 15  2  0
 14 13  1  0
 15 16  1  0
 16 17  2  0
 17 18  1  0
 18 19  2  0
 20 19  1  0
 21 20  2  0
 22 17  1  0
 22 21  1  0
  1 23  1  0
  5 24  1  0
  8 25  1  0
  8 26  1  0
  9 27  1  0
  9 28  1  0
 10 29  1  0
 11 30  1  0
 11 31  1  0
 12 32  1  0
 12 33  1  0
 14 34  1  0
 15 35  1  0
 16 36  1  0
 18 37  1  0
 19 38  1  0
 20 39  1  0
 21 40  1  0
M  ISO  8  23  14  24  14  25  13  26  13  27  13  28  13  29   5  30  13
M  ISO  8  31  13  32  13  33  13  34  14  35  14  36  14  37  14  38  14
M  ISO  2  39  14  40  14
M  END
>  <minimizedAffinity>  (1) 
-5.53866863

>  <minimizedRMSD>  (1) 
2.8066237

$$$$
