
     RDKit          3D

 52 56  0  0  1  0  0  0  0  0999 V2000
   44.4760   35.5200   45.0730 C   0  0  0  0  0  0  0  0  0  0  0  0
   45.1710   35.5140   43.8560 C   0  0  0  0  0  0  0  0  0  0  0  0
   46.1330   34.5860   43.6480 C   0  0  0  0  0  0  0  0  0  0  0  0
   46.3690   33.7030   44.6510 N   0  0  0  0  0  0  0  0  0  0  0  0
   45.7090   33.7120   45.7990 C   0  0  0  0  0  0  0  0  0  0  0  0
   44.7560   34.6150   46.0310 N   0  0  0  0  0  0  0  0  0  0  0  0
   46.0430   32.7300   46.7950 N   0  0  0  0  0  0  0  0  0  0  0  0
   45.2730   32.4740   47.9600 C   0  0  0  0  0  0  0  0  0  0  0  0
   46.3280   32.1870   49.0140 C   0  0  0  0  0  0  0  0  0  0  0  0
   47.6360   32.1190   48.2890 C   0  0  0  0  0  0  0  0  0  0  0  0
   47.1960   31.8620   46.8490 C   0  0  1  0  0  0  0  0  0  0  0  0
   44.8010   36.5190   42.8960 N   0  0  0  0  0  0  0  0  0  0  0  0
   46.7530   30.1490   46.6780 S   0  0  0  0  0  0  0  0  0  0  0  0
   45.9020   30.6920   43.4980 O   0  0  0  0  0  0  0  0  0  0  0  0
   45.2570   30.0730   44.3590 C   0  0  0  0  0  0  0  0  0  0  0  0
   45.2810   29.7920   45.8150 C   0  0  1  0  0  0  0  0  0  0  0  0
   44.8330   28.3520   45.8620 C   0  0  0  0  0  0  0  0  0  0  0  0
   43.5560   28.5060   45.0280 C   0  0  0  0  0  0  0  0  0  0  0  0
   44.0820   29.3440   43.9570 N   0  0  0  0  0  0  0  0  0  0  0  0
   43.3780   29.3230   42.7000 C   0  0  0  0  0  0  0  0  0  0  0  0
   44.2200   29.1560   41.6060 C   0  0  0  0  0  0  0  0  0  0  0  0
   43.7200   29.1100   40.3040 C   0  0  0  0  0  0  0  0  0  0  0  0
   42.3470   29.2410   40.1560 C   0  0  0  0  0  0  0  0  0  0  0  0
   41.5210   29.4060   41.2380 C   0  0  0  0  0  0  0  0  0  0  0  0
   40.1450   29.5390   41.1250 C   0  0  0  0  0  0  0  0  0  0  0  0
   39.3650   29.7010   42.2310 C   0  0  0  0  0  0  0  0  0  0  0  0
   39.8940   29.7420   43.5220 C   0  0  0  0  0  0  0  0  0  0  0  0
   41.2740   29.6110   43.6680 C   0  0  0  0  0  0  0  0  0  0  0  0
   42.0200   29.4500   42.5410 C   0  0  0  0  0  0  0  0  0  0  0  0
   43.6928   36.2723   45.2481 H   0  0  0  0  0  0  0  0  0  0  0  0
   46.6998   34.5488   42.7060 H   0  0  0  0  0  0  0  0  0  0  0  0
   44.6688   33.3512   48.2347 H   0  0  0  0  0  0  0  0  0  0  0  0
   44.5550   31.6506   47.8314 H   0  0  0  0  0  0  0  0  0  0  0  0
   46.3484   32.9930   49.7623 H   0  0  0  0  0  0  0  0  0  0  0  0
   46.1164   31.2485   49.5474 H   0  0  0  0  0  0  0  0  0  0  0  0
   48.1884   33.0665   48.3738 H   0  0  0  0  0  0  0  0  0  0  0  0
   48.3198   31.3534   48.6843 H   0  0  0  0  0  0  0  0  0  0  0  0
   47.9376   32.0518   46.0590 H   0  0  0  0  0  0  0  0  0  0  0  0
   45.2789   36.5613   41.9846 H   0  0  0  0  0  0  0  0  0  0  0  0
   44.0581   37.1964   43.1199 H   0  0  0  0  0  0  0  0  0  0  0  0
   44.6290   30.4794   46.3740 H   0  0  0  0  0  0  0  0  0  0  0  0
   45.5596   27.6729   45.3920 H   0  0  0  0  0  0  0  0  0  0  0  0
   44.7087   27.9149   46.8637 H   0  0  0  0  0  0  0  0  0  0  0  0
   43.1894   27.5391   44.6528 H   0  0  0  0  0  0  0  0  0  0  0  0
   42.6871   28.9146   45.5647 H   0  0  0  0  0  0  0  0  0  0  0  0
   45.3032   29.0581   41.7704 H   0  0  0  0  0  0  0  0  0  0  0  0
   44.3830   28.9762   39.4365 H   0  0  0  0  0  0  0  0  0  0  0  0
   41.9105   29.2118   39.1467 H   0  0  0  0  0  0  0  0  0  0  0  0
   39.6771   29.5134   40.1298 H   0  0  0  0  0  0  0  0  0  0  0  0
   38.2775   29.8033   42.1012 H   0  0  0  0  0  0  0  0  0  0  0  0
   39.2415   29.8737   44.3978 H   0  0  0  0  0  0  0  0  0  0  0  0
   41.7449   29.6369   44.6618 H   0  0  0  0  0  0  0  0  0  0  0  0
  1  6  2  0
  2  1  1  0
  3  2  2  0
  3  4  1  0
  4  5  2  0
  5  6  1  0
  5  7  1  0
  7 11  1  0
  7  8  1  0
  8  9  1  0
 10  9  1  0
 11 10  1  0
 12  2  1  0
 13 11  1  0
 14 15  2  0
 15 16  1  0
 16 17  1  0
 16 13  1  0
 18 17  1  0
 19 15  1  0
 19 18  1  0
 20 19  1  0
 21 20  2  0
 22 21  1  0
 23 22  2  0
 23 24  1  0
 24 29  2  0
 25 24  1  0
 25 26  2  0
 26 27  1  0
 27 28  2  0
 29 20  1  0
 29 28  1  0
  1 30  1  0
  3 31  1  0
  8 32  1  0
  8 33  1  0
  9 34  1  0
  9 35  1  0
 10 36  1  0
 10 37  1  0
 11 38  1  6
 12 39  1  0
 12 40  1  0
 16 41  1  1
 17 42  1  0
 17 43  1  0
 18 44  1  0
 18 45  1  0
 21 46  1  0
 22 47  1  0
 23 48  1  0
 25 49  1  0
 26 50  1  0
 27 51  1  0
 28 52  1  0
M  ISO  8  30  14  31  14  32  13  33  13  34  13  35  13  36  13  37  13
M  ISO  8  38  13  41  13  42  13  43  13  44  13  45  13  46  14  47  14
M  ISO  5  48  14  49  14  50  14  51  14  52  14
M  END
>  <minimizedAffinity>  (1) 
-5.74786854

>  <minimizedRMSD>  (1) 
0.373964757

$$$$
