
     RDKit          3D

 43 46  0  0  0  0  0  0  0  0999 V2000
   48.2550   30.8070   45.9440 F   0  0  0  0  0  0  0  0  0  0  0  0
   47.3540   31.2810   46.8670 C   0  0  0  0  0  0  0  0  0  0  0  0
   46.3100   32.0890   46.4470 C   0  0  0  0  0  0  0  0  0  0  0  0
   45.4380   32.5320   47.4310 C   0  0  0  0  0  0  0  0  0  0  0  0
   45.6130   32.1790   48.7550 C   0  0  0  0  0  0  0  0  0  0  0  0
   46.6810   31.3660   49.1150 C   0  0  0  0  0  0  0  0  0  0  0  0
   47.5780   30.8980   48.1730 C   0  0  0  0  0  0  0  0  0  0  0  0
   48.7160   30.0360   48.5190 C   0  0  0  0  0  0  0  0  0  0  0  0
   48.5700   28.7090   48.1420 C   0  0  0  0  0  0  0  0  0  0  0  0
   49.5860   27.7990   48.4180 C   0  0  0  0  0  0  0  0  0  0  0  0
   50.7360   28.2210   49.0660 C   0  0  0  0  0  0  0  0  0  0  0  0
   50.8660   29.5520   49.4370 C   0  0  0  0  0  0  0  0  0  0  0  0
   51.9730   30.0330   50.0780 C   0  0  0  0  0  0  0  0  0  0  0  0
   52.0860   31.3540   50.4380 C   0  0  0  0  0  0  0  0  0  0  0  0
   51.0560   32.2480   50.1510 C   0  0  0  0  0  0  0  0  0  0  0  0
   49.9230   31.7970   49.5040 C   0  0  0  0  0  0  0  0  0  0  0  0
   49.8600   30.4610   49.1650 C   0  0  0  0  0  0  0  0  0  0  0  0
   46.8150   33.8050   43.2700 C   0  0  0  0  0  0  0  0  0  0  0  0
   45.9020   33.2160   42.4170 C   0  0  0  0  0  0  0  0  0  0  0  0
   45.0820   32.1880   42.9530 C   0  0  0  0  0  0  0  0  0  0  0  0
   45.2300   31.8420   44.2520 N   0  0  0  0  0  0  0  0  0  0  0  0
   46.1380   32.4530   45.0370 C   0  0  0  0  0  0  0  0  0  0  0  0
   46.9270   33.4320   44.5450 N   0  0  0  0  0  0  0  0  0  0  0  0
   45.7980   33.6500   41.0040 C   0  0  0  0  0  0  0  0  0  0  0  0
   45.8700   35.0370   40.9470 F   0  0  0  0  0  0  0  0  0  0  0  0
   46.9150   33.1660   40.3380 F   0  0  0  0  0  0  0  0  0  0  0  0
   44.6920   33.2410   40.3510 F   0  0  0  0  0  0  0  0  0  0  0  0
   47.6030   34.7930   42.7490 O   0  0  0  0  0  0  0  0  0  0  0  0
   48.9130   34.6650   42.2600 C   0  0  0  0  0  0  0  0  0  0  0  0
   49.7410   35.3320   43.1600 F   0  0  0  0  0  0  0  0  0  0  0  0
   49.2340   33.3370   42.1180 F   0  0  0  0  0  0  0  0  0  0  0  0
   49.0430   35.3630   41.0820 F   0  0  0  0  0  0  0  0  0  0  0  0
   44.5914   33.1764   47.1516 H   0  0  0  0  0  0  0  0  0  0  0  0
   44.9104   32.5397   49.5206 H   0  0  0  0  0  0  0  0  0  0  0  0
   46.8154   31.0892   50.1711 H   0  0  0  0  0  0  0  0  0  0  0  0
   47.6559   28.3778   47.6276 H   0  0  0  0  0  0  0  0  0  0  0  0
   49.4763   26.7453   48.1220 H   0  0  0  0  0  0  0  0  0  0  0  0
   51.5416   27.5048   49.2852 H   0  0  0  0  0  0  0  0  0  0  0  0
   52.7969   29.3429   50.3123 H   0  0  0  0  0  0  0  0  0  0  0  0
   52.9912   31.7068   50.9538 H   0  0  0  0  0  0  0  0  0  0  0  0
   51.1453   33.3061   50.4382 H   0  0  0  0  0  0  0  0  0  0  0  0
   49.0957   32.4818   49.2660 H   0  0  0  0  0  0  0  0  0  0  0  0
   44.3378   31.6809   42.3213 H   0  0  0  0  0  0  0  0  0  0  0  0
  1  2  1  0
  2  7  2  0
  3  2  1  0
  3  4  2  0
  4  5  1  0
  5  6  2  0
  7  8  1  0
  7  6  1  0
  8 17  2  0
  9 10  2  0
  9  8  1  0
 10 11  1  0
 11 12  2  0
 12 13  1  0
 13 14  2  0
 15 14  1  0
 16 15  2  0
 17 12  1  0
 17 16  1  0
 18 23  2  0
 19 20  2  0
 19 18  1  0
 20 21  1  0
 21 22  2  0
 22  3  1  0
 23 22  1  0
 24 19  1  0
 25 24  1  0
 26 24  1  0
 27 24  1  0
 28 18  1  0
 29 28  1  0
 29 30  1  0
 31 29  1  0
 32 29  1  0
  4 33  1  0
  5 34  1  0
  6 35  1  0
  9 36  1  0
 10 37  1  0
 11 38  1  0
 13 39  1  0
 14 40  1  0
 15 41  1  0
 16 42  1  0
 20 43  1  0
M  ISO  8  33  14  34  14  35  14  36  14  37  14  38  14  39  14  40  14
M  ISO  3  41  14  42  14  43  14
M  END
>  <minimizedAffinity>  (1) 
-6.37112808

>  <minimizedRMSD>  (1) 
2.34730029

$$$$
