
     RDKit          3D

 51 55  0  0  1  0  0  0  0  0999 V2000
   46.2840   32.9240   44.8620 F   0  0  0  0  0  0  0  0  0  0  0  0
   47.0960   31.8140   44.8090 C   0  0  0  0  0  0  0  0  0  0  0  0
   47.9450   31.6920   43.7410 C   0  0  0  0  0  0  0  0  0  0  0  0
   48.7410   30.5930   43.7010 C   0  0  0  0  0  0  0  0  0  0  0  0
   48.6750   29.6520   44.7140 C   0  0  0  0  0  0  0  0  0  0  0  0
   47.8310   29.7740   45.7750 C   0  0  0  0  0  0  0  0  0  0  0  0
   47.0180   30.9010   45.8120 C   0  0  0  0  0  0  0  0  0  0  0  0
   46.1430   31.0010   46.9380 N   0  0  0  0  0  0  0  0  0  0  0  0
   45.0060   30.1880   47.3170 C   0  0  0  0  0  0  0  0  0  0  0  0
   45.3200   29.8790   48.8000 C   0  0  0  0  0  0  0  0  0  0  0  0
   46.2430   30.9940   49.2110 C   0  0  0  0  0  0  0  0  0  0  0  0
   46.1360   31.9530   48.0430 C   0  0  2  0  0  0  0  0  0  0  0  0
   44.9420   32.8360   48.0750 C   0  0  0  0  0  0  0  0  0  0  0  0
   49.0770   34.4370   41.5780 C   0  0  0  0  0  0  0  0  0  0  0  0
   47.9830   34.6210   40.7280 C   0  0  0  0  0  0  0  0  0  0  0  0
   46.8730   33.8060   40.9080 C   0  0  0  0  0  0  0  0  0  0  0  0
   46.9580   32.8950   41.9000 N   0  0  0  0  0  0  0  0  0  0  0  0
   47.9760   32.7100   42.7040 C   0  0  0  0  0  0  0  0  0  0  0  0
   49.0290   33.4900   42.5290 N   0  0  0  0  0  0  0  0  0  0  0  0
   45.6640   33.7570   40.1180 C   0  0  0  0  0  0  0  0  0  0  0  0
   45.7330   33.0650   38.8990 C   0  0  0  0  0  0  0  0  0  0  0  0
   44.6860   32.9030   38.0230 C   0  0  0  0  0  0  0  0  0  0  0  0
   43.4600   33.4450   38.3330 C   0  0  0  0  0  0  0  0  0  0  0  0
   43.3170   34.1360   39.5150 C   0  0  0  0  0  0  0  0  0  0  0  0
   42.0990   34.6640   39.8830 C   0  0  0  0  0  0  0  0  0  0  0  0
   41.9010   35.3380   41.0930 C   0  0  0  0  0  0  0  0  0  0  0  0
   43.0220   35.4380   41.9040 C   0  0  0  0  0  0  0  0  0  0  0  0
   44.2220   34.9060   41.5190 C   0  0  0  0  0  0  0  0  0  0  0  0
   44.4100   34.2510   40.3320 C   0  0  0  0  0  0  0  0  0  0  0  0
   49.4390   30.4502   42.8629 H   0  0  0  0  0  0  0  0  0  0  0  0
   49.3307   28.7705   44.6595 H   0  0  0  0  0  0  0  0  0  0  0  0
   47.7939   29.0135   46.5689 H   0  0  0  0  0  0  0  0  0  0  0  0
   44.0631   30.7451   47.2147 H   0  0  0  0  0  0  0  0  0  0  0  0
   44.8709   29.2918   46.6936 H   0  0  0  0  0  0  0  0  0  0  0  0
   44.4014   29.8875   49.4051 H   0  0  0  0  0  0  0  0  0  0  0  0
   45.7657   28.8834   48.9421 H   0  0  0  0  0  0  0  0  0  0  0  0
   45.9053   31.4659   50.1455 H   0  0  0  0  0  0  0  0  0  0  0  0
   47.2717   30.6608   49.4130 H   0  0  0  0  0  0  0  0  0  0  0  0
   46.9334   32.7097   48.0048 H   0  0  0  0  0  0  0  0  0  0  0  0
   44.6652   33.0407   49.1197 H   0  0  0  0  0  0  0  0  0  0  0  0
   45.1723   33.7827   47.5645 H   0  0  0  0  0  0  0  0  0  0  0  0
   44.1042   32.3385   47.5645 H   0  0  0  0  0  0  0  0  0  0  0  0
   49.9734   35.0651   41.4685 H   0  0  0  0  0  0  0  0  0  0  0  0
   48.0006   35.3883   39.9400 H   0  0  0  0  0  0  0  0  0  0  0  0
   46.6994   32.6177   38.6232 H   0  0  0  0  0  0  0  0  0  0  0  0
   44.8268   32.3463   37.0848 H   0  0  0  0  0  0  0  0  0  0  0  0
   42.6078   33.3281   37.6474 H   0  0  0  0  0  0  0  0  0  0  0  0
   41.2466   34.5510   39.1970 H   0  0  0  0  0  0  0  0  0  0  0  0
   40.9261   35.7585   41.3807 H   0  0  0  0  0  0  0  0  0  0  0  0
   42.9447   35.9536   42.8726 H   0  0  0  0  0  0  0  0  0  0  0  0
   45.0805   35.0100   42.1988 H   0  0  0  0  0  0  0  0  0  0  0  0
  2  1  1  0
  2  7  2  0
  3  2  1  0
  4  3  2  0
  4  5  1  0
  5  6  2  0
  6  7  1  0
  7  8  1  0
  8  9  1  0
  8 12  1  0
  9 10  1  0
 10 11  1  0
 12 13  1  0
 12 11  1  0
 14 19  2  0
 15 16  2  0
 15 14  1  0
 16 17  1  0
 17 18  2  0
 18  3  1  0
 19 18  1  0
 20 29  1  0
 20 16  1  0
 21 20  2  0
 22 23  2  0
 22 21  1  0
 23 24  1  0
 24 25  1  0
 24 29  2  0
 25 26  2  0
 26 27  1  0
 28 27  2  0
 29 28  1  0
  4 30  1  0
  5 31  1  0
  6 32  1  0
  9 33  1  0
  9 34  1  0
 10 35  1  0
 10 36  1  0
 11 37  1  0
 11 38  1  0
 12 39  1  6
 13 40  1  0
 13 41  1  0
 13 42  1  0
 14 43  1  0
 15 44  1  0
 21 45  1  0
 22 46  1  0
 23 47  1  0
 25 48  1  0
 26 49  1  0
 27 50  1  0
 28 51  1  0
M  ISO  8  30  14  31  14  32  14  33  13  34  13  35  13  36  13  37  13
M  ISO  8  38  13  39  13  40   8  41   8  42   8  43  14  44  14  45  14
M  ISO  6  46  14  47  14  48  14  49  14  50  14  51  14
M  END
>  <minimizedAffinity>  (1) 
-6.33758211

>  <minimizedRMSD>  (1) 
1.35266304

$$$$
