
     RDKit          3D

 28 30  0  0  0  0  0  0  0  0999 V2000
   44.4850   35.7240   44.9910 C   0  0  0  0  0  0  0  0  0  0  0  0
   45.2010   35.6300   43.7890 C   0  0  0  0  0  0  0  0  0  0  0  0
   46.1170   34.5930   43.6290 C   0  0  0  0  0  0  0  0  0  0  0  0
   46.2580   33.7310   44.6620 N   0  0  0  0  0  0  0  0  0  0  0  0
   45.5660   33.8350   45.8040 C   0  0  0  0  0  0  0  0  0  0  0  0
   44.6760   34.8330   45.9740 N   0  0  0  0  0  0  0  0  0  0  0  0
   46.7830   34.6070   42.3590 C   0  0  0  0  0  0  0  0  0  0  0  0
   47.9540   35.2970   42.1290 C   0  0  0  0  0  0  0  0  0  0  0  0
   48.6260   35.3380   40.9280 C   0  0  0  0  0  0  0  0  0  0  0  0
   48.1060   34.6480   39.8710 C   0  0  0  0  0  0  0  0  0  0  0  0
   46.9350   33.9360   40.0360 C   0  0  0  0  0  0  0  0  0  0  0  0
   46.4160   33.2390   38.9600 C   0  0  0  0  0  0  0  0  0  0  0  0
   45.2460   32.5100   39.0670 C   0  0  0  0  0  0  0  0  0  0  0  0
   44.5980   32.4910   40.2890 C   0  0  0  0  0  0  0  0  0  0  0  0
   45.1430   33.1940   41.3340 C   0  0  0  0  0  0  0  0  0  0  0  0
   46.2980   33.9240   41.2590 C   0  0  0  0  0  0  0  0  0  0  0  0
   44.9090   36.6440   42.8100 N   0  0  0  0  0  0  0  0  0  0  0  0
   43.7583   36.5382   45.1288 H   0  0  0  0  0  0  0  0  0  0  0  0
   45.7249   33.1015   46.6082 H   0  0  0  0  0  0  0  0  0  0  0  0
   48.3852   35.8587   42.9707 H   0  0  0  0  0  0  0  0  0  0  0  0
   49.5583   35.9122   40.8228 H   0  0  0  0  0  0  0  0  0  0  0  0
   48.6157   34.6593   38.8963 H   0  0  0  0  0  0  0  0  0  0  0  0
   46.9464   33.2652   37.9967 H   0  0  0  0  0  0  0  0  0  0  0  0
   44.8417   31.9603   38.2042 H   0  0  0  0  0  0  0  0  0  0  0  0
   43.6647   31.9238   40.4204 H   0  0  0  0  0  0  0  0  0  0  0  0
   44.6149   33.1690   42.2986 H   0  0  0  0  0  0  0  0  0  0  0  0
   45.3963   36.6393   41.9026 H   0  0  0  0  0  0  0  0  0  0  0  0
   44.2127   37.3743   43.0169 H   0  0  0  0  0  0  0  0  0  0  0  0
  1  6  2  0
  2  1  1  0
  3  2  2  0
  3  4  1  0
  4  5  2  0
  5  6  1  0
  7  3  1  0
  8  7  2  0
  9  8  1  0
 10 11  1  0
 10  9  2  0
 11 16  2  0
 12 13  2  0
 12 11  1  0
 13 14  1  0
 14 15  2  0
 16 15  1  0
 16  7  1  0
 17  2  1  0
  1 18  1  0
  5 19  1  0
  8 20  1  0
  9 21  1  0
 10 22  1  0
 12 23  1  0
 13 24  1  0
 14 25  1  0
 15 26  1  0
 17 27  1  0
 17 28  1  0
M  ISO  8  18  14  19  14  20  14  21  14  22  14  23  14  24  14  25  14
M  ISO  1  26  14
M  END
>  <minimizedAffinity>  (1) 
-5.80862427

>  <minimizedRMSD>  (1) 
2.595505

$$$$
