
     RDKit          3D

 40 43  0  0  1  0  0  0  0  0999 V2000
   45.1430   34.4210   41.9830 N   0  0  0  0  0  0  0  0  0  0  0  0
   46.1890   33.8090   41.3080 C   0  0  1  0  0  0  0  0  0  0  0  0
   46.0870   33.7800   39.8180 C   0  0  0  0  0  0  0  0  0  0  0  0
   44.8140   33.5550   39.2850 N   0  0  0  0  0  0  0  0  0  0  0  0
   43.7090   34.0110   40.0270 C   0  0  0  0  0  0  0  0  0  0  0  0
   44.1380   34.9950   41.1110 C   0  0  0  0  0  0  0  0  0  0  0  0
   47.6070   34.0470   41.6230 C   0  0  0  0  0  0  0  0  0  0  0  0
   48.0730   35.3810   41.6990 C   0  0  0  0  0  0  0  0  0  0  0  0
   49.3280   35.7920   42.0040 C   0  0  0  0  0  0  0  0  0  0  0  0
   50.2750   34.8370   42.2730 C   0  0  0  0  0  0  0  0  0  0  0  0
   49.9420   33.5030   42.2310 C   0  0  0  0  0  0  0  0  0  0  0  0
   50.8490   32.4980   42.4910 C   0  0  0  0  0  0  0  0  0  0  0  0
   50.5200   31.1390   42.4500 C   0  0  0  0  0  0  0  0  0  0  0  0
   49.1970   30.8180   42.1250 C   0  0  0  0  0  0  0  0  0  0  0  0
   48.3310   31.8540   41.8740 C   0  0  0  0  0  0  0  0  0  0  0  0
   48.6460   33.1890   41.9130 C   0  0  0  0  0  0  0  0  0  0  0  0
   44.5860   35.5580   44.0140 C   0  0  0  0  0  0  0  0  0  0  0  0
   45.0860   34.4300   43.3840 C   0  0  0  0  0  0  0  0  0  0  0  0
   45.4820   33.3860   44.1820 C   0  0  0  0  0  0  0  0  0  0  0  0
   45.3910   33.4520   45.5200 N   0  0  0  0  0  0  0  0  0  0  0  0
   44.8930   34.5790   46.1110 C   0  0  0  0  0  0  0  0  0  0  0  0
   44.5020   35.6030   45.3700 N   0  0  0  0  0  0  0  0  0  0  0  0
   45.9573   32.8506   41.7957 H   0  0  0  0  0  0  0  0  0  0  0  0
   46.4413   34.7502   39.4396 H   0  0  0  0  0  0  0  0  0  0  0  0
   46.6924   32.9180   39.5010 H   0  0  0  0  0  0  0  0  0  0  0  0
   44.7790   34.0161   38.3646 H   0  0  0  0  0  0  0  0  0  0  0  0
   43.0030   34.5113   39.3478 H   0  0  0  0  0  0  0  0  0  0  0  0
   43.2348   33.1450   40.5118 H   0  0  0  0  0  0  0  0  0  0  0  0
   44.5518   35.8951   40.6329 H   0  0  0  0  0  0  0  0  0  0  0  0
   43.2558   35.2443   41.7190 H   0  0  0  0  0  0  0  0  0  0  0  0
   47.3366   36.1703   41.4875 H   0  0  0  0  0  0  0  0  0  0  0  0
   49.5802   36.8623   42.0350 H   0  0  0  0  0  0  0  0  0  0  0  0
   51.3030   35.1385   42.5229 H   0  0  0  0  0  0  0  0  0  0  0  0
   51.8823   32.7785   42.7431 H   0  0  0  0  0  0  0  0  0  0  0  0
   51.2660   30.3592   42.6632 H   0  0  0  0  0  0  0  0  0  0  0  0
   48.8622   29.7715   42.0724 H   0  0  0  0  0  0  0  0  0  0  0  0
   47.2938   31.5905   41.6194 H   0  0  0  0  0  0  0  0  0  0  0  0
   44.2560   36.4197   43.4152 H   0  0  0  0  0  0  0  0  0  0  0  0
   45.8831   32.4745   43.7148 H   0  0  0  0  0  0  0  0  0  0  0  0
   44.8169   34.6351   47.2069 H   0  0  0  0  0  0  0  0  0  0  0  0
  1 18  1  0
  2  7  1  0
  2  1  1  0
  3  2  1  0
  4  3  1  0
  4  5  1  0
  5  6  1  0
  6  1  1  0
  7  8  2  0
  7 16  1  0
  8  9  1  0
  9 10  2  0
 11 10  1  0
 11 12  2  0
 13 12  1  0
 14 13  2  0
 15 16  2  0
 15 14  1  0
 16 11  1  0
 17 22  2  0
 18 17  1  0
 18 19  2  0
 19 20  1  0
 20 21  2  0
 22 21  1  0
  2 23  1  1
  3 24  1  0
  3 25  1  0
  4 26  1  0
  5 27  1  0
  5 28  1  0
  6 29  1  0
  6 30  1  0
  8 31  1  0
  9 32  1  0
 10 33  1  0
 12 34  1  0
 13 35  1  0
 14 36  1  0
 15 37  1  0
 17 38  1  0
 19 39  1  0
 21 40  1  0
M  ISO  8  23  13  24  13  25  13  26   5  27  13  28  13  29  13  30  13
M  ISO  8  31  14  32  14  33  14  34  14  35  14  36  14  37  14  38  14
M  ISO  2  39  14  40  14
M  END
>  <minimizedAffinity>  (1) 
-5.96607304

>  <minimizedRMSD>  (1) 
3.18778133

$$$$
