
     RDKit          3D

 41 43  0  0  1  0  0  0  0  0999 V2000
   45.4420   32.4480   42.3000 C   0  0  1  0  0  0  0  0  0  0  0  0
   43.9130   32.5240   42.3460 C   0  0  0  0  0  0  0  0  0  0  0  0
   43.2100   33.0770   41.1840 C   0  0  0  0  0  0  0  0  0  0  0  0
   44.0900   33.5780   40.0650 C   0  0  0  0  0  0  0  0  0  0  0  0
   45.2260   34.3520   40.7960 C   0  0  0  0  0  0  0  0  0  0  0  0
   46.1120   33.3060   41.3210 C   0  0  1  0  0  0  0  0  0  0  0  0
   45.6060   33.7100   44.4580 C   0  0  0  0  0  0  0  0  0  0  0  0
   45.8800   32.5670   43.7100 C   0  0  0  0  0  0  0  0  0  0  0  0
   46.6500   31.5720   44.3430 C   0  0  0  0  0  0  0  0  0  0  0  0
   47.0850   31.7520   45.6110 N   0  0  0  0  0  0  0  0  0  0  0  0
   46.7780   32.8970   46.2800 C   0  0  0  0  0  0  0  0  0  0  0  0
   46.0410   33.8670   45.6950 N   0  0  0  0  0  0  0  0  0  0  0  0
   47.2140   33.0910   47.6030 N   0  0  0  0  0  0  0  0  0  0  0  0
   46.9100   30.3790   43.6090 N   0  0  0  0  0  0  0  0  0  0  0  0
   48.5870   32.6360   41.3600 C   0  0  0  0  0  0  0  0  0  0  0  0
   47.5050   33.4500   41.6350 C   0  0  0  0  0  0  0  0  0  0  0  0
   47.7600   34.6560   42.3180 C   0  0  0  0  0  0  0  0  0  0  0  0
   49.0120   35.0420   42.7090 C   0  0  0  0  0  0  0  0  0  0  0  0
   50.0860   34.2330   42.4360 C   0  0  0  0  0  0  0  0  0  0  0  0
   49.8420   33.0540   41.7690 C   0  0  0  0  0  0  0  0  0  0  0  0
   48.2960   31.1720   40.5760 S   0  0  0  0  0  0  0  0  0  0  0  0
   48.1910   31.1140   39.1190 O   0  0  0  0  0  0  0  0  0  0  0  0
   49.5990   30.3500   40.7230 O   0  0  0  0  0  0  0  0  0  0  0  0
   45.7710   31.4864   41.8793 H   0  0  0  0  0  0  0  0  0  0  0  0
   43.3567   32.1729   43.2277 H   0  0  0  0  0  0  0  0  0  0  0  0
   42.1123   33.1236   41.1314 H   0  0  0  0  0  0  0  0  0  0  0  0
   43.5288   34.2471   39.3961 H   0  0  0  0  0  0  0  0  0  0  0  0
   44.4724   32.7646   39.4309 H   0  0  0  0  0  0  0  0  0  0  0  0
   45.7674   35.0018   40.0927 H   0  0  0  0  0  0  0  0  0  0  0  0
   44.8388   35.0067   41.5906 H   0  0  0  0  0  0  0  0  0  0  0  0
   46.2828   32.8782   40.3221 H   0  0  0  0  0  0  0  0  0  0  0  0
   45.0055   34.5107   44.0017 H   0  0  0  0  0  0  0  0  0  0  0  0
   46.9767   33.9608   48.1011 H   0  0  0  0  0  0  0  0  0  0  0  0
   47.7706   32.3633   48.0738 H   0  0  0  0  0  0  0  0  0  0  0  0
   47.4689   29.6249   44.0331 H   0  0  0  0  0  0  0  0  0  0  0  0
   46.5391   30.2706   42.6542 H   0  0  0  0  0  0  0  0  0  0  0  0
   46.9119   35.3179   42.5473 H   0  0  0  0  0  0  0  0  0  0  0  0
   49.1573   35.9949   43.2390 H   0  0  0  0  0  0  0  0  0  0  0  0
   51.1048   34.5163   42.7391 H   0  0  0  0  0  0  0  0  0  0  0  0
   50.6994   32.4018   41.5465 H   0  0  0  0  0  0  0  0  0  0  0  0
   47.1009   30.7948   41.1295 H   0  0  0  0  0  0  0  0  0  0  0  0
  1  2  1  0
  1  8  1  0
  3  2  2  0
  4  5  1  0
  4  3  1  0
  5  6  1  0
  6 16  1  0
  6  1  1  0
  7 12  2  0
  8  9  2  0
  8  7  1  0
  9 10  1  0
 10 11  2  0
 11 13  1  0
 12 11  1  0
 14  9  1  0
 15 16  2  0
 15 20  1  0
 16 17  1  0
 17 18  2  0
 19 18  1  0
 20 19  2  0
 21 23  2  0
 21 15  1  0
 22 21  2  0
  1 24  1  6
  2 25  1  0
  3 26  1  0
  4 27  1  0
  4 28  1  0
  5 29  1  0
  5 30  1  0
  6 31  1  6
  7 32  1  0
 13 33  1  0
 13 34  1  0
 14 35  1  0
 14 36  1  0
 17 37  1  0
 18 38  1  0
 19 39  1  0
 20 40  1  0
 21 41  1  0
M  ISO  8  24  13  25  13  26  13  27  13  28  13  29  13  30  13  31  13
M  ISO  6  32  14  37  14  38  14  39  14  40  14  41  11
M  END
>  <minimizedAffinity>  (1) 
-5.12943792

>  <minimizedRMSD>  (1) 
4.03593159

$$$$
