
     RDKit          3D

 38 40  0  0  1  0  0  0  0  0999 V2000
   44.4670   35.7410   44.9850 C   0  0  0  0  0  0  0  0  0  0  0  0
   45.1300   35.7280   43.7460 C   0  0  0  0  0  0  0  0  0  0  0  0
   46.0490   34.7550   43.5090 C   0  0  0  0  0  0  0  0  0  0  0  0
   46.2610   33.8590   44.4960 N   0  0  0  0  0  0  0  0  0  0  0  0
   45.6340   33.8710   45.6690 C   0  0  0  0  0  0  0  0  0  0  0  0
   44.7180   34.8120   45.9490 N   0  0  0  0  0  0  0  0  0  0  0  0
   45.9540   32.8690   46.6220 N   0  0  0  0  0  0  0  0  0  0  0  0
   45.1530   32.5580   47.8030 C   0  0  0  0  0  0  0  0  0  0  0  0
   46.2440   32.2710   48.8280 C   0  0  0  0  0  0  0  0  0  0  0  0
   47.5430   32.1470   48.0760 C   0  0  0  0  0  0  0  0  0  0  0  0
   47.0900   31.9730   46.6440 C   0  0  1  0  0  0  0  0  0  0  0  0
   44.7320   36.7880   42.8700 N   0  0  0  0  0  0  0  0  0  0  0  0
   46.6000   30.2540   46.4150 S   0  0  0  0  0  0  0  0  0  0  0  0
   44.7850   29.2650   44.4720 C   0  0  0  0  0  0  0  0  0  0  0  0
   45.9360   29.9500   44.7890 C   0  0  0  0  0  0  0  0  0  0  0  0
   46.7160   30.4940   43.7640 C   0  0  0  0  0  0  0  0  0  0  0  0
   46.3170   30.3350   42.4490 C   0  0  0  0  0  0  0  0  0  0  0  0
   45.1700   29.6530   42.1200 C   0  0  0  0  0  0  0  0  0  0  0  0
   44.4160   29.1240   43.1480 C   0  0  0  0  0  0  0  0  0  0  0  0
   43.8940   28.6320   45.8340 S   0  0  0  0  0  0  0  0  0  0  0  0
   42.4260   28.5180   45.4490 O   0  0  0  0  0  0  0  0  0  0  0  0
   44.3150   27.2480   46.2140 O   0  0  0  0  0  0  0  0  0  0  0  0
   43.7221   36.5259   45.1825 H   0  0  0  0  0  0  0  0  0  0  0  0
   46.5953   34.7002   42.5558 H   0  0  0  0  0  0  0  0  0  0  0  0
   44.5300   33.4128   48.1050 H   0  0  0  0  0  0  0  0  0  0  0  0
   44.4369   31.7352   47.6610 H   0  0  0  0  0  0  0  0  0  0  0  0
   46.3059   33.0960   49.5530 H   0  0  0  0  0  0  0  0  0  0  0  0
   46.0247   31.3463   49.3819 H   0  0  0  0  0  0  0  0  0  0  0  0
   48.1543   33.0543   48.1901 H   0  0  0  0  0  0  0  0  0  0  0  0
   48.1751   31.3213   48.4347 H   0  0  0  0  0  0  0  0  0  0  0  0
   47.8294   32.1874   45.8583 H   0  0  0  0  0  0  0  0  0  0  0  0
   45.1570   36.8708   41.9354 H   0  0  0  0  0  0  0  0  0  0  0  0
   44.0206   37.4679   43.1743 H   0  0  0  0  0  0  0  0  0  0  0  0
   47.6389   31.0436   44.0012 H   0  0  0  0  0  0  0  0  0  0  0  0
   46.9335   30.7654   41.6461 H   0  0  0  0  0  0  0  0  0  0  0  0
   44.8626   29.5326   41.0707 H   0  0  0  0  0  0  0  0  0  0  0  0
   43.4945   28.5742   42.9061 H   0  0  0  0  0  0  0  0  0  0  0  0
   44.1259   29.4874   46.8787 H   0  0  0  0  0  0  0  0  0  0  0  0
  1  6  2  0
  2  1  1  0
  3  2  2  0
  3  4  1  0
  4  5  2  0
  5  6  1  0
  5  7  1  0
  7 11  1  0
  7  8  1  0
  8  9  1  0
 10  9  1  0
 11 10  1  0
 12  2  1  0
 13 11  1  0
 14 15  2  0
 14 20  1  0
 15 13  1  0
 16 15  1  0
 17 16  2  0
 18 17  1  0
 18 19  2  0
 19 14  1  0
 20 22  2  0
 21 20  2  0
  1 23  1  0
  3 24  1  0
  8 25  1  0
  8 26  1  0
  9 27  1  0
  9 28  1  0
 10 29  1  0
 10 30  1  0
 11 31  1  6
 12 32  1  0
 12 33  1  0
 16 34  1  0
 17 35  1  0
 18 36  1  0
 19 37  1  0
 20 38  1  0
M  ISO  8  23  14  24  14  25  13  26  13  27  13  28  13  29  13  30  13
M  ISO  6  31  13  34  14  35  14  36  14  37  14  38  11
M  END
>  <minimizedAffinity>  (1) 
-5.12941027

>  <minimizedRMSD>  (1) 
0.421861738

$$$$
