
     RDKit          3D

 36 38  0  0  1  0  0  0  0  0999 V2000
   44.7550   34.2590   40.5140 C   0  0  2  0  0  0  0  0  0  0  0  0
   45.3920   34.2200   41.8780 C   0  0  0  0  0  0  0  0  0  0  0  0
   44.9100   35.5360   42.4670 C   0  0  0  0  0  0  0  0  0  0  0  0
   43.5940   35.8440   41.7590 C   0  0  0  0  0  0  0  0  0  0  0  0
   43.3740   34.6360   40.9050 C   0  0  1  0  0  0  0  0  0  0  0  0
   45.2280   31.6960   37.8130 C   0  0  0  0  0  0  0  0  0  0  0  0
   45.1660   32.9640   38.4090 C   0  0  0  0  0  0  0  0  0  0  0  0
   44.8400   32.9820   39.7830 C   0  0  0  0  0  0  0  0  0  0  0  0
   44.6070   31.8100   40.4570 N   0  0  0  0  0  0  0  0  0  0  0  0
   44.6880   30.6270   39.8050 C   0  0  0  0  0  0  0  0  0  0  0  0
   44.9950   30.5660   38.5000 N   0  0  0  0  0  0  0  0  0  0  0  0
   41.1840   33.7150   40.0630 C   0  0  0  0  0  0  0  0  0  0  0  0
   42.2660   34.5810   40.0160 C   0  0  0  0  0  0  0  0  0  0  0  0
   42.1660   35.4590   38.9170 C   0  0  0  0  0  0  0  0  0  0  0  0
   41.1870   35.5340   37.9690 C   0  0  0  0  0  0  0  0  0  0  0  0
   40.1590   34.6450   38.0900 C   0  0  0  0  0  0  0  0  0  0  0  0
   40.1510   33.7520   39.1150 C   0  0  0  0  0  0  0  0  0  0  0  0
   41.0520   32.5540   41.3160 S   0  0  0  0  0  0  0  0  0  0  0  0
   40.9430   31.1270   40.8360 O   0  0  0  0  0  0  0  0  0  0  0  0
   39.6540   32.7320   41.9510 O   0  0  0  0  0  0  0  0  0  0  0  0
   45.2350   34.9399   39.7957 H   0  0  0  0  0  0  0  0  0  0  0  0
   45.0352   33.3609   42.4651 H   0  0  0  0  0  0  0  0  0  0  0  0
   46.4860   34.1063   41.8622 H   0  0  0  0  0  0  0  0  0  0  0  0
   44.7489   35.4358   43.5505 H   0  0  0  0  0  0  0  0  0  0  0  0
   45.6470   36.3401   42.3247 H   0  0  0  0  0  0  0  0  0  0  0  0
   42.7760   35.9688   42.4838 H   0  0  0  0  0  0  0  0  0  0  0  0
   43.6234   36.7802   41.1823 H   0  0  0  0  0  0  0  0  0  0  0  0
   42.8876   33.7964   41.4232 H   0  0  0  0  0  0  0  0  0  0  0  0
   45.4765   31.6245   36.7438 H   0  0  0  0  0  0  0  0  0  0  0  0
   45.3592   33.8865   37.8419 H   0  0  0  0  0  0  0  0  0  0  0  0
   44.4980   29.6946   40.3569 H   0  0  0  0  0  0  0  0  0  0  0  0
   42.9885   36.1813   38.8092 H   0  0  0  0  0  0  0  0  0  0  0  0
   41.2246   36.2703   37.1527 H   0  0  0  0  0  0  0  0  0  0  0  0
   39.3373   34.6509   37.3587 H   0  0  0  0  0  0  0  0  0  0  0  0
   39.3152   33.0422   39.2029 H   0  0  0  0  0  0  0  0  0  0  0  0
   42.1587   32.7417   42.1015 H   0  0  0  0  0  0  0  0  0  0  0  0
  1  5  1  0
  1  2  1  0
  2  3  1  0
  4  3  1  0
  5  4  1  0
  6  7  2  0
  6 11  1  0
  7  8  1  0
  8  9  2  0
  8  1  1  0
 10  9  1  0
 11 10  2  0
 12 18  1  0
 13 12  2  0
 13  5  1  0
 14 13  1  0
 15 16  1  0
 15 14  2  0
 16 17  2  0
 17 12  1  0
 18 20  2  0
 19 18  2  0
  1 21  1  6
  2 22  1  0
  2 23  1  0
  3 24  1  0
  3 25  1  0
  4 26  1  0
  4 27  1  0
  5 28  1  1
  6 29  1  0
  7 30  1  0
 10 31  1  0
 14 32  1  0
 15 33  1  0
 16 34  1  0
 17 35  1  0
 18 36  1  0
M  ISO  8  21  13  22  13  23  13  24  13  25  13  26  13  27  13  28  13
M  ISO  8  29  14  30  14  31  14  32  14  33  14  34  14  35  14  36  11
M  END
>  <minimizedAffinity>  (1) 
-4.55161047

>  <minimizedRMSD>  (1) 
8.13920689

$$$$
