
     RDKit          3D

 51 55  0  0  0  0  0  0  0  0999 V2000
   45.7050   33.6790   45.2020 C   0  0  0  0  0  0  0  0  0  0  0  0
   44.9620   34.7230   45.6570 N   0  0  0  0  0  0  0  0  0  0  0  0
   44.6530   35.8080   44.9540 C   0  0  0  0  0  0  0  0  0  0  0  0
   45.0960   35.9210   43.6810 N   0  0  0  0  0  0  0  0  0  0  0  0
   45.8350   34.9570   43.1310 C   0  0  0  0  0  0  0  0  0  0  0  0
   46.2740   35.0790   41.8280 C   0  0  0  0  0  0  0  0  0  0  0  0
   47.0310   34.0840   41.2490 C   0  0  0  0  0  0  0  0  0  0  0  0
   47.3350   32.9660   42.0160 C   0  0  0  0  0  0  0  0  0  0  0  0
   46.8640   32.9050   43.3140 C   0  0  0  0  0  0  0  0  0  0  0  0
   46.1170   33.8630   43.9150 C   0  0  0  0  0  0  0  0  0  0  0  0
   47.4760   31.8260   47.7230 C   0  0  0  0  0  0  0  0  0  0  0  0
   46.9210   30.5520   47.7530 C   0  0  0  0  0  0  0  0  0  0  0  0
   45.8970   30.3210   46.8940 C   0  0  0  0  0  0  0  0  0  0  0  0
   45.4700   31.2770   46.0690 N   0  0  0  0  0  0  0  0  0  0  0  0
   46.0000   32.5070   46.0250 C   0  0  0  0  0  0  0  0  0  0  0  0
   47.0090   32.7390   46.8810 N   0  0  0  0  0  0  0  0  0  0  0  0
   45.2530   29.0890   46.8690 N   0  0  0  0  0  0  0  0  0  0  0  0
   43.9810   28.8050   46.1680 C   0  0  0  0  0  0  0  0  0  0  0  0
   43.8140   27.3110   46.2140 C   0  0  0  0  0  0  0  0  0  0  0  0
   44.5670   26.9220   47.4550 C   0  0  0  0  0  0  0  0  0  0  0  0
   45.6990   27.8890   47.5220 C   0  0  0  0  0  0  0  0  0  0  0  0
   47.4850   29.5860   48.5760 N   0  0  0  0  0  0  0  0  0  0  0  0
   46.4450   30.5870   43.3200 C   0  0  0  0  0  0  0  0  0  0  0  0
   47.3290   31.5990   43.7620 C   0  0  0  0  0  0  0  0  0  0  0  0
   48.4420   31.1510   44.4550 C   0  0  0  0  0  0  0  0  0  0  0  0
   48.7230   29.8360   44.7250 C   0  0  0  0  0  0  0  0  0  0  0  0
   47.8670   28.8570   44.2960 C   0  0  0  0  0  0  0  0  0  0  0  0
   46.7240   29.2410   43.5900 C   0  0  0  0  0  0  0  0  0  0  0  0
   44.9450   30.7030   42.4180 S   0  0  0  0  0  0  0  0  0  0  0  0
   44.1340   31.8510   42.8780 O   0  0  0  0  0  0  0  0  0  0  0  0
   45.3620   30.9160   40.9690 O   0  0  0  0  0  0  0  0  0  0  0  0
   44.0432   36.6059   45.4029 H   0  0  0  0  0  0  0  0  0  0  0  0
   46.0175   35.9775   41.2475 H   0  0  0  0  0  0  0  0  0  0  0  0
   47.3840   34.1720   40.2109 H   0  0  0  0  0  0  0  0  0  0  0  0
   47.9382   32.1462   41.5987 H   0  0  0  0  0  0  0  0  0  0  0  0
   48.3056   32.0783   48.3999 H   0  0  0  0  0  0  0  0  0  0  0  0
   44.0318   29.1531   45.1258 H   0  0  0  0  0  0  0  0  0  0  0  0
   43.1332   29.3224   46.6408 H   0  0  0  0  0  0  0  0  0  0  0  0
   42.7523   27.0346   46.2934 H   0  0  0  0  0  0  0  0  0  0  0  0
   44.1826   26.8066   45.3086 H   0  0  0  0  0  0  0  0  0  0  0  0
   43.9252   27.0123   48.3438 H   0  0  0  0  0  0  0  0  0  0  0  0
   44.9100   25.8772   47.4264 H   0  0  0  0  0  0  0  0  0  0  0  0
   46.5790   27.4797   47.0042 H   0  0  0  0  0  0  0  0  0  0  0  0
   45.9890   28.0887   48.5641 H   0  0  0  0  0  0  0  0  0  0  0  0
   47.0834   28.6380   48.6076 H   0  0  0  0  0  0  0  0  0  0  0  0
   48.3049   29.8175   49.1548 H   0  0  0  0  0  0  0  0  0  0  0  0
   49.1544   31.9074   44.8161 H   0  0  0  0  0  0  0  0  0  0  0  0
   49.6321   29.5689   45.2838 H   0  0  0  0  0  0  0  0  0  0  0  0
   48.0737   27.7964   44.5017 H   0  0  0  0  0  0  0  0  0  0  0  0
   46.0260   28.4673   43.2375 H   0  0  0  0  0  0  0  0  0  0  0  0
   44.1780   29.5801   42.5849 H   0  0  0  0  0  0  0  0  0  0  0  0
  1  2  2  0
  1 15  1  0
  3  2  1  0
  4  3  2  0
  5  4  1  0
  5 10  2  0
  6  5  1  0
  7  6  2  0
  7  8  1  0
  8  9  2  0
  9 24  1  0
  9 10  1  0
 10  1  1  0
 11 12  2  0
 12 22  1  0
 13 12  1  0
 14 13  2  0
 15 14  1  0
 15 16  2  0
 16 11  1  0
 17 13  1  0
 17 21  1  0
 18 19  1  0
 18 17  1  0
 19 20  1  0
 20 21  1  0
 23 28  2  0
 23 24  1  0
 24 25  2  0
 25 26  1  0
 27 26  2  0
 28 27  1  0
 29 30  2  0
 29 23  1  0
 31 29  2  0
  3 32  1  0
  6 33  1  0
  7 34  1  0
  8 35  1  0
 11 36  1  0
 18 37  1  0
 18 38  1  0
 19 39  1  0
 19 40  1  0
 20 41  1  0
 20 42  1  0
 21 43  1  0
 21 44  1  0
 22 45  1  0
 22 46  1  0
 25 47  1  0
 26 48  1  0
 27 49  1  0
 28 50  1  0
 29 51  1  0
M  ISO  8  32  14  33  14  34  14  35  14  36  14  37  13  38  13  39  13
M  ISO  8  40  13  41  13  42  13  43  13  44  13  47  14  48  14  49  14
M  ISO  2  50  14  51  11
M  END
>  <minimizedAffinity>  (1) 
-6.00450373

>  <minimizedRMSD>  (1) 
0.837073505

$$$$
