
     RDKit          3D

 41 43  0  0  1  0  0  0  0  0999 V2000
   46.0860   30.6970   47.3910 C   0  0  2  0  0  0  0  0  0  0  0  0
   44.7990   31.1270   48.0610 C   0  0  0  0  0  0  0  0  0  0  0  0
   45.4170   31.4920   49.4010 C   0  0  0  0  0  0  0  0  0  0  0  0
   46.4980   32.2680   49.0300 O   0  0  0  0  0  0  0  0  0  0  0  0
   47.0540   31.7040   47.8640 C   0  0  1  0  0  0  0  0  0  0  0  0
   48.7740   29.8180   47.9650 C   0  0  0  0  0  0  0  0  0  0  0  0
   48.3280   31.0670   48.3770 C   0  0  0  0  0  0  0  0  0  0  0  0
   49.1250   31.7520   49.2620 C   0  0  0  0  0  0  0  0  0  0  0  0
   50.3290   31.2710   49.7590 C   0  0  0  0  0  0  0  0  0  0  0  0
   50.7690   30.0320   49.3470 C   0  0  0  0  0  0  0  0  0  0  0  0
   49.9920   29.3460   48.4730 C   0  0  0  0  0  0  0  0  0  0  0  0
   47.8790   28.8230   46.8890 S   0  0  0  0  0  0  0  0  0  0  0  0
   47.6490   27.4870   47.6230 O   0  0  0  0  0  0  0  0  0  0  0  0
   48.6300   28.3920   45.6600 O   0  0  0  0  0  0  0  0  0  0  0  0
   45.9330   30.5760   45.9000 C   0  0  0  0  0  0  0  0  0  0  0  0
   47.1000   31.7750   44.1290 C   0  0  0  0  0  0  0  0  0  0  0  0
   46.2710   31.8180   45.1600 C   0  0  0  0  0  0  0  0  0  0  0  0
   46.8980   35.0170   42.4550 C   0  0  0  0  0  0  0  0  0  0  0  0
   48.2400   35.2220   42.0360 C   0  0  0  0  0  0  0  0  0  0  0  0
   49.1580   34.2230   42.3520 C   0  0  0  0  0  0  0  0  0  0  0  0
   48.7240   33.1330   43.0300 N   0  0  0  0  0  0  0  0  0  0  0  0
   47.4300   32.9820   43.4090 C   0  0  0  0  0  0  0  0  0  0  0  0
   46.5310   33.9030   43.1290 N   0  0  0  0  0  0  0  0  0  0  0  0
   46.4242   29.6833   47.6518 H   0  0  0  0  0  0  0  0  0  0  0  0
   44.3300   31.9883   47.5628 H   0  0  0  0  0  0  0  0  0  0  0  0
   43.9772   30.3959   48.0750 H   0  0  0  0  0  0  0  0  0  0  0  0
   44.7114   32.0638   50.0216 H   0  0  0  0  0  0  0  0  0  0  0  0
   45.6927   30.6181   50.0095 H   0  0  0  0  0  0  0  0  0  0  0  0
   47.2597   32.3952   47.0334 H   0  0  0  0  0  0  0  0  0  0  0  0
   48.7881   32.7438   49.5979 H   0  0  0  0  0  0  0  0  0  0  0  0
   50.9206   31.8681   50.4686 H   0  0  0  0  0  0  0  0  0  0  0  0
   51.7178   29.6139   49.7144 H   0  0  0  0  0  0  0  0  0  0  0  0
   50.3395   28.3563   48.1416 H   0  0  0  0  0  0  0  0  0  0  0  0
   46.7753   29.5498   46.5278 H   0  0  0  0  0  0  0  0  0  0  0  0
   46.5951   29.7713   45.5476 H   0  0  0  0  0  0  0  0  0  0  0  0
   44.8716   30.3646   45.7031 H   0  0  0  0  0  0  0  0  0  0  0  0
   47.5395   30.8153   43.8194 H   0  0  0  0  0  0  0  0  0  0  0  0
   45.8309   32.7774   45.4697 H   0  0  0  0  0  0  0  0  0  0  0  0
   46.1405   35.7811   42.2262 H   0  0  0  0  0  0  0  0  0  0  0  0
   48.5401   36.1272   41.4877 H   0  0  0  0  0  0  0  0  0  0  0  0
   50.2136   34.3171   42.0572 H   0  0  0  0  0  0  0  0  0  0  0  0
  1  5  1  0
  1  2  1  0
  2  3  1  0
  4  3  1  0
  5  7  1  0
  5  4  1  0
  6  7  2  0
  6 11  1  0
  7  8  1  0
  8  9  2  0
 10  9  1  0
 11 10  2  0
 12 13  2  0
 12  6  1  0
 14 12  2  0
 15  1  1  0
 16 17  2  0
 17 15  1  0
 18 23  2  0
 19 20  2  0
 19 18  1  0
 20 21  1  0
 21 22  2  0
 22 16  1  0
 23 22  1  0
  1 24  1  1
  2 25  1  0
  2 26  1  0
  3 27  1  0
  3 28  1  0
  5 29  1  6
  8 30  1  0
  9 31  1  0
 10 32  1  0
 11 33  1  0
 12 34  1  0
 15 35  1  0
 15 36  1  0
 16 37  1  0
 17 38  1  0
 18 39  1  0
 19 40  1  0
 20 41  1  0
M  ISO  8  24  13  25  13  26  13  27  13  28  13  29  13  30  14  31  14
M  ISO  8  32  14  33  14  34  11  35   8  36   8  39  14  40  14  41  14
M  END
>  <minimizedAffinity>  (1) 
-4.85013103

>  <minimizedRMSD>  (1) 
1.65500903

$$$$
