
     RDKit          3D

 45 48  0  0  1  0  0  0  0  0999 V2000
   46.6650   33.6720   37.5670 O   0  0  0  0  0  0  0  0  0  0  0  0
   45.6030   32.8240   37.8840 C   0  0  0  0  0  0  0  0  0  0  0  0
   45.5760   31.4450   37.7830 C   0  0  0  0  0  0  0  0  0  0  0  0
   44.4450   30.7450   38.1370 C   0  0  0  0  0  0  0  0  0  0  0  0
   43.3390   31.4100   38.5910 C   0  0  0  0  0  0  0  0  0  0  0  0
   43.4020   32.8020   38.6800 C   0  0  0  0  0  0  0  0  0  0  0  0
   44.5270   33.4740   38.3260 N   0  0  0  0  0  0  0  0  0  0  0  0
   41.2320   33.2400   39.9480 C   0  0  0  0  0  0  0  0  0  0  0  0
   42.2310   33.5560   39.0730 C   0  0  0  0  0  0  0  0  0  0  0  0
   42.0850   34.8090   38.5150 C   0  0  0  0  0  0  0  0  0  0  0  0
   41.0600   35.6750   38.7810 C   0  0  0  0  0  0  0  0  0  0  0  0
   40.0790   35.3190   39.6620 C   0  0  0  0  0  0  0  0  0  0  0  0
   40.1800   34.0760   40.2480 C   0  0  0  0  0  0  0  0  0  0  0  0
   41.2560   31.7470   40.8460 S   0  0  0  0  0  0  0  0  0  0  0  0
   40.4310   30.6660   40.2450 O   0  0  0  0  0  0  0  0  0  0  0  0
   40.6000   31.9900   42.2300 O   0  0  0  0  0  0  0  0  0  0  0  0
   48.7290   32.4330   38.3700 O   0  0  0  0  0  0  0  0  0  0  0  0
   48.0700   33.8090   38.4740 P   0  0  1  0  0  0  0  0  0  0  0  0
   49.0990   34.8680   37.6570 O   0  0  0  0  0  0  0  0  0  0  0  0
   47.7340   34.2170   40.0240 O   0  0  0  0  0  0  0  0  0  0  0  0
   48.2110   35.5300   41.9980 C   0  0  1  0  0  0  0  0  0  0  0  0
   49.4220   34.7230   41.8020 C   0  0  0  0  0  0  0  0  0  0  0  0
   48.5160   35.1420   40.6260 C   0  0  1  0  0  0  0  0  0  0  0  0
   46.2470   33.0180   44.0420 C   0  0  0  0  0  0  0  0  0  0  0  0
   47.3270   33.6690   43.4520 C   0  0  0  0  0  0  0  0  0  0  0  0
   47.0730   34.8070   42.6610 C   0  0  0  0  0  0  0  0  0  0  0  0
   45.7860   35.2340   42.4960 N   0  0  0  0  0  0  0  0  0  0  0  0
   44.7630   34.5640   43.0930 C   0  0  0  0  0  0  0  0  0  0  0  0
   44.9890   33.4700   43.8570 N   0  0  0  0  0  0  0  0  0  0  0  0
   46.4623   30.9052   37.4182 H   0  0  0  0  0  0  0  0  0  0  0  0
   44.4304   29.6482   38.0547 H   0  0  0  0  0  0  0  0  0  0  0  0
   42.4277   30.8646   38.8773 H   0  0  0  0  0  0  0  0  0  0  0  0
   42.8533   35.1378   37.7998 H   0  0  0  0  0  0  0  0  0  0  0  0
   41.0260   36.6567   38.2860 H   0  0  0  0  0  0  0  0  0  0  0  0
   39.2436   35.9959   39.8940 H   0  0  0  0  0  0  0  0  0  0  0  0
   39.4116   33.7480   40.9635 H   0  0  0  0  0  0  0  0  0  0  0  0
   42.5717   31.3669   40.8820 H   0  0  0  0  0  0  0  0  0  0  0  0
   49.6151   35.3992   38.3139 H   0  0  0  0  0  0  0  0  0  0  0  0
   48.0040   36.5008   42.4720 H   0  0  0  0  0  0  0  0  0  0  0  0
   50.4172   35.1751   41.9254 H   0  0  0  0  0  0  0  0  0  0  0  0
   49.8125   33.7746   42.1997 H   0  0  0  0  0  0  0  0  0  0  0  0
   48.6678   35.6655   39.6705 H   0  0  0  0  0  0  0  0  0  0  0  0
   46.4206   32.1277   44.6642 H   0  0  0  0  0  0  0  0  0  0  0  0
   48.3540   33.3037   43.5998 H   0  0  0  0  0  0  0  0  0  0  0  0
   43.7314   34.9188   42.9517 H   0  0  0  0  0  0  0  0  0  0  0  0
  1  2  1  0
  1 18  1  0
  2  7  1  0
  3  2  2  0
  3  4  1  0
  4  5  2  0
  5  6  1  0
  6  9  1  0
  7  6  2  0
  8 13  2  0
  8 14  1  0
  9  8  1  0
 10 11  1  0
 10  9  2  0
 11 12  2  0
 12 13  1  0
 14 16  2  0
 15 14  2  0
 18 17  2  0
 18 20  1  0
 19 18  1  0
 20 23  1  0
 21 26  1  0
 22 21  1  0
 23 22  1  0
 23 21  1  0
 25 24  2  0
 26 25  1  0
 27 26  2  0
 27 28  1  0
 28 29  2  0
 29 24  1  0
  3 30  1  0
  4 31  1  0
  5 32  1  0
 10 33  1  0
 11 34  1  0
 12 35  1  0
 13 36  1  0
 14 37  1  0
 19 38  1  0
 21 39  1  6
 22 40  1  0
 22 41  1  0
 23 42  1  6
 24 43  1  0
 25 44  1  0
 28 45  1  0
M  ISO  8  30  14  31  14  32  14  33  14  34  14  35  14  36  14  37  11
M  ISO  8  38   3  39  13  40  13  41  13  42  13  43  14  44  14  45  14
M  END
>  <minimizedAffinity>  (1) 
-5.79318428

>  <minimizedRMSD>  (1) 
2.05070543

$$$$
