
     RDKit          3D

 46 49  0  0  0  0  0  0  0  0999 V2000
   47.3930   31.7430   39.2470 C   0  0  0  0  0  0  0  0  0  0  0  0
   47.0250   33.0510   39.1340 C   0  0  0  0  0  0  0  0  0  0  0  0
   47.6980   33.8780   38.2510 C   0  0  0  0  0  0  0  0  0  0  0  0
   48.7330   33.4030   37.4900 C   0  0  0  0  0  0  0  0  0  0  0  0
   49.1430   32.0780   37.5730 C   0  0  0  0  0  0  0  0  0  0  0  0
   48.4520   31.2580   38.4680 C   0  0  0  0  0  0  0  0  0  0  0  0
   45.4020   35.7030   43.2580 Cl  0  0  0  0  0  0  0  0  0  0  0  0
   45.1610   34.8460   41.7540 C   0  0  0  0  0  0  0  0  0  0  0  0
   46.2120   34.3140   41.0780 C   0  0  0  0  0  0  0  0  0  0  0  0
   45.9340   33.6620   39.8850 C   0  0  0  0  0  0  0  0  0  0  0  0
   44.6660   33.5650   39.4140 C   0  0  0  0  0  0  0  0  0  0  0  0
   43.6150   34.0930   40.0840 C   0  0  0  0  0  0  0  0  0  0  0  0
   43.8770   34.7410   41.2720 C   0  0  0  0  0  0  0  0  0  0  0  0
   49.6200   35.7360   41.9240 C   0  0  0  0  0  0  0  0  0  0  0  0
   48.3290   35.6010   41.4050 C   0  0  0  0  0  0  0  0  0  0  0  0
   47.5630   34.4630   41.6150 C   0  0  0  0  0  0  0  0  0  0  0  0
   48.1610   33.5180   42.3460 N   0  0  0  0  0  0  0  0  0  0  0  0
   49.3970   33.6360   42.8480 C   0  0  0  0  0  0  0  0  0  0  0  0
   50.1200   34.7340   42.6380 N   0  0  0  0  0  0  0  0  0  0  0  0
   46.6620   30.6990   40.3590 S   0  0  0  0  0  0  0  0  0  0  0  0
   46.7220   29.2530   39.7590 O   0  0  0  0  0  0  0  0  0  0  0  0
   47.5620   30.6120   41.5580 O   0  0  0  0  0  0  0  0  0  0  0  0
   44.4540   30.9080   42.0430 C   0  0  0  0  0  0  0  0  0  0  0  0
   44.9870   30.6850   40.7500 C   0  0  0  0  0  0  0  0  0  0  0  0
   43.9440   30.4620   39.8600 C   0  0  0  0  0  0  0  0  0  0  0  0
   42.5940   30.4450   40.1280 C   0  0  0  0  0  0  0  0  0  0  0  0
   42.2320   30.6740   41.4170 C   0  0  0  0  0  0  0  0  0  0  0  0
   43.1310   30.9130   42.4200 C   0  0  0  0  0  0  0  0  0  0  0  0
   45.6130   31.2900   43.3340 S   0  0  0  0  0  0  0  0  0  0  0  0
   45.6310   30.1530   44.3460 O   0  0  0  0  0  0  0  0  0  0  0  0
   45.0810   32.4720   44.0570 O   0  0  0  0  0  0  0  0  0  0  0  0
   47.3971   34.9321   38.1592 H   0  0  0  0  0  0  0  0  0  0  0  0
   49.2504   34.0846   36.7988 H   0  0  0  0  0  0  0  0  0  0  0  0
   49.9730   31.6928   36.9624 H   0  0  0  0  0  0  0  0  0  0  0  0
   48.7472   30.2027   38.5640 H   0  0  0  0  0  0  0  0  0  0  0  0
   44.4868   33.0434   38.4622 H   0  0  0  0  0  0  0  0  0  0  0  0
   42.5897   34.0081   39.6948 H   0  0  0  0  0  0  0  0  0  0  0  0
   43.0464   35.1810   41.8435 H   0  0  0  0  0  0  0  0  0  0  0  0
   50.2069   36.6491   41.7455 H   0  0  0  0  0  0  0  0  0  0  0  0
   47.9062   36.4242   40.8104 H   0  0  0  0  0  0  0  0  0  0  0  0
   49.8211   32.8135   43.4427 H   0  0  0  0  0  0  0  0  0  0  0  0
   44.2318   30.2766   38.8146 H   0  0  0  0  0  0  0  0  0  0  0  0
   41.8489   30.2562   39.3411 H   0  0  0  0  0  0  0  0  0  0  0  0
   41.1609   30.6669   41.6672 H   0  0  0  0  0  0  0  0  0  0  0  0
   42.8171   31.0968   43.4581 H   0  0  0  0  0  0  0  0  0  0  0  0
   46.8592   31.4965   42.8036 H   0  0  0  0  0  0  0  0  0  0  0  0
  1 20  1  0
  2  1  1  0
  2 10  1  0
  3  2  2  0
  4  5  2  0
  4  3  1  0
  5  6  1  0
  6  1  2  0
  8  7  1  0
  9 16  1  0
  9  8  2  0
 10  9  1  0
 11 10  2  0
 11 12  1  0
 12 13  2  0
 13  8  1  0
 14 19  2  0
 15 16  2  0
 15 14  1  0
 16 17  1  0
 17 18  2  0
 19 18  1  0
 20 24  1  0
 20 22  2  0
 21 20  2  0
 23 28  2  0
 23 29  1  0
 24 23  1  0
 25 26  1  0
 25 24  2  0
 26 27  2  0
 27 28  1  0
 29 31  2  0
 29 30  2  0
  3 32  1  0
  4 33  1  0
  5 34  1  0
  6 35  1  0
 11 36  1  0
 12 37  1  0
 13 38  1  0
 14 39  1  0
 15 40  1  0
 18 41  1  0
 25 42  1  0
 26 43  1  0
 27 44  1  0
 28 45  1  0
 29 46  1  0
M  ISO  8  32  14  33  14  34  14  35  14  36  14  37  14  38  14  39  14
M  ISO  7  40  14  41  14  42  14  43  14  44  14  45  14  46  11
M  END
>  <minimizedAffinity>  (1) 
-4.79409742

>  <minimizedRMSD>  (1) 
1.35418451

$$$$
