
     RDKit          3D

 48 51  0  0  0  0  0  0  0  0999 V2000
   38.5670   31.7340   41.2520 C   0  0  0  0  0  0  0  0  0  0  0  0
   39.9460   31.6640   41.0330 C   0  0  0  0  0  0  0  0  0  0  0  0
   40.4690   30.4320   40.6620 C   0  0  0  0  0  0  0  0  0  0  0  0
   39.6320   29.3810   40.5340 N   0  0  0  0  0  0  0  0  0  0  0  0
   38.2910   29.4940   40.7570 C   0  0  0  0  0  0  0  0  0  0  0  0
   37.7450   30.6500   41.1130 N   0  0  0  0  0  0  0  0  0  0  0  0
   37.4730   28.2640   40.5800 C   0  0  0  0  0  0  0  0  0  0  0  0
   36.1390   28.5920   39.9170 C   0  0  0  0  0  0  0  0  0  0  0  0
   34.8060   27.5030   38.2550 C   0  0  0  0  0  0  0  0  0  0  0  0
   36.0460   28.0180   38.5630 C   0  0  0  0  0  0  0  0  0  0  0  0
   37.0720   27.9800   37.6380 C   0  0  0  0  0  0  0  0  0  0  0  0
   36.9320   27.4360   36.3760 C   0  0  0  0  0  0  0  0  0  0  0  0
   35.6890   26.9150   36.0580 C   0  0  0  0  0  0  0  0  0  0  0  0
   34.6720   26.9540   36.9740 C   0  0  0  0  0  0  0  0  0  0  0  0
   33.3760   27.4200   39.2110 S   0  0  0  0  0  0  0  0  0  0  0  0
   33.4110   26.4750   40.3490 O   0  0  0  0  0  0  0  0  0  0  0  0
   32.8710   28.7900   39.6300 O   0  0  0  0  0  0  0  0  0  0  0  0
   40.9750   33.0840   41.2200 S   0  0  0  0  0  0  0  0  0  0  0  0
   40.9110   34.0830   39.7520 C   0  0  0  0  0  0  0  0  0  0  0  0
   39.8120   34.1200   38.9060 C   0  0  0  0  0  0  0  0  0  0  0  0
   39.8330   34.9330   37.7660 C   0  0  0  0  0  0  0  0  0  0  0  0
   40.9340   35.7010   37.4690 C   0  0  0  0  0  0  0  0  0  0  0  0
   42.0130   35.6500   38.3210 C   0  0  0  0  0  0  0  0  0  0  0  0
   42.0240   34.8570   39.4560 C   0  0  0  0  0  0  0  0  0  0  0  0
   43.1760   34.8250   40.3340 C   0  0  0  0  0  0  0  0  0  0  0  0
   44.2600   34.0210   40.1700 C   0  0  0  0  0  0  0  0  0  0  0  0
   45.3610   34.0040   41.0290 C   0  0  0  0  0  0  0  0  0  0  0  0
   45.3370   34.8440   42.0860 N   0  0  0  0  0  0  0  0  0  0  0  0
   44.2690   35.6450   42.2600 C   0  0  0  0  0  0  0  0  0  0  0  0
   43.2220   35.6430   41.4190 N   0  0  0  0  0  0  0  0  0  0  0  0
   38.1264   32.6977   41.5474 H   0  0  0  0  0  0  0  0  0  0  0  0
   41.5468   30.3149   40.4757 H   0  0  0  0  0  0  0  0  0  0  0  0
   38.0243   27.5519   39.9483 H   0  0  0  0  0  0  0  0  0  0  0  0
   37.2768   27.8254   41.5695 H   0  0  0  0  0  0  0  0  0  0  0  0
   35.3248   28.1837   40.5337 H   0  0  0  0  0  0  0  0  0  0  0  0
   36.0591   29.6857   39.8313 H   0  0  0  0  0  0  0  0  0  0  0  0
   38.0472   28.4034   37.9203 H   0  0  0  0  0  0  0  0  0  0  0  0
   37.7663   27.4176   35.6594 H   0  0  0  0  0  0  0  0  0  0  0  0
   35.5182   26.4688   35.0672 H   0  0  0  0  0  0  0  0  0  0  0  0
   33.6975   26.5314   36.6881 H   0  0  0  0  0  0  0  0  0  0  0  0
   32.4603   26.8733   38.3511 H   0  0  0  0  0  0  0  0  0  0  0  0
   38.9242   33.5107   39.1307 H   0  0  0  0  0  0  0  0  0  0  0  0
   38.9579   34.9575   37.1000 H   0  0  0  0  0  0  0  0  0  0  0  0
   40.9517   36.3396   36.5735 H   0  0  0  0  0  0  0  0  0  0  0  0
   42.8986   36.2611   38.0924 H   0  0  0  0  0  0  0  0  0  0  0  0
   44.2705   33.3406   39.3057 H   0  0  0  0  0  0  0  0  0  0  0  0
   46.2142   33.3327   40.8515 H   0  0  0  0  0  0  0  0  0  0  0  0
   44.2534   36.3266   43.1233 H   0  0  0  0  0  0  0  0  0  0  0  0
  2 18  1  0
  2  1  2  0
  3  2  1  0
  4  3  2  0
  4  5  1  0
  5  6  2  0
  6  1  1  0
  7  5  1  0
  8  7  1  0
  9 10  2  0
  9 15  1  0
 10  8  1  0
 11 10  1  0
 12 11  2  0
 13 12  1  0
 13 14  2  0
 14  9  1  0
 15 17  2  0
 15 16  2  0
 19 18  1  0
 20 19  2  0
 21 20  1  0
 22 21  2  0
 22 23  1  0
 23 24  2  0
 24 19  1  0
 24 25  1  0
 25 30  1  0
 26 25  2  0
 26 27  1  0
 27 28  2  0
 28 29  1  0
 30 29  2  0
  1 31  1  0
  3 32  1  0
  7 33  1  0
  7 34  1  0
  8 35  1  0
  8 36  1  0
 11 37  1  0
 12 38  1  0
 13 39  1  0
 14 40  1  0
 15 41  1  0
 20 42  1  0
 21 43  1  0
 22 44  1  0
 23 45  1  0
 26 46  1  0
 27 47  1  0
 29 48  1  0
M  ISO  8  31  14  32  14  33   8  34   8  35   8  36   8  37  14  38  14
M  ISO  8  39  14  40  14  41  11  42  14  43  14  44  14  45  14  46  14
M  ISO  2  47  14  48  14
M  END
>  <minimizedAffinity>  (1) 
-5.63069439

>  <minimizedRMSD>  (1) 
1.63540041

$$$$
