
     RDKit          3D

 24 25  0  0  0  0  0  0  0  0999 V2000
   41.3990   33.5420   40.9230 C   0  0  0  0  0  0  0  0  0  0  0  0
   42.3130   32.5740   41.2860 C   0  0  0  0  0  0  0  0  0  0  0  0
   41.9930   31.4110   41.9870 C   0  0  0  0  0  0  0  0  0  0  0  0
   40.6740   31.2150   42.3410 C   0  0  0  0  0  0  0  0  0  0  0  0
   39.7360   32.1680   41.9900 C   0  0  0  0  0  0  0  0  0  0  0  0
   40.0860   33.3240   41.2880 C   0  0  0  0  0  0  0  0  0  0  0  0
   41.9150   34.9710   40.0390 S   0  0  0  0  0  0  0  0  0  0  0  0
   40.7330   35.5660   39.3370 O   0  0  0  0  0  0  0  0  0  0  0  0
   42.3240   35.9830   41.1000 O   0  0  0  0  0  0  0  0  0  0  0  0
   43.6270   32.7470   40.9460 O   0  0  0  0  0  0  0  0  0  0  0  0
   45.4480   34.3870   41.3340 C   0  0  0  0  0  0  0  0  0  0  0  0
   44.5760   33.3500   41.7390 C   0  0  0  0  0  0  0  0  0  0  0  0
   44.7040   32.9140   43.0660 C   0  0  0  0  0  0  0  0  0  0  0  0
   45.6330   33.4850   43.8880 N   0  0  0  0  0  0  0  0  0  0  0  0
   46.4470   34.4820   43.4380 C   0  0  0  0  0  0  0  0  0  0  0  0
   46.3360   34.9140   42.1640 N   0  0  0  0  0  0  0  0  0  0  0  0
   42.7669   30.6745   42.2489 H   0  0  0  0  0  0  0  0  0  0  0  0
   40.3730   30.3134   42.8946 H   0  0  0  0  0  0  0  0  0  0  0  0
   38.6842   32.0116   42.2715 H   0  0  0  0  0  0  0  0  0  0  0  0
   39.3136   34.0619   41.0257 H   0  0  0  0  0  0  0  0  0  0  0  0
   42.9087   34.6669   39.1462 H   0  0  0  0  0  0  0  0  0  0  0  0
   45.3874   34.7659   40.3031 H   0  0  0  0  0  0  0  0  0  0  0  0
   44.0550   32.1108   43.4451 H   0  0  0  0  0  0  0  0  0  0  0  0
   47.1915   34.9327   44.1108 H   0  0  0  0  0  0  0  0  0  0  0  0
  1  2  2  0
  1  6  1  0
  2  3  1  0
  3  4  2  0
  5  4  1  0
  6  5  2  0
  7  1  1  0
  7  9  2  0
  8  7  2  0
 10  2  1  0
 10 12  1  0
 11 12  2  0
 11 16  1  0
 12 13  1  0
 13 14  2  0
 15 14  1  0
 16 15  2  0
  3 17  1  0
  4 18  1  0
  5 19  1  0
  6 20  1  0
  7 21  1  0
 11 22  1  0
 13 23  1  0
 15 24  1  0
M  ISO  8  17  14  18  14  19  14  20  14  21  11  22  14  23  14  24  14
M  END
>  <minimizedAffinity>  (1) 
-3.59377813

>  <minimizedRMSD>  (1) 
4.32432365

$$$$
