
     RDKit          3D

 49 51  0  0  0  0  0  0  0  0999 V2000
   45.0110   35.7010   43.9390 C   0  0  0  0  0  0  0  0  0  0  0  0
   44.3660   35.8660   42.7020 C   0  0  0  0  0  0  0  0  0  0  0  0
   44.1430   34.7130   41.9610 C   0  0  0  0  0  0  0  0  0  0  0  0
   44.5400   33.5100   42.4380 N   0  0  0  0  0  0  0  0  0  0  0  0
   45.1540   33.4250   43.6370 C   0  0  0  0  0  0  0  0  0  0  0  0
   45.3920   34.4820   44.3800 N   0  0  0  0  0  0  0  0  0  0  0  0
   45.5620   32.0950   44.1040 C   0  0  0  0  0  0  0  0  0  0  0  0
   46.9390   32.1720   44.7030 C   0  0  0  0  0  0  0  0  0  0  0  0
   46.9410   31.8190   46.1040 C   0  0  0  0  0  0  0  0  0  0  0  0
   46.8020   32.6390   47.2090 C   0  0  0  0  0  0  0  0  0  0  0  0
   46.8140   32.2090   48.4850 C   0  0  0  0  0  0  0  0  0  0  0  0
   46.9770   30.8580   48.7080 C   0  0  0  0  0  0  0  0  0  0  0  0
   47.1180   30.0230   47.6250 C   0  0  0  0  0  0  0  0  0  0  0  0
   47.1010   30.4890   46.3300 C   0  0  0  0  0  0  0  0  0  0  0  0
   48.6310   28.9410   45.2810 C   0  0  0  0  0  0  0  0  0  0  0  0
   49.8170   29.2890   45.6630 O   0  0  0  0  0  0  0  0  0  0  0  0
   47.2750   29.3620   45.4560 N   0  0  0  0  0  0  0  0  0  0  0  0
   43.4570   34.8600   40.6410 C   0  0  0  0  0  0  0  0  0  0  0  0
   42.0740   35.3940   40.8010 C   0  0  0  0  0  0  0  0  0  0  0  0
   40.1370   34.0900   39.9600 C   0  0  0  0  0  0  0  0  0  0  0  0
   41.1170   35.0340   39.7550 C   0  0  0  0  0  0  0  0  0  0  0  0
   41.1960   35.6660   38.5180 C   0  0  0  0  0  0  0  0  0  0  0  0
   40.3430   35.4030   37.4660 C   0  0  0  0  0  0  0  0  0  0  0  0
   39.3530   34.4570   37.6530 C   0  0  0  0  0  0  0  0  0  0  0  0
   39.2810   33.8370   38.8800 C   0  0  0  0  0  0  0  0  0  0  0  0
   39.9510   33.2340   41.4720 S   0  0  0  0  0  0  0  0  0  0  0  0
   41.1090   32.3160   41.6580 O   0  0  0  0  0  0  0  0  0  0  0  0
   38.7130   32.3620   41.3530 O   0  0  0  0  0  0  0  0  0  0  0  0
   45.2105   36.5846   44.5630 H   0  0  0  0  0  0  0  0  0  0  0  0
   44.0540   36.8565   42.3394 H   0  0  0  0  0  0  0  0  0  0  0  0
   44.8511   31.7399   44.8646 H   0  0  0  0  0  0  0  0  0  0  0  0
   45.5714   31.3962   43.2545 H   0  0  0  0  0  0  0  0  0  0  0  0
   47.6009   31.4800   44.1616 H   0  0  0  0  0  0  0  0  0  0  0  0
   47.2903   33.2106   44.6141 H   0  0  0  0  0  0  0  0  0  0  0  0
   46.6727   33.7172   47.0333 H   0  0  0  0  0  0  0  0  0  0  0  0
   46.6975   32.9127   49.3224 H   0  0  0  0  0  0  0  0  0  0  0  0
   46.9939   30.4564   49.7319 H   0  0  0  0  0  0  0  0  0  0  0  0
   47.2490   28.9449   47.7995 H   0  0  0  0  0  0  0  0  0  0  0  0
   48.6797   28.0582   44.6265 H   0  0  0  0  0  0  0  0  0  0  0  0
   46.4843   28.8933   44.9912 H   0  0  0  0  0  0  0  0  0  0  0  0
   43.4059   33.8755   40.1530 H   0  0  0  0  0  0  0  0  0  0  0  0
   44.0329   35.5703   40.0297 H   0  0  0  0  0  0  0  0  0  0  0  0
   41.6798   35.0229   41.7585 H   0  0  0  0  0  0  0  0  0  0  0  0
   42.1729   36.4881   40.7451 H   0  0  0  0  0  0  0  0  0  0  0  0
   41.9842   36.4189   38.3702 H   0  0  0  0  0  0  0  0  0  0  0  0
   40.4478   35.9308   36.5066 H   0  0  0  0  0  0  0  0  0  0  0  0
   38.6460   34.2077   36.8480 H   0  0  0  0  0  0  0  0  0  0  0  0
   38.4908   33.0853   39.0236 H   0  0  0  0  0  0  0  0  0  0  0  0
   39.8636   34.1229   42.5108 H   0  0  0  0  0  0  0  0  0  0  0  0
  1  6  2  0
  2  1  1  0
  3  4  1  0
  3  2  2  0
  4  5  2  0
  5  7  1  0
  5  6  1  0
  7  8  1  0
  8  9  1  0
  9 14  1  0
  9 10  2  0
 10 11  1  0
 11 12  2  0
 13 12  1  0
 14 13  2  0
 15 17  1  0
 15 16  2  0
 17 14  1  0
 18 19  1  0
 18  3  1  0
 20 26  1  0
 21 20  2  0
 21 19  1  0
 22 21  1  0
 23 24  1  0
 23 22  2  0
 24 25  2  0
 25 20  1  0
 26 27  2  0
 28 26  2  0
  1 29  1  0
  2 30  1  0
  7 31  1  0
  7 32  1  0
  8 33  1  0
  8 34  1  0
 10 35  1  0
 11 36  1  0
 12 37  1  0
 13 38  1  0
 15 39  1  0
 17 40  1  0
 18 41  1  0
 18 42  1  0
 19 43  1  0
 19 44  1  0
 22 45  1  0
 23 46  1  0
 24 47  1  0
 25 48  1  0
 26 49  1  0
M  ISO  8  29  14  30  14  31   8  32   8  33   8  34   8  35  14  36  14
M  ISO  8  37  14  38  14  39   6  41   8  42   8  43   8  44   8  45  14
M  ISO  4  46  14  47  14  48  14  49  11
M  END
>  <minimizedAffinity>  (1) 
-6.00529814

>  <minimizedRMSD>  (1) 
2.504498

$$$$
