
     RDKit          3D

 46 49  0  0  0  0  0  0  0  0999 V2000
   45.7470   34.6840   43.9930 C   0  0  0  0  0  0  0  0  0  0  0  0
   46.7980   33.9540   43.4020 C   0  0  0  0  0  0  0  0  0  0  0  0
   47.3840   32.9030   44.1400 C   0  0  0  0  0  0  0  0  0  0  0  0
   46.8810   32.6690   45.3860 N   0  0  0  0  0  0  0  0  0  0  0  0
   45.8680   33.3950   45.9190 C   0  0  0  0  0  0  0  0  0  0  0  0
   45.3280   34.3770   45.2190 N   0  0  0  0  0  0  0  0  0  0  0  0
   45.1610   35.7360   43.2450 N   0  0  0  0  0  0  0  0  0  0  0  0
   47.2960   34.2160   42.0710 C   0  0  0  0  0  0  0  0  0  0  0  0
   48.2840   35.0900   41.6790 C   0  0  0  0  0  0  0  0  0  0  0  0
   48.6540   35.2230   40.3610 C   0  0  0  0  0  0  0  0  0  0  0  0
   48.0320   34.4680   39.3600 C   0  0  0  0  0  0  0  0  0  0  0  0
   48.4350   34.6500   38.0990 N   0  0  0  0  0  0  0  0  0  0  0  0
   47.8410   33.9310   37.1070 C   0  0  0  0  0  0  0  0  0  0  0  0
   46.8410   33.0430   37.4760 C   0  0  0  0  0  0  0  0  0  0  0  0
   46.4190   32.8460   38.7680 C   0  0  0  0  0  0  0  0  0  0  0  0
   47.0440   33.5950   39.7580 C   0  0  0  0  0  0  0  0  0  0  0  0
   46.6700   33.4590   41.0880 C   0  0  0  0  0  0  0  0  0  0  0  0
   45.4350   33.0310   47.2790 C   0  0  0  0  0  0  0  0  0  0  0  0
   45.5030   31.5180   47.5010 C   0  0  0  0  0  0  0  0  0  0  0  0
   47.2080   29.7450   47.6080 C   0  0  0  0  0  0  0  0  0  0  0  0
   46.7980   31.0340   47.9820 C   0  0  0  0  0  0  0  0  0  0  0  0
   47.6680   31.7600   48.7640 C   0  0  0  0  0  0  0  0  0  0  0  0
   48.9190   31.3360   49.2210 C   0  0  0  0  0  0  0  0  0  0  0  0
   49.3160   30.0530   48.8440 C   0  0  0  0  0  0  0  0  0  0  0  0
   48.4610   29.3100   48.0620 C   0  0  0  0  0  0  0  0  0  0  0  0
   46.2560   28.6720   46.6270 S   0  0  0  0  0  0  0  0  0  0  0  0
   44.9160   28.3430   47.2130 O   0  0  0  0  0  0  0  0  0  0  0  0
   46.0690   29.2080   45.2530 O   0  0  0  0  0  0  0  0  0  0  0  0
   48.2079   32.3008   43.7294 H   0  0  0  0  0  0  0  0  0  0  0  0
   45.5069   35.9498   42.2987 H   0  0  0  0  0  0  0  0  0  0  0  0
   44.3893   36.2865   43.6478 H   0  0  0  0  0  0  0  0  0  0  0  0
   48.7920   35.6993   42.4410 H   0  0  0  0  0  0  0  0  0  0  0  0
   49.4497   35.9325   40.0899 H   0  0  0  0  0  0  0  0  0  0  0  0
   48.1418   34.0494   36.0556 H   0  0  0  0  0  0  0  0  0  0  0  0
   46.3541   32.4583   36.6816 H   0  0  0  0  0  0  0  0  0  0  0  0
   45.6217   32.1273   39.0086 H   0  0  0  0  0  0  0  0  0  0  0  0
   45.8758   32.7499   41.3646 H   0  0  0  0  0  0  0  0  0  0  0  0
   46.0902   33.5295   48.0086 H   0  0  0  0  0  0  0  0  0  0  0  0
   44.3911   33.3530   47.4076 H   0  0  0  0  0  0  0  0  0  0  0  0
   44.7370   31.2444   48.2416 H   0  0  0  0  0  0  0  0  0  0  0  0
   45.3381   31.0495   46.5195 H   0  0  0  0  0  0  0  0  0  0  0  0
   47.3479   32.7707   49.0573 H   0  0  0  0  0  0  0  0  0  0  0  0
   49.5565   31.9798   49.8448 H   0  0  0  0  0  0  0  0  0  0  0  0
   50.2867   29.6458   49.1632 H   0  0  0  0  0  0  0  0  0  0  0  0
   48.7850   28.2997   47.7717 H   0  0  0  0  0  0  0  0  0  0  0  0
   46.9792   27.5094   46.5792 H   0  0  0  0  0  0  0  0  0  0  0  0
  1  6  2  0
  2  1  1  0
  2  3  2  0
  3  4  1  0
  4  5  2  0
  5 18  1  0
  6  5  1  0
  7  1  1  0
  8  2  1  0
  9  8  2  0
 10  9  1  0
 11 16  1  0
 11 10  2  0
 12 11  1  0
 13 14  1  0
 13 12  2  0
 14 15  2  0
 15 16  1  0
 16 17  2  0
 17  8  1  0
 18 19  1  0
 19 21  1  0
 20 21  2  0
 20 25  1  0
 21 22  1  0
 22 23  2  0
 24 23  1  0
 25 24  2  0
 26 27  2  0
 26 20  1  0
 28 26  2  0
  3 29  1  0
  7 30  1  0
  7 31  1  0
  9 32  1  0
 10 33  1  0
 13 34  1  0
 14 35  1  0
 15 36  1  0
 17 37  1  0
 18 38  1  0
 18 39  1  0
 19 40  1  0
 19 41  1  0
 22 42  1  0
 23 43  1  0
 24 44  1  0
 25 45  1  0
 26 46  1  0
M  ISO  8  29  14  32  14  33  14  34  14  35  14  36  14  37  14  38   8
M  ISO  8  39   8  40   8  41   8  42  14  43  14  44  14  45  14  46  11
M  END
>  <minimizedAffinity>  (1) 
-6.61449862

>  <minimizedRMSD>  (1) 
2.89548993

$$$$
