
     RDKit          3D

 40 42  0  0  0  0  0  0  0  0999 V2000
   48.2640   30.3400   45.7420 F   0  0  0  0  0  0  0  0  0  0  0  0
   47.5520   30.9250   46.7530 C   0  0  0  0  0  0  0  0  0  0  0  0
   46.6130   31.8920   46.4720 C   0  0  0  0  0  0  0  0  0  0  0  0
   45.9370   32.4330   47.5590 C   0  0  0  0  0  0  0  0  0  0  0  0
   46.1940   32.0240   48.8440 C   0  0  0  0  0  0  0  0  0  0  0  0
   47.1530   31.0450   49.0720 C   0  0  0  0  0  0  0  0  0  0  0  0
   47.8630   30.4670   48.0120 C   0  0  0  0  0  0  0  0  0  0  0  0
   50.0230   29.8270   48.9010 C   0  0  0  0  0  0  0  0  0  0  0  0
   48.8670   29.4390   48.2630 C   0  0  0  0  0  0  0  0  0  0  0  0
   48.6990   28.1010   47.8850 C   0  0  0  0  0  0  0  0  0  0  0  0
   49.6890   27.1790   48.1530 C   0  0  0  0  0  0  0  0  0  0  0  0
   50.8620   27.5460   48.7940 C   0  0  0  0  0  0  0  0  0  0  0  0
   50.9910   28.8760   49.1520 C   0  0  0  0  0  0  0  0  0  0  0  0
   50.3780   31.4560   49.4330 S   0  0  0  0  0  0  0  0  0  0  0  0
   51.7980   31.7580   49.0540 O   0  0  0  0  0  0  0  0  0  0  0  0
   50.2810   31.5260   50.9500 O   0  0  0  0  0  0  0  0  0  0  0  0
   46.9070   33.7620   43.3640 C   0  0  0  0  0  0  0  0  0  0  0  0
   45.9300   33.2150   42.5390 C   0  0  0  0  0  0  0  0  0  0  0  0
   45.1430   32.1640   43.0760 C   0  0  0  0  0  0  0  0  0  0  0  0
   45.3820   31.7560   44.3440 N   0  0  0  0  0  0  0  0  0  0  0  0
   46.3440   32.3230   45.1000 C   0  0  0  0  0  0  0  0  0  0  0  0
   47.1020   33.3230   44.6080 N   0  0  0  0  0  0  0  0  0  0  0  0
   45.7360   33.7200   41.1630 C   0  0  0  0  0  0  0  0  0  0  0  0
   45.7780   35.1080   41.1740 F   0  0  0  0  0  0  0  0  0  0  0  0
   46.8130   33.2980   40.4050 F   0  0  0  0  0  0  0  0  0  0  0  0
   44.5850   33.3340   40.5630 F   0  0  0  0  0  0  0  0  0  0  0  0
   47.6520   34.7670   42.8340 O   0  0  0  0  0  0  0  0  0  0  0  0
   48.9450   34.6610   42.2800 C   0  0  0  0  0  0  0  0  0  0  0  0
   49.8220   35.2930   43.1560 F   0  0  0  0  0  0  0  0  0  0  0  0
   49.2620   33.3390   42.0800 F   0  0  0  0  0  0  0  0  0  0  0  0
   49.0140   35.3940   41.1160 F   0  0  0  0  0  0  0  0  0  0  0  0
   45.1766   33.2087   47.3853 H   0  0  0  0  0  0  0  0  0  0  0  0
   45.6446   32.4682   49.6871 H   0  0  0  0  0  0  0  0  0  0  0  0
   47.3581   30.7183   50.1022 H   0  0  0  0  0  0  0  0  0  0  0  0
   47.7773   27.7854   47.3743 H   0  0  0  0  0  0  0  0  0  0  0  0
   49.5448   26.1309   47.8519 H   0  0  0  0  0  0  0  0  0  0  0  0
   51.6540   26.8132   49.0082 H   0  0  0  0  0  0  0  0  0  0  0  0
   51.9125   29.1917   49.6630 H   0  0  0  0  0  0  0  0  0  0  0  0
   49.4992   32.3396   48.8638 H   0  0  0  0  0  0  0  0  0  0  0  0
   44.3540   31.6900   42.4736 H   0  0  0  0  0  0  0  0  0  0  0  0
  1  2  1  0
  2  7  2  0
  3  2  1  0
  3  4  2  0
  4  5  1  0
  5  6  2  0
  7  9  1  0
  7  6  1  0
  8 13  2  0
  8 14  1  0
  9  8  1  0
 10 11  1  0
 10  9  2  0
 11 12  2  0
 12 13  1  0
 14 16  2  0
 15 14  2  0
 17 22  2  0
 18 19  2  0
 18 17  1  0
 19 20  1  0
 20 21  2  0
 21  3  1  0
 22 21  1  0
 23 24  1  0
 23 18  1  0
 25 23  1  0
 26 23  1  0
 27 17  1  0
 28 27  1  0
 28 29  1  0
 30 28  1  0
 31 28  1  0
  4 32  1  0
  5 33  1  0
  6 34  1  0
 10 35  1  0
 11 36  1  0
 12 37  1  0
 13 38  1  0
 14 39  1  0
 19 40  1  0
M  ISO  8  32  14  33  14  34  14  35  14  36  14  37  14  38  14  39  11
M  ISO  1  40  14
M  END
>  <minimizedAffinity>  (1) 
-5.83342123

>  <minimizedRMSD>  (1) 
1.37060237

$$$$
