
     RDKit          3D

 44 47  0  0  1  0  0  0  0  0999 V2000
   48.0680   34.6820   41.5670 C   0  0  0  0  0  0  0  0  0  0  0  0
   48.7960   35.6880   41.3240 O   0  0  0  0  0  0  0  0  0  0  0  0
   47.1170   34.5510   42.6200 C   0  0  0  0  0  0  0  0  0  0  0  0
   46.0810   35.4240   42.6160 C   0  0  0  0  0  0  0  0  0  0  0  0
   45.1330   35.3370   43.6190 C   0  0  0  0  0  0  0  0  0  0  0  0
   45.2890   34.3760   44.5620 N   0  0  0  0  0  0  0  0  0  0  0  0
   46.3150   33.5220   44.5550 C   0  0  0  0  0  0  0  0  0  0  0  0
   47.1870   33.6580   43.5690 N   0  0  0  0  0  0  0  0  0  0  0  0
   46.0490   31.2050   45.4520 C   0  0  0  0  0  0  0  0  0  0  0  0
   46.3690   32.5340   45.6270 C   0  0  0  0  0  0  0  0  0  0  0  0
   46.7590   32.9450   46.8830 C   0  0  0  0  0  0  0  0  0  0  0  0
   46.8460   32.0960   47.9710 C   0  0  0  0  0  0  0  0  0  0  0  0
   46.5330   30.7620   47.8280 C   0  0  0  0  0  0  0  0  0  0  0  0
   46.1430   30.3630   46.5660 C   0  0  0  0  0  0  0  0  0  0  0  0
   45.5490   30.6230   43.8860 S   0  0  0  0  0  0  0  0  0  0  0  0
   44.4780   31.4550   43.2680 O   0  0  0  0  0  0  0  0  0  0  0  0
   46.7560   30.4430   43.0100 O   0  0  0  0  0  0  0  0  0  0  0  0
   48.2180   33.5830   40.7040 O   0  0  0  0  0  0  0  0  0  0  0  0
   48.1100   33.7980   39.3050 C   0  0  0  0  0  0  0  0  0  0  0  0
   48.6550   34.7870   38.4730 C   0  0  0  0  0  0  0  0  0  0  0  0
   48.2420   34.5490   37.1770 C   0  0  0  0  0  0  0  0  0  0  0  0
   47.4710   33.4360   37.2730 C   0  0  0  0  0  0  0  0  0  0  0  0
   47.3910   32.9910   38.5220 O   0  0  0  0  0  0  0  0  0  0  0  0
   46.7910   32.7810   36.1360 C   0  0  2  0  0  0  0  0  0  0  0  0
   46.9440   31.3460   35.9030 C   0  0  0  0  0  0  0  0  0  0  0  0
   47.7700   32.2470   35.0600 C   0  0  1  0  0  0  0  0  0  0  0  0
   48.2050   32.8920   32.7020 C   0  0  0  0  0  0  0  0  0  0  0  0
   49.4230   33.1430   32.9310 O   0  0  0  0  0  0  0  0  0  0  0  0
   47.2890   32.4750   33.7000 N   0  0  0  0  0  0  0  0  0  0  0  0
   45.9955   36.1881   41.8293 H   0  0  0  0  0  0  0  0  0  0  0  0
   44.2773   36.0275   43.6506 H   0  0  0  0  0  0  0  0  0  0  0  0
   47.0148   34.0050   47.0279 H   0  0  0  0  0  0  0  0  0  0  0  0
   47.1647   32.4852   48.9493 H   0  0  0  0  0  0  0  0  0  0  0  0
   46.5906   30.0566   48.6701 H   0  0  0  0  0  0  0  0  0  0  0  0
   45.8865   29.3027   46.4248 H   0  0  0  0  0  0  0  0  0  0  0  0
   44.9589   29.3968   44.0445 H   0  0  0  0  0  0  0  0  0  0  0  0
   49.3031   35.6140   38.7985 H   0  0  0  0  0  0  0  0  0  0  0  0
   48.4827   35.1287   36.2736 H   0  0  0  0  0  0  0  0  0  0  0  0
   45.9074   33.4331   36.1983 H   0  0  0  0  0  0  0  0  0  0  0  0
   47.4321   30.7236   36.6675 H   0  0  0  0  0  0  0  0  0  0  0  0
   46.2350   30.5362   35.6760 H   0  0  0  0  0  0  0  0  0  0  0  0
   48.8422   32.3220   34.8262 H   0  0  0  0  0  0  0  0  0  0  0  0
   47.8361   33.0034   31.6717 H   0  0  0  0  0  0  0  0  0  0  0  0
   46.2952   32.3343   33.4687 H   0  0  0  0  0  0  0  0  0  0  0  0
  1  3  1  0
  2  1  2  0
  3  8  1  0
  4  3  2  0
  4  5  1  0
  5  6  2  0
  7  6  1  0
  7 10  1  0
  8  7  2  0
  9 10  2  0
  9 14  1  0
 10 11  1  0
 11 12  2  0
 13 12  1  0
 14 13  2  0
 15  9  1  0
 16 15  2  0
 17 15  2  0
 18  1  1  0
 19 18  1  0
 20 19  2  0
 21 22  2  0
 21 20  1  0
 22 23  1  0
 23 19  1  0
 24 22  1  0
 25 24  1  0
 26 25  1  0
 26 24  1  0
 27 28  2  0
 27 29  1  0
 29 26  1  0
  4 30  1  0
  5 31  1  0
 11 32  1  0
 12 33  1  0
 13 34  1  0
 14 35  1  0
 15 36  1  0
 20 37  1  0
 21 38  1  0
 24 39  1  6
 25 40  1  0
 25 41  1  0
 26 42  1  6
 27 43  1  0
 29 44  1  0
M  ISO  8  30  14  31  14  32  14  33  14  34  14  35  14  36  11  37  14
M  ISO  6  38  14  39  13  40  13  41  13  42  13  43   6
M  END
>  <minimizedAffinity>  (1) 
-5.84210777

>  <minimizedRMSD>  (1) 
1.43519545

$$$$
