
     RDKit          3D

 40 43  0  0  0  0  0  0  0  0999 V2000
   45.5210   32.8110   41.6480 C   0  0  0  0  0  0  0  0  0  0  0  0
   46.6030   33.4690   41.0780 C   0  0  0  0  0  0  0  0  0  0  0  0
   47.7150   33.6540   41.8920 C   0  0  0  0  0  0  0  0  0  0  0  0
   47.6570   33.1780   43.1730 N   0  0  0  0  0  0  0  0  0  0  0  0
   46.5900   32.5450   43.6870 C   0  0  0  0  0  0  0  0  0  0  0  0
   45.5110   32.3590   42.9150 N   0  0  0  0  0  0  0  0  0  0  0  0
   47.3670   30.9470   45.3940 C   0  0  0  0  0  0  0  0  0  0  0  0
   46.6290   32.0780   45.0560 C   0  0  0  0  0  0  0  0  0  0  0  0
   45.9040   32.8070   45.9930 C   0  0  0  0  0  0  0  0  0  0  0  0
   45.9080   32.3990   47.3290 C   0  0  0  0  0  0  0  0  0  0  0  0
   45.3290   32.8620   48.4780 N   0  0  0  0  0  0  0  0  0  0  0  0
   45.7280   31.9990   49.4910 C   0  0  0  0  0  0  0  0  0  0  0  0
   46.5330   31.0420   48.9370 N   0  0  0  0  0  0  0  0  0  0  0  0
   46.6510   31.2750   47.6210 C   0  0  0  0  0  0  0  0  0  0  0  0
   47.3720   30.5390   46.7240 C   0  0  0  0  0  0  0  0  0  0  0  0
   48.9170   34.3460   41.3720 C   0  0  0  0  0  0  0  0  0  0  0  0
   48.5490   35.5180   40.7000 F   0  0  0  0  0  0  0  0  0  0  0  0
   49.7440   34.7240   42.3890 F   0  0  0  0  0  0  0  0  0  0  0  0
   49.5630   33.5040   40.5010 F   0  0  0  0  0  0  0  0  0  0  0  0
   46.5690   33.9090   39.7950 O   0  0  0  0  0  0  0  0  0  0  0  0
   46.7130   33.0200   37.6800 C   0  0  0  0  0  0  0  0  0  0  0  0
   45.9250   33.2520   38.7880 C   0  0  0  0  0  0  0  0  0  0  0  0
   44.6180   32.8110   38.7620 C   0  0  0  0  0  0  0  0  0  0  0  0
   44.0430   32.1550   37.7070 C   0  0  0  0  0  0  0  0  0  0  0  0
   44.8320   31.9230   36.6000 C   0  0  0  0  0  0  0  0  0  0  0  0
   46.1620   32.3520   36.5800 C   0  0  0  0  0  0  0  0  0  0  0  0
   48.3950   33.4040   37.3780 S   0  0  0  0  0  0  0  0  0  0  0  0
   48.7350   33.1060   35.9290 O   0  0  0  0  0  0  0  0  0  0  0  0
   48.6170   34.8940   37.5400 O   0  0  0  0  0  0  0  0  0  0  0  0
   44.6247   32.6509   41.0308 H   0  0  0  0  0  0  0  0  0  0  0  0
   47.9308   30.3911   44.6303 H   0  0  0  0  0  0  0  0  0  0  0  0
   45.3334   33.6956   45.6851 H   0  0  0  0  0  0  0  0  0  0  0  0
   44.7187   33.6862   48.5734 H   0  0  0  0  0  0  0  0  0  0  0  0
   45.4462   32.0724   50.5517 H   0  0  0  0  0  0  0  0  0  0  0  0
   47.9386   29.6518   47.0432 H   0  0  0  0  0  0  0  0  0  0  0  0
   43.9957   32.9993   39.6493 H   0  0  0  0  0  0  0  0  0  0  0  0
   42.9938   31.8262   37.7409 H   0  0  0  0  0  0  0  0  0  0  0  0
   44.4128   31.3980   35.7290 H   0  0  0  0  0  0  0  0  0  0  0  0
   46.7819   32.1629   35.6912 H   0  0  0  0  0  0  0  0  0  0  0  0
   49.1564   32.6710   38.2497 H   0  0  0  0  0  0  0  0  0  0  0  0
  1  6  2  0
  2  1  1  0
  2  3  2  0
  3  4  1  0
  4  5  2  0
  5  8  1  0
  6  5  1  0
  7 15  2  0
  8  7  1  0
  8  9  2  0
  9 10  1  0
 10 14  2  0
 10 11  1  0
 11 12  1  0
 13 12  2  0
 14 13  1  0
 15 14  1  0
 16  3  1  0
 16 18  1  0
 17 16  1  0
 19 16  1  0
 20  2  1  0
 21 22  2  0
 22 20  1  0
 23 22  1  0
 24 23  2  0
 25 24  1  0
 26 25  2  0
 26 21  1  0
 27 29  2  0
 27 21  1  0
 28 27  2  0
  1 30  1  0
  7 31  1  0
  9 32  1  0
 11 33  1  0
 12 34  1  0
 15 35  1  0
 23 36  1  0
 24 37  1  0
 25 38  1  0
 26 39  1  0
 27 40  1  0
M  ISO  8  30  14  31  14  32  14  33   9  34  14  35  14  36  14  37  14
M  ISO  3  38  14  39  14  40  11
M  END
>  <minimizedAffinity>  (1) 
-5.95424843

>  <minimizedRMSD>  (1) 
1.17730689

$$$$
