
     RDKit          3D

 50 52  0  0  1  0  0  0  0  0999 V2000
   47.1260   34.0950   43.2790 N   0  0  0  0  0  0  0  0  0  0  0  0
   46.7340   35.3330   42.6970 C   0  0  0  0  0  0  0  0  0  0  0  0
   45.2780   35.6740   42.8120 C   0  0  0  0  0  0  0  0  0  0  0  0
   44.6110   35.1610   44.0550 C   0  0  0  0  0  0  0  0  0  0  0  0
   45.5950   34.4890   44.9840 C   0  0  0  0  0  0  0  0  0  0  0  0
   46.2520   33.3830   44.0830 C   0  0  2  0  0  0  0  0  0  0  0  0
   48.1160   33.3760   42.5220 C   0  0  0  0  0  0  0  0  0  0  0  0
   47.4160   32.5030   41.5220 C   0  0  0  0  0  0  0  0  0  0  0  0
   49.3000   32.1820   38.2860 C   0  0  0  0  0  0  0  0  0  0  0  0
   48.7920   31.9120   39.5720 C   0  0  0  0  0  0  0  0  0  0  0  0
   47.9410   32.8050   40.1670 C   0  0  0  0  0  0  0  0  0  0  0  0
   47.6300   33.9110   39.4820 N   0  0  0  0  0  0  0  0  0  0  0  0
   48.1130   34.1730   38.2520 C   0  0  0  0  0  0  0  0  0  0  0  0
   48.9480   33.3130   37.6480 N   0  0  0  0  0  0  0  0  0  0  0  0
   46.9270   32.6170   45.0200 O   0  0  0  0  0  0  0  0  0  0  0  0
   45.2480   30.7600   44.1360 O   0  0  0  0  0  0  0  0  0  0  0  0
   46.2370   31.1080   45.2590 P   0  0  2  0  0  0  0  0  0  0  0  0
   45.2620   31.2410   46.6610 O   0  0  0  0  0  0  0  0  0  0  0  0
   47.3280   29.8950   45.5260 O   0  0  0  0  0  0  0  0  0  0  0  0
   49.4470   29.2280   46.0230 C   0  0  0  0  0  0  0  0  0  0  0  0
   48.5980   29.7210   45.0250 C   0  0  0  0  0  0  0  0  0  0  0  0
   49.1290   29.9440   43.7720 C   0  0  0  0  0  0  0  0  0  0  0  0
   50.4600   29.6860   43.5180 C   0  0  0  0  0  0  0  0  0  0  0  0
   51.3070   29.2000   44.4920 C   0  0  0  0  0  0  0  0  0  0  0  0
   50.7960   28.9700   45.7530 C   0  0  0  0  0  0  0  0  0  0  0  0
   48.9760   28.8730   47.6880 S   0  0  0  0  0  0  0  0  0  0  0  0
   48.3870   30.0960   48.3390 O   0  0  0  0  0  0  0  0  0  0  0  0
   47.9440   27.7610   47.6470 O   0  0  0  0  0  0  0  0  0  0  0  0
   46.9898   35.2997   41.6277 H   0  0  0  0  0  0  0  0  0  0  0  0
   47.2695   36.1117   43.2599 H   0  0  0  0  0  0  0  0  0  0  0  0
   45.1803   36.7696   42.7977 H   0  0  0  0  0  0  0  0  0  0  0  0
   44.7759   35.1842   41.9647 H   0  0  0  0  0  0  0  0  0  0  0  0
   44.1433   36.0055   44.5824 H   0  0  0  0  0  0  0  0  0  0  0  0
   43.8592   34.4156   43.7565 H   0  0  0  0  0  0  0  0  0  0  0  0
   46.3500   35.2046   45.3417 H   0  0  0  0  0  0  0  0  0  0  0  0
   45.1203   34.0795   45.8879 H   0  0  0  0  0  0  0  0  0  0  0  0
   45.5968   32.7599   43.4566 H   0  0  0  0  0  0  0  0  0  0  0  0
   48.7704   34.0881   41.9979 H   0  0  0  0  0  0  0  0  0  0  0  0
   48.7276   32.7582   43.1960 H   0  0  0  0  0  0  0  0  0  0  0  0
   47.6008   31.4455   41.7621 H   0  0  0  0  0  0  0  0  0  0  0  0
   46.3335   32.6959   41.5531 H   0  0  0  0  0  0  0  0  0  0  0  0
   49.9842   31.4684   37.8037 H   0  0  0  0  0  0  0  0  0  0  0  0
   49.0776   30.9879   40.0959 H   0  0  0  0  0  0  0  0  0  0  0  0
   47.8204   35.1004   37.7379 H   0  0  0  0  0  0  0  0  0  0  0  0
   45.8311   31.1634   47.4673 H   0  0  0  0  0  0  0  0  0  0  0  0
   48.4856   30.3310   42.9681 H   0  0  0  0  0  0  0  0  0  0  0  0
   50.8574   29.8733   42.5095 H   0  0  0  0  0  0  0  0  0  0  0  0
   52.3654   29.0003   44.2687 H   0  0  0  0  0  0  0  0  0  0  0  0
   51.4504   28.5830   46.5480 H   0  0  0  0  0  0  0  0  0  0  0  0
   50.0703   28.4913   48.4186 H   0  0  0  0  0  0  0  0  0  0  0  0
  1  6  1  0
  2  3  1  0
  2  1  1  0
  3  4  1  0
  4  5  1  0
  6  5  1  0
  6 15  1  0
  7  1  1  0
  8  7  1  0
  9 10  2  0
 10 11  1  0
 11  8  1  0
 12 11  2  0
 13 12  1  0
 14 13  2  0
 14  9  1  0
 15 17  1  0
 17 16  2  0
 17 19  1  0
 17 18  1  0
 20 26  1  0
 21 19  1  0
 21 20  2  0
 22 21  1  0
 23 22  2  0
 23 24  1  0
 24 25  2  0
 25 20  1  0
 26 27  2  0
 28 26  2  0
  2 29  1  0
  2 30  1  0
  3 31  1  0
  3 32  1  0
  4 33  1  0
  4 34  1  0
  5 35  1  0
  5 36  1  0
  6 37  1  6
  7 38  1  0
  7 39  1  0
  8 40  1  0
  8 41  1  0
  9 42  1  0
 10 43  1  0
 13 44  1  0
 18 45  1  0
 22 46  1  0
 23 47  1  0
 24 48  1  0
 25 49  1  0
 26 50  1  0
M  ISO  8  29  13  30  13  31  13  32  13  33  13  34  13  35  13  36  13
M  ISO  8  37  13  38   8  39   8  40   8  41   8  42  14  43  14  44  14
M  ISO  6  45   3  46  14  47  14  48  14  49  14  50  11
M  END
>  <minimizedAffinity>  (1) 
-4.2464633

>  <minimizedRMSD>  (1) 
1.08502412

$$$$
