
     RDKit          3D

 38 40  0  0  0  0  0  0  0  0999 V2000
   46.8660   34.8820   42.1210 C   0  0  0  0  0  0  0  0  0  0  0  0
   48.0630   35.5700   41.9370 C   0  0  0  0  0  0  0  0  0  0  0  0
   48.8730   35.4600   40.8090 C   0  0  0  0  0  0  0  0  0  0  0  0
   48.4660   34.6110   39.8000 C   0  0  0  0  0  0  0  0  0  0  0  0
   47.3030   33.9530   39.9950 C   0  0  0  0  0  0  0  0  0  0  0  0
   46.5480   34.0790   41.0870 N   0  0  0  0  0  0  0  0  0  0  0  0
   44.4520   35.9480   44.7950 C   0  0  0  0  0  0  0  0  0  0  0  0
   45.1400   35.9970   43.5700 C   0  0  0  0  0  0  0  0  0  0  0  0
   46.0550   35.0100   43.3160 C   0  0  0  0  0  0  0  0  0  0  0  0
   46.2440   34.0350   44.2670 N   0  0  0  0  0  0  0  0  0  0  0  0
   45.5700   34.0120   45.4330 C   0  0  0  0  0  0  0  0  0  0  0  0
   44.6760   34.9750   45.6860 N   0  0  0  0  0  0  0  0  0  0  0  0
   46.8770   33.0980   38.9950 O   0  0  0  0  0  0  0  0  0  0  0  0
   48.0560   34.6010   37.1720 O   0  0  0  0  0  0  0  0  0  0  0  0
   47.2850   33.3070   37.3530 P   0  0  1  0  0  0  0  0  0  0  0  0
   48.2430   32.0090   36.8530 O   0  0  0  0  0  0  0  0  0  0  0  0
   45.8400   33.3810   36.4680 O   0  0  0  0  0  0  0  0  0  0  0  0
   44.6290   31.4830   35.8220 C   0  0  0  0  0  0  0  0  0  0  0  0
   44.8130   32.4970   36.7690 C   0  0  0  0  0  0  0  0  0  0  0  0
   44.0010   32.5450   37.8820 C   0  0  0  0  0  0  0  0  0  0  0  0
   43.0020   31.6180   38.0980 C   0  0  0  0  0  0  0  0  0  0  0  0
   42.7890   30.5910   37.1730 C   0  0  0  0  0  0  0  0  0  0  0  0
   43.6190   30.5750   36.0720 C   0  0  0  0  0  0  0  0  0  0  0  0
   45.5710   31.2810   34.3590 S   0  0  0  0  0  0  0  0  0  0  0  0
   46.8590   30.6090   34.7420 O   0  0  0  0  0  0  0  0  0  0  0  0
   44.8640   30.3560   33.4080 O   0  0  0  0  0  0  0  0  0  0  0  0
   48.3918   36.2477   42.7386 H   0  0  0  0  0  0  0  0  0  0  0  0
   49.8086   36.0324   40.7251 H   0  0  0  0  0  0  0  0  0  0  0  0
   49.0590   34.4770   38.8832 H   0  0  0  0  0  0  0  0  0  0  0  0
   43.7119   36.7281   45.0266 H   0  0  0  0  0  0  0  0  0  0  0  0
   44.9503   36.7992   42.8417 H   0  0  0  0  0  0  0  0  0  0  0  0
   45.7519   33.2130   46.1668 H   0  0  0  0  0  0  0  0  0  0  0  0
   48.5943   31.5331   37.6469 H   0  0  0  0  0  0  0  0  0  0  0  0
   44.1540   33.3462   38.6200 H   0  0  0  0  0  0  0  0  0  0  0  0
   42.3731   31.6868   38.9979 H   0  0  0  0  0  0  0  0  0  0  0  0
   42.0015   29.8364   37.3161 H   0  0  0  0  0  0  0  0  0  0  0  0
   43.4642   29.7746   35.3335 H   0  0  0  0  0  0  0  0  0  0  0  0
   45.7654   32.5022   33.7692 H   0  0  0  0  0  0  0  0  0  0  0  0
  1  9  1  0
  2  1  2  0
  3  2  1  0
  4  5  1  0
  4  3  2  0
  5  6  2  0
  6  1  1  0
  7 12  2  0
  8  7  1  0
  9  8  2  0
  9 10  1  0
 10 11  2  0
 11 12  1  0
 13  5  1  0
 15 14  2  0
 15 13  1  0
 16 15  1  0
 17 19  1  0
 17 15  1  0
 18 23  2  0
 18 19  1  0
 19 20  2  0
 20 21  1  0
 22 21  2  0
 23 22  1  0
 24 25  2  0
 24 18  1  0
 26 24  2  0
  2 27  1  0
  3 28  1  0
  4 29  1  0
  7 30  1  0
  8 31  1  0
 11 32  1  0
 16 33  1  0
 20 34  1  0
 21 35  1  0
 22 36  1  0
 23 37  1  0
 24 38  1  0
M  ISO  8  27  14  28  14  29  14  30  14  31  14  32  14  33   3  34  14
M  ISO  4  35  14  36  14  37  14  38  11
M  END
>  <minimizedAffinity>  (1) 
-5.64741516

>  <minimizedRMSD>  (1) 
0.752237618

$$$$
