
     RDKit          3D

 41 44  0  0  0  0  0  0  0  0999 V2000
   47.0840   33.0920   38.7230 C   0  0  0  0  0  0  0  0  0  0  0  0
   47.5570   31.7630   38.6250 C   0  0  0  0  0  0  0  0  0  0  0  0
   46.7640   31.1680   37.0980 S   0  0  0  0  0  0  0  0  0  0  0  0
   45.9080   32.8370   36.8380 C   0  0  0  0  0  0  0  0  0  0  0  0
   46.2950   33.3800   37.7330 N   0  0  0  0  0  0  0  0  0  0  0  0
   45.0380   33.1660   35.7510 N   0  0  0  0  0  0  0  0  0  0  0  0
   45.3730   33.0070   41.0950 Cl  0  0  0  0  0  0  0  0  0  0  0  0
   46.7610   34.0500   41.0000 C   0  0  0  0  0  0  0  0  0  0  0  0
   47.1150   34.8770   42.0310 C   0  0  0  0  0  0  0  0  0  0  0  0
   48.2270   35.6470   41.8310 C   0  0  0  0  0  0  0  0  0  0  0  0
   48.9530   35.6190   40.7030 C   0  0  0  0  0  0  0  0  0  0  0  0
   48.6050   34.7960   39.6730 C   0  0  0  0  0  0  0  0  0  0  0  0
   47.4750   33.9960   39.8410 C   0  0  0  0  0  0  0  0  0  0  0  0
   44.5080   35.7760   44.6290 C   0  0  0  0  0  0  0  0  0  0  0  0
   45.2880   35.7920   43.4700 C   0  0  0  0  0  0  0  0  0  0  0  0
   46.3000   34.8730   43.2260 C   0  0  0  0  0  0  0  0  0  0  0  0
   46.4810   33.9390   44.2120 N   0  0  0  0  0  0  0  0  0  0  0  0
   45.7190   33.9380   45.3240 C   0  0  0  0  0  0  0  0  0  0  0  0
   44.7500   34.8360   45.5340 N   0  0  0  0  0  0  0  0  0  0  0  0
   49.7750   31.0010   39.0970 C   0  0  0  0  0  0  0  0  0  0  0  0
   48.4490   31.0150   39.4910 C   0  0  0  0  0  0  0  0  0  0  0  0
   48.0410   30.3570   40.6240 C   0  0  0  0  0  0  0  0  0  0  0  0
   48.9500   29.6550   41.4140 C   0  0  0  0  0  0  0  0  0  0  0  0
   50.2780   29.6190   41.0530 C   0  0  0  0  0  0  0  0  0  0  0  0
   50.6750   30.2930   39.8990 C   0  0  0  0  0  0  0  0  0  0  0  0
   50.4700   31.7750   37.6990 S   0  0  0  0  0  0  0  0  0  0  0  0
   51.9460   31.9660   37.9340 O   0  0  0  0  0  0  0  0  0  0  0  0
   50.3080   30.8430   36.5220 O   0  0  0  0  0  0  0  0  0  0  0  0
   44.6171   34.1044   35.6940 H   0  0  0  0  0  0  0  0  0  0  0  0
   44.8325   32.4645   35.0254 H   0  0  0  0  0  0  0  0  0  0  0  0
   48.5431   36.3252   42.6373 H   0  0  0  0  0  0  0  0  0  0  0  0
   49.8374   36.2662   40.6082 H   0  0  0  0  0  0  0  0  0  0  0  0
   49.1936   34.7642   38.7442 H   0  0  0  0  0  0  0  0  0  0  0  0
   43.7152   36.5220   44.7870 H   0  0  0  0  0  0  0  0  0  0  0  0
   45.0914   36.5684   42.7160 H   0  0  0  0  0  0  0  0  0  0  0  0
   45.9012   33.1686   46.0887 H   0  0  0  0  0  0  0  0  0  0  0  0
   46.9801   30.3839   40.9133 H   0  0  0  0  0  0  0  0  0  0  0  0
   48.6084   29.1331   42.3201 H   0  0  0  0  0  0  0  0  0  0  0  0
   51.0107   29.0698   41.6625 H   0  0  0  0  0  0  0  0  0  0  0  0
   51.7357   30.2668   39.6087 H   0  0  0  0  0  0  0  0  0  0  0  0
   49.8597   32.9797   37.4686 H   0  0  0  0  0  0  0  0  0  0  0  0
  1 13  1  0
  2  1  2  0
  2 21  1  0
  3  2  1  0
  4  3  1  0
  4  5  2  0
  5  1  1  0
  6  4  1  0
  8  7  1  0
  8  9  2  0
  9 16  1  0
 10  9  1  0
 11 10  2  0
 12 13  2  0
 12 11  1  0
 13  8  1  0
 14 19  2  0
 15 14  1  0
 16 15  2  0
 16 17  1  0
 17 18  2  0
 18 19  1  0
 20 21  2  0
 20 25  1  0
 21 22  1  0
 22 23  2  0
 24 23  1  0
 25 24  2  0
 26 27  2  0
 26 20  1  0
 28 26  2  0
  6 29  1  0
  6 30  1  0
 10 31  1  0
 11 32  1  0
 12 33  1  0
 14 34  1  0
 15 35  1  0
 18 36  1  0
 22 37  1  0
 23 38  1  0
 24 39  1  0
 25 40  1  0
 26 41  1  0
M  ISO  8  31  14  32  14  33  14  34  14  35  14  36  14  37  14  38  14
M  ISO  3  39  14  40  14  41  11
M  END
>  <minimizedAffinity>  (1) 
-6.20828485

>  <minimizedRMSD>  (1) 
1.12047946

$$$$
