
     RDKit          3D

 47 49  0  0  0  0  0  0  0  0999 V2000
   41.6090   35.6540   41.1840 C   0  0  0  0  0  0  0  0  0  0  0  0
   41.0870   33.2790   41.1950 C   0  0  0  0  0  0  0  0  0  0  0  0
   40.6160   34.5680   40.8960 C   0  0  0  0  0  0  0  0  0  0  0  0
   39.3630   34.7050   40.4140 C   0  0  0  0  0  0  0  0  0  0  0  0
   38.6610   33.5890   40.2580 N   0  0  0  0  0  0  0  0  0  0  0  0
   39.0760   32.3670   40.5290 C   0  0  0  0  0  0  0  0  0  0  0  0
   40.3670   32.1670   41.0300 N   0  0  0  0  0  0  0  0  0  0  0  0
   38.2330   30.6180   39.0700 C   0  0  0  0  0  0  0  0  0  0  0  0
   38.2680   31.1650   40.3410 C   0  0  0  0  0  0  0  0  0  0  0  0
   37.5560   30.5790   41.3730 C   0  0  0  0  0  0  0  0  0  0  0  0
   36.7870   29.4450   41.2140 C   0  0  0  0  0  0  0  0  0  0  0  0
   36.7230   28.8650   39.9640 C   0  0  0  0  0  0  0  0  0  0  0  0
   37.4420   29.4700   38.9530 C   0  0  0  0  0  0  0  0  0  0  0  0
   39.0920   31.2870   37.7260 S   0  0  0  0  0  0  0  0  0  0  0  0
   39.1840   30.2050   36.6590 O   0  0  0  0  0  0  0  0  0  0  0  0
   38.3260   32.4020   37.0810 O   0  0  0  0  0  0  0  0  0  0  0  0
   42.8370   35.4370   40.6540 O   0  0  0  0  0  0  0  0  0  0  0  0
   44.0490   35.3470   41.3160 C   0  0  0  0  0  0  0  0  0  0  0  0
   44.0220   35.5830   42.6260 C   0  0  0  0  0  0  0  0  0  0  0  0
   45.2530   35.5280   43.5220 C   0  0  0  0  0  0  0  0  0  0  0  0
   44.9840   34.5920   44.5020 O   0  0  0  0  0  0  0  0  0  0  0  0
   45.6090   32.4300   43.0780 O   0  0  0  0  0  0  0  0  0  0  0  0
   45.9700   33.2360   44.3050 P   0  0  1  0  0  0  0  0  0  0  0  0
   47.5950   33.7220   44.1240 O   0  0  0  0  0  0  0  0  0  0  0  0
   45.8980   32.2610   45.6790 O   0  0  0  0  0  0  0  0  0  0  0  0
   46.2140   32.9520   46.8330 C   0  0  0  0  0  0  0  0  0  0  0  0
   47.0740   32.3000   47.8670 C   0  0  0  0  0  0  0  0  0  0  0  0
   45.5770   32.4130   48.0920 C   0  0  0  0  0  0  0  0  0  0  0  0
   41.2179   36.5969   40.7743 H   0  0  0  0  0  0  0  0  0  0  0  0
   41.7364   35.6851   42.2762 H   0  0  0  0  0  0  0  0  0  0  0  0
   42.1095   33.1799   41.5883 H   0  0  0  0  0  0  0  0  0  0  0  0
   38.9447   35.6909   40.1632 H   0  0  0  0  0  0  0  0  0  0  0  0
   37.6059   31.0408   42.3701 H   0  0  0  0  0  0  0  0  0  0  0  0
   36.2378   29.0134   42.0638 H   0  0  0  0  0  0  0  0  0  0  0  0
   36.1251   27.9600   39.7810 H   0  0  0  0  0  0  0  0  0  0  0  0
   37.3878   29.0040   37.9581 H   0  0  0  0  0  0  0  0  0  0  0  0
   40.3034   31.7390   38.1790 H   0  0  0  0  0  0  0  0  0  0  0  0
   44.9815   35.0948   40.7898 H   0  0  0  0  0  0  0  0  0  0  0  0
   43.0553   35.8320   43.0880 H   0  0  0  0  0  0  0  0  0  0  0  0
   46.1345   35.2243   42.9383 H   0  0  0  0  0  0  0  0  0  0  0  0
   45.4691   36.5129   43.9615 H   0  0  0  0  0  0  0  0  0  0  0  0
   48.0043   33.8444   45.0171 H   0  0  0  0  0  0  0  0  0  0  0  0
   46.2702   33.9212   46.3158 H   0  0  0  0  0  0  0  0  0  0  0  0
   47.5268   31.3180   47.6655 H   0  0  0  0  0  0  0  0  0  0  0  0
   47.9692   32.5974   48.4328 H   0  0  0  0  0  0  0  0  0  0  0  0
   45.1832   33.1045   48.8515 H   0  0  0  0  0  0  0  0  0  0  0  0
   44.7638   31.7074   48.3176 H   0  0  0  0  0  0  0  0  0  0  0  0
  3  1  1  0
  3  2  2  0
  4  3  1  0
  5  4  2  0
  5  6  1  0
  6  7  2  0
  7  2  1  0
  8  9  2  0
  9  6  1  0
  9 10  1  0
 11 10  2  0
 12 11  1  0
 13  8  1  0
 13 12  2  0
 14  8  1  0
 15 14  2  0
 16 14  2  0
 17  1  1  0
 17 18  1  0
 18 19  2  0
 19 20  1  0
 20 21  1  0
 23 22  2  0
 23 21  1  0
 23 25  1  0
 24 23  1  0
 25 26  1  0
 26 27  1  0
 26 28  1  0
 27 28  1  0
  1 29  1  0
  1 30  1  0
  2 31  1  0
  4 32  1  0
 10 33  1  0
 11 34  1  0
 12 35  1  0
 13 36  1  0
 14 37  1  0
 18 38  1  0
 19 39  1  0
 20 40  1  0
 20 41  1  0
 24 42  1  0
 26 43  1  0
 27 44  1  0
 27 45  1  0
 28 46  1  0
 28 47  1  0
M  ISO  8  29   8  30   8  31  14  32  14  33  14  34  14  35  14  36  14
M  ISO  8  37  11  40   8  41   8  42   3  43  13  44  13  45  13  46  13
M  ISO  1  47  13
M  END
>  <minimizedAffinity>  (1) 
-5.39094496

>  <minimizedRMSD>  (1) 
0.966727495

$$$$
