
     RDKit          3D

 24 25  0  0  0  0  0  0  0  0999 V2000
   46.1970   34.0730   40.9820 C   0  0  0  0  0  0  0  0  0  0  0  0
   46.6520   34.6880   42.1350 C   0  0  0  0  0  0  0  0  0  0  0  0
   47.8770   35.3000   42.2150 C   0  0  0  0  0  0  0  0  0  0  0  0
   48.7050   35.3100   41.0930 C   0  0  0  0  0  0  0  0  0  0  0  0
   48.2580   34.6950   39.9240 C   0  0  0  0  0  0  0  0  0  0  0  0
   47.0270   34.0940   39.8870 C   0  0  0  0  0  0  0  0  0  0  0  0
   44.4600   35.7580   45.0070 C   0  0  0  0  0  0  0  0  0  0  0  0
   45.0460   35.7700   43.7390 C   0  0  0  0  0  0  0  0  0  0  0  0
   45.9750   34.7690   43.4410 C   0  0  0  0  0  0  0  0  0  0  0  0
   46.2700   33.8280   44.3910 N   0  0  0  0  0  0  0  0  0  0  0  0
   45.6860   33.8460   45.6090 C   0  0  0  0  0  0  0  0  0  0  0  0
   44.7850   34.8040   45.9110 N   0  0  0  0  0  0  0  0  0  0  0  0
   44.7590   36.7110   42.7630 O   0  0  0  0  0  0  0  0  0  0  0  0
   44.5900   33.4010   41.1440 S   0  0  0  0  0  0  0  0  0  0  0  0
   43.5830   34.4600   40.8660 O   0  0  0  0  0  0  0  0  0  0  0  0
   44.3700   32.3160   40.0970 O   0  0  0  0  0  0  0  0  0  0  0  0
   48.2019   35.7765   43.1517 H   0  0  0  0  0  0  0  0  0  0  0  0
   49.6922   35.7939   41.1294 H   0  0  0  0  0  0  0  0  0  0  0  0
   48.8961   34.6923   39.0280 H   0  0  0  0  0  0  0  0  0  0  0  0
   46.6939   33.6149   38.9545 H   0  0  0  0  0  0  0  0  0  0  0  0
   43.7260   36.5326   45.2741 H   0  0  0  0  0  0  0  0  0  0  0  0
   45.9449   33.0798   46.3545 H   0  0  0  0  0  0  0  0  0  0  0  0
   45.2095   36.6643   41.8827 H   0  0  0  0  0  0  0  0  0  0  0  0
   44.4624   32.8974   42.4117 H   0  0  0  0  0  0  0  0  0  0  0  0
  1 14  1  0
  1  2  2  0
  2  3  1  0
  2  9  1  0
  4  3  2  0
  5  4  1  0
  6  5  2  0
  6  1  1  0
  7 12  2  0
  8  7  1  0
  9  8  2  0
  9 10  1  0
 10 11  2  0
 11 12  1  0
 13  8  1  0
 15 14  2  0
 16 14  2  0
  3 17  1  0
  4 18  1  0
  5 19  1  0
  6 20  1  0
  7 21  1  0
 11 22  1  0
 13 23  1  0
 14 24  1  0
M  ISO  8  17  14  18  14  19  14  20  14  21  14  22  14  23   3  24  11
M  END
>  <minimizedAffinity>  (1) 
-5.3676281

>  <minimizedRMSD>  (1) 
0.913733542

$$$$
