
     RDKit          3D

 49 52  0  0  1  0  0  0  0  0999 V2000
   44.7110   35.0450   45.2570 C   0  0  0  0  0  0  0  0  0  0  0  0
   45.4730   34.9290   44.0840 C   0  0  0  0  0  0  0  0  0  0  0  0
   46.4760   33.9560   44.0280 C   0  0  0  0  0  0  0  0  0  0  0  0
   46.6210   33.1980   45.1370 N   0  0  0  0  0  0  0  0  0  0  0  0
   45.8900   33.3170   46.2490 C   0  0  0  0  0  0  0  0  0  0  0  0
   44.9160   34.2640   46.3000 N   0  0  0  0  0  0  0  0  0  0  0  0
   47.3150   33.7370   42.9050 N   0  0  0  0  0  0  0  0  0  0  0  0
   46.8480   32.9780   41.7800 C   0  0  0  0  0  0  0  0  0  0  0  0
   47.9930   32.4370   40.9640 C   0  0  0  0  0  0  0  0  0  0  0  0
   48.9820   33.3900   40.6140 N   0  0  0  0  0  0  0  0  0  0  0  0
   49.2730   34.4000   41.5710 C   0  0  2  0  0  0  0  0  0  0  0  0
   48.6510   34.2850   42.9000 C   0  0  0  0  0  0  0  0  0  0  0  0
   48.8770   35.7360   40.9840 C   0  0  0  0  0  0  0  0  0  0  0  0
   49.7070   36.7360   41.4830 F   0  0  0  0  0  0  0  0  0  0  0  0
   47.6150   36.0140   41.4700 F   0  0  0  0  0  0  0  0  0  0  0  0
   48.9400   35.7780   39.6220 F   0  0  0  0  0  0  0  0  0  0  0  0
   46.1170   32.4620   47.3950 C   0  0  0  0  0  0  0  0  0  0  0  0
   45.0690   32.0660   48.1810 C   0  0  0  0  0  0  0  0  0  0  0  0
   45.3460   31.2470   49.2800 C   0  0  0  0  0  0  0  0  0  0  0  0
   46.6790   30.9040   49.4810 C   0  0  0  0  0  0  0  0  0  0  0  0
   47.7300   31.2950   48.7000 C   0  0  0  0  0  0  0  0  0  0  0  0
   47.3860   32.0840   47.6560 N   0  0  0  0  0  0  0  0  0  0  0  0
   49.7100   29.8360   48.3700 C   0  0  0  0  0  0  0  0  0  0  0  0
   49.0740   30.8650   49.0190 C   0  0  0  0  0  0  0  0  0  0  0  0
   49.8090   31.4720   50.0080 C   0  0  0  0  0  0  0  0  0  0  0  0
   51.0730   31.1220   50.3600 C   0  0  0  0  0  0  0  0  0  0  0  0
   51.7240   30.0880   49.7140 C   0  0  0  0  0  0  0  0  0  0  0  0
   51.0130   29.4570   48.7160 C   0  0  0  0  0  0  0  0  0  0  0  0
   48.9470   28.9480   47.0950 S   0  0  0  0  0  0  0  0  0  0  0  0
   48.5830   29.7690   45.9030 O   0  0  0  0  0  0  0  0  0  0  0  0
   47.7070   28.2870   47.6300 O   0  0  0  0  0  0  0  0  0  0  0  0
   43.9208   35.8085   45.3079 H   0  0  0  0  0  0  0  0  0  0  0  0
   45.2850   35.5905   43.2255 H   0  0  0  0  0  0  0  0  0  0  0  0
   46.2400   32.1367   42.1442 H   0  0  0  0  0  0  0  0  0  0  0  0
   46.2519   33.6438   41.1385 H   0  0  0  0  0  0  0  0  0  0  0  0
   48.4786   31.6388   41.5446 H   0  0  0  0  0  0  0  0  0  0  0  0
   47.5567   32.0850   40.0176 H   0  0  0  0  0  0  0  0  0  0  0  0
   49.8557   32.8771   40.4283 H   0  0  0  0  0  0  0  0  0  0  0  0
   50.3500   34.2850   41.7630 H   0  0  0  0  0  0  0  0  0  0  0  0
   49.2878   33.6364   43.5195 H   0  0  0  0  0  0  0  0  0  0  0  0
   48.5631   35.3108   43.2872 H   0  0  0  0  0  0  0  0  0  0  0  0
   44.0400   32.3824   47.9551 H   0  0  0  0  0  0  0  0  0  0  0  0
   44.5503   30.8920   49.9514 H   0  0  0  0  0  0  0  0  0  0  0  0
   46.9071   30.2617   50.3444 H   0  0  0  0  0  0  0  0  0  0  0  0
   49.3392   32.3027   50.5551 H   0  0  0  0  0  0  0  0  0  0  0  0
   51.5839   31.6669   51.1674 H   0  0  0  0  0  0  0  0  0  0  0  0
   52.7479   29.7868   49.9803 H   0  0  0  0  0  0  0  0  0  0  0  0
   51.4859   28.6261   48.1719 H   0  0  0  0  0  0  0  0  0  0  0  0
   49.8696   28.0318   46.6634 H   0  0  0  0  0  0  0  0  0  0  0  0
  1  6  2  0
  2  1  1  0
  3  2  2  0
  3  4  1  0
  4  5  2  0
  5  6  1  0
  5 17  1  0
  7  3  1  0
  8  7  1  0
  9  8  1  0
 10  9  1  0
 10 11  1  0
 11 12  1  0
 12  7  1  0
 13 15  1  0
 13 14  1  0
 13 11  1  0
 16 13  1  0
 17 22  1  0
 17 18  2  0
 18 19  1  0
 19 20  2  0
 21 24  1  0
 21 20  1  0
 22 21  2  0
 23 28  2  0
 23 24  1  0
 24 25  2  0
 25 26  1  0
 27 26  2  0
 28 27  1  0
 29 31  2  0
 29 23  1  0
 30 29  2  0
  1 32  1  0
  2 33  1  0
  8 34  1  0
  8 35  1  0
  9 36  1  0
  9 37  1  0
 10 38  1  0
 11 39  1  1
 12 40  1  0
 12 41  1  0
 18 42  1  0
 19 43  1  0
 20 44  1  0
 25 45  1  0
 26 46  1  0
 27 47  1  0
 28 48  1  0
 29 49  1  0
M  ISO  8  32  14  33  14  34  13  35  13  36  13  37  13  38   5  39  13
M  ISO  8  40  13  41  13  42  14  43  14  44  14  45  14  46  14  47  14
M  ISO  2  48  14  49  11
M  END
>  <minimizedAffinity>  (1) 
-7.35823917

>  <minimizedRMSD>  (1) 
0.317327499

$$$$
