
     RDKit          3D

 39 41  0  0  0  0  0  0  0  0999 V2000
   46.1710   33.9400   40.6370 C   0  0  0  0  0  0  0  0  0  0  0  0
   46.9450   33.8010   39.5020 C   0  0  0  0  0  0  0  0  0  0  0  0
   48.1950   34.3660   39.3350 C   0  0  0  0  0  0  0  0  0  0  0  0
   48.6660   35.1170   40.4050 C   0  0  0  0  0  0  0  0  0  0  0  0
   47.9080   35.2650   41.5450 C   0  0  0  0  0  0  0  0  0  0  0  0
   46.6750   34.7070   41.7070 C   0  0  0  0  0  0  0  0  0  0  0  0
   46.1100   33.9270   43.9220 C   0  0  0  0  0  0  0  0  0  0  0  0
   45.9730   34.9390   42.9640 C   0  0  0  0  0  0  0  0  0  0  0  0
   45.2110   36.0700   43.2370 C   0  0  0  0  0  0  0  0  0  0  0  0
   44.5750   36.2170   44.4570 C   0  0  0  0  0  0  0  0  0  0  0  0
   44.6820   35.2390   45.4370 C   0  0  0  0  0  0  0  0  0  0  0  0
   45.4480   34.1360   45.1210 C   0  0  0  0  0  0  0  0  0  0  0  0
   47.0470   32.4820   43.6520 S   0  0  0  0  0  0  0  0  0  0  0  0
   46.6520   31.4860   44.7170 O   0  0  0  0  0  0  0  0  0  0  0  0
   48.5180   32.7250   43.6320 O   0  0  0  0  0  0  0  0  0  0  0  0
   44.8310   33.3400   40.8160 C   0  0  0  0  0  0  0  0  0  0  0  0
   43.8840   33.8060   39.7160 C   0  0  0  0  0  0  0  0  0  0  0  0
   41.1710   35.5680   41.6440 C   0  0  0  0  0  0  0  0  0  0  0  0
   42.4260   35.2960   41.0480 C   0  0  0  0  0  0  0  0  0  0  0  0
   42.5690   34.1090   40.3480 C   0  0  0  0  0  0  0  0  0  0  0  0
   41.4880   33.2620   40.2700 N   0  0  0  0  0  0  0  0  0  0  0  0
   40.3190   33.5600   40.8480 C   0  0  0  0  0  0  0  0  0  0  0  0
   40.1430   34.7050   41.5380 N   0  0  0  0  0  0  0  0  0  0  0  0
   46.5392   33.1999   38.6749 H   0  0  0  0  0  0  0  0  0  0  0  0
   48.7800   34.2299   38.4135 H   0  0  0  0  0  0  0  0  0  0  0  0
   49.6533   35.5977   40.3408 H   0  0  0  0  0  0  0  0  0  0  0  0
   48.3197   35.8659   42.3693 H   0  0  0  0  0  0  0  0  0  0  0  0
   45.1128   36.8566   42.4744 H   0  0  0  0  0  0  0  0  0  0  0  0
   43.9774   37.1195   44.6530 H   0  0  0  0  0  0  0  0  0  0  0  0
   44.1831   35.3384   46.4123 H   0  0  0  0  0  0  0  0  0  0  0  0
   45.5414   33.3536   45.8885 H   0  0  0  0  0  0  0  0  0  0  0  0
   46.7703   31.9913   42.4032 H   0  0  0  0  0  0  0  0  0  0  0  0
   44.9175   32.2441   40.7784 H   0  0  0  0  0  0  0  0  0  0  0  0
   44.4276   33.6563   41.7892 H   0  0  0  0  0  0  0  0  0  0  0  0
   43.7641   33.0123   38.9639 H   0  0  0  0  0  0  0  0  0  0  0  0
   44.2855   34.6993   39.2151 H   0  0  0  0  0  0  0  0  0  0  0  0
   41.0329   36.5038   42.2053 H   0  0  0  0  0  0  0  0  0  0  0  0
   43.2619   36.0053   41.1379 H   0  0  0  0  0  0  0  0  0  0  0  0
   39.4806   32.8535   40.7582 H   0  0  0  0  0  0  0  0  0  0  0  0
  1 16  1  0
  1  6  1  0
  2  1  2  0
  3  2  1  0
  3  4  2  0
  4  5  1  0
  5  6  2  0
  6  8  1  0
  7 12  2  0
  8  9  2  0
  8  7  1  0
  9 10  1  0
 10 11  2  0
 12 11  1  0
 13  7  1  0
 13 14  2  0
 15 13  2  0
 17 20  1  0
 17 16  1  0
 19 18  2  0
 20 19  1  0
 21 20  2  0
 21 22  1  0
 22 23  2  0
 23 18  1  0
  2 24  1  0
  3 25  1  0
  4 26  1  0
  5 27  1  0
  9 28  1  0
 10 29  1  0
 11 30  1  0
 12 31  1  0
 13 32  1  0
 16 33  1  0
 16 34  1  0
 17 35  1  0
 17 36  1  0
 18 37  1  0
 19 38  1  0
 22 39  1  0
M  ISO  8  24  14  25  14  26  14  27  14  28  14  29  14  30  14  31  14
M  ISO  8  32  11  33   8  34   8  35   8  36   8  37  14  38  14  39  14
M  END
>  <minimizedAffinity>  (1) 
-6.10975695

>  <minimizedRMSD>  (1) 
1.2534101

$$$$
