
     RDKit          3D

 39 42  0  0  0  0  0  0  0  0999 V2000
   46.2740   32.6400   46.9140 C   0  0  0  0  0  0  0  0  0  0  0  0
   45.2950   32.6250   47.8790 C   0  0  0  0  0  0  0  0  0  0  0  0
   45.4220   31.8060   48.9800 C   0  0  0  0  0  0  0  0  0  0  0  0
   46.5500   31.0250   49.0600 C   0  0  0  0  0  0  0  0  0  0  0  0
   47.5340   31.0510   48.0760 C   0  0  0  0  0  0  0  0  0  0  0  0
   47.3630   31.8800   47.0020 N   0  0  0  0  0  0  0  0  0  0  0  0
   44.9210   35.1270   44.5530 C   0  0  0  0  0  0  0  0  0  0  0  0
   45.8090   35.0730   43.4790 C   0  0  0  0  0  0  0  0  0  0  0  0
   46.8650   34.1830   43.5990 C   0  0  0  0  0  0  0  0  0  0  0  0
   47.0080   33.4050   44.7250 N   0  0  0  0  0  0  0  0  0  0  0  0
   46.1130   33.4950   45.7460 C   0  0  0  0  0  0  0  0  0  0  0  0
   45.0770   34.3570   45.6490 N   0  0  0  0  0  0  0  0  0  0  0  0
   47.8560   34.0180   42.4910 C   0  0  0  0  0  0  0  0  0  0  0  0
   48.1410   35.3170   41.7360 C   0  0  0  0  0  0  0  0  0  0  0  0
   49.1780   34.5630   42.6370 C   0  0  0  0  0  0  0  0  0  0  0  0
   49.8850   30.3550   48.7780 C   0  0  0  0  0  0  0  0  0  0  0  0
   48.7360   30.2330   48.0370 C   0  0  0  0  0  0  0  0  0  0  0  0
   48.7520   29.1880   47.1000 C   0  0  0  0  0  0  0  0  0  0  0  0
   49.7720   28.3200   46.8750 C   0  0  0  0  0  0  0  0  0  0  0  0
   50.9180   28.4440   47.6190 C   0  0  0  0  0  0  0  0  0  0  0  0
   50.9400   29.4590   48.5490 C   0  0  0  0  0  0  0  0  0  0  0  0
   50.0730   31.6300   49.9190 S   0  0  0  0  0  0  0  0  0  0  0  0
   51.2360   32.5430   49.6390 O   0  0  0  0  0  0  0  0  0  0  0  0
   50.4710   30.9450   51.2420 O   0  0  0  0  0  0  0  0  0  0  0  0
   44.4088   33.2678   47.7721 H   0  0  0  0  0  0  0  0  0  0  0  0
   44.6509   31.7785   49.7640 H   0  0  0  0  0  0  0  0  0  0  0  0
   46.6789   30.3601   49.9268 H   0  0  0  0  0  0  0  0  0  0  0  0
   44.0672   35.8189   44.5046 H   0  0  0  0  0  0  0  0  0  0  0  0
   45.6787   35.7019   42.5860 H   0  0  0  0  0  0  0  0  0  0  0  0
   47.5202   33.0043   42.2270 H   0  0  0  0  0  0  0  0  0  0  0  0
   48.2446   35.3200   40.6409 H   0  0  0  0  0  0  0  0  0  0  0  0
   47.7079   36.3266   41.6804 H   0  0  0  0  0  0  0  0  0  0  0  0
   49.4869   34.9994   43.5984 H   0  0  0  0  0  0  0  0  0  0  0  0
   50.1949   34.1731   42.4826 H   0  0  0  0  0  0  0  0  0  0  0  0
   47.8480   29.0592   46.4866 H   0  0  0  0  0  0  0  0  0  0  0  0
   49.6811   27.5333   46.1115 H   0  0  0  0  0  0  0  0  0  0  0  0
   51.7744   27.7679   47.4798 H   0  0  0  0  0  0  0  0  0  0  0  0
   51.8499   29.5758   49.1559 H   0  0  0  0  0  0  0  0  0  0  0  0
   48.9125   32.3580   49.9077 H   0  0  0  0  0  0  0  0  0  0  0  0
  1  6  1  0
  1  2  2  0
  2  3  1  0
  3  4  2  0
  5  4  1  0
  6  5  2  0
  7 12  2  0
  8  9  2  0
  8  7  1  0
  9 10  1  0
 10 11  2  0
 11  1  1  0
 12 11  1  0
 13 15  1  0
 13  9  1  0
 14 13  1  0
 14 15  1  0
 16 22  1  0
 17  5  1  0
 17 16  2  0
 18 17  1  0
 19 18  2  0
 19 20  1  0
 20 21  2  0
 21 16  1  0
 22 24  2  0
 23 22  2  0
  2 25  1  0
  3 26  1  0
  4 27  1  0
  7 28  1  0
  8 29  1  0
 13 30  1  0
 14 31  1  0
 14 32  1  0
 15 33  1  0
 15 34  1  0
 18 35  1  0
 19 36  1  0
 20 37  1  0
 21 38  1  0
 22 39  1  0
M  ISO  8  25  14  26  14  27  14  28  14  29  14  30  13  31  13  32  13
M  ISO  7  33  13  34  13  35  14  36  14  37  14  38  14  39  11
M  END
>  <minimizedAffinity>  (1) 
-6.43244743

>  <minimizedRMSD>  (1) 
1.7455318

$$$$
