
     RDKit          3D

 24 25  0  0  0  0  0  0  0  0999 V2000
   46.4430   30.8200   46.4030 C   0  0  0  0  0  0  0  0  0  0  0  0
   46.7410   32.1560   46.5940 C   0  0  0  0  0  0  0  0  0  0  0  0
   47.3760   32.6210   47.7280 C   0  0  0  0  0  0  0  0  0  0  0  0
   47.7310   31.7050   48.7210 C   0  0  0  0  0  0  0  0  0  0  0  0
   47.4680   30.3560   48.6080 C   0  0  0  0  0  0  0  0  0  0  0  0
   46.8310   29.9710   47.4460 C   0  0  0  0  0  0  0  0  0  0  0  0
   45.0000   34.8210   44.7330 C   0  0  0  0  0  0  0  0  0  0  0  0
   45.8070   34.9410   43.5670 C   0  0  0  0  0  0  0  0  0  0  0  0
   46.9230   34.0970   43.4700 C   0  0  0  0  0  0  0  0  0  0  0  0
   47.1720   33.2270   44.4700 N   0  0  0  0  0  0  0  0  0  0  0  0
   46.3780   33.1450   45.5590 C   0  0  0  0  0  0  0  0  0  0  0  0
   45.3110   33.9360   45.6770 N   0  0  0  0  0  0  0  0  0  0  0  0
   43.9220   35.6420   44.8200 O   0  0  0  0  0  0  0  0  0  0  0  0
   45.6480   30.2370   44.9850 S   0  0  0  0  0  0  0  0  0  0  0  0
   44.6790   29.1480   45.4190 O   0  0  0  0  0  0  0  0  0  0  0  0
   46.5550   29.6250   43.9890 O   0  0  0  0  0  0  0  0  0  0  0  0
   47.5981   33.6917   47.8473 H   0  0  0  0  0  0  0  0  0  0  0  0
   48.2383   32.0727   49.6251 H   0  0  0  0  0  0  0  0  0  0  0  0
   47.7471   29.6357   49.3911 H   0  0  0  0  0  0  0  0  0  0  0  0
   46.6080   28.9002   47.3288 H   0  0  0  0  0  0  0  0  0  0  0  0
   45.5657   35.6653   42.7751 H   0  0  0  0  0  0  0  0  0  0  0  0
   47.5845   34.1439   42.5924 H   0  0  0  0  0  0  0  0  0  0  0  0
   43.7298   36.2853   44.0925 H   0  0  0  0  0  0  0  0  0  0  0  0
   45.0520   31.3192   44.3930 H   0  0  0  0  0  0  0  0  0  0  0  0
  1  2  2  0
  1  6  1  0
  2  3  1  0
  3  4  2  0
  5  4  1  0
  6  5  2  0
  7 13  1  0
  7 12  2  0
  8  7  1  0
  9  8  2  0
  9 10  1  0
 10 11  2  0
 11 12  1  0
 11  2  1  0
 14 15  2  0
 14  1  1  0
 16 14  2  0
  3 17  1  0
  4 18  1  0
  5 19  1  0
  6 20  1  0
  8 21  1  0
  9 22  1  0
 13 23  1  0
 14 24  1  0
M  ISO  8  17  14  18  14  19  14  20  14  21  14  22  14  23   3  24  11
M  END
>  <minimizedAffinity>  (1) 
-4.61349344

>  <minimizedRMSD>  (1) 
1.95166039

$$$$
