
     RDKit          3D

 48 51  0  0  1  0  0  0  0  0999 V2000
   46.4240   34.6970   42.1620 C   0  0  1  0  0  0  0  0  0  0  0  0
   47.9560   34.9150   42.2360 C   0  0  0  0  0  0  0  0  0  0  0  0
   48.3520   35.2150   40.7740 C   0  0  0  0  0  0  0  0  0  0  0  0
   48.2250   33.8850   40.0860 C   0  0  0  0  0  0  0  0  0  0  0  0
   46.8210   33.3620   40.1060 C   0  0  0  0  0  0  0  0  0  0  0  0
   46.0170   33.5980   41.3270 C   0  0  2  0  0  0  0  0  0  0  0  0
   45.7000   33.8460   45.6540 C   0  0  0  0  0  0  0  0  0  0  0  0
   44.8060   34.8450   45.9900 C   0  0  0  0  0  0  0  0  0  0  0  0
   44.3800   35.8280   45.1230 C   0  0  0  0  0  0  0  0  0  0  0  0
   44.9330   35.7390   43.8450 C   0  0  0  0  0  0  0  0  0  0  0  0
   45.8430   34.7350   43.4910 C   0  0  0  0  0  0  0  0  0  0  0  0
   46.2170   33.8000   44.3990 N   0  0  0  0  0  0  0  0  0  0  0  0
   47.3900   31.0730   47.3220 C   0  0  0  0  0  0  0  0  0  0  0  0
   46.6970   30.9100   48.5090 C   0  0  0  0  0  0  0  0  0  0  0  0
   45.6340   31.7810   48.7200 C   0  0  0  0  0  0  0  0  0  0  0  0
   45.3460   32.7200   47.7670 N   0  0  0  0  0  0  0  0  0  0  0  0
   46.0670   32.8280   46.6210 C   0  0  0  0  0  0  0  0  0  0  0  0
   47.0730   32.0190   46.4010 N   0  0  0  0  0  0  0  0  0  0  0  0
   43.7190   32.6420   41.0820 C   0  0  0  0  0  0  0  0  0  0  0  0
   44.5980   33.7340   40.9080 C   0  0  0  0  0  0  0  0  0  0  0  0
   44.0730   34.8860   40.3580 C   0  0  0  0  0  0  0  0  0  0  0  0
   42.7630   35.0420   39.9700 C   0  0  0  0  0  0  0  0  0  0  0  0
   41.8660   34.0010   40.1220 C   0  0  0  0  0  0  0  0  0  0  0  0
   42.3890   32.8500   40.6710 C   0  0  0  0  0  0  0  0  0  0  0  0
   44.1790   31.1100   41.7330 S   0  0  0  0  0  0  0  0  0  0  0  0
   45.3920   30.4870   41.1630 O   0  0  0  0  0  0  0  0  0  0  0  0
   44.5610   31.3500   43.1990 O   0  0  0  0  0  0  0  0  0  0  0  0
   45.9888   35.5469   41.6159 H   0  0  0  0  0  0  0  0  0  0  0  0
   48.2005   35.7641   42.8911 H   0  0  0  0  0  0  0  0  0  0  0  0
   48.4908   34.0496   42.6543 H   0  0  0  0  0  0  0  0  0  0  0  0
   47.6701   35.9536   40.3273 H   0  0  0  0  0  0  0  0  0  0  0  0
   49.3614   35.6435   40.6869 H   0  0  0  0  0  0  0  0  0  0  0  0
   48.8788   33.1608   40.5941 H   0  0  0  0  0  0  0  0  0  0  0  0
   48.5160   34.0229   39.0342 H   0  0  0  0  0  0  0  0  0  0  0  0
   46.2853   33.8261   39.2648 H   0  0  0  0  0  0  0  0  0  0  0  0
   46.9302   32.2688   40.0514 H   0  0  0  0  0  0  0  0  0  0  0  0
   46.1782   32.7301   41.9833 H   0  0  0  0  0  0  0  0  0  0  0  0
   44.4088   34.8563   47.0157 H   0  0  0  0  0  0  0  0  0  0  0  0
   43.6668   36.6136   45.4130 H   0  0  0  0  0  0  0  0  0  0  0  0
   44.6440   36.4837   43.0888 H   0  0  0  0  0  0  0  0  0  0  0  0
   48.2383   30.4040   47.1148 H   0  0  0  0  0  0  0  0  0  0  0  0
   46.9711   30.1370   49.2421 H   0  0  0  0  0  0  0  0  0  0  0  0
   45.0334   31.7163   49.6393 H   0  0  0  0  0  0  0  0  0  0  0  0
   44.7514   35.7409   40.2201 H   0  0  0  0  0  0  0  0  0  0  0  0
   42.4282   35.9966   39.5380 H   0  0  0  0  0  0  0  0  0  0  0  0
   40.8100   34.0853   39.8258 H   0  0  0  0  0  0  0  0  0  0  0  0
   41.6950   32.0065   40.8015 H   0  0  0  0  0  0  0  0  0  0  0  0
   43.1148   30.2860   41.4772 H   0  0  0  0  0  0  0  0  0  0  0  0
  1  2  1  0
  1 11  1  0
  3  2  1  0
  4  5  1  0
  4  3  1  0
  5  6  1  0
  6  1  1  0
  7  8  2  0
  7 17  1  0
  9  8  1  0
 10  9  2  0
 11 10  1  0
 11 12  2  0
 12  7  1  0
 13 14  2  0
 14 15  1  0
 16 15  2  0
 17 16  1  0
 18 17  2  0
 18 13  1  0
 19 25  1  0
 20 19  2  0
 20  6  1  0
 21 20  1  0
 22 23  1  0
 22 21  2  0
 23 24  2  0
 24 19  1  0
 25 27  2  0
 26 25  2  0
  1 28  1  6
  2 29  1  0
  2 30  1  0
  3 31  1  0
  3 32  1  0
  4 33  1  0
  4 34  1  0
  5 35  1  0
  5 36  1  0
  6 37  1  1
  8 38  1  0
  9 39  1  0
 10 40  1  0
 13 41  1  0
 14 42  1  0
 15 43  1  0
 21 44  1  0
 22 45  1  0
 23 46  1  0
 24 47  1  0
 25 48  1  0
M  ISO  8  28  13  29  13  30  13  31  13  32  13  33  13  34  13  35  13
M  ISO  8  36  13  37  13  38  14  39  14  40  14  41  14  42  14  43  14
M  ISO  5  44  14  45  14  46  14  47  14  48  11
M  END
>  <minimizedAffinity>  (1) 
-6.5792737

>  <minimizedRMSD>  (1) 
5.4101963

$$$$
