
     RDKit          3D

 37 39  0  0  0  0  0  0  0  0999 V2000
   46.5790   34.7190   42.0170 C   0  0  0  0  0  0  0  0  0  0  0  0
   47.8590   35.2470   41.9230 C   0  0  0  0  0  0  0  0  0  0  0  0
   48.5630   35.0530   40.7350 C   0  0  0  0  0  0  0  0  0  0  0  0
   47.9920   34.3590   39.7030 C   0  0  0  0  0  0  0  0  0  0  0  0
   46.7370   33.8320   39.7710 C   0  0  0  0  0  0  0  0  0  0  0  0
   46.0460   34.0380   40.9750 C   0  0  0  0  0  0  0  0  0  0  0  0
   44.4780   36.1840   44.7940 C   0  0  0  0  0  0  0  0  0  0  0  0
   45.1090   36.0650   43.5420 C   0  0  0  0  0  0  0  0  0  0  0  0
   45.8800   34.9480   43.2780 C   0  0  0  0  0  0  0  0  0  0  0  0
   45.9830   34.0200   44.2590 N   0  0  0  0  0  0  0  0  0  0  0  0
   45.3800   34.1310   45.4610 C   0  0  0  0  0  0  0  0  0  0  0  0
   44.6180   35.2270   45.7310 N   0  0  0  0  0  0  0  0  0  0  0  0
   43.4940   33.6650   40.4920 C   0  0  0  0  0  0  0  0  0  0  0  0
   43.2920   34.2680   39.4350 O   0  0  0  0  0  0  0  0  0  0  0  0
   44.7330   33.5400   41.1750 N   0  0  0  0  0  0  0  0  0  0  0  0
   41.0420   33.4400   41.1290 C   0  0  0  0  0  0  0  0  0  0  0  0
   42.3290   33.0150   41.0950 C   0  0  0  0  0  0  0  0  0  0  0  0
   42.6800   31.8000   41.6910 C   0  0  0  0  0  0  0  0  0  0  0  0
   41.6910   31.0380   42.3190 C   0  0  0  0  0  0  0  0  0  0  0  0
   40.3700   31.4760   42.3530 C   0  0  0  0  0  0  0  0  0  0  0  0
   40.0590   32.6950   41.7470 C   0  0  0  0  0  0  0  0  0  0  0  0
   40.7320   34.9560   40.3570 S   0  0  0  0  0  0  0  0  0  0  0  0
   40.9280   36.0780   41.3700 O   0  0  0  0  0  0  0  0  0  0  0  0
   39.2730   35.0710   39.9590 O   0  0  0  0  0  0  0  0  0  0  0  0
   48.3052   35.8023   42.7612 H   0  0  0  0  0  0  0  0  0  0  0  0
   49.5797   35.4588   40.6272 H   0  0  0  0  0  0  0  0  0  0  0  0
   48.5713   34.2205   38.7782 H   0  0  0  0  0  0  0  0  0  0  0  0
   46.2918   33.2778   38.9316 H   0  0  0  0  0  0  0  0  0  0  0  0
   43.8627   37.0698   45.0101 H   0  0  0  0  0  0  0  0  0  0  0  0
   44.9903   36.8514   42.7821 H   0  0  0  0  0  0  0  0  0  0  0  0
   45.5030   33.3419   46.2174 H   0  0  0  0  0  0  0  0  0  0  0  0
   44.6610   32.9474   42.0143 H   0  0  0  0  0  0  0  0  0  0  0  0
   43.7219   31.4481   41.6659 H   0  0  0  0  0  0  0  0  0  0  0  0
   41.9593   30.0816   42.7916 H   0  0  0  0  0  0  0  0  0  0  0  0
   39.5902   30.8764   42.8453 H   0  0  0  0  0  0  0  0  0  0  0  0
   39.0228   33.0639   41.7625 H   0  0  0  0  0  0  0  0  0  0  0  0
   41.5669   35.0387   39.2739 H   0  0  0  0  0  0  0  0  0  0  0  0
  1  9  1  0
  2  1  2  0
  3  2  1  0
  4  5  1  0
  4  3  2  0
  5  6  2  0
  6 15  1  0
  6  1  1  0
  7 12  2  0
  8  7  1  0
  9  8  2  0
  9 10  1  0
 10 11  2  0
 11 12  1  0
 13 17  1  0
 13 15  1  0
 14 13  2  0
 16 21  2  0
 17 16  1  0
 17 18  2  0
 18 19  1  0
 19 20  2  0
 21 20  1  0
 22 16  1  0
 22 23  2  0
 24 22  2  0
  2 25  1  0
  3 26  1  0
  4 27  1  0
  5 28  1  0
  7 29  1  0
  8 30  1  0
 11 31  1  0
 15 32  1  0
 18 33  1  0
 19 34  1  0
 20 35  1  0
 21 36  1  0
 22 37  1  0
M  ISO  8  25  14  26  14  27  14  28  14  29  14  30  14  31  14  33  14
M  ISO  4  34  14  35  14  36  14  37  11
M  END
>  <minimizedAffinity>  (1) 
-6.79154015

>  <minimizedRMSD>  (1) 
0.52617085

$$$$
