
     RDKit          3D

 34 36  0  0  1  0  0  0  0  0999 V2000
   45.4510   36.1170   43.2560 C   0  0  0  0  0  0  0  0  0  0  0  0
   46.2160   34.9370   43.1280 C   0  0  0  0  0  0  0  0  0  0  0  0
   46.0860   34.0450   44.1800 C   0  0  0  0  0  0  0  0  0  0  0  0
   45.2870   34.2800   45.2540 N   0  0  0  0  0  0  0  0  0  0  0  0
   44.5680   35.4410   45.3260 C   0  0  0  0  0  0  0  0  0  0  0  0
   44.6520   36.3560   44.3290 N   0  0  0  0  0  0  0  0  0  0  0  0
   46.7920   32.8480   44.1310 C   0  0  0  0  0  0  0  0  0  0  0  0
   47.4680   32.1850   43.1270 C   0  0  0  0  0  0  0  0  0  0  0  0
   48.0590   31.0160   43.3310 C   0  0  0  0  0  0  0  0  0  0  0  0
   47.9790   30.4720   44.5970 C   0  0  0  0  0  0  0  0  0  0  0  0
   46.9780   31.7480   45.5530 S   0  0  0  0  0  0  0  0  0  0  0  0
   46.9820   34.7970   41.9670 C   0  0  0  0  0  0  0  0  0  0  0  0
   48.1910   35.3370   42.0980 O   0  0  0  0  0  0  0  0  0  0  0  0
   45.8610   33.5680   39.9600 C   0  0  0  0  0  0  0  0  0  0  0  0
   46.8260   34.2280   40.6120 C   0  0  0  0  0  0  0  0  0  0  0  0
   47.9860   34.3430   39.8030 C   0  0  0  0  0  0  0  0  0  0  0  0
   48.1860   33.8730   38.5220 C   0  0  0  0  0  0  0  0  0  0  0  0
   47.1200   33.2130   37.9730 C   0  0  0  0  0  0  0  0  0  0  0  0
   45.9560   33.0590   38.6880 C   0  0  0  0  0  0  0  0  0  0  0  0
   44.2960   33.4170   40.6390 S   0  0  0  0  0  0  0  0  0  0  0  0
   44.2650   32.2380   41.5680 O   0  0  0  0  0  0  0  0  0  0  0  0
   43.3070   32.9850   39.5150 O   0  0  0  0  0  0  0  0  0  0  0  0
   45.5038   36.8712   42.4570 H   0  0  0  0  0  0  0  0  0  0  0  0
   43.9204   35.6329   46.1942 H   0  0  0  0  0  0  0  0  0  0  0  0
   47.5180   32.6404   42.1270 H   0  0  0  0  0  0  0  0  0  0  0  0
   48.5936   30.4984   42.5209 H   0  0  0  0  0  0  0  0  0  0  0  0
   48.3988   29.5222   44.9598 H   0  0  0  0  0  0  0  0  0  0  0  0
   47.3703   33.8374   42.3389 H   0  0  0  0  0  0  0  0  0  0  0  0
   48.4069   35.4334   43.0593 H   0  0  0  0  0  0  0  0  0  0  0  0
   48.8352   34.8757   40.2560 H   0  0  0  0  0  0  0  0  0  0  0  0
   49.1328   34.0179   37.9811 H   0  0  0  0  0  0  0  0  0  0  0  0
   47.1950   32.8038   36.9547 H   0  0  0  0  0  0  0  0  0  0  0  0
   45.1017   32.5287   38.2418 H   0  0  0  0  0  0  0  0  0  0  0  0
   43.9812   34.6038   41.2468 H   0  0  0  0  0  0  0  0  0  0  0  0
  1  6  2  0
  2  1  1  0
  2  3  2  0
  3  4  1  0
  4  5  2  0
  6  5  1  0
  7  3  1  0
  7 11  1  0
  8  9  1  0
  8  7  2  0
  9 10  2  0
 10 11  1  0
 12 13  1  0
 12  2  1  0
 14 15  2  0
 14 20  1  0
 15 12  1  0
 16 15  1  0
 17 16  2  0
 18 17  1  0
 18 19  2  0
 19 14  1  0
 20 21  2  0
 22 20  2  0
  1 23  1  0
  5 24  1  0
  8 25  1  0
  9 26  1  0
 10 27  1  0
 12 28  1  0
 13 29  1  0
 16 30  1  0
 17 31  1  0
 18 32  1  0
 19 33  1  0
 20 34  1  0
M  ISO  8  23  14  24  14  25  14  26  14  27  14  28   8  29   3  30  14
M  ISO  4  31  14  32  14  33  14  34  11
M  END
>  <minimizedAffinity>  (1) 
-5.2179842

>  <minimizedRMSD>  (1) 
1.66889727

$$$$
