
     RDKit          3D

 47 50  0  0  1  0  0  0  0  0999 V2000
   44.9860   33.9160   40.5290 C   0  0  0  0  0  0  0  0  0  0  0  0
   44.9940   34.8240   41.5470 C   0  0  0  0  0  0  0  0  0  0  0  0
   43.8280   35.5890   41.7540 C   0  0  0  0  0  0  0  0  0  0  0  0
   42.6950   35.4650   40.9920 C   0  0  0  0  0  0  0  0  0  0  0  0
   42.6950   34.5530   39.9750 C   0  0  0  0  0  0  0  0  0  0  0  0
   43.8160   33.8090   39.7650 C   0  0  0  0  0  0  0  0  0  0  0  0
   46.2650   32.8710   40.2240 S   0  0  0  0  0  0  0  0  0  0  0  0
   47.2870   33.8550   39.5670 O   0  0  0  0  0  0  0  0  0  0  0  0
   45.9460   31.8410   39.2110 O   0  0  0  0  0  0  0  0  0  0  0  0
   47.1760   31.3210   42.1660 C   0  0  0  0  0  0  0  0  0  0  0  0
   47.5060   32.3110   41.2080 C   0  0  0  0  0  0  0  0  0  0  0  0
   48.8970   32.5910   41.2290 C   0  0  0  0  0  0  0  0  0  0  0  0
   49.9310   32.0900   41.9880 C   0  0  0  0  0  0  0  0  0  0  0  0
   49.4360   31.1680   42.8380 C   0  0  0  0  0  0  0  0  0  0  0  0
   48.1390   30.7590   42.9720 C   0  0  0  0  0  0  0  0  0  0  0  0
   45.5390   30.7420   42.4200 S   0  0  0  0  0  0  0  0  0  0  0  0
   45.2940   30.3650   43.8720 O   0  0  0  0  0  0  0  0  0  0  0  0
   45.3340   29.4070   41.7100 O   0  0  0  0  0  0  0  0  0  0  0  0
   46.1420   35.0330   42.4080 C   0  0  0  0  0  0  0  0  0  0  0  0
   47.2540   35.5110   42.0230 O   0  0  0  0  0  0  0  0  0  0  0  0
   45.9040   34.6410   43.7730 C   0  0  0  0  0  0  0  0  0  0  0  0
   44.8790   35.3770   44.4630 C   0  0  0  0  0  0  0  0  0  0  0  0
   44.6290   35.0100   45.7740 C   0  0  0  0  0  0  0  0  0  0  0  0
   45.3560   33.9970   46.3200 N   0  0  0  0  0  0  0  0  0  0  0  0
   46.3240   33.3290   45.6140 C   0  0  0  0  0  0  0  0  0  0  0  0
   46.5590   33.6660   44.3950 N   0  0  0  0  0  0  0  0  0  0  0  0
   47.0560   32.2380   46.2860 C   0  0  1  0  0  0  0  0  0  0  0  0
   47.2150   32.2740   47.7900 C   0  0  0  0  0  0  0  0  0  0  0  0
   46.2140   31.3620   47.1440 C   0  0  1  0  0  0  0  0  0  0  0  0
   44.8500   31.7390   47.4510 N   0  0  0  0  0  0  0  0  0  0  0  0
   43.8272   36.3253   42.5712 H   0  0  0  0  0  0  0  0  0  0  0  0
   41.8086   36.0841   41.1944 H   0  0  0  0  0  0  0  0  0  0  0  0
   41.8074   34.4223   39.3386 H   0  0  0  0  0  0  0  0  0  0  0  0
   43.8023   33.0776   38.9435 H   0  0  0  0  0  0  0  0  0  0  0  0
   49.2087   33.3536   40.5001 H   0  0  0  0  0  0  0  0  0  0  0  0
   50.9861   32.3920   41.9132 H   0  0  0  0  0  0  0  0  0  0  0  0
   50.1655   30.6859   43.5054 H   0  0  0  0  0  0  0  0  0  0  0  0
   47.8690   29.9921   43.7130 H   0  0  0  0  0  0  0  0  0  0  0  0
   44.7263   31.7532   41.9798 H   0  0  0  0  0  0  0  0  0  0  0  0
   44.3222   36.1899   43.9739 H   0  0  0  0  0  0  0  0  0  0  0  0
   43.8575   35.5271   46.3634 H   0  0  0  0  0  0  0  0  0  0  0  0
   47.7672   32.1086   45.4569 H   0  0  0  0  0  0  0  0  0  0  0  0
   48.1184   31.8581   48.2600 H   0  0  0  0  0  0  0  0  0  0  0  0
   47.1770   33.0561   48.5626 H   0  0  0  0  0  0  0  0  0  0  0  0
   45.9986   30.2844   47.0954 H   0  0  0  0  0  0  0  0  0  0  0  0
   44.7250   31.7735   48.4728 H   0  0  0  0  0  0  0  0  0  0  0  0
   44.6514   32.6664   47.0493 H   0  0  0  0  0  0  0  0  0  0  0  0
  1  2  1  0
  2  3  2  0
  2 19  1  0
  4  3  1  0
  5  4  2  0
  6  5  1  0
  6  1  2  0
  7  1  1  0
  7 11  1  0
  8  7  2  0
  9  7  2  0
 10 16  1  0
 10 15  2  0
 11 12  2  0
 11 10  1  0
 12 13  1  0
 13 14  2  0
 14 15  1  0
 16 17  2  0
 18 16  2  0
 19 21  1  0
 20 19  2  0
 21 26  1  0
 21 22  2  0
 22 23  1  0
 23 24  2  0
 25 27  1  0
 25 24  1  0
 26 25  2  0
 27 29  1  0
 27 28  1  0
 29 30  1  0
 29 28  1  0
  3 31  1  0
  4 32  1  0
  5 33  1  0
  6 34  1  0
 12 35  1  0
 13 36  1  0
 14 37  1  0
 15 38  1  0
 16 39  1  0
 22 40  1  0
 23 41  1  0
 27 42  1  6
 28 43  1  0
 28 44  1  0
 29 45  1  6
 30 46  1  0
 30 47  1  0
M  ISO  8  31  14  32  14  33  14  34  14  35  14  36  14  37  14  38  14
M  ISO  8  39  11  40  14  41  14  42  13  43  13  44  13  45  13  46   5
M  ISO  1  47   5
M  END
>  <minimizedAffinity>  (1) 
-6.0201931

>  <minimizedRMSD>  (1) 
2.98112249

$$$$
