
     RDKit          3D

 42 45  0  0  0  0  0  0  0  0999 V2000
   45.6030   30.0950   44.5660 Br  0  0  0  0  0  0  0  0  0  0  0  0
   45.6930   30.6760   46.4130 C   0  0  0  0  0  0  0  0  0  0  0  0
   46.3950   31.8180   46.6290 C   0  0  0  0  0  0  0  0  0  0  0  0
   46.4440   32.2140   47.9720 C   0  0  0  0  0  0  0  0  0  0  0  0
   45.8380   31.5160   48.9880 C   0  0  0  0  0  0  0  0  0  0  0  0
   45.1480   30.3720   48.6820 C   0  0  0  0  0  0  0  0  0  0  0  0
   45.0650   29.9300   47.3770 C   0  0  0  0  0  0  0  0  0  0  0  0
   47.0850   32.6530   45.6410 C   0  0  0  0  0  0  0  0  0  0  0  0
   44.5570   35.3590   45.2400 C   0  0  0  0  0  0  0  0  0  0  0  0
   44.7850   35.7800   43.9310 C   0  0  0  0  0  0  0  0  0  0  0  0
   45.7950   35.1360   43.2050 C   0  0  0  0  0  0  0  0  0  0  0  0
   46.4930   34.1500   43.8000 N   0  0  0  0  0  0  0  0  0  0  0  0
   46.2580   33.7480   45.0820 C   0  0  0  0  0  0  0  0  0  0  0  0
   45.2800   34.3790   45.7700 N   0  0  0  0  0  0  0  0  0  0  0  0
   44.3620   28.7660   47.0800 O   0  0  0  0  0  0  0  0  0  0  0  0
   43.9380   26.2070   46.9640 O   0  0  0  0  0  0  0  0  0  0  0  0
   44.7280   27.2510   47.7300 P   0  0  2  0  0  0  0  0  0  0  0  0
   44.2770   27.2660   49.3490 O   0  0  0  0  0  0  0  0  0  0  0  0
   46.3730   26.8860   47.5580 O   0  0  0  0  0  0  0  0  0  0  0  0
   48.3830   25.7260   48.4250 N   0  0  0  0  0  0  0  0  0  0  0  0
   47.0630   25.9550   48.2810 C   0  0  0  0  0  0  0  0  0  0  0  0
   46.3990   25.0480   49.0250 N   0  0  0  0  0  0  0  0  0  0  0  0
   47.3400   24.2730   49.6170 C   0  0  0  0  0  0  0  0  0  0  0  0
   47.1340   23.1940   50.4840 C   0  0  0  0  0  0  0  0  0  0  0  0
   48.2360   22.5740   50.9470 N   0  0  0  0  0  0  0  0  0  0  0  0
   49.4650   22.9980   50.5720 C   0  0  0  0  0  0  0  0  0  0  0  0
   49.6660   24.0450   49.7300 N   0  0  0  0  0  0  0  0  0  0  0  0
   48.6040   24.6860   49.2500 C   0  0  0  0  0  0  0  0  0  0  0  0
   45.8010   22.8060   50.8340 N   0  0  0  0  0  0  0  0  0  0  0  0
   46.9961   33.1309   48.2258 H   0  0  0  0  0  0  0  0  0  0  0  0
   45.9052   31.8686   50.0278 H   0  0  0  0  0  0  0  0  0  0  0  0
   44.6561   29.8011   49.4833 H   0  0  0  0  0  0  0  0  0  0  0  0
   47.9669   33.0996   46.1235 H   0  0  0  0  0  0  0  0  0  0  0  0
   47.3449   31.9942   44.7993 H   0  0  0  0  0  0  0  0  0  0  0  0
   43.7715   35.8426   45.8393 H   0  0  0  0  0  0  0  0  0  0  0  0
   44.1917   36.5908   43.4831 H   0  0  0  0  0  0  0  0  0  0  0  0
   46.0140   35.4302   42.1680 H   0  0  0  0  0  0  0  0  0  0  0  0
   45.0871   27.2391   49.9175 H   0  0  0  0  0  0  0  0  0  0  0  0
   49.1240   26.2739   47.9650 H   0  0  0  0  0  0  0  0  0  0  0  0
   50.3443   22.4691   50.9683 H   0  0  0  0  0  0  0  0  0  0  0  0
   45.6464   22.0122   51.4719 H   0  0  0  0  0  0  0  0  0  0  0  0
   44.9967   23.3206   50.4479 H   0  0  0  0  0  0  0  0  0  0  0  0
  1  2  1  0
  2  3  2  0
  2  7  1  0
  3  4  1  0
  4  5  2  0
  6  5  1  0
  7  6  2  0
  8  3  1  0
  9 14  2  0
 10  9  1  0
 11 12  1  0
 11 10  2  0
 12 13  2  0
 13  8  1  0
 13 14  1  0
 15  7  1  0
 15 17  1  0
 17 16  2  0
 17 18  1  0
 19 17  1  0
 19 21  1  0
 20 28  1  0
 21 20  1  0
 21 22  2  0
 22 23  1  0
 23 24  1  0
 24 29  1  0
 24 25  2  0
 26 25  1  0
 27 26  2  0
 28 23  2  0
 28 27  1  0
  4 30  1  0
  5 31  1  0
  6 32  1  0
  8 33  1  0
  8 34  1  0
  9 35  1  0
 10 36  1  0
 11 37  1  0
 18 38  1  0
 20 39  1  0
 26 40  1  0
 29 41  1  0
 29 42  1  0
M  ISO  8  30  14  31  14  32  14  33   8  34   8  35  14  36  14  37  14
M  ISO  3  38   3  39   9  40  14
M  END
>  <minimizedAffinity>  (1) 
-6.19042635

>  <minimizedRMSD>  (1) 
0.493881881

$$$$
