
     RDKit          3D

 34 36  0  0  0  0  0  0  0  0999 V2000
   47.8030   32.6760   41.8450 O   0  0  0  0  0  0  0  0  0  0  0  0
   46.8740   33.7910   41.2950 P   0  0  2  0  0  0  0  0  0  0  0  0
   45.3250   33.6210   42.0190 O   0  0  0  0  0  0  0  0  0  0  0  0
   44.3460   35.9200   44.6700 C   0  0  0  0  0  0  0  0  0  0  0  0
   44.5430   35.3760   43.3770 C   0  0  0  0  0  0  0  0  0  0  0  0
   45.1470   34.1170   43.2930 C   0  0  0  0  0  0  0  0  0  0  0  0
   45.5050   33.4970   44.4320 N   0  0  0  0  0  0  0  0  0  0  0  0
   45.3030   34.0420   45.6530 C   0  0  0  0  0  0  0  0  0  0  0  0
   44.7290   35.2460   45.7800 N   0  0  0  0  0  0  0  0  0  0  0  0
   46.7140   33.6040   39.6580 O   0  0  0  0  0  0  0  0  0  0  0  0
   45.6390   33.2340   38.9160 C   0  0  0  0  0  0  0  0  0  0  0  0
   45.8430   32.2930   37.9390 O   0  0  0  0  0  0  0  0  0  0  0  0
   43.4570   34.5730   38.7000 N   0  0  0  0  0  0  0  0  0  0  0  0
   44.1830   33.4200   38.6950 C   0  0  0  0  0  0  0  0  0  0  0  0
   43.2450   32.5350   38.4620 N   0  0  0  0  0  0  0  0  0  0  0  0
   42.0560   33.1420   38.3410 C   0  0  0  0  0  0  0  0  0  0  0  0
   40.9230   32.4100   38.0940 C   0  0  0  0  0  0  0  0  0  0  0  0
   39.8080   33.1900   38.0030 N   0  0  0  0  0  0  0  0  0  0  0  0
   39.8350   34.5270   38.1420 C   0  0  0  0  0  0  0  0  0  0  0  0
   41.0270   35.1530   38.3870 N   0  0  0  0  0  0  0  0  0  0  0  0
   42.1610   34.4950   38.4940 C   0  0  0  0  0  0  0  0  0  0  0  0
   40.7890   31.0050   37.9310 N   0  0  0  0  0  0  0  0  0  0  0  0
   47.5220   35.2410   41.7690 O   0  0  0  0  0  0  0  0  0  0  0  0
   48.7900   35.4510   41.2370 C   0  0  0  0  0  0  0  0  0  0  0  0
   49.3270   36.6660   41.6240 F   0  0  0  0  0  0  0  0  0  0  0  0
   49.6070   34.4030   41.5210 F   0  0  0  0  0  0  0  0  0  0  0  0
   48.6200   35.5220   39.8570 F   0  0  0  0  0  0  0  0  0  0  0  0
   43.8733   36.9078   44.7741 H   0  0  0  0  0  0  0  0  0  0  0  0
   44.2331   35.9224   42.4740 H   0  0  0  0  0  0  0  0  0  0  0  0
   45.6136   33.4904   46.5526 H   0  0  0  0  0  0  0  0  0  0  0  0
   43.9122   35.4828   38.8611 H   0  0  0  0  0  0  0  0  0  0  0  0
   38.9074   35.1124   38.0595 H   0  0  0  0  0  0  0  0  0  0  0  0
   39.8625   30.5938   37.7480 H   0  0  0  0  0  0  0  0  0  0  0  0
   41.6183   30.3976   37.9958 H   0  0  0  0  0  0  0  0  0  0  0  0
  2 23  1  0
  2  1  2  0
  2  3  1  0
  3  6  1  0
  4  9  2  0
  5  4  1  0
  6  5  2  0
  6  7  1  0
  7  8  2  0
  8  9  1  0
 10  2  1  0
 11 10  1  0
 12 11  2  0
 14 13  1  0
 14 11  1  0
 15 14  2  0
 16 15  1  0
 16 21  2  0
 17 16  1  0
 18 17  2  0
 18 19  1  0
 19 20  2  0
 20 21  1  0
 21 13  1  0
 22 17  1  0
 24 26  1  0
 24 25  1  0
 24 23  1  0
 27 24  1  0
  4 28  1  0
  5 29  1  0
  8 30  1  0
 13 31  1  0
 19 32  1  0
 22 33  1  0
 22 34  1  0
M  ISO  5  28  14  29  14  30  14  31   9  32  14
M  END
>  <minimizedAffinity>  (1) 
-6.05051231

>  <minimizedRMSD>  (1) 
4.02364969

$$$$
