
     RDKit          3D

 42 46  0  0  0  0  0  0  0  0999 V2000
   45.9460   32.6420   46.7660 C   0  0  0  0  0  0  0  0  0  0  0  0
   45.5410   32.9280   48.0940 C   0  0  0  0  0  0  0  0  0  0  0  0
   45.7310   32.0690   49.1440 C   0  0  0  0  0  0  0  0  0  0  0  0
   46.3320   30.8740   48.9540 C   0  0  0  0  0  0  0  0  0  0  0  0
   46.7450   30.5430   47.6800 C   0  0  0  0  0  0  0  0  0  0  0  0
   47.3540   29.3270   47.5250 C   0  0  0  0  0  0  0  0  0  0  0  0
   47.7920   28.9360   46.2780 C   0  0  0  0  0  0  0  0  0  0  0  0
   47.5800   29.8260   45.2290 C   0  0  0  0  0  0  0  0  0  0  0  0
   46.9790   31.0000   45.4520 C   0  0  0  0  0  0  0  0  0  0  0  0
   46.5470   31.4120   46.6420 C   0  0  0  0  0  0  0  0  0  0  0  0
   44.4820   35.5050   45.1630 C   0  0  0  0  0  0  0  0  0  0  0  0
   45.2200   35.5940   43.9420 C   0  0  0  0  0  0  0  0  0  0  0  0
   46.2360   34.6390   43.6620 C   0  0  0  0  0  0  0  0  0  0  0  0
   46.4330   33.6940   44.5960 N   0  0  0  0  0  0  0  0  0  0  0  0
   45.7850   33.5930   45.6960 C   0  0  0  0  0  0  0  0  0  0  0  0
   44.8070   34.5130   45.9640 N   0  0  0  0  0  0  0  0  0  0  0  0
   44.8610   36.6710   43.0820 N   0  0  0  0  0  0  0  0  0  0  0  0
   46.9150   31.6350   44.2540 O   0  0  0  0  0  0  0  0  0  0  0  0
   47.7850   30.6290   42.0250 N   0  0  0  0  0  0  0  0  0  0  0  0
   47.6260   31.3220   43.1210 C   0  0  0  0  0  0  0  0  0  0  0  0
   48.7500   32.0980   43.0770 N   0  0  0  0  0  0  0  0  0  0  0  0
   49.5010   31.8580   42.0120 C   0  0  0  0  0  0  0  0  0  0  0  0
   50.7090   32.3660   41.5160 C   0  0  0  0  0  0  0  0  0  0  0  0
   51.1920   31.8560   40.3450 N   0  0  0  0  0  0  0  0  0  0  0  0
   50.5130   30.8780   39.6800 C   0  0  0  0  0  0  0  0  0  0  0  0
   49.3370   30.3710   40.1430 N   0  0  0  0  0  0  0  0  0  0  0  0
   48.8680   30.8750   41.2940 C   0  0  0  0  0  0  0  0  0  0  0  0
   51.3830   33.3880   42.2470 N   0  0  0  0  0  0  0  0  0  0  0  0
   45.0478   33.8911   48.2919 H   0  0  0  0  0  0  0  0  0  0  0  0
   45.3913   32.3546   50.1505 H   0  0  0  0  0  0  0  0  0  0  0  0
   46.4882   30.1819   49.7946 H   0  0  0  0  0  0  0  0  0  0  0  0
   47.4933   28.6646   48.3921 H   0  0  0  0  0  0  0  0  0  0  0  0
   48.2860   27.9661   46.1192 H   0  0  0  0  0  0  0  0  0  0  0  0
   47.9080   29.5628   44.2126 H   0  0  0  0  0  0  0  0  0  0  0  0
   43.6891   36.2235   45.4179 H   0  0  0  0  0  0  0  0  0  0  0  0
   46.8262   34.6723   42.7344 H   0  0  0  0  0  0  0  0  0  0  0  0
   45.3499   36.7983   42.1844 H   0  0  0  0  0  0  0  0  0  0  0  0
   44.1124   37.3226   43.3576 H   0  0  0  0  0  0  0  0  0  0  0  0
   47.0969   29.9184   41.7378 H   0  0  0  0  0  0  0  0  0  0  0  0
   50.9284   30.4863   38.7398 H   0  0  0  0  0  0  0  0  0  0  0  0
   52.2719   33.7717   41.8955 H   0  0  0  0  0  0  0  0  0  0  0  0
   50.9810   33.7426   43.1265 H   0  0  0  0  0  0  0  0  0  0  0  0
  1  2  2  0
  2  3  1  0
  4  3  2  0
  5  4  1  0
  6  5  2  0
  7  6  1  0
  8  9  1  0
  8  7  2  0
  9 10  2  0
 10  1  1  0
 10  5  1  0
 11 16  2  0
 12 11  1  0
 13 12  2  0
 13 14  1  0
 14 15  2  0
 15 16  1  0
 15  1  1  0
 17 12  1  0
 18  9  1  0
 19 20  1  0
 20 18  1  0
 21 20  2  0
 22 21  1  0
 23 22  2  0
 23 28  1  0
 24 23  1  0
 25 26  1  0
 25 24  2  0
 26 27  2  0
 27 22  1  0
 27 19  1  0
  2 29  1  0
  3 30  1  0
  4 31  1  0
  6 32  1  0
  7 33  1  0
  8 34  1  0
 11 35  1  0
 13 36  1  0
 17 37  1  0
 17 38  1  0
 19 39  1  0
 25 40  1  0
 28 41  1  0
 28 42  1  0
M  ISO  8  29  14  30  14  31  14  32  14  33  14  34  14  35  14  36  14
M  ISO  2  39   9  40  14
M  END
>  <minimizedAffinity>  (1) 
-6.70979881

>  <minimizedRMSD>  (1) 
0.727520645

$$$$
