
     RDKit          3D

 43 46  0  0  0  0  0  0  0  0999 V2000
   46.5040   32.9540   46.4740 C   0  0  0  0  0  0  0  0  0  0  0  0
   44.5270   35.6410   44.7800 C   0  0  0  0  0  0  0  0  0  0  0  0
   45.1260   35.6150   43.5020 C   0  0  0  0  0  0  0  0  0  0  0  0
   46.1470   34.6980   43.3030 C   0  0  0  0  0  0  0  0  0  0  0  0
   46.5050   33.8890   44.3450 N   0  0  0  0  0  0  0  0  0  0  0  0
   45.9090   33.9500   45.5390 C   0  0  0  0  0  0  0  0  0  0  0  0
   44.9110   34.8260   45.7790 N   0  0  0  0  0  0  0  0  0  0  0  0
   46.7690   34.6500   42.0240 N   0  0  0  0  0  0  0  0  0  0  0  0
   47.9620   35.2400   41.8610 C   0  0  0  0  0  0  0  0  0  0  0  0
   48.5730   35.1970   40.6190 C   0  0  0  0  0  0  0  0  0  0  0  0
   47.9240   34.5520   39.6130 C   0  0  0  0  0  0  0  0  0  0  0  0
   48.4940   34.5150   38.4650 O   0  0  0  0  0  0  0  0  0  0  0  0
   46.7340   33.9530   39.7410 N   0  0  0  0  0  0  0  0  0  0  0  0
   46.1830   34.0280   40.9820 C   0  0  0  0  0  0  0  0  0  0  0  0
   45.0770   33.5060   41.2170 O   0  0  0  0  0  0  0  0  0  0  0  0
   45.5090   32.5990   47.5690 C   0  0  0  0  0  0  0  0  0  0  0  0
   45.4640   30.1510   47.7280 C   0  0  0  0  0  0  0  0  0  0  0  0
   46.4940   30.2680   48.4270 O   0  0  0  0  0  0  0  0  0  0  0  0
   44.8980   31.3380   47.2490 N   0  0  0  0  0  0  0  0  0  0  0  0
   44.1150   28.6110   46.3900 N   0  0  0  0  0  0  0  0  0  0  0  0
   44.9180   28.8240   47.4520 C   0  0  0  0  0  0  0  0  0  0  0  0
   45.0880   27.6890   48.1230 N   0  0  0  0  0  0  0  0  0  0  0  0
   44.3640   26.7520   47.4480 C   0  0  0  0  0  0  0  0  0  0  0  0
   44.1450   25.4030   47.6480 C   0  0  0  0  0  0  0  0  0  0  0  0
   43.3550   24.7290   46.7770 N   0  0  0  0  0  0  0  0  0  0  0  0
   42.7670   25.3040   45.7220 C   0  0  0  0  0  0  0  0  0  0  0  0
   42.9670   26.6050   45.5150 N   0  0  0  0  0  0  0  0  0  0  0  0
   43.7430   27.3200   46.3490 C   0  0  0  0  0  0  0  0  0  0  0  0
   44.7360   24.7200   48.7460 N   0  0  0  0  0  0  0  0  0  0  0  0
   47.4095   33.3803   46.9305 H   0  0  0  0  0  0  0  0  0  0  0  0
   46.7588   32.0431   45.9124 H   0  0  0  0  0  0  0  0  0  0  0  0
   43.7130   36.3569   44.9666 H   0  0  0  0  0  0  0  0  0  0  0  0
   44.7975   36.2920   42.6997 H   0  0  0  0  0  0  0  0  0  0  0  0
   48.4495   35.7520   42.7037 H   0  0  0  0  0  0  0  0  0  0  0  0
   49.5521   35.6695   40.4515 H   0  0  0  0  0  0  0  0  0  0  0  0
   46.2700   33.4711   38.9578 H   0  0  0  0  0  0  0  0  0  0  0  0
   46.0325   32.5219   48.5334 H   0  0  0  0  0  0  0  0  0  0  0  0
   44.7379   33.3802   47.6408 H   0  0  0  0  0  0  0  0  0  0  0  0
   44.0470   31.3080   46.6695 H   0  0  0  0  0  0  0  0  0  0  0  0
   43.8291   29.3307   45.7109 H   0  0  0  0  0  0  0  0  0  0  0  0
   42.1333   24.7166   45.0413 H   0  0  0  0  0  0  0  0  0  0  0  0
   44.5622   23.7137   48.8804 H   0  0  0  0  0  0  0  0  0  0  0  0
   45.3379   25.2315   49.4070 H   0  0  0  0  0  0  0  0  0  0  0  0
  1 16  1  0
  2  7  2  0
  3  2  1  0
  4  3  2  0
  4  5  1  0
  5  6  2  0
  6  7  1  0
  6  1  1  0
  8  4  1  0
  9  8  1  0
 10  9  2  0
 11 13  1  0
 11 10  1  0
 12 11  2  0
 13 14  1  0
 14 15  2  0
 14  8  1  0
 17 18  2  0
 19 16  1  0
 19 17  1  0
 20 21  1  0
 21 17  1  0
 21 22  2  0
 23 24  2  0
 23 22  1  0
 24 29  1  0
 25 24  1  0
 26 25  2  0
 27 26  1  0
 27 28  2  0
 28 20  1  0
 28 23  1  0
  1 30  1  0
  1 31  1  0
  2 32  1  0
  3 33  1  0
  9 34  1  0
 10 35  1  0
 13 36  1  0
 16 37  1  0
 16 38  1  0
 19 39  1  0
 20 40  1  0
 26 41  1  0
 29 42  1  0
 29 43  1  0
M  END
>  <minimizedAffinity>  (1) 
-7.04894543

>  <minimizedRMSD>  (1) 
1.66271651

$$$$
