
     RDKit          3D

 27 29  0  0  0  0  0  0  0  0999 V2000
   47.0780   32.9100   45.5320 N   0  0  0  0  0  0  0  0  0  0  0  0
   46.1490   32.9910   46.4980 C   0  0  0  0  0  0  0  0  0  0  0  0
   45.2230   33.8720   46.0740 N   0  0  0  0  0  0  0  0  0  0  0  0
   45.5800   34.3180   44.8730 C   0  0  0  0  0  0  0  0  0  0  0  0
   44.9870   35.2190   44.0170 C   0  0  0  0  0  0  0  0  0  0  0  0
   45.5750   35.4980   42.8320 N   0  0  0  0  0  0  0  0  0  0  0  0
   46.7460   34.8790   42.5090 C   0  0  0  0  0  0  0  0  0  0  0  0
   47.3340   34.0000   43.3340 N   0  0  0  0  0  0  0  0  0  0  0  0
   46.7650   33.7140   44.5070 C   0  0  0  0  0  0  0  0  0  0  0  0
   43.7660   35.8220   44.4260 N   0  0  0  0  0  0  0  0  0  0  0  0
   45.9870   32.1930   48.0760 S   0  0  0  0  0  0  0  0  0  0  0  0
   46.5580   30.4710   48.0310 C   0  0  0  0  0  0  0  0  0  0  0  0
   50.0870   29.4850   48.6550 C   0  0  0  0  0  0  0  0  0  0  0  0
   50.5990   30.6120   49.2740 C   0  0  0  0  0  0  0  0  0  0  0  0
   49.7340   31.6790   49.4660 C   0  0  0  0  0  0  0  0  0  0  0  0
   48.4390   31.6050   49.0550 N   0  0  0  0  0  0  0  0  0  0  0  0
   47.9750   30.4840   48.4520 C   0  0  0  0  0  0  0  0  0  0  0  0
   48.8050   29.4470   48.2620 N   0  0  0  0  0  0  0  0  0  0  0  0
   47.9158   32.3122   45.5733 H   0  0  0  0  0  0  0  0  0  0  0  0
   47.2223   35.1070   41.5440 H   0  0  0  0  0  0  0  0  0  0  0  0
   43.2951   36.5004   43.8104 H   0  0  0  0  0  0  0  0  0  0  0  0
   43.3524   35.5804   45.3378 H   0  0  0  0  0  0  0  0  0  0  0  0
   45.9626   29.8557   48.7216 H   0  0  0  0  0  0  0  0  0  0  0  0
   46.4477   30.0430   47.0237 H   0  0  0  0  0  0  0  0  0  0  0  0
   50.7363   28.6137   48.4840 H   0  0  0  0  0  0  0  0  0  0  0  0
   51.6485   30.6595   49.6002 H   0  0  0  0  0  0  0  0  0  0  0  0
   50.0985   32.5942   49.9554 H   0  0  0  0  0  0  0  0  0  0  0  0
  1  2  1  0
  2 11  1  0
  3  2  2  0
  4  3  1  0
  5 10  1  0
  5  4  2  0
  6  5  1  0
  7  6  2  0
  7  8  1  0
  8  9  2  0
  9  4  1  0
  9  1  1  0
 12 11  1  0
 12 17  1  0
 13 14  2  0
 14 15  1  0
 16 15  2  0
 17 16  1  0
 18 17  2  0
 18 13  1  0
  1 19  1  0
  7 20  1  0
 10 21  1  0
 10 22  1  0
 12 23  1  0
 12 24  1  0
 13 25  1  0
 14 26  1  0
 15 27  1  0
M  ISO  7  19   9  20  14  23   8  24   8  25  14  26  14  27  14
M  END
>  <minimizedAffinity>  (1) 
-5.38070011

>  <minimizedRMSD>  (1) 
7.49925184

$$$$
