
     RDKit          3D

 47 51  0  0  1  0  0  0  0  0999 V2000
   48.3970   34.1890   40.9480 C   0  0  0  0  0  0  0  0  0  0  0  0
   47.9150   34.4200   39.6810 C   0  0  0  0  0  0  0  0  0  0  0  0
   48.2140   33.5970   38.5860 C   0  0  0  0  0  0  0  0  0  0  0  0
   49.0240   32.5400   38.8570 N   0  0  0  0  0  0  0  0  0  0  0  0
   49.4920   32.3180   40.0940 C   0  0  0  0  0  0  0  0  0  0  0  0
   49.1810   33.1300   41.1100 N   0  0  0  0  0  0  0  0  0  0  0  0
   50.3620   31.1360   40.4080 C   0  0  2  0  0  0  0  0  0  0  0  0
   50.3820   30.6260   41.8160 C   0  0  0  0  0  0  0  0  0  0  0  0
   51.5690   31.4080   41.2340 C   0  0  1  0  0  0  0  0  0  0  0  0
   52.7080   30.5570   40.9550 N   0  0  0  0  0  0  0  0  0  0  0  0
   53.2180   29.5710   41.7430 C   0  0  0  0  0  0  0  0  0  0  0  0
   54.2930   29.0010   41.1270 N   0  0  0  0  0  0  0  0  0  0  0  0
   54.4680   29.6280   39.9390 C   0  0  0  0  0  0  0  0  0  0  0  0
   55.3610   29.5200   38.8750 C   0  0  0  0  0  0  0  0  0  0  0  0
   55.2710   30.3180   37.7950 N   0  0  0  0  0  0  0  0  0  0  0  0
   54.3170   31.2430   37.7080 C   0  0  0  0  0  0  0  0  0  0  0  0
   53.4490   31.3570   38.7270 N   0  0  0  0  0  0  0  0  0  0  0  0
   53.4810   30.5920   39.8410 C   0  0  0  0  0  0  0  0  0  0  0  0
   56.3780   28.5560   38.9340 N   0  0  0  0  0  0  0  0  0  0  0  0
   48.0640   35.0440   42.0640 C   0  0  0  0  0  0  0  0  0  0  0  0
   46.6070   34.9260   42.3810 C   0  0  0  0  0  0  0  0  0  0  0  0
   44.6220   36.3460   44.1010 Cl  0  0  0  0  0  0  0  0  0  0  0  0
   45.4510   34.9120   44.6110 C   0  0  0  0  0  0  0  0  0  0  0  0
   46.3470   34.3400   43.7340 C   0  0  0  0  0  0  0  0  0  0  0  0
   47.0100   33.1940   44.1400 C   0  0  0  0  0  0  0  0  0  0  0  0
   46.7790   32.6460   45.3830 C   0  0  0  0  0  0  0  0  0  0  0  0
   45.8700   33.2300   46.2660 C   0  0  0  0  0  0  0  0  0  0  0  0
   45.2110   34.3760   45.8520 C   0  0  0  0  0  0  0  0  0  0  0  0
   44.2850   35.0320   46.6620 O   0  0  0  0  0  0  0  0  0  0  0  0
   47.2640   35.2918   39.5189 H   0  0  0  0  0  0  0  0  0  0  0  0
   47.8204   33.7932   37.5778 H   0  0  0  0  0  0  0  0  0  0  0  0
   50.1765   30.6591   39.4342 H   0  0  0  0  0  0  0  0  0  0  0  0
   49.7379   31.0853   42.5803 H   0  0  0  0  0  0  0  0  0  0  0  0
   50.2476   29.6466   42.2984 H   0  0  0  0  0  0  0  0  0  0  0  0
   52.1345   32.3146   41.4954 H   0  0  0  0  0  0  0  0  0  0  0  0
   52.8230   29.2785   42.7271 H   0  0  0  0  0  0  0  0  0  0  0  0
   54.2417   31.8959   36.8259 H   0  0  0  0  0  0  0  0  0  0  0  0
   57.0460   28.4638   38.1554 H   0  0  0  0  0  0  0  0  0  0  0  0
   56.4569   27.9403   39.7559 H   0  0  0  0  0  0  0  0  0  0  0  0
   48.6536   34.7428   42.9424 H   0  0  0  0  0  0  0  0  0  0  0  0
   48.2933   36.0872   41.8010 H   0  0  0  0  0  0  0  0  0  0  0  0
   46.1576   35.9292   42.3415 H   0  0  0  0  0  0  0  0  0  0  0  0
   46.1632   34.2469   41.6381 H   0  0  0  0  0  0  0  0  0  0  0  0
   47.7307   32.7147   43.4611 H   0  0  0  0  0  0  0  0  0  0  0  0
   47.3186   31.7357   45.6833 H   0  0  0  0  0  0  0  0  0  0  0  0
   45.6828   32.7945   47.2586 H   0  0  0  0  0  0  0  0  0  0  0  0
   44.0807   34.6809   47.5648 H   0  0  0  0  0  0  0  0  0  0  0  0
  1  6  1  0
  1 20  1  0
  2  1  2  0
  3  4  2  0
  3  2  1  0
  4  5  1  0
  5  7  1  0
  5  6  2  0
  7  9  1  0
  7  8  1  0
  9  8  1  0
 10  9  1  0
 10 11  1  0
 12 11  2  0
 13 12  1  0
 14 19  1  0
 14 13  2  0
 15 14  1  0
 16 15  2  0
 16 17  1  0
 17 18  2  0
 18 13  1  0
 18 10  1  0
 20 21  1  0
 21 24  1  0
 22 23  1  0
 23 28  2  0
 24 25  2  0
 24 23  1  0
 25 26  1  0
 26 27  2  0
 28 27  1  0
 28 29  1  0
  2 30  1  0
  3 31  1  0
  7 32  1  6
  8 33  1  0
  8 34  1  0
  9 35  1  1
 11 36  1  0
 16 37  1  0
 19 38  1  0
 19 39  1  0
 20 40  1  0
 20 41  1  0
 21 42  1  0
 21 43  1  0
 25 44  1  0
 26 45  1  0
 27 46  1  0
 29 47  1  0
M  ISO  8  30  14  31  14  32  13  33  13  34  13  35  13  36  14  37  14
M  ISO  8  40   8  41   8  42   8  43   8  44  14  45  14  46  14  47   3
M  END
>  <minimizedAffinity>  (1) 
-6.36051559

>  <minimizedRMSD>  (1) 
0.642216325

$$$$
