
     RDKit          3D

 49 53  0  0  0  0  0  0  0  0999 V2000
   45.2650   36.0040   42.8840 C   0  0  0  0  0  0  0  0  0  0  0  0
   45.4990   34.6380   42.8890 C   0  0  0  0  0  0  0  0  0  0  0  0
   45.2760   33.9060   44.0280 C   0  0  0  0  0  0  0  0  0  0  0  0
   44.8160   34.5970   45.1330 N   0  0  0  0  0  0  0  0  0  0  0  0
   44.5920   35.9060   45.1230 C   0  0  0  0  0  0  0  0  0  0  0  0
   44.8220   36.6000   43.9870 N   0  0  0  0  0  0  0  0  0  0  0  0
   45.4650   32.5140   44.1950 C   0  0  0  0  0  0  0  0  0  0  0  0
   44.9900   31.5470   43.3050 C   0  0  0  0  0  0  0  0  0  0  0  0
   45.1130   30.1950   43.4970 C   0  0  0  0  0  0  0  0  0  0  0  0
   45.7370   29.7250   44.6250 C   0  0  0  0  0  0  0  0  0  0  0  0
   46.2290   30.6900   45.5440 C   0  0  0  0  0  0  0  0  0  0  0  0
   46.8510   30.2330   46.6770 C   0  0  0  0  0  0  0  0  0  0  0  0
   47.3510   31.1150   47.6140 C   0  0  0  0  0  0  0  0  0  0  0  0
   47.2210   32.4960   47.3940 C   0  0  0  0  0  0  0  0  0  0  0  0
   46.5750   32.9190   46.2180 C   0  0  0  0  0  0  0  0  0  0  0  0
   46.0860   32.0190   45.3120 C   0  0  0  0  0  0  0  0  0  0  0  0
   45.9510   34.0770   41.7250 O   0  0  0  0  0  0  0  0  0  0  0  0
   47.8790   32.3540   41.3070 O   0  0  0  0  0  0  0  0  0  0  0  0
   47.5820   33.8110   41.3540 P   0  0  1  0  0  0  0  0  0  0  0  0
   47.9610   34.4460   39.8320 O   0  0  0  0  0  0  0  0  0  0  0  0
   46.4100   33.6040   38.1430 N   0  0  0  0  0  0  0  0  0  0  0  0
   47.6110   33.8960   38.6320 C   0  0  0  0  0  0  0  0  0  0  0  0
   48.5110   33.5320   37.6800 N   0  0  0  0  0  0  0  0  0  0  0  0
   47.8280   33.0260   36.6270 C   0  0  0  0  0  0  0  0  0  0  0  0
   48.1740   32.5050   35.3950 C   0  0  0  0  0  0  0  0  0  0  0  0
   47.2370   32.0790   34.5610 N   0  0  0  0  0  0  0  0  0  0  0  0
   45.9360   32.1360   34.8770 C   0  0  0  0  0  0  0  0  0  0  0  0
   45.5540   32.6310   36.0550 N   0  0  0  0  0  0  0  0  0  0  0  0
   46.4780   33.0660   36.9120 C   0  0  0  0  0  0  0  0  0  0  0  0
   49.5370   32.4320   35.0340 N   0  0  0  0  0  0  0  0  0  0  0  0
   48.5180   34.5870   42.5120 O   0  0  0  0  0  0  0  0  0  0  0  0
   49.7180   35.2450   42.3020 C   0  0  0  0  0  0  0  0  0  0  0  0
   49.3960   36.3460   41.8180 O   0  0  0  0  0  0  0  0  0  0  0  0
   50.8330   34.4270   42.7130 N   0  0  0  0  0  0  0  0  0  0  0  0
   45.4449   36.5922   41.9721 H   0  0  0  0  0  0  0  0  0  0  0  0
   44.2250   36.4170   46.0253 H   0  0  0  0  0  0  0  0  0  0  0  0
   44.4847   31.8929   42.3912 H   0  0  0  0  0  0  0  0  0  0  0  0
   44.7139   29.4915   42.7514 H   0  0  0  0  0  0  0  0  0  0  0  0
   45.8514   28.6467   44.8098 H   0  0  0  0  0  0  0  0  0  0  0  0
   46.9529   29.1502   46.8415 H   0  0  0  0  0  0  0  0  0  0  0  0
   47.8455   30.7405   48.5224 H   0  0  0  0  0  0  0  0  0  0  0  0
   47.6124   33.2247   48.1191 H   0  0  0  0  0  0  0  0  0  0  0  0
   46.4609   33.9956   46.0233 H   0  0  0  0  0  0  0  0  0  0  0  0
   45.5283   33.7706   38.6487 H   0  0  0  0  0  0  0  0  0  0  0  0
   45.1815   31.7737   34.1632 H   0  0  0  0  0  0  0  0  0  0  0  0
   49.8072   32.0456   34.1183 H   0  0  0  0  0  0  0  0  0  0  0  0
   50.2611   32.7652   35.6864 H   0  0  0  0  0  0  0  0  0  0  0  0
   51.7951   34.7822   42.6177 H   0  0  0  0  0  0  0  0  0  0  0  0
   50.6670   33.4877   43.1017 H   0  0  0  0  0  0  0  0  0  0  0  0
  1  2  2  0
  1  6  1  0
  2  3  1  0
  3  7  1  0
  3  4  2  0
  5  4  1  0
  6  5  2  0
  7 16  2  0
  8  9  2  0
  8  7  1  0
  9 10  1  0
 10 11  2  0
 11 12  1  0
 12 13  2  0
 14 13  1  0
 15 14  2  0
 16 11  1  0
 16 15  1  0
 17  2  1  0
 19 18  2  0
 19 17  1  0
 19 31  1  0
 20 19  1  0
 21 22  1  0
 22 20  1  0
 23 22  2  0
 24 29  2  0
 24 23  1  0
 25 24  1  0
 26 27  1  0
 26 25  2  0
 27 28  2  0
 28 29  1  0
 29 21  1  0
 30 25  1  0
 32 31  1  0
 32 34  1  0
 33 32  2  0
  1 35  1  0
  5 36  1  0
  8 37  1  0
  9 38  1  0
 10 39  1  0
 12 40  1  0
 13 41  1  0
 14 42  1  0
 15 43  1  0
 21 44  1  0
 27 45  1  0
 30 46  1  0
 30 47  1  0
 34 48  1  0
 34 49  1  0
M  ISO  8  35  14  36  14  37  14  38  14  39  14  40  14  41  14  42  14
M  ISO  3  43  14  44   9  45  14
M  END
>  <minimizedAffinity>  (1) 
-7.16592121

>  <minimizedRMSD>  (1) 
2.12164116

$$$$
