
     RDKit          3D

 42 46  0  0  0  0  0  0  0  0999 V2000
   44.8550   34.9440   44.8490 C   0  0  0  0  0  0  0  0  0  0  0  0
   45.4550   35.2470   43.6170 C   0  0  0  0  0  0  0  0  0  0  0  0
   46.5920   34.5170   43.3390 C   0  0  0  0  0  0  0  0  0  0  0  0
   47.0420   33.5890   44.2360 N   0  0  0  0  0  0  0  0  0  0  0  0
   46.4340   33.3420   45.3900 C   0  0  0  0  0  0  0  0  0  0  0  0
   45.3220   34.0350   45.6950 N   0  0  0  0  0  0  0  0  0  0  0  0
   47.3110   34.7130   42.1240 N   0  0  0  0  0  0  0  0  0  0  0  0
   48.3760   35.5240   41.9960 C   0  0  0  0  0  0  0  0  0  0  0  0
   48.7910   35.4510   40.7020 N   0  0  0  0  0  0  0  0  0  0  0  0
   47.9840   34.5990   40.0470 C   0  0  0  0  0  0  0  0  0  0  0  0
   47.8940   34.1220   38.7540 C   0  0  0  0  0  0  0  0  0  0  0  0
   46.9440   33.2350   38.3520 N   0  0  0  0  0  0  0  0  0  0  0  0
   46.0320   32.7910   39.2640 C   0  0  0  0  0  0  0  0  0  0  0  0
   46.1090   33.2460   40.5190 N   0  0  0  0  0  0  0  0  0  0  0  0
   47.0410   34.1270   40.9480 C   0  0  0  0  0  0  0  0  0  0  0  0
   48.8200   34.5600   37.7880 N   0  0  0  0  0  0  0  0  0  0  0  0
   46.9050   32.3590   46.3520 C   0  0  0  0  0  0  0  0  0  0  0  0
   47.2940   32.6770   47.4960 O   0  0  0  0  0  0  0  0  0  0  0  0
   44.8840   30.7170   47.7810 Cl  0  0  0  0  0  0  0  0  0  0  0  0
   46.0330   30.0970   46.5890 C   0  0  0  0  0  0  0  0  0  0  0  0
   46.9320   30.9420   45.9940 C   0  0  0  0  0  0  0  0  0  0  0  0
   47.8050   30.4160   45.0880 C   0  0  0  0  0  0  0  0  0  0  0  0
   47.7800   29.0750   44.7830 C   0  0  0  0  0  0  0  0  0  0  0  0
   46.8690   28.2230   45.3880 C   0  0  0  0  0  0  0  0  0  0  0  0
   45.9860   28.7570   46.3050 C   0  0  0  0  0  0  0  0  0  0  0  0
   45.0720   27.7760   46.8720 C   0  0  0  0  0  0  0  0  0  0  0  0
   43.9120   27.2320   46.3440 C   0  0  0  0  0  0  0  0  0  0  0  0
   43.3260   26.3290   47.2000 C   0  0  0  0  0  0  0  0  0  0  0  0
   44.1970   26.3580   48.2770 C   0  0  0  0  0  0  0  0  0  0  0  0
   45.1610   27.1920   48.0330 O   0  0  0  0  0  0  0  0  0  0  0  0
   43.9438   35.4925   45.1297 H   0  0  0  0  0  0  0  0  0  0  0  0
   45.0516   36.0047   42.9292 H   0  0  0  0  0  0  0  0  0  0  0  0
   48.8287   36.1344   42.7913 H   0  0  0  0  0  0  0  0  0  0  0  0
   45.2500   32.0741   38.9733 H   0  0  0  0  0  0  0  0  0  0  0  0
   48.7604   34.2095   36.8213 H   0  0  0  0  0  0  0  0  0  0  0  0
   49.5570   35.2309   38.0480 H   0  0  0  0  0  0  0  0  0  0  0  0
   48.5378   31.0719   44.5953 H   0  0  0  0  0  0  0  0  0  0  0  0
   48.4932   28.6728   44.0484 H   0  0  0  0  0  0  0  0  0  0  0  0
   46.8502   27.1506   45.1440 H   0  0  0  0  0  0  0  0  0  0  0  0
   43.5069   27.4922   45.3550 H   0  0  0  0  0  0  0  0  0  0  0  0
   42.4075   25.7390   47.0650 H   0  0  0  0  0  0  0  0  0  0  0  0
   44.0882   25.7654   49.1973 H   0  0  0  0  0  0  0  0  0  0  0  0
  1  6  2  0
  2  1  1  0
  3  2  2  0
  3  4  1  0
  4  5  2  0
  5  6  1  0
  5 17  1  0
  7  3  1  0
  8  7  1  0
  9  8  2  0
 10  9  1  0
 10 15  2  0
 11 10  1  0
 12 11  2  0
 12 13  1  0
 13 14  2  0
 14 15  1  0
 15  7  1  0
 16 11  1  0
 17 18  2  0
 20 19  1  0
 21 17  1  0
 21 20  2  0
 22 21  1  0
 23 22  2  0
 23 24  1  0
 24 25  2  0
 25 20  1  0
 25 26  1  0
 26 30  1  0
 27 26  2  0
 27 28  1  0
 28 29  2  0
 30 29  1  0
  1 31  1  0
  2 32  1  0
  8 33  1  0
 13 34  1  0
 16 35  1  0
 16 36  1  0
 22 37  1  0
 23 38  1  0
 24 39  1  0
 27 40  1  0
 28 41  1  0
 29 42  1  0
M  ISO  8  31  14  32  14  33  14  34  14  37  14  38  14  39  14  40  14
M  ISO  2  41  14  42  14
M  END
>  <minimizedAffinity>  (1) 
-6.84394741

>  <minimizedRMSD>  (1) 
0.735009313

$$$$
