
     RDKit          3D

 52 56  0  0  1  0  0  0  0  0999 V2000
   49.2830   34.3460   41.5220 N   0  0  0  0  0  0  0  0  0  0  0  0
   50.3330   34.0300   42.4290 C   0  0  0  0  0  0  0  0  0  0  0  0
   50.9580   32.7230   42.0410 C   0  0  0  0  0  0  0  0  0  0  0  0
   49.9210   32.0950   41.1450 C   0  0  0  0  0  0  0  0  0  0  0  0
   48.8980   33.1410   40.8410 C   0  0  2  0  0  0  0  0  0  0  0  0
   48.5770   33.2940   39.4620 N   0  0  0  0  0  0  0  0  0  0  0  0
   48.3200   34.5070   38.9380 C   0  0  0  0  0  0  0  0  0  0  0  0
   48.0520   34.3450   37.6290 N   0  0  0  0  0  0  0  0  0  0  0  0
   48.1440   33.0330   37.3470 C   0  0  0  0  0  0  0  0  0  0  0  0
   47.9920   32.2460   36.2310 C   0  0  0  0  0  0  0  0  0  0  0  0
   48.1430   30.9160   36.2080 N   0  0  0  0  0  0  0  0  0  0  0  0
   48.4720   30.2930   37.3740 C   0  0  0  0  0  0  0  0  0  0  0  0
   48.6360   31.0210   38.5090 N   0  0  0  0  0  0  0  0  0  0  0  0
   48.4800   32.3390   38.5040 C   0  0  0  0  0  0  0  0  0  0  0  0
   47.6460   32.9290   35.0200 N   0  0  0  0  0  0  0  0  0  0  0  0
   48.1650   34.9290   42.2240 C   0  0  0  0  0  0  0  0  0  0  0  0
   45.7070   34.9640   42.1280 C   0  0  0  0  0  0  0  0  0  0  0  0
   46.8600   34.6680   41.5150 C   0  0  0  0  0  0  0  0  0  0  0  0
   44.1080   33.5700   40.6980 C   0  0  0  0  0  0  0  0  0  0  0  0
   44.4080   34.7200   41.4600 C   0  0  0  0  0  0  0  0  0  0  0  0
   43.4250   35.7150   41.6130 C   0  0  0  0  0  0  0  0  0  0  0  0
   42.2230   35.5110   41.0080 N   0  0  0  0  0  0  0  0  0  0  0  0
   41.9790   34.4060   40.2930 C   0  0  0  0  0  0  0  0  0  0  0  0
   42.9140   33.4660   40.1510 N   0  0  0  0  0  0  0  0  0  0  0  0
   39.7440   33.6020   41.7180 F   0  0  0  0  0  0  0  0  0  0  0  0
   39.5750   33.8420   40.4030 C   0  0  0  0  0  0  0  0  0  0  0  0
   40.6720   34.2440   39.6680 C   0  0  0  0  0  0  0  0  0  0  0  0
   40.5840   34.5130   38.2990 C   0  0  0  0  0  0  0  0  0  0  0  0
   39.3430   34.3610   37.6940 C   0  0  0  0  0  0  0  0  0  0  0  0
   38.2090   33.9500   38.4330 C   0  0  0  0  0  0  0  0  0  0  0  0
   38.3460   33.6960   39.7860 C   0  0  0  0  0  0  0  0  0  0  0  0
   51.0945   34.8232   42.3979 H   0  0  0  0  0  0  0  0  0  0  0  0
   49.9242   33.9510   43.4472 H   0  0  0  0  0  0  0  0  0  0  0  0
   51.9019   32.8830   41.4993 H   0  0  0  0  0  0  0  0  0  0  0  0
   51.2157   32.0953   42.9068 H   0  0  0  0  0  0  0  0  0  0  0  0
   50.3908   31.7469   40.2132 H   0  0  0  0  0  0  0  0  0  0  0  0
   49.4553   31.2292   41.6386 H   0  0  0  0  0  0  0  0  0  0  0  0
   47.9237   32.8111   41.2307 H   0  0  0  0  0  0  0  0  0  0  0  0
   48.3277   35.4622   39.4834 H   0  0  0  0  0  0  0  0  0  0  0  0
   48.6047   29.2013   37.3963 H   0  0  0  0  0  0  0  0  0  0  0  0
   47.5173   32.3970   34.1474 H   0  0  0  0  0  0  0  0  0  0  0  0
   47.5259   33.9520   35.0220 H   0  0  0  0  0  0  0  0  0  0  0  0
   48.1141   34.4962   43.2340 H   0  0  0  0  0  0  0  0  0  0  0  0
   48.3186   36.0174   42.2671 H   0  0  0  0  0  0  0  0  0  0  0  0
   45.7249   35.3938   43.1404 H   0  0  0  0  0  0  0  0  0  0  0  0
   46.8553   34.2380   40.5025 H   0  0  0  0  0  0  0  0  0  0  0  0
   44.8571   32.7758   40.5635 H   0  0  0  0  0  0  0  0  0  0  0  0
   43.6208   36.6244   42.2001 H   0  0  0  0  0  0  0  0  0  0  0  0
   41.4645   34.8330   37.7226 H   0  0  0  0  0  0  0  0  0  0  0  0
   39.2399   34.5644   36.6179 H   0  0  0  0  0  0  0  0  0  0  0  0
   37.2329   33.8341   37.9393 H   0  0  0  0  0  0  0  0  0  0  0  0
   37.4730   33.3763   40.3740 H   0  0  0  0  0  0  0  0  0  0  0  0
  1 16  1  0
  1  2  1  0
  3  2  1  0
  4  3  1  0
  5  4  1  0
  5  1  1  0
  6  5  1  0
  7  6  1  0
  8  7  2  0
  9  8  1  0
  9 14  2  0
 10  9  1  0
 11 10  2  0
 11 12  1  0
 12 13  2  0
 14 13  1  0
 14  6  1  0
 15 10  1  0
 18 17  2  0
 18 16  1  0
 19 20  2  0
 20 21  1  0
 20 17  1  0
 22 21  2  0
 23 22  1  0
 24 23  2  0
 24 19  1  0
 26 25  1  0
 27 23  1  0
 27 26  2  0
 28 27  1  0
 29 28  2  0
 29 30  1  0
 30 31  2  0
 31 26  1  0
  2 32  1  0
  2 33  1  0
  3 34  1  0
  3 35  1  0
  4 36  1  0
  4 37  1  0
  5 38  1  1
  7 39  1  0
 12 40  1  0
 15 41  1  0
 15 42  1  0
 16 43  1  0
 16 44  1  0
 17 45  1  0
 18 46  1  0
 19 47  1  0
 21 48  1  0
 28 49  1  0
 29 50  1  0
 30 51  1  0
 31 52  1  0
M  ISO  8  32  13  33  13  34  13  35  13  36  13  37  13  38  13  39  14
M  ISO  8  40  14  43   8  44   8  47  14  48  14  49  14  50  14  51  14
M  ISO  1  52  14
M  END
>  <minimizedAffinity>  (1) 
-7.30679607

>  <minimizedRMSD>  (1) 
0.0423335694

$$$$
