
     RDKit          3D

 39 43  0  0  0  0  0  0  0  0999 V2000
   45.9060   34.1710   40.6400 C   0  0  0  0  0  0  0  0  0  0  0  0
   44.5440   34.0840   40.4830 C   0  0  0  0  0  0  0  0  0  0  0  0
   44.3520   33.5050   39.2830 N   0  0  0  0  0  0  0  0  0  0  0  0
   45.5640   33.2480   38.7260 C   0  0  0  0  0  0  0  0  0  0  0  0
   46.5340   33.6590   39.5640 N   0  0  0  0  0  0  0  0  0  0  0  0
   45.5880   32.6310   37.4430 N   0  0  0  0  0  0  0  0  0  0  0  0
   44.5110   31.9510   36.9530 C   0  0  0  0  0  0  0  0  0  0  0  0
   44.7970   31.4610   35.7120 N   0  0  0  0  0  0  0  0  0  0  0  0
   46.0660   31.8300   35.4040 C   0  0  0  0  0  0  0  0  0  0  0  0
   46.9410   31.6630   34.3290 C   0  0  0  0  0  0  0  0  0  0  0  0
   48.1560   32.2010   34.4170 N   0  0  0  0  0  0  0  0  0  0  0  0
   48.6110   32.9030   35.4710 C   0  0  0  0  0  0  0  0  0  0  0  0
   47.7850   33.0720   36.5070 N   0  0  0  0  0  0  0  0  0  0  0  0
   46.5280   32.5460   36.4840 C   0  0  0  0  0  0  0  0  0  0  0  0
   46.4690   30.9230   33.2100 N   0  0  0  0  0  0  0  0  0  0  0  0
   46.6330   34.7470   41.8220 C   0  0  0  0  0  0  0  0  0  0  0  0
   47.8470   35.1040   41.7870 O   0  0  0  0  0  0  0  0  0  0  0  0
   45.3300   36.1260   43.3580 C   0  0  0  0  0  0  0  0  0  0  0  0
   45.9670   34.9130   43.0540 C   0  0  0  0  0  0  0  0  0  0  0  0
   45.8720   33.9360   44.0520 C   0  0  0  0  0  0  0  0  0  0  0  0
   45.2240   34.1480   45.2060 N   0  0  0  0  0  0  0  0  0  0  0  0
   44.6250   35.3510   45.4440 C   0  0  0  0  0  0  0  0  0  0  0  0
   44.6820   36.3250   44.5240 N   0  0  0  0  0  0  0  0  0  0  0  0
   46.4850   32.6930   43.8290 C   0  0  0  0  0  0  0  0  0  0  0  0
   47.7480   32.2040   44.0090 C   0  0  0  0  0  0  0  0  0  0  0  0
   48.0800   30.9550   43.7100 C   0  0  0  0  0  0  0  0  0  0  0  0
   47.0980   30.1570   43.2070 C   0  0  0  0  0  0  0  0  0  0  0  0
   45.6300   31.2860   43.1710 S   0  0  0  0  0  0  0  0  0  0  0  0
   43.7710   34.4180   41.1907 H   0  0  0  0  0  0  0  0  0  0  0  0
   43.4382   33.2923   38.8579 H   0  0  0  0  0  0  0  0  0  0  0  0
   43.5547   31.8177   37.4800 H   0  0  0  0  0  0  0  0  0  0  0  0
   49.6276   33.3230   35.4791 H   0  0  0  0  0  0  0  0  0  0  0  0
   45.5144   30.5361   33.2140 H   0  0  0  0  0  0  0  0  0  0  0  0
   47.0817   30.7740   32.3956 H   0  0  0  0  0  0  0  0  0  0  0  0
   45.3602   36.9417   42.6207 H   0  0  0  0  0  0  0  0  0  0  0  0
   44.0944   35.5220   46.3923 H   0  0  0  0  0  0  0  0  0  0  0  0
   48.5200   32.8724   44.4180 H   0  0  0  0  0  0  0  0  0  0  0  0
   49.1031   30.5806   43.8617 H   0  0  0  0  0  0  0  0  0  0  0  0
   47.1609   29.1030   42.8985 H   0  0  0  0  0  0  0  0  0  0  0  0
  1 16  1  0
  2  1  2  0
  3  2  1  0
  4  3  1  0
  4  5  2  0
  5  1  1  0
  6  4  1  0
  7  6  1  0
  8  7  2  0
  9  8  1  0
  9 14  2  0
 10 11  2  0
 10  9  1  0
 11 12  1  0
 12 13  2  0
 14 13  1  0
 14  6  1  0
 15 10  1  0
 16 19  1  0
 17 16  2  0
 18 23  2  0
 19 18  1  0
 19 20  2  0
 20 21  1  0
 21 22  2  0
 23 22  1  0
 24 25  2  0
 24 20  1  0
 26 25  1  0
 27 26  2  0
 28 27  1  0
 28 24  1  0
  2 29  1  0
  3 30  1  0
  7 31  1  0
 12 32  1  0
 15 33  1  0
 15 34  1  0
 18 35  1  0
 22 36  1  0
 25 37  1  0
 26 38  1  0
 27 39  1  0
M  ISO  8  29  14  30   9  31  14  32  14  35  14  36  14  37  14  38  14
M  ISO  1  39  14
M  END
>  <minimizedAffinity>  (1) 
-6.1586132

>  <minimizedRMSD>  (1) 
0.597767889

$$$$
