
     RDKit          3D

 46 50  0  0  0  0  0  0  0  0999 V2000
   48.3910   33.1210   41.3840 C   0  0  0  0  0  0  0  0  0  0  0  0
   47.9860   34.3270   41.8940 C   0  0  0  0  0  0  0  0  0  0  0  0
   48.8990   35.1280   42.5150 C   0  0  0  0  0  0  0  0  0  0  0  0
   50.2260   34.7160   42.6230 C   0  0  0  0  0  0  0  0  0  0  0  0
   50.5990   33.5000   42.1000 C   0  0  0  0  0  0  0  0  0  0  0  0
   49.6660   32.6710   41.4610 C   0  0  0  0  0  0  0  0  0  0  0  0
   46.5740   34.6850   41.7390 C   0  0  0  0  0  0  0  0  0  0  0  0
   45.9120   34.8470   43.0940 C   0  0  0  0  0  0  0  0  0  0  0  0
   46.0760   33.8190   44.0200 C   0  0  0  0  0  0  0  0  0  0  0  0
   45.4650   33.9950   45.2450 C   0  0  0  0  0  0  0  0  0  0  0  0
   44.7610   35.1190   45.4730 N   0  0  0  0  0  0  0  0  0  0  0  0
   44.6210   36.1000   44.5450 C   0  0  0  0  0  0  0  0  0  0  0  0
   45.2020   35.9480   43.3650 N   0  0  0  0  0  0  0  0  0  0  0  0
   47.5280   32.2300   40.7300 O   0  0  0  0  0  0  0  0  0  0  0  0
   50.1580   31.4590   40.9690 O   0  0  0  0  0  0  0  0  0  0  0  0
   50.4390   31.4580   39.6110 C   0  0  0  0  0  0  0  0  0  0  0  0
   51.7240   31.2180   39.1900 C   0  0  0  0  0  0  0  0  0  0  0  0
   52.0910   31.2000   37.8450 C   0  0  0  0  0  0  0  0  0  0  0  0
   51.1460   31.4250   36.9210 N   0  0  0  0  0  0  0  0  0  0  0  0
   49.8860   31.6600   37.3250 C   0  0  0  0  0  0  0  0  0  0  0  0
   49.5390   31.6770   38.6260 N   0  0  0  0  0  0  0  0  0  0  0  0
   48.8980   31.8970   36.3290 N   0  0  0  0  0  0  0  0  0  0  0  0
   49.1740   32.0000   35.0160 C   0  0  0  0  0  0  0  0  0  0  0  0
   48.0210   32.2260   34.3230 N   0  0  0  0  0  0  0  0  0  0  0  0
   47.0240   32.2620   35.2330 C   0  0  0  0  0  0  0  0  0  0  0  0
   45.6560   32.4460   35.2260 C   0  0  0  0  0  0  0  0  0  0  0  0
   44.9190   32.4230   36.3550 N   0  0  0  0  0  0  0  0  0  0  0  0
   45.4890   32.2200   37.5560 C   0  0  0  0  0  0  0  0  0  0  0  0
   46.8030   32.0420   37.5890 N   0  0  0  0  0  0  0  0  0  0  0  0
   47.5650   32.0580   36.4840 C   0  0  0  0  0  0  0  0  0  0  0  0
   45.0140   32.6640   33.9710 N   0  0  0  0  0  0  0  0  0  0  0  0
   48.5882   36.0981   42.9301 H   0  0  0  0  0  0  0  0  0  0  0  0
   50.9678   35.3572   43.1217 H   0  0  0  0  0  0  0  0  0  0  0  0
   51.6458   33.1726   42.1843 H   0  0  0  0  0  0  0  0  0  0  0  0
   46.5001   35.6325   41.1850 H   0  0  0  0  0  0  0  0  0  0  0  0
   46.0629   33.8813   41.1887 H   0  0  0  0  0  0  0  0  0  0  0  0
   46.6604   32.9166   43.7875 H   0  0  0  0  0  0  0  0  0  0  0  0
   45.5525   33.2253   46.0260 H   0  0  0  0  0  0  0  0  0  0  0  0
   44.0359   37.0041   44.7692 H   0  0  0  0  0  0  0  0  0  0  0  0
   46.5715   32.4596   40.6179 H   0  0  0  0  0  0  0  0  0  0  0  0
   52.4988   31.0315   39.9482 H   0  0  0  0  0  0  0  0  0  0  0  0
   53.1324   31.0056   37.5487 H   0  0  0  0  0  0  0  0  0  0  0  0
   50.1759   31.9150   34.5699 H   0  0  0  0  0  0  0  0  0  0  0  0
   44.8878   32.2022   38.4770 H   0  0  0  0  0  0  0  0  0  0  0  0
   43.9944   32.8047   33.9317 H   0  0  0  0  0  0  0  0  0  0  0  0
   45.5700   32.6807   33.1041 H   0  0  0  0  0  0  0  0  0  0  0  0
  1  6  2  0
  1  2  1  0
  2  3  2  0
  3  4  1  0
  5  4  2  0
  6  5  1  0
  7  2  1  0
  7  8  1  0
  8 13  1  0
  8  9  2  0
  9 10  1  0
 10 11  2  0
 12 11  1  0
 13 12  2  0
 14  1  1  0
 15  6  1  0
 16 15  1  0
 17 16  2  0
 18 17  1  0
 19 20  1  0
 19 18  2  0
 20 21  2  0
 21 16  1  0
 22 30  1  0
 22 20  1  0
 23 22  1  0
 24 23  2  0
 24 25  1  0
 25 30  2  0
 26 25  1  0
 26 27  2  0
 27 28  1  0
 28 29  2  0
 30 29  1  0
 31 26  1  0
  3 32  1  0
  4 33  1  0
  5 34  1  0
  7 35  1  0
  7 36  1  0
  9 37  1  0
 10 38  1  0
 12 39  1  0
 14 40  1  0
 17 41  1  0
 18 42  1  0
 23 43  1  0
 28 44  1  0
 31 45  1  0
 31 46  1  0
M  END
>  <minimizedAffinity>  (1) 
-7.63451052

>  <minimizedRMSD>  (1) 
1.63435435

$$$$
