
     RDKit          3D

 49 53  0  0  1  0  0  0  0  0999 V2000
   46.0500   35.2000   42.1510 C   0  0  0  0  0  0  0  0  0  0  0  0
   45.7500   33.0580   40.2620 F   0  0  0  0  0  0  0  0  0  0  0  0
   44.7360   33.8750   40.5160 C   0  0  0  0  0  0  0  0  0  0  0  0
   44.8070   34.9100   41.4130 C   0  0  0  0  0  0  0  0  0  0  0  0
   43.7020   35.7080   41.6450 C   0  0  0  0  0  0  0  0  0  0  0  0
   42.5560   35.4120   40.9380 C   0  0  0  0  0  0  0  0  0  0  0  0
   42.4160   34.3840   40.0170 C   0  0  0  0  0  0  0  0  0  0  0  0
   43.5530   33.5950   39.8060 C   0  0  0  0  0  0  0  0  0  0  0  0
   43.4640   32.5260   38.8700 N   0  0  0  0  0  0  0  0  0  0  0  0
   42.6430   31.4440   38.9830 C   0  0  0  0  0  0  0  0  0  0  0  0
   42.7780   30.6030   37.9500 N   0  0  0  0  0  0  0  0  0  0  0  0
   43.6980   31.1250   37.1340 C   0  0  0  0  0  0  0  0  0  0  0  0
   44.2860   30.7650   35.9210 C   0  0  0  0  0  0  0  0  0  0  0  0
   45.2290   31.5450   35.3300 N   0  0  0  0  0  0  0  0  0  0  0  0
   45.6080   32.6960   35.9260 C   0  0  0  0  0  0  0  0  0  0  0  0
   45.0550   33.0730   37.1040 N   0  0  0  0  0  0  0  0  0  0  0  0
   44.1230   32.3220   37.7090 C   0  0  0  0  0  0  0  0  0  0  0  0
   43.8440   29.5430   35.3450 N   0  0  0  0  0  0  0  0  0  0  0  0
   46.1660   34.4360   43.4200 C   0  0  0  0  0  0  0  0  0  0  0  0
   47.1330   33.4460   43.4800 C   0  0  0  0  0  0  0  0  0  0  0  0
   47.2400   32.7420   44.6950 C   0  0  0  0  0  0  0  0  0  0  0  0
   46.4110   33.0580   45.7220 N   0  0  0  0  0  0  0  0  0  0  0  0
   45.4920   34.0270   45.6070 C   0  0  0  0  0  0  0  0  0  0  0  0
   45.3810   34.6950   44.4750 N   0  0  0  0  0  0  0  0  0  0  0  0
   49.2200   34.0240   42.2420 C   0  0  2  0  0  0  0  0  0  0  0  0
   48.0000   33.0620   42.3330 C   0  0  1  0  0  0  0  0  0  0  0  0
   48.4420   31.7980   42.3210 O   0  0  0  0  0  0  0  0  0  0  0  0
   49.7960   31.7540   42.5270 C   0  0  0  0  0  0  0  0  0  0  0  0
   50.3020   32.9920   41.8470 C   0  0  1  0  0  0  0  0  0  0  0  0
   49.5460   34.6400   43.3810 O   0  0  0  0  0  0  0  0  0  0  0  0
   50.2810   32.7360   40.4940 O   0  0  0  0  0  0  0  0  0  0  0  0
   46.0753   36.2744   42.3856 H   0  0  0  0  0  0  0  0  0  0  0  0
   46.8907   34.8988   41.5087 H   0  0  0  0  0  0  0  0  0  0  0  0
   43.7357   36.5418   42.3617 H   0  0  0  0  0  0  0  0  0  0  0  0
   41.6759   36.0463   41.1201 H   0  0  0  0  0  0  0  0  0  0  0  0
   41.4705   34.2003   39.4856 H   0  0  0  0  0  0  0  0  0  0  0  0
   41.9517   31.2811   39.8230 H   0  0  0  0  0  0  0  0  0  0  0  0
   46.3706   33.3315   35.4520 H   0  0  0  0  0  0  0  0  0  0  0  0
   44.2403   29.2225   34.4499 H   0  0  0  0  0  0  0  0  0  0  0  0
   43.1274   28.9780   35.8227 H   0  0  0  0  0  0  0  0  0  0  0  0
   47.9881   31.9439   44.8105 H   0  0  0  0  0  0  0  0  0  0  0  0
   44.8321   34.2645   46.4544 H   0  0  0  0  0  0  0  0  0  0  0  0
   49.0549   34.8749   41.5647 H   0  0  0  0  0  0  0  0  0  0  0  0
   47.3388   33.1463   41.4579 H   0  0  0  0  0  0  0  0  0  0  0  0
   50.0297   31.7739   43.6017 H   0  0  0  0  0  0  0  0  0  0  0  0
   50.2562   30.8351   42.1349 H   0  0  0  0  0  0  0  0  0  0  0  0
   51.3170   33.3236   42.1112 H   0  0  0  0  0  0  0  0  0  0  0  0
   49.2542   34.0885   44.1496 H   0  0  0  0  0  0  0  0  0  0  0  0
   50.2010   31.7607   40.3439 H   0  0  0  0  0  0  0  0  0  0  0  0
  1 19  1  0
  2  3  1  0
  3  4  2  0
  4  5  1  0
  4  1  1  0
  6  5  2  0
  7  6  1  0
  8  7  2  0
  8  3  1  0
  9 10  1  0
  9  8  1  0
 11 10  2  0
 12 17  2  0
 12 11  1  0
 13 12  1  0
 14 13  2  0
 14 15  1  0
 15 16  2  0
 16 17  1  0
 17  9  1  0
 18 13  1  0
 19 20  1  0
 19 24  2  0
 20 21  2  0
 21 22  1  0
 23 22  2  0
 24 23  1  0
 25 26  1  0
 25 30  1  0
 26 20  1  0
 27 26  1  0
 27 28  1  0
 29 25  1  0
 29 28  1  0
 31 29  1  0
  1 32  1  0
  1 33  1  0
  5 34  1  0
  6 35  1  0
  7 36  1  0
 10 37  1  0
 15 38  1  0
 18 39  1  0
 18 40  1  0
 21 41  1  0
 23 42  1  0
 25 43  1  6
 26 44  1  6
 28 45  1  0
 28 46  1  0
 29 47  1  1
 30 48  1  0
 31 49  1  0
M  ISO  8  32   8  33   8  34  14  35  14  36  14  37  14  38  14  41  14
M  ISO  8  42  14  43  13  44  13  45  13  46  13  47  13  48   3  49   3
M  END
>  <minimizedAffinity>  (1) 
-6.48750591

>  <minimizedRMSD>  (1) 
0.193392649

$$$$
