
     RDKit          3D

 29 31  0  0  0  0  0  0  0  0999 V2000
   48.6930   34.2250   42.7820 C   0  0  0  0  0  0  0  0  0  0  0  0
   49.5040   33.3400   41.9400 N   0  0  0  0  0  0  0  0  0  0  0  0
   50.7620   33.0000   42.3060 C   0  0  0  0  0  0  0  0  0  0  0  0
   51.2390   32.1840   41.3300 N   0  0  0  0  0  0  0  0  0  0  0  0
   50.2810   32.0400   40.3960 C   0  0  0  0  0  0  0  0  0  0  0  0
   50.1640   31.3530   39.1960 C   0  0  0  0  0  0  0  0  0  0  0  0
   49.0240   31.4250   38.4780 N   0  0  0  0  0  0  0  0  0  0  0  0
   47.9560   32.1620   38.8950 C   0  0  0  0  0  0  0  0  0  0  0  0
   48.0120   32.8580   40.0650 N   0  0  0  0  0  0  0  0  0  0  0  0
   49.1520   32.7780   40.7690 C   0  0  0  0  0  0  0  0  0  0  0  0
   51.2840   30.5790   38.7580 N   0  0  0  0  0  0  0  0  0  0  0  0
   47.6410   33.4110   43.5310 C   0  0  0  0  0  0  0  0  0  0  0  0
   46.5060   34.2830   43.8390 C   0  0  0  0  0  0  0  0  0  0  0  0
   46.0600   35.2360   42.9360 C   0  0  0  0  0  0  0  0  0  0  0  0
   44.9590   36.0520   43.2860 C   0  0  0  0  0  0  0  0  0  0  0  0
   44.4060   35.8400   44.5010 N   0  0  0  0  0  0  0  0  0  0  0  0
   44.8690   34.8960   45.3630 C   0  0  0  0  0  0  0  0  0  0  0  0
   45.9190   34.1210   45.0230 N   0  0  0  0  0  0  0  0  0  0  0  0
   48.1927   34.9727   42.1490 H   0  0  0  0  0  0  0  0  0  0  0  0
   49.3454   34.7297   43.5097 H   0  0  0  0  0  0  0  0  0  0  0  0
   51.2932   33.3209   43.2142 H   0  0  0  0  0  0  0  0  0  0  0  0
   47.0427   32.1951   38.2828 H   0  0  0  0  0  0  0  0  0  0  0  0
   51.2336   30.0557   37.8723 H   0  0  0  0  0  0  0  0  0  0  0  0
   52.1410   30.5448   39.3283 H   0  0  0  0  0  0  0  0  0  0  0  0
   47.3045   32.5732   42.9027 H   0  0  0  0  0  0  0  0  0  0  0  0
   48.0693   33.0098   44.4614 H   0  0  0  0  0  0  0  0  0  0  0  0
   46.5554   35.3557   41.9612 H   0  0  0  0  0  0  0  0  0  0  0  0
   44.5715   36.8219   42.6025 H   0  0  0  0  0  0  0  0  0  0  0  0
   44.3851   34.7638   46.3419 H   0  0  0  0  0  0  0  0  0  0  0  0
  1 12  1  0
  2  3  1  0
  2  1  1  0
  4  3  2  0
  5 10  2  0
  5  4  1  0
  6  5  1  0
  7  8  1  0
  7  6  2  0
  8  9  2  0
  9 10  1  0
 10  2  1  0
 11  6  1  0
 12 13  1  0
 13 18  2  0
 14 15  2  0
 14 13  1  0
 15 16  1  0
 16 17  2  0
 18 17  1  0
  1 19  1  0
  1 20  1  0
  3 21  1  0
  8 22  1  0
 11 23  1  0
 11 24  1  0
 12 25  1  0
 12 26  1  0
 14 27  1  0
 15 28  1  0
 17 29  1  0
M  ISO  8  19   8  20   8  21  14  22  14  25   8  26   8  27  14  28  14
M  ISO  1  29  14
M  END
>  <minimizedAffinity>  (1) 
-4.42786074

>  <minimizedRMSD>  (1) 
2.17429709

$$$$
