
     RDKit          3D

 52 56  0  0  0  0  0  0  0  0999 V2000
   45.1470   32.9500   47.7270 C   0  0  0  0  0  0  0  0  0  0  0  0
   46.1520   32.0830   48.4090 C   0  0  0  0  0  0  0  0  0  0  0  0
   45.9020   31.1040   49.3260 C   0  0  0  0  0  0  0  0  0  0  0  0
   47.0870   30.5940   49.6630 N   0  0  0  0  0  0  0  0  0  0  0  0
   48.0840   31.1950   49.0080 C   0  0  0  0  0  0  0  0  0  0  0  0
   47.4850   32.1310   48.2200 N   0  0  0  0  0  0  0  0  0  0  0  0
   49.4850   31.0010   49.0330 N   0  0  0  0  0  0  0  0  0  0  0  0
   50.2780   31.7770   50.0080 C   0  0  0  0  0  0  0  0  0  0  0  0
   50.6250   30.7730   51.1060 C   0  0  0  0  0  0  0  0  0  0  0  0
   51.1600   29.5000   50.4940 C   0  0  0  0  0  0  0  0  0  0  0  0
   51.5700   29.7620   49.0540 C   0  0  0  0  0  0  0  0  0  0  0  0
   50.3490   30.1580   48.2650 C   0  0  0  0  0  0  0  0  0  0  0  0
   45.0370   34.2730   45.6510 C   0  0  0  0  0  0  0  0  0  0  0  0
   45.6020   33.3160   46.3650 C   0  0  0  0  0  0  0  0  0  0  0  0
   45.5790   34.5390   44.3160 C   0  0  0  0  0  0  0  0  0  0  0  0
   44.8060   35.1500   43.2990 C   0  0  0  0  0  0  0  0  0  0  0  0
   45.4240   35.3540   42.0700 C   0  0  0  0  0  0  0  0  0  0  0  0
   46.6950   34.9770   41.8850 N   0  0  0  0  0  0  0  0  0  0  0  0
   47.4180   34.3930   42.8730 C   0  0  0  0  0  0  0  0  0  0  0  0
   46.8630   34.1850   44.0520 N   0  0  0  0  0  0  0  0  0  0  0  0
   48.7510   34.0510   42.5250 N   0  0  0  0  0  0  0  0  0  0  0  0
   49.8730   34.8100   42.6600 C   0  0  0  0  0  0  0  0  0  0  0  0
   50.9420   34.1140   42.2100 N   0  0  0  0  0  0  0  0  0  0  0  0
   50.5090   32.9030   41.7830 C   0  0  0  0  0  0  0  0  0  0  0  0
   51.1510   31.8000   41.2320 C   0  0  0  0  0  0  0  0  0  0  0  0
   50.4020   30.7130   40.9060 N   0  0  0  0  0  0  0  0  0  0  0  0
   49.0830   30.6790   41.0960 C   0  0  0  0  0  0  0  0  0  0  0  0
   48.4650   31.7580   41.6330 N   0  0  0  0  0  0  0  0  0  0  0  0
   49.1330   32.8650   41.9810 C   0  0  0  0  0  0  0  0  0  0  0  0
   52.5590   31.8170   41.0200 N   0  0  0  0  0  0  0  0  0  0  0  0
   44.1931   32.4070   47.6543 H   0  0  0  0  0  0  0  0  0  0  0  0
   45.0208   33.8712   48.3148 H   0  0  0  0  0  0  0  0  0  0  0  0
   44.9184   30.7966   49.7108 H   0  0  0  0  0  0  0  0  0  0  0  0
   47.2173   29.8318   50.3434 H   0  0  0  0  0  0  0  0  0  0  0  0
   51.1916   32.1717   49.5395 H   0  0  0  0  0  0  0  0  0  0  0  0
   49.7279   32.6470   50.3960 H   0  0  0  0  0  0  0  0  0  0  0  0
   51.3884   31.2073   51.7683 H   0  0  0  0  0  0  0  0  0  0  0  0
   49.7174   30.5418   51.6828 H   0  0  0  0  0  0  0  0  0  0  0  0
   52.0339   29.1569   51.0672 H   0  0  0  0  0  0  0  0  0  0  0  0
   50.3787   28.7260   50.5172 H   0  0  0  0  0  0  0  0  0  0  0  0
   52.3101   30.5752   49.0226 H   0  0  0  0  0  0  0  0  0  0  0  0
   52.0157   28.8541   48.6216 H   0  0  0  0  0  0  0  0  0  0  0  0
   49.7994   29.2502   47.9755 H   0  0  0  0  0  0  0  0  0  0  0  0
   50.6763   30.7151   47.3748 H   0  0  0  0  0  0  0  0  0  0  0  0
   44.1881   34.8508   46.0454 H   0  0  0  0  0  0  0  0  0  0  0  0
   46.4487   32.7657   45.9288 H   0  0  0  0  0  0  0  0  0  0  0  0
   43.7622   35.4502   43.4735 H   0  0  0  0  0  0  0  0  0  0  0  0
   44.8668   35.8265   41.2476 H   0  0  0  0  0  0  0  0  0  0  0  0
   49.9053   35.8299   43.0708 H   0  0  0  0  0  0  0  0  0  0  0  0
   48.5036   29.7856   40.8201 H   0  0  0  0  0  0  0  0  0  0  0  0
   53.0282   30.9962   40.6113 H   0  0  0  0  0  0  0  0  0  0  0  0
   53.1082   32.6501   41.2754 H   0  0  0  0  0  0  0  0  0  0  0  0
  1  2  1  0
  2  3  2  0
  3  4  1  0
  5  7  1  0
  5  4  1  0
  6  2  1  0
  6  5  2  0
  7  8  1  0
  8  9  1  0
 10  9  1  0
 11 10  1  0
 12  7  1  0
 12 11  1  0
 13 14  2  0
 14  1  1  0
 15 13  1  0
 16 15  2  0
 17 16  1  0
 18 17  2  0
 18 19  1  0
 19 20  2  0
 20 15  1  0
 21 22  1  0
 21 19  1  0
 23 22  2  0
 24 29  2  0
 24 23  1  0
 25 24  1  0
 26 27  1  0
 26 25  2  0
 27 28  2  0
 28 29  1  0
 29 21  1  0
 30 25  1  0
  1 31  1  0
  1 32  1  0
  3 33  1  0
  4 34  1  0
  8 35  1  0
  8 36  1  0
  9 37  1  0
  9 38  1  0
 10 39  1  0
 10 40  1  0
 11 41  1  0
 11 42  1  0
 12 43  1  0
 12 44  1  0
 13 45  1  0
 14 46  1  0
 16 47  1  0
 17 48  1  0
 22 49  1  0
 27 50  1  0
 30 51  1  0
 30 52  1  0
M  ISO  8  31   8  32   8  33  14  34   9  35  13  36  13  37  13  38  13
M  ISO  8  39  13  40  13  41  13  42  13  43  13  44  13  47  14  48  14
M  ISO  2  49  14  50  14
M  END
>  <minimizedAffinity>  (1) 
-7.45039129

>  <minimizedRMSD>  (1) 
1.76384163

$$$$
