
     RDKit          3D

 43 46  0  0  0  0  0  0  0  0999 V2000
   48.3860   33.0230   41.7080 C   0  0  0  0  0  0  0  0  0  0  0  0
   47.8610   34.2540   42.0080 C   0  0  0  0  0  0  0  0  0  0  0  0
   48.6930   35.2470   42.4310 C   0  0  0  0  0  0  0  0  0  0  0  0
   50.0560   34.9980   42.5510 C   0  0  0  0  0  0  0  0  0  0  0  0
   50.5490   33.7520   42.2420 C   0  0  0  0  0  0  0  0  0  0  0  0
   49.7040   32.7240   41.8080 C   0  0  0  0  0  0  0  0  0  0  0  0
   46.4080   34.4230   41.8500 C   0  0  0  0  0  0  0  0  0  0  0  0
   45.7680   34.7590   43.1810 C   0  0  0  0  0  0  0  0  0  0  0  0
   45.8720   33.8260   44.2110 C   0  0  0  0  0  0  0  0  0  0  0  0
   45.2840   34.1600   45.4090 C   0  0  0  0  0  0  0  0  0  0  0  0
   44.6540   35.3380   45.5260 N   0  0  0  0  0  0  0  0  0  0  0  0
   44.5700   36.2330   44.4980 C   0  0  0  0  0  0  0  0  0  0  0  0
   45.1300   35.9240   43.3400 N   0  0  0  0  0  0  0  0  0  0  0  0
   47.6120   31.9380   41.2660 O   0  0  0  0  0  0  0  0  0  0  0  0
   50.3180   31.4990   41.5230 O   0  0  0  0  0  0  0  0  0  0  0  0
   50.9760   31.4640   40.2970 C   0  0  0  0  0  0  0  0  0  0  0  0
   52.3510   31.3540   40.2960 C   0  0  0  0  0  0  0  0  0  0  0  0
   53.0990   31.3120   39.1130 C   0  0  0  0  0  0  0  0  0  0  0  0
   52.4610   31.3800   37.9510 N   0  0  0  0  0  0  0  0  0  0  0  0
   51.1190   31.4890   37.9490 C   0  0  0  0  0  0  0  0  0  0  0  0
   50.4090   31.5290   39.0890 N   0  0  0  0  0  0  0  0  0  0  0  0
   48.7750   33.4310   38.0050 Cl  0  0  0  0  0  0  0  0  0  0  0  0
   49.2640   32.4460   36.6700 C   0  0  0  0  0  0  0  0  0  0  0  0
   50.3450   31.5710   36.6910 C   0  0  0  0  0  0  0  0  0  0  0  0
   50.6540   30.8280   35.5780 C   0  0  0  0  0  0  0  0  0  0  0  0
   49.9440   30.8940   34.4010 C   0  0  0  0  0  0  0  0  0  0  0  0
   48.8700   31.7560   34.3630 C   0  0  0  0  0  0  0  0  0  0  0  0
   47.9520   31.8530   32.8710 Cl  0  0  0  0  0  0  0  0  0  0  0  0
   48.5410   32.5130   35.4740 C   0  0  0  0  0  0  0  0  0  0  0  0
   48.2887   36.2402   42.6762 H   0  0  0  0  0  0  0  0  0  0  0  0
   50.7358   35.7931   42.8911 H   0  0  0  0  0  0  0  0  0  0  0  0
   51.6278   33.5596   42.3377 H   0  0  0  0  0  0  0  0  0  0  0  0
   46.2132   35.2385   41.1380 H   0  0  0  0  0  0  0  0  0  0  0  0
   45.9780   33.4827   41.4744 H   0  0  0  0  0  0  0  0  0  0  0  0
   46.3982   32.8699   44.0729 H   0  0  0  0  0  0  0  0  0  0  0  0
   45.3302   33.4676   46.2625 H   0  0  0  0  0  0  0  0  0  0  0  0
   44.0471   37.1917   44.6302 H   0  0  0  0  0  0  0  0  0  0  0  0
   46.6335   32.0404   41.1554 H   0  0  0  0  0  0  0  0  0  0  0  0
   52.8790   31.2972   41.2593 H   0  0  0  0  0  0  0  0  0  0  0  0
   54.1950   31.2243   39.1460 H   0  0  0  0  0  0  0  0  0  0  0  0
   51.5141   30.1443   35.6301 H   0  0  0  0  0  0  0  0  0  0  0  0
   50.2220   30.2848   33.5283 H   0  0  0  0  0  0  0  0  0  0  0  0
   47.6785   33.1931   35.4144 H   0  0  0  0  0  0  0  0  0  0  0  0
  1  6  2  0
  1  2  1  0
  2  3  2  0
  3  4  1  0
  5  4  2  0
  6  5  1  0
  7  2  1  0
  7  8  1  0
  8 13  1  0
  8  9  2  0
  9 10  1  0
 10 11  2  0
 12 11  1  0
 13 12  2  0
 14  1  1  0
 15  6  1  0
 16 15  1  0
 17 16  2  0
 18 17  1  0
 19 18  2  0
 20 19  1  0
 20 21  2  0
 21 16  1  0
 23 24  2  0
 23 22  1  0
 24 20  1  0
 25 24  1  0
 26 25  2  0
 27 26  1  0
 27 29  2  0
 28 27  1  0
 29 23  1  0
  3 30  1  0
  4 31  1  0
  5 32  1  0
  7 33  1  0
  7 34  1  0
  9 35  1  0
 10 36  1  0
 12 37  1  0
 14 38  1  0
 17 39  1  0
 18 40  1  0
 25 41  1  0
 26 42  1  0
 29 43  1  0
M  ISO  8  30  14  31  14  32  14  33   8  34   8  35  14  36  14  37  14
M  ISO  6  38   3  39  14  40  14  41  14  42  14  43  14
M  END
>  <minimizedAffinity>  (1) 
-6.28824711

>  <minimizedRMSD>  (1) 
0.693526506

$$$$
