
     RDKit          3D

 23 24  0  0  0  0  0  0  0  0999 V2000
   47.6670   35.0790   42.2520 C   0  0  0  0  0  0  0  0  0  0  0  0
   47.9090   34.0840   43.2220 C   0  0  0  0  0  0  0  0  0  0  0  0
   46.8440   33.6560   44.0140 C   0  0  0  0  0  0  0  0  0  0  0  0
   45.6370   34.2280   43.8000 N   0  0  0  0  0  0  0  0  0  0  0  0
   45.4290   35.1730   42.8740 C   0  0  0  0  0  0  0  0  0  0  0  0
   46.4420   35.5980   42.1000 N   0  0  0  0  0  0  0  0  0  0  0  0
   47.5590   31.0160   42.9510 Cl  0  0  0  0  0  0  0  0  0  0  0  0
   47.3470   31.3550   44.6510 C   0  0  0  0  0  0  0  0  0  0  0  0
   47.0110   32.6370   45.0320 C   0  0  0  0  0  0  0  0  0  0  0  0
   46.8620   32.8240   46.3910 C   0  0  0  0  0  0  0  0  0  0  0  0
   47.0440   31.7790   47.2940 C   0  0  0  0  0  0  0  0  0  0  0  0
   47.3810   30.5110   46.8660 C   0  0  0  0  0  0  0  0  0  0  0  0
   47.6050   29.2140   48.0060 Cl  0  0  0  0  0  0  0  0  0  0  0  0
   47.5350   30.2980   45.5120 C   0  0  0  0  0  0  0  0  0  0  0  0
   48.8410   35.5010   41.4320 C   0  0  0  0  0  0  0  0  0  0  0  0
   48.5780   35.4440   40.0880 F   0  0  0  0  0  0  0  0  0  0  0  0
   49.1950   36.7920   41.8240 F   0  0  0  0  0  0  0  0  0  0  0  0
   49.9400   34.7090   41.7390 F   0  0  0  0  0  0  0  0  0  0  0  0
   48.9140   33.6558   43.3507 H   0  0  0  0  0  0  0  0  0  0  0  0
   44.4246   35.6031   42.7465 H   0  0  0  0  0  0  0  0  0  0  0  0
   46.5934   33.8211   46.7700 H   0  0  0  0  0  0  0  0  0  0  0  0
   46.9165   31.9684   48.3701 H   0  0  0  0  0  0  0  0  0  0  0  0
   47.8029   29.3027   45.1279 H   0  0  0  0  0  0  0  0  0  0  0  0
  1  2  2  0
  2  3  1  0
  3  9  1  0
  4  3  2  0
  5  4  1  0
  6  1  1  0
  6  5  2  0
  7  8  1  0
  8  9  2  0
  8 14  1  0
  9 10  1  0
 10 11  2  0
 12 11  1  0
 12 13  1  0
 14 12  2  0
 15 18  1  0
 15 17  1  0
 15  1  1  0
 16 15  1  0
  2 19  1  0
  5 20  1  0
 10 21  1  0
 11 22  1  0
 14 23  1  0
M  ISO  5  19  14  20  14  21  14  22  14  23  14
M  END
>  <minimizedAffinity>  (1) 
-5.21460724

>  <minimizedRMSD>  (1) 
0.244945377

$$$$
