
     RDKit          3D

 43 45  0  0  0  0  0  0  0  0999 V2000
   44.1220   35.6070   42.3800 C   0  0  0  0  0  0  0  0  0  0  0  0
   43.8420   35.0220   41.1240 C   0  0  0  0  0  0  0  0  0  0  0  0
   44.7560   34.1190   40.6230 C   0  0  0  0  0  0  0  0  0  0  0  0
   45.8620   33.8540   41.3690 N   0  0  0  0  0  0  0  0  0  0  0  0
   46.1020   34.4280   42.5640 C   0  0  0  0  0  0  0  0  0  0  0  0
   45.2230   35.3000   43.0540 N   0  0  0  0  0  0  0  0  0  0  0  0
   47.3020   34.1310   43.3610 C   0  0  0  0  0  0  0  0  0  0  0  0
   46.9380   33.3950   44.6120 C   0  0  0  0  0  0  0  0  0  0  0  0
   46.3910   31.7810   47.1610 Cl  0  0  0  0  0  0  0  0  0  0  0  0
   47.2150   31.1550   45.7520 C   0  0  0  0  0  0  0  0  0  0  0  0
   47.3840   32.0040   44.6850 C   0  0  0  0  0  0  0  0  0  0  0  0
   48.0430   31.5040   43.5580 C   0  0  0  0  0  0  0  0  0  0  0  0
   48.4930   30.1970   43.5560 C   0  0  0  0  0  0  0  0  0  0  0  0
   48.3020   29.3780   44.6500 C   0  0  0  0  0  0  0  0  0  0  0  0
   48.9060   27.7440   44.5510 Cl  0  0  0  0  0  0  0  0  0  0  0  0
   47.6460   29.8440   45.7950 C   0  0  0  0  0  0  0  0  0  0  0  0
   42.6180   35.3750   40.3950 C   0  0  0  0  0  0  0  0  0  0  0  0
   41.4800   35.6970   40.9670 C   0  0  0  0  0  0  0  0  0  0  0  0
   40.2500   36.0530   40.2090 C   0  0  0  0  0  0  0  0  0  0  0  0
   40.3100   35.5010   37.4610 F   0  0  0  0  0  0  0  0  0  0  0  0
   39.6650   34.6420   38.2690 C   0  0  0  0  0  0  0  0  0  0  0  0
   39.6130   34.8790   39.6300 C   0  0  0  0  0  0  0  0  0  0  0  0
   38.9260   33.9280   40.3440 C   0  0  0  0  0  0  0  0  0  0  0  0
   38.3040   32.7970   39.8440 C   0  0  0  0  0  0  0  0  0  0  0  0
   38.4080   32.6410   38.4680 C   0  0  0  0  0  0  0  0  0  0  0  0
   39.0760   33.5350   37.6530 C   0  0  0  0  0  0  0  0  0  0  0  0
   43.4129   36.3313   42.8073 H   0  0  0  0  0  0  0  0  0  0  0  0
   44.5957   33.6288   39.6514 H   0  0  0  0  0  0  0  0  0  0  0  0
   47.9875   33.5114   42.7642 H   0  0  0  0  0  0  0  0  0  0  0  0
   47.7865   35.0792   43.6371 H   0  0  0  0  0  0  0  0  0  0  0  0
   47.3791   33.9359   45.4622 H   0  0  0  0  0  0  0  0  0  0  0  0
   45.8387   33.3574   44.6273 H   0  0  0  0  0  0  0  0  0  0  0  0
   48.2023   32.1460   42.6791 H   0  0  0  0  0  0  0  0  0  0  0  0
   49.0112   29.8039   42.6689 H   0  0  0  0  0  0  0  0  0  0  0  0
   47.4837   29.2049   46.6754 H   0  0  0  0  0  0  0  0  0  0  0  0
   42.6561   35.3696   39.2957 H   0  0  0  0  0  0  0  0  0  0  0  0
   41.4339   35.7038   42.0660 H   0  0  0  0  0  0  0  0  0  0  0  0
   39.5402   36.5429   40.8918 H   0  0  0  0  0  0  0  0  0  0  0  0
   40.5373   36.7261   39.3878 H   0  0  0  0  0  0  0  0  0  0  0  0
   38.8632   34.0818   41.4314 H   0  0  0  0  0  0  0  0  0  0  0  0
   37.7704   32.0797   40.4849 H   0  0  0  0  0  0  0  0  0  0  0  0
   37.9355   31.7627   38.0040 H   0  0  0  0  0  0  0  0  0  0  0  0
   39.1412   33.3816   36.5657 H   0  0  0  0  0  0  0  0  0  0  0  0
  1  6  2  0
  2  1  1  0
  3  2  2  0
  3  4  1  0
  4  5  2  0
  5  6  1  0
  5  7  1  0
  7  8  1  0
  8 11  1  0
 10 16  2  0
 10  9  1  0
 11 10  1  0
 12 11  2  0
 13 12  1  0
 13 14  2  0
 14 16  1  0
 15 14  1  0
 17 18  2  0
 17  2  1  0
 19 18  1  0
 20 21  1  0
 21 22  2  0
 22 19  1  0
 22 23  1  0
 24 23  2  0
 25 24  1  0
 26 21  1  0
 26 25  2  0
  1 27  1  0
  3 28  1  0
  7 29  1  0
  7 30  1  0
  8 31  1  0
  8 32  1  0
 12 33  1  0
 13 34  1  0
 16 35  1  0
 17 36  1  0
 18 37  1  0
 19 38  1  0
 19 39  1  0
 23 40  1  0
 24 41  1  0
 25 42  1  0
 26 43  1  0
M  ISO  8  27  14  28  14  29   8  30   8  31   8  32   8  33  14  34  14
M  ISO  7  35  14  38   8  39   8  40  14  41  14  42  14  43  14
M  END
>  <minimizedAffinity>  (1) 
-6.19292641

>  <minimizedRMSD>  (1) 
2.81071329

$$$$
