
     RDKit          3D

 30 32  0  0  0  0  0  0  0  0999 V2000
   48.7790   35.3900   41.0200 C   0  0  0  0  0  0  0  0  0  0  0  0
   48.2470   34.8170   39.8440 C   0  0  0  0  0  0  0  0  0  0  0  0
   47.1650   33.9380   39.9660 C   0  0  0  0  0  0  0  0  0  0  0  0
   46.7040   33.7020   41.2160 N   0  0  0  0  0  0  0  0  0  0  0  0
   47.2140   34.2490   42.3200 C   0  0  0  0  0  0  0  0  0  0  0  0
   48.2630   35.1030   42.2320 N   0  0  0  0  0  0  0  0  0  0  0  0
   44.9500   36.0210   43.3300 Cl  0  0  0  0  0  0  0  0  0  0  0  0
   45.6630   34.6930   44.2000 C   0  0  0  0  0  0  0  0  0  0  0  0
   46.6850   33.9620   43.6370 C   0  0  0  0  0  0  0  0  0  0  0  0
   47.1720   32.9290   44.4260 C   0  0  0  0  0  0  0  0  0  0  0  0
   46.7100   32.6110   45.6840 C   0  0  0  0  0  0  0  0  0  0  0  0
   45.6910   33.3720   46.1980 C   0  0  0  0  0  0  0  0  0  0  0  0
   45.1520   32.9130   47.8050 Cl  0  0  0  0  0  0  0  0  0  0  0  0
   45.1650   34.4070   45.4680 C   0  0  0  0  0  0  0  0  0  0  0  0
   48.5090   34.5690   37.4290 Cl  0  0  0  0  0  0  0  0  0  0  0  0
   47.1040   33.5300   37.5660 C   0  0  0  0  0  0  0  0  0  0  0  0
   46.5530   33.3030   38.8080 C   0  0  0  0  0  0  0  0  0  0  0  0
   45.4630   32.4860   38.8510 C   0  0  0  0  0  0  0  0  0  0  0  0
   44.9420   31.9190   37.7010 C   0  0  0  0  0  0  0  0  0  0  0  0
   45.4800   32.1370   36.4610 C   0  0  0  0  0  0  0  0  0  0  0  0
   44.7830   31.3970   35.0410 Cl  0  0  0  0  0  0  0  0  0  0  0  0
   46.5800   32.9610   36.4250 C   0  0  0  0  0  0  0  0  0  0  0  0
   49.6299   36.0831   40.9458 H   0  0  0  0  0  0  0  0  0  0  0  0
   48.6720   35.0554   38.8578 H   0  0  0  0  0  0  0  0  0  0  0  0
   47.9891   32.3178   44.0153 H   0  0  0  0  0  0  0  0  0  0  0  0
   47.1426   31.7768   46.2559 H   0  0  0  0  0  0  0  0  0  0  0  0
   44.3473   35.0128   45.8856 H   0  0  0  0  0  0  0  0  0  0  0  0
   44.9875   32.2728   39.8197 H   0  0  0  0  0  0  0  0  0  0  0  0
   44.0602   31.2670   37.7867 H   0  0  0  0  0  0  0  0  0  0  0  0
   47.0564   33.1726   35.4564 H   0  0  0  0  0  0  0  0  0  0  0  0
  1  6  2  0
  2  3  2  0
  2  1  1  0
  3  4  1  0
  4  5  2  0
  5  9  1  0
  6  5  1  0
  7  8  1  0
  8 14  2  0
  9  8  1  0
  9 10  2  0
 10 11  1  0
 11 12  2  0
 12 13  1  0
 14 12  1  0
 15 16  1  0
 16 17  2  0
 17 18  1  0
 17  3  1  0
 19 18  2  0
 20 19  1  0
 21 20  1  0
 22 20  2  0
 22 16  1  0
  1 23  1  0
  2 24  1  0
 10 25  1  0
 11 26  1  0
 14 27  1  0
 18 28  1  0
 19 29  1  0
 22 30  1  0
M  ISO  8  23  14  24  14  25  14  26  14  27  14  28  14  29  14  30  14
M  END
>  <minimizedAffinity>  (1) 
-6.13240242

>  <minimizedRMSD>  (1) 
0.224463016

$$$$
