
     RDKit          3D

 38 40  0  0  0  0  0  0  0  0999 V2000
   45.7440   34.0870   45.1130 C   0  0  0  0  0  0  0  0  0  0  0  0
   44.8020   35.0510   45.3440 C   0  0  0  0  0  0  0  0  0  0  0  0
   44.4680   36.0610   44.4670 C   0  0  0  0  0  0  0  0  0  0  0  0
   45.1200   36.1200   43.2640 C   0  0  0  0  0  0  0  0  0  0  0  0
   46.0700   35.1790   42.9870 C   0  0  0  0  0  0  0  0  0  0  0  0
   46.3840   34.1680   43.9000 C   0  0  0  0  0  0  0  0  0  0  0  0
   47.3300   31.1490   46.5950 C   0  0  0  0  0  0  0  0  0  0  0  0
   46.7020   31.0380   47.8410 C   0  0  0  0  0  0  0  0  0  0  0  0
   45.7370   31.9800   48.1590 C   0  0  0  0  0  0  0  0  0  0  0  0
   45.4200   32.9690   47.2830 N   0  0  0  0  0  0  0  0  0  0  0  0
   46.0540   33.0460   46.0730 C   0  0  0  0  0  0  0  0  0  0  0  0
   46.9930   32.1300   45.7650 N   0  0  0  0  0  0  0  0  0  0  0  0
   47.3880   33.2770   43.4540 N   0  0  0  0  0  0  0  0  0  0  0  0
   48.8270   33.4990   42.5520 S   0  0  0  0  0  0  0  0  0  0  0  0
   48.4510   34.1040   41.2090 O   0  0  0  0  0  0  0  0  0  0  0  0
   49.8320   34.3780   43.2110 O   0  0  0  0  0  0  0  0  0  0  0  0
   49.4130   31.9540   42.2160 O   0  0  0  0  0  0  0  0  0  0  0  0
   47.9870   31.2000   39.6560 Cl  0  0  0  0  0  0  0  0  0  0  0  0
   49.7170   31.3580   39.8160 C   0  0  0  0  0  0  0  0  0  0  0  0
   50.1510   31.7080   41.0650 C   0  0  0  0  0  0  0  0  0  0  0  0
   51.5160   31.8580   41.2880 C   0  0  0  0  0  0  0  0  0  0  0  0
   52.4270   31.6550   40.2620 C   0  0  0  0  0  0  0  0  0  0  0  0
   51.9920   31.3000   38.9960 C   0  0  0  0  0  0  0  0  0  0  0  0
   53.1130   31.0360   37.6720 Cl  0  0  0  0  0  0  0  0  0  0  0  0
   50.6370   31.1600   38.8040 C   0  0  0  0  0  0  0  0  0  0  0  0
   44.2686   35.0180   46.3055 H   0  0  0  0  0  0  0  0  0  0  0  0
   43.6969   36.8011   44.7270 H   0  0  0  0  0  0  0  0  0  0  0  0
   44.8832   36.9095   42.5356 H   0  0  0  0  0  0  0  0  0  0  0  0
   46.6001   35.2174   42.0239 H   0  0  0  0  0  0  0  0  0  0  0  0
   48.1033   30.4233   46.3028 H   0  0  0  0  0  0  0  0  0  0  0  0
   46.9650   30.2323   48.5422 H   0  0  0  0  0  0  0  0  0  0  0  0
   45.2227   31.9267   49.1299 H   0  0  0  0  0  0  0  0  0  0  0  0
   47.2200   32.2980   43.7264 H   0  0  0  0  0  0  0  0  0  0  0  0
   47.9341   34.9357   41.3548 H   0  0  0  0  0  0  0  0  0  0  0  0
   49.7438   34.3008   44.1940 H   0  0  0  0  0  0  0  0  0  0  0  0
   51.8764   32.1405   42.2881 H   0  0  0  0  0  0  0  0  0  0  0  0
   53.5030   31.7769   40.4553 H   0  0  0  0  0  0  0  0  0  0  0  0
   50.2713   30.8793   37.8053 H   0  0  0  0  0  0  0  0  0  0  0  0
  1  2  2  0
  1 11  1  0
  3  2  1  0
  4  3  2  0
  5  4  1  0
  5  6  2  0
  6  1  1  0
  7  8  2  0
  8  9  1  0
 10  9  2  0
 11 10  1  0
 12 11  2  0
 12  7  1  0
 13  6  1  0
 14 16  1  0
 14 13  1  0
 15 14  1  0
 17 14  1  0
 18 19  1  0
 19 20  2  0
 20 21  1  0
 20 17  1  0
 22 21  2  0
 23 22  1  0
 24 23  1  0
 25 23  2  0
 25 19  1  0
  2 26  1  0
  3 27  1  0
  4 28  1  0
  5 29  1  0
  7 30  1  0
  8 31  1  0
  9 32  1  0
 13 33  1  0
 15 34  1  0
 16 35  1  0
 21 36  1  0
 22 37  1  0
 25 38  1  0
M  ISO  8  26  14  27  14  28  14  29  14  30  14  31  14  32  14  34   3
M  ISO  4  35   3  36  14  37  14  38  14
M  END
>  <minimizedAffinity>  (1) 
-5.97910166

>  <minimizedRMSD>  (1) 
3.00967503

$$$$
