
     RDKit          3D

 30 32  0  0  1  0  0  0  0  0999 V2000
   44.8360   34.4440   43.3890 C   0  0  1  0  0  0  0  0  0  0  0  0
   45.5460   35.8150   43.2340 C   0  0  0  0  0  0  0  0  0  0  0  0
   45.1840   34.9860   42.0810 C   0  0  1  0  0  0  0  0  0  0  0  0
   48.2810   35.6200   41.9790 Cl  0  0  0  0  0  0  0  0  0  0  0  0
   47.4210   34.5780   40.8740 C   0  0  0  0  0  0  0  0  0  0  0  0
   46.0750   34.4220   41.0890 C   0  0  0  0  0  0  0  0  0  0  0  0
   45.5070   33.5640   40.1290 C   0  0  0  0  0  0  0  0  0  0  0  0
   46.2070   32.9610   39.1090 C   0  0  0  0  0  0  0  0  0  0  0  0
   47.5610   33.1760   38.9700 C   0  0  0  0  0  0  0  0  0  0  0  0
   48.3990   32.3960   37.6740 Cl  0  0  0  0  0  0  0  0  0  0  0  0
   48.1730   34.0080   39.8820 C   0  0  0  0  0  0  0  0  0  0  0  0
   45.6590   33.4130   44.0860 C   0  0  0  0  0  0  0  0  0  0  0  0
   46.4080   32.5180   43.3200 C   0  0  0  0  0  0  0  0  0  0  0  0
   47.1840   31.6010   43.9880 C   0  0  0  0  0  0  0  0  0  0  0  0
   47.1860   31.6080   45.3450 N   0  0  0  0  0  0  0  0  0  0  0  0
   46.4520   32.4820   46.0500 C   0  0  0  0  0  0  0  0  0  0  0  0
   45.6760   33.3990   45.4190 N   0  0  0  0  0  0  0  0  0  0  0  0
   46.5940   32.3320   47.5360 C   0  0  0  0  0  0  0  0  0  0  0  0
   45.5430   32.9200   48.2140 F   0  0  0  0  0  0  0  0  0  0  0  0
   47.7770   32.9360   47.9670 F   0  0  0  0  0  0  0  0  0  0  0  0
   46.7090   30.9810   47.8440 F   0  0  0  0  0  0  0  0  0  0  0  0
   43.9012   34.0213   43.7859 H   0  0  0  0  0  0  0  0  0  0  0  0
   45.0028   36.7491   43.4399 H   0  0  0  0  0  0  0  0  0  0  0  0
   46.4676   36.2765   43.6183 H   0  0  0  0  0  0  0  0  0  0  0  0
   44.6092   35.1663   41.1606 H   0  0  0  0  0  0  0  0  0  0  0  0
   44.4281   33.3611   40.1988 H   0  0  0  0  0  0  0  0  0  0  0  0
   45.6824   32.3033   38.4003 H   0  0  0  0  0  0  0  0  0  0  0  0
   49.2518   34.2116   39.8139 H   0  0  0  0  0  0  0  0  0  0  0  0
   46.3782   32.5456   42.2208 H   0  0  0  0  0  0  0  0  0  0  0  0
   47.7933   30.8735   43.4318 H   0  0  0  0  0  0  0  0  0  0  0  0
  1 12  1  0
  2  1  1  0
  3  2  1  0
  3  1  1  0
  5  6  2  0
  5  4  1  0
  6  3  1  0
  7  6  1  0
  8  7  2  0
  9  8  1  0
  9 11  2  0
 10  9  1  0
 11  5  1  0
 12 17  2  0
 13 14  2  0
 13 12  1  0
 14 15  1  0
 15 16  2  0
 16 18  1  0
 17 16  1  0
 18 21  1  0
 18 20  1  0
 18 19  1  0
  1 22  1  6
  2 23  1  0
  2 24  1  0
  3 25  1  6
  7 26  1  0
  8 27  1  0
 11 28  1  0
 13 29  1  0
 14 30  1  0
M  ISO  8  22  13  23  13  24  13  25  13  26  14  27  14  28  14  29  14
M  ISO  1  30  14
M  END
>  <minimizedAffinity>  (1) 
-5.36200428

>  <minimizedRMSD>  (1) 
1.98136044

$$$$
