
     RDKit          3D

 35 37  0  0  1  0  0  0  0  0999 V2000
   44.4670   35.9290   45.0110 C   0  0  0  0  0  0  0  0  0  0  0  0
   45.0510   35.8860   43.7370 C   0  0  0  0  0  0  0  0  0  0  0  0
   45.8810   34.8500   43.4240 C   0  0  0  0  0  0  0  0  0  0  0  0
   46.0820   33.9190   44.3900 N   0  0  0  0  0  0  0  0  0  0  0  0
   45.5280   33.9650   45.5930 C   0  0  0  0  0  0  0  0  0  0  0  0
   44.7180   34.9630   45.9200 N   0  0  0  0  0  0  0  0  0  0  0  0
   45.8210   32.9240   46.5220 N   0  0  0  0  0  0  0  0  0  0  0  0
   45.0770   32.6720   47.7420 C   0  0  0  0  0  0  0  0  0  0  0  0
   46.1930   32.2640   48.6920 C   0  0  0  0  0  0  0  0  0  0  0  0
   47.4210   32.0440   47.8700 C   0  0  0  0  0  0  0  0  0  0  0  0
   46.8750   31.9360   46.4540 C   0  0  1  0  0  0  0  0  0  0  0  0
   44.7240   36.9600   42.8370 N   0  0  0  0  0  0  0  0  0  0  0  0
   46.2310   30.2640   46.2290 S   0  0  0  0  0  0  0  0  0  0  0  0
   45.5110   27.7070   47.8050 Cl  0  0  0  0  0  0  0  0  0  0  0  0
   47.1820   28.0220   47.3200 C   0  0  0  0  0  0  0  0  0  0  0  0
   47.5870   29.1510   46.6070 C   0  0  0  0  0  0  0  0  0  0  0  0
   48.9170   29.3030   46.2760 C   0  0  0  0  0  0  0  0  0  0  0  0
   49.8200   28.3440   46.6510 C   0  0  0  0  0  0  0  0  0  0  0  0
   49.4260   27.2240   47.3560 C   0  0  0  0  0  0  0  0  0  0  0  0
   50.5920   26.0040   47.8290 Cl  0  0  0  0  0  0  0  0  0  0  0  0
   48.0860   27.0500   47.7010 C   0  0  0  0  0  0  0  0  0  0  0  0
   43.7959   36.7603   45.2731 H   0  0  0  0  0  0  0  0  0  0  0  0
   46.3630   34.7732   42.4382 H   0  0  0  0  0  0  0  0  0  0  0  0
   44.5602   33.5774   48.0929 H   0  0  0  0  0  0  0  0  0  0  0  0
   44.2785   31.9228   47.6364 H   0  0  0  0  0  0  0  0  0  0  0  0
   46.3710   33.0621   49.4278 H   0  0  0  0  0  0  0  0  0  0  0  0
   45.9224   31.3487   49.2389 H   0  0  0  0  0  0  0  0  0  0  0  0
   48.1147   32.8927   47.9619 H   0  0  0  0  0  0  0  0  0  0  0  0
   47.9955   31.1587   48.1801 H   0  0  0  0  0  0  0  0  0  0  0  0
   47.5800   32.1027   45.6262 H   0  0  0  0  0  0  0  0  0  0  0  0
   45.1255   36.9775   41.8887 H   0  0  0  0  0  0  0  0  0  0  0  0
   44.0884   37.7113   43.1411 H   0  0  0  0  0  0  0  0  0  0  0  0
   49.2503   30.1883   45.7147 H   0  0  0  0  0  0  0  0  0  0  0  0
   50.8801   28.4684   46.3853 H   0  0  0  0  0  0  0  0  0  0  0  0
   47.7579   26.1623   48.2616 H   0  0  0  0  0  0  0  0  0  0  0  0
  1  6  2  0
  2  1  1  0
  3  2  2  0
  3  4  1  0
  4  5  2  0
  5  6  1  0
  5  7  1  0
  7  8  1  0
  8  9  1  0
 10  9  1  0
 11  7  1  0
 11 10  1  0
 12  2  1  0
 13 11  1  0
 13 16  1  0
 15 21  2  0
 15 14  1  0
 16 15  1  0
 17 16  2  0
 17 18  1  0
 18 19  2  0
 19 21  1  0
 19 20  1  0
  1 22  1  0
  3 23  1  0
  8 24  1  0
  8 25  1  0
  9 26  1  0
  9 27  1  0
 10 28  1  0
 10 29  1  0
 11 30  1  6
 12 31  1  0
 12 32  1  0
 17 33  1  0
 18 34  1  0
 21 35  1  0
M  ISO  8  22  14  23  14  24  13  25  13  26  13  27  13  28  13  29  13
M  ISO  4  30  13  33  14  34  14  35  14
M  END
>  <minimizedAffinity>  (1) 
-5.40045452

>  <minimizedRMSD>  (1) 
0.649013758

$$$$
