
     RDKit          3D

 23 24  0  0  0  0  0  0  0  0999 V2000
   45.0450   34.4790   45.6590 C   0  0  0  0  0  0  0  0  0  0  0  0
   45.5280   34.8330   44.3910 C   0  0  0  0  0  0  0  0  0  0  0  0
   46.5240   34.0450   43.8310 C   0  0  0  0  0  0  0  0  0  0  0  0
   46.9900   32.9740   44.5220 N   0  0  0  0  0  0  0  0  0  0  0  0
   46.4980   32.6670   45.7400 C   0  0  0  0  0  0  0  0  0  0  0  0
   45.5390   33.4000   46.3130 N   0  0  0  0  0  0  0  0  0  0  0  0
   46.1320   32.4530   48.7650 Cl  0  0  0  0  0  0  0  0  0  0  0  0
   46.9630   31.2890   47.7660 C   0  0  0  0  0  0  0  0  0  0  0  0
   47.0620   31.5010   46.4020 C   0  0  0  0  0  0  0  0  0  0  0  0
   47.7280   30.5540   45.6420 C   0  0  0  0  0  0  0  0  0  0  0  0
   48.3040   29.4030   46.1760 C   0  0  0  0  0  0  0  0  0  0  0  0
   48.1930   29.2070   47.5520 C   0  0  0  0  0  0  0  0  0  0  0  0
   48.9160   27.7640   48.2090 Cl  0  0  0  0  0  0  0  0  0  0  0  0
   47.5300   30.1470   48.3130 C   0  0  0  0  0  0  0  0  0  0  0  0
   44.9120   36.0390   43.7610 C   0  0  0  0  0  0  0  0  0  0  0  0
   44.8010   36.9900   44.7540 F   0  0  0  0  0  0  0  0  0  0  0  0
   43.6770   35.6850   43.2680 F   0  0  0  0  0  0  0  0  0  0  0  0
   45.7630   36.4520   42.7250 F   0  0  0  0  0  0  0  0  0  0  0  0
   44.2556   35.0845   46.1283 H   0  0  0  0  0  0  0  0  0  0  0  0
   46.9312   34.2860   42.8380 H   0  0  0  0  0  0  0  0  0  0  0  0
   47.8066   30.7195   44.5574 H   0  0  0  0  0  0  0  0  0  0  0  0
   48.8265   28.6766   45.5362 H   0  0  0  0  0  0  0  0  0  0  0  0
   47.4474   29.9846   49.3978 H   0  0  0  0  0  0  0  0  0  0  0  0
  1  6  2  0
  2  1  1  0
  3  2  2  0
  3  4  1  0
  4  5  2  0
  5  6  1  0
  5  9  1  0
  8 14  2  0
  8  7  1  0
  9  8  1  0
 10 11  1  0
 10  9  2  0
 11 12  2  0
 12 13  1  0
 12 14  1  0
 15  2  1  0
 15 16  1  0
 17 15  1  0
 18 15  1  0
  1 19  1  0
  3 20  1  0
 10 21  1  0
 11 22  1  0
 14 23  1  0
M  ISO  5  19  14  20  14  21  14  22  14  23  14
M  END
>  <minimizedAffinity>  (1) 
-4.98152542

>  <minimizedRMSD>  (1) 
2.27328706

$$$$
