
     RDKit          3D

 33 35  0  0  0  0  0  0  0  0999 V2000
   45.4390   31.8650   40.7800 Cl  0  0  0  0  0  0  0  0  0  0  0  0
   46.6190   33.0230   40.2330 C   0  0  0  0  0  0  0  0  0  0  0  0
   47.1990   33.9020   41.1150 C   0  0  0  0  0  0  0  0  0  0  0  0
   48.1410   34.8380   40.7230 C   0  0  0  0  0  0  0  0  0  0  0  0
   48.4700   34.8400   39.3740 C   0  0  0  0  0  0  0  0  0  0  0  0
   47.8950   33.9660   38.4880 C   0  0  0  0  0  0  0  0  0  0  0  0
   46.9830   33.0670   38.9000 C   0  0  0  0  0  0  0  0  0  0  0  0
   44.1660   33.6610   37.9750 Cl  0  0  0  0  0  0  0  0  0  0  0  0
   45.0600   32.2380   37.4700 C   0  0  0  0  0  0  0  0  0  0  0  0
   46.3380   32.1060   37.9790 C   0  0  0  0  0  0  0  0  0  0  0  0
   47.1390   31.0130   37.6450 C   0  0  0  0  0  0  0  0  0  0  0  0
   46.6510   30.0310   36.7830 C   0  0  0  0  0  0  0  0  0  0  0  0
   45.3740   30.1800   36.2860 C   0  0  0  0  0  0  0  0  0  0  0  0
   44.7380   28.9520   35.1960 Cl  0  0  0  0  0  0  0  0  0  0  0  0
   44.5740   31.2630   36.6140 C   0  0  0  0  0  0  0  0  0  0  0  0
   46.9560   32.8740   44.6540 C   0  0  0  0  0  0  0  0  0  0  0  0
   46.0370   33.8130   45.1820 C   0  0  0  0  0  0  0  0  0  0  0  0
   45.5260   34.7680   44.3200 C   0  0  0  0  0  0  0  0  0  0  0  0
   45.9150   34.7800   43.0080 N   0  0  0  0  0  0  0  0  0  0  0  0
   46.8080   33.8530   42.5370 C   0  0  0  0  0  0  0  0  0  0  0  0
   47.3130   32.9200   43.3540 N   0  0  0  0  0  0  0  0  0  0  0  0
   44.5400   35.8220   44.7610 C   0  0  0  0  0  0  0  0  0  0  0  0
   45.0170   37.0780   44.5040 F   0  0  0  0  0  0  0  0  0  0  0  0
   43.3540   35.6450   44.0490 F   0  0  0  0  0  0  0  0  0  0  0  0
   44.3230   35.6220   46.1010 F   0  0  0  0  0  0  0  0  0  0  0  0
   48.6007   35.5374   41.4368 H   0  0  0  0  0  0  0  0  0  0  0  0
   49.2128   35.5631   39.0059 H   0  0  0  0  0  0  0  0  0  0  0  0
   48.1830   34.0003   37.4269 H   0  0  0  0  0  0  0  0  0  0  0  0
   48.1536   30.9261   38.0609 H   0  0  0  0  0  0  0  0  0  0  0  0
   47.2675   29.1626   36.5077 H   0  0  0  0  0  0  0  0  0  0  0  0
   43.5595   31.3480   36.1974 H   0  0  0  0  0  0  0  0  0  0  0  0
   47.3824   32.1004   45.3095 H   0  0  0  0  0  0  0  0  0  0  0  0
   45.7394   33.7845   46.2406 H   0  0  0  0  0  0  0  0  0  0  0  0
  2  1  1  0
  2  3  2  0
  3 20  1  0
  4  3  1  0
  5  4  2  0
  6  7  2  0
  6  5  1  0
  7  2  1  0
  9  8  1  0
  9 10  2  0
 10  7  1  0
 11 10  1  0
 12 11  2  0
 13 15  2  0
 13 12  1  0
 14 13  1  0
 15  9  1  0
 16 17  2  0
 18 22  1  0
 18 17  1  0
 19 18  2  0
 20 19  1  0
 20 21  2  0
 21 16  1  0
 22 25  1  0
 23 22  1  0
 24 22  1  0
  4 26  1  0
  5 27  1  0
  6 28  1  0
 11 29  1  0
 12 30  1  0
 15 31  1  0
 16 32  1  0
 17 33  1  0
M  ISO  8  26  14  27  14  28  14  29  14  30  14  31  14  32  14  33  14
M  END
>  <minimizedAffinity>  (1) 
-5.48086262

>  <minimizedRMSD>  (1) 
1.60572231

$$$$
