
     RDKit          3D

 30 32  0  0  0  0  0  0  0  0999 V2000
   44.5810   36.1220   44.2290 C   0  0  0  0  0  0  0  0  0  0  0  0
   45.2590   35.9650   43.0120 C   0  0  0  0  0  0  0  0  0  0  0  0
   46.1360   34.8980   42.8100 C   0  0  0  0  0  0  0  0  0  0  0  0
   46.2850   34.0400   43.8410 N   0  0  0  0  0  0  0  0  0  0  0  0
   45.6330   34.1930   45.0070 C   0  0  0  0  0  0  0  0  0  0  0  0
   44.7940   35.2220   45.1910 N   0  0  0  0  0  0  0  0  0  0  0  0
   44.7070   33.1600   40.9190 Cl  0  0  0  0  0  0  0  0  0  0  0  0
   46.2610   33.9120   40.5850 C   0  0  0  0  0  0  0  0  0  0  0  0
   46.8510   34.7170   41.5510 C   0  0  0  0  0  0  0  0  0  0  0  0
   48.0630   35.2820   41.2460 C   0  0  0  0  0  0  0  0  0  0  0  0
   48.6850   35.0640   40.0230 C   0  0  0  0  0  0  0  0  0  0  0  0
   48.0360   34.2430   39.0980 C   0  0  0  0  0  0  0  0  0  0  0  0
   48.8090   33.9620   37.5590 Cl  0  0  0  0  0  0  0  0  0  0  0  0
   46.8160   33.6520   39.3570 C   0  0  0  0  0  0  0  0  0  0  0  0
   47.5380   31.9710   44.3610 Cl  0  0  0  0  0  0  0  0  0  0  0  0
   46.7020   32.1610   45.8910 C   0  0  0  0  0  0  0  0  0  0  0  0
   45.8440   33.2240   46.0790 C   0  0  0  0  0  0  0  0  0  0  0  0
   45.1580   33.4110   47.2840 C   0  0  0  0  0  0  0  0  0  0  0  0
   45.3300   32.5120   48.3350 C   0  0  0  0  0  0  0  0  0  0  0  0
   46.1970   31.4660   48.0970 C   0  0  0  0  0  0  0  0  0  0  0  0
   46.4640   30.2930   49.3730 Cl  0  0  0  0  0  0  0  0  0  0  0  0
   46.8920   31.2460   46.9260 C   0  0  0  0  0  0  0  0  0  0  0  0
   43.8918   36.9647   44.3867 H   0  0  0  0  0  0  0  0  0  0  0  0
   45.0974   36.6937   42.2040 H   0  0  0  0  0  0  0  0  0  0  0  0
   48.5559   35.9252   41.9899 H   0  0  0  0  0  0  0  0  0  0  0  0
   49.6572   35.5231   39.7907 H   0  0  0  0  0  0  0  0  0  0  0  0
   46.3156   33.0075   38.6192 H   0  0  0  0  0  0  0  0  0  0  0  0
   44.4810   34.2699   47.4022 H   0  0  0  0  0  0  0  0  0  0  0  0
   44.8065   32.6294   49.2953 H   0  0  0  0  0  0  0  0  0  0  0  0
   47.5675   30.3852   46.8134 H   0  0  0  0  0  0  0  0  0  0  0  0
  1  6  2  0
  2  1  1  0
  3  2  2  0
  3  4  1  0
  4  5  2  0
  5  6  1  0
  5 17  1  0
  8  7  1  0
  8  9  2  0
  9  3  1  0
 10  9  1  0
 11 10  2  0
 12 14  2  0
 12 11  1  0
 13 12  1  0
 14  8  1  0
 15 16  1  0
 16 17  2  0
 16 22  1  0
 17 18  1  0
 18 19  2  0
 20 19  1  0
 20 21  1  0
 22 20  2  0
  1 23  1  0
  2 24  1  0
 10 25  1  0
 11 26  1  0
 14 27  1  0
 18 28  1  0
 19 29  1  0
 22 30  1  0
M  ISO  8  23  14  24  14  25  14  26  14  27  14  28  14  29  14  30  14
M  END
>  <minimizedAffinity>  (1) 
-6.25284433

>  <minimizedRMSD>  (1) 
0.766594231

$$$$
