
     RDKit          3D

 44 46  0  0  1  0  0  0  0  0999 V2000
   44.9980   34.6250   44.9310 C   0  0  0  0  0  0  0  0  0  0  0  0
   45.9070   34.5950   43.8490 C   0  0  0  0  0  0  0  0  0  0  0  0
   47.0200   33.7520   43.9660 C   0  0  0  0  0  0  0  0  0  0  0  0
   47.1690   33.0140   45.0950 N   0  0  0  0  0  0  0  0  0  0  0  0
   46.2860   33.0630   46.1080 C   0  0  0  0  0  0  0  0  0  0  0  0
   45.2130   33.8740   46.0020 N   0  0  0  0  0  0  0  0  0  0  0  0
   46.5090   32.2700   47.2470 N   0  0  0  0  0  0  0  0  0  0  0  0
   47.7190   32.4180   47.9920 C   0  0  0  0  0  0  0  0  0  0  0  0
   47.9740   31.2850   48.9400 C   0  0  0  0  0  0  0  0  0  0  0  0
   46.8340   30.6280   49.4830 N   0  0  0  0  0  0  0  0  0  0  0  0
   45.5940   31.2430   49.1330 C   0  0  0  0  0  0  0  0  0  0  0  0
   45.4820   31.3030   47.6430 C   0  0  2  0  0  0  0  0  0  0  0  0
   45.6820   29.9770   46.9930 C   0  0  0  0  0  0  0  0  0  0  0  0
   44.8020   28.9830   47.6930 C   0  0  0  0  0  0  0  0  0  0  0  0
   45.1480   27.7030   47.8080 C   0  0  0  0  0  0  0  0  0  0  0  0
   44.3160   26.6690   48.4910 C   0  0  0  0  0  0  0  0  0  0  0  0
   45.9590   24.2620   47.7270 Cl  0  0  0  0  0  0  0  0  0  0  0  0
   44.3650   24.5610   47.0840 C   0  0  0  0  0  0  0  0  0  0  0  0
   43.7330   25.7080   47.5280 C   0  0  0  0  0  0  0  0  0  0  0  0
   42.4530   25.9340   47.0010 C   0  0  0  0  0  0  0  0  0  0  0  0
   41.7940   25.1350   46.1070 C   0  0  0  0  0  0  0  0  0  0  0  0
   42.4800   23.9990   45.7010 C   0  0  0  0  0  0  0  0  0  0  0  0
   41.7140   22.9320   44.5690 Cl  0  0  0  0  0  0  0  0  0  0  0  0
   43.7410   23.7200   46.1820 C   0  0  0  0  0  0  0  0  0  0  0  0
   44.1103   35.2729   44.8842 H   0  0  0  0  0  0  0  0  0  0  0  0
   45.7469   35.2092   42.9506 H   0  0  0  0  0  0  0  0  0  0  0  0
   47.7612   33.6894   43.1556 H   0  0  0  0  0  0  0  0  0  0  0  0
   48.5594   32.4774   47.2848 H   0  0  0  0  0  0  0  0  0  0  0  0
   47.6201   33.3321   48.5959 H   0  0  0  0  0  0  0  0  0  0  0  0
   48.5676   30.5304   48.4032 H   0  0  0  0  0  0  0  0  0  0  0  0
   48.4782   31.7430   49.8037 H   0  0  0  0  0  0  0  0  0  0  0  0
   46.8238   29.6573   49.1386 H   0  0  0  0  0  0  0  0  0  0  0  0
   44.7612   30.6519   49.5417 H   0  0  0  0  0  0  0  0  0  0  0  0
   45.5540   32.2604   49.5493 H   0  0  0  0  0  0  0  0  0  0  0  0
   44.4734   31.6021   47.3217 H   0  0  0  0  0  0  0  0  0  0  0  0
   45.4064   30.0366   45.9297 H   0  0  0  0  0  0  0  0  0  0  0  0
   46.7364   29.6712   47.0625 H   0  0  0  0  0  0  0  0  0  0  0  0
   43.8470   29.3209   48.1218 H   0  0  0  0  0  0  0  0  0  0  0  0
   46.1074   27.3873   47.3723 H   0  0  0  0  0  0  0  0  0  0  0  0
   44.9468   26.1191   49.2050 H   0  0  0  0  0  0  0  0  0  0  0  0
   43.4896   27.1808   49.0059 H   0  0  0  0  0  0  0  0  0  0  0  0
   41.9289   26.8402   47.3387 H   0  0  0  0  0  0  0  0  0  0  0  0
   40.7875   25.3769   45.7349 H   0  0  0  0  0  0  0  0  0  0  0  0
   44.2601   22.8118   45.8420 H   0  0  0  0  0  0  0  0  0  0  0  0
  1  6  2  0
  2  3  2  0
  2  1  1  0
  3  4  1  0
  4  5  2  0
  5  7  1  0
  6  5  1  0
  7 12  1  0
  7  8  1  0
  8  9  1  0
  9 10  1  0
 11 10  1  0
 12 11  1  0
 13 12  1  0
 13 14  1  0
 14 15  2  0
 15 16  1  0
 18 19  2  0
 18 17  1  0
 19 16  1  0
 20 19  1  0
 21 20  2  0
 22 21  1  0
 22 24  2  0
 23 22  1  0
 24 18  1  0
  1 25  1  0
  2 26  1  0
  3 27  1  0
  8 28  1  0
  8 29  1  0
  9 30  1  0
  9 31  1  0
 10 32  1  0
 11 33  1  0
 11 34  1  0
 12 35  1  1
 13 36  1  0
 13 37  1  0
 14 38  1  0
 15 39  1  0
 16 40  1  0
 16 41  1  0
 20 42  1  0
 21 43  1  0
 24 44  1  0
M  ISO  8  25  14  26  14  27  14  28  13  29  13  30  13  31  13  32   5
M  ISO  8  33  13  34  13  35  13  36   8  37   8  40   8  41   8  42  14
M  ISO  2  43  14  44  14
M  END
>  <minimizedAffinity>  (1) 
-5.88666868

>  <minimizedRMSD>  (1) 
0.225729883

$$$$
