
     RDKit          3D

 43 45  0  0  0  0  0  0  0  0999 V2000
   45.8930   35.1580   43.0660 C   0  0  0  0  0  0  0  0  0  0  0  0
   46.7050   34.1580   43.6700 C   0  0  0  0  0  0  0  0  0  0  0  0
   46.3930   33.7630   44.9640 C   0  0  0  0  0  0  0  0  0  0  0  0
   45.3330   34.3460   45.5960 N   0  0  0  0  0  0  0  0  0  0  0  0
   44.5780   35.2950   44.9970 C   0  0  0  0  0  0  0  0  0  0  0  0
   44.8600   35.6910   43.7500 N   0  0  0  0  0  0  0  0  0  0  0  0
   47.7620   33.6620   42.8730 N   0  0  0  0  0  0  0  0  0  0  0  0
   49.0840   34.2630   42.8560 C   0  0  0  0  0  0  0  0  0  0  0  0
   50.0000   33.4200   42.0150 C   0  0  0  0  0  0  0  0  0  0  0  0
   49.4770   33.1380   40.7210 N   0  0  0  0  0  0  0  0  0  0  0  0
   48.1380   32.6380   40.6980 C   0  0  0  0  0  0  0  0  0  0  0  0
   47.4950   32.4920   42.0310 C   0  0  0  0  0  0  0  0  0  0  0  0
   47.1980   32.7940   45.5180 O   0  0  0  0  0  0  0  0  0  0  0  0
   45.4690   30.8460   44.9870 O   0  0  0  0  0  0  0  0  0  0  0  0
   46.4890   31.3020   46.0390 P   0  0  1  0  0  0  0  0  0  0  0  0
   47.6990   30.1960   46.2590 O   0  0  0  0  0  0  0  0  0  0  0  0
   50.2270   29.5600   47.6340 Cl  0  0  0  0  0  0  0  0  0  0  0  0
   48.7950   28.5520   47.4690 C   0  0  0  0  0  0  0  0  0  0  0  0
   47.6270   28.9280   46.7970 C   0  0  0  0  0  0  0  0  0  0  0  0
   46.5790   28.0320   46.7490 C   0  0  0  0  0  0  0  0  0  0  0  0
   46.6620   26.7940   47.3390 C   0  0  0  0  0  0  0  0  0  0  0  0
   47.8270   26.4340   48.0030 C   0  0  0  0  0  0  0  0  0  0  0  0
   47.8650   24.8420   48.7330 Cl  0  0  0  0  0  0  0  0  0  0  0  0
   48.8950   27.3100   48.0710 C   0  0  0  0  0  0  0  0  0  0  0  0
   45.6520   31.6470   47.4630 O   0  0  0  0  0  0  0  0  0  0  0  0
   46.4880   31.9160   48.5150 C   0  0  0  0  0  0  0  0  0  0  0  0
   47.6010   32.6410   48.1630 F   0  0  0  0  0  0  0  0  0  0  0  0
   46.8620   30.8120   49.2360 F   0  0  0  0  0  0  0  0  0  0  0  0
   45.7310   32.7070   49.3900 F   0  0  0  0  0  0  0  0  0  0  0  0
   46.1076   35.4963   42.0416 H   0  0  0  0  0  0  0  0  0  0  0  0
   43.7300   35.7425   45.5361 H   0  0  0  0  0  0  0  0  0  0  0  0
   49.0222   35.2756   42.4307 H   0  0  0  0  0  0  0  0  0  0  0  0
   49.4756   34.3228   43.8822 H   0  0  0  0  0  0  0  0  0  0  0  0
   50.9548   33.9533   41.8969 H   0  0  0  0  0  0  0  0  0  0  0  0
   50.1237   32.4575   42.5330 H   0  0  0  0  0  0  0  0  0  0  0  0
   49.5008   34.0089   40.1716 H   0  0  0  0  0  0  0  0  0  0  0  0
   47.5267   33.3289   40.0989 H   0  0  0  0  0  0  0  0  0  0  0  0
   48.1972   31.6246   40.2743 H   0  0  0  0  0  0  0  0  0  0  0  0
   46.4084   32.3856   41.8967 H   0  0  0  0  0  0  0  0  0  0  0  0
   47.9107   31.6017   42.5255 H   0  0  0  0  0  0  0  0  0  0  0  0
   45.6542   28.3158   46.2254 H   0  0  0  0  0  0  0  0  0  0  0  0
   45.8142   26.0952   47.2859 H   0  0  0  0  0  0  0  0  0  0  0  0
   49.8160   27.0220   48.5990 H   0  0  0  0  0  0  0  0  0  0  0  0
  1  2  2  0
  1  6  1  0
  2  3  1  0
  3 13  1  0
  3  4  2  0
  5  4  1  0
  6  5  2  0
  7  2  1  0
  8  7  1  0
  9  8  1  0
 10  9  1  0
 11 10  1  0
 11 12  1  0
 12  7  1  0
 13 15  1  0
 15 14  2  0
 15 16  1  0
 15 25  1  0
 16 19  1  0
 18 17  1  0
 18 24  2  0
 19 18  1  0
 20 19  2  0
 20 21  1  0
 21 22  2  0
 22 24  1  0
 22 23  1  0
 25 26  1  0
 26 28  1  0
 26 29  1  0
 27 26  1  0
  1 30  1  0
  5 31  1  0
  8 32  1  0
  8 33  1  0
  9 34  1  0
  9 35  1  0
 10 36  1  0
 11 37  1  0
 11 38  1  0
 12 39  1  0
 12 40  1  0
 20 41  1  0
 21 42  1  0
 24 43  1  0
M  ISO  8  30  14  31  14  32  13  33  13  34  13  35  13  36   5  37  13
M  ISO  6  38  13  39  13  40  13  41  14  42  14  43  14
M  END
>  <minimizedAffinity>  (1) 
-5.50342798

>  <minimizedRMSD>  (1) 
1.23195851

$$$$
