
     RDKit          3D

 26 27  0  0  1  0  0  0  0  0999 V2000
   47.7190   33.7620   42.9880 C   0  0  1  0  0  0  0  0  0  0  0  0
   49.1330   35.9720   41.3580 Cl  0  0  0  0  0  0  0  0  0  0  0  0
   48.2530   34.6480   40.6740 C   0  0  0  0  0  0  0  0  0  0  0  0
   47.6670   33.7260   41.5060 C   0  0  0  0  0  0  0  0  0  0  0  0
   46.9960   32.7190   40.8130 C   0  0  0  0  0  0  0  0  0  0  0  0
   46.8910   32.6010   39.4590 C   0  0  0  0  0  0  0  0  0  0  0  0
   47.5100   33.5730   38.6810 C   0  0  0  0  0  0  0  0  0  0  0  0
   47.4140   33.4770   36.9410 Cl  0  0  0  0  0  0  0  0  0  0  0  0
   48.1930   34.5990   39.2990 C   0  0  0  0  0  0  0  0  0  0  0  0
   45.9420   35.4750   43.0370 C   0  0  0  0  0  0  0  0  0  0  0  0
   46.5850   34.3970   43.6410 C   0  0  0  0  0  0  0  0  0  0  0  0
   46.0840   33.9630   44.8960 C   0  0  0  0  0  0  0  0  0  0  0  0
   45.0200   34.6200   45.4240 N   0  0  0  0  0  0  0  0  0  0  0  0
   44.4460   35.6580   44.7830 C   0  0  0  0  0  0  0  0  0  0  0  0
   44.8950   36.0900   43.5990 N   0  0  0  0  0  0  0  0  0  0  0  0
   47.7800   32.3230   43.4620 C   0  0  0  0  0  0  0  0  0  0  0  0
   48.5957   34.3696   43.2569 H   0  0  0  0  0  0  0  0  0  0  0  0
   46.5031   31.9439   41.4182 H   0  0  0  0  0  0  0  0  0  0  0  0
   46.3377   31.7687   38.9995 H   0  0  0  0  0  0  0  0  0  0  0  0
   48.6878   35.3750   38.6964 H   0  0  0  0  0  0  0  0  0  0  0  0
   46.3079   35.8334   42.0635 H   0  0  0  0  0  0  0  0  0  0  0  0
   46.5455   33.1171   45.4265 H   0  0  0  0  0  0  0  0  0  0  0  0
   43.5855   36.1632   45.2459 H   0  0  0  0  0  0  0  0  0  0  0  0
   47.7810   32.2989   44.5617 H   0  0  0  0  0  0  0  0  0  0  0  0
   46.9043   31.7750   43.0841 H   0  0  0  0  0  0  0  0  0  0  0  0
   48.6990   31.8511   43.0841 H   0  0  0  0  0  0  0  0  0  0  0  0
  1 16  1  0
  1 11  1  0
  3  2  1  0
  3  4  2  0
  4  1  1  0
  5  4  1  0
  6  5  2  0
  7  9  2  0
  7  6  1  0
  8  7  1  0
  9  3  1  0
 10 15  2  0
 10 11  1  0
 11 12  2  0
 12 13  1  0
 14 13  2  0
 15 14  1  0
  1 17  1  6
  5 18  1  0
  6 19  1  0
  9 20  1  0
 10 21  1  0
 12 22  1  0
 14 23  1  0
 16 24  1  0
 16 25  1  0
 16 26  1  0
M  ISO  8  17   8  18  14  19  14  20  14  21  14  22  14  23  14  24   8
M  ISO  2  25   8  26   8
M  END
>  <minimizedAffinity>  (1) 
-4.98892927

>  <minimizedRMSD>  (1) 
2.20213842

$$$$
