
     RDKit          3D

 40 43  0  0  0  0  0  0  0  0999 V2000
   45.6100   32.4920   40.1590 Cl  0  0  0  0  0  0  0  0  0  0  0  0
   46.9080   33.6070   39.9480 C   0  0  0  0  0  0  0  0  0  0  0  0
   47.4350   34.2880   41.0190 C   0  0  0  0  0  0  0  0  0  0  0  0
   48.4810   35.1950   40.8860 C   0  0  0  0  0  0  0  0  0  0  0  0
   48.9680   35.3770   39.6020 C   0  0  0  0  0  0  0  0  0  0  0  0
   48.4390   34.6930   38.5280 C   0  0  0  0  0  0  0  0  0  0  0  0
   47.4190   33.8160   38.6910 C   0  0  0  0  0  0  0  0  0  0  0  0
   46.7100   32.7390   44.2790 C   0  0  0  0  0  0  0  0  0  0  0  0
   45.8060   33.6650   44.8650 C   0  0  0  0  0  0  0  0  0  0  0  0
   45.4660   34.8000   44.1280 C   0  0  0  0  0  0  0  0  0  0  0  0
   46.0170   34.9560   42.8920 N   0  0  0  0  0  0  0  0  0  0  0  0
   46.8770   34.0540   42.3600 C   0  0  0  0  0  0  0  0  0  0  0  0
   47.2080   32.9650   43.0580 N   0  0  0  0  0  0  0  0  0  0  0  0
   44.5240   35.8490   44.6380 C   0  0  0  0  0  0  0  0  0  0  0  0
   45.0260   37.1020   44.3930 F   0  0  0  0  0  0  0  0  0  0  0  0
   43.3090   35.7020   43.9870 F   0  0  0  0  0  0  0  0  0  0  0  0
   44.3770   35.6220   45.9810 F   0  0  0  0  0  0  0  0  0  0  0  0
   46.8530   33.0870   37.5550 C   0  0  0  0  0  0  0  0  0  0  0  0
   45.5650   33.2990   37.0560 C   0  0  0  0  0  0  0  0  0  0  0  0
   45.3760   32.4390   35.9900 C   0  0  0  0  0  0  0  0  0  0  0  0
   46.5650   31.7430   35.8960 C   0  0  0  0  0  0  0  0  0  0  0  0
   47.4060   32.1540   36.8330 O   0  0  0  0  0  0  0  0  0  0  0  0
   48.2930   32.6880   33.6050 Cl  0  0  0  0  0  0  0  0  0  0  0  0
   47.6940   31.0540   33.8440 C   0  0  0  0  0  0  0  0  0  0  0  0
   46.9040   30.6940   34.9210 C   0  0  0  0  0  0  0  0  0  0  0  0
   46.4330   29.4090   35.1090 C   0  0  0  0  0  0  0  0  0  0  0  0
   46.7720   28.4560   34.1770 C   0  0  0  0  0  0  0  0  0  0  0  0
   47.5570   28.8180   33.1060 C   0  0  0  0  0  0  0  0  0  0  0  0
   47.9730   27.5950   31.9410 Cl  0  0  0  0  0  0  0  0  0  0  0  0
   48.0490   30.1030   32.8880 C   0  0  0  0  0  0  0  0  0  0  0  0
   48.8968   35.7356   41.7490 H   0  0  0  0  0  0  0  0  0  0  0  0
   49.7951   36.0829   39.4355 H   0  0  0  0  0  0  0  0  0  0  0  0
   48.8517   34.8620   37.5225 H   0  0  0  0  0  0  0  0  0  0  0  0
   47.0015   31.8332   44.8309 H   0  0  0  0  0  0  0  0  0  0  0  0
   45.3875   33.4928   45.8676 H   0  0  0  0  0  0  0  0  0  0  0  0
   44.8316   34.0219   37.4427 H   0  0  0  0  0  0  0  0  0  0  0  0
   44.4809   32.3331   35.3594 H   0  0  0  0  0  0  0  0  0  0  0  0
   45.8064   29.1559   35.9769 H   0  0  0  0  0  0  0  0  0  0  0  0
   46.4207   27.4193   34.2860 H   0  0  0  0  0  0  0  0  0  0  0  0
   48.6762   30.3511   32.0190 H   0  0  0  0  0  0  0  0  0  0  0  0
  2  1  1  0
  2  3  2  0
  3 12  1  0
  4  3  1  0
  5  4  2  0
  6  7  2  0
  6  5  1  0
  7  2  1  0
  8  9  2  0
 10 14  1  0
 10  9  1  0
 11 10  2  0
 12 11  1  0
 12 13  2  0
 13  8  1  0
 14 17  1  0
 15 14  1  0
 16 14  1  0
 18  7  1  0
 19 18  2  0
 20 19  1  0
 21 20  2  0
 21 22  1  0
 22 18  1  0
 23 24  1  0
 24 25  2  0
 25 26  1  0
 25 21  1  0
 27 26  2  0
 28 27  1  0
 29 28  1  0
 30 28  2  0
 30 24  1  0
  4 31  1  0
  5 32  1  0
  6 33  1  0
  8 34  1  0
  9 35  1  0
 19 36  1  0
 20 37  1  0
 26 38  1  0
 27 39  1  0
 30 40  1  0
M  ISO  8  31  14  32  14  33  14  34  14  35  14  36  14  37  14  38  14
M  ISO  2  39  14  40  14
M  END
>  <minimizedAffinity>  (1) 
-6.18456221

>  <minimizedRMSD>  (1) 
1.66678441

$$$$
