
     RDKit          3D

 29 31  0  0  0  0  0  0  0  0999 V2000
   45.5330   34.3120   45.0530 C   0  0  0  0  0  0  0  0  0  0  0  0
   44.6950   35.4160   45.2170 C   0  0  0  0  0  0  0  0  0  0  0  0
   44.5790   36.3170   44.1320 C   0  0  0  0  0  0  0  0  0  0  0  0
   45.2890   36.0670   42.9770 N   0  0  0  0  0  0  0  0  0  0  0  0
   46.0860   34.9710   42.8910 C   0  0  0  0  0  0  0  0  0  0  0  0
   46.2000   34.1250   43.9000 N   0  0  0  0  0  0  0  0  0  0  0  0
   46.8050   34.7440   41.6510 C   0  0  0  0  0  0  0  0  0  0  0  0
   48.0230   35.3250   41.4240 C   0  0  0  0  0  0  0  0  0  0  0  0
   48.7810   35.1830   40.2830 C   0  0  0  0  0  0  0  0  0  0  0  0
   48.2030   34.3690   39.3200 C   0  0  0  0  0  0  0  0  0  0  0  0
   46.9530   33.7520   39.5140 C   0  0  0  0  0  0  0  0  0  0  0  0
   46.2760   33.9550   40.6830 N   0  0  0  0  0  0  0  0  0  0  0  0
   47.4020   32.0390   44.4650 Cl  0  0  0  0  0  0  0  0  0  0  0  0
   46.5280   32.2650   45.9780 C   0  0  0  0  0  0  0  0  0  0  0  0
   45.6920   33.3600   46.1260 C   0  0  0  0  0  0  0  0  0  0  0  0
   45.0700   33.4190   47.3520 C   0  0  0  0  0  0  0  0  0  0  0  0
   45.2420   32.4940   48.3600 C   0  0  0  0  0  0  0  0  0  0  0  0
   46.0880   31.4240   48.1530 C   0  0  0  0  0  0  0  0  0  0  0  0
   46.2750   30.2740   49.4590 Cl  0  0  0  0  0  0  0  0  0  0  0  0
   46.7420   31.3060   46.9460 C   0  0  0  0  0  0  0  0  0  0  0  0
   44.1448   35.5797   46.1554 H   0  0  0  0  0  0  0  0  0  0  0  0
   43.9322   37.2034   44.2090 H   0  0  0  0  0  0  0  0  0  0  0  0
   48.4324   35.9610   42.2227 H   0  0  0  0  0  0  0  0  0  0  0  0
   49.7573   35.6713   40.1475 H   0  0  0  0  0  0  0  0  0  0  0  0
   48.7388   34.2003   38.3743 H   0  0  0  0  0  0  0  0  0  0  0  0
   46.5242   33.1108   38.7298 H   0  0  0  0  0  0  0  0  0  0  0  0
   44.3889   34.2619   47.5409 H   0  0  0  0  0  0  0  0  0  0  0  0
   44.7115   32.6077   49.3169 H   0  0  0  0  0  0  0  0  0  0  0  0
   47.4224   30.4624   46.7578 H   0  0  0  0  0  0  0  0  0  0  0  0
  1  2  2  0
  1 15  1  0
  3  2  1  0
  4  3  2  0
  5  4  1  0
  5  6  2  0
  6  1  1  0
  7  5  1  0
  8  7  2  0
  9  8  1  0
 10 11  1  0
 10  9  2  0
 11 12  2  0
 12  7  1  0
 13 14  1  0
 14 15  2  0
 14 20  1  0
 15 16  1  0
 16 17  2  0
 18 17  1  0
 18 19  1  0
 20 18  2  0
  2 21  1  0
  3 22  1  0
  8 23  1  0
  9 24  1  0
 10 25  1  0
 11 26  1  0
 16 27  1  0
 17 28  1  0
 20 29  1  0
M  ISO  8  21  14  22  14  23  14  24  14  25  14  26  14  27  14  28  14
M  ISO  1  29  14
M  END
>  <minimizedAffinity>  (1) 
-5.72770023

>  <minimizedRMSD>  (1) 
0.843193948

$$$$
