
     RDKit          3D

 47 50  0  0  1  0  0  0  0  0999 V2000
   42.8280   34.4450   38.8180 C   0  0  1  0  0  0  0  0  0  0  0  0
   42.9610   35.1530   40.1570 C   0  0  1  0  0  0  0  0  0  0  0  0
   41.6620   35.3870   40.6600 O   0  0  0  0  0  0  0  0  0  0  0  0
   40.7420   35.6910   39.6530 C   0  0  0  0  0  0  0  0  0  0  0  0
   40.4500   34.4950   38.7680 C   0  0  2  0  0  0  0  0  0  0  0  0
   41.6640   33.5200   38.9460 C   0  0  1  0  0  0  0  0  0  0  0  0
   42.6170   35.3710   37.7840 O   0  0  0  0  0  0  0  0  0  0  0  0
   40.4780   34.8740   37.4370 O   0  0  0  0  0  0  0  0  0  0  0  0
   43.4870   34.1910   41.0330 O   0  0  0  0  0  0  0  0  0  0  0  0
   44.6040   34.3440   41.7530 C   0  0  0  0  0  0  0  0  0  0  0  0
   45.8560   34.4520   41.1310 C   0  0  0  0  0  0  0  0  0  0  0  0
   46.9830   34.6100   41.9170 C   0  0  0  0  0  0  0  0  0  0  0  0
   46.8430   34.6570   43.2910 N   0  0  0  0  0  0  0  0  0  0  0  0
   45.6190   34.5480   43.8610 C   0  0  0  0  0  0  0  0  0  0  0  0
   44.5100   34.3930   43.0930 N   0  0  0  0  0  0  0  0  0  0  0  0
   48.3530   34.7090   41.3200 C   0  0  0  0  0  0  0  0  0  0  0  0
   49.0860   36.0350   41.5090 C   0  0  0  0  0  0  0  0  0  0  0  0
   49.5160   34.7010   42.1490 C   0  0  0  0  0  0  0  0  0  0  0  0
   41.5430   32.5460   38.0290 O   0  0  0  0  0  0  0  0  0  0  0  0
   40.8850   31.3830   38.0480 C   0  0  0  0  0  0  0  0  0  0  0  0
   40.6930   30.7240   39.1890 O   0  0  0  0  0  0  0  0  0  0  0  0
   42.6670   29.6850   36.2850 Cl  0  0  0  0  0  0  0  0  0  0  0  0
   40.9160   29.7390   36.0880 C   0  0  0  0  0  0  0  0  0  0  0  0
   40.2360   30.5610   36.9590 C   0  0  0  0  0  0  0  0  0  0  0  0
   38.8830   30.5480   36.7410 C   0  0  0  0  0  0  0  0  0  0  0  0
   38.2840   29.8050   35.7750 C   0  0  0  0  0  0  0  0  0  0  0  0
   39.0270   29.0140   34.9540 C   0  0  0  0  0  0  0  0  0  0  0  0
   38.2560   28.0640   33.7190 Cl  0  0  0  0  0  0  0  0  0  0  0  0
   40.3970   28.9570   35.0900 C   0  0  0  0  0  0  0  0  0  0  0  0
   43.7466   33.8942   38.5674 H   0  0  0  0  0  0  0  0  0  0  0  0
   43.5529   36.0755   40.0637 H   0  0  0  0  0  0  0  0  0  0  0  0
   39.8033   36.0251   40.1191 H   0  0  0  0  0  0  0  0  0  0  0  0
   41.1776   36.4806   39.0230 H   0  0  0  0  0  0  0  0  0  0  0  0
   39.4742   34.0597   39.0292 H   0  0  0  0  0  0  0  0  0  0  0  0
   41.7548   32.9658   39.8918 H   0  0  0  0  0  0  0  0  0  0  0  0
   42.4147   36.2589   38.1724 H   0  0  0  0  0  0  0  0  0  0  0  0
   40.5508   35.8594   37.3759 H   0  0  0  0  0  0  0  0  0  0  0  0
   45.9405   34.4117   40.0350 H   0  0  0  0  0  0  0  0  0  0  0  0
   45.5226   34.5854   44.9561 H   0  0  0  0  0  0  0  0  0  0  0  0
   48.0574   34.0885   40.4612 H   0  0  0  0  0  0  0  0  0  0  0  0
   49.6681   36.4776   40.6872 H   0  0  0  0  0  0  0  0  0  0  0  0
   48.8363   37.0486   41.8556 H   0  0  0  0  0  0  0  0  0  0  0  0
   49.4106   34.5583   43.2346 H   0  0  0  0  0  0  0  0  0  0  0  0
   50.4493   34.1189   42.1560 H   0  0  0  0  0  0  0  0  0  0  0  0
   38.2471   31.1741   37.3841 H   0  0  0  0  0  0  0  0  0  0  0  0
   37.1912   29.8428   35.6554 H   0  0  0  0  0  0  0  0  0  0  0  0
   41.0282   28.3291   34.4440 H   0  0  0  0  0  0  0  0  0  0  0  0
  1  6  1  0
  1  2  1  0
  2  3  1  0
  2  9  1  0
  4  3  1  0
  5  6  1  0
  5  4  1  0
  7  1  1  0
  8  5  1  0
  9 10  1  0
 10 15  1  0
 11 10  2  0
 11 12  1  0
 12 13  2  0
 13 14  1  0
 15 14  2  0
 16 17  1  0
 16 12  1  0
 16 18  1  0
 17 18  1  0
 19 20  1  0
 19  6  1  0
 20 21  2  0
 23 22  1  0
 23 24  2  0
 24 20  1  0
 25 24  1  0
 26 25  2  0
 27 29  2  0
 27 26  1  0
 28 27  1  0
 29 23  1  0
  1 30  1  6
  2 31  1  6
  4 32  1  0
  4 33  1  0
  5 34  1  1
  6 35  1  1
  7 36  1  0
  8 37  1  0
 11 38  1  0
 14 39  1  0
 16 40  1  0
 17 41  1  0
 17 42  1  0
 18 43  1  0
 18 44  1  0
 25 45  1  0
 26 46  1  0
 29 47  1  0
M  ISO  8  30  13  31  13  32  13  33  13  34  13  35  13  36   3  37   3
M  ISO  8  38  14  39  14  40  13  41  13  42  13  43  13  44  13  45  14
M  ISO  2  46  14  47  14
M  END
>  <minimizedAffinity>  (1) 
-6.37048531

>  <minimizedRMSD>  (1) 
2.4821136

$$$$
