
     RDKit          3D

 39 42  0  0  0  0  0  0  0  0999 V2000
   46.4310   33.5980   41.1850 C   0  0  0  0  0  0  0  0  0  0  0  0
   46.8060   34.6060   42.0510 C   0  0  0  0  0  0  0  0  0  0  0  0
   47.8680   35.3780   41.6720 C   0  0  0  0  0  0  0  0  0  0  0  0
   48.5470   35.1700   40.4770 C   0  0  0  0  0  0  0  0  0  0  0  0
   48.1480   34.1530   39.6320 C   0  0  0  0  0  0  0  0  0  0  0  0
   47.0710   33.3440   39.9810 C   0  0  0  0  0  0  0  0  0  0  0  0
   44.5170   35.9410   44.7180 C   0  0  0  0  0  0  0  0  0  0  0  0
   45.2080   35.8180   43.5020 C   0  0  0  0  0  0  0  0  0  0  0  0
   46.0730   34.7800   43.2760 C   0  0  0  0  0  0  0  0  0  0  0  0
   46.1920   33.9050   44.3150 N   0  0  0  0  0  0  0  0  0  0  0  0
   45.5400   34.0110   45.4760 C   0  0  0  0  0  0  0  0  0  0  0  0
   44.6950   35.0390   45.6750 N   0  0  0  0  0  0  0  0  0  0  0  0
   45.3600   32.7830   41.5180 O   0  0  0  0  0  0  0  0  0  0  0  0
   46.6450   32.3260   39.1710 O   0  0  0  0  0  0  0  0  0  0  0  0
   46.6090   32.3490   37.8130 C   0  0  0  0  0  0  0  0  0  0  0  0
   45.6120   32.7260   36.9400 C   0  0  0  0  0  0  0  0  0  0  0  0
   45.8460   32.6480   35.6080 C   0  0  0  0  0  0  0  0  0  0  0  0
   47.1180   32.1760   35.2050 C   0  0  0  0  0  0  0  0  0  0  0  0
   47.9690   31.8480   36.7600 S   0  0  0  0  0  0  0  0  0  0  0  0
   46.4390   29.5080   34.0460 Cl  0  0  0  0  0  0  0  0  0  0  0  0
   47.4010   30.7590   33.2890 C   0  0  0  0  0  0  0  0  0  0  0  0
   47.6830   31.9740   33.8710 C   0  0  0  0  0  0  0  0  0  0  0  0
   48.4110   33.0010   33.3750 C   0  0  0  0  0  0  0  0  0  0  0  0
   48.9500   32.8020   32.0970 C   0  0  0  0  0  0  0  0  0  0  0  0
   48.7120   31.5940   31.4330 C   0  0  0  0  0  0  0  0  0  0  0  0
   49.3800   31.3210   29.8210 Cl  0  0  0  0  0  0  0  0  0  0  0  0
   47.9490   30.5810   32.0130 C   0  0  0  0  0  0  0  0  0  0  0  0
   48.1967   36.1917   42.3351 H   0  0  0  0  0  0  0  0  0  0  0  0
   49.3979   35.8122   40.2057 H   0  0  0  0  0  0  0  0  0  0  0  0
   48.6807   33.9828   38.6847 H   0  0  0  0  0  0  0  0  0  0  0  0
   43.8288   36.7842   44.8773 H   0  0  0  0  0  0  0  0  0  0  0  0
   45.0517   36.5703   42.7149 H   0  0  0  0  0  0  0  0  0  0  0  0
   45.6932   33.2611   46.2660 H   0  0  0  0  0  0  0  0  0  0  0  0
   45.0814   32.0568   40.9055 H   0  0  0  0  0  0  0  0  0  0  0  0
   44.6430   33.0840   37.3180 H   0  0  0  0  0  0  0  0  0  0  0  0
   45.0815   32.9385   34.8724 H   0  0  0  0  0  0  0  0  0  0  0  0
   48.5695   33.9322   33.9387 H   0  0  0  0  0  0  0  0  0  0  0  0
   49.5543   33.5880   31.6205 H   0  0  0  0  0  0  0  0  0  0  0  0
   47.7776   29.6413   31.4675 H   0  0  0  0  0  0  0  0  0  0  0  0
  1 13  1  0
  1  2  2  0
  2  9  1  0
  3  2  1  0
  4  3  2  0
  5  6  2  0
  5  4  1  0
  6  1  1  0
  7 12  2  0
  8  7  1  0
  9  8  2  0
  9 10  1  0
 10 11  2  0
 11 12  1  0
 14  6  1  0
 15 14  1  0
 16 15  2  0
 17 16  1  0
 18 17  2  0
 18 19  1  0
 19 15  1  0
 21 22  2  0
 21 20  1  0
 22 18  1  0
 23 22  1  0
 24 23  2  0
 25 27  2  0
 25 24  1  0
 26 25  1  0
 27 21  1  0
  3 28  1  0
  4 29  1  0
  5 30  1  0
  7 31  1  0
  8 32  1  0
 11 33  1  0
 13 34  1  0
 16 35  1  0
 17 36  1  0
 23 37  1  0
 24 38  1  0
 27 39  1  0
M  ISO  8  28  14  29  14  30  14  31  14  32  14  33  14  34   3  35  14
M  ISO  4  36  14  37  14  38  14  39  14
M  END
>  <minimizedAffinity>  (1) 
-6.78157425

>  <minimizedRMSD>  (1) 
0.781491637

$$$$
