
     RDKit          3D

 41 43  0  0  0  0  0  0  0  0999 V2000
   45.0120   34.8630   42.4200 C   0  0  0  0  0  0  0  0  0  0  0  0
   46.2100   34.3940   41.8770 C   0  0  0  0  0  0  0  0  0  0  0  0
   47.1650   33.8180   42.7290 C   0  0  0  0  0  0  0  0  0  0  0  0
   46.8560   33.7550   44.0460 N   0  0  0  0  0  0  0  0  0  0  0  0
   45.6990   34.2110   44.5560 C   0  0  0  0  0  0  0  0  0  0  0  0
   44.8130   34.7490   43.7400 N   0  0  0  0  0  0  0  0  0  0  0  0
   46.9450   31.5110   40.7920 Cl  0  0  0  0  0  0  0  0  0  0  0  0
   48.4270   32.2540   41.3520 C   0  0  0  0  0  0  0  0  0  0  0  0
   48.4360   33.3060   42.2400 C   0  0  0  0  0  0  0  0  0  0  0  0
   49.6620   33.8130   42.6110 C   0  0  0  0  0  0  0  0  0  0  0  0
   50.8170   33.2550   42.0870 C   0  0  0  0  0  0  0  0  0  0  0  0
   50.8160   32.1870   41.1860 C   0  0  0  0  0  0  0  0  0  0  0  0
   52.3630   31.6070   40.6250 Cl  0  0  0  0  0  0  0  0  0  0  0  0
   49.5770   31.6970   40.8290 C   0  0  0  0  0  0  0  0  0  0  0  0
   45.5150   34.0720   45.9800 C   0  0  0  0  0  0  0  0  0  0  0  0
   44.4930   34.6040   46.4930 O   0  0  0  0  0  0  0  0  0  0  0  0
   46.4930   33.3450   46.7290 N   0  0  0  0  0  0  0  0  0  0  0  0
   43.8500   35.5810   41.2830 S   0  0  0  0  0  0  0  0  0  0  0  0
   42.1810   34.9330   41.4840 C   0  0  0  0  0  0  0  0  0  0  0  0
   41.1100   35.8140   40.9600 C   0  0  0  0  0  0  0  0  0  0  0  0
   42.0350   36.0790   38.0790 Cl  0  0  0  0  0  0  0  0  0  0  0  0
   40.6260   35.2030   38.5740 C   0  0  0  0  0  0  0  0  0  0  0  0
   40.2930   35.1460   39.9340 C   0  0  0  0  0  0  0  0  0  0  0  0
   39.1590   34.4320   40.2500 C   0  0  0  0  0  0  0  0  0  0  0  0
   38.3210   33.7660   39.3610 C   0  0  0  0  0  0  0  0  0  0  0  0
   38.6770   33.8400   38.0270 C   0  0  0  0  0  0  0  0  0  0  0  0
   37.6880   33.0360   36.8160 Cl  0  0  0  0  0  0  0  0  0  0  0  0
   39.7970   34.5400   37.6590 C   0  0  0  0  0  0  0  0  0  0  0  0
   46.4024   34.4749   40.7970 H   0  0  0  0  0  0  0  0  0  0  0  0
   49.7235   34.6539   43.3174 H   0  0  0  0  0  0  0  0  0  0  0  0
   51.7855   33.6748   42.3965 H   0  0  0  0  0  0  0  0  0  0  0  0
   49.5047   30.8567   40.1228 H   0  0  0  0  0  0  0  0  0  0  0  0
   46.3830   33.2325   47.7469 H   0  0  0  0  0  0  0  0  0  0  0  0
   47.3072   32.9340   46.2504 H   0  0  0  0  0  0  0  0  0  0  0  0
   42.1212   33.9694   40.9569 H   0  0  0  0  0  0  0  0  0  0  0  0
   42.0094   34.8436   42.5669 H   0  0  0  0  0  0  0  0  0  0  0  0
   40.4573   36.1125   41.7936 H   0  0  0  0  0  0  0  0  0  0  0  0
   41.5892   36.6877   40.4941 H   0  0  0  0  0  0  0  0  0  0  0  0
   38.8875   34.3830   41.3148 H   0  0  0  0  0  0  0  0  0  0  0  0
   37.4308   33.2150   39.6985 H   0  0  0  0  0  0  0  0  0  0  0  0
   40.0581   34.5834   36.5913 H   0  0  0  0  0  0  0  0  0  0  0  0
  1  6  1  0
  2  1  2  0
  2  3  1  0
  3  4  2  0
  4  5  1  0
  5 15  1  0
  6  5  2  0
  7  8  1  0
  8  9  2  0
  9 10  1  0
  9  3  1  0
 11 10  2  0
 12 11  1  0
 13 12  1  0
 14 12  2  0
 14  8  1  0
 15 16  2  0
 15 17  1  0
 18 19  1  0
 18  1  1  0
 20 19  1  0
 21 22  1  0
 22 23  2  0
 23 24  1  0
 23 20  1  0
 25 24  2  0
 26 25  1  0
 27 26  1  0
 28 26  2  0
 28 22  1  0
  2 29  1  0
 10 30  1  0
 11 31  1  0
 14 32  1  0
 17 33  1  0
 17 34  1  0
 19 35  1  0
 19 36  1  0
 20 37  1  0
 20 38  1  0
 24 39  1  0
 25 40  1  0
 28 41  1  0
M  ISO  8  29  14  30  14  31  14  32  14  35   8  36   8  37   8  38   8
M  ISO  3  39  14  40  14  41  14
M  END
>  <minimizedAffinity>  (1) 
-7.3588829

>  <minimizedRMSD>  (1) 
1.10757124

$$$$
