
     RDKit          3D

 30 32  0  0  0  0  0  0  0  0999 V2000
   44.7250   33.2230   41.1580 Cl  0  0  0  0  0  0  0  0  0  0  0  0
   46.2880   34.0000   40.9860 C   0  0  0  0  0  0  0  0  0  0  0  0
   46.8060   34.7560   41.9830 C   0  0  0  0  0  0  0  0  0  0  0  0
   48.0440   35.3220   41.7430 C   0  0  0  0  0  0  0  0  0  0  0  0
   48.7250   35.1430   40.5800 C   0  0  0  0  0  0  0  0  0  0  0  0
   48.1880   34.3740   39.5800 C   0  0  0  0  0  0  0  0  0  0  0  0
   46.9480   33.7980   39.8000 C   0  0  0  0  0  0  0  0  0  0  0  0
   48.1200   34.6250   37.2360 Cl  0  0  0  0  0  0  0  0  0  0  0  0
   46.9440   33.3330   37.4620 C   0  0  0  0  0  0  0  0  0  0  0  0
   46.4300   32.9910   38.7000 C   0  0  0  0  0  0  0  0  0  0  0  0
   45.5140   31.9660   38.7840 C   0  0  0  0  0  0  0  0  0  0  0  0
   45.1050   31.2800   37.6620 C   0  0  0  0  0  0  0  0  0  0  0  0
   45.6410   31.6480   36.4350 C   0  0  0  0  0  0  0  0  0  0  0  0
   45.1560   30.8030   34.9570 Cl  0  0  0  0  0  0  0  0  0  0  0  0
   46.5720   32.6770   36.2840 C   0  0  0  0  0  0  0  0  0  0  0  0
   44.4760   36.1260   44.6350 C   0  0  0  0  0  0  0  0  0  0  0  0
   45.1930   35.9850   43.4400 C   0  0  0  0  0  0  0  0  0  0  0  0
   46.0530   34.9250   43.2100 C   0  0  0  0  0  0  0  0  0  0  0  0
   46.1480   34.0320   44.2320 N   0  0  0  0  0  0  0  0  0  0  0  0
   45.4640   34.1620   45.3780 C   0  0  0  0  0  0  0  0  0  0  0  0
   44.6310   35.1960   45.5890 N   0  0  0  0  0  0  0  0  0  0  0  0
   48.4983   35.9448   42.5277 H   0  0  0  0  0  0  0  0  0  0  0  0
   49.7084   35.6159   40.4411 H   0  0  0  0  0  0  0  0  0  0  0  0
   48.7253   34.2194   38.6327 H   0  0  0  0  0  0  0  0  0  0  0  0
   45.1013   31.6901   39.7656 H   0  0  0  0  0  0  0  0  0  0  0  0
   44.3731   30.4622   37.7359 H   0  0  0  0  0  0  0  0  0  0  0  0
   46.9859   32.9538   35.3031 H   0  0  0  0  0  0  0  0  0  0  0  0
   43.8006   36.9807   44.7877 H   0  0  0  0  0  0  0  0  0  0  0  0
   45.0680   36.7452   42.6548 H   0  0  0  0  0  0  0  0  0  0  0  0
   45.5875   33.4037   46.1652 H   0  0  0  0  0  0  0  0  0  0  0  0
  2  1  1  0
  2  3  2  0
  3 18  1  0
  4  3  1  0
  5  4  2  0
  6  7  2  0
  6  5  1  0
  7  2  1  0
  8  9  1  0
  9 10  2  0
 10 11  1  0
 10  7  1  0
 12 11  2  0
 13 12  1  0
 14 13  1  0
 15 13  2  0
 15  9  1  0
 16 21  2  0
 17 16  1  0
 18 17  2  0
 18 19  1  0
 19 20  2  0
 20 21  1  0
  4 22  1  0
  5 23  1  0
  6 24  1  0
 11 25  1  0
 12 26  1  0
 15 27  1  0
 16 28  1  0
 17 29  1  0
 20 30  1  0
M  ISO  8  22  14  23  14  24  14  25  14  26  14  27  14  28  14  29  14
M  ISO  1  30  14
M  END
>  <minimizedAffinity>  (1) 
-6.2263608

>  <minimizedRMSD>  (1) 
0.152522489

$$$$
