
     RDKit          3D

 43 47  0  0  1  0  0  0  0  0999 V2000
   46.4980   32.4980   45.6540 C   0  0  1  0  0  0  0  0  0  0  0  0
   46.9610   32.7780   47.0220 C   0  0  0  0  0  0  0  0  0  0  0  0
   45.5680   32.1030   46.6930 C   0  0  2  0  0  0  0  0  0  0  0  0
   45.3160   30.7240   47.1190 C   0  0  0  0  0  0  0  0  0  0  0  0
   45.1960   30.2620   48.3940 C   0  0  0  0  0  0  0  0  0  0  0  0
   45.0830   28.9300   48.7690 C   0  0  0  0  0  0  0  0  0  0  0  0
   45.0950   27.9870   47.7240 C   0  0  0  0  0  0  0  0  0  0  0  0
   45.2140   28.4300   46.4050 C   0  0  0  0  0  0  0  0  0  0  0  0
   45.1630   27.4710   45.4090 C   0  0  0  0  0  0  0  0  0  0  0  0
   45.2120   27.8770   44.0870 C   0  0  0  0  0  0  0  0  0  0  0  0
   45.3070   29.2160   43.7620 C   0  0  0  0  0  0  0  0  0  0  0  0
   45.3550   30.1260   44.7900 C   0  0  0  0  0  0  0  0  0  0  0  0
   45.3190   29.7740   46.1260 C   0  0  0  0  0  0  0  0  0  0  0  0
   44.9510   35.5650   44.3120 C   0  0  0  0  0  0  0  0  0  0  0  0
   45.4440   35.5940   42.9630 C   0  0  0  0  0  0  0  0  0  0  0  0
   46.2970   34.5530   42.5650 C   0  0  0  0  0  0  0  0  0  0  0  0
   46.6020   33.6020   43.4530 N   0  0  0  0  0  0  0  0  0  0  0  0
   46.1230   33.6000   44.7260 C   0  0  0  0  0  0  0  0  0  0  0  0
   45.3130   34.5650   45.1420 N   0  0  0  0  0  0  0  0  0  0  0  0
   49.0370   35.9350   41.8140 Cl  0  0  0  0  0  0  0  0  0  0  0  0
   48.0740   34.9250   40.7760 C   0  0  0  0  0  0  0  0  0  0  0  0
   46.9040   34.4150   41.2800 C   0  0  0  0  0  0  0  0  0  0  0  0
   46.2450   33.6650   40.3170 C   0  0  0  0  0  0  0  0  0  0  0  0
   46.6870   33.4500   39.0310 C   0  0  0  0  0  0  0  0  0  0  0  0
   47.8760   34.0040   38.6210 C   0  0  0  0  0  0  0  0  0  0  0  0
   48.4470   33.7360   36.9910 Cl  0  0  0  0  0  0  0  0  0  0  0  0
   48.5840   34.7620   39.5240 C   0  0  0  0  0  0  0  0  0  0  0  0
   46.9706   31.9608   44.8185 H   0  0  0  0  0  0  0  0  0  0  0  0
   47.7763   32.1895   47.4681 H   0  0  0  0  0  0  0  0  0  0  0  0
   47.3080   33.6589   47.5820 H   0  0  0  0  0  0  0  0  0  0  0  0
   44.4987   32.2948   46.8659 H   0  0  0  0  0  0  0  0  0  0  0  0
   45.1878   31.0113   49.1993 H   0  0  0  0  0  0  0  0  0  0  0  0
   44.9894   28.6287   49.8228 H   0  0  0  0  0  0  0  0  0  0  0  0
   45.0115   26.9125   47.9440 H   0  0  0  0  0  0  0  0  0  0  0  0
   45.0848   26.4038   45.6637 H   0  0  0  0  0  0  0  0  0  0  0  0
   45.1749   27.1245   43.2856 H   0  0  0  0  0  0  0  0  0  0  0  0
   45.3431   29.5436   42.7125 H   0  0  0  0  0  0  0  0  0  0  0  0
   45.4260   31.1939   44.5358 H   0  0  0  0  0  0  0  0  0  0  0  0
   44.2779   36.3587   44.6684 H   0  0  0  0  0  0  0  0  0  0  0  0
   45.1639   36.4004   42.2693 H   0  0  0  0  0  0  0  0  0  0  0  0
   45.2890   33.2033   40.6050 H   0  0  0  0  0  0  0  0  0  0  0  0
   46.0923   32.8388   38.3362 H   0  0  0  0  0  0  0  0  0  0  0  0
   49.5404   35.2260   39.2413 H   0  0  0  0  0  0  0  0  0  0  0  0
  1  3  1  0
  1  2  1  0
  3  2  1  0
  3  4  1  0
  4  5  2  0
  5  6  1  0
  7  6  2  0
  8  7  1  0
  9  8  2  0
 10  9  1  0
 11 10  2  0
 11 12  1  0
 12 13  2  0
 13  8  1  0
 13  4  1  0
 14 19  2  0
 15 14  1  0
 16 15  2  0
 16 17  1  0
 17 18  2  0
 18 19  1  0
 18  1  1  0
 21 22  2  0
 21 20  1  0
 22 16  1  0
 23 22  1  0
 24 23  2  0
 25 24  1  0
 25 27  2  0
 26 25  1  0
 27 21  1  0
  1 28  1  6
  2 29  1  0
  2 30  1  0
  3 31  1  6
  5 32  1  0
  6 33  1  0
  7 34  1  0
  9 35  1  0
 10 36  1  0
 11 37  1  0
 12 38  1  0
 14 39  1  0
 15 40  1  0
 23 41  1  0
 24 42  1  0
 27 43  1  0
M  ISO  8  28  13  29  13  30  13  31  13  32  14  33  14  34  14  35  14
M  ISO  8  36  14  37  14  38  14  39  14  40  14  41  14  42  14  43  14
M  END
>  <minimizedAffinity>  (1) 
-6.38387442

>  <minimizedRMSD>  (1) 
0.717481911

$$$$
