
     RDKit          3D

 47 50  0  0  1  0  0  0  0  0999 V2000
   47.9830   34.3800   41.4460 C   0  0  0  0  0  0  0  0  0  0  0  0
   48.8410   35.6120   41.1560 C   0  0  0  0  0  0  0  0  0  0  0  0
   49.3550   34.4600   41.8590 C   0  0  0  0  0  0  0  0  0  0  0  0
   47.5820   33.6490   40.2150 C   0  0  0  0  0  0  0  0  0  0  0  0
   48.1260   34.2490   38.9230 C   0  0  0  0  0  0  0  0  0  0  0  0
   47.6990   33.2390   37.8330 C   0  0  0  0  0  0  0  0  0  0  0  0
   46.3320   33.4690   37.6190 O   0  0  0  0  0  0  0  0  0  0  0  0
   45.7340   32.8860   38.7640 C   0  0  0  0  0  0  0  0  0  0  0  0
   46.0470   33.7210   39.9950 C   0  0  0  0  0  0  0  0  0  0  0  0
   46.3190   35.8520   42.6600 C   0  0  0  0  0  0  0  0  0  0  0  0
   46.9130   34.5930   42.4820 C   0  0  0  0  0  0  0  0  0  0  0  0
   46.4710   33.5560   43.3090 C   0  0  0  0  0  0  0  0  0  0  0  0
   45.4990   33.8190   44.2300 N   0  0  0  0  0  0  0  0  0  0  0  0
   44.9780   35.0460   44.3440 C   0  0  0  0  0  0  0  0  0  0  0  0
   45.3670   36.0480   43.5850 N   0  0  0  0  0  0  0  0  0  0  0  0
   43.9530   35.3370   45.2980 N   0  0  0  0  0  0  0  0  0  0  0  0
   47.0210   32.2390   43.2520 C   0  0  0  0  0  0  0  0  0  0  0  0
   46.5020   31.2270   42.6530 O   0  0  0  0  0  0  0  0  0  0  0  0
   46.3640   30.9970   45.7440 Cl  0  0  0  0  0  0  0  0  0  0  0  0
   47.8250   30.6190   44.8170 C   0  0  0  0  0  0  0  0  0  0  0  0
   48.0480   31.2940   43.5990 C   0  0  0  0  0  0  0  0  0  0  0  0
   49.2110   30.8640   43.0420 C   0  0  0  0  0  0  0  0  0  0  0  0
   50.0850   29.9380   43.5160 C   0  0  0  0  0  0  0  0  0  0  0  0
   49.7300   29.3770   44.7070 C   0  0  0  0  0  0  0  0  0  0  0  0
   50.8380   28.1760   45.3660 Cl  0  0  0  0  0  0  0  0  0  0  0  0
   48.6190   29.6290   45.4690 C   0  0  0  0  0  0  0  0  0  0  0  0
   49.1716   35.8309   40.1299 H   0  0  0  0  0  0  0  0  0  0  0  0
   48.7677   36.6917   41.3531 H   0  0  0  0  0  0  0  0  0  0  0  0
   49.5905   34.5442   42.9302 H   0  0  0  0  0  0  0  0  0  0  0  0
   50.2277   33.8094   41.7006 H   0  0  0  0  0  0  0  0  0  0  0  0
   47.9757   32.6369   40.3900 H   0  0  0  0  0  0  0  0  0  0  0  0
   47.6833   35.2382   38.7345 H   0  0  0  0  0  0  0  0  0  0  0  0
   49.2146   34.4040   38.9536 H   0  0  0  0  0  0  0  0  0  0  0  0
   48.2668   33.4111   36.9067 H   0  0  0  0  0  0  0  0  0  0  0  0
   47.8933   32.2012   38.1417 H   0  0  0  0  0  0  0  0  0  0  0  0
   44.6441   32.8399   38.6224 H   0  0  0  0  0  0  0  0  0  0  0  0
   46.1348   31.8713   38.9041 H   0  0  0  0  0  0  0  0  0  0  0  0
   45.7373   34.7639   39.8326 H   0  0  0  0  0  0  0  0  0  0  0  0
   45.5065   33.3411   40.8745 H   0  0  0  0  0  0  0  0  0  0  0  0
   46.6400   36.6941   42.0292 H   0  0  0  0  0  0  0  0  0  0  0  0
   43.5683   36.2900   45.3660 H   0  0  0  0  0  0  0  0  0  0  0  0
   43.5995   34.5935   45.9170 H   0  0  0  0  0  0  0  0  0  0  0  0
   47.5631   32.5052   42.3326 H   0  0  0  0  0  0  0  0  0  0  0  0
   46.1703   30.5802   43.3251 H   0  0  0  0  0  0  0  0  0  0  0  0
   49.4800   31.3266   42.0809 H   0  0  0  0  0  0  0  0  0  0  0  0
   51.0060   29.6627   42.9813 H   0  0  0  0  0  0  0  0  0  0  0  0
   48.3785   29.1463   46.4277 H   0  0  0  0  0  0  0  0  0  0  0  0
  1  3  1  0
  1 11  1  0
  2  1  1  0
  2  3  1  0
  4  1  1  0
  5  4  1  0
  6  5  1  0
  7  6  1  0
  7  8  1  0
  8  9  1  0
  9  4  1  0
 10 15  2  0
 11 10  1  0
 11 12  2  0
 12 13  1  0
 13 14  2  0
 14 16  1  0
 15 14  1  0
 17 18  1  0
 17 12  1  0
 17 21  1  0
 20 26  2  0
 20 19  1  0
 21 20  1  0
 22 23  1  0
 22 21  2  0
 23 24  2  0
 24 25  1  0
 24 26  1  0
  2 27  1  0
  2 28  1  0
  3 29  1  0
  3 30  1  0
  4 31  1  0
  5 32  1  0
  5 33  1  0
  6 34  1  0
  6 35  1  0
  8 36  1  0
  8 37  1  0
  9 38  1  0
  9 39  1  0
 10 40  1  0
 16 41  1  0
 16 42  1  0
 17 43  1  0
 18 44  1  0
 22 45  1  0
 23 46  1  0
 26 47  1  0
M  ISO  8  27  13  28  13  29  13  30  13  31  13  32  13  33  13  34  13
M  ISO  8  35  13  36  13  37  13  38  13  39  13  40  14  43   8  44   3
M  ISO  3  45  14  46  14  47  14
M  END
>  <minimizedAffinity>  (1) 
-5.52974939

>  <minimizedRMSD>  (1) 
1.28610003

$$$$
