
     RDKit          3D

 37 39  0  0  0  0  0  0  0  0999 V2000
   44.6160   34.4370   41.0450 C   0  0  0  0  0  0  0  0  0  0  0  0
   44.2030   35.0350   42.2250 C   0  0  0  0  0  0  0  0  0  0  0  0
   45.1680   35.4770   43.1250 C   0  0  0  0  0  0  0  0  0  0  0  0
   46.4920   35.3180   42.8350 C   0  0  0  0  0  0  0  0  0  0  0  0
   46.9320   34.7280   41.6670 C   0  0  0  0  0  0  0  0  0  0  0  0
   45.9410   34.2940   40.7840 C   0  0  0  0  0  0  0  0  0  0  0  0
   41.5710   34.2760   38.8200 C   0  0  0  0  0  0  0  0  0  0  0  0
   42.5490   34.8090   39.6900 C   0  0  0  0  0  0  0  0  0  0  0  0
   43.5560   34.0010   40.1490 C   0  0  0  0  0  0  0  0  0  0  0  0
   43.5570   32.7100   39.7320 N   0  0  0  0  0  0  0  0  0  0  0  0
   42.6210   32.2020   38.8990 C   0  0  0  0  0  0  0  0  0  0  0  0
   41.6270   32.9820   38.4410 N   0  0  0  0  0  0  0  0  0  0  0  0
   40.4830   35.1350   38.3180 C   0  0  0  0  0  0  0  0  0  0  0  0
   39.8750   34.4620   37.2600 F   0  0  0  0  0  0  0  0  0  0  0  0
   41.0750   36.2580   37.7570 F   0  0  0  0  0  0  0  0  0  0  0  0
   39.5500   35.4460   39.2760 F   0  0  0  0  0  0  0  0  0  0  0  0
   47.1970   32.7380   39.1030 C   0  0  0  0  0  0  0  0  0  0  0  0
   48.0460   32.1840   39.7880 O   0  0  0  0  0  0  0  0  0  0  0  0
   46.2430   33.6780   39.5510 N   0  0  0  0  0  0  0  0  0  0  0  0
   48.7490   34.6520   37.5070 Cl  0  0  0  0  0  0  0  0  0  0  0  0
   47.9260   33.2200   36.9040 C   0  0  0  0  0  0  0  0  0  0  0  0
   47.2110   32.3550   37.6930 C   0  0  0  0  0  0  0  0  0  0  0  0
   46.5790   31.2330   37.1510 C   0  0  0  0  0  0  0  0  0  0  0  0
   46.6760   30.9890   35.7970 C   0  0  0  0  0  0  0  0  0  0  0  0
   47.3950   31.8680   35.0300 C   0  0  0  0  0  0  0  0  0  0  0  0
   47.5010   31.5360   33.3200 Cl  0  0  0  0  0  0  0  0  0  0  0  0
   48.0300   32.9860   35.5480 C   0  0  0  0  0  0  0  0  0  0  0  0
   43.1325   35.1580   42.4461 H   0  0  0  0  0  0  0  0  0  0  0  0
   44.8641   35.9537   44.0686 H   0  0  0  0  0  0  0  0  0  0  0  0
   47.2382   35.6740   43.5606 H   0  0  0  0  0  0  0  0  0  0  0  0
   48.0024   34.6067   41.4445 H   0  0  0  0  0  0  0  0  0  0  0  0
   42.5022   35.8644   39.9963 H   0  0  0  0  0  0  0  0  0  0  0  0
   42.6733   31.1461   38.5950 H   0  0  0  0  0  0  0  0  0  0  0  0
   45.6163   33.9890   38.7951 H   0  0  0  0  0  0  0  0  0  0  0  0
   46.0091   30.5503   37.7984 H   0  0  0  0  0  0  0  0  0  0  0  0
   46.1892   30.1123   35.3449 H   0  0  0  0  0  0  0  0  0  0  0  0
   48.5997   33.6662   34.8977 H   0  0  0  0  0  0  0  0  0  0  0  0
  1  2  2  0
  2  3  1  0
  4  3  2  0
  5  4  1  0
  6  1  1  0
  6  5  2  0
  7  8  2  0
  8  9  1  0
  9  1  1  0
 10  9  2  0
 11 10  1  0
 12  7  1  0
 12 11  2  0
 13  7  1  0
 13 16  1  0
 14 13  1  0
 15 13  1  0
 17 19  1  0
 17 18  2  0
 19  6  1  0
 21 20  1  0
 21 22  2  0
 22 17  1  0
 23 22  1  0
 24 23  2  0
 25 27  2  0
 25 24  1  0
 26 25  1  0
 27 21  1  0
  2 28  1  0
  3 29  1  0
  4 30  1  0
  5 31  1  0
  8 32  1  0
 11 33  1  0
 19 34  1  0
 23 35  1  0
 24 36  1  0
 27 37  1  0
M  ISO  8  28  14  29  14  30  14  31  14  32  14  33  14  35  14  36  14
M  ISO  1  37  14
M  END
>  <minimizedAffinity>  (1) 
-6.2942071

>  <minimizedRMSD>  (1) 
2.67266011

$$$$
