
     RDKit          3D

 35 36  0  0  0  0  0  0  0  0999 V2000
   46.4540   32.2180   47.6750 C   0  0  0  0  0  0  0  0  0  0  0  0
   46.4900   32.7810   45.4240 C   0  0  0  0  0  0  0  0  0  0  0  0
   45.8360   31.8370   44.9260 O   0  0  0  0  0  0  0  0  0  0  0  0
   46.8870   33.1750   46.7180 N   0  0  0  0  0  0  0  0  0  0  0  0
   44.8200   35.1800   44.5110 Cl  0  0  0  0  0  0  0  0  0  0  0  0
   46.2040   34.6110   43.6090 C   0  0  0  0  0  0  0  0  0  0  0  0
   46.8190   33.5270   44.1860 C   0  0  0  0  0  0  0  0  0  0  0  0
   47.9440   32.9400   43.6000 C   0  0  0  0  0  0  0  0  0  0  0  0
   48.4580   33.4570   42.4140 C   0  0  0  0  0  0  0  0  0  0  0  0
   47.8310   34.5480   41.8420 C   0  0  0  0  0  0  0  0  0  0  0  0
   48.4220   35.2460   40.3530 Cl  0  0  0  0  0  0  0  0  0  0  0  0
   46.7220   35.1120   42.4360 C   0  0  0  0  0  0  0  0  0  0  0  0
   48.5590   31.4510   48.6230 C   0  0  0  0  0  0  0  0  0  0  0  0
   47.4200   32.0580   48.7930 C   0  0  0  0  0  0  0  0  0  0  0  0
   51.2900   32.1510   50.9350 C   0  0  0  0  0  0  0  0  0  0  0  0
   51.3760   30.9500   51.6720 C   0  0  0  0  0  0  0  0  0  0  0  0
   50.4940   29.9080   51.3670 C   0  0  0  0  0  0  0  0  0  0  0  0
   49.6170   30.1300   50.3840 N   0  0  0  0  0  0  0  0  0  0  0  0
   49.5370   31.2690   49.6860 C   0  0  0  0  0  0  0  0  0  0  0  0
   50.3790   32.2930   49.9610 N   0  0  0  0  0  0  0  0  0  0  0  0
   50.4880   28.7060   52.0130 O   0  0  0  0  0  0  0  0  0  0  0  0
   51.4950   27.7650   51.6210 C   0  0  0  0  0  0  0  0  0  0  0  0
   51.9460   28.0830   50.3380 F   0  0  0  0  0  0  0  0  0  0  0  0
   52.5640   27.9220   52.5190 F   0  0  0  0  0  0  0  0  0  0  0  0
   51.0470   26.4520   51.6770 F   0  0  0  0  0  0  0  0  0  0  0  0
   46.3308   31.2471   47.1729 H   0  0  0  0  0  0  0  0  0  0  0  0
   45.5045   32.5750   48.1005 H   0  0  0  0  0  0  0  0  0  0  0  0
   47.4143   34.0320   46.9378 H   0  0  0  0  0  0  0  0  0  0  0  0
   48.4225   32.0709   44.0752 H   0  0  0  0  0  0  0  0  0  0  0  0
   49.3440   33.0070   41.9423 H   0  0  0  0  0  0  0  0  0  0  0  0
   46.2409   35.9806   41.9627 H   0  0  0  0  0  0  0  0  0  0  0  0
   48.7948   31.0550   47.6242 H   0  0  0  0  0  0  0  0  0  0  0  0
   47.1673   32.4609   49.7849 H   0  0  0  0  0  0  0  0  0  0  0  0
   51.9775   32.9792   51.1620 H   0  0  0  0  0  0  0  0  0  0  0  0
   52.1229   30.8357   52.4714 H   0  0  0  0  0  0  0  0  0  0  0  0
  1 14  1  0
  2  4  1  0
  3  2  2  0
  4  1  1  0
  6  7  2  0
  6  5  1  0
  7  2  1  0
  8  7  1  0
  9  8  2  0
 10  9  1  0
 10 12  2  0
 11 10  1  0
 12  6  1  0
 13 14  2  0
 13 19  1  0
 15 16  2  0
 17 16  1  0
 17 21  1  0
 18 17  2  0
 19 20  2  0
 19 18  1  0
 20 15  1  0
 22 25  1  0
 22 21  1  0
 22 24  1  0
 23 22  1  0
  1 26  1  0
  1 27  1  0
  4 28  1  0
  8 29  1  0
  9 30  1  0
 12 31  1  0
 13 32  1  0
 14 33  1  0
 15 34  1  0
 16 35  1  0
M  ISO  7  26   8  27   8  29  14  30  14  31  14  34  14  35  14
M  END
>  <minimizedAffinity>  (1) 
-6.31453991

>  <minimizedRMSD>  (1) 
9.61411285

$$$$
