
     RDKit          3D

 42 45  0  0  0  0  0  0  0  0999 V2000
   45.8260   30.0540   48.4320 C   0  0  0  0  0  0  0  0  0  0  0  0
   45.0000   27.6590   48.0140 C   0  0  0  0  0  0  0  0  0  0  0  0
   45.0750   29.0150   47.7440 C   0  0  0  0  0  0  0  0  0  0  0  0
   44.3300   29.4560   46.6630 C   0  0  0  0  0  0  0  0  0  0  0  0
   43.5680   28.6070   45.9110 C   0  0  0  0  0  0  0  0  0  0  0  0
   42.7650   28.7530   44.8350 N   0  0  0  0  0  0  0  0  0  0  0  0
   42.2300   27.5840   44.4600 C   0  0  0  0  0  0  0  0  0  0  0  0
   42.6890   26.5970   45.3180 C   0  0  0  0  0  0  0  0  0  0  0  0
   43.5050   27.2710   46.1900 C   0  0  0  0  0  0  0  0  0  0  0  0
   44.2370   26.8160   47.2580 C   0  0  0  0  0  0  0  0  0  0  0  0
   44.2110   25.4020   47.6050 C   0  0  0  0  0  0  0  0  0  0  0  0
   44.9040   24.9440   48.5460 O   0  0  0  0  0  0  0  0  0  0  0  0
   47.2450   30.2410   48.0240 C   0  0  0  0  0  0  0  0  0  0  0  0
   47.0630   32.2260   45.0520 C   0  0  0  0  0  0  0  0  0  0  0  0
   47.7100   31.0550   44.5840 C   0  0  0  0  0  0  0  0  0  0  0  0
   47.8500   30.1960   45.6180 C   0  0  0  0  0  0  0  0  0  0  0  0
   47.3140   30.8030   46.6870 N   0  0  0  0  0  0  0  0  0  0  0  0
   46.8470   32.0070   46.3490 N   0  0  0  0  0  0  0  0  0  0  0  0
   45.2180   35.0070   43.5910 C   0  0  0  0  0  0  0  0  0  0  0  0
   46.1060   35.5250   42.6400 C   0  0  0  0  0  0  0  0  0  0  0  0
   47.3450   34.8940   42.5230 C   0  0  0  0  0  0  0  0  0  0  0  0
   47.5940   33.8420   43.3220 N   0  0  0  0  0  0  0  0  0  0  0  0
   46.7500   33.3570   44.2180 C   0  0  0  0  0  0  0  0  0  0  0  0
   45.5490   33.9550   44.3450 N   0  0  0  0  0  0  0  0  0  0  0  0
   48.3680   35.3390   41.5630 C   0  0  0  0  0  0  0  0  0  0  0  0
   45.3037   31.0076   48.2649 H   0  0  0  0  0  0  0  0  0  0  0  0
   45.8698   29.7288   49.4819 H   0  0  0  0  0  0  0  0  0  0  0  0
   45.5707   27.2497   48.8607 H   0  0  0  0  0  0  0  0  0  0  0  0
   44.3525   30.5242   46.4014 H   0  0  0  0  0  0  0  0  0  0  0  0
   42.5865   29.6505   44.3623 H   0  0  0  0  0  0  0  0  0  0  0  0
   41.5428   27.4328   43.6145 H   0  0  0  0  0  0  0  0  0  0  0  0
   42.4535   25.5226   45.3030 H   0  0  0  0  0  0  0  0  0  0  0  0
   43.5690   24.7193   47.0290 H   0  0  0  0  0  0  0  0  0  0  0  0
   47.7390   30.9239   48.7308 H   0  0  0  0  0  0  0  0  0  0  0  0
   47.7508   29.2642   48.0286 H   0  0  0  0  0  0  0  0  0  0  0  0
   48.0428   30.8752   43.5511 H   0  0  0  0  0  0  0  0  0  0  0  0
   48.3116   29.1980   45.5886 H   0  0  0  0  0  0  0  0  0  0  0  0
   44.2306   35.4745   43.7194 H   0  0  0  0  0  0  0  0  0  0  0  0
   45.8391   36.3894   42.0142 H   0  0  0  0  0  0  0  0  0  0  0  0
   49.2432   35.7197   42.1099 H   0  0  0  0  0  0  0  0  0  0  0  0
   48.6710   34.4913   40.9308 H   0  0  0  0  0  0  0  0  0  0  0  0
   47.9544   36.1385   40.9308 H   0  0  0  0  0  0  0  0  0  0  0  0
  3  2  2  0
  3  1  1  0
  4  3  1  0
  5  9  1  0
  5  4  2  0
  6  5  1  0
  7  6  1  0
  7  8  2  0
  8  9  1  0
  9 10  2  0
 10 11  1  0
 10  2  1  0
 11 12  2  0
 13  1  1  0
 14 18  2  0
 15 14  1  0
 15 16  2  0
 16 17  1  0
 17 13  1  0
 18 17  1  0
 19 24  2  0
 20 19  1  0
 21 20  2  0
 21 22  1  0
 22 23  2  0
 23 24  1  0
 23 14  1  0
 25 21  1  0
  1 26  1  0
  1 27  1  0
  2 28  1  0
  4 29  1  0
  6 30  1  0
  7 31  1  0
  8 32  1  0
 11 33  1  0
 13 34  1  0
 13 35  1  0
 15 36  1  0
 16 37  1  0
 19 38  1  0
 20 39  1  0
 25 40  1  0
 25 41  1  0
 25 42  1  0
M  ISO  8  26   8  27   8  28  14  29  14  30   9  31  14  32  14  33   6
M  ISO  8  34   8  35   8  36  14  37  14  38  14  39  14  40   8  41   8
M  ISO  1  42   8
M  END
>  <minimizedAffinity>  (1) 
-5.22352457

>  <minimizedRMSD>  (1) 
0.831656635

$$$$
