
     RDKit          3D

 22 22  0  0  0  0  0  0  0  0999 V2000
   45.4100   34.6090   44.5290 C   0  0  0  0  0  0  0  0  0  0  0  0
   46.3990   33.9980   43.7510 C   0  0  0  0  0  0  0  0  0  0  0  0
   47.1420   32.9760   44.3440 C   0  0  0  0  0  0  0  0  0  0  0  0
   46.8740   32.6370   45.6130 N   0  0  0  0  0  0  0  0  0  0  0  0
   45.8970   33.2640   46.3340 C   0  0  0  0  0  0  0  0  0  0  0  0
   45.1640   34.2540   45.7850 N   0  0  0  0  0  0  0  0  0  0  0  0
   44.6170   35.7140   43.8830 C   0  0  0  0  0  0  0  0  0  0  0  0
   45.7280   32.8090   47.6400 O   0  0  0  0  0  0  0  0  0  0  0  0
   44.8250   31.2150   49.4560 O   0  0  0  0  0  0  0  0  0  0  0  0
   45.4960   31.2070   48.0890 P   0  0  1  0  0  0  0  0  0  0  0  0
   44.4610   30.3640   47.0560 O   0  0  0  0  0  0  0  0  0  0  0  0
   46.9770   30.3790   48.1490 O   0  0  0  0  0  0  0  0  0  0  0  0
   47.8300   31.1570   48.9560 C   0  0  0  0  0  0  0  0  0  0  0  0
   46.5839   34.3107   42.7127 H   0  0  0  0  0  0  0  0  0  0  0  0
   47.9325   32.4585   43.7807 H   0  0  0  0  0  0  0  0  0  0  0  0
   44.1645   36.3446   44.6625 H   0  0  0  0  0  0  0  0  0  0  0  0
   45.2833   36.3260   43.2573 H   0  0  0  0  0  0  0  0  0  0  0  0
   43.8239   35.2787   43.2573 H   0  0  0  0  0  0  0  0  0  0  0  0
   43.8157   29.8384   47.5922 H   0  0  0  0  0  0  0  0  0  0  0  0
   47.6130   30.9591   50.0161 H   0  0  0  0  0  0  0  0  0  0  0  0
   48.8768   30.8961   48.7411 H   0  0  0  0  0  0  0  0  0  0  0  0
   47.6663   32.2233   48.7411 H   0  0  0  0  0  0  0  0  0  0  0  0
  1  6  2  0
  2  3  2  0
  2  1  1  0
  3  4  1  0
  4  5  2  0
  5  8  1  0
  6  5  1  0
  7  1  1  0
  8 10  1  0
 10 12  1  0
 10  9  2  0
 11 10  1  0
 12 13  1  0
  2 14  1  0
  3 15  1  0
  7 16  1  0
  7 17  1  0
  7 18  1  0
 11 19  1  0
 13 20  1  0
 13 21  1  0
 13 22  1  0
M  ISO  8  14  14  15  14  16   8  17   8  18   8  19   3  20   8  21   8
M  ISO  1  22   8
M  END
>  <minimizedAffinity>  (1) 
-4.0762639

>  <minimizedRMSD>  (1) 
0.635735333

$$$$
