
     RDKit          3D

 51 54  0  0  1  0  0  0  0  0999 V2000
   48.0670   33.3320   42.3990 C   0  0  1  0  0  0  0  0  0  0  0  0
   46.5980   33.6580   42.1490 C   0  0  2  0  0  0  0  0  0  0  0  0
   46.4410   34.5860   41.1570 O   0  0  0  0  0  0  0  0  0  0  0  0
   46.7840   33.9930   39.9760 C   0  0  0  0  0  0  0  0  0  0  0  0
   48.2680   33.7910   39.9370 C   0  0  2  0  0  0  0  0  0  0  0  0
   48.8760   33.1790   41.1830 C   0  0  2  0  0  0  0  0  0  0  0  0
   44.6070   35.7660   44.5900 C   0  0  0  0  0  0  0  0  0  0  0  0
   45.1880   35.3400   43.3900 C   0  0  0  0  0  0  0  0  0  0  0  0
   45.9630   34.1340   43.3840 C   0  0  0  0  0  0  0  0  0  0  0  0
   46.1060   33.4490   44.5370 N   0  0  0  0  0  0  0  0  0  0  0  0
   45.5180   33.9050   45.6940 C   0  0  0  0  0  0  0  0  0  0  0  0
   44.7760   35.0520   45.7170 N   0  0  0  0  0  0  0  0  0  0  0  0
   48.6410   34.1950   43.3210 O   0  0  0  0  0  0  0  0  0  0  0  0
   48.8070   35.0700   39.7170 O   0  0  0  0  0  0  0  0  0  0  0  0
   49.2390   31.8580   40.8930 O   0  0  0  0  0  0  0  0  0  0  0  0
   51.4090   32.2630   41.7050 N   0  0  0  0  0  0  0  0  0  0  0  0
   51.1300   31.3660   42.8350 C   0  0  0  0  0  0  0  0  0  0  0  0
   51.5600   30.0500   42.2300 C   0  0  0  0  0  0  0  0  0  0  0  0
   50.9120   30.1620   40.8690 C   0  0  0  0  0  0  0  0  0  0  0  0
   50.5740   31.6650   40.6940 C   0  0  1  0  0  0  0  0  0  0  0  0
   50.4290   31.5530   38.1580 C   0  0  1  0  0  0  0  0  0  0  0  0
   51.1830   31.9660   39.3660 C   0  0  2  0  0  0  0  0  0  0  0  0
   52.5070   31.2420   39.2710 C   0  0  0  0  0  0  0  0  0  0  0  0
   52.4280   30.3690   38.2030 O   0  0  0  0  0  0  0  0  0  0  0  0
   51.4450   30.8010   37.3300 C   0  0  0  0  0  0  0  0  0  0  0  0
   49.2960   30.7820   38.4110 O   0  0  0  0  0  0  0  0  0  0  0  0
   48.0648   32.3279   42.8482 H   0  0  0  0  0  0  0  0  0  0  0  0
   46.1089   32.7294   41.8198 H   0  0  0  0  0  0  0  0  0  0  0  0
   46.2782   33.0197   39.8928 H   0  0  0  0  0  0  0  0  0  0  0  0
   46.4771   34.6357   39.1377 H   0  0  0  0  0  0  0  0  0  0  0  0
   48.5025   33.0604   39.1488 H   0  0  0  0  0  0  0  0  0  0  0  0
   49.7805   33.7473   41.4457 H   0  0  0  0  0  0  0  0  0  0  0  0
   44.0093   36.6892   44.6113 H   0  0  0  0  0  0  0  0  0  0  0  0
   45.0521   35.9214   42.4661 H   0  0  0  0  0  0  0  0  0  0  0  0
   45.6485   33.3319   46.6238 H   0  0  0  0  0  0  0  0  0  0  0  0
   48.4340   33.8837   44.2377 H   0  0  0  0  0  0  0  0  0  0  0  0
   48.9903   35.5050   40.5872 H   0  0  0  0  0  0  0  0  0  0  0  0
   51.1269   33.2325   41.9086 H   0  0  0  0  0  0  0  0  0  0  0  0
   51.7294   31.6246   43.7204 H   0  0  0  0  0  0  0  0  0  0  0  0
   50.0945   31.3919   43.2053 H   0  0  0  0  0  0  0  0  0  0  0  0
   52.6548   29.9733   42.1557 H   0  0  0  0  0  0  0  0  0  0  0  0
   51.2730   29.1590   42.8077 H   0  0  0  0  0  0  0  0  0  0  0  0
   51.6072   29.8303   40.0837 H   0  0  0  0  0  0  0  0  0  0  0  0
   50.0151   29.5300   40.7906 H   0  0  0  0  0  0  0  0  0  0  0  0
   50.0100   32.4326   37.6474 H   0  0  0  0  0  0  0  0  0  0  0  0
   51.2301   33.0649   39.3514 H   0  0  0  0  0  0  0  0  0  0  0  0
   53.3193   31.9651   39.1056 H   0  0  0  0  0  0  0  0  0  0  0  0
   52.7174   30.6961   40.2025 H   0  0  0  0  0  0  0  0  0  0  0  0
   50.9700   29.9396   36.8376 H   0  0  0  0  0  0  0  0  0  0  0  0
   51.8684   31.4435   36.5439 H   0  0  0  0  0  0  0  0  0  0  0  0
   49.1678   30.6948   39.3888 H   0  0  0  0  0  0  0  0  0  0  0  0
  1 13  1  0
  2  1  1  0
  2  9  1  0
  3  2  1  0
  4  3  1  0
  5  4  1  0
  5  6  1  0
  6  1  1  0
  7 12  2  0
  8  7  1  0
  9  8  2  0
  9 10  1  0
 10 11  2  0
 11 12  1  0
 14  5  1  0
 15  6  1  0
 16 17  1  0
 18 17  1  0
 19 18  1  0
 20 19  1  0
 20 15  1  6
 20 16  1  0
 21 26  1  0
 21 22  1  0
 22 23  1  0
 22 20  1  0
 24 23  1  0
 25 21  1  0
 25 24  1  0
  1 27  1  1
  2 28  1  6
  4 29  1  0
  4 30  1  0
  5 31  1  6
  6 32  1  1
  7 33  1  0
  8 34  1  0
 11 35  1  0
 13 36  1  0
 14 37  1  0
 16 38  1  0
 17 39  1  0
 17 40  1  0
 18 41  1  0
 18 42  1  0
 19 43  1  0
 19 44  1  0
 21 45  1  6
 22 46  1  6
 23 47  1  0
 23 48  1  0
 25 49  1  0
 25 50  1  0
 26 51  1  0
M  ISO  8  27  13  28  13  29  13  30  13  31  13  32  13  33  14  34  14
M  ISO  8  35  14  36   3  37   3  38   5  39  13  40  13  41  13  42  13
M  ISO  8  43  13  44  13  45  13  46  13  47  13  48  13  49  13  50  13
M  ISO  1  51   3
M  END
>  <minimizedAffinity>  (1) 
-5.54377937

>  <minimizedRMSD>  (1) 
0.859154284

$$$$
