
     RDKit          3D

 38 41  0  0  1  0  0  0  0  0999 V2000
   47.7700   32.1670   48.3350 C   0  0  0  0  0  0  0  0  0  0  0  0
   47.5910   30.7810   48.2530 C   0  0  0  0  0  0  0  0  0  0  0  0
   46.8600   30.2890   47.2110 C   0  0  0  0  0  0  0  0  0  0  0  0
   46.3560   31.1660   46.3250 N   0  0  0  0  0  0  0  0  0  0  0  0
   46.5060   32.4710   46.3750 C   0  0  0  0  0  0  0  0  0  0  0  0
   47.2270   32.9540   47.4040 N   0  0  0  0  0  0  0  0  0  0  0  0
   46.0360   33.5560   45.5110 C   0  0  0  0  0  0  0  0  0  0  0  0
   45.0410   34.4140   45.8430 N   0  0  0  0  0  0  0  0  0  0  0  0
   44.5780   35.4110   45.1060 C   0  0  0  0  0  0  0  0  0  0  0  0
   45.1310   35.6330   43.8800 N   0  0  0  0  0  0  0  0  0  0  0  0
   46.1320   34.8490   43.4280 C   0  0  0  0  0  0  0  0  0  0  0  0
   46.6850   35.0820   42.1850 C   0  0  0  0  0  0  0  0  0  0  0  0
   47.7060   34.2900   41.7140 C   0  0  0  0  0  0  0  0  0  0  0  0
   48.1460   33.2690   42.5260 C   0  0  0  0  0  0  0  0  0  0  0  0
   47.5650   33.0770   43.7520 C   0  0  0  0  0  0  0  0  0  0  0  0
   46.5480   33.8350   44.2660 C   0  0  0  0  0  0  0  0  0  0  0  0
   45.4010   28.3690   47.8020 C   0  0  2  0  0  0  0  0  0  0  0  0
   46.6350   28.8740   47.0640 C   0  0  1  0  0  0  0  0  0  0  0  0
   46.4590   28.2850   45.7290 C   0  0  0  0  0  0  0  0  0  0  0  0
   45.0920   28.2050   45.4770 O   0  0  0  0  0  0  0  0  0  0  0  0
   44.4400   28.1470   46.6710 C   0  0  0  0  0  0  0  0  0  0  0  0
   44.9580   29.2550   48.7700 O   0  0  0  0  0  0  0  0  0  0  0  0
   48.1860   29.9940   49.2590 N   0  0  0  0  0  0  0  0  0  0  0  0
   48.3530   32.6035   49.1594 H   0  0  0  0  0  0  0  0  0  0  0  0
   43.7618   36.0489   45.4760 H   0  0  0  0  0  0  0  0  0  0  0  0
   46.3058   35.9083   41.5657 H   0  0  0  0  0  0  0  0  0  0  0  0
   48.1545   34.4658   40.7251 H   0  0  0  0  0  0  0  0  0  0  0  0
   48.9608   32.6099   42.1919 H   0  0  0  0  0  0  0  0  0  0  0  0
   47.9450   32.2504   44.3704 H   0  0  0  0  0  0  0  0  0  0  0  0
   45.5673   27.4593   48.3977 H   0  0  0  0  0  0  0  0  0  0  0  0
   47.6080   28.5591   47.4692 H   0  0  0  0  0  0  0  0  0  0  0  0
   46.9425   28.9207   44.9726 H   0  0  0  0  0  0  0  0  0  0  0  0
   46.9172   27.2859   45.6859 H   0  0  0  0  0  0  0  0  0  0  0  0
   43.6625   28.9247   46.6978 H   0  0  0  0  0  0  0  0  0  0  0  0
   43.9830   27.1524   46.7805 H   0  0  0  0  0  0  0  0  0  0  0  0
   45.1442   28.8826   49.6682 H   0  0  0  0  0  0  0  0  0  0  0  0
   48.0816   28.9695   49.2406 H   0  0  0  0  0  0  0  0  0  0  0  0
   48.7253   30.4432   50.0128 H   0  0  0  0  0  0  0  0  0  0  0  0
  2  1  2  0
  2 23  1  0
  3  2  1  0
  4  5  1  0
  4  3  2  0
  5  6  2  0
  6  1  1  0
  7  8  2  0
  7  5  1  0
  9  8  1  0
 10  9  2  0
 11 10  1  0
 11 16  2  0
 12 11  1  0
 13 12  2  0
 13 14  1  0
 14 15  2  0
 15 16  1  0
 16  7  1  0
 17 22  1  0
 18  3  1  0
 18 17  1  0
 19 18  1  0
 20 19  1  0
 20 21  1  0
 21 17  1  0
  1 24  1  0
  9 25  1  0
 12 26  1  0
 13 27  1  0
 14 28  1  0
 15 29  1  0
 17 30  1  1
 18 31  1  1
 19 32  1  0
 19 33  1  0
 21 34  1  0
 21 35  1  0
 22 36  1  0
 23 37  1  0
 23 38  1  0
M  ISO  8  24  14  25  14  26  14  27  14  28  14  29  14  30  13  31  13
M  ISO  5  32  13  33  13  34  13  35  13  36   3
M  END
>  <minimizedAffinity>  (1) 
-6.33278513

>  <minimizedRMSD>  (1) 
0.941085279

$$$$
