
     RDKit          3D

 48 50  0  0  1  0  0  0  0  0999 V2000
   41.7410   34.4850   41.2550 C   0  0  0  0  0  0  0  0  0  0  0  0
   40.5420   32.4620   41.9640 C   0  0  0  0  0  0  0  0  0  0  0  0
   40.5320   33.5880   41.1420 C   0  0  0  0  0  0  0  0  0  0  0  0
   39.4620   33.7930   40.3230 C   0  0  0  0  0  0  0  0  0  0  0  0
   38.4840   32.8700   40.3810 N   0  0  0  0  0  0  0  0  0  0  0  0
   38.5010   31.8160   41.1530 C   0  0  0  0  0  0  0  0  0  0  0  0
   39.5600   31.5600   42.0020 N   0  0  0  0  0  0  0  0  0  0  0  0
   37.4040   30.9120   41.1120 N   0  0  0  0  0  0  0  0  0  0  0  0
   39.3550   34.4680   38.0130 C   0  0  1  0  0  0  0  0  0  0  0  0
   39.4370   34.9710   39.4360 C   0  0  2  0  0  0  0  0  0  0  0  0
   40.8040   35.6500   39.4100 C   0  0  0  0  0  0  0  0  0  0  0  0
   41.3500   35.4570   38.1640 O   0  0  0  0  0  0  0  0  0  0  0  0
   40.2410   35.4840   37.2880 C   0  0  0  0  0  0  0  0  0  0  0  0
   39.9850   33.2380   37.8590 O   0  0  0  0  0  0  0  0  0  0  0  0
   42.9040   33.8320   40.9910 O   0  0  0  0  0  0  0  0  0  0  0  0
   44.0850   33.8200   41.6990 C   0  0  0  0  0  0  0  0  0  0  0  0
   44.1380   34.6400   42.7440 C   0  0  0  0  0  0  0  0  0  0  0  0
   45.3580   34.7640   43.6360 C   0  0  0  0  0  0  0  0  0  0  0  0
   45.1210   33.9930   44.7570 O   0  0  0  0  0  0  0  0  0  0  0  0
   45.8530   31.6750   43.6500 O   0  0  0  0  0  0  0  0  0  0  0  0
   46.1540   32.6610   44.7680 P   0  0  1  0  0  0  0  0  0  0  0  0
   47.7640   33.1810   44.5260 O   0  0  0  0  0  0  0  0  0  0  0  0
   46.1160   31.8800   46.2470 O   0  0  0  0  0  0  0  0  0  0  0  0
   46.5680   32.6910   47.2840 C   0  0  0  0  0  0  0  0  0  0  0  0
   47.5960   32.0880   48.2110 C   0  0  0  0  0  0  0  0  0  0  0  0
   46.1560   32.2890   48.6690 C   0  0  0  0  0  0  0  0  0  0  0  0
   41.6325   35.3140   40.5401 H   0  0  0  0  0  0  0  0  0  0  0  0
   41.7908   34.8472   42.2925 H   0  0  0  0  0  0  0  0  0  0  0  0
   41.4113   32.3083   42.6202 H   0  0  0  0  0  0  0  0  0  0  0  0
   37.4024   30.0765   41.7144 H   0  0  0  0  0  0  0  0  0  0  0  0
   36.6111   31.0927   40.4799 H   0  0  0  0  0  0  0  0  0  0  0  0
   38.3150   34.3608   37.6711 H   0  0  0  0  0  0  0  0  0  0  0  0
   38.6202   35.6247   39.7758 H   0  0  0  0  0  0  0  0  0  0  0  0
   40.6899   36.7266   39.6050 H   0  0  0  0  0  0  0  0  0  0  0  0
   41.4580   35.2225   40.1843 H   0  0  0  0  0  0  0  0  0  0  0  0
   40.5063   35.1530   36.2731 H   0  0  0  0  0  0  0  0  0  0  0  0
   39.7916   36.4732   37.1163 H   0  0  0  0  0  0  0  0  0  0  0  0
   40.1816   32.8541   38.7501 H   0  0  0  0  0  0  0  0  0  0  0  0
   44.9297   33.1738   41.4181 H   0  0  0  0  0  0  0  0  0  0  0  0
   43.2563   35.2569   42.9721 H   0  0  0  0  0  0  0  0  0  0  0  0
   46.2506   34.3976   43.1077 H   0  0  0  0  0  0  0  0  0  0  0  0
   45.5357   35.8136   43.9129 H   0  0  0  0  0  0  0  0  0  0  0  0
   48.2006   33.3220   45.4033 H   0  0  0  0  0  0  0  0  0  0  0  0
   46.5076   33.6187   46.6960 H   0  0  0  0  0  0  0  0  0  0  0  0
   47.9798   31.0740   48.0251 H   0  0  0  0  0  0  0  0  0  0  0  0
   48.5852   32.3907   48.5849 H   0  0  0  0  0  0  0  0  0  0  0  0
   45.9192   33.0590   49.4180 H   0  0  0  0  0  0  0  0  0  0  0  0
   45.3755   31.6389   49.0911 H   0  0  0  0  0  0  0  0  0  0  0  0
  2  7  2  0
  3  1  1  0
  3  2  1  0
  4  5  1  0
  4  3  2  0
  5  6  2  0
  6  7  1  0
  8  6  1  0
  9 14  1  0
  9 10  1  0
 10  4  1  0
 11 10  1  0
 12 11  1  0
 13  9  1  0
 13 12  1  0
 15  1  1  0
 15 16  1  0
 16 17  2  0
 17 18  1  0
 18 19  1  0
 19 21  1  0
 21 20  2  0
 21 23  1  0
 22 21  1  0
 23 24  1  0
 24 25  1  0
 24 26  1  0
 25 26  1  0
  1 27  1  0
  1 28  1  0
  2 29  1  0
  8 30  1  0
  8 31  1  0
  9 32  1  6
 10 33  1  1
 11 34  1  0
 11 35  1  0
 13 36  1  0
 13 37  1  0
 14 38  1  0
 16 39  1  0
 17 40  1  0
 18 41  1  0
 18 42  1  0
 22 43  1  0
 24 44  1  0
 25 45  1  0
 25 46  1  0
 26 47  1  0
 26 48  1  0
M  ISO  8  27   8  28   8  29  14  32  13  33  13  34  13  35  13  36  13
M  ISO  8  37  13  38   3  41   8  42   8  43   3  44  13  45  13  46  13
M  ISO  2  47  13  48  13
M  END
>  <minimizedAffinity>  (1) 
-5.20649529

>  <minimizedRMSD>  (1) 
1.10004115

$$$$
