
     RDKit          3D

 29 30  0  0  1  0  0  0  0  0999 V2000
   41.6370   35.6280   40.3170 C   0  0  0  0  0  0  0  0  0  0  0  0
   39.0040   33.0980   39.9660 C   0  0  1  0  0  0  0  0  0  0  0  0
   40.0260   34.0190   39.2860 C   0  0  0  0  0  0  0  0  0  0  0  0
   40.2300   35.0310   40.3730 C   0  0  1  0  0  0  0  0  0  0  0  0
   40.0310   34.4040   41.5900 O   0  0  0  0  0  0  0  0  0  0  0  0
   39.6330   33.1010   41.3650 C   0  0  0  0  0  0  0  0  0  0  0  0
   37.7960   33.7540   40.0760 O   0  0  0  0  0  0  0  0  0  0  0  0
   43.5530   35.2690   41.8430 C   0  0  0  0  0  0  0  0  0  0  0  0
   42.2640   35.2210   41.6110 C   0  0  0  0  0  0  0  0  0  0  0  0
   44.2410   35.6940   44.2080 C   0  0  0  0  0  0  0  0  0  0  0  0
   44.2190   34.8900   43.0710 C   0  0  0  0  0  0  0  0  0  0  0  0
   44.8760   33.6660   43.1400 C   0  0  0  0  0  0  0  0  0  0  0  0
   45.5100   33.3060   44.3080 N   0  0  0  0  0  0  0  0  0  0  0  0
   45.5020   34.1210   45.3830 C   0  0  0  0  0  0  0  0  0  0  0  0
   44.8690   35.3060   45.3230 N   0  0  0  0  0  0  0  0  0  0  0  0
   41.5920   36.7239   40.2338 H   0  0  0  0  0  0  0  0  0  0  0  0
   42.2078   35.2762   39.4450 H   0  0  0  0  0  0  0  0  0  0  0  0
   38.8245   32.1309   39.4736 H   0  0  0  0  0  0  0  0  0  0  0  0
   40.9577   33.4865   39.0442 H   0  0  0  0  0  0  0  0  0  0  0  0
   39.7032   34.4356   38.3205 H   0  0  0  0  0  0  0  0  0  0  0  0
   39.5145   35.8560   40.2411 H   0  0  0  0  0  0  0  0  0  0  0  0
   38.8948   32.7893   42.1186 H   0  0  0  0  0  0  0  0  0  0  0  0
   40.4777   32.3997   41.4332 H   0  0  0  0  0  0  0  0  0  0  0  0
   37.5724   33.8754   41.0327 H   0  0  0  0  0  0  0  0  0  0  0  0
   44.1912   35.6329   41.0244 H   0  0  0  0  0  0  0  0  0  0  0  0
   41.6057   34.8603   42.4151 H   0  0  0  0  0  0  0  0  0  0  0  0
   43.7311   36.6685   44.1884 H   0  0  0  0  0  0  0  0  0  0  0  0
   44.8890   32.9925   42.2704 H   0  0  0  0  0  0  0  0  0  0  0  0
   46.0130   33.8164   46.3082 H   0  0  0  0  0  0  0  0  0  0  0  0
  1  9  1  0
  2  7  1  0
  2  6  1  0
  3  2  1  0
  3  4  1  0
  4  1  1  0
  4  5  1  0
  6  5  1  0
  8 11  1  0
  9  8  2  0
 10 15  2  0
 11 12  2  0
 11 10  1  0
 12 13  1  0
 13 14  2  0
 15 14  1  0
  1 16  1  0
  1 17  1  0
  2 18  1  6
  3 19  1  0
  3 20  1  0
  4 21  1  6
  6 22  1  0
  6 23  1  0
  7 24  1  0
  8 25  1  0
  9 26  1  0
 10 27  1  0
 12 28  1  0
 14 29  1  0
M  ISO  8  16   8  17   8  18  13  19  13  20  13  21  13  22  13  23  13
M  ISO  4  24   3  27  14  28  14  29  14
M  END
>  <minimizedAffinity>  (1) 
-4.58564091

>  <minimizedRMSD>  (1) 
3.17619753

$$$$
