
     RDKit          3D

 43 46  0  0  1  0  0  0  0  0999 V2000
   47.1890   33.3360   41.4830 O   0  0  0  0  0  0  0  0  0  0  0  0
   47.3680   33.5820   40.0960 C   0  0  0  0  0  0  0  0  0  0  0  0
   48.3400   34.3060   39.3880 C   0  0  0  0  0  0  0  0  0  0  0  0
   48.0520   34.2330   38.0420 C   0  0  0  0  0  0  0  0  0  0  0  0
   46.9270   33.4750   37.9840 C   0  0  0  0  0  0  0  0  0  0  0  0
   46.5230   33.0930   39.1830 O   0  0  0  0  0  0  0  0  0  0  0  0
   46.2240   33.1160   36.7330 C   0  0  2  0  0  0  0  0  0  0  0  0
   45.7750   31.7430   36.5040 C   0  0  0  0  0  0  0  0  0  0  0  0
   47.0350   32.1480   35.8300 C   0  0  1  0  0  0  0  0  0  0  0  0
   48.0860   32.4850   33.6040 C   0  0  0  0  0  0  0  0  0  0  0  0
   49.2470   32.2560   34.0530 O   0  0  0  0  0  0  0  0  0  0  0  0
   46.9210   32.4790   34.4120 N   0  0  0  0  0  0  0  0  0  0  0  0
   47.1470   34.4470   42.3590 C   0  0  0  0  0  0  0  0  0  0  0  0
   47.6360   35.5300   41.9220 O   0  0  0  0  0  0  0  0  0  0  0  0
   46.5600   34.2250   43.6340 C   0  0  0  0  0  0  0  0  0  0  0  0
   45.5310   35.0420   43.9720 C   0  0  0  0  0  0  0  0  0  0  0  0
   44.9100   34.8800   45.2070 C   0  0  0  0  0  0  0  0  0  0  0  0
   45.3650   33.9060   46.0250 N   0  0  0  0  0  0  0  0  0  0  0  0
   46.3810   33.1180   45.6640 C   0  0  0  0  0  0  0  0  0  0  0  0
   46.9480   33.3010   44.4790 N   0  0  0  0  0  0  0  0  0  0  0  0
   45.7520   31.0760   46.8270 C   0  0  2  0  0  0  0  0  0  0  0  0
   46.8850   32.0450   46.5580 C   0  0  2  0  0  0  0  0  0  0  0  0
   47.2400   32.5130   47.9320 C   0  0  0  0  0  0  0  0  0  0  0  0
   46.0460   32.5240   48.6270 O   0  0  0  0  0  0  0  0  0  0  0  0
   45.2450   31.5110   48.1600 C   0  0  0  0  0  0  0  0  0  0  0  0
   46.3370   29.8020   46.9290 O   0  0  0  0  0  0  0  0  0  0  0  0
   49.1906   34.8427   39.8335 H   0  0  0  0  0  0  0  0  0  0  0  0
   48.6064   34.6852   37.2064 H   0  0  0  0  0  0  0  0  0  0  0  0
   45.7152   34.0881   36.6538 H   0  0  0  0  0  0  0  0  0  0  0  0
   45.8136   31.0175   37.3299 H   0  0  0  0  0  0  0  0  0  0  0  0
   44.8318   31.3057   36.1446 H   0  0  0  0  0  0  0  0  0  0  0  0
   48.0559   31.7411   35.7845 H   0  0  0  0  0  0  0  0  0  0  0  0
   47.9751   32.6999   32.5309 H   0  0  0  0  0  0  0  0  0  0  0  0
   46.0033   32.7058   34.0030 H   0  0  0  0  0  0  0  0  0  0  0  0
   45.1911   35.8242   43.2773 H   0  0  0  0  0  0  0  0  0  0  0  0
   44.0727   35.5266   45.5084 H   0  0  0  0  0  0  0  0  0  0  0  0
   44.9577   31.0519   46.0664 H   0  0  0  0  0  0  0  0  0  0  0  0
   47.7666   31.6339   46.0445 H   0  0  0  0  0  0  0  0  0  0  0  0
   47.9548   31.8221   48.4029 H   0  0  0  0  0  0  0  0  0  0  0  0
   47.7194   33.5030   47.9197 H   0  0  0  0  0  0  0  0  0  0  0  0
   44.2106   31.8722   48.0626 H   0  0  0  0  0  0  0  0  0  0  0  0
   45.2637   30.6646   48.8623 H   0  0  0  0  0  0  0  0  0  0  0  0
   46.4461   29.5645   47.8839 H   0  0  0  0  0  0  0  0  0  0  0  0
  1 13  1  0
  2  1  1  0
  3  2  2  0
  4  3  1  0
  5  4  2  0
  5  6  1  0
  6  2  1  0
  7  5  1  0
  8  7  1  0
  9  8  1  0
  9  7  1  0
 10 11  2  0
 10 12  1  0
 12  9  1  0
 13 15  1  0
 14 13  2  0
 15 16  2  0
 15 20  1  0
 16 17  1  0
 17 18  2  0
 19 18  1  0
 20 19  2  0
 21 26  1  0
 21 25  1  0
 22 19  1  0
 22 21  1  0
 22 23  1  0
 23 24  1  0
 25 24  1  0
  3 27  1  0
  4 28  1  0
  7 29  1  6
  8 30  1  0
  8 31  1  0
  9 32  1  1
 10 33  1  0
 12 34  1  0
 16 35  1  0
 17 36  1  0
 21 37  1  6
 22 38  1  6
 23 39  1  0
 23 40  1  0
 25 41  1  0
 25 42  1  0
 26 43  1  0
M  ISO  8  27  14  28  14  29  13  30  13  31  13  32  13  33   6  35  14
M  ISO  8  36  14  37  13  38  13  39  13  40  13  41  13  42  13  43   3
M  END
>  <minimizedAffinity>  (1) 
-5.70976162

>  <minimizedRMSD>  (1) 
1.21359754

$$$$
