
     RDKit          3D

 29 31  0  0  1  0  0  0  0  0999 V2000
   44.5120   35.1300   41.5690 C   0  0  1  0  0  0  0  0  0  0  0  0
   44.6590   34.0420   40.6050 C   0  0  0  0  0  0  0  0  0  0  0  0
   43.2870   34.5000   40.9300 C   0  0  2  0  0  0  0  0  0  0  0  0
   45.3170   33.6520   43.4800 C   0  0  0  0  0  0  0  0  0  0  0  0
   44.7440   34.8720   43.0290 C   0  0  0  0  0  0  0  0  0  0  0  0
   44.3840   35.8290   43.9780 C   0  0  0  0  0  0  0  0  0  0  0  0
   44.6050   35.5320   45.2850 N   0  0  0  0  0  0  0  0  0  0  0  0
   45.1520   34.3660   45.6930 C   0  0  0  0  0  0  0  0  0  0  0  0
   45.5100   33.4200   44.7780 N   0  0  0  0  0  0  0  0  0  0  0  0
   42.4120   34.7180   38.5930 C   0  0  1  0  0  0  0  0  0  0  0  0
   42.4610   35.3000   39.9840 C   0  0  1  0  0  0  0  0  0  0  0  0
   41.0200   35.4320   40.3230 C   0  0  0  0  0  0  0  0  0  0  0  0
   40.3430   34.4220   39.6550 O   0  0  0  0  0  0  0  0  0  0  0  0
   40.9670   34.3080   38.4260 C   0  0  0  0  0  0  0  0  0  0  0  0
   42.7370   35.6640   37.6090 O   0  0  0  0  0  0  0  0  0  0  0  0
   44.9318   36.1434   41.6510 H   0  0  0  0  0  0  0  0  0  0  0  0
   44.9981   33.0534   40.9479 H   0  0  0  0  0  0  0  0  0  0  0  0
   45.2234   33.9202   39.6687 H   0  0  0  0  0  0  0  0  0  0  0  0
   42.3684   33.9982   41.2684 H   0  0  0  0  0  0  0  0  0  0  0  0
   45.6061   32.8863   42.7451 H   0  0  0  0  0  0  0  0  0  0  0  0
   43.9376   36.7888   43.6789 H   0  0  0  0  0  0  0  0  0  0  0  0
   45.3090   34.1792   46.7656 H   0  0  0  0  0  0  0  0  0  0  0  0
   43.1335   33.8957   38.4781 H   0  0  0  0  0  0  0  0  0  0  0  0
   42.9798   36.2676   40.0520 H   0  0  0  0  0  0  0  0  0  0  0  0
   40.8778   35.3259   41.4086 H   0  0  0  0  0  0  0  0  0  0  0  0
   40.6391   36.4194   40.0232 H   0  0  0  0  0  0  0  0  0  0  0  0
   40.4746   34.9666   37.6954 H   0  0  0  0  0  0  0  0  0  0  0  0
   40.9046   33.2720   38.0617 H   0  0  0  0  0  0  0  0  0  0  0  0
   43.0261   36.5055   38.0430 H   0  0  0  0  0  0  0  0  0  0  0  0
  1  5  1  0
  2  3  1  0
  2  1  1  0
  3  1  1  0
  4  9  2  0
  5  4  1  0
  5  6  2  0
  6  7  1  0
  7  8  2  0
  9  8  1  0
 10 15  1  0
 10 11  1  0
 11 12  1  0
 11  3  1  0
 13 12  1  0
 14 10  1  0
 14 13  1  0
  1 16  1  6
  2 17  1  0
  2 18  1  0
  3 19  1  1
  4 20  1  0
  6 21  1  0
  8 22  1  0
 10 23  1  1
 11 24  1  6
 12 25  1  0
 12 26  1  0
 14 27  1  0
 14 28  1  0
 15 29  1  0
M  ISO  8  16  13  17  13  18  13  19  13  20  14  21  14  22  14  23  13
M  ISO  6  24  13  25  13  26  13  27  13  28  13  29   3
M  END
>  <minimizedAffinity>  (1) 
-4.91687346

>  <minimizedRMSD>  (1) 
7.38166046

$$$$
