
     RDKit          3D

 39 42  0  0  1  0  0  0  0  0999 V2000
   46.7080   32.7260   42.3840 C   0  0  0  0  0  0  0  0  0  0  0  0
   47.9640   32.5720   41.6850 C   0  0  0  0  0  0  0  0  0  0  0  0
   48.9130   31.7770   42.2750 C   0  0  0  0  0  0  0  0  0  0  0  0
   48.6500   31.1790   43.4630 N   0  0  0  0  0  0  0  0  0  0  0  0
   47.4650   31.3440   44.0900 C   0  0  0  0  0  0  0  0  0  0  0  0
   46.4970   32.1210   43.5430 N   0  0  0  0  0  0  0  0  0  0  0  0
   48.2250   33.2580   40.3950 C   0  0  1  0  0  0  0  0  0  0  0  0
   47.3500   34.2700   39.8910 C   0  0  0  0  0  0  0  0  0  0  0  0
   48.6260   34.7460   40.4540 C   0  0  1  0  0  0  0  0  0  0  0  0
   48.7480   35.4440   41.7500 C   0  0  0  0  0  0  0  0  0  0  0  0
   49.3430   36.6880   41.6150 F   0  0  0  0  0  0  0  0  0  0  0  0
   49.4670   34.6950   42.6820 F   0  0  0  0  0  0  0  0  0  0  0  0
   47.4720   35.6630   42.2190 F   0  0  0  0  0  0  0  0  0  0  0  0
   47.2450   30.6530   45.3960 C   0  0  2  0  0  0  0  0  0  0  0  0
   46.3410   29.4400   45.2760 C   0  0  0  0  0  0  0  0  0  0  0  0
   45.8890   30.6660   46.0160 C   0  0  1  0  0  0  0  0  0  0  0  0
   44.7690   31.3880   48.1520 C   0  0  1  0  0  0  0  0  0  0  0  0
   45.8740   30.5490   47.4990 C   0  0  2  0  0  0  0  0  0  0  0  0
   47.0640   31.2160   48.1620 C   0  0  0  0  0  0  0  0  0  0  0  0
   46.7140   31.4940   49.4590 O   0  0  0  0  0  0  0  0  0  0  0  0
   45.3370   31.3870   49.5780 C   0  0  0  0  0  0  0  0  0  0  0  0
   44.7850   32.6950   47.7160 O   0  0  0  0  0  0  0  0  0  0  0  0
   45.9173   33.3539   41.9475 H   0  0  0  0  0  0  0  0  0  0  0  0
   49.8861   31.6248   41.7851 H   0  0  0  0  0  0  0  0  0  0  0  0
   48.6304   32.3284   39.9689 H   0  0  0  0  0  0  0  0  0  0  0  0
   47.1797   34.3430   38.8067 H   0  0  0  0  0  0  0  0  0  0  0  0
   46.2983   34.5232   40.0906 H   0  0  0  0  0  0  0  0  0  0  0  0
   49.4453   35.3862   40.0950 H   0  0  0  0  0  0  0  0  0  0  0  0
   48.2429   30.8941   45.7910 H   0  0  0  0  0  0  0  0  0  0  0  0
   45.8890   29.1818   44.3070 H   0  0  0  0  0  0  0  0  0  0  0  0
   46.4310   28.3702   45.5154 H   0  0  0  0  0  0  0  0  0  0  0  0
   45.0118   31.3265   45.9515 H   0  0  0  0  0  0  0  0  0  0  0  0
   43.7481   31.0168   47.9790 H   0  0  0  0  0  0  0  0  0  0  0  0
   45.7983   29.4602   47.6358 H   0  0  0  0  0  0  0  0  0  0  0  0
   47.9312   30.5395   48.1442 H   0  0  0  0  0  0  0  0  0  0  0  0
   47.3362   32.1389   47.6289 H   0  0  0  0  0  0  0  0  0  0  0  0
   44.9382   32.2408   50.1454 H   0  0  0  0  0  0  0  0  0  0  0  0
   45.0567   30.4686   50.1146 H   0  0  0  0  0  0  0  0  0  0  0  0
   44.7924   33.3033   48.4970 H   0  0  0  0  0  0  0  0  0  0  0  0
  1  6  2  0
  2  3  2  0
  2  1  1  0
  3  4  1  0
  4  5  2  0
  5 14  1  0
  6  5  1  0
  7  9  1  0
  7  2  1  0
  8  7  1  0
  8  9  1  0
  9 10  1  0
 10 13  1  0
 10 12  1  0
 11 10  1  0
 14 16  1  0
 15 14  1  0
 15 16  1  0
 16 18  1  0
 17 22  1  0
 17 21  1  0
 18 17  1  0
 18 19  1  0
 19 20  1  0
 20 21  1  0
  1 23  1  0
  3 24  1  0
  7 25  1  6
  8 26  1  0
  8 27  1  0
  9 28  1  6
 14 29  1  1
 15 30  1  0
 15 31  1  0
 16 32  1  6
 17 33  1  1
 18 34  1  6
 19 35  1  0
 19 36  1  0
 21 37  1  0
 21 38  1  0
 22 39  1  0
M  ISO  8  23  14  24  14  25  13  26  13  27  13  28  13  29  13  30  13
M  ISO  8  31  13  32  13  33  13  34  13  35  13  36  13  37  13  38  13
M  ISO  1  39   3
M  END
>  <minimizedAffinity>  (1) 
-5.54537773

>  <minimizedRMSD>  (1) 
2.1709125

$$$$
