
     RDKit          3D

 46 48  0  0  1  0  0  0  0  0999 V2000
   46.6050   34.8940   42.1010 C   0  0  2  0  0  0  0  0  0  0  0  0
   45.6310   35.5810   43.0320 C   0  0  0  0  0  0  0  0  0  0  0  0
   44.2850   35.6170   42.3560 C   0  0  0  0  0  0  0  0  0  0  0  0
   43.7070   34.3580   42.3070 O   0  0  0  0  0  0  0  0  0  0  0  0
   44.6740   33.3830   42.1890 C   0  0  0  0  0  0  0  0  0  0  0  0
   45.8410   33.8540   41.3370 C   0  0  1  0  0  0  0  0  0  0  0  0
   44.5050   33.0590   39.3590 C   0  0  2  0  0  0  0  0  0  0  0  0
   45.5380   34.0240   39.9250 C   0  0  2  0  0  0  0  0  0  0  0  0
   46.6520   33.5830   38.9630 C   0  0  0  0  0  0  0  0  0  0  0  0
   46.6300   32.1730   39.1530 O   0  0  0  0  0  0  0  0  0  0  0  0
   45.3030   31.8600   38.9270 C   0  0  0  0  0  0  0  0  0  0  0  0
   43.9780   33.6200   38.1970 O   0  0  0  0  0  0  0  0  0  0  0  0
   47.7180   34.4290   42.7210 O   0  0  0  0  0  0  0  0  0  0  0  0
   50.3110   34.7790   42.7280 O   0  0  0  0  0  0  0  0  0  0  0  0
   49.1360   34.4590   41.8840 P   0  0  2  0  0  0  0  0  0  0  0  0
   49.0350   35.6920   40.7310 O   0  0  0  0  0  0  0  0  0  0  0  0
   49.3790   32.9680   41.0530 O   0  0  0  0  0  0  0  0  0  0  0  0
   49.6590   31.2920   42.6890 C   0  0  0  0  0  0  0  0  0  0  0  0
   50.1560   31.9620   41.5940 C   0  0  0  0  0  0  0  0  0  0  0  0
   51.4240   31.5910   41.0830 C   0  0  0  0  0  0  0  0  0  0  0  0
   52.0740   30.5830   41.7160 N   0  0  0  0  0  0  0  0  0  0  0  0
   51.5660   29.9650   42.7630 C   0  0  0  0  0  0  0  0  0  0  0  0
   50.3480   30.3290   43.2460 N   0  0  0  0  0  0  0  0  0  0  0  0
   47.2320   30.8330   42.9910 C   0  0  0  0  0  0  0  0  0  0  0  0
   47.0640   30.4630   41.7700 O   0  0  0  0  0  0  0  0  0  0  0  0
   48.5200   31.2760   43.5370 N   0  0  0  0  0  0  0  0  0  0  0  0
   47.0230   35.6252   41.3935 H   0  0  0  0  0  0  0  0  0  0  0  0
   45.5594   35.0212   43.9762 H   0  0  0  0  0  0  0  0  0  0  0  0
   45.9729   36.6023   43.2559 H   0  0  0  0  0  0  0  0  0  0  0  0
   43.6220   36.2931   42.9157 H   0  0  0  0  0  0  0  0  0  0  0  0
   44.4263   35.9721   41.3245 H   0  0  0  0  0  0  0  0  0  0  0  0
   45.0452   33.1249   43.1918 H   0  0  0  0  0  0  0  0  0  0  0  0
   44.2222   32.5071   41.7004 H   0  0  0  0  0  0  0  0  0  0  0  0
   46.5836   33.0579   41.1795 H   0  0  0  0  0  0  0  0  0  0  0  0
   43.7061   32.8294   40.0794 H   0  0  0  0  0  0  0  0  0  0  0  0
   45.2756   35.0919   39.9525 H   0  0  0  0  0  0  0  0  0  0  0  0
   46.4188   33.8544   37.9228 H   0  0  0  0  0  0  0  0  0  0  0  0
   47.6287   34.0518   39.1537 H   0  0  0  0  0  0  0  0  0  0  0  0
   45.1365   31.6569   37.8588 H   0  0  0  0  0  0  0  0  0  0  0  0
   45.0047   30.9601   39.4849 H   0  0  0  0  0  0  0  0  0  0  0  0
   43.3204   34.3200   38.4373 H   0  0  0  0  0  0  0  0  0  0  0  0
   48.9633   36.5669   41.1888 H   0  0  0  0  0  0  0  0  0  0  0  0
   51.8623   32.0983   40.2109 H   0  0  0  0  0  0  0  0  0  0  0  0
   52.1283   29.1530   43.2473 H   0  0  0  0  0  0  0  0  0  0  0  0
   46.3613   30.8163   43.6631 H   0  0  0  0  0  0  0  0  0  0  0  0
   48.5968   31.5710   44.5209 H   0  0  0  0  0  0  0  0  0  0  0  0
  1 13  1  0
  1  2  1  0
  3  2  1  0
  4  3  1  0
  5  4  1  0
  6  1  1  0
  6  5  1  0
  7 12  1  0
  7  8  1  0
  8  9  1  0
  8  6  1  0
  9 10  1  0
 11 10  1  0
 11  7  1  0
 15 13  1  0
 15 14  2  0
 16 15  1  0
 17 19  1  0
 17 15  1  0
 18 23  2  0
 18 26  1  0
 19 18  1  0
 20 19  2  0
 20 21  1  0
 21 22  2  0
 22 23  1  0
 24 26  1  0
 25 24  2  0
  1 27  1  6
  2 28  1  0
  2 29  1  0
  3 30  1  0
  3 31  1  0
  5 32  1  0
  5 33  1  0
  6 34  1  6
  7 35  1  1
  8 36  1  1
  9 37  1  0
  9 38  1  0
 11 39  1  0
 11 40  1  0
 12 41  1  0
 16 42  1  0
 20 43  1  0
 22 44  1  0
 24 45  1  0
 26 46  1  0
M  ISO  8  27  13  28  13  29  13  30  13  31  13  32  13  33  13  34  13
M  ISO  8  35  13  36  13  37  13  38  13  39  13  40  13  41   3  42   3
M  ISO  3  43  14  44  14  45   6
M  END
>  <minimizedAffinity>  (1) 
-4.49120665

>  <minimizedRMSD>  (1) 
0.497326881

$$$$
