
     RDKit          3D

 42 44  0  0  1  0  0  0  0  0999 V2000
   47.2520   29.7320   45.0630 F   0  0  0  0  0  0  0  0  0  0  0  0
   47.3230   30.5330   46.1770 C   0  0  0  0  0  0  0  0  0  0  0  0
   46.9740   31.8480   46.0960 C   0  0  0  0  0  0  0  0  0  0  0  0
   47.0780   32.5790   47.2750 C   0  0  0  0  0  0  0  0  0  0  0  0
   47.5060   32.0030   48.4400 C   0  0  0  0  0  0  0  0  0  0  0  0
   47.8450   30.6670   48.4580 C   0  0  0  0  0  0  0  0  0  0  0  0
   47.7590   29.8840   47.3010 C   0  0  0  0  0  0  0  0  0  0  0  0
   46.8600   34.0440   43.1820 C   0  0  0  0  0  0  0  0  0  0  0  0
   45.7120   33.6440   42.5020 C   0  0  0  0  0  0  0  0  0  0  0  0
   44.9670   32.5960   43.0690 C   0  0  0  0  0  0  0  0  0  0  0  0
   45.3810   32.0280   44.2220 N   0  0  0  0  0  0  0  0  0  0  0  0
   46.5110   32.4530   44.8460 C   0  0  0  0  0  0  0  0  0  0  0  0
   47.2340   33.4510   44.3240 N   0  0  0  0  0  0  0  0  0  0  0  0
   45.3360   34.3160   41.2580 C   0  0  0  0  0  0  0  0  0  0  0  0
   45.1340   35.6650   41.4780 F   0  0  0  0  0  0  0  0  0  0  0  0
   46.4030   34.2020   40.3700 F   0  0  0  0  0  0  0  0  0  0  0  0
   44.2340   33.8180   40.6420 F   0  0  0  0  0  0  0  0  0  0  0  0
   47.5830   35.0530   42.6430 O   0  0  0  0  0  0  0  0  0  0  0  0
   48.8710   34.9560   42.0640 C   0  0  0  0  0  0  0  0  0  0  0  0
   49.7970   35.2900   43.0540 F   0  0  0  0  0  0  0  0  0  0  0  0
   49.0630   33.7060   41.5580 F   0  0  0  0  0  0  0  0  0  0  0  0
   49.0120   35.9370   41.1030 F   0  0  0  0  0  0  0  0  0  0  0  0
   48.1150   28.4260   47.3100 C   0  0  0  0  0  0  0  0  0  0  0  0
   51.4930   29.4910   48.0810 C   0  0  2  0  0  0  0  0  0  0  0  0
   50.4150   29.2280   47.0220 C   0  0  0  0  0  0  0  0  0  0  0  0
   49.5350   28.1910   47.6900 C   0  0  1  0  0  0  0  0  0  0  0  0
   49.8000   28.3670   49.0330 O   0  0  0  0  0  0  0  0  0  0  0  0
   51.2100   28.3260   49.0390 C   0  0  0  0  0  0  0  0  0  0  0  0
   51.2120   30.6840   48.7570 O   0  0  0  0  0  0  0  0  0  0  0  0
   46.8097   33.6458   47.2706 H   0  0  0  0  0  0  0  0  0  0  0  0
   47.5793   32.6037   49.3586 H   0  0  0  0  0  0  0  0  0  0  0  0
   48.1887   30.2087   49.3970 H   0  0  0  0  0  0  0  0  0  0  0  0
   44.0506   32.2399   42.5757 H   0  0  0  0  0  0  0  0  0  0  0  0
   47.4659   27.9083   48.0316 H   0  0  0  0  0  0  0  0  0  0  0  0
   47.9724   28.0396   46.2900 H   0  0  0  0  0  0  0  0  0  0  0  0
   52.5179   29.5647   47.6884 H   0  0  0  0  0  0  0  0  0  0  0  0
   50.8577   28.8344   46.0951 H   0  0  0  0  0  0  0  0  0  0  0  0
   49.8690   30.1344   46.7215 H   0  0  0  0  0  0  0  0  0  0  0  0
   49.7294   27.1499   47.3927 H   0  0  0  0  0  0  0  0  0  0  0  0
   51.5957   27.3715   48.6516 H   0  0  0  0  0  0  0  0  0  0  0  0
   51.6796   28.4064   50.0305 H   0  0  0  0  0  0  0  0  0  0  0  0
   51.2491   30.5265   49.7337 H   0  0  0  0  0  0  0  0  0  0  0  0
  1  2  1  0
  2  7  2  0
  3  2  1  0
  3  4  2  0
  4  5  1  0
  5  6  2  0
  7 23  1  0
  7  6  1  0
  8 13  2  0
  9 10  2  0
  9  8  1  0
 10 11  1  0
 11 12  2  0
 12  3  1  0
 13 12  1  0
 14 15  1  0
 14  9  1  0
 16 14  1  0
 17 14  1  0
 18  8  1  0
 19 18  1  0
 19 20  1  0
 21 19  1  0
 22 19  1  0
 24 29  1  0
 24 28  1  0
 25 26  1  0
 25 24  1  0
 26 23  1  0
 26 27  1  0
 27 28  1  0
  4 30  1  0
  5 31  1  0
  6 32  1  0
 10 33  1  0
 23 34  1  0
 23 35  1  0
 24 36  1  6
 25 37  1  0
 25 38  1  0
 26 39  1  6
 28 40  1  0
 28 41  1  0
 29 42  1  0
M  ISO  8  30  14  31  14  32  14  33  14  34   8  35   8  36  13  37  13
M  ISO  5  38  13  39  13  40  13  41  13  42   3
M  END
>  <minimizedAffinity>  (1) 
-5.57154036

>  <minimizedRMSD>  (1) 
1.02562404

$$$$
