
     RDKit          3D

 49 52  0  0  1  0  0  0  0  0999 V2000
   47.3980   32.7220   44.0320 C   0  0  0  0  0  0  0  0  0  0  0  0
   48.2390   33.2120   43.1430 C   0  0  0  0  0  0  0  0  0  0  0  0
   49.0660   32.2760   42.5440 C   0  0  0  0  0  0  0  0  0  0  0  0
   48.9230   30.9270   42.9480 N   0  0  0  0  0  0  0  0  0  0  0  0
   48.0640   30.5180   43.8400 C   0  0  0  0  0  0  0  0  0  0  0  0
   47.2280   31.4390   44.4480 N   0  0  0  0  0  0  0  0  0  0  0  0
   48.4700   34.5990   42.8110 C   0  0  1  0  0  0  0  0  0  0  0  0
   49.4750   35.1120   42.0660 C   0  0  0  0  0  0  0  0  0  0  0  0
   48.2000   34.9740   41.2800 C   0  0  1  0  0  0  0  0  0  0  0  0
   48.0930   33.8610   40.4140 N   0  0  0  0  0  0  0  0  0  0  0  0
   46.7940   32.8050   38.7140 C   0  0  1  0  0  0  0  0  0  0  0  0
   47.4720   34.0860   39.1610 C   0  0  2  0  0  0  0  0  0  0  0  0
   48.3750   34.3950   38.0190 C   0  0  0  0  0  0  0  0  0  0  0  0
   48.4460   33.2550   37.2390 O   0  0  0  0  0  0  0  0  0  0  0  0
   47.1440   32.7680   37.2440 C   0  0  0  0  0  0  0  0  0  0  0  0
   47.2600   31.6900   39.3920 O   0  0  0  0  0  0  0  0  0  0  0  0
   46.3570   33.5000   44.7610 C   0  0  0  0  0  0  0  0  0  0  0  0
   45.7980   33.9100   45.7330 O   0  0  0  0  0  0  0  0  0  0  0  0
   44.4800   31.7650   43.0090 Cl  0  0  0  0  0  0  0  0  0  0  0  0
   44.5830   33.5090   42.8550 C   0  0  0  0  0  0  0  0  0  0  0  0
   45.4760   34.1740   43.7320 C   0  0  0  0  0  0  0  0  0  0  0  0
   45.4530   35.5240   43.5130 C   0  0  0  0  0  0  0  0  0  0  0  0
   44.7640   36.2470   42.6560 C   0  0  0  0  0  0  0  0  0  0  0  0
   43.9080   35.5500   41.8240 C   0  0  0  0  0  0  0  0  0  0  0  0
   43.8140   34.2050   41.9170 C   0  0  0  0  0  0  0  0  0  0  0  0
   42.9330   33.6200   41.0420 O   0  0  0  0  0  0  0  0  0  0  0  0
   40.6520   33.0680   39.8710 O   0  0  0  0  0  0  0  0  0  0  0  0
   41.2810   33.3080   41.2160 P   0  0  0  0  0  0  0  0  0  0  0  0
   41.0820   31.9610   42.2220 O   0  0  0  0  0  0  0  0  0  0  0  0
   40.4840   34.5890   41.9970 O   0  0  0  0  0  0  0  0  0  0  0  0
   49.8050   32.5696   41.7840 H   0  0  0  0  0  0  0  0  0  0  0  0
   48.0043   29.4524   44.1065 H   0  0  0  0  0  0  0  0  0  0  0  0
   48.1414   34.8733   43.8243 H   0  0  0  0  0  0  0  0  0  0  0  0
   49.8426   36.1218   42.3008 H   0  0  0  0  0  0  0  0  0  0  0  0
   50.4948   34.7494   41.8697 H   0  0  0  0  0  0  0  0  0  0  0  0
   47.5458   35.6205   40.6767 H   0  0  0  0  0  0  0  0  0  0  0  0
   49.0458   33.5146   40.2322 H   0  0  0  0  0  0  0  0  0  0  0  0
   45.7126   32.7886   38.9149 H   0  0  0  0  0  0  0  0  0  0  0  0
   46.8213   34.9517   39.3540 H   0  0  0  0  0  0  0  0  0  0  0  0
   47.9676   35.2304   37.4307 H   0  0  0  0  0  0  0  0  0  0  0  0
   49.3730   34.6887   38.3763 H   0  0  0  0  0  0  0  0  0  0  0  0
   46.4742   33.4147   36.6583 H   0  0  0  0  0  0  0  0  0  0  0  0
   47.0444   31.7703   36.7917 H   0  0  0  0  0  0  0  0  0  0  0  0
   47.1949   31.8458   40.3675 H   0  0  0  0  0  0  0  0  0  0  0  0
   46.1243   36.1037   44.1636 H   0  0  0  0  0  0  0  0  0  0  0  0
   44.8634   37.3413   42.6048 H   0  0  0  0  0  0  0  0  0  0  0  0
   43.3012   36.0919   41.0837 H   0  0  0  0  0  0  0  0  0  0  0  0
   41.1243   32.2471   43.1688 H   0  0  0  0  0  0  0  0  0  0  0  0
   40.5559   34.4735   42.9776 H   0  0  0  0  0  0  0  0  0  0  0  0
  1  6  1  0
  1 17  1  0
  2  1  2  0
  3  4  2  0
  3  2  1  0
  4  5  1  0
  5  6  2  0
  7  2  1  0
  8  7  1  0
  9  8  1  0
  9  7  1  0
 10  9  1  0
 11 12  1  0
 11 16  1  0
 12 10  1  0
 13 12  1  0
 14 15  1  0
 14 13  1  0
 15 11  1  0
 17 18  2  0
 20 19  1  0
 20 21  2  0
 21 17  1  0
 22 21  1  0
 23 22  2  0
 24 25  2  0
 24 23  1  0
 25 20  1  0
 26 28  1  0
 26 25  1  0
 27 28  2  0
 28 30  1  0
 28 29  1  0
  3 31  1  0
  5 32  1  0
  7 33  1  1
  8 34  1  0
  8 35  1  0
  9 36  1  1
 10 37  1  0
 11 38  1  6
 12 39  1  1
 13 40  1  0
 13 41  1  0
 15 42  1  0
 15 43  1  0
 16 44  1  0
 22 45  1  0
 23 46  1  0
 24 47  1  0
 29 48  1  0
 30 49  1  0
M  ISO  8  31  14  32  14  33  13  34  13  35  13  36  13  37   5  38  13
M  ISO  8  39  13  40  13  41  13  42  13  43  13  44   3  45  14  46  14
M  ISO  3  47  14  48   3  49   3
M  END
>  <minimizedAffinity>  (1) 
-6.0200758

>  <minimizedRMSD>  (1) 
0.57356286

$$$$
