
     RDKit          3D

 26 27  0  0  1  0  0  0  0  0999 V2000
   43.4140   35.2550   41.4810 C   0  0  0  0  0  0  0  0  0  0  0  0
   44.2400   35.6800   43.7080 C   0  0  0  0  0  0  0  0  0  0  0  0
   44.1270   34.7760   42.6690 C   0  0  0  0  0  0  0  0  0  0  0  0
   44.6890   33.5270   42.8510 C   0  0  0  0  0  0  0  0  0  0  0  0
   45.3050   33.2800   44.0220 N   0  0  0  0  0  0  0  0  0  0  0  0
   45.4070   34.1720   45.0230 C   0  0  0  0  0  0  0  0  0  0  0  0
   44.8670   35.4340   44.9030 N   0  0  0  0  0  0  0  0  0  0  0  0
   42.0980   35.6210   41.7350 O   0  0  0  0  0  0  0  0  0  0  0  0
   40.5740   33.7930   41.3120 C   0  0  2  0  0  0  0  0  0  0  0  0
   41.2940   35.0440   40.7920 C   0  0  1  0  0  0  0  0  0  0  0  0
   40.0800   35.8630   40.4380 C   0  0  0  0  0  0  0  0  0  0  0  0
   39.1440   34.9870   39.9080 O   0  0  0  0  0  0  0  0  0  0  0  0
   39.5250   33.6980   40.1990 C   0  0  0  0  0  0  0  0  0  0  0  0
   39.9030   34.0860   42.4960 O   0  0  0  0  0  0  0  0  0  0  0  0
   43.4133   34.4529   40.7283 H   0  0  0  0  0  0  0  0  0  0  0  0
   43.9386   36.1559   41.1299 H   0  0  0  0  0  0  0  0  0  0  0  0
   43.7922   36.6746   43.5657 H   0  0  0  0  0  0  0  0  0  0  0  0
   44.6348   32.7597   42.0647 H   0  0  0  0  0  0  0  0  0  0  0  0
   45.9284   33.8906   45.9498 H   0  0  0  0  0  0  0  0  0  0  0  0
   41.2085   32.9159   41.5074 H   0  0  0  0  0  0  0  0  0  0  0  0
   42.0065   34.8881   39.9686 H   0  0  0  0  0  0  0  0  0  0  0  0
   39.6760   36.3492   41.3382 H   0  0  0  0  0  0  0  0  0  0  0  0
   40.3344   36.6523   39.7153 H   0  0  0  0  0  0  0  0  0  0  0  0
   38.6583   33.1144   40.5429 H   0  0  0  0  0  0  0  0  0  0  0  0
   39.9335   33.1946   39.3104 H   0  0  0  0  0  0  0  0  0  0  0  0
   40.4715   33.8378   43.2676 H   0  0  0  0  0  0  0  0  0  0  0  0
  1  8  1  0
  1  3  1  0
  2  7  2  0
  3  4  2  0
  3  2  1  0
  4  5  1  0
  5  6  2  0
  7  6  1  0
  9 14  1  0
 10  9  1  0
 10  8  1  0
 11 10  1  0
 12 13  1  0
 12 11  1  0
 13  9  1  0
  1 15  1  0
  1 16  1  0
  2 17  1  0
  4 18  1  0
  6 19  1  0
  9 20  1  1
 10 21  1  6
 11 22  1  0
 11 23  1  0
 13 24  1  0
 13 25  1  0
 14 26  1  0
M  ISO  8  15   8  16   8  17  14  18  14  19  14  20  13  21  13  22  13
M  ISO  4  23  13  24  13  25  13  26   3
M  END
>  <minimizedAffinity>  (1) 
-4.41995478

>  <minimizedRMSD>  (1) 
1.93180442

$$$$
