
     RDKit          3D

 42 44  0  0  1  0  0  0  0  0999 V2000
   45.1550   35.7370   43.3380 C   0  0  0  0  0  0  0  0  0  0  0  0
   46.0560   34.6360   43.4030 C   0  0  0  0  0  0  0  0  0  0  0  0
   46.1490   33.9480   44.6030 C   0  0  0  0  0  0  0  0  0  0  0  0
   45.3870   34.3500   45.6500 N   0  0  0  0  0  0  0  0  0  0  0  0
   44.5380   35.3970   45.5710 C   0  0  0  0  0  0  0  0  0  0  0  0
   44.4250   36.0810   44.4300 N   0  0  0  0  0  0  0  0  0  0  0  0
   46.7670   34.3600   42.2210 N   0  0  0  0  0  0  0  0  0  0  0  0
   47.9490   35.0880   41.8140 C   0  0  0  0  0  0  0  0  0  0  0  0
   48.5480   34.4480   40.5940 C   0  0  0  0  0  0  0  0  0  0  0  0
   47.5980   34.2690   39.5320 N   0  0  0  0  0  0  0  0  0  0  0  0
   46.3740   33.6570   39.9150 C   0  0  0  0  0  0  0  0  0  0  0  0
   46.2860   33.2890   41.3680 C   0  0  0  0  0  0  0  0  0  0  0  0
   47.0310   32.8850   44.6330 O   0  0  0  0  0  0  0  0  0  0  0  0
   45.4980   31.2620   46.0750 O   0  0  0  0  0  0  0  0  0  0  0  0
   46.9290   31.7630   45.9310 P   0  0  1  0  0  0  0  0  0  0  0  0
   47.9860   30.5000   45.6280 O   0  0  0  0  0  0  0  0  0  0  0  0
   47.3520   32.5990   47.3460 O   0  0  0  0  0  0  0  0  0  0  0  0
   46.8520   30.8290   48.7870 C   0  0  2  0  0  0  0  0  0  0  0  0
   46.5330   32.2620   48.4080 C   0  0  2  0  0  0  0  0  0  0  0  0
   45.0820   32.0910   48.0170 C   0  0  0  0  0  0  0  0  0  0  0  0
   44.5810   31.3450   49.0680 O   0  0  0  0  0  0  0  0  0  0  0  0
   45.5500   30.4250   49.4400 C   0  0  0  0  0  0  0  0  0  0  0  0
   47.9360   30.7080   49.6360 O   0  0  0  0  0  0  0  0  0  0  0  0
   45.0505   36.3083   42.4038 H   0  0  0  0  0  0  0  0  0  0  0  0
   43.9392   35.6865   46.4471 H   0  0  0  0  0  0  0  0  0  0  0  0
   47.6755   36.1282   41.5833 H   0  0  0  0  0  0  0  0  0  0  0  0
   48.6851   35.0700   42.6312 H   0  0  0  0  0  0  0  0  0  0  0  0
   49.3661   35.0863   40.2289 H   0  0  0  0  0  0  0  0  0  0  0  0
   48.9062   33.4502   40.8874 H   0  0  0  0  0  0  0  0  0  0  0  0
   48.0357   33.6815   38.8080 H   0  0  0  0  0  0  0  0  0  0  0  0
   45.5554   34.3559   39.6881 H   0  0  0  0  0  0  0  0  0  0  0  0
   46.3068   32.7152   39.3507 H   0  0  0  0  0  0  0  0  0  0  0  0
   45.2364   33.0766   41.6194 H   0  0  0  0  0  0  0  0  0  0  0  0
   46.9176   32.4045   41.5375 H   0  0  0  0  0  0  0  0  0  0  0  0
   48.3027   30.1216   46.4863 H   0  0  0  0  0  0  0  0  0  0  0  0
   47.1584   30.1998   47.9383 H   0  0  0  0  0  0  0  0  0  0  0  0
   46.6847   33.0505   49.1598 H   0  0  0  0  0  0  0  0  0  0  0  0
   44.5728   33.0630   47.9397 H   0  0  0  0  0  0  0  0  0  0  0  0
   44.9430   31.6171   47.0341 H   0  0  0  0  0  0  0  0  0  0  0  0
   45.2592   29.4193   49.1024 H   0  0  0  0  0  0  0  0  0  0  0  0
   45.6604   30.4073   50.5343 H   0  0  0  0  0  0  0  0  0  0  0  0
   47.6250   30.7427   50.5752 H   0  0  0  0  0  0  0  0  0  0  0  0
  1  2  2  0
  1  6  1  0
  2  3  1  0
  3 13  1  0
  3  4  2  0
  5  4  1  0
  6  5  2  0
  7  2  1  0
  8  7  1  0
  9  8  1  0
 10 11  1  0
 10  9  1  0
 11 12  1  0
 12  7  1  0
 13 15  1  0
 15 14  2  0
 15 17  1  0
 16 15  1  0
 18 22  1  0
 18 23  1  0
 19 17  1  0
 19 18  1  0
 20 19  1  0
 20 21  1  0
 21 22  1  0
  1 24  1  0
  5 25  1  0
  8 26  1  0
  8 27  1  0
  9 28  1  0
  9 29  1  0
 10 30  1  0
 11 31  1  0
 11 32  1  0
 12 33  1  0
 12 34  1  0
 16 35  1  0
 18 36  1  6
 19 37  1  1
 20 38  1  0
 20 39  1  0
 22 40  1  0
 22 41  1  0
 23 42  1  0
M  ISO  8  24  14  25  14  26  13  27  13  28  13  29  13  30   5  31  13
M  ISO  8  32  13  33  13  34  13  35   3  36  13  37  13  38  13  39  13
M  ISO  3  40  13  41  13  42   3
M  END
>  <minimizedAffinity>  (1) 
-5.72326279

>  <minimizedRMSD>  (1) 
0.652718067

$$$$
