
     RDKit          3D

 47 50  0  0  1  0  0  0  0  0999 V2000
   42.8210   34.4280   38.7700 C   0  0  1  0  0  0  0  0  0  0  0  0
   42.9960   35.1490   40.1060 C   0  0  1  0  0  0  0  0  0  0  0  0
   41.7300   35.4870   40.6240 O   0  0  0  0  0  0  0  0  0  0  0  0
   40.8010   35.8010   39.6270 C   0  0  0  0  0  0  0  0  0  0  0  0
   40.4270   34.5780   38.8240 C   0  0  2  0  0  0  0  0  0  0  0  0
   41.5810   33.5710   38.9580 C   0  0  1  0  0  0  0  0  0  0  0  0
   42.6150   35.3460   37.7410 O   0  0  0  0  0  0  0  0  0  0  0  0
   40.4330   34.9340   37.4640 O   0  0  0  0  0  0  0  0  0  0  0  0
   43.4970   34.2040   41.0010 O   0  0  0  0  0  0  0  0  0  0  0  0
   44.6100   34.3290   41.7270 C   0  0  0  0  0  0  0  0  0  0  0  0
   45.8570   34.4570   41.1190 C   0  0  0  0  0  0  0  0  0  0  0  0
   46.9760   34.5850   41.9300 C   0  0  0  0  0  0  0  0  0  0  0  0
   46.8350   34.5840   43.3100 N   0  0  0  0  0  0  0  0  0  0  0  0
   45.6160   34.4580   43.8500 C   0  0  0  0  0  0  0  0  0  0  0  0
   44.5100   34.3320   43.0760 N   0  0  0  0  0  0  0  0  0  0  0  0
   48.3490   34.7170   41.3130 C   0  0  0  0  0  0  0  0  0  0  0  0
   49.0730   36.0270   41.5140 C   0  0  0  0  0  0  0  0  0  0  0  0
   49.5140   34.7030   42.1580 C   0  0  0  0  0  0  0  0  0  0  0  0
   41.4530   32.5710   38.0220 O   0  0  0  0  0  0  0  0  0  0  0  0
   39.9070   30.8220   37.9710 C   0  0  1  0  0  0  0  0  0  0  0  0
   41.2120   31.3230   38.5680 C   0  0  2  0  0  0  0  0  0  0  0  0
   40.7830   31.5340   40.0060 C   0  0  0  0  0  0  0  0  0  0  0  0
   39.8480   30.5480   40.3010 O   0  0  0  0  0  0  0  0  0  0  0  0
   39.1720   30.2340   39.1360 C   0  0  0  0  0  0  0  0  0  0  0  0
   39.1580   31.8790   37.4770 O   0  0  0  0  0  0  0  0  0  0  0  0
   43.7081   33.8370   38.4985 H   0  0  0  0  0  0  0  0  0  0  0  0
   43.6334   36.0358   39.9742 H   0  0  0  0  0  0  0  0  0  0  0  0
   39.8955   36.2123   40.0970 H   0  0  0  0  0  0  0  0  0  0  0  0
   41.2546   36.5380   38.9480 H   0  0  0  0  0  0  0  0  0  0  0  0
   39.4572   34.1832   39.1611 H   0  0  0  0  0  0  0  0  0  0  0  0
   41.6105   33.0394   39.9206 H   0  0  0  0  0  0  0  0  0  0  0  0
   42.4154   36.2354   38.1273 H   0  0  0  0  0  0  0  0  0  0  0  0
   40.4496   35.9204   37.3812 H   0  0  0  0  0  0  0  0  0  0  0  0
   45.9523   34.4566   40.0231 H   0  0  0  0  0  0  0  0  0  0  0  0
   45.5098   34.4567   44.9449 H   0  0  0  0  0  0  0  0  0  0  0  0
   48.0541   34.1195   40.4377 H   0  0  0  0  0  0  0  0  0  0  0  0
   49.6581   36.4743   40.6970 H   0  0  0  0  0  0  0  0  0  0  0  0
   48.8136   37.0374   41.8631 H   0  0  0  0  0  0  0  0  0  0  0  0
   49.4020   34.5576   43.2426 H   0  0  0  0  0  0  0  0  0  0  0  0
   50.4501   34.1256   42.1737 H   0  0  0  0  0  0  0  0  0  0  0  0
   40.0815   30.1144   37.1471 H   0  0  0  0  0  0  0  0  0  0  0  0
   42.0901   30.6769   38.4214 H   0  0  0  0  0  0  0  0  0  0  0  0
   41.6508   31.4441   40.6760 H   0  0  0  0  0  0  0  0  0  0  0  0
   40.3522   32.5367   40.1437 H   0  0  0  0  0  0  0  0  0  0  0  0
   38.1541   30.6490   39.1772 H   0  0  0  0  0  0  0  0  0  0  0  0
   39.1126   29.1413   39.0243 H   0  0  0  0  0  0  0  0  0  0  0  0
   38.7874   32.4019   38.2315 H   0  0  0  0  0  0  0  0  0  0  0  0
  1  6  1  0
  1  2  1  0
  2  3  1  0
  2  9  1  0
  4  3  1  0
  5  6  1  0
  5  4  1  0
  7  1  1  0
  8  5  1  0
  9 10  1  0
 10 15  1  0
 11 10  2  0
 11 12  1  0
 12 13  2  0
 13 14  1  0
 15 14  2  0
 16 17  1  0
 16 12  1  0
 16 18  1  0
 17 18  1  0
 19  6  1  0
 20 25  1  0
 20 21  1  0
 20 24  1  0
 21 19  1  0
 21 22  1  0
 22 23  1  0
 24 23  1  0
  1 26  1  6
  2 27  1  6
  4 28  1  0
  4 29  1  0
  5 30  1  1
  6 31  1  1
  7 32  1  0
  8 33  1  0
 11 34  1  0
 14 35  1  0
 16 36  1  0
 17 37  1  0
 17 38  1  0
 18 39  1  0
 18 40  1  0
 20 41  1  6
 21 42  1  1
 22 43  1  0
 22 44  1  0
 24 45  1  0
 24 46  1  0
 25 47  1  0
M  ISO  8  26  13  27  13  28  13  29  13  30  13  31  13  32   3  33   3
M  ISO  8  34  14  35  14  36  13  37  13  38  13  39  13  40  13  41  13
M  ISO  6  42  13  43  13  44  13  45  13  46  13  47   3
M  END
>  <minimizedAffinity>  (1) 
-6.06271935

>  <minimizedRMSD>  (1) 
0.384565055

$$$$
