
     RDKit          3D

 41 43  0  0  1  0  0  0  0  0999 V2000
   47.7360   34.0160   41.9210 N   0  0  0  0  0  0  0  0  0  0  0  0
   47.8500   35.2510   41.2430 C   0  0  0  0  0  0  0  0  0  0  0  0
   49.1800   35.7350   41.6770 C   0  0  0  0  0  0  0  0  0  0  0  0
   49.8030   34.6810   42.5870 C   0  0  0  0  0  0  0  0  0  0  0  0
   48.9810   33.4380   42.2200 C   0  0  2  0  0  0  0  0  0  0  0  0
   46.4920   33.5300   42.2420 C   0  0  0  0  0  0  0  0  0  0  0  0
   44.5260   35.7750   44.5740 C   0  0  0  0  0  0  0  0  0  0  0  0
   45.1110   35.3010   43.3580 C   0  0  0  0  0  0  0  0  0  0  0  0
   45.8700   34.1350   43.4010 C   0  0  0  0  0  0  0  0  0  0  0  0
   46.0040   33.5240   44.5970 N   0  0  0  0  0  0  0  0  0  0  0  0
   45.4350   33.9890   45.7650 C   0  0  0  0  0  0  0  0  0  0  0  0
   44.7040   35.1040   45.7490 N   0  0  0  0  0  0  0  0  0  0  0  0
   49.5100   32.9760   41.0080 O   0  0  0  0  0  0  0  0  0  0  0  0
   50.5550   30.9590   42.3830 O   0  0  0  0  0  0  0  0  0  0  0  0
   50.6930   31.8230   41.1590 P   0  0  2  0  0  0  0  0  0  0  0  0
   52.1780   32.6390   41.3330 O   0  0  0  0  0  0  0  0  0  0  0  0
   50.8690   30.8950   39.7550 O   0  0  0  0  0  0  0  0  0  0  0  0
   52.7950   31.1320   38.3250 C   0  0  1  0  0  0  0  0  0  0  0  0
   51.3990   31.5480   38.6970 C   0  0  1  0  0  0  0  0  0  0  0  0
   50.6330   31.5160   37.4280 C   0  0  0  0  0  0  0  0  0  0  0  0
   51.4540   31.0270   36.4140 O   0  0  0  0  0  0  0  0  0  0  0  0
   52.5540   30.4300   37.0030 C   0  0  0  0  0  0  0  0  0  0  0  0
   53.6120   32.2360   38.0580 O   0  0  0  0  0  0  0  0  0  0  0  0
   47.1309   35.7318   40.5634 H   0  0  0  0  0  0  0  0  0  0  0  0
   49.6408   36.6922   41.3917 H   0  0  0  0  0  0  0  0  0  0  0  0
   50.8705   34.5374   42.3639 H   0  0  0  0  0  0  0  0  0  0  0  0
   49.7757   34.9379   43.6562 H   0  0  0  0  0  0  0  0  0  0  0  0
   48.9567   32.6371   42.9736 H   0  0  0  0  0  0  0  0  0  0  0  0
   45.8307   33.6925   41.3781 H   0  0  0  0  0  0  0  0  0  0  0  0
   46.6364   32.4691   42.4942 H   0  0  0  0  0  0  0  0  0  0  0  0
   43.9231   36.6950   44.5620 H   0  0  0  0  0  0  0  0  0  0  0  0
   44.9648   35.8442   42.4127 H   0  0  0  0  0  0  0  0  0  0  0  0
   45.5841   33.4411   46.7071 H   0  0  0  0  0  0  0  0  0  0  0  0
   52.3821   32.7512   42.2952 H   0  0  0  0  0  0  0  0  0  0  0  0
   53.2843   30.5464   39.1172 H   0  0  0  0  0  0  0  0  0  0  0  0
   51.3733   32.5654   39.1144 H   0  0  0  0  0  0  0  0  0  0  0  0
   49.7576   30.8598   37.5422 H   0  0  0  0  0  0  0  0  0  0  0  0
   50.2932   32.5308   37.1737 H   0  0  0  0  0  0  0  0  0  0  0  0
   52.3554   29.3618   37.1749 H   0  0  0  0  0  0  0  0  0  0  0  0
   53.4368   30.5126   36.3519 H   0  0  0  0  0  0  0  0  0  0  0  0
   53.9107   32.6396   38.9113 H   0  0  0  0  0  0  0  0  0  0  0  0
  1  5  1  0
  1  6  1  0
  2  3  2  0
  2  1  1  0
  3  4  1  0
  5  4  1  0
  6  9  1  0
  7 12  2  0
  8  9  2  0
  8  7  1  0
  9 10  1  0
 10 11  2  0
 12 11  1  0
 13 15  1  0
 13  5  1  0
 15 16  1  0
 15 14  2  0
 17 15  1  0
 18 23  1  0
 18 19  1  0
 19 17  1  0
 20 19  1  0
 21 22  1  0
 21 20  1  0
 22 18  1  0
  2 24  1  0
  3 25  1  0
  4 26  1  0
  4 27  1  0
  5 28  1  1
  6 29  1  0
  6 30  1  0
  7 31  1  0
  8 32  1  0
 11 33  1  0
 16 34  1  0
 18 35  1  1
 19 36  1  1
 20 37  1  0
 20 38  1  0
 22 39  1  0
 22 40  1  0
 23 41  1  0
M  ISO  8  24  13  25  13  26  13  27  13  28  13  29   8  30   8  31  14
M  ISO  8  32  14  33  14  34   3  35  13  36  13  37  13  38  13  39  13
M  ISO  2  40  13  41   3
M  END
>  <minimizedAffinity>  (1) 
-5.59883833

>  <minimizedRMSD>  (1) 
1.81359768

$$$$
