
     RDKit          3D

 46 49  0  0  1  0  0  0  0  0999 V2000
   49.5070   33.4120   41.3170 N   0  0  0  0  0  0  0  0  0  0  0  0
   50.7160   33.0680   42.0370 C   0  0  0  0  0  0  0  0  0  0  0  0
   51.2960   31.7530   41.5990 C   0  0  0  0  0  0  0  0  0  0  0  0
   50.3490   30.6620   42.0650 C   0  0  0  0  0  0  0  0  0  0  0  0
   48.9110   31.0960   41.8820 C   0  0  0  0  0  0  0  0  0  0  0  0
   48.8560   32.2170   40.8810 C   0  0  2  0  0  0  0  0  0  0  0  0
   47.3310   34.6670   41.9000 C   0  0  1  0  0  0  0  0  0  0  0  0
   48.4410   35.6260   41.6850 C   0  0  0  0  0  0  0  0  0  0  0  0
   48.7370   34.2600   42.1560 C   0  0  2  0  0  0  0  0  0  0  0  0
   45.5660   36.0110   43.0830 C   0  0  0  0  0  0  0  0  0  0  0  0
   46.4100   34.8870   43.0140 C   0  0  0  0  0  0  0  0  0  0  0  0
   46.3210   33.9590   44.0780 C   0  0  0  0  0  0  0  0  0  0  0  0
   45.4460   34.1930   45.0900 N   0  0  0  0  0  0  0  0  0  0  0  0
   44.6540   35.2860   45.1170 C   0  0  0  0  0  0  0  0  0  0  0  0
   44.7060   36.2060   44.1130 N   0  0  0  0  0  0  0  0  0  0  0  0
   49.2610   31.7810   39.6030 N   0  0  0  0  0  0  0  0  0  0  0  0
   49.2710   32.8420   37.3690 C   0  0  1  0  0  0  0  0  0  0  0  0
   48.6010   32.0190   38.4270 C   0  0  2  0  0  0  0  0  0  0  0  0
   47.2300   32.6140   38.4270 C   0  0  0  0  0  0  0  0  0  0  0  0
   47.3400   33.9270   37.9940 O   0  0  0  0  0  0  0  0  0  0  0  0
   48.6070   34.1810   37.5580 C   0  0  0  0  0  0  0  0  0  0  0  0
   50.6300   32.8650   37.3700 O   0  0  0  0  0  0  0  0  0  0  0  0
   51.4636   33.8567   41.8669 H   0  0  0  0  0  0  0  0  0  0  0  0
   50.4551   32.9785   43.1019 H   0  0  0  0  0  0  0  0  0  0  0  0
   51.3875   31.7287   40.5031 H   0  0  0  0  0  0  0  0  0  0  0  0
   52.2979   31.6077   42.0291 H   0  0  0  0  0  0  0  0  0  0  0  0
   50.5297   29.7501   41.4770 H   0  0  0  0  0  0  0  0  0  0  0  0
   50.5289   30.4662   43.1324 H   0  0  0  0  0  0  0  0  0  0  0  0
   48.3142   30.2472   41.5168 H   0  0  0  0  0  0  0  0  0  0  0  0
   48.5035   31.4396   42.8442 H   0  0  0  0  0  0  0  0  0  0  0  0
   47.8001   32.5129   40.7940 H   0  0  0  0  0  0  0  0  0  0  0  0
   46.5090   34.2630   41.2908 H   0  0  0  0  0  0  0  0  0  0  0  0
   48.7170   35.9265   40.6634 H   0  0  0  0  0  0  0  0  0  0  0  0
   48.6725   36.6387   42.0467 H   0  0  0  0  0  0  0  0  0  0  0  0
   49.2194   33.7791   43.0197 H   0  0  0  0  0  0  0  0  0  0  0  0
   45.6053   36.7560   42.2746 H   0  0  0  0  0  0  0  0  0  0  0  0
   46.9529   33.0587   44.0856 H   0  0  0  0  0  0  0  0  0  0  0  0
   43.9601   35.4354   45.9574 H   0  0  0  0  0  0  0  0  0  0  0  0
   50.2032   32.1749   39.4689 H   0  0  0  0  0  0  0  0  0  0  0  0
   49.1360   32.4121   36.3655 H   0  0  0  0  0  0  0  0  0  0  0  0
   48.5846   30.9400   38.2139 H   0  0  0  0  0  0  0  0  0  0  0  0
   46.5763   32.0487   37.7465 H   0  0  0  0  0  0  0  0  0  0  0  0
   46.7938   32.5764   39.4361 H   0  0  0  0  0  0  0  0  0  0  0  0
   49.1542   34.7744   38.3053 H   0  0  0  0  0  0  0  0  0  0  0  0
   48.5971   34.7559   36.6203 H   0  0  0  0  0  0  0  0  0  0  0  0
   50.9593   32.8706   38.3036 H   0  0  0  0  0  0  0  0  0  0  0  0
  1  2  1  0
  1  9  1  0
  3  2  1  0
  3  4  1  0
  5  4  1  0
  6  1  1  0
  6  5  1  0
  7  9  1  0
  7 11  1  0
  8  7  1  0
  8  9  1  0
 10 15  2  0
 11 10  1  0
 11 12  2  0
 12 13  1  0
 13 14  2  0
 15 14  1  0
 16  6  1  0
 17 22  1  0
 17 21  1  0
 17 18  1  0
 18 19  1  0
 18 16  1  0
 20 19  1  0
 21 20  1  0
  2 23  1  0
  2 24  1  0
  3 25  1  0
  3 26  1  0
  4 27  1  0
  4 28  1  0
  5 29  1  0
  5 30  1  0
  6 31  1  6
  7 32  1  6
  8 33  1  0
  8 34  1  0
  9 35  1  1
 10 36  1  0
 12 37  1  0
 14 38  1  0
 16 39  1  0
 17 40  1  6
 18 41  1  6
 19 42  1  0
 19 43  1  0
 21 44  1  0
 21 45  1  0
 22 46  1  0
M  ISO  8  23  13  24  13  25  13  26  13  27  13  28  13  29  13  30  13
M  ISO  8  31  13  32  13  33  13  34  13  35  13  36  14  37  14  38  14
M  ISO  8  39   5  40  13  41  13  42  13  43  13  44  13  45  13  46   3
M  END
>  <minimizedAffinity>  (1) 
-5.62268591

>  <minimizedRMSD>  (1) 
1.86958337

$$$$
