
     RDKit          3D

 41 43  0  0  1  0  0  0  0  0999 V2000
   47.0980   30.3390   48.0720 C   0  0  2  0  0  0  0  0  0  0  0  0
   45.7450   30.7440   48.4960 C   0  0  2  0  0  0  0  0  0  0  0  0
   44.8410   29.8780   47.6990 C   0  0  0  0  0  0  0  0  0  0  0  0
   45.5140   28.6970   47.4380 O   0  0  0  0  0  0  0  0  0  0  0  0
   46.8050   28.8360   47.8280 C   0  0  0  0  0  0  0  0  0  0  0  0
   45.5100   32.0890   48.3390 O   0  0  0  0  0  0  0  0  0  0  0  0
   47.3390   32.7890   46.6810 O   0  0  0  0  0  0  0  0  0  0  0  0
   45.8560   32.5520   46.7790 P   0  0  1  0  0  0  0  0  0  0  0  0
   45.4380   31.3080   45.7090 O   0  0  0  0  0  0  0  0  0  0  0  0
   45.0820   34.0110   46.3320 O   0  0  0  0  0  0  0  0  0  0  0  0
   44.9660   36.3130   43.6160 C   0  0  0  0  0  0  0  0  0  0  0  0
   44.9820   35.4930   42.4560 C   0  0  0  0  0  0  0  0  0  0  0  0
   45.0350   34.1080   42.6790 C   0  0  0  0  0  0  0  0  0  0  0  0
   45.0660   33.6470   43.9420 N   0  0  0  0  0  0  0  0  0  0  0  0
   45.0500   34.4710   45.0150 C   0  0  0  0  0  0  0  0  0  0  0  0
   44.9990   35.7990   44.8430 N   0  0  0  0  0  0  0  0  0  0  0  0
   44.9130   37.6770   43.4100 O   0  0  0  0  0  0  0  0  0  0  0  0
   48.1080   30.4970   48.9560 O   0  0  0  0  0  0  0  0  0  0  0  0
   50.2430   29.5090   49.4000 C   0  0  2  0  0  0  0  0  0  0  0  0
   49.3800   30.5780   48.7530 C   0  0  2  0  0  0  0  0  0  0  0  0
   49.8900   31.7620   49.5940 C   0  0  0  0  0  0  0  0  0  0  0  0
   50.2250   31.2610   50.8310 O   0  0  0  0  0  0  0  0  0  0  0  0
   50.0290   29.8900   50.8480 C   0  0  0  0  0  0  0  0  0  0  0  0
   51.5590   29.6770   49.0490 O   0  0  0  0  0  0  0  0  0  0  0  0
   47.4786   30.9511   47.2410 H   0  0  0  0  0  0  0  0  0  0  0  0
   45.5870   30.6055   49.5757 H   0  0  0  0  0  0  0  0  0  0  0  0
   43.9236   29.6687   48.2688 H   0  0  0  0  0  0  0  0  0  0  0  0
   44.5578   30.3764   46.7602 H   0  0  0  0  0  0  0  0  0  0  0  0
   46.9726   28.2717   48.7572 H   0  0  0  0  0  0  0  0  0  0  0  0
   47.4740   28.4485   47.0455 H   0  0  0  0  0  0  0  0  0  0  0  0
   45.1687   30.5065   46.2239 H   0  0  0  0  0  0  0  0  0  0  0  0
   44.9545   35.9186   41.4420 H   0  0  0  0  0  0  0  0  0  0  0  0
   45.0510   33.4080   41.8306 H   0  0  0  0  0  0  0  0  0  0  0  0
   44.8891   38.0379   42.4884 H   0  0  0  0  0  0  0  0  0  0  0  0
   50.0027   28.4690   49.1342 H   0  0  0  0  0  0  0  0  0  0  0  0
   49.4634   30.5756   47.6562 H   0  0  0  0  0  0  0  0  0  0  0  0
   50.7730   32.2120   49.1167 H   0  0  0  0  0  0  0  0  0  0  0  0
   49.1197   32.5424   49.6816 H   0  0  0  0  0  0  0  0  0  0  0  0
   49.0105   29.6384   51.1786 H   0  0  0  0  0  0  0  0  0  0  0  0
   50.6972   29.3608   51.5433 H   0  0  0  0  0  0  0  0  0  0  0  0
   52.1123   29.7476   49.8669 H   0  0  0  0  0  0  0  0  0  0  0  0
  1  2  1  0
  1 18  1  0
  3  2  1  0
  4  3  1  0
  4  5  1  0
  5  1  1  0
  6  2  1  0
  8  7  2  0
  8  6  1  0
  9  8  1  0
 10  8  1  0
 11 16  2  0
 12 13  2  0
 12 11  1  0
 13 14  1  0
 14 15  2  0
 15 10  1  0
 16 15  1  0
 17 11  1  0
 19 24  1  0
 19 23  1  0
 20 18  1  0
 20 19  1  0
 20 21  1  0
 21 22  1  0
 22 23  1  0
  1 25  1  6
  2 26  1  1
  3 27  1  0
  3 28  1  0
  5 29  1  0
  5 30  1  0
  9 31  1  0
 12 32  1  0
 13 33  1  0
 17 34  1  0
 19 35  1  1
 20 36  1  6
 21 37  1  0
 21 38  1  0
 23 39  1  0
 23 40  1  0
 24 41  1  0
M  ISO  8  25  13  26  13  27  13  28  13  29  13  30  13  31   3  32  14
M  ISO  8  33  14  34   3  35  13  36  13  37  13  38  13  39  13  40  13
M  ISO  1  41   3
M  END
>  <minimizedAffinity>  (1) 
-5.36498785

>  <minimizedRMSD>  (1) 
1.12580347

$$$$
