
     RDKit          3D

 52 55  0  0  1  0  0  0  0  0999 V2000
   45.8970   33.7760   43.1000 C   0  0  2  0  0  0  0  0  0  0  0  0
   45.0670   34.8460   42.4820 C   0  0  2  0  0  0  0  0  0  0  0  0
   45.0040   36.0790   43.3030 C   0  0  0  0  0  0  0  0  0  0  0  0
   44.6100   35.8540   44.7410 C   0  0  0  0  0  0  0  0  0  0  0  0
   45.1220   34.5670   45.3190 C   0  0  0  0  0  0  0  0  0  0  0  0
   46.2970   34.0230   44.5250 C   0  0  0  0  0  0  0  0  0  0  0  0
   42.7190   35.3340   41.6790 C   0  0  1  0  0  0  0  0  0  0  0  0
   43.6820   34.3200   42.1790 C   0  0  1  0  0  0  0  0  0  0  0  0
   43.8030   33.3150   41.2260 O   0  0  0  0  0  0  0  0  0  0  0  0
   43.3600   33.8170   40.0130 C   0  0  0  0  0  0  0  0  0  0  0  0
   42.1400   34.6060   40.4560 C   0  0  2  0  0  0  0  0  0  0  0  0
   41.6850   35.5960   42.5490 O   0  0  0  0  0  0  0  0  0  0  0  0
   41.7570   35.5460   39.5100 O   0  0  0  0  0  0  0  0  0  0  0  0
   40.4800   35.3250   39.0600 C   0  0  0  0  0  0  0  0  0  0  0  0
   40.4230   34.3820   37.8760 C   0  0  0  0  0  0  0  0  0  0  0  0
   38.8980   34.2300   37.7790 C   0  0  0  0  0  0  0  0  0  0  0  0
   38.5350   33.9680   39.2170 C   0  0  0  0  0  0  0  0  0  0  0  0
   39.6590   34.5470   40.0710 C   0  0  0  0  0  0  0  0  0  0  0  0
   47.1150   33.4830   42.3160 C   0  0  0  0  0  0  0  0  0  0  0  0
   48.2930   34.0190   42.8390 C   0  0  0  0  0  0  0  0  0  0  0  0
   49.5170   33.8070   42.1840 C   0  0  0  0  0  0  0  0  0  0  0  0
   49.4510   33.0490   41.0190 N   0  0  0  0  0  0  0  0  0  0  0  0
   48.2860   32.5490   40.5470 C   0  0  0  0  0  0  0  0  0  0  0  0
   47.1140   32.7620   41.1910 N   0  0  0  0  0  0  0  0  0  0  0  0
   45.2215   32.9079   43.0950 H   0  0  0  0  0  0  0  0  0  0  0  0
   45.5579   35.1339   41.5407 H   0  0  0  0  0  0  0  0  0  0  0  0
   45.9970   36.5521   43.2889 H   0  0  0  0  0  0  0  0  0  0  0  0
   44.2201   36.7103   42.8592 H   0  0  0  0  0  0  0  0  0  0  0  0
   45.0062   36.6854   45.3425 H   0  0  0  0  0  0  0  0  0  0  0  0
   43.5116   35.7998   44.7657 H   0  0  0  0  0  0  0  0  0  0  0  0
   45.4440   34.7449   46.3557 H   0  0  0  0  0  0  0  0  0  0  0  0
   44.3096   33.8264   45.2803 H   0  0  0  0  0  0  0  0  0  0  0  0
   46.6325   33.0776   44.9762 H   0  0  0  0  0  0  0  0  0  0  0  0
   47.1121   34.7614   44.5435 H   0  0  0  0  0  0  0  0  0  0  0  0
   43.2019   36.3069   41.5050 H   0  0  0  0  0  0  0  0  0  0  0  0
   43.2700   33.9623   43.1341 H   0  0  0  0  0  0  0  0  0  0  0  0
   43.0885   33.0101   39.3165 H   0  0  0  0  0  0  0  0  0  0  0  0
   44.1089   34.4081   39.4655 H   0  0  0  0  0  0  0  0  0  0  0  0
   41.2498   33.9838   40.6308 H   0  0  0  0  0  0  0  0  0  0  0  0
   42.0090   35.5139   43.4809 H   0  0  0  0  0  0  0  0  0  0  0  0
   40.1139   36.3384   38.8387 H   0  0  0  0  0  0  0  0  0  0  0  0
   40.8534   34.8301   36.9682 H   0  0  0  0  0  0  0  0  0  0  0  0
   40.9904   33.4458   37.9833 H   0  0  0  0  0  0  0  0  0  0  0  0
   38.4247   35.1500   37.4055 H   0  0  0  0  0  0  0  0  0  0  0  0
   38.5670   33.4468   37.0811 H   0  0  0  0  0  0  0  0  0  0  0  0
   37.5821   34.4598   39.4621 H   0  0  0  0  0  0  0  0  0  0  0  0
   38.4150   32.8904   39.4025 H   0  0  0  0  0  0  0  0  0  0  0  0
   40.2556   33.7482   40.5358 H   0  0  0  0  0  0  0  0  0  0  0  0
   39.2981   35.1639   40.9072 H   0  0  0  0  0  0  0  0  0  0  0  0
   48.2625   34.6091   43.7668 H   0  0  0  0  0  0  0  0  0  0  0  0
   50.4650   34.2132   42.5665 H   0  0  0  0  0  0  0  0  0  0  0  0
   48.2908   31.9567   39.6201 H   0  0  0  0  0  0  0  0  0  0  0  0
  1  6  1  0
  2  1  1  0
  2  3  1  0
  3  4  1  0
  4  5  1  0
  6  5  1  0
  7  8  1  0
  7 12  1  0
  8  2  1  0
  9  8  1  0
 10 11  1  0
 10  9  1  0
 11  7  1  0
 13 11  1  0
 14 13  1  0
 14 18  1  0
 15 14  1  0
 16 15  1  0
 16 17  1  0
 17 18  1  0
 19 20  2  0
 19  1  1  0
 21 20  1  0
 22 21  2  0
 23 22  1  0
 23 24  2  0
 24 19  1  0
  1 25  1  1
  2 26  1  6
  3 27  1  0
  3 28  1  0
  4 29  1  0
  4 30  1  0
  5 31  1  0
  5 32  1  0
  6 33  1  0
  6 34  1  0
  7 35  1  6
  8 36  1  1
 10 37  1  0
 10 38  1  0
 11 39  1  1
 12 40  1  0
 14 41  1  0
 15 42  1  0
 15 43  1  0
 16 44  1  0
 16 45  1  0
 17 46  1  0
 17 47  1  0
 18 48  1  0
 18 49  1  0
 20 50  1  0
 21 51  1  0
 23 52  1  0
M  ISO  8  25  13  26  13  27  13  28  13  29  13  30  13  31  13  32  13
M  ISO  8  33  13  34  13  35  13  36  13  37  13  38  13  39  13  40   3
M  ISO  8  41  13  42  13  43  13  44  13  45  13  46  13  47  13  48  13
M  ISO  4  49  13  50  14  51  14  52  14
M  END
>  <minimizedAffinity>  (1) 
-6.92002106

>  <minimizedRMSD>  (1) 
0.841308475

$$$$
