
     RDKit          3D

 47 50  0  0  1  0  0  0  0  0999 V2000
   44.0290   34.6670   42.4400 C   0  0  1  0  0  0  0  0  0  0  0  0
   44.2330   36.1450   41.9690 C   0  0  0  0  0  0  0  0  0  0  0  0
   44.0660   34.9500   41.0350 C   0  0  2  0  0  0  0  0  0  0  0  0
   45.1670   34.1200   43.2030 C   0  0  0  0  0  0  0  0  0  0  0  0
   46.4160   34.0520   42.5620 C   0  0  0  0  0  0  0  0  0  0  0  0
   47.5010   33.5420   43.2670 C   0  0  0  0  0  0  0  0  0  0  0  0
   47.2970   33.1340   44.5450 N   0  0  0  0  0  0  0  0  0  0  0  0
   46.0990   33.2120   45.1250 C   0  0  0  0  0  0  0  0  0  0  0  0
   45.0690   33.7030   44.4330 N   0  0  0  0  0  0  0  0  0  0  0  0
   46.0780   32.7150   46.5430 C   0  0  0  0  0  0  0  0  0  0  0  0
   45.1070   33.3620   47.2930 F   0  0  0  0  0  0  0  0  0  0  0  0
   47.3140   33.0340   47.1520 F   0  0  0  0  0  0  0  0  0  0  0  0
   45.9830   31.3500   46.5600 F   0  0  0  0  0  0  0  0  0  0  0  0
   42.7310   34.8240   40.3340 C   0  0  0  0  0  0  0  0  0  0  0  0
   42.5850   35.1770   39.0150 C   0  0  0  0  0  0  0  0  0  0  0  0
   41.3880   35.0470   38.3420 C   0  0  0  0  0  0  0  0  0  0  0  0
   40.3370   34.5550   39.0180 N   0  0  0  0  0  0  0  0  0  0  0  0
   40.4660   34.1990   40.3260 C   0  0  0  0  0  0  0  0  0  0  0  0
   41.6420   34.3270   40.9910 N   0  0  0  0  0  0  0  0  0  0  0  0
   39.3400   33.6310   41.1280 C   0  0  0  0  0  0  0  0  0  0  0  0
   38.4370   32.8210   40.2310 C   0  0  0  0  0  0  0  0  0  0  0  0
   38.1800   31.4310   40.7390 C   0  0  0  0  0  0  0  0  0  0  0  0
   39.3030   30.9170   41.5790 C   0  0  0  0  0  0  0  0  0  0  0  0
   40.1030   29.9460   40.7700 C   0  0  0  0  0  0  0  0  0  0  0  0
   39.2740   29.6140   39.5600 C   0  0  0  0  0  0  0  0  0  0  0  0
   37.9980   30.4140   39.6540 C   0  0  0  0  0  0  0  0  0  0  0  0
   43.3144   34.0728   43.0285 H   0  0  0  0  0  0  0  0  0  0  0  0
   43.4293   36.8875   42.0819 H   0  0  0  0  0  0  0  0  0  0  0  0
   44.9708   36.9454   42.1275 H   0  0  0  0  0  0  0  0  0  0  0  0
   44.6631   34.5743   40.1910 H   0  0  0  0  0  0  0  0  0  0  0  0
   46.5330   34.3953   41.5235 H   0  0  0  0  0  0  0  0  0  0  0  0
   48.4955   33.4714   42.8022 H   0  0  0  0  0  0  0  0  0  0  0  0
   43.4551   35.5784   38.4749 H   0  0  0  0  0  0  0  0  0  0  0  0
   41.2971   35.3372   37.2849 H   0  0  0  0  0  0  0  0  0  0  0  0
   39.7448   32.9840   41.9202 H   0  0  0  0  0  0  0  0  0  0  0  0
   38.7641   34.4516   41.5807 H   0  0  0  0  0  0  0  0  0  0  0  0
   38.9061   32.7481   39.2387 H   0  0  0  0  0  0  0  0  0  0  0  0
   37.4666   33.3378   40.1962 H   0  0  0  0  0  0  0  0  0  0  0  0
   37.2517   31.5440   41.3182 H   0  0  0  0  0  0  0  0  0  0  0  0
   39.9441   31.7543   41.8921 H   0  0  0  0  0  0  0  0  0  0  0  0
   38.9030   30.4183   42.4742 H   0  0  0  0  0  0  0  0  0  0  0  0
   41.0566   30.4010   40.4642 H   0  0  0  0  0  0  0  0  0  0  0  0
   40.3382   29.0423   41.3514 H   0  0  0  0  0  0  0  0  0  0  0  0
   39.0433   28.5385   39.5458 H   0  0  0  0  0  0  0  0  0  0  0  0
   39.8191   29.8592   38.6365 H   0  0  0  0  0  0  0  0  0  0  0  0
   37.8000   30.9182   38.6966 H   0  0  0  0  0  0  0  0  0  0  0  0
   37.1455   29.7565   39.8798 H   0  0  0  0  0  0  0  0  0  0  0  0
  1  4  1  0
  2  1  1  0
  3  2  1  0
  3  1  1  0
  4  9  1  0
  5  4  2  0
  5  6  1  0
  6  7  2  0
  7  8  1  0
  8 10  1  0
  9  8  2  0
 10 13  1  0
 10 12  1  0
 10 11  1  0
 14 19  1  0
 14  3  1  0
 15 14  2  0
 16 15  1  0
 16 17  2  0
 17 18  1  0
 18 19  2  0
 18 20  1  0
 21 22  1  0
 21 20  1  0
 22 23  1  0
 24 23  1  0
 25 26  1  0
 25 24  1  0
 26 22  1  0
  1 27  1  1
  2 28  1  0
  2 29  1  0
  3 30  1  6
  5 31  1  0
  6 32  1  0
 15 33  1  0
 16 34  1  0
 20 35  1  0
 20 36  1  0
 21 37  1  0
 21 38  1  0
 22 39  1  0
 23 40  1  0
 23 41  1  0
 24 42  1  0
 24 43  1  0
 25 44  1  0
 25 45  1  0
 26 46  1  0
 26 47  1  0
M  ISO  8  27  13  28  13  29  13  30  13  31  14  32  14  33  14  34  14
M  ISO  8  35   8  36   8  37   8  38   8  39  13  40  13  41  13  42  13
M  ISO  5  43  13  44  13  45  13  46  13  47  13
M  END
>  <minimizedAffinity>  (1) 
-5.74029922

>  <minimizedRMSD>  (1) 
0.878227592

$$$$
