
     RDKit          3D

 51 54  0  0  0  0  0  0  0  0999 V2000
   47.6760   30.9960   46.0120 C   0  0  0  0  0  0  0  0  0  0  0  0
   46.9600   32.0680   45.5350 C   0  0  0  0  0  0  0  0  0  0  0  0
   45.9790   32.5810   46.3330 C   0  0  0  0  0  0  0  0  0  0  0  0
   45.6720   32.0850   47.5780 C   0  0  0  0  0  0  0  0  0  0  0  0
   44.7980   32.3510   48.5790 N   0  0  0  0  0  0  0  0  0  0  0  0
   44.9840   31.4780   49.6050 C   0  0  0  0  0  0  0  0  0  0  0  0
   45.9860   30.6570   49.2380 N   0  0  0  0  0  0  0  0  0  0  0  0
   46.4130   31.0150   48.0100 C   0  0  0  0  0  0  0  0  0  0  0  0
   47.4150   30.4420   47.2690 C   0  0  0  0  0  0  0  0  0  0  0  0
   47.1920   34.4080   42.7350 C   0  0  0  0  0  0  0  0  0  0  0  0
   47.8160   33.6480   41.7350 C   0  0  0  0  0  0  0  0  0  0  0  0
   48.1400   32.3180   42.0800 C   0  0  0  0  0  0  0  0  0  0  0  0
   47.8520   31.8460   43.3050 N   0  0  0  0  0  0  0  0  0  0  0  0
   47.2520   32.6270   44.2190 C   0  0  0  0  0  0  0  0  0  0  0  0
   46.9180   33.8970   43.9590 N   0  0  0  0  0  0  0  0  0  0  0  0
   48.0820   34.2760   40.4260 C   0  0  0  0  0  0  0  0  0  0  0  0
   48.5840   35.5350   40.7410 F   0  0  0  0  0  0  0  0  0  0  0  0
   46.9030   34.4210   39.7710 F   0  0  0  0  0  0  0  0  0  0  0  0
   48.9910   33.4970   39.7400 F   0  0  0  0  0  0  0  0  0  0  0  0
   48.1280   29.3650   47.7560 O   0  0  0  0  0  0  0  0  0  0  0  0
   49.7830   28.0570   49.2570 O   0  0  0  0  0  0  0  0  0  0  0  0
   49.4480   29.4600   48.8000 P   0  0  2  0  0  0  0  0  0  0  0  0
   48.9250   30.3180   50.1770 O   0  0  0  0  0  0  0  0  0  0  0  0
   50.8020   30.2050   48.1330 O   0  0  0  0  0  0  0  0  0  0  0  0
   51.9210   30.1400   48.9120 C   0  0  0  0  0  0  0  0  0  0  0  0
   52.4390   31.5810   49.0750 C   0  0  0  0  0  0  0  0  0  0  0  0
   53.6230   31.7170   48.1480 C   0  0  0  0  0  0  0  0  0  0  0  0
   54.2100   30.3940   47.7600 C   0  0  0  0  0  0  0  0  0  0  0  0
   55.7130   30.5410   47.7250 C   0  0  0  0  0  0  0  0  0  0  0  0
   56.0150   31.9750   48.1140 C   0  0  0  0  0  0  0  0  0  0  0  0
   54.7490   32.4900   48.7550 C   0  0  0  0  0  0  0  0  0  0  0  0
   48.4735   30.5636   45.3899 H   0  0  0  0  0  0  0  0  0  0  0  0
   45.4016   33.4394   45.9592 H   0  0  0  0  0  0  0  0  0  0  0  0
   44.0956   33.1042   48.5648 H   0  0  0  0  0  0  0  0  0  0  0  0
   44.4242   31.4484   50.5514 H   0  0  0  0  0  0  0  0  0  0  0  0
   46.9168   35.4508   42.5186 H   0  0  0  0  0  0  0  0  0  0  0  0
   48.6304   31.6651   41.3430 H   0  0  0  0  0  0  0  0  0  0  0  0
   49.2162   29.8403   50.9938 H   0  0  0  0  0  0  0  0  0  0  0  0
   51.6728   29.7141   49.8953 H   0  0  0  0  0  0  0  0  0  0  0  0
   52.6850   29.4977   48.4497 H   0  0  0  0  0  0  0  0  0  0  0  0
   51.6546   32.3007   48.7980 H   0  0  0  0  0  0  0  0  0  0  0  0
   52.7237   31.7864   50.1175 H   0  0  0  0  0  0  0  0  0  0  0  0
   53.2085   32.2404   47.2738 H   0  0  0  0  0  0  0  0  0  0  0  0
   53.9270   29.6293   48.4984 H   0  0  0  0  0  0  0  0  0  0  0  0
   53.8338   30.0841   46.7739 H   0  0  0  0  0  0  0  0  0  0  0  0
   56.1793   29.8472   48.4399 H   0  0  0  0  0  0  0  0  0  0  0  0
   56.1122   30.3073   46.7270 H   0  0  0  0  0  0  0  0  0  0  0  0
   56.8510   32.0125   48.8280 H   0  0  0  0  0  0  0  0  0  0  0  0
   56.3104   32.5816   47.2452 H   0  0  0  0  0  0  0  0  0  0  0  0
   54.6279   33.5637   48.5487 H   0  0  0  0  0  0  0  0  0  0  0  0
   54.7757   32.3637   49.8474 H   0  0  0  0  0  0  0  0  0  0  0  0
  1  9  2  0
  2  1  1  0
  2  3  2  0
  3  4  1  0
  4  8  2  0
  4  5  1  0
  5  6  1  0
  7  6  2  0
  8  7  1  0
  9 20  1  0
  9  8  1  0
 10 15  2  0
 11 12  2  0
 11 10  1  0
 12 13  1  0
 13 14  2  0
 14  2  1  0
 15 14  1  0
 16 17  1  0
 16 11  1  0
 18 16  1  0
 19 16  1  0
 20 22  1  0
 22 21  2  0
 22 23  1  0
 24 22  1  0
 24 25  1  0
 25 26  1  0
 27 31  1  0
 27 26  1  0
 28 27  1  0
 29 28  1  0
 29 30  1  0
 30 31  1  0
  1 32  1  0
  3 33  1  0
  5 34  1  0
  6 35  1  0
 10 36  1  0
 12 37  1  0
 23 38  1  0
 25 39  1  0
 25 40  1  0
 26 41  1  0
 26 42  1  0
 27 43  1  0
 28 44  1  0
 28 45  1  0
 29 46  1  0
 29 47  1  0
 30 48  1  0
 30 49  1  0
 31 50  1  0
 31 51  1  0
M  ISO  8  32  14  33  14  34   9  35  14  36  14  37  14  38   3  39   8
M  ISO  8  40   8  41   8  42   8  43  13  44  13  45  13  46  13  47  13
M  ISO  4  48  13  49  13  50  13  51  13
M  END
>  <minimizedAffinity>  (1) 
-5.47750473

>  <minimizedRMSD>  (1) 
1.00923598

$$$$
