
     RDKit          3D

 40 42  0  0  1  0  0  0  0  0999 V2000
   45.0350   34.6670   44.8710 C   0  0  0  0  0  0  0  0  0  0  0  0
   45.9560   34.6090   43.7830 C   0  0  0  0  0  0  0  0  0  0  0  0
   47.0590   33.7480   43.9190 C   0  0  0  0  0  0  0  0  0  0  0  0
   47.1820   33.0320   45.0620 N   0  0  0  0  0  0  0  0  0  0  0  0
   46.2970   33.1080   46.0730 C   0  0  0  0  0  0  0  0  0  0  0  0
   45.2320   33.9270   45.9630 N   0  0  0  0  0  0  0  0  0  0  0  0
   46.5130   32.3270   47.2150 N   0  0  0  0  0  0  0  0  0  0  0  0
   47.7200   32.4750   47.9670 C   0  0  0  0  0  0  0  0  0  0  0  0
   47.9810   31.3590   48.9220 C   0  0  0  0  0  0  0  0  0  0  0  0
   46.8400   30.7070   49.4730 N   0  0  0  0  0  0  0  0  0  0  0  0
   45.5980   31.3300   49.1210 C   0  0  0  0  0  0  0  0  0  0  0  0
   45.4890   31.3590   47.6300 C   0  0  2  0  0  0  0  0  0  0  0  0
   45.6900   30.0310   46.9830 C   0  0  0  0  0  0  0  0  0  0  0  0
   44.5020   29.1580   47.2380 C   0  0  0  0  0  0  0  0  0  0  0  0
   44.9370   27.8590   47.9140 C   0  0  0  0  0  0  0  0  0  0  0  0
   45.5320   27.0500   46.7720 C   0  0  0  0  0  0  0  0  0  0  0  0
   45.0360   27.6770   45.4870 C   0  0  0  0  0  0  0  0  0  0  0  0
   43.9380   28.6280   45.9490 C   0  0  0  0  0  0  0  0  0  0  0  0
   44.1567   35.3263   44.8089 H   0  0  0  0  0  0  0  0  0  0  0  0
   45.8092   35.2129   42.8754 H   0  0  0  0  0  0  0  0  0  0  0  0
   47.8049   33.6579   43.1156 H   0  0  0  0  0  0  0  0  0  0  0  0
   48.5623   32.5307   47.2617 H   0  0  0  0  0  0  0  0  0  0  0  0
   47.6099   33.3893   48.5686 H   0  0  0  0  0  0  0  0  0  0  0  0
   48.5753   30.5997   48.3926 H   0  0  0  0  0  0  0  0  0  0  0  0
   48.4889   31.8254   49.7791 H   0  0  0  0  0  0  0  0  0  0  0  0
   46.8246   29.7348   49.1331 H   0  0  0  0  0  0  0  0  0  0  0  0
   44.7611   30.7544   49.5433 H   0  0  0  0  0  0  0  0  0  0  0  0
   45.5622   32.3537   49.5220 H   0  0  0  0  0  0  0  0  0  0  0  0
   44.4735   31.6409   47.3150 H   0  0  0  0  0  0  0  0  0  0  0  0
   46.5896   29.5543   47.3995 H   0  0  0  0  0  0  0  0  0  0  0  0
   45.8125   30.1701   45.8987 H   0  0  0  0  0  0  0  0  0  0  0  0
   43.8016   29.7745   47.8205 H   0  0  0  0  0  0  0  0  0  0  0  0
   45.6893   28.0532   48.6927 H   0  0  0  0  0  0  0  0  0  0  0  0
   44.1101   27.3412   48.4220 H   0  0  0  0  0  0  0  0  0  0  0  0
   46.6306   27.0886   46.8128 H   0  0  0  0  0  0  0  0  0  0  0  0
   45.2310   25.9940   46.8377 H   0  0  0  0  0  0  0  0  0  0  0  0
   44.6320   26.9119   44.8077 H   0  0  0  0  0  0  0  0  0  0  0  0
   45.8332   28.1868   44.9261 H   0  0  0  0  0  0  0  0  0  0  0  0
   43.7778   29.4368   45.2208 H   0  0  0  0  0  0  0  0  0  0  0  0
   42.9547   28.1478   46.0605 H   0  0  0  0  0  0  0  0  0  0  0  0
  1  6  2  0
  2  3  2  0
  2  1  1  0
  3  4  1  0
  4  5  2  0
  5  7  1  0
  6  5  1  0
  7 12  1  0
  7  8  1  0
  8  9  1  0
  9 10  1  0
 11 10  1  0
 12 11  1  0
 13 14  1  0
 13 12  1  0
 14 15  1  0
 16 15  1  0
 17 18  1  0
 17 16  1  0
 18 14  1  0
  1 19  1  0
  2 20  1  0
  3 21  1  0
  8 22  1  0
  8 23  1  0
  9 24  1  0
  9 25  1  0
 10 26  1  0
 11 27  1  0
 11 28  1  0
 12 29  1  1
 13 30  1  0
 13 31  1  0
 14 32  1  0
 15 33  1  0
 15 34  1  0
 16 35  1  0
 16 36  1  0
 17 37  1  0
 17 38  1  0
 18 39  1  0
 18 40  1  0
M  ISO  8  19  14  20  14  21  14  22  13  23  13  24  13  25  13  26   5
M  ISO  8  27  13  28  13  29  13  30   8  31   8  32  13  33  13  34  13
M  ISO  6  35  13  36  13  37  13  38  13  39  13  40  13
M  END
>  <minimizedAffinity>  (1) 
-5.16287184

>  <minimizedRMSD>  (1) 
1.03055143

$$$$
