
     RDKit          3D

 27 28  0  0  0  0  0  0  0  0999 V2000
   44.4620   35.9440   44.8750 C   0  0  0  0  0  0  0  0  0  0  0  0
   45.0370   35.8800   43.6000 C   0  0  0  0  0  0  0  0  0  0  0  0
   45.8970   34.8270   43.2960 C   0  0  0  0  0  0  0  0  0  0  0  0
   46.1560   33.8870   44.2480 N   0  0  0  0  0  0  0  0  0  0  0  0
   45.5740   33.9860   45.4800 C   0  0  0  0  0  0  0  0  0  0  0  0
   44.7390   35.0050   45.7830 N   0  0  0  0  0  0  0  0  0  0  0  0
   45.9680   33.8790   41.0000 C   0  0  0  0  0  0  0  0  0  0  0  0
   44.9160   33.2400   41.3530 O   0  0  0  0  0  0  0  0  0  0  0  0
   46.5190   34.6960   42.0220 N   0  0  0  0  0  0  0  0  0  0  0  0
   46.6320   33.8530   39.7030 C   0  0  0  0  0  0  0  0  0  0  0  0
   46.9400   32.4750   39.1650 C   0  0  0  0  0  0  0  0  0  0  0  0
   47.7020   32.8710   37.8920 C   0  0  0  0  0  0  0  0  0  0  0  0
   48.4510   34.1520   38.2560 C   0  0  0  0  0  0  0  0  0  0  0  0
   48.0100   34.4620   39.6920 C   0  0  0  0  0  0  0  0  0  0  0  0
   43.7808   36.7694   45.1292 H   0  0  0  0  0  0  0  0  0  0  0  0
   44.8126   36.6510   42.8482 H   0  0  0  0  0  0  0  0  0  0  0  0
   45.7892   33.2211   46.2407 H   0  0  0  0  0  0  0  0  0  0  0  0
   47.3931   35.2083   41.8366 H   0  0  0  0  0  0  0  0  0  0  0  0
   45.8866   34.4040   39.1107 H   0  0  0  0  0  0  0  0  0  0  0  0
   47.5682   31.8944   39.8566 H   0  0  0  0  0  0  0  0  0  0  0  0
   46.0664   31.8254   39.0074 H   0  0  0  0  0  0  0  0  0  0  0  0
   47.0011   33.0558   37.0646 H   0  0  0  0  0  0  0  0  0  0  0  0
   48.3849   32.0762   37.5575 H   0  0  0  0  0  0  0  0  0  0  0  0
   49.5384   33.9928   38.2093 H   0  0  0  0  0  0  0  0  0  0  0  0
   48.2283   34.9771   37.5635 H   0  0  0  0  0  0  0  0  0  0  0  0
   48.6700   33.9831   40.4303 H   0  0  0  0  0  0  0  0  0  0  0  0
   48.0378   35.5295   39.9561 H   0  0  0  0  0  0  0  0  0  0  0  0
  1  6  2  0
  2  1  1  0
  3  2  2  0
  3  4  1  0
  4  5  2  0
  5  6  1  0
  7  8  2  0
  7  9  1  0
  9  3  1  0
 10  7  1  0
 11 10  1  0
 12 13  1  0
 12 11  1  0
 13 14  1  0
 14 10  1  0
  1 15  1  0
  2 16  1  0
  5 17  1  0
  9 18  1  0
 10 19  1  0
 11 20  1  0
 11 21  1  0
 12 22  1  0
 12 23  1  0
 13 24  1  0
 13 25  1  0
 14 26  1  0
 14 27  1  0
M  ISO  8  15  14  16  14  17  14  19  13  20  13  21  13  22  13  23  13
M  ISO  4  24  13  25  13  26  13  27  13
M  END
>  <minimizedAffinity>  (1) 
-4.07458305

>  <minimizedRMSD>  (1) 
0.560545146

$$$$
