
     RDKit          3D

 33 35  0  0  0  0  0  0  0  0999 V2000
   47.1720   33.6070   41.1950 O   0  0  0  0  0  0  0  0  0  0  0  0
   47.3080   33.7140   39.7920 C   0  0  0  0  0  0  0  0  0  0  0  0
   48.2610   34.2720   38.9880 C   0  0  0  0  0  0  0  0  0  0  0  0
   47.8750   34.0810   37.6780 C   0  0  0  0  0  0  0  0  0  0  0  0
   46.6820   33.4050   37.7370 C   0  0  0  0  0  0  0  0  0  0  0  0
   46.3580   33.1930   39.0050 O   0  0  0  0  0  0  0  0  0  0  0  0
   45.8460   32.9560   36.5710 C   0  0  0  0  0  0  0  0  0  0  0  0
   44.7360   32.0370   36.9650 C   0  0  0  0  0  0  0  0  0  0  0  0
   45.3320   30.6510   36.8220 C   0  0  0  0  0  0  0  0  0  0  0  0
   46.5230   30.7930   35.9170 C   0  0  0  0  0  0  0  0  0  0  0  0
   46.7000   32.2410   35.5810 C   0  0  0  0  0  0  0  0  0  0  0  0
   47.3270   34.7570   41.9910 C   0  0  0  0  0  0  0  0  0  0  0  0
   48.1800   35.5870   41.6360 O   0  0  0  0  0  0  0  0  0  0  0  0
   46.4530   34.8030   43.1310 C   0  0  0  0  0  0  0  0  0  0  0  0
   45.5720   35.8720   43.0740 C   0  0  0  0  0  0  0  0  0  0  0  0
   44.6690   36.0000   44.1570 C   0  0  0  0  0  0  0  0  0  0  0  0
   44.7210   35.0870   45.1610 N   0  0  0  0  0  0  0  0  0  0  0  0
   45.6060   34.0770   45.1450 C   0  0  0  0  0  0  0  0  0  0  0  0
   46.4790   33.9280   44.1290 N   0  0  0  0  0  0  0  0  0  0  0  0
   49.1746   34.7832   39.3257 H   0  0  0  0  0  0  0  0  0  0  0  0
   48.4117   34.4035   36.7736 H   0  0  0  0  0  0  0  0  0  0  0  0
   45.4040   33.8673   36.1418 H   0  0  0  0  0  0  0  0  0  0  0  0
   44.4258   32.2229   38.0038 H   0  0  0  0  0  0  0  0  0  0  0  0
   43.8362   32.1743   36.3474 H   0  0  0  0  0  0  0  0  0  0  0  0
   45.6444   30.2679   37.8047 H   0  0  0  0  0  0  0  0  0  0  0  0
   44.5992   29.9424   36.4087 H   0  0  0  0  0  0  0  0  0  0  0  0
   47.4226   30.4187   36.4275 H   0  0  0  0  0  0  0  0  0  0  0  0
   46.3663   30.2110   34.9968 H   0  0  0  0  0  0  0  0  0  0  0  0
   47.7533   32.5397   35.6874 H   0  0  0  0  0  0  0  0  0  0  0  0
   46.4193   32.4686   34.5420 H   0  0  0  0  0  0  0  0  0  0  0  0
   45.5744   36.5817   42.2336 H   0  0  0  0  0  0  0  0  0  0  0  0
   43.9396   36.8229   44.1846 H   0  0  0  0  0  0  0  0  0  0  0  0
   45.6186   33.3576   45.9770 H   0  0  0  0  0  0  0  0  0  0  0  0
  1 12  1  0
  2  1  1  0
  3  2  2  0
  4  5  2  0
  4  3  1  0
  5  6  1  0
  6  2  1  0
  7  8  1  0
  7  5  1  0
  9  8  1  0
 10  9  1  0
 11 10  1  0
 11  7  1  0
 12 14  1  0
 13 12  2  0
 14 19  1  0
 15 14  2  0
 15 16  1  0
 16 17  2  0
 18 17  1  0
 19 18  2  0
  3 20  1  0
  4 21  1  0
  7 22  1  0
  8 23  1  0
  8 24  1  0
  9 25  1  0
  9 26  1  0
 10 27  1  0
 10 28  1  0
 11 29  1  0
 11 30  1  0
 15 31  1  0
 16 32  1  0
 18 33  1  0
M  ISO  8  20  14  21  14  22  13  23  13  24  13  25  13  26  13  27  13
M  ISO  6  28  13  29  13  30  13  31  14  32  14  33  14
M  END
>  <minimizedAffinity>  (1) 
-4.5790596

>  <minimizedRMSD>  (1) 
0.529640257

$$$$
