
     RDKit          3D

 30 32  0  0  0  0  0  0  0  0999 V2000
   45.4190   33.6770   45.9650 C   0  0  0  0  0  0  0  0  0  0  0  0
   45.8350   33.5640   44.5780 C   0  0  0  0  0  0  0  0  0  0  0  0
   46.8850   32.6650   44.4650 C   0  0  0  0  0  0  0  0  0  0  0  0
   47.4190   31.9960   45.5590 N   0  0  0  0  0  0  0  0  0  0  0  0
   46.9670   32.1650   46.8060 C   0  0  0  0  0  0  0  0  0  0  0  0
   45.9540   33.0150   47.0140 N   0  0  0  0  0  0  0  0  0  0  0  0
   47.3770   32.3570   43.0730 C   0  0  0  0  0  0  0  0  0  0  0  0
   48.6630   33.1460   42.7620 C   0  0  0  0  0  0  0  0  0  0  0  0
   48.5990   31.6140   42.9480 C   0  0  0  0  0  0  0  0  0  0  0  0
   45.1690   34.3000   43.5660 C   0  0  0  0  0  0  0  0  0  0  0  0
   45.7570   35.5260   42.9550 C   0  0  0  0  0  0  0  0  0  0  0  0
   44.5310   36.0610   42.2290 C   0  0  0  0  0  0  0  0  0  0  0  0
   43.6060   34.8840   41.9900 C   0  0  0  0  0  0  0  0  0  0  0  0
   44.4250   33.6560   42.4640 C   0  0  0  0  0  0  0  0  0  0  0  0
   44.5900   34.3668   46.1817 H   0  0  0  0  0  0  0  0  0  0  0  0
   47.4191   31.6159   47.6451 H   0  0  0  0  0  0  0  0  0  0  0  0
   46.3887   32.2125   42.6122 H   0  0  0  0  0  0  0  0  0  0  0  0
   49.1284   33.7861   43.5260 H   0  0  0  0  0  0  0  0  0  0  0  0
   49.0078   33.8477   41.9882 H   0  0  0  0  0  0  0  0  0  0  0  0
   48.7481   30.9540   42.0807 H   0  0  0  0  0  0  0  0  0  0  0  0
   49.1292   30.8989   43.5942 H   0  0  0  0  0  0  0  0  0  0  0  0
   44.4915   34.5492   44.3960 H   0  0  0  0  0  0  0  0  0  0  0  0
   46.1213   36.2299   43.7178 H   0  0  0  0  0  0  0  0  0  0  0  0
   46.6384   35.3546   42.3196 H   0  0  0  0  0  0  0  0  0  0  0  0
   44.0265   36.8179   42.8475 H   0  0  0  0  0  0  0  0  0  0  0  0
   44.8149   36.5354   41.2780 H   0  0  0  0  0  0  0  0  0  0  0  0
   42.6823   34.9878   42.5782 H   0  0  0  0  0  0  0  0  0  0  0  0
   43.2915   34.8012   40.9392 H   0  0  0  0  0  0  0  0  0  0  0  0
   43.7793   32.8402   42.8212 H   0  0  0  0  0  0  0  0  0  0  0  0
   45.0403   33.1667   41.6946 H   0  0  0  0  0  0  0  0  0  0  0  0
  1  6  2  0
  2  1  1  0
  3  2  2  0
  3  4  1  0
  4  5  2  0
  5  6  1  0
  7  3  1  0
  8  9  1  0
  8  7  1  0
  9  7  1  0
 10  2  1  0
 11 10  1  0
 12 11  1  0
 13 12  1  0
 13 14  1  0
 14 10  1  0
  1 15  1  0
  5 16  1  0
  7 17  1  0
  8 18  1  0
  8 19  1  0
  9 20  1  0
  9 21  1  0
 10 22  1  0
 11 23  1  0
 11 24  1  0
 12 25  1  0
 12 26  1  0
 13 27  1  0
 13 28  1  0
 14 29  1  0
 14 30  1  0
M  ISO  8  15  14  16  14  17  13  18  13  19  13  20  13  21  13  22  13
M  ISO  8  23  13  24  13  25  13  26  13  27  13  28  13  29  13  30  13
M  END
>  <minimizedAffinity>  (1) 
-3.55288911

>  <minimizedRMSD>  (1) 
2.92876983

$$$$
