
     RDKit          3D

 39 41  0  0  0  0  0  0  0  0999 V2000
   44.7280   34.8350   41.4690 C   0  0  0  0  0  0  0  0  0  0  0  0
   43.7360   35.8050   41.6170 C   0  0  0  0  0  0  0  0  0  0  0  0
   42.3610   35.3370   41.4120 C   0  0  0  0  0  0  0  0  0  0  0  0
   42.1180   34.6450   40.0600 C   0  0  0  0  0  0  0  0  0  0  0  0
   43.3670   34.0190   39.5010 C   0  0  0  0  0  0  0  0  0  0  0  0
   44.2430   33.6120   40.6570 C   0  0  0  0  0  0  0  0  0  0  0  0
   45.4640   34.3060   42.6170 C   0  0  0  0  0  0  0  0  0  0  0  0
   46.8680   34.3570   42.4590 C   0  0  0  0  0  0  0  0  0  0  0  0
   47.4710   33.9440   43.5890 C   0  0  0  0  0  0  0  0  0  0  0  0
   46.8070   33.5430   44.7030 N   0  0  0  0  0  0  0  0  0  0  0  0
   45.4900   33.5050   44.8180 C   0  0  0  0  0  0  0  0  0  0  0  0
   44.8270   33.8960   43.7500 N   0  0  0  0  0  0  0  0  0  0  0  0
   47.8680   34.7860   41.5310 C   0  0  0  0  0  0  0  0  0  0  0  0
   49.2730   34.1670   41.7650 C   0  0  0  0  0  0  0  0  0  0  0  0
   49.4260   32.9900   40.8860 C   0  0  0  0  0  0  0  0  0  0  0  0
   48.1650   32.9020   40.0550 C   0  0  0  0  0  0  0  0  0  0  0  0
   47.7590   34.3640   40.0960 C   0  0  0  0  0  0  0  0  0  0  0  0
   45.4594   35.4767   40.9560 H   0  0  0  0  0  0  0  0  0  0  0  0
   43.8077   36.2104   42.6370 H   0  0  0  0  0  0  0  0  0  0  0  0
   43.9222   36.5506   40.8300 H   0  0  0  0  0  0  0  0  0  0  0  0
   42.1183   34.6224   42.2123 H   0  0  0  0  0  0  0  0  0  0  0  0
   41.7207   36.2313   41.4254 H   0  0  0  0  0  0  0  0  0  0  0  0
   41.3603   33.8594   40.1968 H   0  0  0  0  0  0  0  0  0  0  0  0
   41.7806   35.4121   39.3475 H   0  0  0  0  0  0  0  0  0  0  0  0
   43.1050   33.1344   38.9020 H   0  0  0  0  0  0  0  0  0  0  0  0
   43.8962   34.7348   38.8548 H   0  0  0  0  0  0  0  0  0  0  0  0
   43.6702   32.9482   41.3212 H   0  0  0  0  0  0  0  0  0  0  0  0
   45.1273   33.0987   40.2514 H   0  0  0  0  0  0  0  0  0  0  0  0
   48.5707   33.9305   43.6113 H   0  0  0  0  0  0  0  0  0  0  0  0
   44.9863   33.1716   45.7373 H   0  0  0  0  0  0  0  0  0  0  0  0
   47.7222   35.8625   41.7038 H   0  0  0  0  0  0  0  0  0  0  0  0
   50.0487   34.9097   41.5270 H   0  0  0  0  0  0  0  0  0  0  0  0
   49.3779   33.8642   42.8173 H   0  0  0  0  0  0  0  0  0  0  0  0
   50.3024   33.1156   40.2332 H   0  0  0  0  0  0  0  0  0  0  0  0
   49.5770   32.0731   41.4747 H   0  0  0  0  0  0  0  0  0  0  0  0
   47.4095   32.2499   40.5177 H   0  0  0  0  0  0  0  0  0  0  0  0
   48.2866   32.4702   39.0506 H   0  0  0  0  0  0  0  0  0  0  0  0
   48.4338   34.9653   39.4690 H   0  0  0  0  0  0  0  0  0  0  0  0
   46.7388   34.5086   39.7110 H   0  0  0  0  0  0  0  0  0  0  0  0
  1  2  1  0
  1  7  1  0
  3  2  1  0
  4  3  1  0
  5  4  1  0
  5  6  1  0
  6  1  1  0
  7 12  2  0
  8  7  1  0
  8  9  2  0
  9 10  1  0
 10 11  2  0
 12 11  1  0
 13 14  1  0
 13  8  1  0
 15 14  1  0
 16 17  1  0
 16 15  1  0
 17 13  1  0
  1 18  1  0
  2 19  1  0
  2 20  1  0
  3 21  1  0
  3 22  1  0
  4 23  1  0
  4 24  1  0
  5 25  1  0
  5 26  1  0
  6 27  1  0
  6 28  1  0
  9 29  1  0
 11 30  1  0
 13 31  1  0
 14 32  1  0
 14 33  1  0
 15 34  1  0
 15 35  1  0
 16 36  1  0
 16 37  1  0
 17 38  1  0
 17 39  1  0
M  ISO  8  18  13  19  13  20  13  21  13  22  13  23  13  24  13  25  13
M  ISO  8  26  13  27  13  28  13  29  14  30  14  31  13  32  13  33  13
M  ISO  6  34  13  35  13  36  13  37  13  38  13  39  13
M  END
>  <minimizedAffinity>  (1) 
-4.78684521

>  <minimizedRMSD>  (1) 
3.83804798

$$$$
