
     RDKit          3D

 32 34  0  0  1  0  0  0  0  0999 V2000
   45.7370   32.5610   44.6860 C   0  0  1  0  0  0  0  0  0  0  0  0
   47.2140   32.3490   44.8020 C   0  0  0  0  0  0  0  0  0  0  0  0
   46.4500   32.8950   45.9580 C   0  0  2  0  0  0  0  0  0  0  0  0
   44.3510   34.7140   42.0550 C   0  0  0  0  0  0  0  0  0  0  0  0
   44.3030   35.9840   42.6740 C   0  0  0  0  0  0  0  0  0  0  0  0
   44.7500   36.0940   44.0140 C   0  0  0  0  0  0  0  0  0  0  0  0
   45.1980   34.9590   44.6160 N   0  0  0  0  0  0  0  0  0  0  0  0
   45.2140   33.7640   43.9580 C   0  0  0  0  0  0  0  0  0  0  0  0
   44.8010   33.6380   42.7050 N   0  0  0  0  0  0  0  0  0  0  0  0
   43.8850   34.7260   40.7120 C   0  0  0  0  0  0  0  0  0  0  0  0
   44.1210   33.8250   39.8480 O   0  0  0  0  0  0  0  0  0  0  0  0
   46.3790   32.0200   47.1570 C   0  0  0  0  0  0  0  0  0  0  0  0
   45.2000   32.3130   48.0520 C   0  0  0  0  0  0  0  0  0  0  0  0
   45.5470   31.4720   49.2830 C   0  0  0  0  0  0  0  0  0  0  0  0
   47.0120   31.1330   49.1870 C   0  0  0  0  0  0  0  0  0  0  0  0
   47.5230   32.1010   48.1090 C   0  0  0  0  0  0  0  0  0  0  0  0
   44.9138   31.9087   44.3592 H   0  0  0  0  0  0  0  0  0  0  0  0
   47.6210   31.3280   44.8451 H   0  0  0  0  0  0  0  0  0  0  0  0
   48.0934   32.6759   44.2277 H   0  0  0  0  0  0  0  0  0  0  0  0
   46.4587   33.7981   46.5860 H   0  0  0  0  0  0  0  0  0  0  0  0
   43.9285   36.8635   42.1298 H   0  0  0  0  0  0  0  0  0  0  0  0
   44.7355   37.0569   44.5455 H   0  0  0  0  0  0  0  0  0  0  0  0
   43.2718   35.5828   40.3960 H   0  0  0  0  0  0  0  0  0  0  0  0
   46.3392   31.0397   46.6595 H   0  0  0  0  0  0  0  0  0  0  0  0
   45.1373   33.3830   48.2991 H   0  0  0  0  0  0  0  0  0  0  0  0
   44.2231   32.0776   47.6044 H   0  0  0  0  0  0  0  0  0  0  0  0
   45.3517   32.0468   50.2003 H   0  0  0  0  0  0  0  0  0  0  0  0
   44.9346   30.5589   49.3196 H   0  0  0  0  0  0  0  0  0  0  0  0
   47.5212   31.3060   50.1466 H   0  0  0  0  0  0  0  0  0  0  0  0
   47.1965   30.0765   48.9424 H   0  0  0  0  0  0  0  0  0  0  0  0
   48.4624   31.7529   47.6547 H   0  0  0  0  0  0  0  0  0  0  0  0
   47.7718   33.1124   48.4627 H   0  0  0  0  0  0  0  0  0  0  0  0
  1  2  1  0
  1  3  1  0
  2  3  1  0
  3 12  1  0
  4  5  2  0
  4  9  1  0
  5  6  1  0
  6  7  2  0
  8  7  1  0
  8  1  1  0
  9  8  2  0
 10  4  1  0
 11 10  2  0
 12 13  1  0
 12 16  1  0
 13 14  1  0
 15 14  1  0
 16 15  1  0
  1 17  1  1
  2 18  1  0
  2 19  1  0
  3 20  1  1
  5 21  1  0
  6 22  1  0
 10 23  1  0
 12 24  1  0
 13 25  1  0
 13 26  1  0
 14 27  1  0
 14 28  1  0
 15 29  1  0
 15 30  1  0
 16 31  1  0
 16 32  1  0
M  ISO  8  17  13  18  13  19  13  20  13  21  14  22  14  23   6  24  13
M  ISO  8  25  13  26  13  27  13  28  13  29  13  30  13  31  13  32  13
M  END
>  <minimizedAffinity>  (1) 
-4.78660393

>  <minimizedRMSD>  (1) 
2.36528182

$$$$
