
     RDKit          3D

 46 50  0  0  1  0  0  0  0  0999 V2000
   46.3660   32.5520   45.9170 C   0  0  1  0  0  0  0  0  0  0  0  0
   46.9870   32.6740   47.2440 C   0  0  0  0  0  0  0  0  0  0  0  0
   45.5490   32.0650   47.0100 C   0  0  2  0  0  0  0  0  0  0  0  0
   45.2970   30.6560   47.3220 C   0  0  0  0  0  0  0  0  0  0  0  0
   45.1380   30.0950   48.5500 C   0  0  0  0  0  0  0  0  0  0  0  0
   45.0320   28.7350   48.8160 C   0  0  0  0  0  0  0  0  0  0  0  0
   45.0970   27.8770   47.7070 C   0  0  0  0  0  0  0  0  0  0  0  0
   45.2570   28.4300   46.4360 C   0  0  0  0  0  0  0  0  0  0  0  0
   45.2530   27.5470   45.3740 C   0  0  0  0  0  0  0  0  0  0  0  0
   45.3390   28.0520   44.0770 C   0  0  0  0  0  0  0  0  0  0  0  0
   45.4240   29.4120   43.8580 C   0  0  0  0  0  0  0  0  0  0  0  0
   45.4250   30.2420   44.9540 C   0  0  0  0  0  0  0  0  0  0  0  0
   45.3500   29.7870   46.2620 C   0  0  0  0  0  0  0  0  0  0  0  0
   44.5660   35.6450   45.0060 C   0  0  0  0  0  0  0  0  0  0  0  0
   45.1070   35.9350   43.7040 C   0  0  0  0  0  0  0  0  0  0  0  0
   46.0980   35.0460   43.1840 C   0  0  0  0  0  0  0  0  0  0  0  0
   46.4810   33.9920   43.9160 N   0  0  0  0  0  0  0  0  0  0  0  0
   45.9280   33.7610   45.1590 C   0  0  0  0  0  0  0  0  0  0  0  0
   45.0050   34.5610   45.6820 N   0  0  0  0  0  0  0  0  0  0  0  0
   46.7050   35.2690   41.8580 C   0  0  0  0  0  0  0  0  0  0  0  0
   48.2180   35.2840   41.9170 C   0  0  0  0  0  0  0  0  0  0  0  0
   48.6950   34.2370   40.9500 C   0  0  0  0  0  0  0  0  0  0  0  0
   47.5560   34.0870   39.9770 C   0  0  0  0  0  0  0  0  0  0  0  0
   46.3500   34.1690   40.8640 C   0  0  0  0  0  0  0  0  0  0  0  0
   46.7206   32.0980   44.9799 H   0  0  0  0  0  0  0  0  0  0  0  0
   47.8290   32.0261   47.5290 H   0  0  0  0  0  0  0  0  0  0  0  0
   47.4212   33.4831   47.8496 H   0  0  0  0  0  0  0  0  0  0  0  0
   44.5119   32.2561   47.3231 H   0  0  0  0  0  0  0  0  0  0  0  0
   45.0888   30.7788   49.4103 H   0  0  0  0  0  0  0  0  0  0  0  0
   44.9042   28.3521   49.8392 H   0  0  0  0  0  0  0  0  0  0  0  0
   45.0231   26.7873   47.8377 H   0  0  0  0  0  0  0  0  0  0  0  0
   45.1831   26.4632   45.5484 H   0  0  0  0  0  0  0  0  0  0  0  0
   45.3391   27.3607   43.2214 H   0  0  0  0  0  0  0  0  0  0  0  0
   45.4889   29.8192   42.8382 H   0  0  0  0  0  0  0  0  0  0  0  0
   45.4888   31.3269   44.7841 H   0  0  0  0  0  0  0  0  0  0  0  0
   43.8011   36.3010   45.4471 H   0  0  0  0  0  0  0  0  0  0  0  0
   44.7695   36.8102   43.1294 H   0  0  0  0  0  0  0  0  0  0  0  0
   46.3049   36.2417   41.5358 H   0  0  0  0  0  0  0  0  0  0  0  0
   48.5996   36.2733   41.6242 H   0  0  0  0  0  0  0  0  0  0  0  0
   48.5777   35.0769   42.9357 H   0  0  0  0  0  0  0  0  0  0  0  0
   49.6078   34.5694   40.4339 H   0  0  0  0  0  0  0  0  0  0  0  0
   48.9521   33.2900   41.4471 H   0  0  0  0  0  0  0  0  0  0  0  0
   47.6021   33.1176   39.4592 H   0  0  0  0  0  0  0  0  0  0  0  0
   47.5622   34.8436   39.1786 H   0  0  0  0  0  0  0  0  0  0  0  0
   45.4547   34.4383   40.2845 H   0  0  0  0  0  0  0  0  0  0  0  0
   46.1156   33.2122   41.3535 H   0  0  0  0  0  0  0  0  0  0  0  0
  1  3  1  0
  1  2  1  0
  3  2  1  0
  3  4  1  0
  4  5  2  0
  5  6  1  0
  7  6  2  0
  8  7  1  0
  9  8  2  0
 10  9  1  0
 11 10  2  0
 11 12  1  0
 12 13  2  0
 13  8  1  0
 13  4  1  0
 14 19  2  0
 15 14  1  0
 16 15  2  0
 16 17  1  0
 17 18  2  0
 18 19  1  0
 18  1  1  0
 20 21  1  0
 20 16  1  0
 22 21  1  0
 23 24  1  0
 23 22  1  0
 24 20  1  0
  1 25  1  6
  2 26  1  0
  2 27  1  0
  3 28  1  1
  5 29  1  0
  6 30  1  0
  7 31  1  0
  9 32  1  0
 10 33  1  0
 11 34  1  0
 12 35  1  0
 14 36  1  0
 15 37  1  0
 20 38  1  0
 21 39  1  0
 21 40  1  0
 22 41  1  0
 22 42  1  0
 23 43  1  0
 23 44  1  0
 24 45  1  0
 24 46  1  0
M  ISO  8  25  13  26  13  27  13  28  13  29  14  30  14  31  14  32  14
M  ISO  8  33  14  34  14  35  14  36  14  37  14  38  13  39  13  40  13
M  ISO  6  41  13  42  13  43  13  44  13  45  13  46  13
M  END
>  <minimizedAffinity>  (1) 
-5.98950434

>  <minimizedRMSD>  (1) 
0.248500243

$$$$
