
     RDKit          3D

 30 31  0  0  0  0  0  0  0  0999 V2000
   44.5970   35.5370   45.0470 C   0  0  0  0  0  0  0  0  0  0  0  0
   45.3560   35.1500   43.9440 C   0  0  0  0  0  0  0  0  0  0  0  0
   46.1260   33.9860   44.0630 C   0  0  0  0  0  0  0  0  0  0  0  0
   46.1110   33.2920   45.2140 N   0  0  0  0  0  0  0  0  0  0  0  0
   45.3670   33.6970   46.2560 C   0  0  0  0  0  0  0  0  0  0  0  0
   44.6100   34.8040   46.1970 N   0  0  0  0  0  0  0  0  0  0  0  0
   45.2760   36.0170   42.7320 C   0  0  0  0  0  0  0  0  0  0  0  0
   45.3260   37.3120   43.1760 F   0  0  0  0  0  0  0  0  0  0  0  0
   44.0500   35.7420   42.1320 F   0  0  0  0  0  0  0  0  0  0  0  0
   46.3090   35.6760   41.8960 F   0  0  0  0  0  0  0  0  0  0  0  0
   45.3040   33.0260   47.4740 O   0  0  0  0  0  0  0  0  0  0  0  0
   45.5920   31.6450   47.5500 C   0  0  0  0  0  0  0  0  0  0  0  0
   47.0720   31.5530   47.8700 C   0  0  0  0  0  0  0  0  0  0  0  0
   47.7990   30.5360   47.0390 C   0  0  0  0  0  0  0  0  0  0  0  0
   48.6040   29.6690   48.0100 C   0  0  0  0  0  0  0  0  0  0  0  0
   48.7270   30.5950   49.2020 C   0  0  0  0  0  0  0  0  0  0  0  0
   47.2890   31.1170   49.3140 C   0  0  0  0  0  0  0  0  0  0  0  0
   43.9794   36.4455   44.9892 H   0  0  0  0  0  0  0  0  0  0  0  0
   46.7403   33.6413   43.2181 H   0  0  0  0  0  0  0  0  0  0  0  0
   44.9972   31.1721   48.3454 H   0  0  0  0  0  0  0  0  0  0  0  0
   45.3458   31.1260   46.6119 H   0  0  0  0  0  0  0  0  0  0  0  0
   47.4616   32.5612   47.6656 H   0  0  0  0  0  0  0  0  0  0  0  0
   47.0798   29.9158   46.4839 H   0  0  0  0  0  0  0  0  0  0  0  0
   48.4572   31.0228   46.3043 H   0  0  0  0  0  0  0  0  0  0  0  0
   48.0631   28.7472   48.2702 H   0  0  0  0  0  0  0  0  0  0  0  0
   49.5671   29.3194   47.6097 H   0  0  0  0  0  0  0  0  0  0  0  0
   49.0309   30.0499   50.1078 H   0  0  0  0  0  0  0  0  0  0  0  0
   49.4882   31.3811   49.0899 H   0  0  0  0  0  0  0  0  0  0  0  0
   47.2115   31.9615   50.0146 H   0  0  0  0  0  0  0  0  0  0  0  0
   46.5557   30.3949   49.7023 H   0  0  0  0  0  0  0  0  0  0  0  0
  1  6  2  0
  2  3  2  0
  2  1  1  0
  3  4  1  0
  4  5  2  0
  5 11  1  0
  6  5  1  0
  7  8  1  0
  7  2  1  0
  9  7  1  0
 10  7  1  0
 11 12  1  0
 12 13  1  0
 13 17  1  0
 14 13  1  0
 14 15  1  0
 15 16  1  0
 16 17  1  0
  1 18  1  0
  3 19  1  0
 12 20  1  0
 12 21  1  0
 13 22  1  0
 14 23  1  0
 14 24  1  0
 15 25  1  0
 15 26  1  0
 16 27  1  0
 16 28  1  0
 17 29  1  0
 17 30  1  0
M  ISO  8  18  14  19  14  20   8  21   8  22  13  23  13  24  13  25  13
M  ISO  5  26  13  27  13  28  13  29  13  30  13
M  END
>  <minimizedAffinity>  (1) 
-4.75672245

>  <minimizedRMSD>  (1) 
1.63440359

$$$$
