
     RDKit          3D

 49 52  0  0  1  0  0  0  0  0999 V2000
   45.0570   34.8720   44.8760 C   0  0  0  0  0  0  0  0  0  0  0  0
   45.9030   34.5980   43.8100 C   0  0  0  0  0  0  0  0  0  0  0  0
   46.7140   33.4740   43.9360 C   0  0  0  0  0  0  0  0  0  0  0  0
   46.6840   32.6850   45.0320 N   0  0  0  0  0  0  0  0  0  0  0  0
   45.8390   32.9930   46.0490 C   0  0  0  0  0  0  0  0  0  0  0  0
   45.0360   34.0680   45.9770 N   0  0  0  0  0  0  0  0  0  0  0  0
   47.2830   31.7790   47.6790 C   0  0  2  0  0  0  0  0  0  0  0  0
   45.8310   32.1120   47.2170 C   0  0  1  0  0  0  0  0  0  0  0  0
   45.3730   32.6620   48.3670 O   0  0  0  0  0  0  0  0  0  0  0  0
   45.7420   31.8360   49.3930 C   0  0  0  0  0  0  0  0  0  0  0  0
   46.9220   30.9940   48.9370 C   0  0  2  0  0  0  0  0  0  0  0  0
   47.9140   32.8980   48.0720 O   0  0  0  0  0  0  0  0  0  0  0  0
   47.9310   30.9140   49.8480 O   0  0  0  0  0  0  0  0  0  0  0  0
   45.9430   35.4360   42.6290 C   0  0  0  0  0  0  0  0  0  0  0  0
   44.8100   35.1460   41.7460 C   0  0  0  0  0  0  0  0  0  0  0  0
   43.5200   35.6330   41.9080 C   0  0  0  0  0  0  0  0  0  0  0  0
   42.4840   35.2900   41.0540 C   0  0  0  0  0  0  0  0  0  0  0  0
   42.7630   34.4250   40.0050 C   0  0  0  0  0  0  0  0  0  0  0  0
   44.0600   33.9300   39.8330 C   0  0  0  0  0  0  0  0  0  0  0  0
   45.1040   34.2910   40.7070 C   0  0  0  0  0  0  0  0  0  0  0  0
   46.3110   33.6920   40.1550 C   0  0  0  0  0  0  0  0  0  0  0  0
   46.5650   32.2870   40.7760 C   0  0  0  0  0  0  0  0  0  0  0  0
   47.9310   31.9820   40.2010 C   0  0  0  0  0  0  0  0  0  0  0  0
   48.6070   33.3200   39.9950 C   0  0  0  0  0  0  0  0  0  0  0  0
   47.6040   34.3800   40.4750 C   0  0  0  0  0  0  0  0  0  0  0  0
   44.3949   35.7493   44.8319 H   0  0  0  0  0  0  0  0  0  0  0  0
   47.4020   33.2198   43.1162 H   0  0  0  0  0  0  0  0  0  0  0  0
   47.9219   31.2918   46.9277 H   0  0  0  0  0  0  0  0  0  0  0  0
   45.2063   31.2822   46.8548 H   0  0  0  0  0  0  0  0  0  0  0  0
   46.0318   32.4376   50.2672 H   0  0  0  0  0  0  0  0  0  0  0  0
   44.9008   31.1844   49.6720 H   0  0  0  0  0  0  0  0  0  0  0  0
   46.7093   29.9257   48.7838 H   0  0  0  0  0  0  0  0  0  0  0  0
   47.9349   32.9350   49.0611 H   0  0  0  0  0  0  0  0  0  0  0  0
   47.5530   30.9440   50.7625 H   0  0  0  0  0  0  0  0  0  0  0  0
   45.9010   36.4919   42.9345 H   0  0  0  0  0  0  0  0  0  0  0  0
   46.8762   35.2319   42.0835 H   0  0  0  0  0  0  0  0  0  0  0  0
   43.3127   36.3161   42.7449 H   0  0  0  0  0  0  0  0  0  0  0  0
   41.4707   35.6913   41.2030 H   0  0  0  0  0  0  0  0  0  0  0  0
   41.9643   34.1288   39.3090 H   0  0  0  0  0  0  0  0  0  0  0  0
   44.2689   33.2448   38.9982 H   0  0  0  0  0  0  0  0  0  0  0  0
   46.0970   33.7269   39.0766 H   0  0  0  0  0  0  0  0  0  0  0  0
   46.5851   32.3251   41.8752 H   0  0  0  0  0  0  0  0  0  0  0  0
   45.7923   31.5371   40.5513 H   0  0  0  0  0  0  0  0  0  0  0  0
   48.5115   31.3648   40.9025 H   0  0  0  0  0  0  0  0  0  0  0  0
   47.8543   31.4208   39.2581 H   0  0  0  0  0  0  0  0  0  0  0  0
   49.5333   33.3751   40.5858 H   0  0  0  0  0  0  0  0  0  0  0  0
   48.8824   33.4741   38.9412 H   0  0  0  0  0  0  0  0  0  0  0  0
   47.7115   35.3230   39.9189 H   0  0  0  0  0  0  0  0  0  0  0  0
   47.7182   34.6777   41.5278 H   0  0  0  0  0  0  0  0  0  0  0  0
  1  6  2  0
  2  3  2  0
  2  1  1  0
  3  4  1  0
  4  5  2  0
  5  8  1  0
  6  5  1  0
  7 12  1  0
  7 11  1  0
  8  7  1  0
  8  9  1  0
  9 10  1  0
 11 10  1  0
 11 13  1  0
 14  2  1  0
 15 16  2  0
 15 14  1  0
 17 16  1  0
 18 17  2  0
 19 18  1  0
 19 20  2  0
 20 15  1  0
 21 25  1  0
 21 20  1  0
 21 22  1  0
 23 22  1  0
 24 23  1  0
 24 25  1  0
  1 26  1  0
  3 27  1  0
  7 28  1  6
  8 29  1  6
 10 30  1  0
 10 31  1  0
 11 32  1  6
 12 33  1  0
 13 34  1  0
 14 35  1  0
 14 36  1  0
 16 37  1  0
 17 38  1  0
 18 39  1  0
 19 40  1  0
 21 41  1  0
 22 42  1  0
 22 43  1  0
 23 44  1  0
 23 45  1  0
 24 46  1  0
 24 47  1  0
 25 48  1  0
 25 49  1  0
M  ISO  8  26  14  27  14  28  13  29  13  30  13  31  13  32  13  33   3
M  ISO  8  34   3  35   8  36   8  37  14  38  14  39  14  40  14  41  13
M  ISO  8  42  13  43  13  44  13  45  13  46  13  47  13  48  13  49  13
M  END
>  <minimizedAffinity>  (1) 
-6.95306063

>  <minimizedRMSD>  (1) 
0.423292637

$$$$
