
     RDKit          3D

 33 35  0  0  1  0  0  0  0  0999 V2000
   45.4810   33.9460   43.9210 C   0  0  0  0  0  0  0  0  0  0  0  0
   46.3930   33.1210   43.1880 C   0  0  0  0  0  0  0  0  0  0  0  0
   47.2340   32.2770   43.8890 C   0  0  0  0  0  0  0  0  0  0  0  0
   47.1520   32.2760   45.2560 N   0  0  0  0  0  0  0  0  0  0  0  0
   46.2960   33.0520   45.9140 C   0  0  0  0  0  0  0  0  0  0  0  0
   45.4710   33.8750   45.2570 N   0  0  0  0  0  0  0  0  0  0  0  0
   46.4620   33.1770   41.6900 C   0  0  1  0  0  0  0  0  0  0  0  0
   45.8460   34.2680   40.9700 C   0  0  0  0  0  0  0  0  0  0  0  0
   47.3280   34.2620   41.0610 C   0  0  1  0  0  0  0  0  0  0  0  0
   48.0580   35.2360   41.9130 C   0  0  0  0  0  0  0  0  0  0  0  0
   48.8850   36.0630   41.1730 F   0  0  0  0  0  0  0  0  0  0  0  0
   48.8210   34.6080   42.8950 F   0  0  0  0  0  0  0  0  0  0  0  0
   47.1310   36.0430   42.5290 F   0  0  0  0  0  0  0  0  0  0  0  0
   46.2710   32.9880   47.4000 C   0  0  0  0  0  0  0  0  0  0  0  0
   45.0710   32.1890   47.9140 C   0  0  0  0  0  0  0  0  0  0  0  0
   45.6550   31.7410   49.2600 C   0  0  0  0  0  0  0  0  0  0  0  0
   46.9460   31.1060   48.7410 C   0  0  0  0  0  0  0  0  0  0  0  0
   47.4920   32.3120   47.9660 C   0  0  0  0  0  0  0  0  0  0  0  0
   44.7984   34.6284   43.3934 H   0  0  0  0  0  0  0  0  0  0  0  0
   47.9481   31.6254   43.3642 H   0  0  0  0  0  0  0  0  0  0  0  0
   46.3885   32.0815   41.6231 H   0  0  0  0  0  0  0  0  0  0  0  0
   45.2717   35.0265   41.5221 H   0  0  0  0  0  0  0  0  0  0  0  0
   45.1344   34.3228   40.1329 H   0  0  0  0  0  0  0  0  0  0  0  0
   48.1613   34.3025   40.3441 H   0  0  0  0  0  0  0  0  0  0  0  0
   46.2218   34.0377   47.7250 H   0  0  0  0  0  0  0  0  0  0  0  0
   44.1772   32.8179   48.0389 H   0  0  0  0  0  0  0  0  0  0  0  0
   44.7168   31.3825   47.2551 H   0  0  0  0  0  0  0  0  0  0  0  0
   45.8506   32.5903   49.9311 H   0  0  0  0  0  0  0  0  0  0  0  0
   45.0112   31.0894   49.8691 H   0  0  0  0  0  0  0  0  0  0  0  0
   47.6157   30.7999   49.5582 H   0  0  0  0  0  0  0  0  0  0  0  0
   46.8248   30.1789   48.1615 H   0  0  0  0  0  0  0  0  0  0  0  0
   48.1625   31.9828   47.1585 H   0  0  0  0  0  0  0  0  0  0  0  0
   48.0814   32.9854   48.6057 H   0  0  0  0  0  0  0  0  0  0  0  0
  1  6  2  0
  2  3  2  0
  2  1  1  0
  3  4  1  0
  4  5  2  0
  5 14  1  0
  6  5  1  0
  7  2  1  0
  8  9  1  0
  8  7  1  0
  9  7  1  0
  9 10  1  0
 10 13  1  0
 10 12  1  0
 11 10  1  0
 14 15  1  0
 14 18  1  0
 15 16  1  0
 17 16  1  0
 18 17  1  0
  1 19  1  0
  3 20  1  0
  7 21  1  6
  8 22  1  0
  8 23  1  0
  9 24  1  6
 14 25  1  0
 15 26  1  0
 15 27  1  0
 16 28  1  0
 16 29  1  0
 17 30  1  0
 17 31  1  0
 18 32  1  0
 18 33  1  0
M  ISO  8  19  14  20  14  21  13  22  13  23  13  24  13  25  13  26  13
M  ISO  7  27  13  28  13  29  13  30  13  31  13  32  13  33  13
M  END
>  <minimizedAffinity>  (1) 
-5.41265154

>  <minimizedRMSD>  (1) 
1.45493269

$$$$
