
     RDKit          3D

 39 41  0  0  1  0  0  0  0  0999 V2000
   46.3550   33.7940   43.3440 C   0  0  2  0  0  0  0  0  0  0  0  0
   45.6740   34.8450   42.5560 C   0  0  2  0  0  0  0  0  0  0  0  0
   45.3090   36.0560   43.3670 C   0  0  0  0  0  0  0  0  0  0  0  0
   44.5450   35.7460   44.6340 C   0  0  0  0  0  0  0  0  0  0  0  0
   45.0330   34.5220   45.3530 C   0  0  0  0  0  0  0  0  0  0  0  0
   46.3780   34.0690   44.8410 C   0  0  0  0  0  0  0  0  0  0  0  0
   47.7600   33.6150   42.9240 C   0  0  0  0  0  0  0  0  0  0  0  0
   48.5040   34.8110   42.7420 C   0  0  0  0  0  0  0  0  0  0  0  0
   49.8410   34.7480   42.3360 C   0  0  0  0  0  0  0  0  0  0  0  0
   50.3590   33.4850   42.1350 N   0  0  0  0  0  0  0  0  0  0  0  0
   49.6280   32.3700   42.3160 C   0  0  0  0  0  0  0  0  0  0  0  0
   48.3350   32.4320   42.7090 N   0  0  0  0  0  0  0  0  0  0  0  0
   44.5390   34.3660   41.6850 C   0  0  0  0  0  0  0  0  0  0  0  0
   43.7510   35.5840   41.2520 C   0  0  0  0  0  0  0  0  0  0  0  0
   42.8340   34.9980   40.2100 C   0  0  0  0  0  0  0  0  0  0  0  0
   43.6200   33.8920   39.5810 C   0  0  0  0  0  0  0  0  0  0  0  0
   44.8900   33.7130   40.4220 C   0  0  0  0  0  0  0  0  0  0  0  0
   45.7605   32.8894   43.1483 H   0  0  0  0  0  0  0  0  0  0  0  0
   46.4464   35.1652   41.8413 H   0  0  0  0  0  0  0  0  0  0  0  0
   46.2366   36.5789   43.6427 H   0  0  0  0  0  0  0  0  0  0  0  0
   44.6450   36.6684   42.7393 H   0  0  0  0  0  0  0  0  0  0  0  0
   44.6364   36.6064   45.3132 H   0  0  0  0  0  0  0  0  0  0  0  0
   43.5034   35.5500   44.3396 H   0  0  0  0  0  0  0  0  0  0  0  0
   45.1189   34.7500   46.4257 H   0  0  0  0  0  0  0  0  0  0  0  0
   44.3101   33.7117   45.1771 H   0  0  0  0  0  0  0  0  0  0  0  0
   46.6661   33.1469   45.3671 H   0  0  0  0  0  0  0  0  0  0  0  0
   47.1019   34.8760   45.0272 H   0  0  0  0  0  0  0  0  0  0  0  0
   48.0288   35.7869   42.9203 H   0  0  0  0  0  0  0  0  0  0  0  0
   50.4456   35.6545   42.1854 H   0  0  0  0  0  0  0  0  0  0  0  0
   50.0913   31.3878   42.1408 H   0  0  0  0  0  0  0  0  0  0  0  0
   44.0218   33.6243   42.3115 H   0  0  0  0  0  0  0  0  0  0  0  0
   43.1831   36.0134   42.0905 H   0  0  0  0  0  0  0  0  0  0  0  0
   44.3744   36.4123   40.8841 H   0  0  0  0  0  0  0  0  0  0  0  0
   41.9190   34.6049   40.6772 H   0  0  0  0  0  0  0  0  0  0  0  0
   42.5134   35.7485   39.4724 H   0  0  0  0  0  0  0  0  0  0  0  0
   43.0319   32.9624   39.5816 H   0  0  0  0  0  0  0  0  0  0  0  0
   43.8700   34.1314   38.5369 H   0  0  0  0  0  0  0  0  0  0  0  0
   45.1158   32.6476   40.5764 H   0  0  0  0  0  0  0  0  0  0  0  0
   45.7884   34.1359   39.9486 H   0  0  0  0  0  0  0  0  0  0  0  0
  1  6  1  0
  2  1  1  0
  2  3  1  0
  3  4  1  0
  4  5  1  0
  6  5  1  0
  7  1  1  0
  8  7  2  0
  9  8  1  0
 10 11  1  0
 10  9  2  0
 11 12  2  0
 12  7  1  0
 13  2  1  0
 14 13  1  0
 15 14  1  0
 16 15  1  0
 16 17  1  0
 17 13  1  0
  1 18  1  1
  2 19  1  6
  3 20  1  0
  3 21  1  0
  4 22  1  0
  4 23  1  0
  5 24  1  0
  5 25  1  0
  6 26  1  0
  6 27  1  0
  8 28  1  0
  9 29  1  0
 11 30  1  0
 13 31  1  0
 14 32  1  0
 14 33  1  0
 15 34  1  0
 15 35  1  0
 16 36  1  0
 16 37  1  0
 17 38  1  0
 17 39  1  0
M  ISO  8  18  13  19  13  20  13  21  13  22  13  23  13  24  13  25  13
M  ISO  8  26  13  27  13  28  14  29  14  30  14  31  13  32  13  33  13
M  ISO  6  34  13  35  13  36  13  37  13  38  13  39  13
M  END
>  <minimizedAffinity>  (1) 
-5.1509409

>  <minimizedRMSD>  (1) 
2.23279929

$$$$
