
     RDKit          3D

 48 52  0  0  1  0  0  0  0  0999 V2000
   47.2800   32.9520   43.8490 C   0  0  0  0  0  0  0  0  0  0  0  0
   47.4160   32.0220   44.8710 C   0  0  0  0  0  0  0  0  0  0  0  0
   46.7080   32.0820   46.0600 C   0  0  0  0  0  0  0  0  0  0  0  0
   45.8080   33.1040   46.2830 C   0  0  0  0  0  0  0  0  0  0  0  0
   45.6470   34.0440   45.2940 C   0  0  0  0  0  0  0  0  0  0  0  0
   44.7410   35.0560   45.5200 C   0  0  0  0  0  0  0  0  0  0  0  0
   44.5230   36.0320   44.5530 C   0  0  0  0  0  0  0  0  0  0  0  0
   45.2510   35.9260   43.3800 C   0  0  0  0  0  0  0  0  0  0  0  0
   46.1450   34.9180   43.1700 C   0  0  0  0  0  0  0  0  0  0  0  0
   46.3650   33.9550   44.1240 C   0  0  0  0  0  0  0  0  0  0  0  0
   46.7730   35.0290   41.8370 C   0  0  0  0  0  0  0  0  0  0  0  0
   46.6260   33.6710   41.0510 C   0  0  0  0  0  0  0  0  0  0  0  0
   47.3640   34.1470   39.7730 C   0  0  0  0  0  0  0  0  0  0  0  0
   48.5360   34.9680   40.3270 C   0  0  0  0  0  0  0  0  0  0  0  0
   48.2600   34.9570   41.8000 C   0  0  0  0  0  0  0  0  0  0  0  0
   48.0310   32.8650   42.6580 N   0  0  0  0  0  0  0  0  0  0  0  0
   50.3350   31.7930   42.2600 C   0  0  1  0  0  0  0  0  0  0  0  0
   49.4940   31.6380   41.0070 C   0  0  0  0  0  0  0  0  0  0  0  0
   48.9030   31.7530   42.4260 C   0  0  2  0  0  0  0  0  0  0  0  0
   51.5640   28.8930   44.2420 C   0  0  0  0  0  0  0  0  0  0  0  0
   52.7250   28.5210   43.4990 C   0  0  0  0  0  0  0  0  0  0  0  0
   53.0510   29.2770   42.3220 C   0  0  0  0  0  0  0  0  0  0  0  0
   52.2560   30.2940   41.9720 N   0  0  0  0  0  0  0  0  0  0  0  0
   51.1580   30.6220   42.7020 C   0  0  0  0  0  0  0  0  0  0  0  0
   50.8170   29.9200   43.8340 N   0  0  0  0  0  0  0  0  0  0  0  0
   48.1244   31.1926   44.7287 H   0  0  0  0  0  0  0  0  0  0  0  0
   46.8638   31.3118   46.8297 H   0  0  0  0  0  0  0  0  0  0  0  0
   45.2381   33.1641   47.2219 H   0  0  0  0  0  0  0  0  0  0  0  0
   44.1870   35.0929   46.4696 H   0  0  0  0  0  0  0  0  0  0  0  0
   43.8054   36.8502   44.7129 H   0  0  0  0  0  0  0  0  0  0  0  0
   45.1034   36.6793   42.5921 H   0  0  0  0  0  0  0  0  0  0  0  0
   46.3174   35.9636   41.4779 H   0  0  0  0  0  0  0  0  0  0  0  0
   47.1357   32.8334   41.5497 H   0  0  0  0  0  0  0  0  0  0  0  0
   45.6094   33.2701   40.9251 H   0  0  0  0  0  0  0  0  0  0  0  0
   46.7074   34.7698   39.1477 H   0  0  0  0  0  0  0  0  0  0  0  0
   47.6871   33.3165   39.1281 H   0  0  0  0  0  0  0  0  0  0  0  0
   49.5006   34.4913   40.0981 H   0  0  0  0  0  0  0  0  0  0  0  0
   48.6096   35.9784   39.8985 H   0  0  0  0  0  0  0  0  0  0  0  0
   48.6271   34.0319   42.2685 H   0  0  0  0  0  0  0  0  0  0  0  0
   48.7572   35.7693   42.3504 H   0  0  0  0  0  0  0  0  0  0  0  0
   47.9514   33.6079   41.9490 H   0  0  0  0  0  0  0  0  0  0  0  0
   51.1112   32.5021   42.5834 H   0  0  0  0  0  0  0  0  0  0  0  0
   49.3974   32.4676   40.2911 H   0  0  0  0  0  0  0  0  0  0  0  0
   49.4305   30.9270   40.1701 H   0  0  0  0  0  0  0  0  0  0  0  0
   48.2881   31.1684   43.1260 H   0  0  0  0  0  0  0  0  0  0  0  0
   51.2864   28.3344   45.1481 H   0  0  0  0  0  0  0  0  0  0  0  0
   53.3536   27.6772   43.8196 H   0  0  0  0  0  0  0  0  0  0  0  0
   53.9367   29.0246   41.7205 H   0  0  0  0  0  0  0  0  0  0  0  0
  1 10  1  0
  1  2  2  0
  2  3  1  0
  3  4  2  0
  5  6  2  0
  5  4  1  0
  7  6  1  0
  8  7  2  0
  9  8  1  0
  9 10  2  0
 10  5  1  0
 11  9  1  0
 12 11  1  0
 13 14  1  0
 13 12  1  0
 14 15  1  0
 15 11  1  0
 16  1  1  0
 17 19  1  0
 17 24  1  0
 18 17  1  0
 18 19  1  0
 19 16  1  0
 21 20  2  0
 22 21  1  0
 23 22  2  0
 23 24  1  0
 24 25  2  0
 25 20  1  0
  2 26  1  0
  3 27  1  0
  4 28  1  0
  6 29  1  0
  7 30  1  0
  8 31  1  0
 11 32  1  0
 12 33  1  0
 12 34  1  0
 13 35  1  0
 13 36  1  0
 14 37  1  0
 14 38  1  0
 15 39  1  0
 15 40  1  0
 16 41  1  0
 17 42  1  6
 18 43  1  0
 18 44  1  0
 19 45  1  1
 20 46  1  0
 21 47  1  0
 22 48  1  0
M  ISO  8  26  14  27  14  28  14  29  14  30  14  31  14  32  13  33  13
M  ISO  8  34  13  35  13  36  13  37  13  38  13  39  13  40  13  42  13
M  ISO  6  43  13  44  13  45  13  46  14  47  14  48  14
M  END
>  <minimizedAffinity>  (1) 
-5.89897728

>  <minimizedRMSD>  (1) 
2.40642786

$$$$
