
     RDKit          3D

 26 27  0  0  0  0  0  0  0  0999 V2000
   45.4410   34.6310   44.7350 C   0  0  0  0  0  0  0  0  0  0  0  0
   46.3590   34.3540   43.7000 C   0  0  0  0  0  0  0  0  0  0  0  0
   47.2220   33.2510   43.8870 C   0  0  0  0  0  0  0  0  0  0  0  0
   47.1140   32.5350   45.0360 N   0  0  0  0  0  0  0  0  0  0  0  0
   46.2010   32.8540   46.0030 C   0  0  0  0  0  0  0  0  0  0  0  0
   45.3740   33.9010   45.8400 N   0  0  0  0  0  0  0  0  0  0  0  0
   46.1660   32.0230   47.1970 C   0  0  0  0  0  0  0  0  0  0  0  0
   45.5750   30.6630   47.0110 C   0  0  0  0  0  0  0  0  0  0  0  0
   45.5670   30.1570   48.4430 C   0  0  0  0  0  0  0  0  0  0  0  0
   45.4120   31.3920   49.3100 C   0  0  0  0  0  0  0  0  0  0  0  0
   45.3240   32.5630   48.3320 C   0  0  0  0  0  0  0  0  0  0  0  0
   44.5310   35.8060   44.5250 C   0  0  0  0  0  0  0  0  0  0  0  0
   46.4009   34.9689   42.7888 H   0  0  0  0  0  0  0  0  0  0  0  0
   47.9630   32.9789   43.1209 H   0  0  0  0  0  0  0  0  0  0  0  0
   47.2423   32.0021   47.4229 H   0  0  0  0  0  0  0  0  0  0  0  0
   44.5580   30.7171   46.5952 H   0  0  0  0  0  0  0  0  0  0  0  0
   46.1225   30.0216   46.3047 H   0  0  0  0  0  0  0  0  0  0  0  0
   44.7247   29.4677   48.6022 H   0  0  0  0  0  0  0  0  0  0  0  0
   46.4858   29.6024   48.6843 H   0  0  0  0  0  0  0  0  0  0  0  0
   44.4957   31.3255   49.9149 H   0  0  0  0  0  0  0  0  0  0  0  0
   46.2500   31.5071   50.0132 H   0  0  0  0  0  0  0  0  0  0  0  0
   45.7532   33.4825   48.7568 H   0  0  0  0  0  0  0  0  0  0  0  0
   44.3015   32.8555   48.0511 H   0  0  0  0  0  0  0  0  0  0  0  0
   44.2199   36.2078   45.5006 H   0  0  0  0  0  0  0  0  0  0  0  0
   45.0632   36.5856   43.9603 H   0  0  0  0  0  0  0  0  0  0  0  0
   43.6430   35.4857   43.9603 H   0  0  0  0  0  0  0  0  0  0  0  0
  1  6  2  0
  2  3  2  0
  2  1  1  0
  3  4  1  0
  4  5  2  0
  5  7  1  0
  6  5  1  0
  7 11  1  0
  8  7  1  0
  8  9  1  0
  9 10  1  0
 11 10  1  0
 12  1  1  0
  2 13  1  0
  3 14  1  0
  7 15  1  0
  8 16  1  0
  8 17  1  0
  9 18  1  0
  9 19  1  0
 10 20  1  0
 10 21  1  0
 11 22  1  0
 11 23  1  0
 12 24  1  0
 12 25  1  0
 12 26  1  0
M  ISO  8  13  14  14  14  15  13  16  13  17  13  18  13  19  13  20  13
M  ISO  6  21  13  22  13  23  13  24   8  25   8  26   8
M  END
>  <minimizedAffinity>  (1) 
-4.39220762

>  <minimizedRMSD>  (1) 
1.72792733

$$$$
