
     RDKit          3D

 22 23  0  0  0  0  0  0  0  0999 V2000
   46.5320   32.7160   45.2370 C   0  0  0  0  0  0  0  0  0  0  0  0
   44.5520   35.7810   44.6420 C   0  0  0  0  0  0  0  0  0  0  0  0
   45.0180   36.1770   43.3440 C   0  0  0  0  0  0  0  0  0  0  0  0
   45.9820   35.3790   42.7410 C   0  0  0  0  0  0  0  0  0  0  0  0
   46.4270   34.2810   43.3990 N   0  0  0  0  0  0  0  0  0  0  0  0
   45.9570   33.9410   44.6330 C   0  0  0  0  0  0  0  0  0  0  0  0
   45.0310   34.6760   45.2550 N   0  0  0  0  0  0  0  0  0  0  0  0
   46.7820   33.0220   46.6940 C   0  0  0  0  0  0  0  0  0  0  0  0
   46.1340   31.9830   47.5640 C   0  0  0  0  0  0  0  0  0  0  0  0
   45.8890   30.7060   46.9700 C   0  0  0  0  0  0  0  0  0  0  0  0
   45.1270   29.7890   48.3120 S   0  0  0  0  0  0  0  0  0  0  0  0
   45.2490   31.2690   49.4880 C   0  0  0  0  0  0  0  0  0  0  0  0
   45.7480   32.0790   48.8260 N   0  0  0  0  0  0  0  0  0  0  0  0
   47.4768   32.4555   44.7375 H   0  0  0  0  0  0  0  0  0  0  0  0
   45.8467   31.8628   45.1256 H   0  0  0  0  0  0  0  0  0  0  0  0
   43.7887   36.3897   45.1488 H   0  0  0  0  0  0  0  0  0  0  0  0
   44.6274   37.0768   42.8462 H   0  0  0  0  0  0  0  0  0  0  0  0
   46.3773   35.6339   41.7466 H   0  0  0  0  0  0  0  0  0  0  0  0
   47.8657   33.0285   46.8826 H   0  0  0  0  0  0  0  0  0  0  0  0
   46.3520   34.0062   46.9316 H   0  0  0  0  0  0  0  0  0  0  0  0
   46.1117   30.3695   45.9467 H   0  0  0  0  0  0  0  0  0  0  0  0
   44.9267   31.3416   50.5372 H   0  0  0  0  0  0  0  0  0  0  0  0
  1  8  1  0
  2  7  2  0
  3  2  1  0
  4  3  2  0
  4  5  1  0
  5  6  2  0
  6  1  1  0
  6  7  1  0
  8  9  1  0
  9 13  1  0
 10  9  2  0
 10 11  1  0
 11 12  1  0
 13 12  2  0
  1 14  1  0
  1 15  1  0
  2 16  1  0
  3 17  1  0
  4 18  1  0
  8 19  1  0
  8 20  1  0
 10 21  1  0
 12 22  1  0
M  ISO  8  14   8  15   8  16  14  17  14  18  14  19   8  20   8  21  14
M  ISO  1  22  14
M  END
>  <minimizedAffinity>  (1) 
-4.18782616

>  <minimizedRMSD>  (1) 
1.21998394

$$$$
