
     RDKit          3D

 41 45  0  0  0  0  0  0  0  0999 V2000
   44.8130   35.9930   43.3250 Cl  0  0  0  0  0  0  0  0  0  0  0  0
   45.5510   34.7450   44.2590 C   0  0  0  0  0  0  0  0  0  0  0  0
   46.6610   34.0670   43.7730 C   0  0  0  0  0  0  0  0  0  0  0  0
   47.1780   33.0900   44.6020 C   0  0  0  0  0  0  0  0  0  0  0  0
   46.6670   32.7600   45.8490 C   0  0  0  0  0  0  0  0  0  0  0  0
   45.5680   33.4500   46.2980 C   0  0  0  0  0  0  0  0  0  0  0  0
   44.9590   32.9990   47.8760 Cl  0  0  0  0  0  0  0  0  0  0  0  0
   45.0180   34.4350   45.5060 C   0  0  0  0  0  0  0  0  0  0  0  0
   47.3590   31.6940   46.5740 C   0  0  0  0  0  0  0  0  0  0  0  0
   47.4680   30.4150   46.1010 C   0  0  0  0  0  0  0  0  0  0  0  0
   48.1180   29.3870   46.7640 C   0  0  0  0  0  0  0  0  0  0  0  0
   48.7020   29.6610   47.9940 C   0  0  0  0  0  0  0  0  0  0  0  0
   49.3210   28.6530   48.6120 N   0  0  0  0  0  0  0  0  0  0  0  0
   49.9250   28.8170   49.8210 C   0  0  0  0  0  0  0  0  0  0  0  0
   49.8590   30.0970   50.3770 C   0  0  0  0  0  0  0  0  0  0  0  0
   49.2160   31.1210   49.7230 C   0  0  0  0  0  0  0  0  0  0  0  0
   48.6170   30.9180   48.5010 C   0  0  0  0  0  0  0  0  0  0  0  0
   47.9580   31.9360   47.8150 C   0  0  0  0  0  0  0  0  0  0  0  0
   48.8520   35.4910   41.2480 C   0  0  0  0  0  0  0  0  0  0  0  0
   48.3570   34.9560   40.0480 C   0  0  0  0  0  0  0  0  0  0  0  0
   47.2540   34.0940   40.1180 C   0  0  0  0  0  0  0  0  0  0  0  0
   46.7600   33.8530   41.3400 N   0  0  0  0  0  0  0  0  0  0  0  0
   47.2370   34.3670   42.4800 C   0  0  0  0  0  0  0  0  0  0  0  0
   48.3030   35.2010   42.4430 N   0  0  0  0  0  0  0  0  0  0  0  0
   46.6770   33.4920   38.9420 C   0  0  0  0  0  0  0  0  0  0  0  0
   47.3770   33.4920   37.6780 C   0  0  0  0  0  0  0  0  0  0  0  0
   46.1450   32.5980   36.5490 S   0  0  0  0  0  0  0  0  0  0  0  0
   44.9060   32.3800   37.9690 C   0  0  0  0  0  0  0  0  0  0  0  0
   45.6510   32.8970   38.5680 N   0  0  0  0  0  0  0  0  0  0  0  0
   48.0583   32.5336   44.2478 H   0  0  0  0  0  0  0  0  0  0  0  0
   44.1386   34.9879   45.8678 H   0  0  0  0  0  0  0  0  0  0  0  0
   47.0082   30.1874   45.1280 H   0  0  0  0  0  0  0  0  0  0  0  0
   48.1703   28.3788   46.3272 H   0  0  0  0  0  0  0  0  0  0  0  0
   50.4365   27.9878   50.3317 H   0  0  0  0  0  0  0  0  0  0  0  0
   50.3288   30.2883   51.3531 H   0  0  0  0  0  0  0  0  0  0  0  0
   49.1797   32.1190   50.1841 H   0  0  0  0  0  0  0  0  0  0  0  0
   47.9080   32.9430   48.2548 H   0  0  0  0  0  0  0  0  0  0  0  0
   49.7170   36.1696   41.2108 H   0  0  0  0  0  0  0  0  0  0  0  0
   48.8207   35.2057   39.0823 H   0  0  0  0  0  0  0  0  0  0  0  0
   48.3675   33.9038   37.4344 H   0  0  0  0  0  0  0  0  0  0  0  0
   43.9086   31.9399   38.1160 H   0  0  0  0  0  0  0  0  0  0  0  0
  1  2  1  0
  2  8  2  0
  3  2  1  0
  3  4  2  0
  4  5  1  0
  5  6  2  0
  5  9  1  0
  6  7  1  0
  8  6  1  0
  9 18  1  0
 10  9  2  0
 10 11  1  0
 11 12  2  0
 12 17  1  0
 12 13  1  0
 13 14  2  0
 14 15  1  0
 16 15  2  0
 17 16  1  0
 18 17  2  0
 19 24  2  0
 20 21  2  0
 20 19  1  0
 21 22  1  0
 22 23  2  0
 23  3  1  0
 24 23  1  0
 25 21  1  0
 26 25  2  0
 27 26  1  0
 27 28  1  0
 28 29  2  0
 29 25  1  0
  4 30  1  0
  8 31  1  0
 10 32  1  0
 11 33  1  0
 14 34  1  0
 15 35  1  0
 16 36  1  0
 18 37  1  0
 19 38  1  0
 20 39  1  0
 26 40  1  0
 28 41  1  0
M  ISO  8  30  14  31  14  32  14  33  14  34  14  35  14  36  14  37  14
M  ISO  4  38  14  39  14  40  14  41  14
M  END
>  <minimizedAffinity>  (1) 
-7.05364275

>  <minimizedRMSD>  (1) 
0.29059726

$$$$
