
     RDKit          3D

 38 41  0  0  0  0  0  0  0  0999 V2000
   47.9020   33.7880   42.8890 C   0  0  0  0  0  0  0  0  0  0  0  0
   48.5810   35.0050   42.6610 C   0  0  0  0  0  0  0  0  0  0  0  0
   49.9540   34.9970   42.3410 C   0  0  0  0  0  0  0  0  0  0  0  0
   50.5510   33.7600   42.2740 N   0  0  0  0  0  0  0  0  0  0  0  0
   49.8580   32.6010   42.5030 C   0  0  0  0  0  0  0  0  0  0  0  0
   48.5700   32.6390   42.8000 N   0  0  0  0  0  0  0  0  0  0  0  0
   46.4780   33.9270   43.2200 C   0  0  0  0  0  0  0  0  0  0  0  0
   45.7850   34.9450   42.4320 C   0  0  0  0  0  0  0  0  0  0  0  0
   45.3360   36.1250   43.2110 C   0  0  0  0  0  0  0  0  0  0  0  0
   44.5040   35.7460   44.4280 C   0  0  0  0  0  0  0  0  0  0  0  0
   44.9780   34.5020   45.1320 C   0  0  0  0  0  0  0  0  0  0  0  0
   46.4100   34.1700   44.7390 C   0  0  0  0  0  0  0  0  0  0  0  0
   50.6430   31.3850   42.4090 C   0  0  0  0  0  0  0  0  0  0  0  0
   51.5190   31.2940   41.3710 N   0  0  0  0  0  0  0  0  0  0  0  0
   52.1720   30.1280   41.4270 C   0  0  0  0  0  0  0  0  0  0  0  0
   51.6940   29.4840   42.5190 N   0  0  0  0  0  0  0  0  0  0  0  0
   50.7590   30.2450   43.1220 N   0  0  0  0  0  0  0  0  0  0  0  0
   52.0640   28.1950   43.0260 C   0  0  0  0  0  0  0  0  0  0  0  0
   52.1390   27.7310   44.4120 C   0  0  0  0  0  0  0  0  0  0  0  0
   52.6850   25.9820   44.2240 S   0  0  0  0  0  0  0  0  0  0  0  0
   52.7120   26.1940   42.3400 C   0  0  0  0  0  0  0  0  0  0  0  0
   52.3900   27.2710   42.1450 N   0  0  0  0  0  0  0  0  0  0  0  0
   48.0386   35.9593   42.7331 H   0  0  0  0  0  0  0  0  0  0  0  0
   50.5145   35.9252   42.1559 H   0  0  0  0  0  0  0  0  0  0  0  0
   45.9328   33.0100   42.9518 H   0  0  0  0  0  0  0  0  0  0  0  0
   44.9006   34.4803   41.9717 H   0  0  0  0  0  0  0  0  0  0  0  0
   46.5099   35.3155   41.6922 H   0  0  0  0  0  0  0  0  0  0  0  0
   46.2228   36.6803   43.5505 H   0  0  0  0  0  0  0  0  0  0  0  0
   44.7005   36.7349   42.5520 H   0  0  0  0  0  0  0  0  0  0  0  0
   44.5366   36.5814   45.1428 H   0  0  0  0  0  0  0  0  0  0  0  0
   43.4867   35.5377   44.0651 H   0  0  0  0  0  0  0  0  0  0  0  0
   44.9306   34.6628   46.2191 H   0  0  0  0  0  0  0  0  0  0  0  0
   44.3291   33.6631   44.8399 H   0  0  0  0  0  0  0  0  0  0  0  0
   46.7363   33.2641   45.2709 H   0  0  0  0  0  0  0  0  0  0  0  0
   47.0695   35.0084   45.0078 H   0  0  0  0  0  0  0  0  0  0  0  0
   52.9407   29.7657   40.7286 H   0  0  0  0  0  0  0  0  0  0  0  0
   51.9231   28.2879   45.3357 H   0  0  0  0  0  0  0  0  0  0  0  0
   52.9822   25.4357   41.5903 H   0  0  0  0  0  0  0  0  0  0  0  0
  1  7  1  0
  2  1  2  0
  3  2  1  0
  4  3  2  0
  4  5  1  0
  5  6  2  0
  6  1  1  0
  7 12  1  0
  8  9  1  0
  8  7  1  0
  9 10  1  0
 10 11  1  0
 12 11  1  0
 13  5  1  0
 13 17  2  0
 14 15  2  0
 14 13  1  0
 15 16  1  0
 16 18  1  0
 16 17  1  0
 18 19  2  0
 20 19  1  0
 21 20  1  0
 22 21  2  0
 22 18  1  0
  2 23  1  0
  3 24  1  0
  7 25  1  0
  8 26  1  0
  8 27  1  0
  9 28  1  0
  9 29  1  0
 10 30  1  0
 10 31  1  0
 11 32  1  0
 11 33  1  0
 12 34  1  0
 12 35  1  0
 15 36  1  0
 19 37  1  0
 21 38  1  0
M  ISO  8  23  14  24  14  25  13  26  13  27  13  28  13  29  13  30  13
M  ISO  8  31  13  32  13  33  13  34  13  35  13  36  14  37  14  38  14
M  END
>  <minimizedAffinity>  (1) 
-4.18725586

>  <minimizedRMSD>  (1) 
0.48379308

$$$$
