
     RDKit          3D

 24 25  0  0  0  0  0  0  0  0999 V2000
   45.0470   34.7770   45.1080 C   0  0  0  0  0  0  0  0  0  0  0  0
   46.1050   34.1680   44.4200 C   0  0  0  0  0  0  0  0  0  0  0  0
   46.4550   34.7320   43.2030 C   0  0  0  0  0  0  0  0  0  0  0  0
   45.7850   35.8190   42.7340 N   0  0  0  0  0  0  0  0  0  0  0  0
   44.7750   36.3720   43.4280 C   0  0  0  0  0  0  0  0  0  0  0  0
   44.4050   35.8500   44.6180 N   0  0  0  0  0  0  0  0  0  0  0  0
   47.5790   34.0690   42.5000 C   0  0  0  0  0  0  0  0  0  0  0  0
   47.8900   34.8010   41.3660 F   0  0  0  0  0  0  0  0  0  0  0  0
   47.1110   32.8580   42.0800 F   0  0  0  0  0  0  0  0  0  0  0  0
   48.7100   34.0330   43.2410 F   0  0  0  0  0  0  0  0  0  0  0  0
   46.7870   32.9960   44.9710 C   0  0  0  0  0  0  0  0  0  0  0  0
   47.0080   33.1960   46.4080 N   0  0  0  0  0  0  0  0  0  0  0  0
   46.8120   32.3650   47.5420 C   0  0  0  0  0  0  0  0  0  0  0  0
   45.4890   32.3070   47.8970 C   0  0  0  0  0  0  0  0  0  0  0  0
   45.4770   31.2180   49.3320 S   0  0  0  0  0  0  0  0  0  0  0  0
   47.3750   31.0060   49.2070 C   0  0  0  0  0  0  0  0  0  0  0  0
   47.5790   31.6490   48.3200 N   0  0  0  0  0  0  0  0  0  0  0  0
   44.7331   34.3640   46.0780 H   0  0  0  0  0  0  0  0  0  0  0  0
   44.2491   37.2507   43.0264 H   0  0  0  0  0  0  0  0  0  0  0  0
   46.1653   32.1020   44.8155 H   0  0  0  0  0  0  0  0  0  0  0  0
   47.7538   32.8596   44.4644 H   0  0  0  0  0  0  0  0  0  0  0  0
   47.3806   34.1276   46.6407 H   0  0  0  0  0  0  0  0  0  0  0  0
   44.6350   32.8080   47.4179 H   0  0  0  0  0  0  0  0  0  0  0  0
   48.0652   30.4189   49.8307 H   0  0  0  0  0  0  0  0  0  0  0  0
  2 11  1  0
  2  1  2  0
  3  2  1  0
  4  3  2  0
  4  5  1  0
  5  6  2  0
  6  1  1  0
  7  3  1  0
  7 10  1  0
  8  7  1  0
  9  7  1  0
 11 12  1  0
 12 13  1  0
 13 14  2  0
 13 17  1  0
 14 15  1  0
 16 15  1  0
 17 16  2  0
  1 18  1  0
  5 19  1  0
 11 20  1  0
 11 21  1  0
 12 22  1  0
 14 23  1  0
 16 24  1  0
M  ISO  6  18  14  19  14  20   8  21   8  23  14  24  14
M  END
>  <minimizedAffinity>  (1) 
-5.04994869

>  <minimizedRMSD>  (1) 
5.18043184

$$$$
