
     RDKit          3D

 28 30  0  0  1  0  0  0  0  0999 V2000
   47.0860   35.2090   41.7810 C   0  0  1  0  0  0  0  0  0  0  0  0
   48.6010   35.5530   41.8890 C   0  0  0  0  0  0  0  0  0  0  0  0
   47.9640   34.3830   41.0660 C   0  0  2  0  0  0  0  0  0  0  0  0
   44.9800   34.8500   44.8710 C   0  0  0  0  0  0  0  0  0  0  0  0
   45.4510   35.3830   43.6270 C   0  0  0  0  0  0  0  0  0  0  0  0
   46.5510   34.7710   43.1240 C   0  0  0  0  0  0  0  0  0  0  0  0
   47.1660   33.7190   43.7670 N   0  0  0  0  0  0  0  0  0  0  0  0
   46.6940   33.2480   44.9340 C   0  0  0  0  0  0  0  0  0  0  0  0
   45.5970   33.8160   45.4860 N   0  0  0  0  0  0  0  0  0  0  0  0
   44.8370   36.4760   42.9940 N   0  0  0  0  0  0  0  0  0  0  0  0
   48.0910   34.4470   39.5650 C   0  0  0  0  0  0  0  0  0  0  0  0
   47.2330   33.4190   38.8920 C   0  0  0  0  0  0  0  0  0  0  0  0
   46.7100   32.3260   39.5800 C   0  0  0  0  0  0  0  0  0  0  0  0
   45.7650   31.4360   38.2580 S   0  0  0  0  0  0  0  0  0  0  0  0
   46.2670   32.7410   36.9930 C   0  0  0  0  0  0  0  0  0  0  0  0
   46.9120   33.4700   37.6050 N   0  0  0  0  0  0  0  0  0  0  0  0
   46.1594   35.6990   41.4474 H   0  0  0  0  0  0  0  0  0  0  0  0
   49.0192   36.4379   41.3871 H   0  0  0  0  0  0  0  0  0  0  0  0
   49.3541   35.6763   42.6812 H   0  0  0  0  0  0  0  0  0  0  0  0
   48.0715   33.2887   41.0341 H   0  0  0  0  0  0  0  0  0  0  0  0
   44.0900   35.2953   45.3395 H   0  0  0  0  0  0  0  0  0  0  0  0
   47.1955   32.4076   45.4362 H   0  0  0  0  0  0  0  0  0  0  0  0
   45.2077   36.8281   42.0999 H   0  0  0  0  0  0  0  0  0  0  0  0
   44.0160   36.9255   43.4239 H   0  0  0  0  0  0  0  0  0  0  0  0
   47.7840   35.4466   39.2235 H   0  0  0  0  0  0  0  0  0  0  0  0
   49.1395   34.2450   39.3006 H   0  0  0  0  0  0  0  0  0  0  0  0
   46.8283   32.0589   40.6405 H   0  0  0  0  0  0  0  0  0  0  0  0
   46.0056   32.7925   35.9258 H   0  0  0  0  0  0  0  0  0  0  0  0
  1  2  1  0
  1  6  1  0
  3  1  1  0
  3  2  1  0
  4  9  2  0
  5  4  1  0
  6  5  2  0
  6  7  1  0
  7  8  2  0
  8  9  1  0
 10  5  1  0
 11  3  1  0
 12 11  1  0
 12 13  2  0
 14 13  1  0
 15 16  2  0
 15 14  1  0
 16 12  1  0
  1 17  1  6
  2 18  1  0
  2 19  1  0
  3 20  1  1
  4 21  1  0
  8 22  1  0
 10 23  1  0
 10 24  1  0
 11 25  1  0
 11 26  1  0
 13 27  1  0
 15 28  1  0
M  ISO  8  17  13  18  13  19  13  20  13  21  14  22  14  25   8  26   8
M  ISO  2  27  14  28  14
M  END
>  <minimizedAffinity>  (1) 
-4.5706892

>  <minimizedRMSD>  (1) 
1.21866584

$$$$
