
     RDKit          3D

 32 34  0  0  0  0  0  0  0  0999 V2000
   45.5260   33.5450   43.0770 C   0  0  0  0  0  0  0  0  0  0  0  0
   46.8530   33.9570   42.8790 C   0  0  0  0  0  0  0  0  0  0  0  0
   47.8090   33.3060   43.6450 C   0  0  0  0  0  0  0  0  0  0  0  0
   47.4160   32.3340   44.5180 N   0  0  0  0  0  0  0  0  0  0  0  0
   46.1440   31.9780   44.6700 C   0  0  0  0  0  0  0  0  0  0  0  0
   45.1750   32.5850   43.9450 N   0  0  0  0  0  0  0  0  0  0  0  0
   45.5350   29.2580   43.4400 Cl  0  0  0  0  0  0  0  0  0  0  0  0
   45.4940   29.6640   45.1540 C   0  0  0  0  0  0  0  0  0  0  0  0
   45.7870   30.9320   45.6190 C   0  0  0  0  0  0  0  0  0  0  0  0
   45.7450   31.2150   46.9680 C   0  0  0  0  0  0  0  0  0  0  0  0
   45.4040   30.2170   47.8690 C   0  0  0  0  0  0  0  0  0  0  0  0
   45.1180   28.9600   47.3570 C   0  0  0  0  0  0  0  0  0  0  0  0
   44.6920   27.7260   48.5250 Cl  0  0  0  0  0  0  0  0  0  0  0  0
   45.1490   28.6360   46.0120 C   0  0  0  0  0  0  0  0  0  0  0  0
   47.1010   34.9950   41.9210 C   0  0  0  0  0  0  0  0  0  0  0  0
   48.5450   34.8880   41.4530 C   0  0  0  0  0  0  0  0  0  0  0  0
   48.4970   34.0810   40.1800 C   0  0  0  0  0  0  0  0  0  0  0  0
   48.8820   32.7060   40.1790 C   0  0  0  0  0  0  0  0  0  0  0  0
   48.6290   32.2640   38.4240 S   0  0  0  0  0  0  0  0  0  0  0  0
   48.0410   34.0280   37.9970 C   0  0  0  0  0  0  0  0  0  0  0  0
   48.1080   34.5690   39.0140 N   0  0  0  0  0  0  0  0  0  0  0  0
   44.7341   34.0341   42.4907 H   0  0  0  0  0  0  0  0  0  0  0  0
   48.8724   33.5706   43.5495 H   0  0  0  0  0  0  0  0  0  0  0  0
   45.9808   32.2274   47.3279 H   0  0  0  0  0  0  0  0  0  0  0  0
   45.3619   30.4152   48.9502 H   0  0  0  0  0  0  0  0  0  0  0  0
   44.9141   27.6247   45.6485 H   0  0  0  0  0  0  0  0  0  0  0  0
   46.4234   34.8768   41.0626 H   0  0  0  0  0  0  0  0  0  0  0  0
   46.9263   35.9795   42.3795 H   0  0  0  0  0  0  0  0  0  0  0  0
   48.9614   35.8875   41.2591 H   0  0  0  0  0  0  0  0  0  0  0  0
   49.1861   34.4156   42.2118 H   0  0  0  0  0  0  0  0  0  0  0  0
   49.2360   32.0804   41.0116 H   0  0  0  0  0  0  0  0  0  0  0  0
   47.7188   34.4290   37.0247 H   0  0  0  0  0  0  0  0  0  0  0  0
  1  6  2  0
  2  1  1  0
  2  3  2  0
  3  4  1  0
  4  5  2  0
  5  9  1  0
  6  5  1  0
  7  8  1  0
  8  9  2  0
  8 14  1  0
  9 10  1  0
 10 11  2  0
 12 11  1  0
 12 13  1  0
 14 12  2  0
 15  2  1  0
 16 15  1  0
 17 16  1  0
 18 17  2  0
 19 18  1  0
 20 19  1  0
 20 21  2  0
 21 17  1  0
  1 22  1  0
  3 23  1  0
 10 24  1  0
 11 25  1  0
 14 26  1  0
 15 27  1  0
 15 28  1  0
 16 29  1  0
 16 30  1  0
 18 31  1  0
 20 32  1  0
M  ISO  8  22  14  23  14  24  14  25  14  26  14  27   8  28   8  29   8
M  ISO  3  30   8  31  14  32  14
M  END
>  <minimizedAffinity>  (1) 
-4.20410156

>  <minimizedRMSD>  (1) 
2.37081885

$$$$
