
     RDKit          3D

 25 27  0  0  1  0  0  0  0  0999 V2000
   46.1160   32.6450   45.7210 C   0  0  1  0  0  0  0  0  0  0  0  0
   46.9460   32.7720   46.9650 C   0  0  0  0  0  0  0  0  0  0  0  0
   45.4740   32.3900   47.0180 C   0  0  2  0  0  0  0  0  0  0  0  0
   44.5720   35.8730   44.7450 C   0  0  0  0  0  0  0  0  0  0  0  0
   45.1630   36.0970   43.4510 C   0  0  0  0  0  0  0  0  0  0  0  0
   46.0880   35.1220   42.9630 C   0  0  0  0  0  0  0  0  0  0  0  0
   46.3610   34.0540   43.7190 N   0  0  0  0  0  0  0  0  0  0  0  0
   45.7840   33.8730   44.9390 C   0  0  0  0  0  0  0  0  0  0  0  0
   44.8990   34.7780   45.4420 N   0  0  0  0  0  0  0  0  0  0  0  0
   45.1160   31.0990   47.4710 N   0  0  0  0  0  0  0  0  0  0  0  0
   45.0440   29.7130   47.2780 C   0  0  0  0  0  0  0  0  0  0  0  0
   44.9650   29.4160   45.8280 C   0  0  0  0  0  0  0  0  0  0  0  0
   44.8940   27.5170   45.9890 S   0  0  0  0  0  0  0  0  0  0  0  0
   44.9830   27.5580   47.8940 C   0  0  0  0  0  0  0  0  0  0  0  0
   45.0510   28.8060   48.2470 N   0  0  0  0  0  0  0  0  0  0  0  0
   46.1994   32.0687   44.7878 H   0  0  0  0  0  0  0  0  0  0  0  0
   47.7215   32.0261   47.1933 H   0  0  0  0  0  0  0  0  0  0  0  0
   47.5745   33.5534   47.4171 H   0  0  0  0  0  0  0  0  0  0  0  0
   44.5602   32.7776   47.4920 H   0  0  0  0  0  0  0  0  0  0  0  0
   43.8555   36.5980   45.1585 H   0  0  0  0  0  0  0  0  0  0  0  0
   44.9112   36.9885   42.8578 H   0  0  0  0  0  0  0  0  0  0  0  0
   46.5673   35.2488   41.9811 H   0  0  0  0  0  0  0  0  0  0  0  0
   44.7055   31.2542   48.4029 H   0  0  0  0  0  0  0  0  0  0  0  0
   44.9517   30.0751   44.9474 H   0  0  0  0  0  0  0  0  0  0  0  0
   44.9777   26.6880   48.5671 H   0  0  0  0  0  0  0  0  0  0  0  0
  1  2  1  0
  1  3  1  0
  2  3  1  0
  3 10  1  0
  4  9  2  0
  5  4  1  0
  6  5  2  0
  6  7  1  0
  7  8  2  0
  8  9  1  0
  8  1  1  0
 11 10  1  0
 11 15  1  0
 12 13  1  0
 12 11  2  0
 13 14  1  0
 14 15  2  0
  1 16  1  6
  2 17  1  0
  2 18  1  0
  3 19  1  1
  4 20  1  0
  5 21  1  0
  6 22  1  0
 10 23  1  0
 12 24  1  0
 14 25  1  0
M  ISO  8  16  13  17  13  18  13  19  13  20  14  21  14  22  14  24  14
M  ISO  1  25  14
M  END
>  <minimizedAffinity>  (1) 
-4.22954082

>  <minimizedRMSD>  (1) 
1.18311083

$$$$
