
     RDKit          3D

 46 48  0  0  1  0  0  0  0  0999 V2000
   46.7110   34.3790   43.4840 N   0  0  0  0  0  0  0  0  0  0  0  0
   46.4400   34.9230   42.2140 C   0  0  0  0  0  0  0  0  0  0  0  0
   44.9760   34.9310   41.8290 C   0  0  0  0  0  0  0  0  0  0  0  0
   44.0510   35.1960   42.9920 C   0  0  0  0  0  0  0  0  0  0  0  0
   44.8050   35.4210   44.2830 C   0  0  0  0  0  0  0  0  0  0  0  0
   45.7140   34.1410   44.4030 C   0  0  2  0  0  0  0  0  0  0  0  0
   47.8980   33.5590   43.5360 C   0  0  0  0  0  0  0  0  0  0  0  0
   47.6790   32.3430   42.7130 C   0  0  0  0  0  0  0  0  0  0  0  0
   51.2180   32.1930   41.4720 C   0  0  0  0  0  0  0  0  0  0  0  0
   50.1010   32.3980   42.2900 C   0  0  0  0  0  0  0  0  0  0  0  0
   48.8520   32.1180   41.8280 C   0  0  0  0  0  0  0  0  0  0  0  0
   48.7420   31.6470   40.5790 N   0  0  0  0  0  0  0  0  0  0  0  0
   49.8080   31.4450   39.7850 C   0  0  0  0  0  0  0  0  0  0  0  0
   51.0500   31.7120   40.2120 N   0  0  0  0  0  0  0  0  0  0  0  0
   46.1550   34.2270   45.7100 O   0  0  0  0  0  0  0  0  0  0  0  0
   45.6840   31.6170   45.5950 O   0  0  0  0  0  0  0  0  0  0  0  0
   46.0610   32.7800   46.5400 P   0  0  2  0  0  0  0  0  0  0  0  0
   44.7140   32.9100   47.5900 O   0  0  0  0  0  0  0  0  0  0  0  0
   47.4090   32.4280   47.4400 O   0  0  0  0  0  0  0  0  0  0  0  0
   47.5150   31.0570   47.5990 C   0  0  0  0  0  0  0  0  0  0  0  0
   48.6260   30.6970   48.5540 C   0  0  0  0  0  0  0  0  0  0  0  0
   49.1490   29.3410   48.5800 C   0  0  0  0  0  0  0  0  0  0  0  0
   50.4330   29.4850   49.8780 S   0  0  0  0  0  0  0  0  0  0  0  0
   50.0600   31.3050   50.1630 C   0  0  0  0  0  0  0  0  0  0  0  0
   49.1700   31.5590   49.3890 N   0  0  0  0  0  0  0  0  0  0  0  0
   46.8034   35.9612   42.2012 H   0  0  0  0  0  0  0  0  0  0  0  0
   46.9499   34.2772   41.4840 H   0  0  0  0  0  0  0  0  0  0  0  0
   44.8187   35.7144   41.0730 H   0  0  0  0  0  0  0  0  0  0  0  0
   44.7359   33.9284   41.4455 H   0  0  0  0  0  0  0  0  0  0  0  0
   43.4521   36.0918   42.7710 H   0  0  0  0  0  0  0  0  0  0  0  0
   43.4130   34.3098   43.1242 H   0  0  0  0  0  0  0  0  0  0  0  0
   45.4162   36.3339   44.2278 H   0  0  0  0  0  0  0  0  0  0  0  0
   44.1413   35.5590   45.1493 H   0  0  0  0  0  0  0  0  0  0  0  0
   45.2739   33.1511   44.2123 H   0  0  0  0  0  0  0  0  0  0  0  0
   48.7546   34.1238   43.1395 H   0  0  0  0  0  0  0  0  0  0  0  0
   48.1071   33.2717   44.5770 H   0  0  0  0  0  0  0  0  0  0  0  0
   47.5474   31.4734   43.3736 H   0  0  0  0  0  0  0  0  0  0  0  0
   46.7784   32.4784   42.0961 H   0  0  0  0  0  0  0  0  0  0  0  0
   52.2269   32.4201   41.8470 H   0  0  0  0  0  0  0  0  0  0  0  0
   50.2332   32.7870   43.3104 H   0  0  0  0  0  0  0  0  0  0  0  0
   49.6583   31.0540   38.7678 H   0  0  0  0  0  0  0  0  0  0  0  0
   45.0240   32.8801   48.5297 H   0  0  0  0  0  0  0  0  0  0  0  0
   46.5645   30.6680   47.9930 H   0  0  0  0  0  0  0  0  0  0  0  0
   47.7433   30.6119   46.6193 H   0  0  0  0  0  0  0  0  0  0  0  0
   48.8538   28.4660   47.9824 H   0  0  0  0  0  0  0  0  0  0  0  0
   50.5452   31.9870   50.8768 H   0  0  0  0  0  0  0  0  0  0  0  0
  1  7  1  0
  1  6  1  0
  2  1  1  0
  3  2  1  0
  3  4  1  0
  4  5  1  0
  5  6  1  0
  6 15  1  0
  8  7  1  0
  9 10  2  0
 11 10  1  0
 11  8  1  0
 12 11  2  0
 13 14  2  0
 13 12  1  0
 14  9  1  0
 15 17  1  0
 17 16  2  0
 17 19  1  0
 17 18  1  0
 19 20  1  0
 20 21  1  0
 21 22  2  0
 21 25  1  0
 22 23  1  0
 23 24  1  0
 25 24  2  0
  2 26  1  0
  2 27  1  0
  3 28  1  0
  3 29  1  0
  4 30  1  0
  4 31  1  0
  5 32  1  0
  5 33  1  0
  6 34  1  6
  7 35  1  0
  7 36  1  0
  8 37  1  0
  8 38  1  0
  9 39  1  0
 10 40  1  0
 13 41  1  0
 18 42  1  0
 20 43  1  0
 20 44  1  0
 22 45  1  0
 24 46  1  0
M  ISO  8  26  13  27  13  28  13  29  13  30  13  31  13  32  13  33  13
M  ISO  8  34  13  35   8  36   8  37   8  38   8  39  14  40  14  41  14
M  ISO  5  42   3  43   8  44   8  45  14  46  14
M  END
>  <minimizedAffinity>  (1) 
-4.9102025

>  <minimizedRMSD>  (1) 
2.9852078

$$$$
