
     RDKit          3D

 37 40  0  0  0  0  0  0  0  0999 V2000
   45.6970   34.1550   40.7430 C   0  0  0  0  0  0  0  0  0  0  0  0
   44.3400   34.1460   40.5620 C   0  0  0  0  0  0  0  0  0  0  0  0
   44.1290   33.4520   39.4150 N   0  0  0  0  0  0  0  0  0  0  0  0
   45.3090   33.0610   38.9270 C   0  0  0  0  0  0  0  0  0  0  0  0
   46.2750   33.4930   39.7440 N   0  0  0  0  0  0  0  0  0  0  0  0
   45.6110   32.3130   37.7560 N   0  0  0  0  0  0  0  0  0  0  0  0
   42.8710   33.1500   38.7730 C   0  0  0  0  0  0  0  0  0  0  0  0
   41.7010   33.7770   39.4650 C   0  0  0  0  0  0  0  0  0  0  0  0
   41.1930   35.0650   39.0670 C   0  0  0  0  0  0  0  0  0  0  0  0
   39.8230   35.2860   40.2280 S   0  0  0  0  0  0  0  0  0  0  0  0
   40.1540   33.6080   41.0630 C   0  0  0  0  0  0  0  0  0  0  0  0
   41.0480   33.2210   40.4710 N   0  0  0  0  0  0  0  0  0  0  0  0
   46.4610   34.7940   41.8700 C   0  0  0  0  0  0  0  0  0  0  0  0
   47.6450   35.2170   41.7890 O   0  0  0  0  0  0  0  0  0  0  0  0
   45.2080   36.1660   43.4630 C   0  0  0  0  0  0  0  0  0  0  0  0
   45.8390   34.9520   43.1380 C   0  0  0  0  0  0  0  0  0  0  0  0
   45.7850   33.9950   44.1340 C   0  0  0  0  0  0  0  0  0  0  0  0
   45.1890   34.1900   45.3090 N   0  0  0  0  0  0  0  0  0  0  0  0
   44.5910   35.3900   45.5700 C   0  0  0  0  0  0  0  0  0  0  0  0
   44.6080   36.3580   44.6490 N   0  0  0  0  0  0  0  0  0  0  0  0
   46.4070   32.7340   43.8810 C   0  0  0  0  0  0  0  0  0  0  0  0
   47.6630   32.2310   43.9610 C   0  0  0  0  0  0  0  0  0  0  0  0
   47.9700   30.9940   43.6580 C   0  0  0  0  0  0  0  0  0  0  0  0
   46.9460   30.2310   43.2540 C   0  0  0  0  0  0  0  0  0  0  0  0
   45.4880   31.3150   43.3060 S   0  0  0  0  0  0  0  0  0  0  0  0
   43.5796   34.6053   41.2107 H   0  0  0  0  0  0  0  0  0  0  0  0
   46.5902   32.0948   37.5226 H   0  0  0  0  0  0  0  0  0  0  0  0
   44.8506   31.9894   37.1412 H   0  0  0  0  0  0  0  0  0  0  0  0
   42.9069   33.5205   37.7379 H   0  0  0  0  0  0  0  0  0  0  0  0
   42.7330   32.0594   38.8117 H   0  0  0  0  0  0  0  0  0  0  0  0
   41.5446   35.7358   38.2693 H   0  0  0  0  0  0  0  0  0  0  0  0
   39.6206   33.1342   41.9003 H   0  0  0  0  0  0  0  0  0  0  0  0
   45.2058   36.9815   42.7248 H   0  0  0  0  0  0  0  0  0  0  0  0
   44.0958   35.5594   46.5375 H   0  0  0  0  0  0  0  0  0  0  0  0
   48.4693   32.8985   44.2991 H   0  0  0  0  0  0  0  0  0  0  0  0
   48.9977   30.6086   43.7304 H   0  0  0  0  0  0  0  0  0  0  0  0
   46.9802   29.1731   42.9544 H   0  0  0  0  0  0  0  0  0  0  0  0
  1 13  1  0
  2  1  2  0
  3  2  1  0
  4  3  1  0
  4  5  2  0
  5  1  1  0
  6  4  1  0
  7  3  1  0
  7  8  1  0
  8 12  1  0
  9  8  2  0
  9 10  1  0
 10 11  1  0
 12 11  2  0
 13 16  1  0
 14 13  2  0
 15 20  2  0
 16 15  1  0
 16 17  2  0
 17 18  1  0
 18 19  2  0
 20 19  1  0
 21 22  2  0
 21 17  1  0
 23 22  1  0
 24 25  1  0
 24 23  2  0
 25 21  1  0
  2 26  1  0
  6 27  1  0
  6 28  1  0
  7 29  1  0
  7 30  1  0
  9 31  1  0
 11 32  1  0
 15 33  1  0
 19 34  1  0
 22 35  1  0
 23 36  1  0
 24 37  1  0
M  ISO  8  26  14  29   8  30   8  31  14  32  14  33  14  34  14  35  14
M  ISO  2  36  14  37  14
M  END
>  <minimizedAffinity>  (1) 
-5.25329781

>  <minimizedRMSD>  (1) 
1.69598031

$$$$
