
     RDKit          3D

 29 31  0  0  0  0  0  0  0  0999 V2000
   47.7950   32.9720   42.7640 C   0  0  0  0  0  0  0  0  0  0  0  0
   47.1470   34.1730   42.6480 C   0  0  0  0  0  0  0  0  0  0  0  0
   47.4380   34.9130   41.5320 C   0  0  0  0  0  0  0  0  0  0  0  0
   48.3240   34.5130   40.5550 C   0  0  0  0  0  0  0  0  0  0  0  0
   48.9470   33.2950   40.7250 C   0  0  0  0  0  0  0  0  0  0  0  0
   48.6880   32.5130   41.8300 C   0  0  0  0  0  0  0  0  0  0  0  0
   45.2290   34.2600   45.8850 C   0  0  0  0  0  0  0  0  0  0  0  0
   46.1340   33.8530   44.8990 C   0  0  0  0  0  0  0  0  0  0  0  0
   46.2270   34.5570   43.6900 C   0  0  0  0  0  0  0  0  0  0  0  0
   45.3890   35.6280   43.5740 N   0  0  0  0  0  0  0  0  0  0  0  0
   44.5310   35.9980   44.5280 C   0  0  0  0  0  0  0  0  0  0  0  0
   44.4590   35.3090   45.6790 N   0  0  0  0  0  0  0  0  0  0  0  0
   45.1750   33.5140   47.0890 N   0  0  0  0  0  0  0  0  0  0  0  0
   49.3340   31.2110   42.0400 C   0  0  0  0  0  0  0  0  0  0  0  0
   48.7930   30.0260   41.3150 C   0  0  0  0  0  0  0  0  0  0  0  0
   49.8420   28.7160   41.8510 S   0  0  0  0  0  0  0  0  0  0  0  0
   50.8670   29.8710   42.9620 C   0  0  0  0  0  0  0  0  0  0  0  0
   50.3650   30.9080   42.8040 N   0  0  0  0  0  0  0  0  0  0  0  0
   47.3500   31.4290   44.8530 N   0  0  0  0  0  0  0  0  0  0  0  0
   47.5440   32.1310   43.9170 C   0  0  0  0  0  0  0  0  0  0  0  0
   46.9349   35.8834   41.4087 H   0  0  0  0  0  0  0  0  0  0  0  0
   48.5260   35.1407   39.6745 H   0  0  0  0  0  0  0  0  0  0  0  0
   49.6618   32.9418   39.9671 H   0  0  0  0  0  0  0  0  0  0  0  0
   46.7756   32.9766   45.0730 H   0  0  0  0  0  0  0  0  0  0  0  0
   43.8803   36.8708   44.3707 H   0  0  0  0  0  0  0  0  0  0  0  0
   44.5196   33.7872   47.8351 H   0  0  0  0  0  0  0  0  0  0  0  0
   45.7912   32.6987   47.2178 H   0  0  0  0  0  0  0  0  0  0  0  0
   47.9452   29.9806   40.6156 H   0  0  0  0  0  0  0  0  0  0  0  0
   51.7269   29.6188   43.5999 H   0  0  0  0  0  0  0  0  0  0  0  0
  1 20  1  0
  2  1  2  0
  2  9  1  0
  3  2  1  0
  4  5  1  0
  4  3  2  0
  5  6  2  0
  6 14  1  0
  6  1  1  0
  7 13  1  0
  8  7  2  0
  9  8  1  0
 10  9  2  0
 10 11  1  0
 11 12  2  0
 12  7  1  0
 14 18  1  0
 15 16  1  0
 15 14  2  0
 16 17  1  0
 18 17  2  0
 20 19  3  0
  3 21  1  0
  4 22  1  0
  5 23  1  0
  8 24  1  0
 11 25  1  0
 13 26  1  0
 13 27  1  0
 15 28  1  0
 17 29  1  0
M  ISO  7  21  14  22  14  23  14  24  14  25  14  28  14  29  14
M  END
>  <minimizedAffinity>  (1) 
-5.07383919

>  <minimizedRMSD>  (1) 
4.62666368

$$$$
