
     RDKit          3D

 17 18  0  0  0  0  0  0  0  0999 V2000
   44.5460   36.0050   44.5400 C   0  0  0  0  0  0  0  0  0  0  0  0
   45.1970   35.9390   43.2920 C   0  0  0  0  0  0  0  0  0  0  0  0
   46.0780   34.8700   43.0840 C   0  0  0  0  0  0  0  0  0  0  0  0
   46.2490   33.9690   44.0920 N   0  0  0  0  0  0  0  0  0  0  0  0
   45.5950   34.0830   45.2730 C   0  0  0  0  0  0  0  0  0  0  0  0
   44.7510   35.0920   45.4970 N   0  0  0  0  0  0  0  0  0  0  0  0
   46.9470   34.7010   41.5410 S   0  0  0  0  0  0  0  0  0  0  0  0
   48.5760   33.9440   41.7530 C   0  0  0  0  0  0  0  0  0  0  0  0
   48.7420   32.6580   41.1770 C   0  0  0  0  0  0  0  0  0  0  0  0
   50.4860   32.3640   41.6600 S   0  0  0  0  0  0  0  0  0  0  0  0
   50.6740   33.9950   42.5330 C   0  0  0  0  0  0  0  0  0  0  0  0
   49.5510   34.5730   42.4140 N   0  0  0  0  0  0  0  0  0  0  0  0
   43.8477   36.8325   44.7337 H   0  0  0  0  0  0  0  0  0  0  0  0
   45.0206   36.6957   42.5133 H   0  0  0  0  0  0  0  0  0  0  0  0
   45.7623   33.3322   46.0593 H   0  0  0  0  0  0  0  0  0  0  0  0
   48.0383   32.0287   40.6123 H   0  0  0  0  0  0  0  0  0  0  0  0
   51.5695   34.3777   43.0444 H   0  0  0  0  0  0  0  0  0  0  0  0
  1  6  2  0
  2  1  1  0
  3  2  2  0
  3  4  1  0
  4  5  2  0
  5  6  1  0
  7  8  1  0
  7  3  1  0
  8 12  1  0
  9 10  1  0
  9  8  2  0
 10 11  1  0
 12 11  2  0
  1 13  1  0
  2 14  1  0
  5 15  1  0
  9 16  1  0
 11 17  1  0
M  ISO  5  13  14  14  14  15  14  16  14  17  14
M  END
>  <minimizedAffinity>  (1) 
-3.86827374

>  <minimizedRMSD>  (1) 
1.29933155

$$$$
