
     RDKit          3D

 44 47  0  0  1  0  0  0  0  0999 V2000
   47.8520   33.7580   42.0650 C   0  0  0  0  0  0  0  0  0  0  0  0
   48.3480   35.0400   42.0400 C   0  0  0  0  0  0  0  0  0  0  0  0
   48.7600   35.6910   40.8830 C   0  0  0  0  0  0  0  0  0  0  0  0
   48.6260   34.9220   39.7190 C   0  0  0  0  0  0  0  0  0  0  0  0
   48.1180   33.6120   39.7450 C   0  0  0  0  0  0  0  0  0  0  0  0
   47.7410   33.0510   40.9080 N   0  0  0  0  0  0  0  0  0  0  0  0
   47.9870   32.8780   38.4930 C   0  0  1  0  0  0  0  0  0  0  0  0
   46.8150   33.4850   37.6160 C   0  0  0  0  0  0  0  0  0  0  0  0
   46.5540   32.3310   36.6010 C   0  0  0  0  0  0  0  0  0  0  0  0
   47.7440   32.4520   35.6400 C   0  0  0  0  0  0  0  0  0  0  0  0
   49.0130   32.1460   36.3470 C   0  0  0  0  0  0  0  0  0  0  0  0
   49.1750   32.6930   37.7150 C   0  0  2  0  0  0  0  0  0  0  0  0
   50.2120   31.4960   38.6200 S   0  0  0  0  0  0  0  0  0  0  0  0
   47.3840   31.4910   44.8910 C   0  0  0  0  0  0  0  0  0  0  0  0
   46.5430   32.1920   45.7500 C   0  0  0  0  0  0  0  0  0  0  0  0
   46.1550   33.4420   45.3290 C   0  0  0  0  0  0  0  0  0  0  0  0
   46.6040   33.9050   44.1290 N   0  0  0  0  0  0  0  0  0  0  0  0
   47.4390   33.1620   43.3170 C   0  0  0  0  0  0  0  0  0  0  0  0
   47.8080   31.9920   43.7030 N   0  0  0  0  0  0  0  0  0  0  0  0
   45.3130   34.2860   46.0470 N   0  0  0  0  0  0  0  0  0  0  0  0
   46.0750   31.6770   47.0310 C   0  0  0  0  0  0  0  0  0  0  0  0
   45.5540   30.3300   47.0940 C   0  0  0  0  0  0  0  0  0  0  0  0
   45.1180   30.1900   48.8860 S   0  0  0  0  0  0  0  0  0  0  0  0
   45.7130   31.9600   49.2250 C   0  0  0  0  0  0  0  0  0  0  0  0
   46.0870   32.3470   48.1620 N   0  0  0  0  0  0  0  0  0  0  0  0
   48.4234   35.5835   42.9934 H   0  0  0  0  0  0  0  0  0  0  0  0
   49.1556   36.7174   40.8812 H   0  0  0  0  0  0  0  0  0  0  0  0
   48.9279   35.3574   38.7550 H   0  0  0  0  0  0  0  0  0  0  0  0
   47.7439   31.8543   38.8139 H   0  0  0  0  0  0  0  0  0  0  0  0
   45.9234   33.6927   38.2258 H   0  0  0  0  0  0  0  0  0  0  0  0
   47.0608   34.4483   37.1452 H   0  0  0  0  0  0  0  0  0  0  0  0
   46.5488   31.3532   37.1048 H   0  0  0  0  0  0  0  0  0  0  0  0
   45.5780   32.4036   36.0988 H   0  0  0  0  0  0  0  0  0  0  0  0
   47.7876   33.4775   35.2444 H   0  0  0  0  0  0  0  0  0  0  0  0
   47.6122   31.7346   34.8166 H   0  0  0  0  0  0  0  0  0  0  0  0
   49.0977   31.0514   36.4161 H   0  0  0  0  0  0  0  0  0  0  0  0
   49.7956   32.6376   35.7505 H   0  0  0  0  0  0  0  0  0  0  0  0
   49.5922   33.7023   37.5838 H   0  0  0  0  0  0  0  0  0  0  0  0
   50.0520   31.6807   39.9680 H   0  0  0  0  0  0  0  0  0  0  0  0
   47.7200   30.4865   45.1879 H   0  0  0  0  0  0  0  0  0  0  0  0
   45.0653   35.2109   45.6675 H   0  0  0  0  0  0  0  0  0  0  0  0
   44.9376   33.9857   46.9579 H   0  0  0  0  0  0  0  0  0  0  0  0
   45.4457   29.5866   46.2905 H   0  0  0  0  0  0  0  0  0  0  0  0
   45.7127   32.5030   50.1816 H   0  0  0  0  0  0  0  0  0  0  0  0
  1 18  1  0
  2  1  2  0
  3  2  1  0
  4  5  1  0
  4  3  2  0
  5  6  2  0
  6  1  1  0
  7  5  1  0
  8  7  1  0
  9  8  1  0
 10 11  1  0
 10  9  1  0
 11 12  1  0
 12  7  1  0
 12 13  1  0
 14 15  2  0
 15 21  1  0
 16 15  1  0
 16 20  1  0
 17 16  2  0
 18 19  2  0
 18 17  1  0
 19 14  1  0
 21 22  2  0
 21 25  1  0
 22 23  1  0
 23 24  1  0
 25 24  2  0
  2 26  1  0
  3 27  1  0
  4 28  1  0
  7 29  1  1
  8 30  1  0
  8 31  1  0
  9 32  1  0
  9 33  1  0
 10 34  1  0
 10 35  1  0
 11 36  1  0
 11 37  1  0
 12 38  1  6
 13 39  1  0
 14 40  1  0
 20 41  1  0
 20 42  1  0
 22 43  1  0
 24 44  1  0
M  ISO  8  26  14  27  14  28  14  29  13  30  13  31  13  32  13  33  13
M  ISO  8  34  13  35  13  36  13  37  13  38  13  39  11  40  14  43  14
M  ISO  1  44  14
M  END
>  <minimizedAffinity>  (1) 
-6.05933428

>  <minimizedRMSD>  (1) 
1.55795264

$$$$
