
     RDKit          3D

 45 48  0  0  1  0  0  0  0  0999 V2000
   48.0780   34.9160   42.2840 C   0  0  0  0  0  0  0  0  0  0  0  0
   49.1870   34.3670   41.5800 N   0  0  0  0  0  0  0  0  0  0  0  0
   50.2170   33.9490   42.4990 C   0  0  0  0  0  0  0  0  0  0  0  0
   50.9180   32.7740   41.8920 C   0  0  0  0  0  0  0  0  0  0  0  0
   49.8370   32.1420   41.0550 C   0  0  0  0  0  0  0  0  0  0  0  0
   48.8200   33.2230   40.7990 C   0  0  2  0  0  0  0  0  0  0  0  0
   48.6590   33.5130   39.3520 C   0  0  0  0  0  0  0  0  0  0  0  0
   49.0470   32.3040   38.7460 C   0  0  0  0  0  0  0  0  0  0  0  0
   48.8370   32.6880   36.9020 S   0  0  0  0  0  0  0  0  0  0  0  0
   48.2590   34.4380   37.3560 C   0  0  0  0  0  0  0  0  0  0  0  0
   48.3090   34.4290   38.4770 N   0  0  0  0  0  0  0  0  0  0  0  0
   45.6170   35.0630   42.1160 C   0  0  0  0  0  0  0  0  0  0  0  0
   46.7680   34.6290   41.5950 C   0  0  0  0  0  0  0  0  0  0  0  0
   44.0550   33.6360   40.6800 C   0  0  0  0  0  0  0  0  0  0  0  0
   44.3180   34.7900   41.4540 C   0  0  0  0  0  0  0  0  0  0  0  0
   43.3030   35.7550   41.6230 C   0  0  0  0  0  0  0  0  0  0  0  0
   42.1010   35.5260   41.0250 N   0  0  0  0  0  0  0  0  0  0  0  0
   41.8860   34.4280   40.3010 C   0  0  0  0  0  0  0  0  0  0  0  0
   42.8580   33.5130   40.1440 N   0  0  0  0  0  0  0  0  0  0  0  0
   39.6750   33.6580   41.7790 F   0  0  0  0  0  0  0  0  0  0  0  0
   39.4950   33.8300   40.4450 C   0  0  0  0  0  0  0  0  0  0  0  0
   40.5840   34.2170   39.6740 C   0  0  0  0  0  0  0  0  0  0  0  0
   40.4810   34.4130   38.3120 C   0  0  0  0  0  0  0  0  0  0  0  0
   39.2340   34.2080   37.7230 C   0  0  0  0  0  0  0  0  0  0  0  0
   38.1200   33.8190   38.4740 C   0  0  0  0  0  0  0  0  0  0  0  0
   38.2630   33.6330   39.8370 C   0  0  0  0  0  0  0  0  0  0  0  0
   48.0496   34.4819   43.2943 H   0  0  0  0  0  0  0  0  0  0  0  0
   48.2082   36.0076   42.3211 H   0  0  0  0  0  0  0  0  0  0  0  0
   50.9316   34.7697   42.6596 H   0  0  0  0  0  0  0  0  0  0  0  0
   49.7794   33.6770   43.4709 H   0  0  0  0  0  0  0  0  0  0  0  0
   51.7654   33.0958   41.2689 H   0  0  0  0  0  0  0  0  0  0  0  0
   51.3502   32.0899   42.6372 H   0  0  0  0  0  0  0  0  0  0  0  0
   50.2542   31.7777   40.1046 H   0  0  0  0  0  0  0  0  0  0  0  0
   49.3857   31.2792   41.5668 H   0  0  0  0  0  0  0  0  0  0  0  0
   47.8209   32.8879   41.1143 H   0  0  0  0  0  0  0  0  0  0  0  0
   49.3863   31.3721   39.2219 H   0  0  0  0  0  0  0  0  0  0  0  0
   47.9520   35.2560   36.6877 H   0  0  0  0  0  0  0  0  0  0  0  0
   45.6329   35.6348   43.0556 H   0  0  0  0  0  0  0  0  0  0  0  0
   46.7599   34.0573   40.6552 H   0  0  0  0  0  0  0  0  0  0  0  0
   44.8256   32.8655   40.5303 H   0  0  0  0  0  0  0  0  0  0  0  0
   43.4768   36.6633   42.2187 H   0  0  0  0  0  0  0  0  0  0  0  0
   41.3510   34.7198   37.7128 H   0  0  0  0  0  0  0  0  0  0  0  0
   39.1233   34.3562   36.6387 H   0  0  0  0  0  0  0  0  0  0  0  0
   37.1454   33.6634   37.9882 H   0  0  0  0  0  0  0  0  0  0  0  0
   37.3965   33.3276   40.4419 H   0  0  0  0  0  0  0  0  0  0  0  0
  2  1  1  0
  2  3  1  0
  4  3  1  0
  5  4  1  0
  6  5  1  0
  6  2  1  0
  7  6  1  0
  8  7  2  0
  9 10  1  0
  9  8  1  0
 10 11  2  0
 11  7  1  0
 13 12  2  0
 13  1  1  0
 14 15  2  0
 15 16  1  0
 15 12  1  0
 17 16  2  0
 18 17  1  0
 19 18  2  0
 19 14  1  0
 21 20  1  0
 22 18  1  0
 22 21  2  0
 23 22  1  0
 24 23  2  0
 24 25  1  0
 25 26  2  0
 26 21  1  0
  1 27  1  0
  1 28  1  0
  3 29  1  0
  3 30  1  0
  4 31  1  0
  4 32  1  0
  5 33  1  0
  5 34  1  0
  6 35  1  1
  8 36  1  0
 10 37  1  0
 12 38  1  0
 13 39  1  0
 14 40  1  0
 16 41  1  0
 23 42  1  0
 24 43  1  0
 25 44  1  0
 26 45  1  0
M  ISO  8  27   8  28   8  29  13  30  13  31  13  32  13  33  13  34  13
M  ISO  8  35  13  36  14  37  14  40  14  41  14  42  14  43  14  44  14
M  ISO  1  45  14
M  END
>  <minimizedAffinity>  (1) 
-6.64309549

>  <minimizedRMSD>  (1) 
0.193978742

$$$$
