
     RDKit          3D

 42 45  0  0  1  0  0  0  0  0999 V2000
   48.1120   34.5780   42.0880 C   0  0  2  0  0  0  0  0  0  0  0  0
   46.7600   33.8490   42.3110 C   0  0  1  0  0  0  0  0  0  0  0  0
   47.2290   32.6080   42.6210 O   0  0  0  0  0  0  0  0  0  0  0  0
   48.1310   32.3150   41.5780 C   0  0  0  0  0  0  0  0  0  0  0  0
   48.5970   33.6630   40.9850 C   0  0  1  0  0  0  0  0  0  0  0  0
   44.5250   36.0570   44.4530 C   0  0  0  0  0  0  0  0  0  0  0  0
   45.2140   35.6480   43.3130 C   0  0  0  0  0  0  0  0  0  0  0  0
   45.9730   34.5030   43.3630 C   0  0  0  0  0  0  0  0  0  0  0  0
   46.0010   33.8250   44.5560 N   0  0  0  0  0  0  0  0  0  0  0  0
   45.3300   34.2350   45.6440 C   0  0  0  0  0  0  0  0  0  0  0  0
   44.5890   35.3560   45.5900 N   0  0  0  0  0  0  0  0  0  0  0  0
   48.9500   34.3810   43.1530 O   0  0  0  0  0  0  0  0  0  0  0  0
   47.8880   33.8700   39.8380 O   0  0  0  0  0  0  0  0  0  0  0  0
   49.1640   32.7930   38.1730 C   0  0  1  0  0  0  0  0  0  0  0  0
   48.6470   34.2200   38.7200 C   0  0  1  0  0  0  0  0  0  0  0  0
   47.8240   34.5230   37.6990 O   0  0  0  0  0  0  0  0  0  0  0  0
   46.9430   33.4100   37.7520 C   0  0  0  0  0  0  0  0  0  0  0  0
   47.9040   32.2630   37.5590 C   0  0  1  0  0  0  0  0  0  0  0  0
   50.0340   33.1200   37.1260 O   0  0  0  0  0  0  0  0  0  0  0  0
   48.0440   32.0070   36.2120 O   0  0  0  0  0  0  0  0  0  0  0  0
   46.9030   31.5220   35.5370 C   0  0  0  0  0  0  0  0  0  0  0  0
   46.6720   30.1980   35.8560 C   0  0  0  0  0  0  0  0  0  0  0  0
   45.1570   29.7940   34.8730 S   0  0  0  0  0  0  0  0  0  0  0  0
   45.1230   31.5720   34.1880 C   0  0  0  0  0  0  0  0  0  0  0  0
   46.0220   32.0210   34.6930 N   0  0  0  0  0  0  0  0  0  0  0  0
   48.0573   35.6632   41.9167 H   0  0  0  0  0  0  0  0  0  0  0  0
   46.0485   33.8444   41.4721 H   0  0  0  0  0  0  0  0  0  0  0  0
   48.9940   31.7579   41.9715 H   0  0  0  0  0  0  0  0  0  0  0  0
   47.6491   31.6952   40.8075 H   0  0  0  0  0  0  0  0  0  0  0  0
   49.6618   33.7713   40.7312 H   0  0  0  0  0  0  0  0  0  0  0  0
   43.9173   36.9732   44.4170 H   0  0  0  0  0  0  0  0  0  0  0  0
   45.1513   36.2342   42.3843 H   0  0  0  0  0  0  0  0  0  0  0  0
   45.3861   33.6555   46.5773 H   0  0  0  0  0  0  0  0  0  0  0  0
   48.4453   34.4996   43.9964 H   0  0  0  0  0  0  0  0  0  0  0  0
   49.6417   32.1167   38.8972 H   0  0  0  0  0  0  0  0  0  0  0  0
   49.3700   35.0082   38.9770 H   0  0  0  0  0  0  0  0  0  0  0  0
   46.4312   33.3474   38.7237 H   0  0  0  0  0  0  0  0  0  0  0  0
   46.1285   33.4445   37.0134 H   0  0  0  0  0  0  0  0  0  0  0  0
   47.5904   31.3101   38.0104 H   0  0  0  0  0  0  0  0  0  0  0  0
   50.8925   33.4427   37.4989 H   0  0  0  0  0  0  0  0  0  0  0  0
   47.2470   29.5447   36.5287 H   0  0  0  0  0  0  0  0  0  0  0  0
   44.4137   32.0352   33.4863 H   0  0  0  0  0  0  0  0  0  0  0  0
  1  2  1  0
  1 12  1  0
  2  3  1  0
  2  8  1  0
  4  3  1  0
  5  4  1  0
  5  1  1  0
  6 11  2  0
  7  8  2  0
  7  6  1  0
  8  9  1  0
  9 10  2  0
 11 10  1  0
 13  5  1  0
 14 15  1  0
 15 13  1  0
 16 17  1  0
 16 15  1  0
 18 17  1  0
 18 14  1  0
 19 14  1  0
 20 18  1  0
 21 22  2  0
 21 20  1  0
 23 22  1  0
 24 25  2  0
 24 23  1  0
 25 21  1  0
  1 26  1  6
  2 27  1  6
  4 28  1  0
  4 29  1  0
  5 30  1  6
  6 31  1  0
  7 32  1  0
 10 33  1  0
 12 34  1  0
 14 35  1  1
 15 36  1  1
 17 37  1  0
 17 38  1  0
 18 39  1  1
 19 40  1  0
 22 41  1  0
 24 42  1  0
M  ISO  8  26  13  27  13  28  13  29  13  30  13  31  14  32  14  33  14
M  ISO  8  34   3  35  13  36  13  37  13  38  13  39  13  40   3  41  14
M  ISO  1  42  14
M  END
>  <minimizedAffinity>  (1) 
-5.30734301

>  <minimizedRMSD>  (1) 
1.29243624

$$$$
