
     RDKit          3D

 23 24  0  0  0  0  0  0  0  0999 V2000
   44.6600   35.4450   45.1130 C   0  0  0  0  0  0  0  0  0  0  0  0
   45.5090   35.0000   44.1020 C   0  0  0  0  0  0  0  0  0  0  0  0
   46.2480   33.8450   44.3360 C   0  0  0  0  0  0  0  0  0  0  0  0
   46.1140   33.2120   45.5160 N   0  0  0  0  0  0  0  0  0  0  0  0
   45.2930   33.6590   46.4710 C   0  0  0  0  0  0  0  0  0  0  0  0
   44.5530   34.7750   46.2950 N   0  0  0  0  0  0  0  0  0  0  0  0
   45.5460   35.8160   42.8370 C   0  0  0  0  0  0  0  0  0  0  0  0
   45.2000   37.0860   43.1950 F   0  0  0  0  0  0  0  0  0  0  0  0
   44.5720   35.2720   42.0030 F   0  0  0  0  0  0  0  0  0  0  0  0
   46.8000   35.7030   42.3000 F   0  0  0  0  0  0  0  0  0  0  0  0
   45.1360   33.0310   47.6890 O   0  0  0  0  0  0  0  0  0  0  0  0
   46.1800   32.3580   48.3450 C   0  0  0  0  0  0  0  0  0  0  0  0
   46.2350   30.8940   47.9880 C   0  0  0  0  0  0  0  0  0  0  0  0
   47.3980   30.2740   47.4690 C   0  0  0  0  0  0  0  0  0  0  0  0
   46.8810   28.5520   47.2370 S   0  0  0  0  0  0  0  0  0  0  0  0
   45.1410   28.9510   47.8910 C   0  0  0  0  0  0  0  0  0  0  0  0
   45.2270   30.0470   48.1180 N   0  0  0  0  0  0  0  0  0  0  0  0
   44.0639   36.3557   44.9540 H   0  0  0  0  0  0  0  0  0  0  0  0
   46.9319   33.4548   43.5678 H   0  0  0  0  0  0  0  0  0  0  0  0
   47.1344   32.8264   48.0627 H   0  0  0  0  0  0  0  0  0  0  0  0
   45.9986   32.4324   49.4274 H   0  0  0  0  0  0  0  0  0  0  0  0
   48.3776   30.7276   47.2579 H   0  0  0  0  0  0  0  0  0  0  0  0
   44.2761   28.2826   48.0146 H   0  0  0  0  0  0  0  0  0  0  0  0
  1  6  2  0
  2  3  2  0
  2  1  1  0
  3  4  1  0
  4  5  2  0
  5 11  1  0
  6  5  1  0
  7  8  1  0
  7  2  1  0
  9  7  1  0
 10  7  1  0
 11 12  1  0
 13 17  1  0
 13 12  1  0
 14 13  2  0
 15 14  1  0
 15 16  1  0
 16 17  2  0
  1 18  1  0
  3 19  1  0
 12 20  1  0
 12 21  1  0
 14 22  1  0
 16 23  1  0
M  ISO  6  18  14  19  14  20   8  21   8  22  14  23  14
M  END
>  <minimizedAffinity>  (1) 
-4.65414858

>  <minimizedRMSD>  (1) 
0.789504349

$$$$
