
     RDKit          3D

 40 43  0  0  0  0  0  0  0  0999 V2000
   39.6030   33.9560   41.2840 C   0  0  0  0  0  0  0  0  0  0  0  0
   39.1030   33.6000   39.9290 C   0  0  0  0  0  0  0  0  0  0  0  0
   39.1870   34.5460   38.8990 C   0  0  0  0  0  0  0  0  0  0  0  0
   38.8150   34.2750   37.6120 C   0  0  0  0  0  0  0  0  0  0  0  0
   38.3320   33.0200   37.2930 C   0  0  0  0  0  0  0  0  0  0  0  0
   38.2470   32.0760   38.3160 C   0  0  0  0  0  0  0  0  0  0  0  0
   38.6270   32.3630   39.6300 C   0  0  0  0  0  0  0  0  0  0  0  0
   38.4320   31.2110   40.4770 C   0  0  0  0  0  0  0  0  0  0  0  0
   39.5550   30.4600   40.7150 C   0  0  0  0  0  0  0  0  0  0  0  0
   39.0140   29.1280   41.9560 S   0  0  0  0  0  0  0  0  0  0  0  0
   37.2770   29.8950   41.9060 C   0  0  0  0  0  0  0  0  0  0  0  0
   37.4630   30.7190   41.1850 N   0  0  0  0  0  0  0  0  0  0  0  0
   41.8880   34.8950   41.3930 C   0  0  0  0  0  0  0  0  0  0  0  0
   41.0980   33.8410   41.3800 C   0  0  0  0  0  0  0  0  0  0  0  0
   43.9740   35.4010   42.6400 C   0  0  0  0  0  0  0  0  0  0  0  0
   43.3260   34.8260   41.5170 C   0  0  0  0  0  0  0  0  0  0  0  0
   44.1150   34.2090   40.5750 C   0  0  0  0  0  0  0  0  0  0  0  0
   45.4770   34.1730   40.7540 N   0  0  0  0  0  0  0  0  0  0  0  0
   46.0530   34.7280   41.8290 C   0  0  0  0  0  0  0  0  0  0  0  0
   45.3140   35.3460   42.7810 N   0  0  0  0  0  0  0  0  0  0  0  0
   47.4860   34.6960   42.0440 C   0  0  0  0  0  0  0  0  0  0  0  0
   48.4280   35.6170   41.8420 C   0  0  0  0  0  0  0  0  0  0  0  0
   49.7390   35.3550   42.1220 C   0  0  0  0  0  0  0  0  0  0  0  0
   50.0010   34.0480   42.6340 C   0  0  0  0  0  0  0  0  0  0  0  0
   48.3220   33.2610   42.6820 S   0  0  0  0  0  0  0  0  0  0  0  0
   39.1466   33.2783   42.0204 H   0  0  0  0  0  0  0  0  0  0  0  0
   39.3291   35.0025   41.4833 H   0  0  0  0  0  0  0  0  0  0  0  0
   39.5687   35.5500   39.1363 H   0  0  0  0  0  0  0  0  0  0  0  0
   38.8994   35.0500   36.8359 H   0  0  0  0  0  0  0  0  0  0  0  0
   38.0247   32.7738   36.2659 H   0  0  0  0  0  0  0  0  0  0  0  0
   37.8677   31.0707   38.0806 H   0  0  0  0  0  0  0  0  0  0  0  0
   40.5556   30.5995   40.2798 H   0  0  0  0  0  0  0  0  0  0  0  0
   36.3568   29.6074   42.4357 H   0  0  0  0  0  0  0  0  0  0  0  0
   41.4246   35.8886   41.3040 H   0  0  0  0  0  0  0  0  0  0  0  0
   41.5494   32.8398   41.4417 H   0  0  0  0  0  0  0  0  0  0  0  0
   43.3712   35.9021   43.4117 H   0  0  0  0  0  0  0  0  0  0  0  0
   43.6599   33.7482   39.6858 H   0  0  0  0  0  0  0  0  0  0  0  0
   48.1455   36.6027   41.4439 H   0  0  0  0  0  0  0  0  0  0  0  0
   50.5354   36.0972   41.9645 H   0  0  0  0  0  0  0  0  0  0  0  0
   50.9669   33.6123   42.9292 H   0  0  0  0  0  0  0  0  0  0  0  0
  1 14  1  0
  2  1  1  0
  3  2  2  0
  4  3  1  0
  5  4  2  0
  5  6  1  0
  6  7  2  0
  7  2  1  0
  7  8  1  0
  8  9  2  0
  8 12  1  0
  9 10  1  0
 11 10  1  0
 12 11  2  0
 13 16  1  0
 14 13  2  0
 15 20  2  0
 16 15  1  0
 17 18  1  0
 17 16  2  0
 18 19  2  0
 19 21  1  0
 19 20  1  0
 21 25  1  0
 22 21  2  0
 22 23  1  0
 23 24  2  0
 24 25  1  0
  1 26  1  0
  1 27  1  0
  3 28  1  0
  4 29  1  0
  5 30  1  0
  6 31  1  0
  9 32  1  0
 11 33  1  0
 13 34  1  0
 14 35  1  0
 15 36  1  0
 17 37  1  0
 22 38  1  0
 23 39  1  0
 24 40  1  0
M  ISO  8  26   8  27   8  28  14  29  14  30  14  31  14  32  14  33  14
M  ISO  5  36  14  37  14  38  14  39  14  40  14
M  END
>  <minimizedAffinity>  (1) 
-6.76838541

>  <minimizedRMSD>  (1) 
4.72871065

$$$$
