
     RDKit          3D

 43 47  0  0  0  0  0  0  0  0999 V2000
   46.2150   30.2790   48.4510 C   0  0  0  0  0  0  0  0  0  0  0  0
   45.6650   27.8470   47.8370 C   0  0  0  0  0  0  0  0  0  0  0  0
   45.4970   29.2130   47.7740 C   0  0  0  0  0  0  0  0  0  0  0  0
   44.4840   29.6510   46.9250 C   0  0  0  0  0  0  0  0  0  0  0  0
   43.6950   28.7920   46.1930 C   0  0  0  0  0  0  0  0  0  0  0  0
   42.6850   28.9220   45.3300 N   0  0  0  0  0  0  0  0  0  0  0  0
   42.2490   27.7390   44.8820 C   0  0  0  0  0  0  0  0  0  0  0  0
   43.0010   26.7550   45.4720 C   0  0  0  0  0  0  0  0  0  0  0  0
   43.8890   27.4420   46.2800 C   0  0  0  0  0  0  0  0  0  0  0  0
   44.8900   26.9810   47.1160 C   0  0  0  0  0  0  0  0  0  0  0  0
   45.1310   25.5220   47.2360 C   0  0  0  0  0  0  0  0  0  0  0  0
   46.0130   25.0130   48.2540 C   0  0  0  0  0  0  0  0  0  0  0  0
   45.9420   23.1840   47.9480 S   0  0  0  0  0  0  0  0  0  0  0  0
   44.7360   23.4360   46.5040 C   0  0  0  0  0  0  0  0  0  0  0  0
   44.5800   24.5960   46.4510 N   0  0  0  0  0  0  0  0  0  0  0  0
   47.5030   30.7100   47.8580 C   0  0  0  0  0  0  0  0  0  0  0  0
   46.6140   32.8810   45.1590 C   0  0  0  0  0  0  0  0  0  0  0  0
   47.2510   31.8130   44.4770 C   0  0  0  0  0  0  0  0  0  0  0  0
   47.6560   30.8860   45.3890 C   0  0  0  0  0  0  0  0  0  0  0  0
   47.2800   31.3660   46.5810 N   0  0  0  0  0  0  0  0  0  0  0  0
   46.6630   32.5470   46.4460 N   0  0  0  0  0  0  0  0  0  0  0  0
   44.5460   35.8210   44.5420 C   0  0  0  0  0  0  0  0  0  0  0  0
   44.9670   36.2530   43.2880 C   0  0  0  0  0  0  0  0  0  0  0  0
   45.9670   35.5260   42.6580 C   0  0  0  0  0  0  0  0  0  0  0  0
   46.4740   34.4400   43.2970 N   0  0  0  0  0  0  0  0  0  0  0  0
   46.0610   34.0380   44.4970 C   0  0  0  0  0  0  0  0  0  0  0  0
   45.0880   34.7390   45.1170 N   0  0  0  0  0  0  0  0  0  0  0  0
   45.5535   31.1574   48.4799 H   0  0  0  0  0  0  0  0  0  0  0  0
   46.4802   29.8629   49.4341 H   0  0  0  0  0  0  0  0  0  0  0  0
   46.4501   27.4385   48.4902 H   0  0  0  0  0  0  0  0  0  0  0  0
   44.3058   30.7327   46.8349 H   0  0  0  0  0  0  0  0  0  0  0  0
   42.2875   29.8276   45.0424 H   0  0  0  0  0  0  0  0  0  0  0  0
   41.4296   27.5826   44.1649 H   0  0  0  0  0  0  0  0  0  0  0  0
   42.9169   25.6669   45.3339 H   0  0  0  0  0  0  0  0  0  0  0  0
   46.5819   25.5656   49.0162 H   0  0  0  0  0  0  0  0  0  0  0  0
   44.2848   22.6658   45.8612 H   0  0  0  0  0  0  0  0  0  0  0  0
   48.0006   31.4117   48.5436 H   0  0  0  0  0  0  0  0  0  0  0  0
   48.1354   29.8243   47.6978 H   0  0  0  0  0  0  0  0  0  0  0  0
   47.3946   31.7445   43.3886 H   0  0  0  0  0  0  0  0  0  0  0  0
   48.1819   29.9409   45.1883 H   0  0  0  0  0  0  0  0  0  0  0  0
   43.7562   36.3763   45.0692 H   0  0  0  0  0  0  0  0  0  0  0  0
   44.5226   37.1399   42.8127 H   0  0  0  0  0  0  0  0  0  0  0  0
   46.3397   35.8217   41.6662 H   0  0  0  0  0  0  0  0  0  0  0  0
  3  2  2  0
  3  1  1  0
  4  3  1  0
  5  9  1  0
  5  4  2  0
  6  5  1  0
  7  6  1  0
  7  8  2  0
  8  9  1  0
  9 10  2  0
 10 11  1  0
 10  2  1  0
 11 12  2  0
 13 12  1  0
 14 13  1  0
 15 14  2  0
 15 11  1  0
 16  1  1  0
 17 21  2  0
 18 17  1  0
 18 19  2  0
 19 20  1  0
 20 16  1  0
 21 20  1  0
 22 27  2  0
 23 22  1  0
 24 23  2  0
 24 25  1  0
 25 26  2  0
 26 27  1  0
 26 17  1  0
  1 28  1  0
  1 29  1  0
  2 30  1  0
  4 31  1  0
  6 32  1  0
  7 33  1  0
  8 34  1  0
 12 35  1  0
 14 36  1  0
 16 37  1  0
 16 38  1  0
 18 39  1  0
 19 40  1  0
 22 41  1  0
 23 42  1  0
 24 43  1  0
M  ISO  8  28   8  29   8  30  14  31  14  32   9  33  14  34  14  35  14
M  ISO  8  36  14  37   8  38   8  39  14  40  14  41  14  42  14  43  14
M  END
>  <minimizedAffinity>  (1) 
-5.25098181

>  <minimizedRMSD>  (1) 
0.653645992

$$$$
