
     RDKit          3D

 42 46  0  0  1  0  0  0  0  0999 V2000
   47.1880   34.3320   42.7800 N   0  0  0  0  0  0  0  0  0  0  0  0
   48.5490   33.8150   42.7250 C   0  0  0  0  0  0  0  0  0  0  0  0
   49.1280   34.8740   41.8090 C   0  0  0  0  0  0  0  0  0  0  0  0
   48.1370   34.8240   40.6750 C   0  0  0  0  0  0  0  0  0  0  0  0
   46.8110   34.6890   41.3870 C   0  0  1  0  0  0  0  0  0  0  0  0
   45.9990   33.5870   40.9130 C   0  0  0  0  0  0  0  0  0  0  0  0
   46.5320   32.3530   40.7290 N   0  0  0  0  0  0  0  0  0  0  0  0
   45.8530   31.2820   40.2810 C   0  0  0  0  0  0  0  0  0  0  0  0
   44.5570   31.4340   39.9970 N   0  0  0  0  0  0  0  0  0  0  0  0
   43.9800   32.6240   40.1590 C   0  0  0  0  0  0  0  0  0  0  0  0
   42.6300   32.7100   39.8480 C   0  0  0  0  0  0  0  0  0  0  0  0
   42.0260   33.9490   40.0210 C   0  0  0  0  0  0  0  0  0  0  0  0
   42.6780   35.0910   40.4770 C   0  0  0  0  0  0  0  0  0  0  0  0
   44.0190   34.9070   40.7600 C   0  0  0  0  0  0  0  0  0  0  0  0
   44.6610   33.7330   40.6150 C   0  0  0  0  0  0  0  0  0  0  0  0
   44.4990   35.5700   45.0450 C   0  0  0  0  0  0  0  0  0  0  0  0
   45.3130   35.4920   43.9250 C   0  0  0  0  0  0  0  0  0  0  0  0
   46.2970   34.5180   43.8590 C   0  0  0  0  0  0  0  0  0  0  0  0
   46.4200   33.6720   44.9180 N   0  0  0  0  0  0  0  0  0  0  0  0
   45.6200   33.7500   46.0180 C   0  0  0  0  0  0  0  0  0  0  0  0
   44.6540   34.7190   46.0620 N   0  0  0  0  0  0  0  0  0  0  0  0
   45.8420   32.7770   47.1140 C   0  0  0  0  0  0  0  0  0  0  0  0
   47.2150   32.3030   47.3540 C   0  0  0  0  0  0  0  0  0  0  0  0
   47.0360   31.1870   48.7130 S   0  0  0  0  0  0  0  0  0  0  0  0
   45.1420   31.4860   48.8010 C   0  0  0  0  0  0  0  0  0  0  0  0
   44.9970   32.2240   47.9640 N   0  0  0  0  0  0  0  0  0  0  0  0
   49.0333   33.8057   43.7126 H   0  0  0  0  0  0  0  0  0  0  0  0
   48.6605   32.7717   42.3946 H   0  0  0  0  0  0  0  0  0  0  0  0
   49.1452   35.8628   42.2906 H   0  0  0  0  0  0  0  0  0  0  0  0
   50.1737   34.7037   41.5131 H   0  0  0  0  0  0  0  0  0  0  0  0
   48.3256   33.9582   40.0232 H   0  0  0  0  0  0  0  0  0  0  0  0
   48.1875   35.7037   40.0165 H   0  0  0  0  0  0  0  0  0  0  0  0
   46.2322   35.6138   41.2464 H   0  0  0  0  0  0  0  0  0  0  0  0
   46.3505   30.3094   40.1523 H   0  0  0  0  0  0  0  0  0  0  0  0
   42.0658   31.8394   39.4823 H   0  0  0  0  0  0  0  0  0  0  0  0
   40.9560   34.0336   39.7804 H   0  0  0  0  0  0  0  0  0  0  0  0
   42.1694   36.0584   40.6018 H   0  0  0  0  0  0  0  0  0  0  0  0
   44.5946   35.7705   41.1249 H   0  0  0  0  0  0  0  0  0  0  0  0
   43.7168   36.3417   45.0961 H   0  0  0  0  0  0  0  0  0  0  0  0
   45.1785   36.1993   43.0934 H   0  0  0  0  0  0  0  0  0  0  0  0
   48.1339   32.5780   46.8155 H   0  0  0  0  0  0  0  0  0  0  0  0
   44.3982   31.0524   49.4857 H   0  0  0  0  0  0  0  0  0  0  0  0
  1 18  1  0
  2  1  1  0
  3  2  1  0
  4  5  1  0
  4  3  1  0
  5  1  1  0
  6  5  1  0
  7  6  2  0
  8  7  1  0
  9 10  1  0
  9  8  2  0
 10 15  2  0
 11 12  2  0
 11 10  1  0
 12 13  1  0
 13 14  2  0
 15 14  1  0
 15  6  1  0
 16 21  2  0
 17 16  1  0
 18 17  2  0
 18 19  1  0
 19 20  2  0
 20 21  1  0
 20 22  1  0
 22 23  2  0
 22 26  1  0
 23 24  1  0
 24 25  1  0
 26 25  2  0
  2 27  1  0
  2 28  1  0
  3 29  1  0
  3 30  1  0
  4 31  1  0
  4 32  1  0
  5 33  1  1
  8 34  1  0
 11 35  1  0
 12 36  1  0
 13 37  1  0
 14 38  1  0
 16 39  1  0
 17 40  1  0
 23 41  1  0
 25 42  1  0
M  ISO  8  27  13  28  13  29  13  30  13  31  13  32  13  33  13  34  14
M  ISO  8  35  14  36  14  37  14  38  14  39  14  40  14  41  14  42  14
M  END
>  <minimizedAffinity>  (1) 
-6.72041178

>  <minimizedRMSD>  (1) 
0.485847145

$$$$
