
     RDKit          3D

 29 31  0  0  0  0  0  0  0  0999 V2000
   45.6370   34.6300   42.0630 C   0  0  0  0  0  0  0  0  0  0  0  0
   44.2130   34.5520   41.6600 C   0  0  0  0  0  0  0  0  0  0  0  0
   43.4970   35.7210   41.2560 C   0  0  0  0  0  0  0  0  0  0  0  0
   41.8120   35.0290   40.8780 S   0  0  0  0  0  0  0  0  0  0  0  0
   42.3870   33.2920   41.3340 C   0  0  0  0  0  0  0  0  0  0  0  0
   43.4810   33.4680   41.6250 N   0  0  0  0  0  0  0  0  0  0  0  0
   41.4890   32.1090   41.2670 C   0  0  0  0  0  0  0  0  0  0  0  0
   41.5800   31.1200   42.2270 C   0  0  0  0  0  0  0  0  0  0  0  0
   40.2930   29.9320   41.6970 S   0  0  0  0  0  0  0  0  0  0  0  0
   39.8410   31.0220   40.2120 C   0  0  0  0  0  0  0  0  0  0  0  0
   40.5750   31.9060   40.3380 N   0  0  0  0  0  0  0  0  0  0  0  0
   46.6180   34.2670   40.9980 C   0  0  0  0  0  0  0  0  0  0  0  0
   48.0120   34.1360   41.4790 C   0  0  0  0  0  0  0  0  0  0  0  0
   48.6810   32.9510   41.1720 C   0  0  0  0  0  0  0  0  0  0  0  0
   49.9840   32.7590   41.5890 C   0  0  0  0  0  0  0  0  0  0  0  0
   50.5750   33.7720   42.3030 N   0  0  0  0  0  0  0  0  0  0  0  0
   49.9000   34.9050   42.5820 C   0  0  0  0  0  0  0  0  0  0  0  0
   48.6420   35.0760   42.1740 N   0  0  0  0  0  0  0  0  0  0  0  0
   47.8560   31.6560   40.2310 S   0  0  0  0  0  0  0  0  0  0  0  0
   45.8452   35.6625   42.3803 H   0  0  0  0  0  0  0  0  0  0  0  0
   45.7689   33.8896   42.8658 H   0  0  0  0  0  0  0  0  0  0  0  0
   43.8505   36.7603   41.1866 H   0  0  0  0  0  0  0  0  0  0  0  0
   42.2562   31.0613   43.0926 H   0  0  0  0  0  0  0  0  0  0  0  0
   39.0802   30.8564   39.4350 H   0  0  0  0  0  0  0  0  0  0  0  0
   46.5918   35.0478   40.2236 H   0  0  0  0  0  0  0  0  0  0  0  0
   46.3203   33.2793   40.6160 H   0  0  0  0  0  0  0  0  0  0  0  0
   50.5269   31.8306   41.3580 H   0  0  0  0  0  0  0  0  0  0  0  0
   50.3953   35.7020   43.1560 H   0  0  0  0  0  0  0  0  0  0  0  0
   47.2842   30.7584   41.0937 H   0  0  0  0  0  0  0  0  0  0  0  0
  2  1  1  0
  3  2  2  0
  4  3  1  0
  4  5  1  0
  5  6  2  0
  6  2  1  0
  7  5  1  0
  7  8  2  0
  9  8  1  0
 10 11  2  0
 10  9  1  0
 11  7  1  0
 12 13  1  0
 12  1  1  0
 13 18  1  0
 14 13  2  0
 14 15  1  0
 15 16  2  0
 16 17  1  0
 18 17  2  0
 19 14  1  0
  1 20  1  0
  1 21  1  0
  3 22  1  0
  8 23  1  0
 10 24  1  0
 12 25  1  0
 12 26  1  0
 15 27  1  0
 17 28  1  0
 19 29  1  0
M  ISO  8  20   8  21   8  22  14  23  14  24  14  25   8  26   8  27  14
M  ISO  2  28  14  29  11
M  END
>  <minimizedAffinity>  (1) 
-4.14459133

>  <minimizedRMSD>  (1) 
2.47540736

$$$$
