
     RDKit          3D

 45 48  0  0  0  0  0  0  0  0999 V2000
   46.3570   32.1950   47.8400 C   0  0  0  0  0  0  0  0  0  0  0  0
   45.8860   31.7570   49.0490 C   0  0  0  0  0  0  0  0  0  0  0  0
   46.8950   31.0860   49.6190 N   0  0  0  0  0  0  0  0  0  0  0  0
   47.9750   31.0830   48.8280 C   0  0  0  0  0  0  0  0  0  0  0  0
   47.6190   31.7850   47.7120 N   0  0  0  0  0  0  0  0  0  0  0  0
   49.2590   30.5120   48.9960 N   0  0  0  0  0  0  0  0  0  0  0  0
   50.2840   31.3110   49.6900 C   0  0  0  0  0  0  0  0  0  0  0  0
   50.3840   30.6900   51.0800 C   0  0  0  0  0  0  0  0  0  0  0  0
   50.5070   29.1910   50.9740 C   0  0  0  0  0  0  0  0  0  0  0  0
   50.8850   28.8000   49.5610 C   0  0  0  0  0  0  0  0  0  0  0  0
   49.8090   29.2370   48.6080 C   0  0  0  0  0  0  0  0  0  0  0  0
   45.6010   32.9970   46.8270 C   0  0  0  0  0  0  0  0  0  0  0  0
   45.9660   33.9200   44.5810 C   0  0  0  0  0  0  0  0  0  0  0  0
   46.3890   33.1870   45.6020 C   0  0  0  0  0  0  0  0  0  0  0  0
   46.8550   34.0260   43.4150 C   0  0  0  0  0  0  0  0  0  0  0  0
   46.7470   35.0520   42.4490 C   0  0  0  0  0  0  0  0  0  0  0  0
   47.6260   35.0690   41.3940 C   0  0  0  0  0  0  0  0  0  0  0  0
   48.5680   34.1100   41.3070 N   0  0  0  0  0  0  0  0  0  0  0  0
   48.6590   33.1360   42.2370 C   0  0  0  0  0  0  0  0  0  0  0  0
   47.8300   33.0880   43.2650 N   0  0  0  0  0  0  0  0  0  0  0  0
   49.6640   32.0490   42.2100 C   0  0  0  0  0  0  0  0  0  0  0  0
   49.7480   30.7380   42.9490 C   0  0  0  0  0  0  0  0  0  0  0  0
   51.3780   30.1270   42.2030 S   0  0  0  0  0  0  0  0  0  0  0  0
   51.5820   31.6700   41.1250 C   0  0  0  0  0  0  0  0  0  0  0  0
   50.5860   32.4460   41.3350 N   0  0  0  0  0  0  0  0  0  0  0  0
   44.8822   31.9228   49.4672 H   0  0  0  0  0  0  0  0  0  0  0  0
   46.8466   30.6327   50.5426 H   0  0  0  0  0  0  0  0  0  0  0  0
   51.2485   31.2447   49.1653 H   0  0  0  0  0  0  0  0  0  0  0  0
   50.0231   32.3789   49.7292 H   0  0  0  0  0  0  0  0  0  0  0  0
   51.2695   31.0916   51.5943 H   0  0  0  0  0  0  0  0  0  0  0  0
   49.4751   30.9358   51.6487 H   0  0  0  0  0  0  0  0  0  0  0  0
   51.2836   28.8394   51.6692 H   0  0  0  0  0  0  0  0  0  0  0  0
   49.5410   28.7310   51.2293 H   0  0  0  0  0  0  0  0  0  0  0  0
   51.8336   29.2859   49.2888 H   0  0  0  0  0  0  0  0  0  0  0  0
   50.9992   27.7074   49.5043 H   0  0  0  0  0  0  0  0  0  0  0  0
   49.0058   28.4855   48.6038 H   0  0  0  0  0  0  0  0  0  0  0  0
   50.2498   29.3371   47.6052 H   0  0  0  0  0  0  0  0  0  0  0  0
   44.6689   32.4698   46.5755 H   0  0  0  0  0  0  0  0  0  0  0  0
   45.3843   33.9857   47.2578 H   0  0  0  0  0  0  0  0  0  0  0  0
   44.9904   34.4276   44.6056 H   0  0  0  0  0  0  0  0  0  0  0  0
   47.3726   32.7002   45.5283 H   0  0  0  0  0  0  0  0  0  0  0  0
   45.9703   35.8255   42.5408 H   0  0  0  0  0  0  0  0  0  0  0  0
   47.5616   35.8566   40.6288 H   0  0  0  0  0  0  0  0  0  0  0  0
   49.0746   30.2803   43.6887 H   0  0  0  0  0  0  0  0  0  0  0  0
   52.4157   31.8664   40.4348 H   0  0  0  0  0  0  0  0  0  0  0  0
  1  2  2  0
  2  3  1  0
  4  6  1  0
  4  3  1  0
  5  1  1  0
  5  4  2  0
  6  7  1  0
  7  8  1  0
  9  8  1  0
 10  9  1  0
 11  6  1  0
 11 10  1  0
 12  1  1  0
 13 14  2  0
 14 12  1  0
 15 13  1  0
 16 15  2  0
 17 16  1  0
 18 17  2  0
 18 19  1  0
 19 20  2  0
 20 15  1  0
 21 19  1  0
 21 22  2  0
 23 22  1  0
 24 25  2  0
 24 23  1  0
 25 21  1  0
  2 26  1  0
  3 27  1  0
  7 28  1  0
  7 29  1  0
  8 30  1  0
  8 31  1  0
  9 32  1  0
  9 33  1  0
 10 34  1  0
 10 35  1  0
 11 36  1  0
 11 37  1  0
 12 38  1  0
 12 39  1  0
 13 40  1  0
 14 41  1  0
 16 42  1  0
 17 43  1  0
 22 44  1  0
 24 45  1  0
M  ISO  8  26  14  27   9  28  13  29  13  30  13  31  13  32  13  33  13
M  ISO  8  34  13  35  13  36  13  37  13  38   8  39   8  42  14  43  14
M  ISO  2  44  14  45  14
M  END
>  <minimizedAffinity>  (1) 
-5.89536572

>  <minimizedRMSD>  (1) 
0.508333802

$$$$
