
     RDKit          3D

 36 39  0  0  0  0  0  0  0  0999 V2000
   48.8060   35.4120   40.9890 C   0  0  0  0  0  0  0  0  0  0  0  0
   48.2500   34.8550   39.8270 C   0  0  0  0  0  0  0  0  0  0  0  0
   47.2060   33.9460   39.9570 C   0  0  0  0  0  0  0  0  0  0  0  0
   46.7810   33.6580   41.1980 N   0  0  0  0  0  0  0  0  0  0  0  0
   47.3090   34.1950   42.3100 C   0  0  0  0  0  0  0  0  0  0  0  0
   48.3270   35.0730   42.2090 N   0  0  0  0  0  0  0  0  0  0  0  0
   45.0530   36.0020   43.3030 Cl  0  0  0  0  0  0  0  0  0  0  0  0
   45.7460   34.6550   44.1760 C   0  0  0  0  0  0  0  0  0  0  0  0
   46.7750   33.8980   43.6220 C   0  0  0  0  0  0  0  0  0  0  0  0
   47.2330   32.8780   44.3880 C   0  0  0  0  0  0  0  0  0  0  0  0
   46.7420   32.5670   45.6470 C   0  0  0  0  0  0  0  0  0  0  0  0
   45.7280   33.3280   46.1680 C   0  0  0  0  0  0  0  0  0  0  0  0
   45.1990   32.8410   47.7650 Cl  0  0  0  0  0  0  0  0  0  0  0  0
   45.2330   34.3650   45.4380 C   0  0  0  0  0  0  0  0  0  0  0  0
   49.1360   32.9080   37.9190 Cl  0  0  0  0  0  0  0  0  0  0  0  0
   47.3880   32.8900   37.7630 C   0  0  0  0  0  0  0  0  0  0  0  0
   46.6320   33.3140   38.7980 C   0  0  0  0  0  0  0  0  0  0  0  0
   45.2730   33.1140   38.6210 C   0  0  0  0  0  0  0  0  0  0  0  0
   44.6840   32.5470   37.5120 C   0  0  0  0  0  0  0  0  0  0  0  0
   45.4970   32.1370   36.4810 C   0  0  0  0  0  0  0  0  0  0  0  0
   46.8680   32.3160   36.6170 C   0  0  0  0  0  0  0  0  0  0  0  0
   47.7830   31.8890   35.5290 C   0  0  0  0  0  0  0  0  0  0  0  0
   48.1500   30.5520   35.4050 C   0  0  0  0  0  0  0  0  0  0  0  0
   49.2720   30.5240   33.9370 S   0  0  0  0  0  0  0  0  0  0  0  0
   49.0360   32.3980   33.7480 C   0  0  0  0  0  0  0  0  0  0  0  0
   48.3420   32.6320   34.5970 N   0  0  0  0  0  0  0  0  0  0  0  0
   49.6365   36.1288   40.9079 H   0  0  0  0  0  0  0  0  0  0  0  0
   48.6324   35.1320   38.8335 H   0  0  0  0  0  0  0  0  0  0  0  0
   48.0466   32.2569   43.9851 H   0  0  0  0  0  0  0  0  0  0  0  0
   47.1590   31.7242   46.2177 H   0  0  0  0  0  0  0  0  0  0  0  0
   44.4192   34.9804   45.8492 H   0  0  0  0  0  0  0  0  0  0  0  0
   44.6070   33.4353   39.4354 H   0  0  0  0  0  0  0  0  0  0  0  0
   43.5924   32.4254   37.4527 H   0  0  0  0  0  0  0  0  0  0  0  0
   45.0736   31.6802   35.5743 H   0  0  0  0  0  0  0  0  0  0  0  0
   47.8424   29.7055   36.0366 H   0  0  0  0  0  0  0  0  0  0  0  0
   49.4682   33.0783   32.9994 H   0  0  0  0  0  0  0  0  0  0  0  0
  1  6  2  0
  2  3  2  0
  2  1  1  0
  3  4  1  0
  4  5  2  0
  5  9  1  0
  6  5  1  0
  7  8  1  0
  8 14  2  0
  9  8  1  0
  9 10  2  0
 10 11  1  0
 11 12  2  0
 12 13  1  0
 14 12  1  0
 16 15  1  0
 16 17  2  0
 17  3  1  0
 18 17  1  0
 19 18  2  0
 20 21  2  0
 20 19  1  0
 21 16  1  0
 22 21  1  0
 23 22  2  0
 24 23  1  0
 25 24  1  0
 25 26  2  0
 26 22  1  0
  1 27  1  0
  2 28  1  0
 10 29  1  0
 11 30  1  0
 14 31  1  0
 18 32  1  0
 19 33  1  0
 20 34  1  0
 23 35  1  0
 25 36  1  0
M  ISO  8  27  14  28  14  29  14  30  14  31  14  32  14  33  14  34  14
M  ISO  2  35  14  36  14
M  END
>  <minimizedAffinity>  (1) 
-6.20448732

>  <minimizedRMSD>  (1) 
1.14361489

$$$$
