
     RDKit          3D

 41 44  0  0  1  0  0  0  0  0999 V2000
   46.6740   33.3750   44.8090 F   0  0  0  0  0  0  0  0  0  0  0  0
   47.3150   32.1880   44.6320 C   0  0  0  0  0  0  0  0  0  0  0  0
   48.1460   32.0640   43.5460 C   0  0  0  0  0  0  0  0  0  0  0  0
   48.7940   30.8640   43.3680 C   0  0  0  0  0  0  0  0  0  0  0  0
   48.5940   29.8370   44.2710 C   0  0  0  0  0  0  0  0  0  0  0  0
   47.7690   29.9570   45.3510 C   0  0  0  0  0  0  0  0  0  0  0  0
   47.1120   31.1850   45.5260 C   0  0  0  0  0  0  0  0  0  0  0  0
   46.2680   31.2630   46.6580 N   0  0  0  0  0  0  0  0  0  0  0  0
   45.1760   30.4330   47.0930 C   0  0  0  0  0  0  0  0  0  0  0  0
   45.5330   30.1590   48.5710 C   0  0  0  0  0  0  0  0  0  0  0  0
   46.4210   31.3150   48.9430 C   0  0  0  0  0  0  0  0  0  0  0  0
   46.2610   32.2410   47.7530 C   0  0  2  0  0  0  0  0  0  0  0  0
   45.0520   33.0910   47.8020 C   0  0  0  0  0  0  0  0  0  0  0  0
   49.0610   35.3440   42.1720 C   0  0  0  0  0  0  0  0  0  0  0  0
   48.6450   35.2410   40.8400 C   0  0  0  0  0  0  0  0  0  0  0  0
   48.0540   34.0360   40.4310 C   0  0  0  0  0  0  0  0  0  0  0  0
   47.9410   33.0860   41.3720 N   0  0  0  0  0  0  0  0  0  0  0  0
   48.3280   33.1770   42.6200 C   0  0  0  0  0  0  0  0  0  0  0  0
   48.8880   34.3110   43.0170 N   0  0  0  0  0  0  0  0  0  0  0  0
   47.5760   33.8150   39.0470 C   0  0  0  0  0  0  0  0  0  0  0  0
   46.4200   33.0920   38.7970 C   0  0  0  0  0  0  0  0  0  0  0  0
   46.3230   33.1400   36.9590 S   0  0  0  0  0  0  0  0  0  0  0  0
   47.9210   34.1650   36.8660 C   0  0  0  0  0  0  0  0  0  0  0  0
   48.1990   34.2750   37.9800 N   0  0  0  0  0  0  0  0  0  0  0  0
   49.4685   30.7223   42.5107 H   0  0  0  0  0  0  0  0  0  0  0  0
   49.1211   28.8846   44.1126 H   0  0  0  0  0  0  0  0  0  0  0  0
   47.6246   29.1251   46.0560 H   0  0  0  0  0  0  0  0  0  0  0  0
   44.2156   30.9625   47.0075 H   0  0  0  0  0  0  0  0  0  0  0  0
   45.0546   29.5183   46.4942 H   0  0  0  0  0  0  0  0  0  0  0  0
   44.6283   30.1421   49.1965 H   0  0  0  0  0  0  0  0  0  0  0  0
   46.0189   29.1832   48.7186 H   0  0  0  0  0  0  0  0  0  0  0  0
   46.0800   31.7967   49.8713 H   0  0  0  0  0  0  0  0  0  0  0  0
   47.4639   31.0245   49.1381 H   0  0  0  0  0  0  0  0  0  0  0  0
   47.0397   33.0139   47.6736 H   0  0  0  0  0  0  0  0  0  0  0  0
   44.7803   33.2820   48.8507 H   0  0  0  0  0  0  0  0  0  0  0  0
   45.2547   34.0464   47.2959 H   0  0  0  0  0  0  0  0  0  0  0  0
   44.2216   32.5769   47.2959 H   0  0  0  0  0  0  0  0  0  0  0  0
   49.5309   36.2721   42.5295 H   0  0  0  0  0  0  0  0  0  0  0  0
   48.7769   36.0768   40.1371 H   0  0  0  0  0  0  0  0  0  0  0  0
   45.7362   32.6126   39.5129 H   0  0  0  0  0  0  0  0  0  0  0  0
   48.4447   34.5527   35.9798 H   0  0  0  0  0  0  0  0  0  0  0  0
  2  1  1  0
  2  7  2  0
  3  2  1  0
  4  3  2  0
  4  5  1  0
  5  6  2  0
  6  7  1  0
  7  8  1  0
  8  9  1  0
  8 12  1  0
  9 10  1  0
 10 11  1  0
 12 13  1  0
 12 11  1  0
 14 19  2  0
 15 14  1  0
 16 15  2  0
 16 17  1  0
 17 18  2  0
 18 19  1  0
 18  3  1  0
 20 16  1  0
 21 20  2  0
 22 21  1  0
 23 22  1  0
 23 24  2  0
 24 20  1  0
  4 25  1  0
  5 26  1  0
  6 27  1  0
  9 28  1  0
  9 29  1  0
 10 30  1  0
 10 31  1  0
 11 32  1  0
 11 33  1  0
 12 34  1  6
 13 35  1  0
 13 36  1  0
 13 37  1  0
 14 38  1  0
 15 39  1  0
 21 40  1  0
 23 41  1  0
M  ISO  8  25  14  26  14  27  14  28  13  29  13  30  13  31  13  32  13
M  ISO  8  33  13  34  13  35   8  36   8  37   8  38  14  39  14  40  14
M  ISO  1  41  14
M  END
>  <minimizedAffinity>  (1) 
-5.55501318

>  <minimizedRMSD>  (1) 
0.83666265

$$$$
