
     RDKit          3D

 26 28  0  0  0  0  0  0  0  0999 V2000
   45.9730   34.1920   41.0610 C   0  0  0  0  0  0  0  0  0  0  0  0
   46.5520   34.8190   42.1600 C   0  0  0  0  0  0  0  0  0  0  0  0
   47.8910   35.1890   42.0250 C   0  0  0  0  0  0  0  0  0  0  0  0
   48.5350   34.9200   40.8540 N   0  0  0  0  0  0  0  0  0  0  0  0
   47.9340   34.3170   39.8340 C   0  0  0  0  0  0  0  0  0  0  0  0
   46.6480   33.9460   39.9250 N   0  0  0  0  0  0  0  0  0  0  0  0
   45.7700   35.0540   43.3540 C   0  0  0  0  0  0  0  0  0  0  0  0
   45.0810   36.2400   43.5830 C   0  0  0  0  0  0  0  0  0  0  0  0
   44.4920   36.0250   44.8160 C   0  0  0  0  0  0  0  0  0  0  0  0
   44.7990   34.7950   45.3070 N   0  0  0  0  0  0  0  0  0  0  0  0
   45.5740   34.2330   44.4000 N   0  0  0  0  0  0  0  0  0  0  0  0
   44.6440   33.8070   41.1500 O   0  0  0  0  0  0  0  0  0  0  0  0
   43.5550   34.4600   40.6500 C   0  0  0  0  0  0  0  0  0  0  0  0
   43.3390   35.7250   40.6490 O   0  0  0  0  0  0  0  0  0  0  0  0
   42.4280   33.7050   40.0120 C   0  0  0  0  0  0  0  0  0  0  0  0
   42.4680   33.5540   38.6310 C   0  0  0  0  0  0  0  0  0  0  0  0
   40.9380   32.5920   38.2270 S   0  0  0  0  0  0  0  0  0  0  0  0
   40.4990   32.5640   40.0730 C   0  0  0  0  0  0  0  0  0  0  0  0
   41.3560   33.1290   40.5120 N   0  0  0  0  0  0  0  0  0  0  0  0
   48.4183   35.6897   42.8504 H   0  0  0  0  0  0  0  0  0  0  0  0
   48.4949   34.1206   38.9083 H   0  0  0  0  0  0  0  0  0  0  0  0
   45.0194   37.1310   42.9409 H   0  0  0  0  0  0  0  0  0  0  0  0
   43.8553   36.7572   45.3341 H   0  0  0  0  0  0  0  0  0  0  0  0
   44.4906   34.3871   46.2011 H   0  0  0  0  0  0  0  0  0  0  0  0
   43.2356   33.9228   37.9347 H   0  0  0  0  0  0  0  0  0  0  0  0
   39.6316   32.1118   40.5762 H   0  0  0  0  0  0  0  0  0  0  0  0
  1 12  1  0
  1  2  1  0
  2  7  1  0
  3  2  2  0
  4  3  1  0
  5  6  1  0
  5  4  2  0
  6  1  2  0
  7  8  1  0
  7 11  2  0
  8  9  2  0
  9 10  1  0
 11 10  1  0
 13 12  1  0
 14 13  2  0
 15 19  1  0
 15 13  1  0
 16 15  2  0
 17 16  1  0
 17 18  1  0
 18 19  2  0
  3 20  1  0
  5 21  1  0
  8 22  1  0
  9 23  1  0
 10 24  1  0
 16 25  1  0
 18 26  1  0
M  ISO  7  20  14  21  14  22  14  23  14  24   9  25  14  26  14
M  END
>  <minimizedAffinity>  (1) 
-5.01734543

>  <minimizedRMSD>  (1) 
0.564983249

$$$$
