
     RDKit          3D

 18 19  0  0  0  0  0  0  0  0999 V2000
   45.2340   36.0050   43.4040 C   0  0  0  0  0  0  0  0  0  0  0  0
   46.1400   34.9510   43.1550 C   0  0  0  0  0  0  0  0  0  0  0  0
   46.2720   33.9810   44.1630 C   0  0  0  0  0  0  0  0  0  0  0  0
   45.5400   34.1090   45.2890 N   0  0  0  0  0  0  0  0  0  0  0  0
   44.6850   35.1330   45.4880 C   0  0  0  0  0  0  0  0  0  0  0  0
   44.5430   36.0650   44.5450 N   0  0  0  0  0  0  0  0  0  0  0  0
   46.8760   34.8880   41.9380 C   0  0  0  0  0  0  0  0  0  0  0  0
   47.9780   35.4690   41.9070 O   0  0  0  0  0  0  0  0  0  0  0  0
   46.3730   34.1730   40.7460 C   0  0  0  0  0  0  0  0  0  0  0  0
   47.3320   33.7630   39.7500 C   0  0  0  0  0  0  0  0  0  0  0  0
   46.2920   32.9510   38.5180 S   0  0  0  0  0  0  0  0  0  0  0  0
   44.7200   33.2870   39.5350 C   0  0  0  0  0  0  0  0  0  0  0  0
   45.1330   33.8390   40.4470 N   0  0  0  0  0  0  0  0  0  0  0  0
   45.0952   36.7896   42.6456 H   0  0  0  0  0  0  0  0  0  0  0  0
   46.9601   33.1322   44.0362 H   0  0  0  0  0  0  0  0  0  0  0  0
   44.1084   35.1989   46.4224 H   0  0  0  0  0  0  0  0  0  0  0  0
   48.4223   33.9084   39.7428 H   0  0  0  0  0  0  0  0  0  0  0  0
   43.6785   33.0185   39.3043 H   0  0  0  0  0  0  0  0  0  0  0  0
  1  6  2  0
  2  1  1  0
  2  3  2  0
  3  4  1  0
  4  5  2  0
  6  5  1  0
  7  2  1  0
  8  7  2  0
  9  7  1  0
 10  9  2  0
 11 12  1  0
 11 10  1  0
 12 13  2  0
 13  9  1  0
  1 14  1  0
  3 15  1  0
  5 16  1  0
 10 17  1  0
 12 18  1  0
M  ISO  5  14  14  15  14  16  14  17  14  18  14
M  END
>  <minimizedAffinity>  (1) 
-3.93816972

>  <minimizedRMSD>  (1) 
0.407420903

$$$$
