
     RDKit          3D

 40 43  0  0  1  0  0  0  0  0999 V2000
   46.3970   34.8660   42.1810 N   0  0  0  0  0  0  0  0  0  0  0  0
   47.7420   35.3530   42.0040 C   0  0  0  0  0  0  0  0  0  0  0  0
   48.5830   34.3740   41.3030 C   0  0  0  0  0  0  0  0  0  0  0  0
   47.8900   33.3530   40.4900 C   0  0  0  0  0  0  0  0  0  0  0  0
   46.4940   33.6120   40.0940 C   0  0  0  0  0  0  0  0  0  0  0  0
   45.6700   34.4770   41.0210 C   0  0  1  0  0  0  0  0  0  0  0  0
   43.1780   34.5390   40.7810 C   0  0  0  0  0  0  0  0  0  0  0  0
   44.3330   33.8990   41.2460 C   0  0  0  0  0  0  0  0  0  0  0  0
   44.0340   32.7140   41.8760 C   0  0  0  0  0  0  0  0  0  0  0  0
   42.7690   32.1970   42.0440 C   0  0  0  0  0  0  0  0  0  0  0  0
   42.2960   31.0790   42.6220 N   0  0  0  0  0  0  0  0  0  0  0  0
   40.9520   31.0880   42.4900 C   0  0  0  0  0  0  0  0  0  0  0  0
   40.5790   32.1890   41.8410 N   0  0  0  0  0  0  0  0  0  0  0  0
   41.6870   32.8950   41.5530 C   0  0  0  0  0  0  0  0  0  0  0  0
   41.8770   34.0960   40.9030 C   0  0  0  0  0  0  0  0  0  0  0  0
   45.0210   35.8850   43.8950 C   0  0  0  0  0  0  0  0  0  0  0  0
   45.8510   34.8100   43.4720 C   0  0  0  0  0  0  0  0  0  0  0  0
   46.0550   33.7690   44.3770 C   0  0  0  0  0  0  0  0  0  0  0  0
   45.4570   33.8480   45.5830 N   0  0  0  0  0  0  0  0  0  0  0  0
   44.6820   34.8690   45.9530 C   0  0  0  0  0  0  0  0  0  0  0  0
   44.4600   35.8880   45.1170 N   0  0  0  0  0  0  0  0  0  0  0  0
   44.7860   36.9780   43.0050 N   0  0  0  0  0  0  0  0  0  0  0  0
   47.7108   36.2825   41.4166 H   0  0  0  0  0  0  0  0  0  0  0  0
   48.1772   35.5314   42.9984 H   0  0  0  0  0  0  0  0  0  0  0  0
   49.2536   34.9322   40.6332 H   0  0  0  0  0  0  0  0  0  0  0  0
   49.0881   33.8091   42.1003 H   0  0  0  0  0  0  0  0  0  0  0  0
   48.4724   33.2203   39.5663 H   0  0  0  0  0  0  0  0  0  0  0  0
   47.8295   32.4736   41.1480 H   0  0  0  0  0  0  0  0  0  0  0  0
   46.5132   34.1035   39.1101 H   0  0  0  0  0  0  0  0  0  0  0  0
   46.0039   32.6273   40.1089 H   0  0  0  0  0  0  0  0  0  0  0  0
   45.4632   35.4381   40.5276 H   0  0  0  0  0  0  0  0  0  0  0  0
   43.3233   35.4982   40.2626 H   0  0  0  0  0  0  0  0  0  0  0  0
   44.8750   32.1308   42.2792 H   0  0  0  0  0  0  0  0  0  0  0  0
   42.8571   30.3480   43.0821 H   0  0  0  0  0  0  0  0  0  0  0  0
   40.2715   30.3073   42.8609 H   0  0  0  0  0  0  0  0  0  0  0  0
   41.0316   34.6735   40.5008 H   0  0  0  0  0  0  0  0  0  0  0  0
   46.6862   32.9073   44.1144 H   0  0  0  0  0  0  0  0  0  0  0  0
   44.2227   34.8722   46.9525 H   0  0  0  0  0  0  0  0  0  0  0  0
   45.2135   36.9802   42.0679 H   0  0  0  0  0  0  0  0  0  0  0  0
   44.1891   37.7636   43.3006 H   0  0  0  0  0  0  0  0  0  0  0  0
  1 17  1  0
  2  1  1  0
  3  2  1  0
  4  3  1  0
  5  4  1  0
  5  6  1  0
  6  8  1  0
  6  1  1  0
  7 15  2  0
  7  8  1  0
  8  9  2  0
  9 10  1  0
 10 11  1  0
 12 11  1  0
 13 12  2  0
 14 13  1  0
 14 10  2  0
 15 14  1  0
 16 21  2  0
 17 16  1  0
 17 18  2  0
 18 19  1  0
 19 20  2  0
 21 20  1  0
 22 16  1  0
  2 23  1  0
  2 24  1  0
  3 25  1  0
  3 26  1  0
  4 27  1  0
  4 28  1  0
  5 29  1  0
  5 30  1  0
  6 31  1  6
  7 32  1  0
  9 33  1  0
 11 34  1  0
 12 35  1  0
 15 36  1  0
 18 37  1  0
 20 38  1  0
 22 39  1  0
 22 40  1  0
M  ISO  8  23  13  24  13  25  13  26  13  27  13  28  13  29  13  30  13
M  ISO  8  31  13  32  14  33  14  34   9  35  14  36  14  37  14  38  14
M  END
>  <minimizedAffinity>  (1) 
-6.21163034

>  <minimizedRMSD>  (1) 
0.251371026

$$$$
