
     RDKit          3D

 35 37  0  0  0  0  0  0  0  0999 V2000
   43.4150   36.4030   40.6220 O   0  0  0  0  0  0  0  0  0  0  0  0
   43.3970   35.1250   41.4330 P   0  0  1  0  0  0  0  0  0  0  0  0
   42.5100   35.3860   42.8660 O   0  0  0  0  0  0  0  0  0  0  0  0
   42.6080   33.9130   40.5630 O   0  0  0  0  0  0  0  0  0  0  0  0
   40.2890   33.9750   40.1850 C   0  0  0  0  0  0  0  0  0  0  0  0
   41.3620   33.3780   40.8280 C   0  0  0  0  0  0  0  0  0  0  0  0
   41.0930   32.2930   41.6830 C   0  0  0  0  0  0  0  0  0  0  0  0
   39.8090   31.9100   41.8180 N   0  0  0  0  0  0  0  0  0  0  0  0
   38.7840   32.5070   41.1830 C   0  0  0  0  0  0  0  0  0  0  0  0
   39.0380   33.5310   40.3750 N   0  0  0  0  0  0  0  0  0  0  0  0
   40.4900   35.1120   39.2770 C   0  0  0  0  0  0  0  0  0  0  0  0
   40.1460   34.6870   37.8690 C   0  0  0  0  0  0  0  0  0  0  0  0
   44.9700   34.7030   41.9050 O   0  0  0  0  0  0  0  0  0  0  0  0
   45.0570   32.5110   42.7330 C   0  0  0  0  0  0  0  0  0  0  0  0
   45.2950   33.8600   42.9560 C   0  0  0  0  0  0  0  0  0  0  0  0
   45.8150   34.3230   44.1430 C   0  0  0  0  0  0  0  0  0  0  0  0
   46.1120   33.4210   45.1410 C   0  0  0  0  0  0  0  0  0  0  0  0
   46.6200   33.5370   46.3920 N   0  0  0  0  0  0  0  0  0  0  0  0
   46.7250   32.3260   46.9910 C   0  0  0  0  0  0  0  0  0  0  0  0
   46.2720   31.4240   46.1000 N   0  0  0  0  0  0  0  0  0  0  0  0
   45.8960   32.0520   44.9760 C   0  0  0  0  0  0  0  0  0  0  0  0
   45.3680   31.6440   43.7570 C   0  0  0  0  0  0  0  0  0  0  0  0
   43.0908   35.2151   43.6493 H   0  0  0  0  0  0  0  0  0  0  0  0
   41.9017   31.7768   42.2211 H   0  0  0  0  0  0  0  0  0  0  0  0
   37.7529   32.1533   41.3302 H   0  0  0  0  0  0  0  0  0  0  0  0
   39.8385   35.9449   39.5799 H   0  0  0  0  0  0  0  0  0  0  0  0
   41.5394   35.4391   39.3194 H   0  0  0  0  0  0  0  0  0  0  0  0
   39.4543   33.8324   37.9026 H   0  0  0  0  0  0  0  0  0  0  0  0
   39.6685   35.5246   37.3395 H   0  0  0  0  0  0  0  0  0  0  0  0
   41.0647   34.3945   37.3395 H   0  0  0  0  0  0  0  0  0  0  0  0
   44.6389   32.1506   41.7815 H   0  0  0  0  0  0  0  0  0  0  0  0
   45.9911   35.3984   44.2929 H   0  0  0  0  0  0  0  0  0  0  0  0
   46.8909   34.4289   46.8302 H   0  0  0  0  0  0  0  0  0  0  0  0
   47.1045   32.1209   48.0029 H   0  0  0  0  0  0  0  0  0  0  0  0
   45.1886   30.5699   43.6014 H   0  0  0  0  0  0  0  0  0  0  0  0
  2  1  2  0
  2 13  1  0
  2  3  1  0
  4  6  1  0
  4  2  1  0
  5 10  2  0
  5  6  1  0
  6  7  2  0
  7  8  1  0
  9  8  2  0
 10  9  1  0
 11  5  1  0
 12 11  1  0
 13 15  1  0
 14 15  2  0
 14 22  1  0
 15 16  1  0
 16 17  2  0
 17 18  1  0
 18 19  1  0
 20 19  2  0
 21 17  1  0
 21 20  1  0
 22 21  2  0
  3 23  1  0
  7 24  1  0
  9 25  1  0
 11 26  1  0
 11 27  1  0
 12 28  1  0
 12 29  1  0
 12 30  1  0
 14 31  1  0
 16 32  1  0
 18 33  1  0
 19 34  1  0
 22 35  1  0
M  ISO  8  23   3  24  14  25  14  26   8  27   8  28   8  29   8  30   8
M  ISO  5  31  14  32  14  33   9  34  14  35  14
M  END
>  <minimizedAffinity>  (1) 
-5.02778101

>  <minimizedRMSD>  (1) 
7.68055773

$$$$
