
     RDKit          3D

 33 36  0  0  1  0  0  0  0  0999 V2000
   44.6350   34.4580   43.3540 C   0  0  1  0  0  0  0  0  0  0  0  0
   45.1890   35.8310   42.9050 C   0  0  0  0  0  0  0  0  0  0  0  0
   44.7560   34.7830   41.9320 C   0  0  2  0  0  0  0  0  0  0  0  0
   42.4000   35.5180   41.8340 C   0  0  0  0  0  0  0  0  0  0  0  0
   43.4670   34.9370   41.2070 C   0  0  0  0  0  0  0  0  0  0  0  0
   43.2810   34.5160   39.9100 C   0  0  0  0  0  0  0  0  0  0  0  0
   42.0900   34.6580   39.2380 C   0  0  0  0  0  0  0  0  0  0  0  0
   41.6390   34.3430   37.9890 N   0  0  0  0  0  0  0  0  0  0  0  0
   40.3580   34.7130   37.8570 C   0  0  0  0  0  0  0  0  0  0  0  0
   39.9890   35.2670   39.0260 N   0  0  0  0  0  0  0  0  0  0  0  0
   41.0200   35.2530   39.9000 C   0  0  0  0  0  0  0  0  0  0  0  0
   41.1750   35.6910   41.2180 C   0  0  0  0  0  0  0  0  0  0  0  0
   45.6460   33.6020   44.0460 C   0  0  0  0  0  0  0  0  0  0  0  0
   46.6770   33.0000   43.2790 C   0  0  0  0  0  0  0  0  0  0  0  0
   47.6110   32.2200   43.9540 C   0  0  0  0  0  0  0  0  0  0  0  0
   47.4840   32.0810   45.2980 N   0  0  0  0  0  0  0  0  0  0  0  0
   46.4820   32.6740   45.9910 C   0  0  0  0  0  0  0  0  0  0  0  0
   45.5610   33.4380   45.3510 N   0  0  0  0  0  0  0  0  0  0  0  0
   46.5310   32.4020   47.4660 C   0  0  0  0  0  0  0  0  0  0  0  0
   45.4730   32.9750   48.1260 F   0  0  0  0  0  0  0  0  0  0  0  0
   47.7150   32.9170   47.9990 F   0  0  0  0  0  0  0  0  0  0  0  0
   46.6010   31.0280   47.6640 F   0  0  0  0  0  0  0  0  0  0  0  0
   43.8016   34.0576   43.9499 H   0  0  0  0  0  0  0  0  0  0  0  0
   44.5915   36.7443   43.0422 H   0  0  0  0  0  0  0  0  0  0  0  0
   46.1041   36.4138   43.0865 H   0  0  0  0  0  0  0  0  0  0  0  0
   45.2612   34.3366   41.0628 H   0  0  0  0  0  0  0  0  0  0  0  0
   42.5216   35.8620   42.8717 H   0  0  0  0  0  0  0  0  0  0  0  0
   44.1251   34.0436   39.3863 H   0  0  0  0  0  0  0  0  0  0  0  0
   42.2009   33.8877   37.2556 H   0  0  0  0  0  0  0  0  0  0  0  0
   39.7285   34.5877   36.9637 H   0  0  0  0  0  0  0  0  0  0  0  0
   40.3390   36.1638   41.7542 H   0  0  0  0  0  0  0  0  0  0  0  0
   46.7358   33.1447   42.1901 H   0  0  0  0  0  0  0  0  0  0  0  0
   48.4320   31.7282   43.4116 H   0  0  0  0  0  0  0  0  0  0  0  0
  1 13  1  0
  2  1  1  0
  3  2  1  0
  3  1  1  0
  5  4  2  0
  5  3  1  0
  6  5  1  0
  7 11  1  0
  7  6  2  0
  8  7  1  0
  9  8  1  0
  9 10  2  0
 10 11  1  0
 11 12  2  0
 12  4  1  0
 13 18  2  0
 14 15  2  0
 14 13  1  0
 15 16  1  0
 16 17  2  0
 17 19  1  0
 18 17  1  0
 19 22  1  0
 19 21  1  0
 19 20  1  0
  1 23  1  1
  2 24  1  0
  2 25  1  0
  3 26  1  6
  4 27  1  0
  6 28  1  0
  8 29  1  0
  9 30  1  0
 12 31  1  0
 14 32  1  0
 15 33  1  0
M  ISO  8  23  13  24  13  25  13  26  13  27  14  28  14  29   9  30  14
M  ISO  3  31  14  32  14  33  14
M  END
>  <minimizedAffinity>  (1) 
-5.97891665

>  <minimizedRMSD>  (1) 
1.64282358

$$$$
