
     RDKit          3D

 48 52  0  0  0  0  0  0  0  0999 V2000
   38.1970   31.4230   41.1790 C   0  0  0  0  0  0  0  0  0  0  0  0
   39.5560   31.3680   40.8610 C   0  0  0  0  0  0  0  0  0  0  0  0
   40.0580   30.1720   40.3550 C   0  0  0  0  0  0  0  0  0  0  0  0
   39.2020   29.1420   40.2030 N   0  0  0  0  0  0  0  0  0  0  0  0
   37.8910   29.2270   40.5180 C   0  0  0  0  0  0  0  0  0  0  0  0
   37.3610   30.3440   41.0050 N   0  0  0  0  0  0  0  0  0  0  0  0
   37.0460   28.0240   40.3060 C   0  0  0  0  0  0  0  0  0  0  0  0
   36.0880   28.2190   39.1300 C   0  0  0  0  0  0  0  0  0  0  0  0
   34.5120   26.4380   40.0370 C   0  0  0  0  0  0  0  0  0  0  0  0
   34.7490   27.7110   39.5670 C   0  0  0  0  0  0  0  0  0  0  0  0
   33.6960   28.5870   39.4890 C   0  0  0  0  0  0  0  0  0  0  0  0
   32.3960   28.2890   39.8480 C   0  0  0  0  0  0  0  0  0  0  0  0
   31.2530   29.0120   39.8380 N   0  0  0  0  0  0  0  0  0  0  0  0
   30.3200   28.1540   40.3090 C   0  0  0  0  0  0  0  0  0  0  0  0
   30.8380   26.9490   40.6050 N   0  0  0  0  0  0  0  0  0  0  0  0
   32.1720   26.9960   40.3220 C   0  0  0  0  0  0  0  0  0  0  0  0
   33.2190   26.0920   40.4110 C   0  0  0  0  0  0  0  0  0  0  0  0
   40.6030   32.7840   41.0990 S   0  0  0  0  0  0  0  0  0  0  0  0
   40.5410   33.8240   39.6780 C   0  0  0  0  0  0  0  0  0  0  0  0
   39.4800   33.8450   38.7690 C   0  0  0  0  0  0  0  0  0  0  0  0
   39.5120   34.7020   37.6670 C   0  0  0  0  0  0  0  0  0  0  0  0
   40.5730   35.5360   37.4510 C   0  0  0  0  0  0  0  0  0  0  0  0
   41.6170   35.5160   38.3420 C   0  0  0  0  0  0  0  0  0  0  0  0
   41.6190   34.6810   39.4440 C   0  0  0  0  0  0  0  0  0  0  0  0
   42.7370   34.6770   40.3780 C   0  0  0  0  0  0  0  0  0  0  0  0
   43.8950   33.9850   40.1850 C   0  0  0  0  0  0  0  0  0  0  0  0
   44.9560   33.9940   41.0930 C   0  0  0  0  0  0  0  0  0  0  0  0
   44.8250   34.7270   42.2180 N   0  0  0  0  0  0  0  0  0  0  0  0
   43.6810   35.4110   42.4080 C   0  0  0  0  0  0  0  0  0  0  0  0
   42.6740   35.3860   41.5190 N   0  0  0  0  0  0  0  0  0  0  0  0
   37.7818   32.3588   41.5814 H   0  0  0  0  0  0  0  0  0  0  0  0
   41.1202   30.0708   40.0876 H   0  0  0  0  0  0  0  0  0  0  0  0
   37.6962   27.1611   40.0994 H   0  0  0  0  0  0  0  0  0  0  0  0
   36.4503   27.8532   41.2148 H   0  0  0  0  0  0  0  0  0  0  0  0
   36.4411   27.6506   38.2569 H   0  0  0  0  0  0  0  0  0  0  0  0
   36.0307   29.2791   38.8421 H   0  0  0  0  0  0  0  0  0  0  0  0
   35.3315   25.7084   40.1149 H   0  0  0  0  0  0  0  0  0  0  0  0
   33.9020   29.6001   39.1133 H   0  0  0  0  0  0  0  0  0  0  0  0
   31.1233   29.9896   39.5406 H   0  0  0  0  0  0  0  0  0  0  0  0
   29.2583   28.4124   40.4356 H   0  0  0  0  0  0  0  0  0  0  0  0
   33.0219   25.0770   40.7864 H   0  0  0  0  0  0  0  0  0  0  0  0
   38.6150   33.1830   38.9223 H   0  0  0  0  0  0  0  0  0  0  0  0
   38.6688   34.7059   36.9606 H   0  0  0  0  0  0  0  0  0  0  0  0
   40.5900   36.2092   36.5813 H   0  0  0  0  0  0  0  0  0  0  0  0
   42.4758   36.1827   38.1746 H   0  0  0  0  0  0  0  0  0  0  0  0
   43.9994   33.3886   39.2666 H   0  0  0  0  0  0  0  0  0  0  0  0
   45.8731   33.4194   40.8964 H   0  0  0  0  0  0  0  0  0  0  0  0
   43.5669   36.0111   43.3228 H   0  0  0  0  0  0  0  0  0  0  0  0
  2 18  1  0
  2  1  2  0
  3  2  1  0
  4  3  2  0
  4  5  1  0
  5  6  2  0
  6  1  1  0
  7  5  1  0
  8 10  1  0
  8  7  1  0
  9 17  2  0
 10  9  1  0
 11 10  2  0
 11 12  1  0
 12 16  2  0
 13 12  1  0
 13 14  1  0
 14 15  2  0
 16 17  1  0
 16 15  1  0
 19 18  1  0
 20 19  2  0
 21 20  1  0
 22 21  2  0
 22 23  1  0
 23 24  2  0
 24 19  1  0
 24 25  1  0
 25 30  1  0
 26 25  2  0
 26 27  1  0
 27 28  2  0
 28 29  1  0
 30 29  2  0
  1 31  1  0
  3 32  1  0
  7 33  1  0
  7 34  1  0
  8 35  1  0
  8 36  1  0
  9 37  1  0
 11 38  1  0
 13 39  1  0
 14 40  1  0
 17 41  1  0
 20 42  1  0
 21 43  1  0
 22 44  1  0
 23 45  1  0
 26 46  1  0
 27 47  1  0
 29 48  1  0
M  ISO  8  31  14  32  14  33   8  34   8  35   8  36   8  37  14  38  14
M  ISO  8  39   9  40  14  41  14  42  14  43  14  44  14  45  14  46  14
M  ISO  2  47  14  48  14
M  END
>  <minimizedAffinity>  (1) 
-6.25385714

>  <minimizedRMSD>  (1) 
1.42114913

$$$$
