
     RDKit          3D

 46 50  0  0  0  0  0  0  0  0999 V2000
   49.3390   33.2610   41.0590 C   0  0  0  0  0  0  0  0  0  0  0  0
   48.5550   34.1730   40.4150 C   0  0  0  0  0  0  0  0  0  0  0  0
   48.4950   35.4760   40.8800 C   0  0  0  0  0  0  0  0  0  0  0  0
   49.2200   35.8570   41.9860 C   0  0  0  0  0  0  0  0  0  0  0  0
   50.0320   34.9580   42.6710 C   0  0  0  0  0  0  0  0  0  0  0  0
   50.0760   33.6470   42.1820 C   0  0  0  0  0  0  0  0  0  0  0  0
   44.1080   32.5700   38.3390 Cl  0  0  0  0  0  0  0  0  0  0  0  0
   45.7560   33.1380   38.2610 C   0  0  0  0  0  0  0  0  0  0  0  0
   46.4540   33.4210   39.3920 C   0  0  0  0  0  0  0  0  0  0  0  0
   47.7580   33.8750   39.2330 C   0  0  0  0  0  0  0  0  0  0  0  0
   48.3220   34.0370   37.9940 C   0  0  0  0  0  0  0  0  0  0  0  0
   47.6120   33.7500   36.8730 C   0  0  0  0  0  0  0  0  0  0  0  0
   46.3140   33.2950   37.0130 C   0  0  0  0  0  0  0  0  0  0  0  0
   44.6220   34.1110   42.6280 C   0  0  0  0  0  0  0  0  0  0  0  0
   45.2340   34.2890   41.3830 C   0  0  0  0  0  0  0  0  0  0  0  0
   45.8210   33.2480   40.6850 C   0  0  0  0  0  0  0  0  0  0  0  0
   45.7420   32.0710   41.3160 N   0  0  0  0  0  0  0  0  0  0  0  0
   45.1640   31.8790   42.5000 C   0  0  0  0  0  0  0  0  0  0  0  0
   44.6070   32.8870   43.1550 N   0  0  0  0  0  0  0  0  0  0  0  0
   49.4340   31.6530   40.5530 S   0  0  0  0  0  0  0  0  0  0  0  0
   50.7940   31.0610   41.0080 O   0  0  0  0  0  0  0  0  0  0  0  0
   48.4210   30.8820   41.3980 O   0  0  0  0  0  0  0  0  0  0  0  0
   48.3270   30.3900   38.3790 C   0  0  0  0  0  0  0  0  0  0  0  0
   49.4130   31.1290   38.9260 C   0  0  0  0  0  0  0  0  0  0  0  0
   50.3220   31.3630   37.9010 C   0  0  0  0  0  0  0  0  0  0  0  0
   50.2550   30.9870   36.5980 C   0  0  0  0  0  0  0  0  0  0  0  0
   51.0590   31.1520   35.5380 N   0  0  0  0  0  0  0  0  0  0  0  0
   50.4380   30.5360   34.4920 C   0  0  0  0  0  0  0  0  0  0  0  0
   49.2610   30.0010   34.9190 N   0  0  0  0  0  0  0  0  0  0  0  0
   49.1340   30.2750   36.2340 C   0  0  0  0  0  0  0  0  0  0  0  0
   48.1170   29.9400   37.0930 C   0  0  0  0  0  0  0  0  0  0  0  0
   47.8631   36.2121   40.3614 H   0  0  0  0  0  0  0  0  0  0  0  0
   49.1561   36.8975   42.3371 H   0  0  0  0  0  0  0  0  0  0  0  0
   50.6117   35.2631   43.5547 H   0  0  0  0  0  0  0  0  0  0  0  0
   50.7051   32.9036   42.6934 H   0  0  0  0  0  0  0  0  0  0  0  0
   49.3562   34.4018   37.9076 H   0  0  0  0  0  0  0  0  0  0  0  0
   48.0593   33.8766   35.8760 H   0  0  0  0  0  0  0  0  0  0  0  0
   45.7213   33.0561   36.1177 H   0  0  0  0  0  0  0  0  0  0  0  0
   44.1649   34.9593   43.1585 H   0  0  0  0  0  0  0  0  0  0  0  0
   45.2494   35.2962   40.9411 H   0  0  0  0  0  0  0  0  0  0  0  0
   45.1487   30.8709   42.9398 H   0  0  0  0  0  0  0  0  0  0  0  0
   47.5302   30.1384   39.0944 H   0  0  0  0  0  0  0  0  0  0  0  0
   51.2200   31.9315   38.1846 H   0  0  0  0  0  0  0  0  0  0  0  0
   51.9633   31.6447   35.5178 H   0  0  0  0  0  0  0  0  0  0  0  0
   50.8268   30.4801   33.4645 H   0  0  0  0  0  0  0  0  0  0  0  0
   47.2266   29.3713   36.7868 H   0  0  0  0  0  0  0  0  0  0  0  0
  1  6  2  0
  2  3  2  0
  2  1  1  0
  3  4  1  0
  4  5  2  0
  6  5  1  0
  8  7  1  0
  8  9  2  0
  9 16  1  0
 10  9  1  0
 10  2  1  0
 11 10  2  0
 12 13  2  0
 12 11  1  0
 13  8  1  0
 14 19  2  0
 15 14  1  0
 16 17  1  0
 16 15  2  0
 17 18  2  0
 18 19  1  0
 20 21  2  0
 20  1  1  0
 20 22  2  0
 23 24  2  0
 24 20  1  0
 25 24  1  0
 26 25  2  0
 27 26  1  0
 28 29  2  0
 28 27  1  0
 29 30  1  0
 30 26  1  0
 30 31  2  0
 31 23  1  0
  3 32  1  0
  4 33  1  0
  5 34  1  0
  6 35  1  0
 11 36  1  0
 12 37  1  0
 13 38  1  0
 14 39  1  0
 15 40  1  0
 18 41  1  0
 23 42  1  0
 25 43  1  0
 27 44  1  0
 28 45  1  0
 31 46  1  0
M  ISO  8  32  14  33  14  34  14  35  14  36  14  37  14  38  14  39  14
M  ISO  7  40  14  41  14  42  14  43  14  44   9  45  14  46  14
M  END
>  <minimizedAffinity>  (1) 
-6.04164886

>  <minimizedRMSD>  (1) 
5.75728703

$$$$
