
     RDKit          3D

 45 49  0  0  1  0  0  0  0  0999 V2000
   46.8520   33.8920   37.0820 O   0  0  0  0  0  0  0  0  0  0  0  0
   45.8590   32.9440   37.0050 C   0  0  0  0  0  0  0  0  0  0  0  0
   45.8410   31.7770   36.2490 C   0  0  0  0  0  0  0  0  0  0  0  0
   44.7740   30.9380   36.2840 C   0  0  0  0  0  0  0  0  0  0  0  0
   43.6870   31.2250   37.0690 C   0  0  0  0  0  0  0  0  0  0  0  0
   43.7200   32.4040   37.8240 C   0  0  0  0  0  0  0  0  0  0  0  0
   44.7920   33.2340   37.7810 N   0  0  0  0  0  0  0  0  0  0  0  0
   41.2610   32.6430   38.0090 C   0  0  0  0  0  0  0  0  0  0  0  0
   42.4950   32.6230   38.5870 C   0  0  0  0  0  0  0  0  0  0  0  0
   42.4450   32.8570   39.9460 C   0  0  0  0  0  0  0  0  0  0  0  0
   41.3230   33.0840   40.6700 C   0  0  0  0  0  0  0  0  0  0  0  0
   40.9750   33.3330   41.9370 N   0  0  0  0  0  0  0  0  0  0  0  0
   39.6570   33.4860   42.1070 C   0  0  0  0  0  0  0  0  0  0  0  0
   39.0920   33.3360   40.8980 N   0  0  0  0  0  0  0  0  0  0  0  0
   40.0930   33.0910   40.0190 C   0  0  0  0  0  0  0  0  0  0  0  0
   40.0770   32.8660   38.6680 C   0  0  0  0  0  0  0  0  0  0  0  0
   48.6640   32.4040   38.0690 O   0  0  0  0  0  0  0  0  0  0  0  0
   48.1380   33.8380   38.1640 P   0  0  1  0  0  0  0  0  0  0  0  0
   49.3650   34.8220   37.5540 O   0  0  0  0  0  0  0  0  0  0  0  0
   47.6400   34.2110   39.6800 O   0  0  0  0  0  0  0  0  0  0  0  0
   48.0130   35.3020   41.8080 C   0  0  1  0  0  0  0  0  0  0  0  0
   49.1850   34.4370   41.6410 C   0  0  0  0  0  0  0  0  0  0  0  0
   48.4220   35.0090   40.4350 C   0  0  1  0  0  0  0  0  0  0  0  0
   45.6920   32.7410   43.3530 C   0  0  0  0  0  0  0  0  0  0  0  0
   46.8630   33.3560   42.9240 C   0  0  0  0  0  0  0  0  0  0  0  0
   46.7760   34.6050   42.2950 C   0  0  0  0  0  0  0  0  0  0  0  0
   45.5440   35.1650   42.1290 N   0  0  0  0  0  0  0  0  0  0  0  0
   44.4270   34.5360   42.5600 C   0  0  0  0  0  0  0  0  0  0  0  0
   44.5010   33.3280   43.1690 N   0  0  0  0  0  0  0  0  0  0  0  0
   46.7040   31.5299   35.6132 H   0  0  0  0  0  0  0  0  0  0  0  0
   44.7817   30.0203   35.6775 H   0  0  0  0  0  0  0  0  0  0  0  0
   42.8180   30.5516   37.1045 H   0  0  0  0  0  0  0  0  0  0  0  0
   41.2090   32.4658   36.9246 H   0  0  0  0  0  0  0  0  0  0  0  0
   43.4013   32.8594   40.4896 H   0  0  0  0  0  0  0  0  0  0  0  0
   41.6557   33.4004   42.7071 H   0  0  0  0  0  0  0  0  0  0  0  0
   39.1368   33.6943   43.0536 H   0  0  0  0  0  0  0  0  0  0  0  0
   39.1253   32.8639   38.1164 H   0  0  0  0  0  0  0  0  0  0  0  0
   49.8683   35.2256   38.3049 H   0  0  0  0  0  0  0  0  0  0  0  0
   47.8226   36.2389   42.3519 H   0  0  0  0  0  0  0  0  0  0  0  0
   50.1897   34.8097   41.8896 H   0  0  0  0  0  0  0  0  0  0  0  0
   49.4797   33.4342   41.9837 H   0  0  0  0  0  0  0  0  0  0  0  0
   48.6999   35.5929   39.5452 H   0  0  0  0  0  0  0  0  0  0  0  0
   45.7436   31.7608   43.8495 H   0  0  0  0  0  0  0  0  0  0  0  0
   47.8388   32.8713   43.0755 H   0  0  0  0  0  0  0  0  0  0  0  0
   43.4458   35.0113   42.4142 H   0  0  0  0  0  0  0  0  0  0  0  0
  1 18  1  0
  2  1  1  0
  2  7  2  0
  3  4  2  0
  3  2  1  0
  4  5  1  0
  5  6  2  0
  6  9  1  0
  7  6  1  0
  8  9  2  0
  8 16  1  0
  9 10  1  0
 10 11  2  0
 11 12  1  0
 12 13  1  0
 14 13  2  0
 15 11  1  0
 15 14  1  0
 16 15  2  0
 18 17  2  0
 18 20  1  0
 19 18  1  0
 20 23  1  0
 21 26  1  0
 22 21  1  0
 23 22  1  0
 23 21  1  0
 25 24  2  0
 26 25  1  0
 27 26  2  0
 27 28  1  0
 28 29  2  0
 29 24  1  0
  3 30  1  0
  4 31  1  0
  5 32  1  0
  8 33  1  0
 10 34  1  0
 12 35  1  0
 13 36  1  0
 16 37  1  0
 19 38  1  0
 21 39  1  1
 22 40  1  0
 22 41  1  0
 23 42  1  6
 24 43  1  0
 25 44  1  0
 28 45  1  0
M  ISO  8  30  14  31  14  32  14  33  14  34  14  35   9  36  14  37  14
M  ISO  8  38   3  39  13  40  13  41  13  42  13  43  14  44  14  45  14
M  END
>  <minimizedAffinity>  (1) 
-5.76134539

>  <minimizedRMSD>  (1) 
1.03871238

$$$$
