
     RDKit          3D

 27 29  0  0  0  0  0  0  0  0999 V2000
   46.1330   33.9600   40.8480 C   0  0  0  0  0  0  0  0  0  0  0  0
   45.0450   33.3870   41.1310 O   0  0  0  0  0  0  0  0  0  0  0  0
   46.6310   34.7800   41.8920 N   0  0  0  0  0  0  0  0  0  0  0  0
   48.0400   34.4160   39.2670 C   0  0  0  0  0  0  0  0  0  0  0  0
   46.8390   33.8150   39.5800 C   0  0  0  0  0  0  0  0  0  0  0  0
   46.2630   33.0110   38.6080 C   0  0  0  0  0  0  0  0  0  0  0  0
   46.8690   32.8170   37.3660 C   0  0  0  0  0  0  0  0  0  0  0  0
   46.6070   32.1370   36.2420 N   0  0  0  0  0  0  0  0  0  0  0  0
   47.5850   32.3320   35.3420 C   0  0  0  0  0  0  0  0  0  0  0  0
   48.5290   33.1550   35.8590 N   0  0  0  0  0  0  0  0  0  0  0  0
   48.0730   33.4380   37.0930 C   0  0  0  0  0  0  0  0  0  0  0  0
   48.6550   34.2390   38.0500 C   0  0  0  0  0  0  0  0  0  0  0  0
   44.5120   35.9500   44.7100 C   0  0  0  0  0  0  0  0  0  0  0  0
   45.1160   35.9030   43.4360 C   0  0  0  0  0  0  0  0  0  0  0  0
   46.0060   34.8590   43.1640 C   0  0  0  0  0  0  0  0  0  0  0  0
   46.2590   33.9380   44.1160 N   0  0  0  0  0  0  0  0  0  0  0  0
   45.6560   34.0120   45.3450 C   0  0  0  0  0  0  0  0  0  0  0  0
   44.7990   35.0100   45.6150 N   0  0  0  0  0  0  0  0  0  0  0  0
   47.4786   35.3397   41.7209 H   0  0  0  0  0  0  0  0  0  0  0  0
   48.5229   35.0595   40.0171 H   0  0  0  0  0  0  0  0  0  0  0  0
   45.3051   32.5140   38.8212 H   0  0  0  0  0  0  0  0  0  0  0  0
   45.7751   31.5491   36.0897 H   0  0  0  0  0  0  0  0  0  0  0  0
   47.6150   31.8895   34.3354 H   0  0  0  0  0  0  0  0  0  0  0  0
   49.6128   34.7377   37.8407 H   0  0  0  0  0  0  0  0  0  0  0  0
   43.8073   36.7576   44.9574 H   0  0  0  0  0  0  0  0  0  0  0  0
   44.8929   36.6671   42.6768 H   0  0  0  0  0  0  0  0  0  0  0  0
   45.8744   33.2531   46.1107 H   0  0  0  0  0  0  0  0  0  0  0  0
  1  2  2  0
  1  3  1  0
  3 15  1  0
  4  5  2  0
  5  1  1  0
  6  5  1  0
  7  6  2  0
  8  7  1  0
  9 10  2  0
  9  8  1  0
 10 11  1  0
 11  7  1  0
 11 12  2  0
 12  4  1  0
 13 18  2  0
 14 13  1  0
 15 14  2  0
 15 16  1  0
 16 17  2  0
 17 18  1  0
  3 19  1  0
  4 20  1  0
  6 21  1  0
  8 22  1  0
  9 23  1  0
 12 24  1  0
 13 25  1  0
 14 26  1  0
 17 27  1  0
M  ISO  8  20  14  21  14  22   9  23  14  24  14  25  14  26  14  27  14
M  END
>  <minimizedAffinity>  (1) 
-5.04763794

>  <minimizedRMSD>  (1) 
1.01885772

$$$$
