
     RDKit          3D

 30 32  0  0  0  0  0  0  0  0999 V2000
   47.7310   34.7730   41.2450 C   0  0  0  0  0  0  0  0  0  0  0  0
   45.8680   35.3600   42.7400 C   0  0  0  0  0  0  0  0  0  0  0  0
   47.0240   34.6020   42.5190 C   0  0  0  0  0  0  0  0  0  0  0  0
   47.4110   33.7370   43.5420 C   0  0  0  0  0  0  0  0  0  0  0  0
   46.7040   33.6200   44.7210 C   0  0  0  0  0  0  0  0  0  0  0  0
   46.9010   32.8600   45.8150 N   0  0  0  0  0  0  0  0  0  0  0  0
   45.9050   33.1220   46.7060 C   0  0  0  0  0  0  0  0  0  0  0  0
   45.0820   34.0550   46.1580 N   0  0  0  0  0  0  0  0  0  0  0  0
   45.5550   34.3810   44.9250 C   0  0  0  0  0  0  0  0  0  0  0  0
   45.1590   35.2440   43.9150 C   0  0  0  0  0  0  0  0  0  0  0  0
   48.4660   33.5550   40.7830 C   0  0  0  0  0  0  0  0  0  0  0  0
   48.5620   33.4560   39.3120 C   0  0  0  0  0  0  0  0  0  0  0  0
   49.1190   32.2890   38.8030 C   0  0  0  0  0  0  0  0  0  0  0  0
   49.2380   32.1350   37.4360 C   0  0  0  0  0  0  0  0  0  0  0  0
   48.7940   33.1530   36.6140 N   0  0  0  0  0  0  0  0  0  0  0  0
   48.2570   34.2740   37.1540 C   0  0  0  0  0  0  0  0  0  0  0  0
   48.1400   34.4290   38.4670 N   0  0  0  0  0  0  0  0  0  0  0  0
   49.6810   30.9940   39.9140 S   0  0  0  0  0  0  0  0  0  0  0  0
   46.9936   35.0436   40.4749 H   0  0  0  0  0  0  0  0  0  0  0  0
   48.4867   35.5560   41.4057 H   0  0  0  0  0  0  0  0  0  0  0  0
   45.5210   36.0582   41.9641 H   0  0  0  0  0  0  0  0  0  0  0  0
   48.3143   33.1247   43.4037 H   0  0  0  0  0  0  0  0  0  0  0  0
   47.6739   32.1936   45.9543 H   0  0  0  0  0  0  0  0  0  0  0  0
   45.7869   32.6592   47.6969 H   0  0  0  0  0  0  0  0  0  0  0  0
   44.2537   35.8528   44.0559 H   0  0  0  0  0  0  0  0  0  0  0  0
   49.4841   33.5824   41.1987 H   0  0  0  0  0  0  0  0  0  0  0  0
   47.9000   32.6792   41.1333 H   0  0  0  0  0  0  0  0  0  0  0  0
   49.6772   31.2208   37.0102 H   0  0  0  0  0  0  0  0  0  0  0  0
   47.9090   35.0763   36.4868 H   0  0  0  0  0  0  0  0  0  0  0  0
   49.5059   31.3976   41.2114 H   0  0  0  0  0  0  0  0  0  0  0  0
  1  3  1  0
  2 10  2  0
  3  2  1  0
  3  4  2  0
  4  5  1  0
  5  9  2  0
  5  6  1  0
  6  7  1  0
  8  7  2  0
  9  8  1  0
 10  9  1  0
 11  1  1  0
 12 11  1  0
 13 12  2  0
 13 18  1  0
 14 13  1  0
 15 16  1  0
 15 14  2  0
 16 17  2  0
 17 12  1  0
  1 19  1  0
  1 20  1  0
  2 21  1  0
  4 22  1  0
  6 23  1  0
  7 24  1  0
 10 25  1  0
 11 26  1  0
 11 27  1  0
 14 28  1  0
 16 29  1  0
 18 30  1  0
M  ISO  8  19   8  20   8  21  14  22  14  23   9  24  14  25  14  26   8
M  ISO  4  27   8  28  14  29  14  30  11
M  END
>  <minimizedAffinity>  (1) 
-4.95015478

>  <minimizedRMSD>  (1) 
7.52551413

$$$$
