
     RDKit          3D

 28 30  0  0  0  0  0  0  0  0999 V2000
   45.5830   32.6940   47.4050 C   0  0  0  0  0  0  0  0  0  0  0  0
   47.7930   32.3140   48.4960 C   0  0  0  0  0  0  0  0  0  0  0  0
   46.6990   31.7740   47.8130 C   0  0  0  0  0  0  0  0  0  0  0  0
   46.6510   30.4230   47.5240 C   0  0  0  0  0  0  0  0  0  0  0  0
   47.6930   29.6150   47.9150 C   0  0  0  0  0  0  0  0  0  0  0  0
   47.9330   28.2960   47.7820 N   0  0  0  0  0  0  0  0  0  0  0  0
   49.1400   28.0440   48.3710 C   0  0  0  0  0  0  0  0  0  0  0  0
   49.6620   29.1840   48.8690 N   0  0  0  0  0  0  0  0  0  0  0  0
   48.7770   30.1660   48.5950 C   0  0  0  0  0  0  0  0  0  0  0  0
   48.8470   31.5060   48.8940 C   0  0  0  0  0  0  0  0  0  0  0  0
   45.1930   34.9690   44.5900 C   0  0  0  0  0  0  0  0  0  0  0  0
   46.1820   34.5780   43.6780 C   0  0  0  0  0  0  0  0  0  0  0  0
   46.9920   33.5130   44.0450 C   0  0  0  0  0  0  0  0  0  0  0  0
   46.7990   32.9120   45.2380 N   0  0  0  0  0  0  0  0  0  0  0  0
   45.8410   33.3150   46.0850 C   0  0  0  0  0  0  0  0  0  0  0  0
   45.0220   34.3550   45.7690 N   0  0  0  0  0  0  0  0  0  0  0  0
   46.2510   35.3130   42.4730 N   0  0  0  0  0  0  0  0  0  0  0  0
   44.6474   32.1179   47.3514 H   0  0  0  0  0  0  0  0  0  0  0  0
   45.5088   33.4967   48.1534 H   0  0  0  0  0  0  0  0  0  0  0  0
   47.8177   33.3907   48.7198 H   0  0  0  0  0  0  0  0  0  0  0  0
   45.7893   29.9991   46.9875 H   0  0  0  0  0  0  0  0  0  0  0  0
   47.3212   27.6066   47.3224 H   0  0  0  0  0  0  0  0  0  0  0  0
   49.6171   27.0546   48.4305 H   0  0  0  0  0  0  0  0  0  0  0  0
   49.7111   31.9235   49.4315 H   0  0  0  0  0  0  0  0  0  0  0  0
   44.5334   35.8098   44.3292 H   0  0  0  0  0  0  0  0  0  0  0  0
   47.7853   33.1612   43.3690 H   0  0  0  0  0  0  0  0  0  0  0  0
   45.5951   36.0892   42.3049 H   0  0  0  0  0  0  0  0  0  0  0  0
   46.9572   35.0725   41.7628 H   0  0  0  0  0  0  0  0  0  0  0  0
  1  3  1  0
  2 10  2  0
  3  2  1  0
  4  3  2  0
  4  5  1  0
  5  9  2  0
  6  5  1  0
  6  7  1  0
  7  8  2  0
  9  8  1  0
  9 10  1  0
 11 16  2  0
 12 13  2  0
 12 11  1  0
 13 14  1  0
 14 15  2  0
 15  1  1  0
 16 15  1  0
 17 12  1  0
  1 18  1  0
  1 19  1  0
  2 20  1  0
  4 21  1  0
  6 22  1  0
  7 23  1  0
 10 24  1  0
 11 25  1  0
 13 26  1  0
 17 27  1  0
 17 28  1  0
M  ISO  8  18   8  19   8  20  14  21  14  22   9  23  14  24  14  25  14
M  ISO  1  26  14
M  END
>  <minimizedAffinity>  (1) 
-4.65022898

>  <minimizedRMSD>  (1) 
3.18823886

$$$$
