
     RDKit          3D

 30 32  0  0  0  0  0  0  0  0999 V2000
   45.4460   34.8160   42.6340 C   0  0  0  0  0  0  0  0  0  0  0  0
   46.5090   35.2970   41.8640 C   0  0  0  0  0  0  0  0  0  0  0  0
   47.8070   34.9280   42.2980 C   0  0  0  0  0  0  0  0  0  0  0  0
   47.9080   34.1490   43.4100 N   0  0  0  0  0  0  0  0  0  0  0  0
   46.8380   33.7210   44.1050 C   0  0  0  0  0  0  0  0  0  0  0  0
   45.6000   34.0520   43.7210 N   0  0  0  0  0  0  0  0  0  0  0  0
   43.6610   34.3830   41.1430 C   0  0  0  0  0  0  0  0  0  0  0  0
   44.4980   33.5650   40.6310 O   0  0  0  0  0  0  0  0  0  0  0  0
   44.1010   35.1440   42.2610 N   0  0  0  0  0  0  0  0  0  0  0  0
   41.3740   35.4510   41.0600 C   0  0  0  0  0  0  0  0  0  0  0  0
   42.3090   34.5360   40.6070 C   0  0  0  0  0  0  0  0  0  0  0  0
   41.9310   33.7140   39.5800 C   0  0  0  0  0  0  0  0  0  0  0  0
   40.6590   33.7880   39.0050 C   0  0  0  0  0  0  0  0  0  0  0  0
   40.0460   33.1090   38.0030 N   0  0  0  0  0  0  0  0  0  0  0  0
   38.7840   33.6000   37.8570 C   0  0  0  0  0  0  0  0  0  0  0  0
   38.5990   34.5790   38.7570 N   0  0  0  0  0  0  0  0  0  0  0  0
   39.7330   34.7090   39.4680 C   0  0  0  0  0  0  0  0  0  0  0  0
   40.1150   35.5380   40.5050 C   0  0  0  0  0  0  0  0  0  0  0  0
   48.8970   35.4430   41.4790 C   0  0  0  0  0  0  0  0  0  0  0  0
   50.0470   34.6850   41.7460 F   0  0  0  0  0  0  0  0  0  0  0  0
   49.1870   36.7190   41.9350 F   0  0  0  0  0  0  0  0  0  0  0  0
   48.6650   35.3590   40.1420 F   0  0  0  0  0  0  0  0  0  0  0  0
   46.3479   35.9241   40.9748 H   0  0  0  0  0  0  0  0  0  0  0  0
   46.9827   33.0934   44.9967 H   0  0  0  0  0  0  0  0  0  0  0  0
   43.5230   35.8462   42.7445 H   0  0  0  0  0  0  0  0  0  0  0  0
   41.6429   36.1269   41.8851 H   0  0  0  0  0  0  0  0  0  0  0  0
   42.6486   32.9740   39.1961 H   0  0  0  0  0  0  0  0  0  0  0  0
   40.4645   32.3500   37.4465 H   0  0  0  0  0  0  0  0  0  0  0  0
   38.0407   33.2526   37.1243 H   0  0  0  0  0  0  0  0  0  0  0  0
   39.4025   36.2801   40.8945 H   0  0  0  0  0  0  0  0  0  0  0  0
  1  6  2  0
  2  3  2  0
  2  1  1  0
  3  4  1  0
  4  5  2  0
  6  5  1  0
  7  9  1  0
  8  7  2  0
  9  1  1  0
 11 10  2  0
 11  7  1  0
 12 11  1  0
 13 17  1  0
 13 12  2  0
 14 13  1  0
 15 14  1  0
 15 16  2  0
 16 17  1  0
 17 18  2  0
 18 10  1  0
 19 20  1  0
 19 21  1  0
 19  3  1  0
 22 19  1  0
  2 23  1  0
  5 24  1  0
  9 25  1  0
 10 26  1  0
 12 27  1  0
 14 28  1  0
 15 29  1  0
 18 30  1  0
M  ISO  7  23  14  24  14  26  14  27  14  28   9  29  14  30  14
M  END
>  <minimizedAffinity>  (1) 
-6.52683306

>  <minimizedRMSD>  (1) 
1.75363433

$$$$
