
     RDKit          3D

 50 53  0  0  1  0  0  0  0  0999 V2000
   46.6460   34.5630   43.5230 N   0  0  0  0  0  0  0  0  0  0  0  0
   46.1300   35.5650   42.6630 C   0  0  0  0  0  0  0  0  0  0  0  0
   44.6310   35.7210   42.6740 C   0  0  0  0  0  0  0  0  0  0  0  0
   43.9820   35.4240   43.9990 C   0  0  0  0  0  0  0  0  0  0  0  0
   45.0060   35.1350   45.0700 C   0  0  0  0  0  0  0  0  0  0  0  0
   45.8340   33.9440   44.4610 C   0  0  2  0  0  0  0  0  0  0  0  0
   47.7500   33.8310   42.9750 C   0  0  0  0  0  0  0  0  0  0  0  0
   47.2180   32.7260   42.1130 C   0  0  0  0  0  0  0  0  0  0  0  0
   49.0590   31.9770   38.9270 C   0  0  0  0  0  0  0  0  0  0  0  0
   48.5330   31.8570   40.2260 C   0  0  0  0  0  0  0  0  0  0  0  0
   47.7640   32.8710   40.7390 C   0  0  0  0  0  0  0  0  0  0  0  0
   47.5480   33.9410   39.9640 N   0  0  0  0  0  0  0  0  0  0  0  0
   48.0490   34.0580   38.7230 C   0  0  0  0  0  0  0  0  0  0  0  0
   48.8050   33.0840   38.1920 N   0  0  0  0  0  0  0  0  0  0  0  0
   46.5590   33.5200   45.5680 O   0  0  0  0  0  0  0  0  0  0  0  0
   45.6320   31.1470   44.8310 O   0  0  0  0  0  0  0  0  0  0  0  0
   46.2230   31.9240   45.9920 P   0  0  2  0  0  0  0  0  0  0  0  0
   44.9740   32.0010   47.1620 O   0  0  0  0  0  0  0  0  0  0  0  0
   47.5450   31.1860   46.6850 O   0  0  0  0  0  0  0  0  0  0  0  0
   48.9850   29.3400   46.9870 C   0  0  0  0  0  0  0  0  0  0  0  0
   47.6900   29.8670   47.0160 C   0  0  0  0  0  0  0  0  0  0  0  0
   46.6510   29.0280   47.3700 C   0  0  0  0  0  0  0  0  0  0  0  0
   46.9200   27.6930   47.6880 C   0  0  0  0  0  0  0  0  0  0  0  0
   46.0750   26.6940   48.0610 N   0  0  0  0  0  0  0  0  0  0  0  0
   46.7750   25.5600   48.2700 C   0  0  0  0  0  0  0  0  0  0  0  0
   48.0710   25.8580   48.0240 N   0  0  0  0  0  0  0  0  0  0  0  0
   48.1920   27.1610   47.6640 C   0  0  0  0  0  0  0  0  0  0  0  0
   49.2210   28.0090   47.3080 C   0  0  0  0  0  0  0  0  0  0  0  0
   46.4377   35.3210   41.6355 H   0  0  0  0  0  0  0  0  0  0  0  0
   46.5354   36.5183   43.0329 H   0  0  0  0  0  0  0  0  0  0  0  0
   44.3916   36.7589   42.3992 H   0  0  0  0  0  0  0  0  0  0  0  0
   44.2347   34.9844   41.9596 H   0  0  0  0  0  0  0  0  0  0  0  0
   43.3819   36.2937   44.3049 H   0  0  0  0  0  0  0  0  0  0  0  0
   43.3501   34.5316   43.8790 H   0  0  0  0  0  0  0  0  0  0  0  0
   45.6473   36.0105   45.2495 H   0  0  0  0  0  0  0  0  0  0  0  0
   44.5559   34.8946   46.0445 H   0  0  0  0  0  0  0  0  0  0  0  0
   45.2942   33.1094   43.9898 H   0  0  0  0  0  0  0  0  0  0  0  0
   48.3752   34.5036   42.3695 H   0  0  0  0  0  0  0  0  0  0  0  0
   48.3591   33.4097   43.7883 H   0  0  0  0  0  0  0  0  0  0  0  0
   47.5237   31.7549   42.5296 H   0  0  0  0  0  0  0  0  0  0  0  0
   46.1197   32.7787   42.0813 H   0  0  0  0  0  0  0  0  0  0  0  0
   49.6777   31.1697   38.5082 H   0  0  0  0  0  0  0  0  0  0  0  0
   48.7365   30.9576   40.8257 H   0  0  0  0  0  0  0  0  0  0  0  0
   47.8372   34.9630   38.1347 H   0  0  0  0  0  0  0  0  0  0  0  0
   45.3697   31.9766   48.0692 H   0  0  0  0  0  0  0  0  0  0  0  0
   49.8283   29.9881   46.7062 H   0  0  0  0  0  0  0  0  0  0  0  0
   45.6190   29.4075   47.4015 H   0  0  0  0  0  0  0  0  0  0  0  0
   45.0550   26.7892   48.1677 H   0  0  0  0  0  0  0  0  0  0  0  0
   46.3711   24.5848   48.5796 H   0  0  0  0  0  0  0  0  0  0  0  0
   50.2505   27.6227   47.2777 H   0  0  0  0  0  0  0  0  0  0  0  0
  1  6  1  0
  2  3  1  0
  2  1  1  0
  3  4  1  0
  4  5  1  0
  6  5  1  0
  6 15  1  0
  7  1  1  0
  8  7  1  0
  9 10  2  0
 10 11  1  0
 11  8  1  0
 12 11  2  0
 13 12  1  0
 14 13  2  0
 14  9  1  0
 15 17  1  0
 17 16  2  0
 17 19  1  0
 17 18  1  0
 19 21  1  0
 20 21  2  0
 20 28  1  0
 21 22  1  0
 22 23  2  0
 23 24  1  0
 24 25  1  0
 26 25  2  0
 27 23  1  0
 27 26  1  0
 28 27  2  0
  2 29  1  0
  2 30  1  0
  3 31  1  0
  3 32  1  0
  4 33  1  0
  4 34  1  0
  5 35  1  0
  5 36  1  0
  6 37  1  6
  7 38  1  0
  7 39  1  0
  8 40  1  0
  8 41  1  0
  9 42  1  0
 10 43  1  0
 13 44  1  0
 18 45  1  0
 20 46  1  0
 22 47  1  0
 24 48  1  0
 25 49  1  0
 28 50  1  0
M  ISO  8  29  13  30  13  31  13  32  13  33  13  34  13  35  13  36  13
M  ISO  8  37  13  38   8  39   8  40   8  41   8  42  14  43  14  44  14
M  ISO  6  45   3  46  14  47  14  48   9  49  14  50  14
M  END
>  <minimizedAffinity>  (1) 
-4.71754265

>  <minimizedRMSD>  (1) 
1.32831407

$$$$
