
     RDKit          3D

 27 29  0  0  0  0  0  0  0  0999 V2000
   45.6120   34.2430   41.3180 C   0  0  0  0  0  0  0  0  0  0  0  0
   43.8460   33.8110   39.5550 C   0  0  0  0  0  0  0  0  0  0  0  0
   44.2670   34.4140   40.7140 C   0  0  0  0  0  0  0  0  0  0  0  0
   43.4160   35.2460   41.4000 C   0  0  0  0  0  0  0  0  0  0  0  0
   42.1170   35.5210   40.9800 C   0  0  0  0  0  0  0  0  0  0  0  0
   41.1080   36.2730   41.4460 N   0  0  0  0  0  0  0  0  0  0  0  0
   40.0580   36.1450   40.5900 C   0  0  0  0  0  0  0  0  0  0  0  0
   40.4290   35.3110   39.5960 N   0  0  0  0  0  0  0  0  0  0  0  0
   41.6990   34.9120   39.8160 C   0  0  0  0  0  0  0  0  0  0  0  0
   42.5770   34.0760   39.1410 C   0  0  0  0  0  0  0  0  0  0  0  0
   45.8690   35.3270   42.7300 S   0  0  0  0  0  0  0  0  0  0  0  0
   45.1190   34.5790   45.3040 C   0  0  0  0  0  0  0  0  0  0  0  0
   45.9930   34.3240   44.2300 C   0  0  0  0  0  0  0  0  0  0  0  0
   46.9540   33.3090   44.3060 C   0  0  0  0  0  0  0  0  0  0  0  0
   46.9860   32.5970   45.4690 N   0  0  0  0  0  0  0  0  0  0  0  0
   46.1430   32.8650   46.4660 C   0  0  0  0  0  0  0  0  0  0  0  0
   45.2260   33.8200   46.4170 N   0  0  0  0  0  0  0  0  0  0  0  0
   46.3730   34.4679   40.5563 H   0  0  0  0  0  0  0  0  0  0  0  0
   45.6924   33.2046   41.6719 H   0  0  0  0  0  0  0  0  0  0  0  0
   44.5067   33.1416   38.9847 H   0  0  0  0  0  0  0  0  0  0  0  0
   43.7780   35.7177   42.3255 H   0  0  0  0  0  0  0  0  0  0  0  0
   41.1253   36.8464   42.3014 H   0  0  0  0  0  0  0  0  0  0  0  0
   39.0785   36.6354   40.6906 H   0  0  0  0  0  0  0  0  0  0  0  0
   42.2258   33.5982   38.2145 H   0  0  0  0  0  0  0  0  0  0  0  0
   44.3659   35.3781   45.2386 H   0  0  0  0  0  0  0  0  0  0  0  0
   47.6437   33.0977   43.4755 H   0  0  0  0  0  0  0  0  0  0  0  0
   46.2126   32.2590   47.3814 H   0  0  0  0  0  0  0  0  0  0  0  0
  1 11  1  0
  2  3  2  0
  3  1  1  0
  3  4  1  0
  5  4  2  0
  5  6  1  0
  7  6  1  0
  8  9  1  0
  8  7  2  0
  9  5  1  0
 10  2  1  0
 10  9  2  0
 11 13  1  0
 12 17  2  0
 13 14  2  0
 13 12  1  0
 14 15  1  0
 15 16  2  0
 17 16  1  0
  1 18  1  0
  1 19  1  0
  2 20  1  0
  4 21  1  0
  6 22  1  0
  7 23  1  0
 10 24  1  0
 12 25  1  0
 14 26  1  0
 16 27  1  0
M  ISO  8  18   8  19   8  20  14  21  14  22   9  23  14  24  14  25  14
M  ISO  2  26  14  27  14
M  END
>  <minimizedAffinity>  (1) 
-4.90100288

>  <minimizedRMSD>  (1) 
2.72363257

$$$$
