
     RDKit          3D

 44 48  0  0  1  0  0  0  0  0999 V2000
   47.8930   34.7810   41.5190 C   0  0  0  0  0  0  0  0  0  0  0  0
   48.7620   35.6650   41.2660 O   0  0  0  0  0  0  0  0  0  0  0  0
   46.9010   34.8200   42.5370 C   0  0  0  0  0  0  0  0  0  0  0  0
   46.0070   35.8400   42.4810 C   0  0  0  0  0  0  0  0  0  0  0  0
   45.0160   35.9300   43.4510 C   0  0  0  0  0  0  0  0  0  0  0  0
   44.9900   34.9960   44.4050 N   0  0  0  0  0  0  0  0  0  0  0  0
   45.8700   33.9950   44.4580 C   0  0  0  0  0  0  0  0  0  0  0  0
   46.8190   33.9310   43.5070 N   0  0  0  0  0  0  0  0  0  0  0  0
   46.0580   31.6670   45.1880 C   0  0  0  0  0  0  0  0  0  0  0  0
   45.8160   32.9860   45.5160 C   0  0  0  0  0  0  0  0  0  0  0  0
   45.5330   33.2910   46.8320 C   0  0  0  0  0  0  0  0  0  0  0  0
   45.5130   32.2310   47.7420 C   0  0  0  0  0  0  0  0  0  0  0  0
   45.2690   32.2220   49.0800 N   0  0  0  0  0  0  0  0  0  0  0  0
   45.3590   30.9480   49.5490 C   0  0  0  0  0  0  0  0  0  0  0  0
   45.6640   30.1450   48.4880 N   0  0  0  0  0  0  0  0  0  0  0  0
   45.7580   30.9070   47.3970 C   0  0  0  0  0  0  0  0  0  0  0  0
   46.0420   30.6110   46.0760 C   0  0  0  0  0  0  0  0  0  0  0  0
   47.9170   33.6410   40.6990 O   0  0  0  0  0  0  0  0  0  0  0  0
   47.9120   33.8130   39.2890 C   0  0  0  0  0  0  0  0  0  0  0  0
   48.5810   34.7240   38.4580 C   0  0  0  0  0  0  0  0  0  0  0  0
   48.2290   34.4670   37.1480 C   0  0  0  0  0  0  0  0  0  0  0  0
   47.3690   33.4210   37.2380 C   0  0  0  0  0  0  0  0  0  0  0  0
   47.1860   33.0410   38.4890 O   0  0  0  0  0  0  0  0  0  0  0  0
   46.7130   32.7840   36.0800 C   0  0  2  0  0  0  0  0  0  0  0  0
   46.8360   31.3470   35.8450 C   0  0  0  0  0  0  0  0  0  0  0  0
   47.7140   32.2310   35.0280 C   0  0  1  0  0  0  0  0  0  0  0  0
   48.2210   32.8890   32.6890 C   0  0  0  0  0  0  0  0  0  0  0  0
   49.4260   33.1640   32.9610 O   0  0  0  0  0  0  0  0  0  0  0  0
   47.2750   32.4670   33.6580 N   0  0  0  0  0  0  0  0  0  0  0  0
   46.0664   36.5875   41.6762 H   0  0  0  0  0  0  0  0  0  0  0  0
   44.2768   36.7444   43.4335 H   0  0  0  0  0  0  0  0  0  0  0  0
   46.2813   31.4398   44.1351 H   0  0  0  0  0  0  0  0  0  0  0  0
   45.3318   34.3244   47.1507 H   0  0  0  0  0  0  0  0  0  0  0  0
   45.0500   33.0514   49.6501 H   0  0  0  0  0  0  0  0  0  0  0  0
   45.2130   30.6249   50.5903 H   0  0  0  0  0  0  0  0  0  0  0  0
   46.2458   29.5809   45.7484 H   0  0  0  0  0  0  0  0  0  0  0  0
   49.2711   35.5119   38.7942 H   0  0  0  0  0  0  0  0  0  0  0  0
   48.5674   34.9893   36.2410 H   0  0  0  0  0  0  0  0  0  0  0  0
   45.8436   33.4567   36.1193 H   0  0  0  0  0  0  0  0  0  0  0  0
   47.2841   30.7093   36.6213 H   0  0  0  0  0  0  0  0  0  0  0  0
   46.1131   30.5571   35.5929 H   0  0  0  0  0  0  0  0  0  0  0  0
   48.7942   32.2842   34.8270 H   0  0  0  0  0  0  0  0  0  0  0  0
   47.8892   32.9823   31.6444 H   0  0  0  0  0  0  0  0  0  0  0  0
   46.2884   32.3288   33.3965 H   0  0  0  0  0  0  0  0  0  0  0  0
  1  3  1  0
  2  1  2  0
  3  8  1  0
  4  3  2  0
  4  5  1  0
  5  6  2  0
  6  7  1  0
  7 10  1  0
  8  7  2  0
  9 10  2  0
  9 17  1  0
 10 11  1  0
 11 12  2  0
 12 13  1  0
 13 14  1  0
 15 14  2  0
 16 12  1  0
 16 15  1  0
 17 16  2  0
 18  1  1  0
 19 18  1  0
 20 19  2  0
 21 22  2  0
 21 20  1  0
 22 23  1  0
 23 19  1  0
 24 22  1  0
 25 24  1  0
 26 25  1  0
 26 24  1  0
 27 28  2  0
 27 29  1  0
 29 26  1  0
  4 30  1  0
  5 31  1  0
  9 32  1  0
 11 33  1  0
 13 34  1  0
 14 35  1  0
 17 36  1  0
 20 37  1  0
 21 38  1  0
 24 39  1  6
 25 40  1  0
 25 41  1  0
 26 42  1  6
 27 43  1  0
 29 44  1  0
M  ISO  8  30  14  31  14  32  14  33  14  34   9  35  14  36  14  37  14
M  ISO  6  38  14  39  13  40  13  41  13  42  13  43   6
M  END
>  <minimizedAffinity>  (1) 
-6.75079584

>  <minimizedRMSD>  (1) 
0.751962364

$$$$
