
     RDKit          3D

 26 28  0  0  0  0  0  0  0  0999 V2000
   46.5270   34.8420   42.9570 C   0  0  0  0  0  0  0  0  0  0  0  0
   47.1510   32.7760   44.1330 C   0  0  0  0  0  0  0  0  0  0  0  0
   46.4250   33.9490   44.1430 C   0  0  0  0  0  0  0  0  0  0  0  0
   45.6330   34.2690   45.2270 C   0  0  0  0  0  0  0  0  0  0  0  0
   45.5530   33.4250   46.3180 C   0  0  0  0  0  0  0  0  0  0  0  0
   44.8760   33.4740   47.4990 N   0  0  0  0  0  0  0  0  0  0  0  0
   45.2110   32.3330   48.1680 C   0  0  0  0  0  0  0  0  0  0  0  0
   46.0700   31.5940   47.4290 N   0  0  0  0  0  0  0  0  0  0  0  0
   46.2800   32.2710   46.2870 C   0  0  0  0  0  0  0  0  0  0  0  0
   47.0910   31.9060   45.2190 C   0  0  0  0  0  0  0  0  0  0  0  0
   44.2530   33.8380   40.1910 C   0  0  0  0  0  0  0  0  0  0  0  0
   45.3750   33.8880   41.0460 C   0  0  0  0  0  0  0  0  0  0  0  0
   45.3570   34.8040   42.0830 C   0  0  0  0  0  0  0  0  0  0  0  0
   44.2660   35.6120   42.2340 N   0  0  0  0  0  0  0  0  0  0  0  0
   43.2130   35.5320   41.3940 C   0  0  0  0  0  0  0  0  0  0  0  0
   43.2010   34.6580   40.3840 N   0  0  0  0  0  0  0  0  0  0  0  0
   46.6605   35.8746   43.3118 H   0  0  0  0  0  0  0  0  0  0  0  0
   47.3807   34.4852   42.3621 H   0  0  0  0  0  0  0  0  0  0  0  0
   47.7790   32.5271   43.2649 H   0  0  0  0  0  0  0  0  0  0  0  0
   45.0586   35.2071   45.2223 H   0  0  0  0  0  0  0  0  0  0  0  0
   44.2417   34.2190   47.8208 H   0  0  0  0  0  0  0  0  0  0  0  0
   44.8368   32.0543   49.1641 H   0  0  0  0  0  0  0  0  0  0  0  0
   47.6632   30.9666   45.2309 H   0  0  0  0  0  0  0  0  0  0  0  0
   44.2371   33.1210   39.3570 H   0  0  0  0  0  0  0  0  0  0  0  0
   46.2358   33.2204   40.8929 H   0  0  0  0  0  0  0  0  0  0  0  0
   42.3501   36.1976   41.5435 H   0  0  0  0  0  0  0  0  0  0  0  0
  1  3  1  0
  2  3  2  0
  2 10  1  0
  3  4  1  0
  4  5  2  0
  5  6  1  0
  6  7  1  0
  8  7  2  0
  9  5  1  0
  9  8  1  0
 10  9  2  0
 11 16  2  0
 11 12  1  0
 12 13  2  0
 13 14  1  0
 13  1  1  0
 15 14  2  0
 16 15  1  0
  1 17  1  0
  1 18  1  0
  2 19  1  0
  4 20  1  0
  6 21  1  0
  7 22  1  0
 10 23  1  0
 11 24  1  0
 12 25  1  0
 15 26  1  0
M  ISO  8  17   8  18   8  19  14  20  14  21   9  22  14  23  14  24  14
M  ISO  2  25  14  26  14
M  END
>  <minimizedAffinity>  (1) 
-5.05803967

>  <minimizedRMSD>  (1) 
5.83911467

$$$$
