
     RDKit          3D

 49 53  0  0  1  0  0  0  0  0999 V2000
   46.6870   29.9440   46.4890 S   0  0  0  0  0  0  0  0  0  0  0  0
   44.5430   35.4490   45.1870 C   0  0  0  0  0  0  0  0  0  0  0  0
   45.1870   35.4640   43.9320 C   0  0  0  0  0  0  0  0  0  0  0  0
   46.1040   34.5110   43.6490 C   0  0  0  0  0  0  0  0  0  0  0  0
   46.3510   33.5840   44.6080 N   0  0  0  0  0  0  0  0  0  0  0  0
   45.7430   33.5730   45.7850 C   0  0  0  0  0  0  0  0  0  0  0  0
   44.8340   34.5000   46.0940 N   0  0  0  0  0  0  0  0  0  0  0  0
   46.0850   32.5430   46.7280 N   0  0  0  0  0  0  0  0  0  0  0  0
   45.3600   32.2740   47.9150 C   0  0  0  0  0  0  0  0  0  0  0  0
   46.4420   31.9070   48.9120 C   0  0  0  0  0  0  0  0  0  0  0  0
   47.7180   31.8170   48.1270 C   0  0  0  0  0  0  0  0  0  0  0  0
   47.2030   31.6330   46.7000 C   0  0  1  0  0  0  0  0  0  0  0  0
   44.8160   36.5140   43.0220 N   0  0  0  0  0  0  0  0  0  0  0  0
   45.3360   30.4630   43.4850 O   0  0  0  0  0  0  0  0  0  0  0  0
   44.8080   29.9190   44.4670 C   0  0  0  0  0  0  0  0  0  0  0  0
   45.0630   29.6770   45.9070 C   0  0  1  0  0  0  0  0  0  0  0  0
   44.5320   28.2760   46.0900 C   0  0  0  0  0  0  0  0  0  0  0  0
   43.1450   28.5010   45.4770 C   0  0  0  0  0  0  0  0  0  0  0  0
   43.5310   29.2720   44.3030 N   0  0  0  0  0  0  0  0  0  0  0  0
   42.5240   28.0460   42.5520 C   0  0  0  0  0  0  0  0  0  0  0  0
   42.6080   29.2730   43.1910 C   0  0  0  0  0  0  0  0  0  0  0  0
   41.8690   30.3400   42.7660 C   0  0  0  0  0  0  0  0  0  0  0  0
   41.0180   30.2010   41.6790 C   0  0  0  0  0  0  0  0  0  0  0  0
   40.2010   31.0870   41.0810 N   0  0  0  0  0  0  0  0  0  0  0  0
   39.5960   30.4160   40.0590 C   0  0  0  0  0  0  0  0  0  0  0  0
   40.0130   29.1450   40.0050 N   0  0  0  0  0  0  0  0  0  0  0  0
   40.8970   28.9840   41.0020 C   0  0  0  0  0  0  0  0  0  0  0  0
   41.6720   27.9200   41.4710 C   0  0  0  0  0  0  0  0  0  0  0  0
   43.7961   36.2205   45.4257 H   0  0  0  0  0  0  0  0  0  0  0  0
   46.6275   34.4886   42.6818 H   0  0  0  0  0  0  0  0  0  0  0  0
   44.8042   33.1634   48.2469 H   0  0  0  0  0  0  0  0  0  0  0  0
   44.6066   31.4826   47.7881 H   0  0  0  0  0  0  0  0  0  0  0  0
   46.5250   32.6822   49.6880 H   0  0  0  0  0  0  0  0  0  0  0  0
   46.2151   30.9582   49.4203 H   0  0  0  0  0  0  0  0  0  0  0  0
   48.3111   32.7386   48.2218 H   0  0  0  0  0  0  0  0  0  0  0  0
   48.3887   31.0124   48.4629 H   0  0  0  0  0  0  0  0  0  0  0  0
   47.9151   31.8266   45.8843 H   0  0  0  0  0  0  0  0  0  0  0  0
   45.2568   36.5698   42.0928 H   0  0  0  0  0  0  0  0  0  0  0  0
   44.1095   37.2102   43.2995 H   0  0  0  0  0  0  0  0  0  0  0  0
   44.5652   30.4264   46.5399 H   0  0  0  0  0  0  0  0  0  0  0  0
   45.1190   27.5305   45.5336 H   0  0  0  0  0  0  0  0  0  0  0  0
   44.5513   27.8792   47.1158 H   0  0  0  0  0  0  0  0  0  0  0  0
   42.6567   27.5536   45.2049 H   0  0  0  0  0  0  0  0  0  0  0  0
   42.4109   28.9851   46.1379 H   0  0  0  0  0  0  0  0  0  0  0  0
   43.1228   27.1905   42.8979 H   0  0  0  0  0  0  0  0  0  0  0  0
   41.9483   31.3071   43.2841 H   0  0  0  0  0  0  0  0  0  0  0  0
   40.0606   32.0734   41.3423 H   0  0  0  0  0  0  0  0  0  0  0  0
   38.8625   30.8605   39.3703 H   0  0  0  0  0  0  0  0  0  0  0  0
   41.6015   26.9475   40.9617 H   0  0  0  0  0  0  0  0  0  0  0  0
  1 12  1  0
  2  7  2  0
  3  2  1  0
  4  3  2  0
  4  5  1  0
  5  6  2  0
  6  7  1  0
  6  8  1  0
  8  9  1  0
  9 10  1  0
 11 10  1  0
 12  8  1  0
 12 11  1  0
 13  3  1  0
 14 15  2  0
 15 16  1  0
 16 17  1  0
 16  1  1  0
 18 17  1  0
 19 15  1  0
 19 18  1  0
 20 21  2  0
 21 19  1  0
 22 21  1  0
 23 22  2  0
 24 23  1  0
 25 24  1  0
 26 25  2  0
 26 27  1  0
 27 28  2  0
 27 23  1  0
 28 20  1  0
  2 29  1  0
  4 30  1  0
  9 31  1  0
  9 32  1  0
 10 33  1  0
 10 34  1  0
 11 35  1  0
 11 36  1  0
 12 37  1  6
 13 38  1  0
 13 39  1  0
 16 40  1  1
 17 41  1  0
 17 42  1  0
 18 43  1  0
 18 44  1  0
 20 45  1  0
 22 46  1  0
 24 47  1  0
 25 48  1  0
 28 49  1  0
M  ISO  8  29  14  30  14  31  13  32  13  33  13  34  13  35  13  36  13
M  ISO  8  37  13  40  13  41  13  42  13  43  13  44  13  45  14  46  14
M  ISO  3  47   9  48  14  49  14
M  END
>  <minimizedAffinity>  (1) 
-5.69781494

>  <minimizedRMSD>  (1) 
0.679533064

$$$$
