
     RDKit          3D

 29 31  0  0  0  0  0  0  0  0999 V2000
   48.7440   34.2770   42.8220 C   0  0  0  0  0  0  0  0  0  0  0  0
   50.8130   32.9180   42.2030 C   0  0  0  0  0  0  0  0  0  0  0  0
   49.5320   33.3630   41.9490 C   0  0  0  0  0  0  0  0  0  0  0  0
   48.9010   32.9320   40.7850 C   0  0  0  0  0  0  0  0  0  0  0  0
   49.4720   32.0860   39.8570 C   0  0  0  0  0  0  0  0  0  0  0  0
   49.0460   31.5610   38.6960 N   0  0  0  0  0  0  0  0  0  0  0  0
   50.0410   30.8060   38.2320 C   0  0  0  0  0  0  0  0  0  0  0  0
   51.0930   30.8530   39.1010 N   0  0  0  0  0  0  0  0  0  0  0  0
   50.7600   31.6610   40.1450 C   0  0  0  0  0  0  0  0  0  0  0  0
   51.4240   32.0680   41.2990 C   0  0  0  0  0  0  0  0  0  0  0  0
   47.6350   33.4480   43.4360 C   0  0  0  0  0  0  0  0  0  0  0  0
   46.5080   34.3240   43.7480 C   0  0  0  0  0  0  0  0  0  0  0  0
   46.0570   35.2950   42.8650 C   0  0  0  0  0  0  0  0  0  0  0  0
   44.9580   36.0920   43.2580 C   0  0  0  0  0  0  0  0  0  0  0  0
   44.4050   35.8560   44.4890 N   0  0  0  0  0  0  0  0  0  0  0  0
   44.8770   34.9020   45.3090 C   0  0  0  0  0  0  0  0  0  0  0  0
   45.9130   34.1600   44.9260 N   0  0  0  0  0  0  0  0  0  0  0  0
   48.3178   35.0968   42.2251 H   0  0  0  0  0  0  0  0  0  0  0  0
   49.3795   34.7244   43.6005 H   0  0  0  0  0  0  0  0  0  0  0  0
   51.3421   33.2354   43.1136 H   0  0  0  0  0  0  0  0  0  0  0  0
   47.8789   33.2901   40.5926 H   0  0  0  0  0  0  0  0  0  0  0  0
   48.1293   31.7125   38.2514 H   0  0  0  0  0  0  0  0  0  0  0  0
   50.0184   30.2330   37.2933 H   0  0  0  0  0  0  0  0  0  0  0  0
   52.4456   31.7097   41.4939 H   0  0  0  0  0  0  0  0  0  0  0  0
   47.3148   32.6736   42.7234 H   0  0  0  0  0  0  0  0  0  0  0  0
   47.9964   32.9633   44.3549 H   0  0  0  0  0  0  0  0  0  0  0  0
   46.5407   35.4401   41.8878 H   0  0  0  0  0  0  0  0  0  0  0  0
   44.5597   36.8760   42.5972 H   0  0  0  0  0  0  0  0  0  0  0  0
   44.4099   34.7354   46.2909 H   0  0  0  0  0  0  0  0  0  0  0  0
  1 11  1  0
  3  2  2  0
  3  1  1  0
  4  3  1  0
  5  9  1  0
  5  4  2  0
  6  5  1  0
  7  6  1  0
  7  8  2  0
  8  9  1  0
  9 10  2  0
 10  2  1  0
 11 12  1  0
 12 17  2  0
 13 14  2  0
 13 12  1  0
 14 15  1  0
 15 16  2  0
 17 16  1  0
  1 18  1  0
  1 19  1  0
  2 20  1  0
  4 21  1  0
  6 22  1  0
  7 23  1  0
 10 24  1  0
 11 25  1  0
 11 26  1  0
 13 27  1  0
 14 28  1  0
 16 29  1  0
M  ISO  8  18   8  19   8  20  14  21  14  22   9  23  14  24  14  25   8
M  ISO  4  26   8  27  14  28  14  29  14
M  END
>  <minimizedAffinity>  (1) 
-4.58054781

>  <minimizedRMSD>  (1) 
2.19577384

$$$$
