
     RDKit          3D

 52 56  0  0  1  0  0  0  0  0999 V2000
   45.2080   36.9900   42.8460 C   0  0  0  0  0  0  0  0  0  0  0  0
   45.5440   35.7570   43.6510 C   0  0  0  0  0  0  0  0  0  0  0  0
   46.5720   34.9220   43.1830 C   0  0  0  0  0  0  0  0  0  0  0  0
   46.9080   33.7720   43.9250 C   0  0  0  0  0  0  0  0  0  0  0  0
   46.2280   33.5370   45.0340 N   0  0  0  0  0  0  0  0  0  0  0  0
   45.2390   34.3510   45.4700 C   0  0  0  0  0  0  0  0  0  0  0  0
   44.8930   35.4700   44.7750 N   0  0  0  0  0  0  0  0  0  0  0  0
   49.0150   33.6750   42.6080 C   0  0  2  0  0  0  0  0  0  0  0  0
   47.9810   32.9600   43.3750 C   0  0  2  0  0  0  0  0  0  0  0  0
   47.5320   31.9870   42.4090 O   0  0  0  0  0  0  0  0  0  0  0  0
   48.7520   31.4290   42.0310 C   0  0  0  0  0  0  0  0  0  0  0  0
   49.8340   32.4510   42.1380 C   0  0  1  0  0  0  0  0  0  0  0  0
   49.7300   34.5970   43.2860 O   0  0  0  0  0  0  0  0  0  0  0  0
   50.4380   32.7550   40.9150 O   0  0  0  0  0  0  0  0  0  0  0  0
   45.3730   39.3550   43.8990 C   0  0  0  0  0  0  0  0  0  0  0  0
   46.1680   39.6900   42.9820 O   0  0  0  0  0  0  0  0  0  0  0  0
   44.8810   38.0310   43.8130 N   0  0  0  0  0  0  0  0  0  0  0  0
   44.9540   40.2260   44.9980 C   0  0  0  0  0  0  0  0  0  0  0  0
   45.5510   40.1130   46.2080 C   0  0  0  0  0  0  0  0  0  0  0  0
   45.0890   40.9840   47.1990 C   0  0  0  0  0  0  0  0  0  0  0  0
   44.0860   41.9200   47.0040 C   0  0  0  0  0  0  0  0  0  0  0  0
   43.5460   41.9610   45.7560 C   0  0  0  0  0  0  0  0  0  0  0  0
   43.9710   41.1400   44.7970 N   0  0  0  0  0  0  0  0  0  0  0  0
   42.5280   43.8080   44.4020 C   0  0  0  0  0  0  0  0  0  0  0  0
   42.4840   42.9090   45.4390 C   0  0  0  0  0  0  0  0  0  0  0  0
   41.3180   42.9630   46.1940 C   0  0  0  0  0  0  0  0  0  0  0  0
   40.2830   43.8210   45.9580 C   0  0  0  0  0  0  0  0  0  0  0  0
   39.0870   44.0160   46.5780 N   0  0  0  0  0  0  0  0  0  0  0  0
   38.4310   45.0050   45.9310 C   0  0  0  0  0  0  0  0  0  0  0  0
   39.2250   45.4240   44.9060 N   0  0  0  0  0  0  0  0  0  0  0  0
   40.3650   44.7080   44.9100 C   0  0  0  0  0  0  0  0  0  0  0  0
   41.5160   44.6990   44.1130 C   0  0  0  0  0  0  0  0  0  0  0  0
   46.0714   37.2940   42.2359 H   0  0  0  0  0  0  0  0  0  0  0  0
   44.3694   36.8037   42.1589 H   0  0  0  0  0  0  0  0  0  0  0  0
   47.1064   35.1620   42.2520 H   0  0  0  0  0  0  0  0  0  0  0  0
   44.7061   34.1051   46.4003 H   0  0  0  0  0  0  0  0  0  0  0  0
   48.6214   34.3291   41.8160 H   0  0  0  0  0  0  0  0  0  0  0  0
   48.3799   32.5352   44.3080 H   0  0  0  0  0  0  0  0  0  0  0  0
   48.6851   31.0765   40.9912 H   0  0  0  0  0  0  0  0  0  0  0  0
   48.9851   30.5845   42.6962 H   0  0  0  0  0  0  0  0  0  0  0  0
   50.6617   32.1246   42.7848 H   0  0  0  0  0  0  0  0  0  0  0  0
   49.6175   34.4519   44.2588 H   0  0  0  0  0  0  0  0  0  0  0  0
   51.3103   33.1940   41.0778 H   0  0  0  0  0  0  0  0  0  0  0  0
   44.1958   37.7655   44.5347 H   0  0  0  0  0  0  0  0  0  0  0  0
   46.3498   39.3814   46.3993 H   0  0  0  0  0  0  0  0  0  0  0  0
   45.5504   40.9225   48.1957 H   0  0  0  0  0  0  0  0  0  0  0  0
   43.7472   42.5888   47.8089 H   0  0  0  0  0  0  0  0  0  0  0  0
   43.4239   43.8180   43.7638 H   0  0  0  0  0  0  0  0  0  0  0  0
   41.2229   42.2663   47.0399 H   0  0  0  0  0  0  0  0  0  0  0  0
   38.7413   43.4989   47.3990 H   0  0  0  0  0  0  0  0  0  0  0  0
   37.4365   45.4000   46.1858 H   0  0  0  0  0  0  0  0  0  0  0  0
   41.6119   45.3945   43.2662 H   0  0  0  0  0  0  0  0  0  0  0  0
  1  2  1  0
  1 17  1  0
  2  7  1  0
  3  2  2  0
  3  4  1  0
  4  5  2  0
  5  6  1  0
  7  6  2  0
  8 13  1  0
  8  9  1  0
  9  4  1  0
 10  9  1  0
 11 12  1  0
 11 10  1  0
 12  8  1  0
 14 12  1  0
 15 18  1  0
 16 15  2  0
 17 15  1  0
 18 19  2  0
 19 20  1  0
 21 20  2  0
 22 21  1  0
 23 18  1  0
 23 22  2  0
 24 25  2  0
 25 22  1  0
 25 26  1  0
 27 26  2  0
 27 28  1  0
 29 28  1  0
 30 31  1  0
 30 29  2  0
 31 27  1  0
 32 24  1  0
 32 31  2  0
  1 33  1  0
  1 34  1  0
  3 35  1  0
  6 36  1  0
  8 37  1  6
  9 38  1  1
 11 39  1  0
 11 40  1  0
 12 41  1  1
 13 42  1  0
 14 43  1  0
 17 44  1  0
 19 45  1  0
 20 46  1  0
 21 47  1  0
 24 48  1  0
 26 49  1  0
 28 50  1  0
 29 51  1  0
 32 52  1  0
M  ISO  8  33   8  34   8  35  14  36  14  37  13  38  13  39  13  40  13
M  ISO  8  41  13  42   3  43   3  45  14  46  14  47  14  48  14  49  14
M  ISO  3  50   9  51  14  52  14
M  END
>  <minimizedAffinity>  (1) 
-4.52033758

>  <minimizedRMSD>  (1) 
1.57714605

$$$$
