
     RDKit          3D

 52 56  0  0  1  0  0  0  0  0999 V2000
   49.1460   32.0640   36.9880 C   0  0  0  0  0  0  0  0  0  0  0  0
   48.2950   32.8880   37.7550 C   0  0  0  0  0  0  0  0  0  0  0  0
   47.0560   33.0460   37.2040 C   0  0  0  0  0  0  0  0  0  0  0  0
   46.6070   32.5000   36.0380 C   0  0  0  0  0  0  0  0  0  0  0  0
   47.4680   31.7020   35.3190 C   0  0  0  0  0  0  0  0  0  0  0  0
   48.7320   31.4990   35.8160 C   0  0  0  0  0  0  0  0  0  0  0  0
   50.1580   31.1650   33.8460 C   0  0  0  0  0  0  0  0  0  0  0  0
   49.8680   32.3320   33.4520 O   0  0  0  0  0  0  0  0  0  0  0  0
   49.6000   30.6660   35.0440 N   0  0  0  0  0  0  0  0  0  0  0  0
   50.6430   29.1850   32.5150 C   0  0  0  0  0  0  0  0  0  0  0  0
   51.0730   30.3990   33.0080 C   0  0  0  0  0  0  0  0  0  0  0  0
   52.3400   30.8390   32.6890 C   0  0  0  0  0  0  0  0  0  0  0  0
   53.1570   30.0480   31.8790 C   0  0  0  0  0  0  0  0  0  0  0  0
   54.4150   30.3020   31.4610 N   0  0  0  0  0  0  0  0  0  0  0  0
   54.7520   29.2240   30.7030 C   0  0  0  0  0  0  0  0  0  0  0  0
   53.7160   28.3540   30.6770 N   0  0  0  0  0  0  0  0  0  0  0  0
   52.6990   28.8370   31.4030 C   0  0  0  0  0  0  0  0  0  0  0  0
   51.4370   28.3680   31.7030 C   0  0  0  0  0  0  0  0  0  0  0  0
   48.6760   33.4920   38.9690 N   0  0  0  0  0  0  0  0  0  0  0  0
   47.5960   34.4050   42.2340 N   0  0  0  0  0  0  0  0  0  0  0  0
   47.6720   34.7510   40.8150 C   0  0  0  0  0  0  0  0  0  0  0  0
   48.1480   33.4210   40.2900 C   0  0  2  0  0  0  0  0  0  0  0  0
   49.2960   33.1230   41.2310 C   0  0  0  0  0  0  0  0  0  0  0  0
   48.7990   33.6660   42.5400 C   0  0  0  0  0  0  0  0  0  0  0  0
   44.7370   35.9100   44.0880 C   0  0  0  0  0  0  0  0  0  0  0  0
   45.6750   35.7280   43.0860 C   0  0  0  0  0  0  0  0  0  0  0  0
   46.5980   34.6930   43.1810 C   0  0  0  0  0  0  0  0  0  0  0  0
   46.5180   33.8980   44.2900 N   0  0  0  0  0  0  0  0  0  0  0  0
   45.6110   34.0720   45.2590 C   0  0  0  0  0  0  0  0  0  0  0  0
   44.7180   35.0790   45.1590 N   0  0  0  0  0  0  0  0  0  0  0  0
   51.5540   31.6570   37.9150 N   0  0  0  0  0  0  0  0  0  0  0  0
   50.4930   31.8440   37.5090 C   0  0  0  0  0  0  0  0  0  0  0  0
   46.3469   33.6789   37.7577 H   0  0  0  0  0  0  0  0  0  0  0  0
   45.5843   32.6920   35.6815 H   0  0  0  0  0  0  0  0  0  0  0  0
   47.1521   31.2396   34.3722 H   0  0  0  0  0  0  0  0  0  0  0  0
   49.8169   29.7095   35.3587 H   0  0  0  0  0  0  0  0  0  0  0  0
   49.6294   28.8434   32.7719 H   0  0  0  0  0  0  0  0  0  0  0  0
   52.7040   31.8048   33.0693 H   0  0  0  0  0  0  0  0  0  0  0  0
   54.9921   31.1292   31.6698 H   0  0  0  0  0  0  0  0  0  0  0  0
   55.7154   29.0818   30.1915 H   0  0  0  0  0  0  0  0  0  0  0  0
   51.0737   27.4016   31.3234 H   0  0  0  0  0  0  0  0  0  0  0  0
   49.4986   34.1061   38.8850 H   0  0  0  0  0  0  0  0  0  0  0  0
   46.6916   35.0329   40.4034 H   0  0  0  0  0  0  0  0  0  0  0  0
   48.3021   35.6176   40.5662 H   0  0  0  0  0  0  0  0  0  0  0  0
   47.3329   32.6836   40.2474 H   0  0  0  0  0  0  0  0  0  0  0  0
   49.4849   32.0413   41.2963 H   0  0  0  0  0  0  0  0  0  0  0  0
   50.2504   33.5651   40.9091 H   0  0  0  0  0  0  0  0  0  0  0  0
   49.5520   34.3306   42.9886 H   0  0  0  0  0  0  0  0  0  0  0  0
   48.6036   32.8597   43.2623 H   0  0  0  0  0  0  0  0  0  0  0  0
   44.0067   36.7294   44.0150 H   0  0  0  0  0  0  0  0  0  0  0  0
   45.6898   36.4013   42.2163 H   0  0  0  0  0  0  0  0  0  0  0  0
   45.5937   33.3998   46.1296 H   0  0  0  0  0  0  0  0  0  0  0  0
  1 32  1  0
  1  2  2  0
  2 19  1  0
  3  2  1  0
  4  3  2  0
  5  6  2  0
  5  4  1  0
  6  1  1  0
  7  9  1  0
  8  7  2  0
  9  6  1  0
 10 11  2  0
 11  7  1  0
 12 11  1  0
 13 12  2  0
 14 13  1  0
 15 14  1  0
 16 15  2  0
 16 17  1  0
 17 18  2  0
 17 13  1  0
 18 10  1  0
 19 22  1  0
 20 24  1  0
 20 27  1  0
 21 20  1  0
 22 21  1  0
 22 23  1  0
 23 24  1  0
 25 30  2  0
 26 27  2  0
 26 25  1  0
 27 28  1  0
 28 29  2  0
 30 29  1  0
 32 31  3  0
  3 33  1  0
  4 34  1  0
  5 35  1  0
  9 36  1  0
 10 37  1  0
 12 38  1  0
 14 39  1  0
 15 40  1  0
 18 41  1  0
 19 42  1  0
 21 43  1  0
 21 44  1  0
 22 45  1  6
 23 46  1  0
 23 47  1  0
 24 48  1  0
 24 49  1  0
 25 50  1  0
 26 51  1  0
 29 52  1  0
M  ISO  8  33  14  34  14  35  14  37  14  38  14  39   9  40  14  41  14
M  ISO  8  43  13  44  13  45  13  46  13  47  13  48  13  49  13  50  14
M  ISO  2  51  14  52  14
M  END
>  <minimizedAffinity>  (1) 
-6.18477154

>  <minimizedRMSD>  (1) 
1.23127604

$$$$
