
     RDKit          3D

 52 56  0  0  1  0  0  0  0  0999 V2000
   48.2750   34.9760   41.9310 C   0  0  0  0  0  0  0  0  0  0  0  0
   49.3160   34.1240   41.4330 N   0  0  0  0  0  0  0  0  0  0  0  0
   50.2660   33.8180   42.4520 C   0  0  0  0  0  0  0  0  0  0  0  0
   50.7720   32.4210   42.2060 C   0  0  0  0  0  0  0  0  0  0  0  0
   49.6310   31.7860   41.4790 C   0  0  0  0  0  0  0  0  0  0  0  0
   48.8070   32.9120   40.8860 C   0  0  2  0  0  0  0  0  0  0  0  0
   47.8110   33.7280   38.9180 C   0  0  0  0  0  0  0  0  0  0  0  0
   48.7930   32.8570   39.4050 C   0  0  0  0  0  0  0  0  0  0  0  0
   49.5400   32.1400   38.4950 C   0  0  0  0  0  0  0  0  0  0  0  0
   49.3220   32.2810   37.1520 C   0  0  0  0  0  0  0  0  0  0  0  0
   49.9750   31.6470   36.1530 N   0  0  0  0  0  0  0  0  0  0  0  0
   49.4110   32.1110   35.0130 C   0  0  0  0  0  0  0  0  0  0  0  0
   48.4440   33.0020   35.3260 N   0  0  0  0  0  0  0  0  0  0  0  0
   48.3570   33.1370   36.6660 C   0  0  0  0  0  0  0  0  0  0  0  0
   47.5900   33.8700   37.5450 C   0  0  0  0  0  0  0  0  0  0  0  0
   45.8220   34.9460   41.9550 C   0  0  0  0  0  0  0  0  0  0  0  0
   46.9530   34.7290   41.2660 C   0  0  0  0  0  0  0  0  0  0  0  0
   44.1870   33.5600   40.5550 C   0  0  0  0  0  0  0  0  0  0  0  0
   44.4980   34.7130   41.3360 C   0  0  0  0  0  0  0  0  0  0  0  0
   43.5040   35.6850   41.5360 C   0  0  0  0  0  0  0  0  0  0  0  0
   42.2820   35.4760   40.9690 N   0  0  0  0  0  0  0  0  0  0  0  0
   42.0310   34.3730   40.2390 C   0  0  0  0  0  0  0  0  0  0  0  0
   42.9800   33.4540   40.0530 N   0  0  0  0  0  0  0  0  0  0  0  0
   39.8480   33.6100   41.7650 F   0  0  0  0  0  0  0  0  0  0  0  0
   39.6310   33.8170   40.4440 C   0  0  0  0  0  0  0  0  0  0  0  0
   40.7070   34.2010   39.6560 C   0  0  0  0  0  0  0  0  0  0  0  0
   40.5780   34.4370   38.2870 C   0  0  0  0  0  0  0  0  0  0  0  0
   39.3060   34.2680   37.7450 C   0  0  0  0  0  0  0  0  0  0  0  0
   38.2010   33.8800   38.5280 C   0  0  0  0  0  0  0  0  0  0  0  0
   38.3770   33.6560   39.8820 C   0  0  0  0  0  0  0  0  0  0  0  0
   48.1634   34.7999   43.0111 H   0  0  0  0  0  0  0  0  0  0  0  0
   48.5654   36.0146   41.7146 H   0  0  0  0  0  0  0  0  0  0  0  0
   51.1022   34.5315   42.4103 H   0  0  0  0  0  0  0  0  0  0  0  0
   49.7993   33.8879   43.4456 H   0  0  0  0  0  0  0  0  0  0  0  0
   51.6813   32.4310   41.5871 H   0  0  0  0  0  0  0  0  0  0  0  0
   51.0554   31.8893   43.1263 H   0  0  0  0  0  0  0  0  0  0  0  0
   50.0088   31.1318   40.6795 H   0  0  0  0  0  0  0  0  0  0  0  0
   49.0246   31.1694   42.1588 H   0  0  0  0  0  0  0  0  0  0  0  0
   47.7433   32.8268   41.1532 H   0  0  0  0  0  0  0  0  0  0  0  0
   47.2037   34.3098   39.6270 H   0  0  0  0  0  0  0  0  0  0  0  0
   50.3178   31.4488   38.8518 H   0  0  0  0  0  0  0  0  0  0  0  0
   50.7370   30.9595   36.2401 H   0  0  0  0  0  0  0  0  0  0  0  0
   49.6948   31.8105   33.9936 H   0  0  0  0  0  0  0  0  0  0  0  0
   46.8156   34.5565   37.1721 H   0  0  0  0  0  0  0  0  0  0  0  0
   45.8798   35.3020   42.9942 H   0  0  0  0  0  0  0  0  0  0  0  0
   46.9113   34.3741   40.2257 H   0  0  0  0  0  0  0  0  0  0  0  0
   44.9412   32.7791   40.3783 H   0  0  0  0  0  0  0  0  0  0  0  0
   43.7054   36.5874   42.1320 H   0  0  0  0  0  0  0  0  0  0  0  0
   41.4354   34.7405   37.6684 H   0  0  0  0  0  0  0  0  0  0  0  0
   39.1593   34.4435   36.6690 H   0  0  0  0  0  0  0  0  0  0  0  0
   37.2094   33.7565   38.0681 H   0  0  0  0  0  0  0  0  0  0  0  0
   37.5251   33.3518   40.5078 H   0  0  0  0  0  0  0  0  0  0  0  0
  2  1  1  0
  2  3  1  0
  4  3  1  0
  5  4  1  0
  6  2  1  0
  6  5  1  0
  7  8  2  0
  8  6  1  0
  9  8  1  0
 10  9  2  0
 11 10  1  0
 12 13  2  0
 12 11  1  0
 13 14  1  0
 14 10  1  0
 14 15  2  0
 15  7  1  0
 17  1  1  0
 17 16  2  0
 18 19  2  0
 19 20  1  0
 19 16  1  0
 21 20  2  0
 22 21  1  0
 23 22  2  0
 23 18  1  0
 25 24  1  0
 26 22  1  0
 26 25  2  0
 27 26  1  0
 28 27  2  0
 28 29  1  0
 29 30  2  0
 30 25  1  0
  1 31  1  0
  1 32  1  0
  3 33  1  0
  3 34  1  0
  4 35  1  0
  4 36  1  0
  5 37  1  0
  5 38  1  0
  6 39  1  1
  7 40  1  0
  9 41  1  0
 11 42  1  0
 12 43  1  0
 15 44  1  0
 16 45  1  0
 17 46  1  0
 18 47  1  0
 20 48  1  0
 27 49  1  0
 28 50  1  0
 29 51  1  0
 30 52  1  0
M  ISO  8  31   8  32   8  33  13  34  13  35  13  36  13  37  13  38  13
M  ISO  8  39  13  40  14  41  14  42   9  43  14  44  14  47  14  48  14
M  ISO  4  49  14  50  14  51  14  52  14
M  END
>  <minimizedAffinity>  (1) 
-7.23828554

>  <minimizedRMSD>  (1) 
0.49556163

$$$$
