
     RDKit          3D

 35 38  0  0  0  0  0  0  0  0999 V2000
   46.4790   34.7360   42.1420 C   0  0  0  0  0  0  0  0  0  0  0  0
   47.7800   35.1590   41.9950 C   0  0  0  0  0  0  0  0  0  0  0  0
   48.5270   34.9580   40.8380 C   0  0  0  0  0  0  0  0  0  0  0  0
   47.9490   34.2990   39.7630 C   0  0  0  0  0  0  0  0  0  0  0  0
   46.6520   33.8800   39.9170 C   0  0  0  0  0  0  0  0  0  0  0  0
   45.9260   34.0870   41.0710 C   0  0  0  0  0  0  0  0  0  0  0  0
   43.6900   34.3360   40.3320 C   0  0  0  0  0  0  0  0  0  0  0  0
   44.5500   33.6110   41.1550 C   0  0  0  0  0  0  0  0  0  0  0  0
   44.0180   32.5890   41.9070 C   0  0  0  0  0  0  0  0  0  0  0  0
   42.6780   32.2930   41.8450 C   0  0  0  0  0  0  0  0  0  0  0  0
   41.9840   31.3440   42.4970 N   0  0  0  0  0  0  0  0  0  0  0  0
   40.7000   31.4540   42.1000 C   0  0  0  0  0  0  0  0  0  0  0  0
   40.6180   32.4750   41.2060 N   0  0  0  0  0  0  0  0  0  0  0  0
   41.8330   33.0050   41.0370 C   0  0  0  0  0  0  0  0  0  0  0  0
   42.3400   34.0420   40.2680 C   0  0  0  0  0  0  0  0  0  0  0  0
   44.4180   36.2570   44.8830 C   0  0  0  0  0  0  0  0  0  0  0  0
   45.0280   36.1110   43.6200 C   0  0  0  0  0  0  0  0  0  0  0  0
   45.8080   34.9960   43.3790 C   0  0  0  0  0  0  0  0  0  0  0  0
   45.9480   34.0890   44.3780 N   0  0  0  0  0  0  0  0  0  0  0  0
   45.3500   34.2530   45.5820 C   0  0  0  0  0  0  0  0  0  0  0  0
   44.5850   35.3430   45.8260 N   0  0  0  0  0  0  0  0  0  0  0  0
   45.5120   33.2780   46.6220 N   0  0  0  0  0  0  0  0  0  0  0  0
   48.2551   35.6840   42.8368 H   0  0  0  0  0  0  0  0  0  0  0  0
   49.5647   35.3179   40.7767 H   0  0  0  0  0  0  0  0  0  0  0  0
   48.5047   34.1207   38.8306 H   0  0  0  0  0  0  0  0  0  0  0  0
   46.1683   33.3541   39.0807 H   0  0  0  0  0  0  0  0  0  0  0  0
   44.0926   35.1578   39.7216 H   0  0  0  0  0  0  0  0  0  0  0  0
   44.6740   32.0015   42.5662 H   0  0  0  0  0  0  0  0  0  0  0  0
   42.3611   30.6628   43.1712 H   0  0  0  0  0  0  0  0  0  0  0  0
   39.8635   30.8261   42.4406 H   0  0  0  0  0  0  0  0  0  0  0  0
   41.6750   34.6248   39.6137 H   0  0  0  0  0  0  0  0  0  0  0  0
   43.7959   37.1410   45.0871 H   0  0  0  0  0  0  0  0  0  0  0  0
   44.8852   36.8725   42.8391 H   0  0  0  0  0  0  0  0  0  0  0  0
   45.0515   33.4154   47.5330 H   0  0  0  0  0  0  0  0  0  0  0  0
   46.0888   32.4407   46.4576 H   0  0  0  0  0  0  0  0  0  0  0  0
  1 18  1  0
  2  1  2  0
  3  2  1  0
  4  5  1  0
  4  3  2  0
  5  6  2  0
  6  8  1  0
  6  1  1  0
  7  8  2  0
  8  9  1  0
 10  9  2  0
 10 11  1  0
 12 11  1  0
 13 12  2  0
 14 13  1  0
 14 10  1  0
 15  7  1  0
 15 14  2  0
 16 21  2  0
 17 16  1  0
 18 17  2  0
 18 19  1  0
 19 20  2  0
 20 21  1  0
 20 22  1  0
  2 23  1  0
  3 24  1  0
  4 25  1  0
  5 26  1  0
  7 27  1  0
  9 28  1  0
 11 29  1  0
 12 30  1  0
 15 31  1  0
 16 32  1  0
 17 33  1  0
 22 34  1  0
 22 35  1  0
M  ISO  8  23  14  24  14  25  14  26  14  27  14  28  14  29   9  30  14
M  ISO  3  31  14  32  14  33  14
M  END
>  <minimizedAffinity>  (1) 
-7.14370346

>  <minimizedRMSD>  (1) 
0.664850175

$$$$
