
     RDKit          3D

 29 31  0  0  0  0  0  0  0  0999 V2000
   47.6510   32.0390   42.9390 C   0  0  0  0  0  0  0  0  0  0  0  0
   48.3410   32.7880   42.0040 C   0  0  0  0  0  0  0  0  0  0  0  0
   48.1910   34.1950   42.0450 C   0  0  0  0  0  0  0  0  0  0  0  0
   47.3820   34.7270   42.9940 N   0  0  0  0  0  0  0  0  0  0  0  0
   46.7290   33.9560   43.8850 C   0  0  0  0  0  0  0  0  0  0  0  0
   46.8630   32.6360   43.8570 N   0  0  0  0  0  0  0  0  0  0  0  0
   48.9650   31.8480   39.6890 C   0  0  0  0  0  0  0  0  0  0  0  0
   49.1990   32.2910   40.9720 C   0  0  0  0  0  0  0  0  0  0  0  0
   50.5480   32.2370   41.3610 C   0  0  0  0  0  0  0  0  0  0  0  0
   51.5610   31.7880   40.5490 C   0  0  0  0  0  0  0  0  0  0  0  0
   52.8920   31.6430   40.6830 N   0  0  0  0  0  0  0  0  0  0  0  0
   53.4270   31.1460   39.5540 C   0  0  0  0  0  0  0  0  0  0  0  0
   52.3960   30.9730   38.6830 N   0  0  0  0  0  0  0  0  0  0  0  0
   51.2510   31.3610   39.2760 C   0  0  0  0  0  0  0  0  0  0  0  0
   49.9460   31.3900   38.8390 C   0  0  0  0  0  0  0  0  0  0  0  0
   47.7610   30.5870   42.9750 C   0  0  0  0  0  0  0  0  0  0  0  0
   48.6320   30.1800   44.1490 C   0  0  0  0  0  0  0  0  0  0  0  0
   48.7171   34.8399   41.3257 H   0  0  0  0  0  0  0  0  0  0  0  0
   46.0806   34.4236   44.6406 H   0  0  0  0  0  0  0  0  0  0  0  0
   47.9287   31.8610   39.3203 H   0  0  0  0  0  0  0  0  0  0  0  0
   50.8083   32.5740   42.3752 H   0  0  0  0  0  0  0  0  0  0  0  0
   53.4261   31.8795   41.5314 H   0  0  0  0  0  0  0  0  0  0  0  0
   54.4885   30.9232   39.3707 H   0  0  0  0  0  0  0  0  0  0  0  0
   49.6905   31.0517   37.8240 H   0  0  0  0  0  0  0  0  0  0  0  0
   46.7601   30.1452   43.0892 H   0  0  0  0  0  0  0  0  0  0  0  0
   48.2128   30.2279   42.0385 H   0  0  0  0  0  0  0  0  0  0  0  0
   48.1155   30.4213   45.0898 H   0  0  0  0  0  0  0  0  0  0  0  0
   48.8257   29.0981   44.1041 H   0  0  0  0  0  0  0  0  0  0  0  0
   49.5862   30.7255   44.1041 H   0  0  0  0  0  0  0  0  0  0  0  0
  1 16  1  0
  1  6  2  0
  2  3  2  0
  2  1  1  0
  3  4  1  0
  4  5  2  0
  6  5  1  0
  7  8  2  0
  8  9  1  0
  8  2  1  0
 10 11  1  0
 10  9  2  0
 12 11  1  0
 13 14  1  0
 13 12  2  0
 14 10  1  0
 15 14  2  0
 15  7  1  0
 16 17  1  0
  3 18  1  0
  5 19  1  0
  7 20  1  0
  9 21  1  0
 11 22  1  0
 12 23  1  0
 15 24  1  0
 16 25  1  0
 16 26  1  0
 17 27  1  0
 17 28  1  0
 17 29  1  0
M  ISO  8  18  14  19  14  20  14  21  14  22   9  23  14  24  14  25   8
M  ISO  4  26   8  27   8  28   8  29   8
M  END
>  <minimizedAffinity>  (1) 
-3.58869863

>  <minimizedRMSD>  (1) 
5.01062822

$$$$
