
     RDKit          3D

 49 55  0  0  0  0  0  0  0  0999 V2000
   47.5920   31.3860   45.5730 C   0  0  0  0  0  0  0  0  0  0  0  0
   46.5300   31.6750   44.7480 C   0  0  0  0  0  0  0  0  0  0  0  0
   45.3690   30.9280   44.8200 C   0  0  0  0  0  0  0  0  0  0  0  0
   45.2890   29.8930   45.7280 C   0  0  0  0  0  0  0  0  0  0  0  0
   44.2390   29.0800   45.9210 N   0  0  0  0  0  0  0  0  0  0  0  0
   44.6300   28.2290   46.9080 C   0  0  0  0  0  0  0  0  0  0  0  0
   45.8990   28.5290   47.3020 N   0  0  0  0  0  0  0  0  0  0  0  0
   46.3360   29.5760   46.5720 C   0  0  0  0  0  0  0  0  0  0  0  0
   47.4800   30.3460   46.4670 C   0  0  0  0  0  0  0  0  0  0  0  0
   49.6240   29.1210   47.0980 C   0  0  0  0  0  0  0  0  0  0  0  0
   48.5870   30.0100   47.3600 C   0  0  0  0  0  0  0  0  0  0  0  0
   48.5810   30.6620   48.5960 C   0  0  0  0  0  0  0  0  0  0  0  0
   49.5540   30.4590   49.5600 C   0  0  0  0  0  0  0  0  0  0  0  0
   49.7070   30.9910   50.7890 N   0  0  0  0  0  0  0  0  0  0  0  0
   50.8450   30.4200   51.2750 C   0  0  0  0  0  0  0  0  0  0  0  0
   51.3770   29.5570   50.3650 N   0  0  0  0  0  0  0  0  0  0  0  0
   50.5700   29.5680   49.2650 C   0  0  0  0  0  0  0  0  0  0  0  0
   50.6020   28.9080   48.0470 C   0  0  0  0  0  0  0  0  0  0  0  0
   47.9050   34.4310   42.7510 C   0  0  0  0  0  0  0  0  0  0  0  0
   46.7770   34.8120   42.0050 C   0  0  0  0  0  0  0  0  0  0  0  0
   45.5770   34.1510   42.1750 C   0  0  0  0  0  0  0  0  0  0  0  0
   45.5200   33.1350   43.0710 N   0  0  0  0  0  0  0  0  0  0  0  0
   46.6240   32.7670   43.7950 C   0  0  0  0  0  0  0  0  0  0  0  0
   47.7960   33.4260   43.6180 N   0  0  0  0  0  0  0  0  0  0  0  0
   44.2210   33.9710   40.1860 C   0  0  0  0  0  0  0  0  0  0  0  0
   44.3580   34.4690   41.4530 C   0  0  0  0  0  0  0  0  0  0  0  0
   43.3370   35.2410   41.9740 C   0  0  0  0  0  0  0  0  0  0  0  0
   42.1830   35.5320   41.2700 C   0  0  0  0  0  0  0  0  0  0  0  0
   41.0810   36.2430   41.5590 N   0  0  0  0  0  0  0  0  0  0  0  0
   40.2470   36.2010   40.4880 C   0  0  0  0  0  0  0  0  0  0  0  0
   40.8620   35.4470   39.5280 N   0  0  0  0  0  0  0  0  0  0  0  0
   42.0430   35.0310   39.9890 C   0  0  0  0  0  0  0  0  0  0  0  0
   43.0570   34.2570   39.4570 C   0  0  0  0  0  0  0  0  0  0  0  0
   48.5176   31.9778   45.5189 H   0  0  0  0  0  0  0  0  0  0  0  0
   44.5187   31.1565   44.1606 H   0  0  0  0  0  0  0  0  0  0  0  0
   43.3342   29.0966   45.4291 H   0  0  0  0  0  0  0  0  0  0  0  0
   44.0133   27.4195   47.3255 H   0  0  0  0  0  0  0  0  0  0  0  0
   49.6641   28.5889   46.1361 H   0  0  0  0  0  0  0  0  0  0  0  0
   47.7663   31.3686   48.8129 H   0  0  0  0  0  0  0  0  0  0  0  0
   49.0983   31.6774   51.2573 H   0  0  0  0  0  0  0  0  0  0  0  0
   51.2749   30.6275   52.2660 H   0  0  0  0  0  0  0  0  0  0  0  0
   51.4196   28.2037   47.8338 H   0  0  0  0  0  0  0  0  0  0  0  0
   48.8635   34.9548   42.6209 H   0  0  0  0  0  0  0  0  0  0  0  0
   46.8502   35.6392   41.2836 H   0  0  0  0  0  0  0  0  0  0  0  0
   45.0157   33.3525   39.7434 H   0  0  0  0  0  0  0  0  0  0  0  0
   43.4471   35.6412   42.9927 H   0  0  0  0  0  0  0  0  0  0  0  0
   40.8989   36.7371   42.4442 H   0  0  0  0  0  0  0  0  0  0  0  0
   39.2616   36.6832   40.4081 H   0  0  0  0  0  0  0  0  0  0  0  0
   42.9488   33.8560   38.4384 H   0  0  0  0  0  0  0  0  0  0  0  0
  1  9  2  0
  2  3  2  0
  2  1  1  0
  3  4  1  0
  4  5  1  0
  4  8  2  0
  5  6  1  0
  6  7  2  0
  8  7  1  0
  9  8  1  0
  9 11  1  0
 10 11  2  0
 10 18  1  0
 11 12  1  0
 12 13  2  0
 13 14  1  0
 14 15  1  0
 16 15  2  0
 17 13  1  0
 17 16  1  0
 18 17  2  0
 19 24  2  0
 20 21  2  0
 20 19  1  0
 21 22  1  0
 22 23  2  0
 23  2  1  0
 24 23  1  0
 25 26  2  0
 26 27  1  0
 26 21  1  0
 28 29  1  0
 28 27  2  0
 30 29  1  0
 31 32  1  0
 31 30  2  0
 32 28  1  0
 33 32  2  0
 33 25  1  0
  1 34  1  0
  3 35  1  0
  5 36  1  0
  6 37  1  0
 10 38  1  0
 12 39  1  0
 14 40  1  0
 15 41  1  0
 18 42  1  0
 19 43  1  0
 20 44  1  0
 25 45  1  0
 27 46  1  0
 29 47  1  0
 30 48  1  0
 33 49  1  0
M  ISO  8  34  14  35  14  36   9  37  14  38  14  39  14  40   9  41  14
M  ISO  8  42  14  43  14  44  14  45  14  46  14  47   9  48  14  49  14
M  END
>  <minimizedAffinity>  (1) 
-7.35181761

>  <minimizedRMSD>  (1) 
5.15892458

$$$$
