
     RDKit          3D

 44 48  0  0  1  0  0  0  0  0999 V2000
   47.3430   33.0520   41.2920 C   0  0  0  0  0  0  0  0  0  0  0  0
   47.8430   32.7540   39.9500 C   0  0  0  0  0  0  0  0  0  0  0  0
   49.0740   32.3860   39.7820 C   0  0  0  0  0  0  0  0  0  0  0  0
   49.5880   32.0880   38.5100 N   0  0  0  0  0  0  0  0  0  0  0  0
   50.3550   31.1780   37.6900 C   0  0  0  0  0  0  0  0  0  0  0  0
   51.2960   30.3560   37.8930 O   0  0  0  0  0  0  0  0  0  0  0  0
   49.5020   31.6910   36.5480 C   0  0  0  0  0  0  0  0  0  0  0  0
   49.3610   32.9580   37.3470 C   0  0  1  0  0  0  0  0  0  0  0  0
   47.7170   33.6770   37.4540 S   0  0  0  0  0  0  0  0  0  0  0  0
   46.8650   32.8990   38.8420 C   0  0  0  0  0  0  0  0  0  0  0  0
   49.9610   32.2790   40.9540 C   0  0  0  0  0  0  0  0  0  0  0  0
   51.2130   32.0810   40.8950 O   0  0  0  0  0  0  0  0  0  0  0  0
   50.5070   32.2270   42.2050 O   0  0  0  0  0  0  0  0  0  0  0  0
   45.9560   34.2640   41.1920 S   0  0  0  0  0  0  0  0  0  0  0  0
   44.3760   36.0580   44.4750 C   0  0  0  0  0  0  0  0  0  0  0  0
   44.7240   35.8100   43.1090 C   0  0  0  0  0  0  0  0  0  0  0  0
   45.4920   34.6300   42.8760 C   0  0  0  0  0  0  0  0  0  0  0  0
   45.8360   33.8380   43.9280 N   0  0  0  0  0  0  0  0  0  0  0  0
   45.4760   34.1320   45.1740 C   0  0  0  0  0  0  0  0  0  0  0  0
   44.7570   35.2210   45.4670 N   0  0  0  0  0  0  0  0  0  0  0  0
   45.2160   33.2160   47.4620 C   0  0  0  0  0  0  0  0  0  0  0  0
   45.8810   33.2360   46.2520 C   0  0  0  0  0  0  0  0  0  0  0  0
   46.9510   32.3730   46.0940 C   0  0  0  0  0  0  0  0  0  0  0  0
   47.2880   31.5420   47.1630 C   0  0  0  0  0  0  0  0  0  0  0  0
   48.2650   30.6020   47.3210 N   0  0  0  0  0  0  0  0  0  0  0  0
   48.1900   30.0540   48.5480 C   0  0  0  0  0  0  0  0  0  0  0  0
   47.1700   30.6290   49.1930 N   0  0  0  0  0  0  0  0  0  0  0  0
   46.6110   31.5330   48.3700 C   0  0  0  0  0  0  0  0  0  0  0  0
   45.5450   32.3940   48.5260 C   0  0  0  0  0  0  0  0  0  0  0  0
   46.9834   32.1244   41.7613 H   0  0  0  0  0  0  0  0  0  0  0  0
   48.1569   33.4826   41.8938 H   0  0  0  0  0  0  0  0  0  0  0  0
   48.5644   31.1390   36.3863 H   0  0  0  0  0  0  0  0  0  0  0  0
   49.8529   31.6895   35.5055 H   0  0  0  0  0  0  0  0  0  0  0  0
   49.9378   33.8529   37.0704 H   0  0  0  0  0  0  0  0  0  0  0  0
   46.0235   33.5292   39.1655 H   0  0  0  0  0  0  0  0  0  0  0  0
   46.4685   31.9160   38.5478 H   0  0  0  0  0  0  0  0  0  0  0  0
   51.4797   32.0789   42.3148 H   0  0  0  0  0  0  0  0  0  0  0  0
   43.7842   36.9511   44.7243 H   0  0  0  0  0  0  0  0  0  0  0  0
   44.4201   36.4833   42.2940 H   0  0  0  0  0  0  0  0  0  0  0  0
   44.3651   33.9014   47.5893 H   0  0  0  0  0  0  0  0  0  0  0  0
   47.5195   32.3429   45.1528 H   0  0  0  0  0  0  0  0  0  0  0  0
   48.9598   30.3485   46.6042 H   0  0  0  0  0  0  0  0  0  0  0  0
   48.8510   29.2715   48.9491 H   0  0  0  0  0  0  0  0  0  0  0  0
   44.9745   32.4265   49.4659 H   0  0  0  0  0  0  0  0  0  0  0  0
  2  1  1  0
  3  2  2  0
  3 11  1  0
  4  3  1  0
  5  6  2  0
  5  4  1  0
  7  8  1  0
  7  5  1  0
  8  9  1  0
  8  4  1  0
  9 10  1  0
 10  2  1  0
 11 13  1  0
 12 11  2  0
 14  1  1  0
 14 17  1  0
 15 20  2  0
 16 15  1  0
 17 16  2  0
 17 18  1  0
 18 19  2  0
 19 20  1  0
 19 22  1  0
 21 29  2  0
 22 21  1  0
 23 22  2  0
 23 24  1  0
 24 25  1  0
 24 28  2  0
 25 26  1  0
 26 27  2  0
 28 29  1  0
 28 27  1  0
  1 30  1  0
  1 31  1  0
  7 32  1  0
  7 33  1  0
  8 34  1  6
 10 35  1  0
 10 36  1  0
 13 37  1  0
 15 38  1  0
 16 39  1  0
 21 40  1  0
 23 41  1  0
 25 42  1  0
 26 43  1  0
 29 44  1  0
M  ISO  8  30   8  31   8  32  13  33  13  34  13  35  13  36  13  37   3
M  ISO  7  38  14  39  14  40  14  41  14  42   9  43  14  44  14
M  END
>  <minimizedAffinity>  (1) 
-6.0858264

>  <minimizedRMSD>  (1) 
0.959843099

$$$$
