
     RDKit          3D

 51 55  0  0  1  0  0  0  0  0999 V2000
   47.4880   33.5870   39.7880 C   0  0  0  0  0  0  0  0  0  0  0  0
   48.3070   34.6150   39.3880 C   0  0  0  0  0  0  0  0  0  0  0  0
   48.6400   34.8670   38.0640 C   0  0  0  0  0  0  0  0  0  0  0  0
   48.0660   33.9750   37.1490 C   0  0  0  0  0  0  0  0  0  0  0  0
   47.2280   32.9240   37.5630 C   0  0  0  0  0  0  0  0  0  0  0  0
   46.9490   32.7400   38.8650 N   0  0  0  0  0  0  0  0  0  0  0  0
   46.6490   32.0460   36.5500 C   0  0  1  0  0  0  0  0  0  0  0  0
   45.2010   32.5510   36.1480 C   0  0  0  0  0  0  0  0  0  0  0  0
   44.6070   31.2890   35.4660 C   0  0  0  0  0  0  0  0  0  0  0  0
   45.3170   31.2390   34.1110 C   0  0  0  0  0  0  0  0  0  0  0  0
   46.7770   31.0460   34.2760 C   0  0  0  0  0  0  0  0  0  0  0  0
   47.4390   31.7640   35.3910 C   0  0  2  0  0  0  0  0  0  0  0  0
   48.8140   30.6960   35.9340 S   0  0  0  0  0  0  0  0  0  0  0  0
   47.7250   33.2820   43.4190 C   0  0  0  0  0  0  0  0  0  0  0  0
   46.4270   33.0000   43.8210 C   0  0  0  0  0  0  0  0  0  0  0  0
   45.4850   32.9210   42.8200 C   0  0  0  0  0  0  0  0  0  0  0  0
   45.8690   33.1190   41.5210 N   0  0  0  0  0  0  0  0  0  0  0  0
   47.1840   33.3960   41.1960 C   0  0  0  0  0  0  0  0  0  0  0  0
   48.0670   33.4700   42.1290 N   0  0  0  0  0  0  0  0  0  0  0  0
   44.1360   32.6490   43.0340 N   0  0  0  0  0  0  0  0  0  0  0  0
   45.5240   33.7960   46.0310 C   0  0  0  0  0  0  0  0  0  0  0  0
   46.0260   32.7910   45.2030 C   0  0  0  0  0  0  0  0  0  0  0  0
   46.1800   31.4870   45.6580 C   0  0  0  0  0  0  0  0  0  0  0  0
   45.8310   31.1530   46.9680 C   0  0  0  0  0  0  0  0  0  0  0  0
   45.8590   30.0030   47.7030 N   0  0  0  0  0  0  0  0  0  0  0  0
   45.3940   30.3240   48.9030 C   0  0  0  0  0  0  0  0  0  0  0  0
   45.0640   31.6310   48.9870 N   0  0  0  0  0  0  0  0  0  0  0  0
   45.3290   32.1640   47.7910 C   0  0  0  0  0  0  0  0  0  0  0  0
   45.1780   33.4590   47.3310 C   0  0  0  0  0  0  0  0  0  0  0  0
   48.7231   35.2769   40.1618 H   0  0  0  0  0  0  0  0  0  0  0  0
   49.2973   35.6950   37.7599 H   0  0  0  0  0  0  0  0  0  0  0  0
   48.2766   34.1000   36.0766 H   0  0  0  0  0  0  0  0  0  0  0  0
   46.6012   31.0678   37.0507 H   0  0  0  0  0  0  0  0  0  0  0  0
   44.6169   32.8408   37.0339 H   0  0  0  0  0  0  0  0  0  0  0  0
   45.2013   33.4462   35.5088 H   0  0  0  0  0  0  0  0  0  0  0  0
   44.8237   30.3860   36.0557 H   0  0  0  0  0  0  0  0  0  0  0  0
   43.5119   31.3317   35.3715 H   0  0  0  0  0  0  0  0  0  0  0  0
   45.1384   32.1843   33.5776 H   0  0  0  0  0  0  0  0  0  0  0  0
   44.9163   30.3886   33.5398 H   0  0  0  0  0  0  0  0  0  0  0  0
   46.9526   29.9705   34.4259 H   0  0  0  0  0  0  0  0  0  0  0  0
   47.2215   31.4719   33.3644 H   0  0  0  0  0  0  0  0  0  0  0  0
   47.7156   32.7500   34.9894 H   0  0  0  0  0  0  0  0  0  0  0  0
   48.8546   30.6645   37.3030 H   0  0  0  0  0  0  0  0  0  0  0  0
   48.5091   33.3553   44.1870 H   0  0  0  0  0  0  0  0  0  0  0  0
   43.4866   32.6050   42.2358 H   0  0  0  0  0  0  0  0  0  0  0  0
   43.7877   32.4919   43.9905 H   0  0  0  0  0  0  0  0  0  0  0  0
   45.4061   34.8259   45.6631 H   0  0  0  0  0  0  0  0  0  0  0  0
   46.5784   30.7149   44.9834 H   0  0  0  0  0  0  0  0  0  0  0  0
   46.1767   29.0747   47.3894 H   0  0  0  0  0  0  0  0  0  0  0  0
   45.2894   29.6094   49.7327 H   0  0  0  0  0  0  0  0  0  0  0  0
   44.7785   34.2316   48.0044 H   0  0  0  0  0  0  0  0  0  0  0  0
  1 18  1  0
  2  1  2  0
  3  2  1  0
  4  5  1  0
  4  3  2  0
  5  6  2  0
  6  1  1  0
  7  5  1  0
  8  7  1  0
  9  8  1  0
 10 11  1  0
 10  9  1  0
 11 12  1  0
 12 13  1  0
 12  7  1  0
 14 15  2  0
 15 22  1  0
 16 20  1  0
 16 15  1  0
 17 16  2  0
 18 17  1  0
 18 19  2  0
 19 14  1  0
 21 29  2  0
 22 23  2  0
 22 21  1  0
 23 24  1  0
 24 25  1  0
 24 28  2  0
 25 26  1  0
 26 27  2  0
 28 27  1  0
 29 28  1  0
  2 30  1  0
  3 31  1  0
  4 32  1  0
  7 33  1  1
  8 34  1  0
  8 35  1  0
  9 36  1  0
  9 37  1  0
 10 38  1  0
 10 39  1  0
 11 40  1  0
 11 41  1  0
 12 42  1  6
 13 43  1  0
 14 44  1  0
 20 45  1  0
 20 46  1  0
 21 47  1  0
 23 48  1  0
 25 49  1  0
 26 50  1  0
 29 51  1  0
M  ISO  8  30  14  31  14  32  14  33  13  34  13  35  13  36  13  37  13
M  ISO  8  38  13  39  13  40  13  41  13  42  13  43  11  44  14  47  14
M  ISO  4  48  14  49   9  50  14  51  14
M  END
>  <minimizedAffinity>  (1) 
-6.29090595

>  <minimizedRMSD>  (1) 
2.81522632

$$$$
