
     RDKit          3D

 36 40  0  0  0  0  0  0  0  0999 V2000
   48.2130   30.3110   44.8530 C   0  0  0  0  0  0  0  0  0  0  0  0
   47.7250   31.3220   44.0500 C   0  0  0  0  0  0  0  0  0  0  0  0
   46.7990   32.2400   44.5060 C   0  0  0  0  0  0  0  0  0  0  0  0
   46.3200   32.1710   45.8070 C   0  0  0  0  0  0  0  0  0  0  0  0
   45.4340   32.8860   46.5560 N   0  0  0  0  0  0  0  0  0  0  0  0
   45.3870   32.3080   47.8040 C   0  0  0  0  0  0  0  0  0  0  0  0
   46.2470   31.2470   47.7950 N   0  0  0  0  0  0  0  0  0  0  0  0
   46.8320   31.1390   46.5830 C   0  0  0  0  0  0  0  0  0  0  0  0
   47.7510   30.2140   46.1670 C   0  0  0  0  0  0  0  0  0  0  0  0
   46.6890   34.6020   43.4570 C   0  0  0  0  0  0  0  0  0  0  0  0
   46.2150   33.3370   43.7380 C   0  0  0  0  0  0  0  0  0  0  0  0
   44.9560   32.9650   43.2460 C   0  0  0  0  0  0  0  0  0  0  0  0
   44.1890   33.8330   42.4920 C   0  0  0  0  0  0  0  0  0  0  0  0
   42.9790   33.7850   41.8920 N   0  0  0  0  0  0  0  0  0  0  0  0
   42.7050   34.9590   41.2640 C   0  0  0  0  0  0  0  0  0  0  0  0
   43.7690   35.7510   41.4820 N   0  0  0  0  0  0  0  0  0  0  0  0
   44.6790   35.0970   42.2210 C   0  0  0  0  0  0  0  0  0  0  0  0
   45.9010   35.4450   42.7040 C   0  0  0  0  0  0  0  0  0  0  0  0
   48.0060   30.9950   40.3990 C   0  0  0  0  0  0  0  0  0  0  0  0
   49.1310   31.7650   40.1020 C   0  0  0  0  0  0  0  0  0  0  0  0
   49.7870   32.3940   41.1700 C   0  0  0  0  0  0  0  0  0  0  0  0
   49.2860   32.2150   42.4280 N   0  0  0  0  0  0  0  0  0  0  0  0
   48.1880   31.4590   42.6790 C   0  0  0  0  0  0  0  0  0  0  0  0
   47.5640   30.8610   41.6710 N   0  0  0  0  0  0  0  0  0  0  0  0
   48.9523   29.5949   44.4649 H   0  0  0  0  0  0  0  0  0  0  0  0
   44.8977   33.7085   46.2449 H   0  0  0  0  0  0  0  0  0  0  0  0
   44.7704   32.6394   48.6525 H   0  0  0  0  0  0  0  0  0  0  0  0
   48.1119   29.4242   46.8422 H   0  0  0  0  0  0  0  0  0  0  0  0
   47.6724   34.9296   43.8253 H   0  0  0  0  0  0  0  0  0  0  0  0
   44.5696   31.9587   43.4652 H   0  0  0  0  0  0  0  0  0  0  0  0
   42.3499   32.9696   41.9083 H   0  0  0  0  0  0  0  0  0  0  0  0
   41.7982   35.2096   40.6941 H   0  0  0  0  0  0  0  0  0  0  0  0
   46.2810   36.4531   42.4819 H   0  0  0  0  0  0  0  0  0  0  0  0
   47.4685   30.4876   39.5843 H   0  0  0  0  0  0  0  0  0  0  0  0
   49.4902   31.8746   39.0681 H   0  0  0  0  0  0  0  0  0  0  0  0
   50.6796   33.0139   40.9995 H   0  0  0  0  0  0  0  0  0  0  0  0
  1  9  2  0
  2  3  2  0
  2  1  1  0
  3  4  1  0
  4  5  1  0
  4  8  2  0
  5  6  1  0
  7  6  2  0
  8  7  1  0
  9  8  1  0
 10 11  2  0
 11  3  1  0
 12 11  1  0
 13 12  2  0
 14 13  1  0
 15 16  2  0
 15 14  1  0
 16 17  1  0
 17 13  1  0
 17 18  2  0
 18 10  1  0
 19 24  2  0
 20 19  1  0
 20 21  2  0
 21 22  1  0
 22 23  2  0
 23  2  1  0
 24 23  1  0
  1 25  1  0
  5 26  1  0
  6 27  1  0
  9 28  1  0
 10 29  1  0
 12 30  1  0
 14 31  1  0
 15 32  1  0
 18 33  1  0
 19 34  1  0
 20 35  1  0
 21 36  1  0
M  ISO  8  25  14  26   9  27  14  28  14  29  14  30  14  31   9  32  14
M  ISO  4  33  14  34  14  35  14  36  14
M  END
>  <minimizedAffinity>  (1) 
-5.61622

>  <minimizedRMSD>  (1) 
3.64102364

$$$$
