
     RDKit          3D

 36 39  0  0  0  0  0  0  0  0999 V2000
   46.3550   29.7700   44.4990 Br  0  0  0  0  0  0  0  0  0  0  0  0
   45.9140   30.7850   46.0860 C   0  0  0  0  0  0  0  0  0  0  0  0
   46.3030   32.1100   46.0900 C   0  0  0  0  0  0  0  0  0  0  0  0
   45.9700   32.8060   47.2450 C   0  0  0  0  0  0  0  0  0  0  0  0
   45.3070   32.2420   48.3120 C   0  0  0  0  0  0  0  0  0  0  0  0
   44.9490   30.9190   48.2400 C   0  0  0  0  0  0  0  0  0  0  0  0
   45.2490   30.1690   47.1250 C   0  0  0  0  0  0  0  0  0  0  0  0
   43.8590   28.1550   46.3450 C   0  0  0  0  0  0  0  0  0  0  0  0
   44.8560   28.7660   47.0770 C   0  0  0  0  0  0  0  0  0  0  0  0
   45.6380   27.9650   47.9120 C   0  0  0  0  0  0  0  0  0  0  0  0
   45.4350   26.6050   48.0160 C   0  0  0  0  0  0  0  0  0  0  0  0
   46.0090   25.5950   48.7160 N   0  0  0  0  0  0  0  0  0  0  0  0
   45.4120   24.4210   48.4440 C   0  0  0  0  0  0  0  0  0  0  0  0
   44.4430   24.6860   47.5570 N   0  0  0  0  0  0  0  0  0  0  0  0
   44.4310   26.0010   47.2770 C   0  0  0  0  0  0  0  0  0  0  0  0
   43.6620   26.8010   46.4530 C   0  0  0  0  0  0  0  0  0  0  0  0
   47.0090   32.8090   45.0180 C   0  0  0  0  0  0  0  0  0  0  0  0
   44.5530   35.5870   44.5400 C   0  0  0  0  0  0  0  0  0  0  0  0
   44.9290   36.0850   43.2950 C   0  0  0  0  0  0  0  0  0  0  0  0
   45.9920   35.4830   42.6470 C   0  0  0  0  0  0  0  0  0  0  0  0
   46.6250   34.4380   43.2390 N   0  0  0  0  0  0  0  0  0  0  0  0
   46.2360   33.9650   44.4660 C   0  0  0  0  0  0  0  0  0  0  0  0
   45.1990   34.5610   45.0850 N   0  0  0  0  0  0  0  0  0  0  0  0
   46.2517   33.8673   47.3110 H   0  0  0  0  0  0  0  0  0  0  0  0
   45.0691   32.8398   49.2042 H   0  0  0  0  0  0  0  0  0  0  0  0
   44.4166   30.4528   49.0822 H   0  0  0  0  0  0  0  0  0  0  0  0
   43.2226   28.7523   45.6755 H   0  0  0  0  0  0  0  0  0  0  0  0
   46.4389   28.4324   48.5037 H   0  0  0  0  0  0  0  0  0  0  0  0
   46.7971   25.7116   49.3689 H   0  0  0  0  0  0  0  0  0  0  0  0
   45.6683   23.4380   48.8660 H   0  0  0  0  0  0  0  0  0  0  0  0
   42.8610   26.3344   45.8608 H   0  0  0  0  0  0  0  0  0  0  0  0
   47.9648   33.1832   45.4135 H   0  0  0  0  0  0  0  0  0  0  0  0
   47.1571   32.0906   44.1983 H   0  0  0  0  0  0  0  0  0  0  0  0
   43.7119   36.0479   45.0785 H   0  0  0  0  0  0  0  0  0  0  0  0
   44.3958   36.9328   42.8402 H   0  0  0  0  0  0  0  0  0  0  0  0
   46.3211   35.8469   41.6625 H   0  0  0  0  0  0  0  0  0  0  0  0
  1  2  1  0
  2  3  2  0
  2  7  1  0
  3  4  1  0
  4  5  2  0
  6  5  1  0
  7  6  2  0
  8 16  2  0
  8  9  1  0
  9  7  1  0
  9 10  2  0
 10 11  1  0
 11 12  1  0
 13 12  1  0
 14 13  2  0
 15 14  1  0
 15 11  2  0
 16 15  1  0
 17  3  1  0
 18 23  2  0
 19 18  1  0
 20 21  1  0
 20 19  2  0
 21 22  2  0
 22 17  1  0
 22 23  1  0
  4 24  1  0
  5 25  1  0
  6 26  1  0
  8 27  1  0
 10 28  1  0
 12 29  1  0
 13 30  1  0
 16 31  1  0
 17 32  1  0
 17 33  1  0
 18 34  1  0
 19 35  1  0
 20 36  1  0
M  ISO  8  24  14  25  14  26  14  27  14  28  14  29   9  30  14  31  14
M  ISO  5  32   8  33   8  34  14  35  14  36  14
M  END
>  <minimizedAffinity>  (1) 
-5.85348511

>  <minimizedRMSD>  (1) 
1.74870014

$$$$
