
     RDKit          3D

 31 33  0  0  0  0  0  0  0  0999 V2000
   47.6170   32.2770   48.3300 O   0  0  0  0  0  0  0  0  0  0  0  0
   45.6950   30.6370   47.7210 O   0  0  0  0  0  0  0  0  0  0  0  0
   45.9870   32.0110   48.3800 P   0  0  1  0  0  0  0  0  0  0  0  0
   45.3970   31.8710   49.9510 O   0  0  0  0  0  0  0  0  0  0  0  0
   45.1180   33.1810   47.5320 O   0  0  0  0  0  0  0  0  0  0  0  0
   46.9720   33.2600   44.4070 C   0  0  0  0  0  0  0  0  0  0  0  0
   46.5410   32.8800   45.6920 C   0  0  0  0  0  0  0  0  0  0  0  0
   45.5130   33.5810   46.2740 C   0  0  0  0  0  0  0  0  0  0  0  0
   44.9630   34.6070   45.5750 N   0  0  0  0  0  0  0  0  0  0  0  0
   45.3850   34.9560   44.3550 C   0  0  0  0  0  0  0  0  0  0  0  0
   46.3850   34.2910   43.7660 N   0  0  0  0  0  0  0  0  0  0  0  0
   48.6720   31.6920   48.9240 C   0  0  0  0  0  0  0  0  0  0  0  0
   49.5640   32.5730   49.3500 O   0  0  0  0  0  0  0  0  0  0  0  0
   49.2040   29.3380   48.4350 C   0  0  0  0  0  0  0  0  0  0  0  0
   49.2770   30.3760   49.3130 C   0  0  0  0  0  0  0  0  0  0  0  0
   49.8980   30.1310   50.5260 C   0  0  0  0  0  0  0  0  0  0  0  0
   50.4570   28.9600   50.9620 C   0  0  0  0  0  0  0  0  0  0  0  0
   51.0780   28.5900   52.0880 N   0  0  0  0  0  0  0  0  0  0  0  0
   51.3780   27.2810   51.8530 C   0  0  0  0  0  0  0  0  0  0  0  0
   50.9530   26.8860   50.6340 N   0  0  0  0  0  0  0  0  0  0  0  0
   50.3530   27.9540   50.0350 C   0  0  0  0  0  0  0  0  0  0  0  0
   49.7560   28.1070   48.8130 C   0  0  0  0  0  0  0  0  0  0  0  0
   46.1286   32.0446   50.5950 H   0  0  0  0  0  0  0  0  0  0  0  0
   47.7935   32.7121   43.9223 H   0  0  0  0  0  0  0  0  0  0  0  0
   47.0171   32.0398   46.2187 H   0  0  0  0  0  0  0  0  0  0  0  0
   44.9059   35.7966   43.8317 H   0  0  0  0  0  0  0  0  0  0  0  0
   48.7236   29.4627   47.4533 H   0  0  0  0  0  0  0  0  0  0  0  0
   49.9482   30.9800   51.2237 H   0  0  0  0  0  0  0  0  0  0  0  0
   51.2796   29.1547   52.9255 H   0  0  0  0  0  0  0  0  0  0  0  0
   51.9010   26.6282   52.5674 H   0  0  0  0  0  0  0  0  0  0  0  0
   49.7090   27.2541   48.1200 H   0  0  0  0  0  0  0  0  0  0  0  0
  1  3  1  0
  1 12  1  0
  3  2  2  0
  3  4  1  0
  5  3  1  0
  6  7  2  0
  7  8  1  0
  8  5  1  0
  9  8  2  0
 10  9  1  0
 11 10  2  0
 11  6  1  0
 12 15  1  0
 12 13  2  0
 14 22  2  0
 14 15  1  0
 15 16  2  0
 16 17  1  0
 17 18  1  0
 19 18  1  0
 20 19  2  0
 21 20  1  0
 21 17  2  0
 22 21  1  0
  4 23  1  0
  6 24  1  0
  7 25  1  0
 10 26  1  0
 14 27  1  0
 16 28  1  0
 18 29  1  0
 19 30  1  0
 22 31  1  0
M  ISO  8  23   3  24  14  25  14  26  14  27  14  28  14  29   9  30  14
M  ISO  1  31  14
M  END
>  <minimizedAffinity>  (1) 
-5.57500219

>  <minimizedRMSD>  (1) 
1.94438434

$$$$
