
     RDKit          3D

 50 54  0  0  1  0  0  0  0  0999 V2000
   47.8680   32.9190   41.8060 C   0  0  1  0  0  0  0  0  0  0  0  0
   47.5330   32.1700   40.5920 C   0  0  0  0  0  0  0  0  0  0  0  0
   48.5510   32.5980   39.5250 C   0  0  0  0  0  0  0  0  0  0  0  0
   48.2210   34.0330   39.1760 C   0  0  0  0  0  0  0  0  0  0  0  0
   48.1690   34.9680   40.3470 C   0  0  0  0  0  0  0  0  0  0  0  0
   47.6710   34.4290   41.6120 C   0  0  1  0  0  0  0  0  0  0  0  0
   45.5140   31.1100   44.1400 C   0  0  0  0  0  0  0  0  0  0  0  0
   46.1890   31.5690   43.0000 C   0  0  0  0  0  0  0  0  0  0  0  0
   47.2220   32.4890   43.0280 C   0  0  0  0  0  0  0  0  0  0  0  0
   47.5590   32.9390   44.2440 N   0  0  0  0  0  0  0  0  0  0  0  0
   46.9250   32.5140   45.3580 C   0  0  0  0  0  0  0  0  0  0  0  0
   45.9290   31.6240   45.3210 N   0  0  0  0  0  0  0  0  0  0  0  0
   46.2980   34.8330   41.9110 C   0  0  0  0  0  0  0  0  0  0  0  0
   45.8590   35.5770   43.0030 C   0  0  0  0  0  0  0  0  0  0  0  0
   44.4940   35.8490   43.0620 C   0  0  0  0  0  0  0  0  0  0  0  0
   43.6840   35.3660   42.0480 C   0  0  0  0  0  0  0  0  0  0  0  0
   44.1260   34.6380   40.9880 C   0  0  0  0  0  0  0  0  0  0  0  0
   45.4670   34.3770   40.9380 N   0  0  0  0  0  0  0  0  0  0  0  0
   43.2150   34.1680   39.9170 C   0  0  0  0  0  0  0  0  0  0  0  0
   43.7400   34.0070   38.7650 O   0  0  0  0  0  0  0  0  0  0  0  0
   40.7090   34.7020   39.8720 C   0  0  0  0  0  0  0  0  0  0  0  0
   41.7900   33.8680   40.0580 C   0  0  0  0  0  0  0  0  0  0  0  0
   41.4740   32.5640   40.4840 C   0  0  0  0  0  0  0  0  0  0  0  0
   40.2290   32.0920   40.7170 C   0  0  0  0  0  0  0  0  0  0  0  0
   39.7520   30.8950   41.1310 N   0  0  0  0  0  0  0  0  0  0  0  0
   38.3940   31.0000   41.1990 C   0  0  0  0  0  0  0  0  0  0  0  0
   38.0560   32.2720   40.8210 N   0  0  0  0  0  0  0  0  0  0  0  0
   39.1810   32.9620   40.5200 C   0  0  0  0  0  0  0  0  0  0  0  0
   39.3980   34.2670   40.0970 C   0  0  0  0  0  0  0  0  0  0  0  0
   48.9331   32.6864   41.9528 H   0  0  0  0  0  0  0  0  0  0  0  0
   47.6092   31.0886   40.7787 H   0  0  0  0  0  0  0  0  0  0  0  0
   46.5028   32.3771   40.2667 H   0  0  0  0  0  0  0  0  0  0  0  0
   49.5736   32.5284   39.9243 H   0  0  0  0  0  0  0  0  0  0  0  0
   48.4989   31.9484   38.6388 H   0  0  0  0  0  0  0  0  0  0  0  0
   48.9877   34.4006   38.4781 H   0  0  0  0  0  0  0  0  0  0  0  0
   47.2099   34.0221   38.7428 H   0  0  0  0  0  0  0  0  0  0  0  0
   49.1910   35.3346   40.5232 H   0  0  0  0  0  0  0  0  0  0  0  0
   47.4391   35.7396   40.0610 H   0  0  0  0  0  0  0  0  0  0  0  0
   48.3273   34.9018   42.3575 H   0  0  0  0  0  0  0  0  0  0  0  0
   44.6966   30.3765   44.0781 H   0  0  0  0  0  0  0  0  0  0  0  0
   45.8778   31.1729   42.0221 H   0  0  0  0  0  0  0  0  0  0  0  0
   47.2403   32.9155   46.3324 H   0  0  0  0  0  0  0  0  0  0  0  0
   46.5538   35.9315   43.7786 H   0  0  0  0  0  0  0  0  0  0  0  0
   44.0705   36.4325   43.8928 H   0  0  0  0  0  0  0  0  0  0  0  0
   42.6078   35.5867   42.1039 H   0  0  0  0  0  0  0  0  0  0  0  0
   40.8809   35.7359   39.5382 H   0  0  0  0  0  0  0  0  0  0  0  0
   42.3124   31.8694   40.6408 H   0  0  0  0  0  0  0  0  0  0  0  0
   40.3113   30.0592   41.3536 H   0  0  0  0  0  0  0  0  0  0  0  0
   37.6960   30.2060   41.5028 H   0  0  0  0  0  0  0  0  0  0  0  0
   38.5501   34.9501   39.9408 H   0  0  0  0  0  0  0  0  0  0  0  0
  1  9  1  0
  2  1  1  0
  3  2  1  0
  4  3  1  0
  4  5  1  0
  5  6  1  0
  6  1  1  0
  6 13  1  0
  7 12  2  0
  8  9  2  0
  8  7  1  0
  9 10  1  0
 10 11  2  0
 12 11  1  0
 13 14  2  0
 14 15  1  0
 16 15  2  0
 17 16  1  0
 18 17  2  0
 18 13  1  0
 19 22  1  0
 19 17  1  0
 20 19  2  0
 21 22  2  0
 21 29  1  0
 22 23  1  0
 23 24  2  0
 24 25  1  0
 25 26  1  0
 27 26  2  0
 28 24  1  0
 28 27  1  0
 29 28  2  0
  1 30  1  1
  2 31  1  0
  2 32  1  0
  3 33  1  0
  3 34  1  0
  4 35  1  0
  4 36  1  0
  5 37  1  0
  5 38  1  0
  6 39  1  1
  7 40  1  0
  8 41  1  0
 11 42  1  0
 14 43  1  0
 15 44  1  0
 16 45  1  0
 21 46  1  0
 23 47  1  0
 25 48  1  0
 26 49  1  0
 29 50  1  0
M  ISO  8  30  13  31  13  32  13  33  13  34  13  35  13  36  13  37  13
M  ISO  8  38  13  39  13  40  14  41  14  42  14  43  14  44  14  45  14
M  ISO  5  46  14  47  14  48   9  49  14  50  14
M  END
>  <minimizedAffinity>  (1) 
-6.52379799

>  <minimizedRMSD>  (1) 
3.07561183

$$$$
