
     RDKit          3D

 42 45  0  0  0  0  0  0  0  0999 V2000
   45.1330   34.3680   41.9230 C   0  0  0  0  0  0  0  0  0  0  0  0
   46.4030   34.6630   41.4290 C   0  0  0  0  0  0  0  0  0  0  0  0
   47.4920   34.5830   42.3180 C   0  0  0  0  0  0  0  0  0  0  0  0
   47.2570   34.2280   43.5980 N   0  0  0  0  0  0  0  0  0  0  0  0
   46.0220   33.9460   44.0490 C   0  0  0  0  0  0  0  0  0  0  0  0
   44.9760   34.0170   43.2190 N   0  0  0  0  0  0  0  0  0  0  0  0
   45.8520   33.5280   45.4430 C   0  0  0  0  0  0  0  0  0  0  0  0
   45.0440   34.2350   46.1430 O   0  0  0  0  0  0  0  0  0  0  0  0
   46.7930   31.1080   45.5390 C   0  0  0  0  0  0  0  0  0  0  0  0
   46.5600   32.3630   46.0250 C   0  0  0  0  0  0  0  0  0  0  0  0
   47.0440   32.6340   47.3110 C   0  0  0  0  0  0  0  0  0  0  0  0
   47.7310   31.7120   48.0960 C   0  0  0  0  0  0  0  0  0  0  0  0
   48.2910   31.6760   49.3230 N   0  0  0  0  0  0  0  0  0  0  0  0
   48.8260   30.4550   49.5420 C   0  0  0  0  0  0  0  0  0  0  0  0
   48.6110   29.6890   48.4490 N   0  0  0  0  0  0  0  0  0  0  0  0
   47.9430   30.4570   47.5670 C   0  0  0  0  0  0  0  0  0  0  0  0
   47.4690   30.1850   46.3020 C   0  0  0  0  0  0  0  0  0  0  0  0
   43.7760   34.4990   40.7590 S   0  0  0  0  0  0  0  0  0  0  0  0
   42.2140   34.8420   41.5520 C   0  0  0  0  0  0  0  0  0  0  0  0
   41.3770   35.8510   40.8280 C   0  0  0  0  0  0  0  0  0  0  0  0
   42.0870   36.0890   37.8610 Cl  0  0  0  0  0  0  0  0  0  0  0  0
   40.7010   35.2460   38.4640 C   0  0  0  0  0  0  0  0  0  0  0  0
   40.4800   35.2130   39.8450 C   0  0  0  0  0  0  0  0  0  0  0  0
   39.3480   34.5260   40.2540 C   0  0  0  0  0  0  0  0  0  0  0  0
   38.4250   33.8760   39.4480 C   0  0  0  0  0  0  0  0  0  0  0  0
   38.6790   33.9320   38.0850 C   0  0  0  0  0  0  0  0  0  0  0  0
   37.5800   33.1460   36.9530 Cl  0  0  0  0  0  0  0  0  0  0  0  0
   39.7940   34.6050   37.6160 C   0  0  0  0  0  0  0  0  0  0  0  0
   46.5497   34.9494   40.3771 H   0  0  0  0  0  0  0  0  0  0  0  0
   48.5135   34.8054   41.9757 H   0  0  0  0  0  0  0  0  0  0  0  0
   46.4388   30.8347   44.5341 H   0  0  0  0  0  0  0  0  0  0  0  0
   46.8706   33.6376   47.7266 H   0  0  0  0  0  0  0  0  0  0  0  0
   48.3080   32.4599   49.9909 H   0  0  0  0  0  0  0  0  0  0  0  0
   49.3488   30.1374   50.4562 H   0  0  0  0  0  0  0  0  0  0  0  0
   47.6394   29.1824   45.8828 H   0  0  0  0  0  0  0  0  0  0  0  0
   41.6451   33.9029   41.6182 H   0  0  0  0  0  0  0  0  0  0  0  0
   42.4431   35.2662   42.5407 H   0  0  0  0  0  0  0  0  0  0  0  0
   40.7687   36.4012   41.5610 H   0  0  0  0  0  0  0  0  0  0  0  0
   42.0516   36.5300   40.2859 H   0  0  0  0  0  0  0  0  0  0  0  0
   39.1608   34.4925   41.3374 H   0  0  0  0  0  0  0  0  0  0  0  0
   37.5508   33.3516   39.8614 H   0  0  0  0  0  0  0  0  0  0  0  0
   39.9734   34.6365   36.5312 H   0  0  0  0  0  0  0  0  0  0  0  0
  1  6  1  0
  2  1  2  0
  2  3  1  0
  3  4  2  0
  4  5  1  0
  5  7  1  0
  6  5  2  0
  7 10  1  0
  7  8  2  0
  9 10  2  0
  9 17  1  0
 10 11  1  0
 11 12  2  0
 12 13  1  0
 13 14  1  0
 15 14  2  0
 16 12  1  0
 16 15  1  0
 17 16  2  0
 18 19  1  0
 18  1  1  0
 20 19  1  0
 21 22  1  0
 22 23  2  0
 23 24  1  0
 23 20  1  0
 25 24  2  0
 26 25  1  0
 27 26  1  0
 28 26  2  0
 28 22  1  0
  2 29  1  0
  3 30  1  0
  9 31  1  0
 11 32  1  0
 13 33  1  0
 14 34  1  0
 17 35  1  0
 19 36  1  0
 19 37  1  0
 20 38  1  0
 20 39  1  0
 24 40  1  0
 25 41  1  0
 28 42  1  0
M  END
>  <minimizedAffinity>  (1) 
-7.3726244

>  <minimizedRMSD>  (1) 
0.873784244

$$$$
