
     RDKit          3D

 37 40  0  0  0  0  0  0  0  0999 V2000
   46.7440   34.8320   42.0000 C   0  0  0  0  0  0  0  0  0  0  0  0
   48.0380   35.3550   41.9990 C   0  0  0  0  0  0  0  0  0  0  0  0
   48.8080   35.2260   40.8570 C   0  0  0  0  0  0  0  0  0  0  0  0
   48.2840   34.5890   39.7510 C   0  0  0  0  0  0  0  0  0  0  0  0
   47.0270   34.0670   39.7120 C   0  0  0  0  0  0  0  0  0  0  0  0
   46.2690   34.2130   40.8880 C   0  0  0  0  0  0  0  0  0  0  0  0
   44.5000   36.1110   44.7550 C   0  0  0  0  0  0  0  0  0  0  0  0
   45.1900   36.0800   43.5130 C   0  0  0  0  0  0  0  0  0  0  0  0
   45.9810   34.9960   43.2280 C   0  0  0  0  0  0  0  0  0  0  0  0
   46.0600   33.9960   44.1680 N   0  0  0  0  0  0  0  0  0  0  0  0
   45.4020   34.0330   45.3430 C   0  0  0  0  0  0  0  0  0  0  0  0
   44.6090   35.1120   45.6380 N   0  0  0  0  0  0  0  0  0  0  0  0
   43.6440   34.2470   40.8580 C   0  0  0  0  0  0  0  0  0  0  0  0
   43.3750   35.4310   40.5530 O   0  0  0  0  0  0  0  0  0  0  0  0
   44.9490   33.7130   40.9840 N   0  0  0  0  0  0  0  0  0  0  0  0
   42.7510   32.1390   41.6610 C   0  0  0  0  0  0  0  0  0  0  0  0
   42.5040   33.3720   41.1000 C   0  0  0  0  0  0  0  0  0  0  0  0
   41.1840   33.6460   40.8240 C   0  0  0  0  0  0  0  0  0  0  0  0
   40.1520   32.7760   41.0760 C   0  0  0  0  0  0  0  0  0  0  0  0
   38.8240   32.8420   40.8900 N   0  0  0  0  0  0  0  0  0  0  0  0
   38.2660   31.6850   41.3210 C   0  0  0  0  0  0  0  0  0  0  0  0
   39.2460   30.8730   41.7880 N   0  0  0  0  0  0  0  0  0  0  0  0
   40.4050   31.5430   41.6380 C   0  0  0  0  0  0  0  0  0  0  0  0
   41.7170   31.2310   41.9290 C   0  0  0  0  0  0  0  0  0  0  0  0
   48.4383   35.8606   42.8901 H   0  0  0  0  0  0  0  0  0  0  0  0
   49.8313   35.6286   40.8309 H   0  0  0  0  0  0  0  0  0  0  0  0
   48.9144   34.4981   38.8542 H   0  0  0  0  0  0  0  0  0  0  0  0
   46.6298   33.5635   38.8183 H   0  0  0  0  0  0  0  0  0  0  0  0
   43.8628   36.9748   44.9954 H   0  0  0  0  0  0  0  0  0  0  0  0
   45.0919   36.9078   42.7953 H   0  0  0  0  0  0  0  0  0  0  0  0
   45.5001   33.2044   46.0598 H   0  0  0  0  0  0  0  0  0  0  0  0
   44.9336   32.7061   41.2002 H   0  0  0  0  0  0  0  0  0  0  0  0
   43.7864   31.8592   41.9052 H   0  0  0  0  0  0  0  0  0  0  0  0
   40.9411   34.6202   40.3746 H   0  0  0  0  0  0  0  0  0  0  0  0
   38.3136   33.6404   40.4863 H   0  0  0  0  0  0  0  0  0  0  0  0
   37.1930   31.4439   41.2961 H   0  0  0  0  0  0  0  0  0  0  0  0
   41.9553   30.2554   42.3779 H   0  0  0  0  0  0  0  0  0  0  0  0
  1  9  1  0
  2  1  2  0
  3  2  1  0
  4  3  2  0
  5  4  1  0
  5  6  2  0
  6 15  1  0
  6  1  1  0
  7 12  2  0
  8  7  1  0
  9  8  2  0
  9 10  1  0
 10 11  2  0
 11 12  1  0
 13 15  1  0
 13 17  1  0
 14 13  2  0
 16 24  2  0
 17 16  1  0
 18 19  1  0
 18 17  2  0
 19 23  2  0
 20 19  1  0
 20 21  1  0
 21 22  2  0
 23 22  1  0
 23 24  1  0
  2 25  1  0
  3 26  1  0
  4 27  1  0
  5 28  1  0
  7 29  1  0
  8 30  1  0
 11 31  1  0
 15 32  1  0
 16 33  1  0
 18 34  1  0
 20 35  1  0
 21 36  1  0
 24 37  1  0
M  ISO  8  25  14  26  14  27  14  28  14  29  14  30  14  31  14  33  14
M  ISO  4  34  14  35   9  36  14  37  14
M  END
>  <minimizedAffinity>  (1) 
-6.90676737

>  <minimizedRMSD>  (1) 
0.863569379

$$$$
