
     RDKit          3D

 49 51  0  0  0  0  0  0  0  0999 V2000
   42.6980   31.4130   42.5680 N   0  0  0  0  0  0  0  0  0  0  0  0
   42.9930   32.4740   41.6440 C   0  0  0  0  0  0  0  0  0  0  0  0
   43.6580   34.8750   41.8980 C   0  0  0  0  0  0  0  0  0  0  0  0
   43.8850   33.5320   42.2000 C   0  0  0  0  0  0  0  0  0  0  0  0
   44.9400   33.2230   43.0120 C   0  0  0  0  0  0  0  0  0  0  0  0
   45.7490   34.1960   43.5150 C   0  0  0  0  0  0  0  0  0  0  0  0
   45.5500   35.5300   43.2340 C   0  0  0  0  0  0  0  0  0  0  0  0
   44.4680   35.8160   42.4030 C   0  0  0  0  0  0  0  0  0  0  0  0
   40.2450   35.7780   40.5320 C   0  0  0  0  0  0  0  0  0  0  0  0
   41.2700   35.5340   41.4810 C   0  0  0  0  0  0  0  0  0  0  0  0
   42.5140   35.1580   41.0220 C   0  0  0  0  0  0  0  0  0  0  0  0
   42.6860   35.0420   39.6750 N   0  0  0  0  0  0  0  0  0  0  0  0
   41.7040   35.2750   38.7810 C   0  0  0  0  0  0  0  0  0  0  0  0
   40.4840   35.6440   39.2260 N   0  0  0  0  0  0  0  0  0  0  0  0
   41.0290   31.0650   42.6490 S   0  0  0  0  0  0  0  0  0  0  0  0
   40.2110   32.3210   42.5050 O   0  0  0  0  0  0  0  0  0  0  0  0
   40.6780   30.3740   43.9250 O   0  0  0  0  0  0  0  0  0  0  0  0
   40.6620   30.0400   41.3810 O   0  0  0  0  0  0  0  0  0  0  0  0
   39.2930   29.8920   41.2980 C   0  0  0  0  0  0  0  0  0  0  0  0
   38.8990   28.5150   41.8590 C   0  0  0  0  0  0  0  0  0  0  0  0
   37.3070   26.7100   41.1230 C   0  0  0  0  0  0  0  0  0  0  0  0
   37.7260   28.0160   41.1150 C   0  0  0  0  0  0  0  0  0  0  0  0
   36.9550   28.8800   40.3370 C   0  0  0  0  0  0  0  0  0  0  0  0
   35.8400   28.5370   39.5970 C   0  0  0  0  0  0  0  0  0  0  0  0
   35.4550   27.2010   39.6380 C   0  0  0  0  0  0  0  0  0  0  0  0
   36.2060   26.3090   40.4080 C   0  0  0  0  0  0  0  0  0  0  0  0
   38.0310   25.7810   41.8830 O   0  0  0  0  0  0  0  0  0  0  0  0
   35.7930   24.9660   40.4310 O   0  0  0  0  0  0  0  0  0  0  0  0
   43.0238   31.6904   43.5049 H   0  0  0  0  0  0  0  0  0  0  0  0
   42.0451   32.9439   41.3428 H   0  0  0  0  0  0  0  0  0  0  0  0
   43.5281   32.0191   40.7974 H   0  0  0  0  0  0  0  0  0  0  0  0
   45.1389   32.1708   43.2634 H   0  0  0  0  0  0  0  0  0  0  0  0
   46.5876   33.9079   44.1660 H   0  0  0  0  0  0  0  0  0  0  0  0
   46.2022   36.3178   43.6389 H   0  0  0  0  0  0  0  0  0  0  0  0
   44.2688   36.8675   42.1487 H   0  0  0  0  0  0  0  0  0  0  0  0
   39.2446   36.0802   40.8752 H   0  0  0  0  0  0  0  0  0  0  0  0
   41.0768   35.6423   42.5585 H   0  0  0  0  0  0  0  0  0  0  0  0
   41.8944   35.1659   37.7031 H   0  0  0  0  0  0  0  0  0  0  0  0
   39.9830   32.6711   43.4025 H   0  0  0  0  0  0  0  0  0  0  0  0
   40.9617   30.9325   44.6916 H   0  0  0  0  0  0  0  0  0  0  0  0
   38.8012   30.6825   41.8838 H   0  0  0  0  0  0  0  0  0  0  0  0
   38.9758   29.9680   40.2475 H   0  0  0  0  0  0  0  0  0  0  0  0
   39.7380   27.8136   41.7401 H   0  0  0  0  0  0  0  0  0  0  0  0
   38.6538   28.6031   42.9277 H   0  0  0  0  0  0  0  0  0  0  0  0
   37.2645   29.9352   40.3102 H   0  0  0  0  0  0  0  0  0  0  0  0
   35.2858   29.2813   39.0064 H   0  0  0  0  0  0  0  0  0  0  0  0
   34.5762   26.8533   39.0751 H   0  0  0  0  0  0  0  0  0  0  0  0
   37.7488   24.8323   41.9052 H   0  0  0  0  0  0  0  0  0  0  0  0
   36.2978   24.3020   40.9642 H   0  0  0  0  0  0  0  0  0  0  0  0
  1 15  1  0
  2  4  1  0
  2  1  1  0
  3  4  1  0
  3  8  2  0
  4  5  2  0
  5  6  1  0
  7  6  2  0
  8  7  1  0
  9 10  2  0
 11 10  1  0
 11  3  1  0
 12 11  2  0
 13 14  2  0
 13 12  1  0
 14  9  1  0
 15 17  1  0
 16 15  1  0
 18 15  1  0
 19 18  1  0
 19 20  1  0
 21 27  1  0
 22 21  2  0
 22 20  1  0
 23 22  1  0
 24 25  1  0
 24 23  2  0
 25 26  2  0
 26 28  1  0
 26 21  1  0
  1 29  1  0
  2 30  1  0
  2 31  1  0
  5 32  1  0
  6 33  1  0
  7 34  1  0
  8 35  1  0
  9 36  1  0
 10 37  1  0
 13 38  1  0
 16 39  1  0
 17 40  1  0
 19 41  1  0
 19 42  1  0
 20 43  1  0
 20 44  1  0
 23 45  1  0
 24 46  1  0
 25 47  1  0
 27 48  1  0
 28 49  1  0
M  ISO  8  29   5  30   8  31   8  32  14  33  14  34  14  35  14  36  14
M  ISO  8  37  14  38  14  39   3  40   3  41   8  42   8  43   8  44   8
M  ISO  5  45  14  46  14  47  14  48   3  49   3
M  END
>  <minimizedAffinity>  (1) 
-5.83061647

>  <minimizedRMSD>  (1) 
2.33316207

$$$$
