
     RDKit          3D

 30 31  0  0  0  0  0  0  0  0999 V2000
   45.8710   30.4230   47.9730 O   0  0  0  0  0  0  0  0  0  0  0  0
   46.0850   31.8510   48.5460 P   0  0  2  0  0  0  0  0  0  0  0  0
   45.4040   31.8200   50.0840 O   0  0  0  0  0  0  0  0  0  0  0  0
   45.2390   32.9220   47.5510 O   0  0  0  0  0  0  0  0  0  0  0  0
   47.2100   32.7510   44.5010 C   0  0  0  0  0  0  0  0  0  0  0  0
   46.7060   32.4530   45.7910 C   0  0  0  0  0  0  0  0  0  0  0  0
   45.7010   33.2470   46.2930 C   0  0  0  0  0  0  0  0  0  0  0  0
   45.2500   34.2640   45.5330 N   0  0  0  0  0  0  0  0  0  0  0  0
   45.7220   34.5490   44.3160 C   0  0  0  0  0  0  0  0  0  0  0  0
   46.7030   33.7950   43.7960 N   0  0  0  0  0  0  0  0  0  0  0  0
   47.7040   32.1880   48.5850 O   0  0  0  0  0  0  0  0  0  0  0  0
   48.7750   31.5210   49.0550 C   0  0  0  0  0  0  0  0  0  0  0  0
   49.7820   32.3310   49.3240 O   0  0  0  0  0  0  0  0  0  0  0  0
   49.9670   30.0080   50.6020 C   0  0  0  0  0  0  0  0  0  0  0  0
   49.3480   30.1790   49.4190 C   0  0  0  0  0  0  0  0  0  0  0  0
   49.2860   29.0730   48.5560 C   0  0  0  0  0  0  0  0  0  0  0  0
   49.7890   27.8190   48.7780 C   0  0  0  0  0  0  0  0  0  0  0  0
   50.3960   27.7170   49.9830 C   0  0  0  0  0  0  0  0  0  0  0  0
   50.5010   28.7390   50.8800 C   0  0  0  0  0  0  0  0  0  0  0  0
   50.1480   30.9470   51.6050 O   0  0  0  0  0  0  0  0  0  0  0  0
   51.1440   28.5290   52.0920 O   0  0  0  0  0  0  0  0  0  0  0  0
   46.1229   31.8527   50.7639 H   0  0  0  0  0  0  0  0  0  0  0  0
   48.0134   32.1357   44.0697 H   0  0  0  0  0  0  0  0  0  0  0  0
   47.1067   31.6110   46.3744 H   0  0  0  0  0  0  0  0  0  0  0  0
   45.3101   35.3943   43.7452 H   0  0  0  0  0  0  0  0  0  0  0  0
   48.7764   29.2318   47.5942 H   0  0  0  0  0  0  0  0  0  0  0  0
   49.7089   26.9900   48.0595 H   0  0  0  0  0  0  0  0  0  0  0  0
   50.8336   26.7458   50.2572 H   0  0  0  0  0  0  0  0  0  0  0  0
   49.8019   31.8673   51.4898 H   0  0  0  0  0  0  0  0  0  0  0  0
   51.5255   27.6400   52.3024 H   0  0  0  0  0  0  0  0  0  0  0  0
  2  1  2  0
  2 11  1  0
  2  3  1  0
  4  2  1  0
  5  6  2  0
  6  7  1  0
  7  4  1  0
  8  7  2  0
  9  8  1  0
 10  9  2  0
 10  5  1  0
 11 12  1  0
 12 13  2  0
 12 15  1  0
 14 19  2  0
 14 20  1  0
 15 14  1  0
 16 17  1  0
 16 15  2  0
 17 18  2  0
 18 19  1  0
 19 21  1  0
  3 22  1  0
  5 23  1  0
  6 24  1  0
  9 25  1  0
 16 26  1  0
 17 27  1  0
 18 28  1  0
 20 29  1  0
 21 30  1  0
M  ISO  8  22   3  23  14  24  14  25  14  26  14  27  14  28  14  29   3
M  ISO  1  30   3
M  END
>  <minimizedAffinity>  (1) 
-5.44805908

>  <minimizedRMSD>  (1) 
1.34924352

$$$$
