
     RDKit          3D

 50 53  0  0  0  0  0  0  0  0999 V2000
   47.8320   31.1580   45.9120 C   0  0  0  0  0  0  0  0  0  0  0  0
   47.0200   32.1080   45.3700 C   0  0  0  0  0  0  0  0  0  0  0  0
   45.9360   32.5280   46.1040 C   0  0  0  0  0  0  0  0  0  0  0  0
   45.6340   32.0370   47.3530 C   0  0  0  0  0  0  0  0  0  0  0  0
   44.6850   32.2270   48.2980 N   0  0  0  0  0  0  0  0  0  0  0  0
   44.9240   31.4160   49.3670 C   0  0  0  0  0  0  0  0  0  0  0  0
   46.0360   30.7220   49.0690 N   0  0  0  0  0  0  0  0  0  0  0  0
   46.4710   31.0860   47.8600 C   0  0  0  0  0  0  0  0  0  0  0  0
   47.5660   30.6250   47.1830 C   0  0  0  0  0  0  0  0  0  0  0  0
   47.2890   34.4370   42.5650 C   0  0  0  0  0  0  0  0  0  0  0  0
   47.8440   33.6380   41.5480 C   0  0  0  0  0  0  0  0  0  0  0  0
   48.1100   32.3000   41.8760 C   0  0  0  0  0  0  0  0  0  0  0  0
   47.8300   31.8400   43.1230 N   0  0  0  0  0  0  0  0  0  0  0  0
   47.3010   32.6570   44.0470 C   0  0  0  0  0  0  0  0  0  0  0  0
   47.0250   33.9400   43.7930 N   0  0  0  0  0  0  0  0  0  0  0  0
   48.1070   34.2480   40.2250 C   0  0  0  0  0  0  0  0  0  0  0  0
   48.5960   35.5190   40.5160 F   0  0  0  0  0  0  0  0  0  0  0  0
   46.9150   34.3840   39.5690 F   0  0  0  0  0  0  0  0  0  0  0  0
   49.0170   33.4670   39.5440 F   0  0  0  0  0  0  0  0  0  0  0  0
   48.3920   29.6550   47.7400 O   0  0  0  0  0  0  0  0  0  0  0  0
   49.9550   28.5480   49.4920 O   0  0  0  0  0  0  0  0  0  0  0  0
   49.4920   29.8990   48.9860 P   0  0  2  0  0  0  0  0  0  0  0  0
   48.6330   30.6270   50.2700 O   0  0  0  0  0  0  0  0  0  0  0  0
   50.7970   30.8500   48.5700 O   0  0  0  0  0  0  0  0  0  0  0  0
   51.6190   31.2090   49.6050 C   0  0  0  0  0  0  0  0  0  0  0  0
   51.0580   32.5270   50.1730 C   0  0  0  0  0  0  0  0  0  0  0  0
   51.3410   31.6320   52.3860 C   0  0  0  0  0  0  0  0  0  0  0  0
   51.6190   32.7110   51.5420 C   0  0  0  0  0  0  0  0  0  0  0  0
   52.3340   33.8040   51.9830 C   0  0  0  0  0  0  0  0  0  0  0  0
   52.7910   33.8360   53.3040 C   0  0  0  0  0  0  0  0  0  0  0  0
   52.5130   32.7630   54.1420 C   0  0  0  0  0  0  0  0  0  0  0  0
   51.7990   31.6680   53.7040 C   0  0  0  0  0  0  0  0  0  0  0  0
   50.6430   30.4780   52.0890 O   0  0  0  0  0  0  0  0  0  0  0  0
   51.5660   30.6280   54.6260 O   0  0  0  0  0  0  0  0  0  0  0  0
   48.7068   30.8042   45.3467 H   0  0  0  0  0  0  0  0  0  0  0  0
   45.2772   33.2951   45.6708 H   0  0  0  0  0  0  0  0  0  0  0  0
   43.8980   32.8870   48.2211 H   0  0  0  0  0  0  0  0  0  0  0  0
   44.3271   31.3439   50.2882 H   0  0  0  0  0  0  0  0  0  0  0  0
   47.0645   35.4931   42.3545 H   0  0  0  0  0  0  0  0  0  0  0  0
   48.5446   31.6246   41.1244 H   0  0  0  0  0  0  0  0  0  0  0  0
   49.0024   30.3140   51.1335 H   0  0  0  0  0  0  0  0  0  0  0  0
   51.6158   30.4291   50.3808 H   0  0  0  0  0  0  0  0  0  0  0  0
   52.6572   31.3333   49.2635 H   0  0  0  0  0  0  0  0  0  0  0  0
   51.3569   33.3682   49.5303 H   0  0  0  0  0  0  0  0  0  0  0  0
   49.9592   32.4913   50.2106 H   0  0  0  0  0  0  0  0  0  0  0  0
   52.5429   34.6426   51.3024 H   0  0  0  0  0  0  0  0  0  0  0  0
   53.3631   34.6992   53.6750 H   0  0  0  0  0  0  0  0  0  0  0  0
   52.8718   32.7879   55.1815 H   0  0  0  0  0  0  0  0  0  0  0  0
   50.2710   30.3442   51.1813 H   0  0  0  0  0  0  0  0  0  0  0  0
   51.9116   30.6998   55.5509 H   0  0  0  0  0  0  0  0  0  0  0  0
  1  9  2  0
  2  1  1  0
  2  3  2  0
  3  4  1  0
  4  8  2  0
  4  5  1  0
  5  6  1  0
  7  6  2  0
  8  7  1  0
  9 20  1  0
  9  8  1  0
 10 15  2  0
 11 12  2  0
 11 10  1  0
 12 13  1  0
 13 14  2  0
 14  2  1  0
 15 14  1  0
 16 17  1  0
 16 11  1  0
 18 16  1  0
 19 16  1  0
 20 22  1  0
 22 21  2  0
 22 23  1  0
 24 22  1  0
 24 25  1  0
 25 26  1  0
 26 28  1  0
 27 32  2  0
 28 29  2  0
 28 27  1  0
 29 30  1  0
 30 31  2  0
 32 31  1  0
 32 34  1  0
 33 27  1  0
  1 35  1  0
  3 36  1  0
  5 37  1  0
  6 38  1  0
 10 39  1  0
 12 40  1  0
 23 41  1  0
 25 42  1  0
 25 43  1  0
 26 44  1  0
 26 45  1  0
 29 46  1  0
 30 47  1  0
 31 48  1  0
 33 49  1  0
 34 50  1  0
M  ISO  8  35  14  36  14  37   9  38  14  39  14  40  14  41   3  42   8
M  ISO  8  43   8  44   8  45   8  46  14  47  14  48  14  49   3  50   3
M  END
>  <minimizedAffinity>  (1) 
-6.9732132

>  <minimizedRMSD>  (1) 
1.5326941

$$$$
