
     RDKit          3D

 30 31  0  0  0  0  0  0  0  0999 V2000
   49.5570   35.4270   42.7910 O   0  0  0  0  0  0  0  0  0  0  0  0
   49.1150   34.2280   42.0070 P   0  0  1  0  0  0  0  0  0  0  0  0
   50.4690   33.2790   41.7170 O   0  0  0  0  0  0  0  0  0  0  0  0
   47.9380   33.3510   42.8870 O   0  0  0  0  0  0  0  0  0  0  0  0
   46.2700   35.0610   42.8510 C   0  0  0  0  0  0  0  0  0  0  0  0
   46.8760   34.0050   43.5120 C   0  0  0  0  0  0  0  0  0  0  0  0
   46.3940   33.6470   44.7730 C   0  0  0  0  0  0  0  0  0  0  0  0
   45.3510   34.3570   45.2860 N   0  0  0  0  0  0  0  0  0  0  0  0
   44.7890   35.3710   44.6230 C   0  0  0  0  0  0  0  0  0  0  0  0
   45.2500   35.7110   43.4200 N   0  0  0  0  0  0  0  0  0  0  0  0
   48.4800   34.7390   40.5510 O   0  0  0  0  0  0  0  0  0  0  0  0
   48.0140   33.9690   39.5480 C   0  0  0  0  0  0  0  0  0  0  0  0
   46.7290   33.8220   39.6240 O   0  0  0  0  0  0  0  0  0  0  0  0
   48.1550   33.5870   37.0970 C   0  0  0  0  0  0  0  0  0  0  0  0
   48.4960   33.2220   38.3500 C   0  0  0  0  0  0  0  0  0  0  0  0
   49.3280   32.1150   38.5570 C   0  0  0  0  0  0  0  0  0  0  0  0
   49.8400   31.3460   37.5490 C   0  0  0  0  0  0  0  0  0  0  0  0
   49.5060   31.6990   36.2670 C   0  0  0  0  0  0  0  0  0  0  0  0
   48.6870   32.7900   36.0730 C   0  0  0  0  0  0  0  0  0  0  0  0
   47.3420   34.6650   36.8130 O   0  0  0  0  0  0  0  0  0  0  0  0
   48.3230   33.1830   34.7730 O   0  0  0  0  0  0  0  0  0  0  0  0
   50.8672   32.9999   42.5793 H   0  0  0  0  0  0  0  0  0  0  0  0
   46.6287   35.3650   41.8566 H   0  0  0  0  0  0  0  0  0  0  0  0
   46.8437   32.8156   45.3356 H   0  0  0  0  0  0  0  0  0  0  0  0
   43.9486   35.9235   45.0685 H   0  0  0  0  0  0  0  0  0  0  0  0
   49.5851   31.8480   39.5927 H   0  0  0  0  0  0  0  0  0  0  0  0
   50.4902   30.4835   37.7571 H   0  0  0  0  0  0  0  0  0  0  0  0
   49.8845   31.1225   35.4100 H   0  0  0  0  0  0  0  0  0  0  0  0
   47.1245   34.8869   35.8730 H   0  0  0  0  0  0  0  0  0  0  0  0
   47.7343   33.9677   34.6397 H   0  0  0  0  0  0  0  0  0  0  0  0
  2  1  2  0
  2  4  1  0
  3  2  1  0
  4  6  1  0
  5 10  2  0
  5  6  1  0
  6  7  2  0
  7  8  1  0
  9  8  2  0
 10  9  1  0
 11  2  1  0
 12 13  2  0
 12 11  1  0
 14 15  2  0
 15 16  1  0
 15 12  1  0
 17 16  2  0
 18 17  1  0
 19 18  2  0
 19 14  1  0
 20 14  1  0
 21 19  1  0
  3 22  1  0
  5 23  1  0
  7 24  1  0
  9 25  1  0
 16 26  1  0
 17 27  1  0
 18 28  1  0
 20 29  1  0
 21 30  1  0
M  ISO  8  22   3  23  14  24  14  25  14  26  14  27  14  28  14  29   3
M  ISO  1  30   3
M  END
>  <minimizedAffinity>  (1) 
-5.39107227

>  <minimizedRMSD>  (1) 
1.19195914

$$$$
