
     RDKit          3D

 52 54  0  0  1  0  0  0  0  0999 V2000
   46.7460   34.3360   43.5070 N   0  0  0  0  0  0  0  0  0  0  0  0
   46.4540   34.9150   42.2600 C   0  0  0  0  0  0  0  0  0  0  0  0
   44.9810   34.9230   41.9000 C   0  0  0  0  0  0  0  0  0  0  0  0
   44.0670   35.1350   43.0840 C   0  0  0  0  0  0  0  0  0  0  0  0
   44.8510   35.3560   44.3670 C   0  0  0  0  0  0  0  0  0  0  0  0
   45.7680   34.0680   44.4380 C   0  0  2  0  0  0  0  0  0  0  0  0
   47.9540   33.5490   43.5300 C   0  0  0  0  0  0  0  0  0  0  0  0
   47.7200   32.3180   42.7370 C   0  0  0  0  0  0  0  0  0  0  0  0
   51.2300   32.1570   41.4110 C   0  0  0  0  0  0  0  0  0  0  0  0
   50.1310   32.3610   42.2630 C   0  0  0  0  0  0  0  0  0  0  0  0
   48.8600   32.0930   41.8190 C   0  0  0  0  0  0  0  0  0  0  0  0
   48.7350   31.6400   40.5670 N   0  0  0  0  0  0  0  0  0  0  0  0
   49.7780   31.4430   39.7540 C   0  0  0  0  0  0  0  0  0  0  0  0
   51.0330   31.6950   40.1550 N   0  0  0  0  0  0  0  0  0  0  0  0
   46.2300   34.1670   45.7490 O   0  0  0  0  0  0  0  0  0  0  0  0
   45.7390   31.5490   45.6390 O   0  0  0  0  0  0  0  0  0  0  0  0
   46.0900   32.7100   46.5830 P   0  0  2  0  0  0  0  0  0  0  0  0
   44.7370   32.8740   47.6030 O   0  0  0  0  0  0  0  0  0  0  0  0
   47.4240   32.3720   47.5280 O   0  0  0  0  0  0  0  0  0  0  0  0
   47.6160   31.0020   47.5540 C   0  0  0  0  0  0  0  0  0  0  0  0
   49.0530   29.4620   48.9730 C   0  0  0  0  0  0  0  0  0  0  0  0
   48.6520   30.7230   48.5890 C   0  0  0  0  0  0  0  0  0  0  0  0
   49.2530   31.8200   49.2120 C   0  0  0  0  0  0  0  0  0  0  0  0
   50.2220   31.7350   50.1860 C   0  0  0  0  0  0  0  0  0  0  0  0
   50.5900   30.4590   50.5360 C   0  0  0  0  0  0  0  0  0  0  0  0
   50.0310   29.3380   49.9550 C   0  0  0  0  0  0  0  0  0  0  0  0
   48.4250   28.4090   48.3230 O   0  0  0  0  0  0  0  0  0  0  0  0
   50.4070   28.0410   50.3110 O   0  0  0  0  0  0  0  0  0  0  0  0
   46.8103   35.9556   42.2725 H   0  0  0  0  0  0  0  0  0  0  0  0
   46.9579   34.2969   41.5023 H   0  0  0  0  0  0  0  0  0  0  0  0
   44.8049   35.7324   41.1762 H   0  0  0  0  0  0  0  0  0  0  0  0
   44.7460   33.9312   41.4864 H   0  0  0  0  0  0  0  0  0  0  0  0
   43.4372   36.0168   42.8947 H   0  0  0  0  0  0  0  0  0  0  0  0
   43.4526   34.2312   43.2090 H   0  0  0  0  0  0  0  0  0  0  0  0
   45.4571   36.2721   44.3091 H   0  0  0  0  0  0  0  0  0  0  0  0
   44.2121   35.4874   45.2528 H   0  0  0  0  0  0  0  0  0  0  0  0
   45.3421   33.0741   44.2358 H   0  0  0  0  0  0  0  0  0  0  0  0
   48.7816   34.1242   43.0893 H   0  0  0  0  0  0  0  0  0  0  0  0
   48.2187   33.2893   44.5656 H   0  0  0  0  0  0  0  0  0  0  0  0
   47.6220   31.4583   43.4162 H   0  0  0  0  0  0  0  0  0  0  0  0
   46.7963   32.4318   42.1506 H   0  0  0  0  0  0  0  0  0  0  0  0
   52.2489   32.3727   41.7650 H   0  0  0  0  0  0  0  0  0  0  0  0
   50.2893   32.7353   43.2852 H   0  0  0  0  0  0  0  0  0  0  0  0
   49.6033   31.0665   38.7353 H   0  0  0  0  0  0  0  0  0  0  0  0
   45.0299   32.8385   48.5480 H   0  0  0  0  0  0  0  0  0  0  0  0
   46.6758   30.4943   47.8151 H   0  0  0  0  0  0  0  0  0  0  0  0
   47.9382   30.6335   46.5689 H   0  0  0  0  0  0  0  0  0  0  0  0
   48.9283   32.8241   48.9016 H   0  0  0  0  0  0  0  0  0  0  0  0
   50.6697   32.6257   50.6509 H   0  0  0  0  0  0  0  0  0  0  0  0
   51.3604   30.3247   51.3096 H   0  0  0  0  0  0  0  0  0  0  0  0
   47.7376   28.5917   47.6344 H   0  0  0  0  0  0  0  0  0  0  0  0
   51.0988   27.8990   51.0047 H   0  0  0  0  0  0  0  0  0  0  0  0
  1  7  1  0
  1  6  1  0
  2  1  1  0
  3  2  1  0
  3  4  1  0
  4  5  1  0
  5  6  1  0
  6 15  1  0
  8  7  1  0
  9 10  2  0
 11 10  1  0
 11  8  1  0
 12 11  2  0
 13 14  2  0
 13 12  1  0
 14  9  1  0
 15 17  1  0
 17 16  2  0
 17 19  1  0
 17 18  1  0
 19 20  1  0
 20 22  1  0
 21 26  2  0
 22 21  1  0
 22 23  2  0
 23 24  1  0
 24 25  2  0
 26 28  1  0
 26 25  1  0
 27 21  1  0
  2 29  1  0
  2 30  1  0
  3 31  1  0
  3 32  1  0
  4 33  1  0
  4 34  1  0
  5 35  1  0
  5 36  1  0
  6 37  1  6
  7 38  1  0
  7 39  1  0
  8 40  1  0
  8 41  1  0
  9 42  1  0
 10 43  1  0
 13 44  1  0
 18 45  1  0
 20 46  1  0
 20 47  1  0
 23 48  1  0
 24 49  1  0
 25 50  1  0
 27 51  1  0
 28 52  1  0
M  ISO  8  29  13  30  13  31  13  32  13  33  13  34  13  35  13  36  13
M  ISO  8  37  13  38   8  39   8  40   8  41   8  42  14  43  14  44  14
M  ISO  8  45   3  46   8  47   8  48  14  49  14  50  14  51   3  52   3
M  END
>  <minimizedAffinity>  (1) 
-5.49984598

>  <minimizedRMSD>  (1) 
3.29917479

$$$$
