
     RDKit          3D

 44 47  0  0  0  0  0  0  0  0999 V2000
   47.8530   31.0050   46.0090 C   0  0  0  0  0  0  0  0  0  0  0  0
   47.0880   32.0500   45.5200 C   0  0  0  0  0  0  0  0  0  0  0  0
   46.0760   32.5330   46.3140 C   0  0  0  0  0  0  0  0  0  0  0  0
   45.7930   32.0240   47.5650 C   0  0  0  0  0  0  0  0  0  0  0  0
   44.9080   32.2590   48.5560 N   0  0  0  0  0  0  0  0  0  0  0  0
   45.1220   31.4050   49.5890 C   0  0  0  0  0  0  0  0  0  0  0  0
   46.1550   30.6310   49.2290 N   0  0  0  0  0  0  0  0  0  0  0  0
   46.5840   30.9900   47.9930 C   0  0  0  0  0  0  0  0  0  0  0  0
   47.6060   30.4630   47.2560 C   0  0  0  0  0  0  0  0  0  0  0  0
   47.2590   34.3820   42.7100 C   0  0  0  0  0  0  0  0  0  0  0  0
   47.8800   33.6380   41.7220 C   0  0  0  0  0  0  0  0  0  0  0  0
   48.2360   32.3170   42.0490 C   0  0  0  0  0  0  0  0  0  0  0  0
   47.9670   31.8300   43.2890 N   0  0  0  0  0  0  0  0  0  0  0  0
   47.3570   32.6140   44.2070 C   0  0  0  0  0  0  0  0  0  0  0  0
   47.0060   33.8680   43.9330 N   0  0  0  0  0  0  0  0  0  0  0  0
   48.1260   34.2720   40.3990 C   0  0  0  0  0  0  0  0  0  0  0  0
   48.6460   35.5090   40.6900 F   0  0  0  0  0  0  0  0  0  0  0  0
   46.9250   34.4100   39.7650 F   0  0  0  0  0  0  0  0  0  0  0  0
   48.9930   33.4590   39.6780 F   0  0  0  0  0  0  0  0  0  0  0  0
   48.3680   29.4130   47.7550 O   0  0  0  0  0  0  0  0  0  0  0  0
   49.9270   28.1600   49.4150 O   0  0  0  0  0  0  0  0  0  0  0  0
   49.5620   29.5720   48.9250 P   0  0  2  0  0  0  0  0  0  0  0  0
   48.8990   30.3830   50.2490 O   0  0  0  0  0  0  0  0  0  0  0  0
   50.9560   30.3540   48.3970 O   0  0  0  0  0  0  0  0  0  0  0  0
   52.8610   30.4210   46.7870 C   0  0  0  0  0  0  0  0  0  0  0  0
   51.6640   29.9720   47.2800 C   0  0  0  0  0  0  0  0  0  0  0  0
   50.9810   28.9590   46.5980 C   0  0  0  0  0  0  0  0  0  0  0  0
   51.5000   28.4000   45.4270 C   0  0  0  0  0  0  0  0  0  0  0  0
   52.7000   28.8610   44.9450 C   0  0  0  0  0  0  0  0  0  0  0  0
   53.3480   29.8520   45.6290 C   0  0  0  0  0  0  0  0  0  0  0  0
   53.4330   31.4150   47.5430 O   0  0  0  0  0  0  0  0  0  0  0  0
   54.5630   30.3500   45.1820 O   0  0  0  0  0  0  0  0  0  0  0  0
   48.6707   30.5995   45.3951 H   0  0  0  0  0  0  0  0  0  0  0  0
   45.4630   33.3639   45.9349 H   0  0  0  0  0  0  0  0  0  0  0  0
   44.1753   32.9825   48.5320 H   0  0  0  0  0  0  0  0  0  0  0  0
   44.5597   31.3577   50.5332 H   0  0  0  0  0  0  0  0  0  0  0  0
   46.9637   35.4193   42.4935 H   0  0  0  0  0  0  0  0  0  0  0  0
   48.7314   31.6791   41.3022 H   0  0  0  0  0  0  0  0  0  0  0  0
   49.2327   29.9748   51.0869 H   0  0  0  0  0  0  0  0  0  0  0  0
   50.0193   28.5965   46.9902 H   0  0  0  0  0  0  0  0  0  0  0  0
   50.9554   27.6029   44.8996 H   0  0  0  0  0  0  0  0  0  0  0  0
   53.1325   28.4407   44.0250 H   0  0  0  0  0  0  0  0  0  0  0  0
   54.3003   31.8071   47.2707 H   0  0  0  0  0  0  0  0  0  0  0  0
   55.0202   31.0676   45.6881 H   0  0  0  0  0  0  0  0  0  0  0  0
  1  9  2  0
  2  1  1  0
  2  3  2  0
  3  4  1  0
  4  8  2  0
  4  5  1  0
  5  6  1  0
  7  6  2  0
  8  7  1  0
  9 20  1  0
  9  8  1  0
 10 15  2  0
 11 12  2  0
 11 10  1  0
 12 13  1  0
 13 14  2  0
 14  2  1  0
 15 14  1  0
 16 17  1  0
 16 11  1  0
 18 16  1  0
 19 16  1  0
 20 22  1  0
 22 21  2  0
 22 23  1  0
 24 22  1  0
 25 26  2  0
 25 31  1  0
 26 24  1  0
 27 26  1  0
 28 27  2  0
 29 28  1  0
 29 30  2  0
 30 25  1  0
 32 30  1  0
  1 33  1  0
  3 34  1  0
  5 35  1  0
  6 36  1  0
 10 37  1  0
 12 38  1  0
 23 39  1  0
 27 40  1  0
 28 41  1  0
 29 42  1  0
 31 43  1  0
 32 44  1  0
M  ISO  8  33  14  34  14  35   9  36  14  37  14  38  14  39   3  40  14
M  ISO  4  41  14  42  14  43   3  44   3
M  END
>  <minimizedAffinity>  (1) 
-5.7959137

>  <minimizedRMSD>  (1) 
0.27558884

$$$$
