
     RDKit          3D

 37 39  0  0  1  0  0  0  0  0999 V2000
   44.4560   35.9230   44.9800 C   0  0  0  0  0  0  0  0  0  0  0  0
   45.0690   35.9060   43.7070 C   0  0  0  0  0  0  0  0  0  0  0  0
   45.9320   34.8980   43.3980 C   0  0  0  0  0  0  0  0  0  0  0  0
   46.1510   33.9560   44.3520 N   0  0  0  0  0  0  0  0  0  0  0  0
   45.5740   33.9770   45.5430 C   0  0  0  0  0  0  0  0  0  0  0  0
   44.7180   34.9590   45.8760 N   0  0  0  0  0  0  0  0  0  0  0  0
   45.8780   32.9420   46.4620 N   0  0  0  0  0  0  0  0  0  0  0  0
   45.1060   32.6300   47.6630 C   0  0  0  0  0  0  0  0  0  0  0  0
   46.2180   32.2820   48.6540 C   0  0  0  0  0  0  0  0  0  0  0  0
   47.4810   32.1430   47.8710 C   0  0  0  0  0  0  0  0  0  0  0  0
   46.9620   31.9900   46.4500 C   0  0  1  0  0  0  0  0  0  0  0  0
   44.7220   36.9830   42.8170 N   0  0  0  0  0  0  0  0  0  0  0  0
   46.3970   30.3070   46.1870 S   0  0  0  0  0  0  0  0  0  0  0  0
   47.5490   28.0980   47.6200 C   0  0  0  0  0  0  0  0  0  0  0  0
   47.6310   29.1380   46.7250 C   0  0  0  0  0  0  0  0  0  0  0  0
   48.8540   29.3770   46.0860 C   0  0  0  0  0  0  0  0  0  0  0  0
   49.9700   28.5770   46.3530 C   0  0  0  0  0  0  0  0  0  0  0  0
   49.8590   27.5410   47.2550 C   0  0  0  0  0  0  0  0  0  0  0  0
   48.6370   27.3230   47.8750 C   0  0  0  0  0  0  0  0  0  0  0  0
   46.2900   27.9760   48.1720 O   0  0  0  0  0  0  0  0  0  0  0  0
   48.3830   26.3060   48.8140 O   0  0  0  0  0  0  0  0  0  0  0  0
   43.7583   36.7331   45.2387 H   0  0  0  0  0  0  0  0  0  0  0  0
   46.4299   34.8491   42.4184 H   0  0  0  0  0  0  0  0  0  0  0  0
   44.5215   33.4979   48.0024 H   0  0  0  0  0  0  0  0  0  0  0  0
   44.3611   31.8326   47.5244 H   0  0  0  0  0  0  0  0  0  0  0  0
   46.3231   33.0843   49.3991 H   0  0  0  0  0  0  0  0  0  0  0  0
   45.9860   31.3491   49.1887 H   0  0  0  0  0  0  0  0  0  0  0  0
   48.1128   33.0379   47.9708 H   0  0  0  0  0  0  0  0  0  0  0  0
   48.1162   31.3080   48.2017 H   0  0  0  0  0  0  0  0  0  0  0  0
   47.6926   32.1687   45.6473 H   0  0  0  0  0  0  0  0  0  0  0  0
   45.1360   37.0262   41.8748 H   0  0  0  0  0  0  0  0  0  0  0  0
   44.0598   37.7104   43.1224 H   0  0  0  0  0  0  0  0  0  0  0  0
   48.9381   30.2038   45.3654 H   0  0  0  0  0  0  0  0  0  0  0  0
   50.9272   28.7730   45.8477 H   0  0  0  0  0  0  0  0  0  0  0  0
   50.7233   26.8987   47.4793 H   0  0  0  0  0  0  0  0  0  0  0  0
   45.5709   28.6031   47.9080 H   0  0  0  0  0  0  0  0  0  0  0  0
   49.1055   25.6815   49.0749 H   0  0  0  0  0  0  0  0  0  0  0  0
  1  6  2  0
  2  1  1  0
  3  2  2  0
  3  4  1  0
  4  5  2  0
  5  6  1  0
  5  7  1  0
  7  8  1  0
  8  9  1  0
 10  9  1  0
 11  7  1  0
 11 10  1  0
 12  2  1  0
 13 11  1  0
 13 15  1  0
 14 19  2  0
 14 20  1  0
 15 14  1  0
 16 17  1  0
 16 15  2  0
 17 18  2  0
 18 19  1  0
 19 21  1  0
  1 22  1  0
  3 23  1  0
  8 24  1  0
  8 25  1  0
  9 26  1  0
  9 27  1  0
 10 28  1  0
 10 29  1  0
 11 30  1  6
 12 31  1  0
 12 32  1  0
 16 33  1  0
 17 34  1  0
 18 35  1  0
 20 36  1  0
 21 37  1  0
M  ISO  8  22  14  23  14  24  13  25  13  26  13  27  13  28  13  29  13
M  ISO  6  30  13  33  14  34  14  35  14  36   3  37   3
M  END
>  <minimizedAffinity>  (1) 
-5.76406956

>  <minimizedRMSD>  (1) 
0.987751901

$$$$
