
     RDKit          3D

 49 51  0  0  0  0  0  0  0  0999 V2000
   46.7470   34.8720   42.3740 C   0  0  0  0  0  0  0  0  0  0  0  0
   45.3240   34.7710   41.9460 C   0  0  0  0  0  0  0  0  0  0  0  0
   44.4010   35.7650   42.3780 C   0  0  0  0  0  0  0  0  0  0  0  0
   42.8280   35.2270   41.6180 S   0  0  0  0  0  0  0  0  0  0  0  0
   43.7010   33.7180   40.8280 C   0  0  0  0  0  0  0  0  0  0  0  0
   44.7700   33.8650   41.1970 N   0  0  0  0  0  0  0  0  0  0  0  0
   43.0330   32.7930   40.0380 O   0  0  0  0  0  0  0  0  0  0  0  0
   42.0110   32.1160   37.6970 O   0  0  0  0  0  0  0  0  0  0  0  0
   43.0130   33.0470   38.3660 P   0  0  1  0  0  0  0  0  0  0  0  0
   42.4940   34.6520   38.1000 O   0  0  0  0  0  0  0  0  0  0  0  0
   44.5620   32.8870   37.7270 O   0  0  0  0  0  0  0  0  0  0  0  0
   45.0800   30.5510   37.6230 C   0  0  0  0  0  0  0  0  0  0  0  0
   44.8740   31.7680   36.9650 C   0  0  0  0  0  0  0  0  0  0  0  0
   44.9990   31.7650   35.5920 C   0  0  0  0  0  0  0  0  0  0  0  0
   45.3130   30.6040   34.9100 C   0  0  0  0  0  0  0  0  0  0  0  0
   45.5150   29.4060   35.5650 C   0  0  0  0  0  0  0  0  0  0  0  0
   45.3990   29.3730   36.9430 C   0  0  0  0  0  0  0  0  0  0  0  0
   44.9560   30.5440   39.0250 O   0  0  0  0  0  0  0  0  0  0  0  0
   45.5760   28.2400   37.7250 O   0  0  0  0  0  0  0  0  0  0  0  0
   47.7120   34.9190   41.2260 C   0  0  0  0  0  0  0  0  0  0  0  0
   48.8890   34.0570   41.4060 C   0  0  0  0  0  0  0  0  0  0  0  0
   49.0120   32.9800   40.5400 C   0  0  0  0  0  0  0  0  0  0  0  0
   50.0800   32.1160   40.6320 C   0  0  0  0  0  0  0  0  0  0  0  0
   51.0090   32.3870   41.6270 N   0  0  0  0  0  0  0  0  0  0  0  0
   50.8490   33.4460   42.4470 C   0  0  0  0  0  0  0  0  0  0  0  0
   49.8090   34.2580   42.3320 N   0  0  0  0  0  0  0  0  0  0  0  0
   47.7650   32.6990   39.2790 S   0  0  0  0  0  0  0  0  0  0  0  0
   48.5440   32.4300   37.6690 C   0  0  0  0  0  0  0  0  0  0  0  0
   48.3050   33.6430   36.8160 C   0  0  0  0  0  0  0  0  0  0  0  0
   48.2780   33.2370   35.4380 N   0  0  0  0  0  0  0  0  0  0  0  0
   46.8680   35.7892   42.9691 H   0  0  0  0  0  0  0  0  0  0  0  0
   46.9767   33.9665   42.9548 H   0  0  0  0  0  0  0  0  0  0  0  0
   44.5886   36.6427   43.0140 H   0  0  0  0  0  0  0  0  0  0  0  0
   42.3490   35.1005   38.9706 H   0  0  0  0  0  0  0  0  0  0  0  0
   44.8468   32.6991   35.0314 H   0  0  0  0  0  0  0  0  0  0  0  0
   45.4044   30.6360   33.8143 H   0  0  0  0  0  0  0  0  0  0  0  0
   45.7636   28.4945   35.0017 H   0  0  0  0  0  0  0  0  0  0  0  0
   45.0937   29.7037   39.5299 H   0  0  0  0  0  0  0  0  0  0  0  0
   45.4758   28.2966   38.7083 H   0  0  0  0  0  0  0  0  0  0  0  0
   48.0570   35.9565   41.1049 H   0  0  0  0  0  0  0  0  0  0  0  0
   47.1753   34.5483   40.3403 H   0  0  0  0  0  0  0  0  0  0  0  0
   50.1910   31.2573   39.9536 H   0  0  0  0  0  0  0  0  0  0  0  0
   51.5987   33.6395   43.2283 H   0  0  0  0  0  0  0  0  0  0  0  0
   49.6252   32.2761   37.8009 H   0  0  0  0  0  0  0  0  0  0  0  0
   48.1152   31.5393   37.1866 H   0  0  0  0  0  0  0  0  0  0  0  0
   47.3424   34.1019   37.0859 H   0  0  0  0  0  0  0  0  0  0  0  0
   49.1076   34.3781   36.9752 H   0  0  0  0  0  0  0  0  0  0  0  0
   48.2097   32.2107   35.3837 H   0  0  0  0  0  0  0  0  0  0  0  0
   47.4633   33.6604   34.9712 H   0  0  0  0  0  0  0  0  0  0  0  0
  2  1  1  0
  2  3  2  0
  4  3  1  0
  5  6  2  0
  5  4  1  0
  6  2  1  0
  7  5  1  0
  9  8  2  0
  9  7  1  0
 10  9  1  0
 11  9  1  0
 12 18  1  0
 13 12  2  0
 13 11  1  0
 14 13  1  0
 15 16  1  0
 15 14  2  0
 16 17  2  0
 17 12  1  0
 17 19  1  0
 20 21  1  0
 20  1  1  0
 21 26  2  0
 22 23  2  0
 22 21  1  0
 23 24  1  0
 24 25  2  0
 26 25  1  0
 27 22  1  0
 28 27  1  0
 29 28  1  0
 30 29  1  0
  1 31  1  0
  1 32  1  0
  3 33  1  0
 10 34  1  0
 14 35  1  0
 15 36  1  0
 16 37  1  0
 18 38  1  0
 19 39  1  0
 20 40  1  0
 20 41  1  0
 23 42  1  0
 25 43  1  0
 28 44  1  0
 28 45  1  0
 29 46  1  0
 29 47  1  0
 30 48  1  0
 30 49  1  0
M  ISO  8  31   8  32   8  33  14  34   3  35  14  36  14  37  14  38   3
M  ISO  8  39   3  40   8  41   8  42  14  43  14  44   8  45   8  46   8
M  ISO  3  47   8  48   5  49   5
M  END
>  <minimizedAffinity>  (1) 
-4.4223299

>  <minimizedRMSD>  (1) 
2.34220743

$$$$
