
     RDKit          3D

 41 44  0  0  0  0  0  0  0  0999 V2000
   45.9790   32.7480   46.4860 C   0  0  0  0  0  0  0  0  0  0  0  0
   45.4190   32.8620   47.7880 C   0  0  0  0  0  0  0  0  0  0  0  0
   45.6160   31.9440   48.7790 C   0  0  0  0  0  0  0  0  0  0  0  0
   46.3720   30.8550   48.5660 C   0  0  0  0  0  0  0  0  0  0  0  0
   46.9540   30.6810   47.3070 C   0  0  0  0  0  0  0  0  0  0  0  0
   47.7130   29.5670   47.1230 C   0  0  0  0  0  0  0  0  0  0  0  0
   48.3090   29.3330   45.9120 C   0  0  0  0  0  0  0  0  0  0  0  0
   48.0900   30.2820   44.9220 C   0  0  0  0  0  0  0  0  0  0  0  0
   47.3250   31.3610   45.1820 C   0  0  0  0  0  0  0  0  0  0  0  0
   46.7310   31.6250   46.3380 C   0  0  0  0  0  0  0  0  0  0  0  0
   44.4570   35.7050   45.1180 C   0  0  0  0  0  0  0  0  0  0  0  0
   45.0880   35.8130   43.8410 C   0  0  0  0  0  0  0  0  0  0  0  0
   46.0530   34.8490   43.4400 C   0  0  0  0  0  0  0  0  0  0  0  0
   46.3110   33.8780   44.3170 N   0  0  0  0  0  0  0  0  0  0  0  0
   45.7560   33.7530   45.4840 C   0  0  0  0  0  0  0  0  0  0  0  0
   44.8270   34.6800   45.8670 N   0  0  0  0  0  0  0  0  0  0  0  0
   44.6920   36.9140   43.0320 N   0  0  0  0  0  0  0  0  0  0  0  0
   47.2870   32.1000   44.0330 O   0  0  0  0  0  0  0  0  0  0  0  0
   48.9220   32.3250   42.1960 C   0  0  0  0  0  0  0  0  0  0  0  0
   47.8300   31.7290   42.7930 C   0  0  0  0  0  0  0  0  0  0  0  0
   47.2300   30.6810   42.1100 C   0  0  0  0  0  0  0  0  0  0  0  0
   47.6830   30.2380   40.8910 C   0  0  0  0  0  0  0  0  0  0  0  0
   48.7760   30.8510   40.3150 C   0  0  0  0  0  0  0  0  0  0  0  0
   49.3860   31.8890   40.9720 C   0  0  0  0  0  0  0  0  0  0  0  0
   49.5570   33.3910   42.8660 O   0  0  0  0  0  0  0  0  0  0  0  0
   50.4910   32.5340   40.4260 O   0  0  0  0  0  0  0  0  0  0  0  0
   44.7922   33.7386   48.0090 H   0  0  0  0  0  0  0  0  0  0  0  0
   45.1500   32.0982   49.7634 H   0  0  0  0  0  0  0  0  0  0  0  0
   46.5300   30.1157   49.3650 H   0  0  0  0  0  0  0  0  0  0  0  0
   47.8484   28.8527   47.9485 H   0  0  0  0  0  0  0  0  0  0  0  0
   48.9278   28.4413   45.7333 H   0  0  0  0  0  0  0  0  0  0  0  0
   48.5403   30.1533   43.9267 H   0  0  0  0  0  0  0  0  0  0  0  0
   43.7061   36.4330   45.4589 H   0  0  0  0  0  0  0  0  0  0  0  0
   46.5572   34.9010   42.4637 H   0  0  0  0  0  0  0  0  0  0  0  0
   45.1114   37.0458   42.1005 H   0  0  0  0  0  0  0  0  0  0  0  0
   43.9859   37.5794   43.3777 H   0  0  0  0  0  0  0  0  0  0  0  0
   46.3580   30.1857   42.5619 H   0  0  0  0  0  0  0  0  0  0  0  0
   47.1797   29.4039   40.3802 H   0  0  0  0  0  0  0  0  0  0  0  0
   49.1543   30.5112   39.3396 H   0  0  0  0  0  0  0  0  0  0  0  0
   50.3423   33.8346   42.4578 H   0  0  0  0  0  0  0  0  0  0  0  0
   50.9190   33.2815   40.9140 H   0  0  0  0  0  0  0  0  0  0  0  0
  1  2  2  0
  2  3  1  0
  4  3  2  0
  5  4  1  0
  6  5  2  0
  7  6  1  0
  8  9  1  0
  8  7  2  0
  9 10  2  0
 10  1  1  0
 10  5  1  0
 11 16  2  0
 12 11  1  0
 13 12  2  0
 13 14  1  0
 14 15  2  0
 15 16  1  0
 15  1  1  0
 17 12  1  0
 18  9  1  0
 19 20  2  0
 19 25  1  0
 20 18  1  0
 21 20  1  0
 22 21  2  0
 23 22  1  0
 23 24  2  0
 24 19  1  0
 26 24  1  0
  2 27  1  0
  3 28  1  0
  4 29  1  0
  6 30  1  0
  7 31  1  0
  8 32  1  0
 11 33  1  0
 13 34  1  0
 17 35  1  0
 17 36  1  0
 21 37  1  0
 22 38  1  0
 23 39  1  0
 25 40  1  0
 26 41  1  0
M  ISO  8  27  14  28  14  29  14  30  14  31  14  32  14  33  14  34  14
M  ISO  5  37  14  38  14  39  14  40   3  41   3
M  END
>  <minimizedAffinity>  (1) 
-6.34605932

>  <minimizedRMSD>  (1) 
0.722755313

$$$$
