
     RDKit          3D

 25 26  0  0  0  0  0  0  0  0999 V2000
   45.5310   33.5860   42.0100 C   0  0  0  0  0  0  0  0  0  0  0  0
   44.3580   35.9300   44.6370 C   0  0  0  0  0  0  0  0  0  0  0  0
   44.6360   35.3840   43.3680 C   0  0  0  0  0  0  0  0  0  0  0  0
   45.2490   34.1370   43.3360 C   0  0  0  0  0  0  0  0  0  0  0  0
   45.5480   33.5110   44.5020 N   0  0  0  0  0  0  0  0  0  0  0  0
   45.2620   34.0740   45.7020 C   0  0  0  0  0  0  0  0  0  0  0  0
   44.6700   35.2780   45.7550 N   0  0  0  0  0  0  0  0  0  0  0  0
   47.0340   34.1460   40.1310 C   0  0  0  0  0  0  0  0  0  0  0  0
   46.7640   34.2550   41.4940 C   0  0  0  0  0  0  0  0  0  0  0  0
   47.6150   34.9580   42.3200 C   0  0  0  0  0  0  0  0  0  0  0  0
   48.7480   35.5660   41.8070 C   0  0  0  0  0  0  0  0  0  0  0  0
   49.0190   35.4570   40.4430 C   0  0  0  0  0  0  0  0  0  0  0  0
   48.1620   34.7490   39.6100 C   0  0  0  0  0  0  0  0  0  0  0  0
   46.2230   33.4510   39.2220 O   0  0  0  0  0  0  0  0  0  0  0  0
   48.5500   34.7220   38.2860 O   0  0  0  0  0  0  0  0  0  0  0  0
   45.6957   32.5008   42.0823 H   0  0  0  0  0  0  0  0  0  0  0  0
   44.6837   33.7620   41.3310 H   0  0  0  0  0  0  0  0  0  0  0  0
   43.8733   36.9151   44.7052 H   0  0  0  0  0  0  0  0  0  0  0  0
   44.3791   35.9212   42.4431 H   0  0  0  0  0  0  0  0  0  0  0  0
   45.5150   33.5442   46.6322 H   0  0  0  0  0  0  0  0  0  0  0  0
   47.3921   35.0364   43.3943 H   0  0  0  0  0  0  0  0  0  0  0  0
   49.4258   36.1278   42.4665 H   0  0  0  0  0  0  0  0  0  0  0  0
   49.9171   35.9347   40.0244 H   0  0  0  0  0  0  0  0  0  0  0  0
   46.4729   33.4123   38.2648 H   0  0  0  0  0  0  0  0  0  0  0  0
   49.3781   35.1851   38.0033 H   0  0  0  0  0  0  0  0  0  0  0  0
  1  4  1  0
  2  7  2  0
  3  2  1  0
  4  3  2  0
  4  5  1  0
  5  6  2  0
  6  7  1  0
  8  9  2  0
  9  1  1  0
  9 10  1  0
 11 10  2  0
 12 11  1  0
 13  8  1  0
 13 12  2  0
 14  8  1  0
 15 13  1  0
  1 16  1  0
  1 17  1  0
  2 18  1  0
  3 19  1  0
  6 20  1  0
 10 21  1  0
 11 22  1  0
 12 23  1  0
 14 24  1  0
 15 25  1  0
M  ISO  8  16   8  17   8  18  14  19  14  20  14  21  14  22  14  23  14
M  ISO  2  24   3  25   3
M  END
>  <minimizedAffinity>  (1) 
-4.98973227

>  <minimizedRMSD>  (1) 
2.93888736

$$$$
