
     RDKit          3D

 48 51  0  0  1  0  0  0  0  0999 V2000
   44.5650   35.6820   44.5110 C   0  0  0  0  0  0  0  0  0  0  0  0
   45.0880   35.5160   43.2110 C   0  0  0  0  0  0  0  0  0  0  0  0
   46.0750   34.4880   43.0130 C   0  0  0  0  0  0  0  0  0  0  0  0
   46.4450   33.7440   44.0740 N   0  0  0  0  0  0  0  0  0  0  0  0
   45.9280   33.9320   45.2900 C   0  0  0  0  0  0  0  0  0  0  0  0
   44.9800   34.9030   45.5270 N   0  0  0  0  0  0  0  0  0  0  0  0
   46.3770   33.0850   46.4260 C   0  0  2  0  0  0  0  0  0  0  0  0
   46.9560   31.8450   45.7790 C   0  0  0  0  0  0  0  0  0  0  0  0
   46.1290   30.6310   45.8440 C   0  0  0  0  0  0  0  0  0  0  0  0
   45.8560   30.4210   47.3330 C   0  0  0  0  0  0  0  0  0  0  0  0
   45.0240   31.4780   47.9010 C   0  0  0  0  0  0  0  0  0  0  0  0
   45.3430   32.8400   47.3900 C   0  0  0  0  0  0  0  0  0  0  0  0
   44.6100   33.9720   47.8530 N   0  0  0  0  0  0  0  0  0  0  0  0
   46.6280   34.2930   41.6870 C   0  0  0  0  0  0  0  0  0  0  0  0
   47.7880   34.9030   41.3670 C   0  0  0  0  0  0  0  0  0  0  0  0
   48.2690   34.6890   40.0690 C   0  0  0  0  0  0  0  0  0  0  0  0
   47.5100   33.8760   39.2460 C   0  0  0  0  0  0  0  0  0  0  0  0
   46.3280   33.2550   39.5760 C   0  0  0  0  0  0  0  0  0  0  0  0
   45.9130   33.5000   40.8490 N   0  0  0  0  0  0  0  0  0  0  0  0
   45.6350   32.4690   38.7030 O   0  0  0  0  0  0  0  0  0  0  0  0
   45.6030   32.7540   36.2650 C   0  0  0  0  0  0  0  0  0  0  0  0
   45.9180   32.1350   37.4330 C   0  0  0  0  0  0  0  0  0  0  0  0
   46.6600   30.9520   37.3230 C   0  0  0  0  0  0  0  0  0  0  0  0
   47.0580   30.4270   36.1080 C   0  0  0  0  0  0  0  0  0  0  0  0
   46.7040   31.1070   34.9550 C   0  0  0  0  0  0  0  0  0  0  0  0
   45.9740   32.2740   35.0230 C   0  0  0  0  0  0  0  0  0  0  0  0
   44.8670   33.9270   36.3960 O   0  0  0  0  0  0  0  0  0  0  0  0
   45.5910   32.9990   33.9090 O   0  0  0  0  0  0  0  0  0  0  0  0
   43.8081   36.4584   44.6965 H   0  0  0  0  0  0  0  0  0  0  0  0
   44.7526   36.1507   42.3776 H   0  0  0  0  0  0  0  0  0  0  0  0
   47.1380   33.5843   47.0438 H   0  0  0  0  0  0  0  0  0  0  0  0
   47.9139   31.6251   46.2730 H   0  0  0  0  0  0  0  0  0  0  0  0
   47.0421   32.0849   44.7089 H   0  0  0  0  0  0  0  0  0  0  0  0
   45.1871   30.7744   45.2942 H   0  0  0  0  0  0  0  0  0  0  0  0
   46.6294   29.7639   45.3882 H   0  0  0  0  0  0  0  0  0  0  0  0
   45.3422   29.4574   47.4655 H   0  0  0  0  0  0  0  0  0  0  0  0
   46.8231   30.4375   47.8568 H   0  0  0  0  0  0  0  0  0  0  0  0
   44.2324   31.2855   48.6402 H   0  0  0  0  0  0  0  0  0  0  0  0
   43.8572   33.8501   48.5453 H   0  0  0  0  0  0  0  0  0  0  0  0
   44.8333   34.9117   47.4951 H   0  0  0  0  0  0  0  0  0  0  0  0
   48.3277   35.5352   42.0875 H   0  0  0  0  0  0  0  0  0  0  0  0
   49.2067   35.1461   39.7201 H   0  0  0  0  0  0  0  0  0  0  0  0
   47.8895   33.7099   38.2270 H   0  0  0  0  0  0  0  0  0  0  0  0
   46.9380   30.4177   38.2435 H   0  0  0  0  0  0  0  0  0  0  0  0
   47.6398   29.4948   36.0584 H   0  0  0  0  0  0  0  0  0  0  0  0
   47.0085   30.7117   33.9747 H   0  0  0  0  0  0  0  0  0  0  0  0
   44.5989   34.4358   35.5902 H   0  0  0  0  0  0  0  0  0  0  0  0
   45.0665   33.8317   34.0166 H   0  0  0  0  0  0  0  0  0  0  0  0
  1  6  2  0
  2  1  1  0
  3  2  2  0
  3  4  1  0
  4  5  2  0
  5  6  1  0
  5  7  1  0
  7 12  1  0
  8  9  1  0
  8  7  1  0
  9 10  1  0
 10 11  1  0
 12 13  1  0
 12 11  2  0
 14  3  1  0
 15 14  2  0
 16 15  1  0
 17 18  1  0
 17 16  2  0
 18 19  2  0
 19 14  1  0
 20 18  1  0
 21 27  1  0
 21 22  2  0
 22 20  1  0
 23 22  1  0
 24 23  2  0
 25 26  2  0
 25 24  1  0
 26 21  1  0
 28 26  1  0
  1 29  1  0
  2 30  1  0
  7 31  1  1
  8 32  1  0
  8 33  1  0
  9 34  1  0
  9 35  1  0
 10 36  1  0
 10 37  1  0
 11 38  1  0
 13 39  1  0
 13 40  1  0
 15 41  1  0
 16 42  1  0
 17 43  1  0
 23 44  1  0
 24 45  1  0
 25 46  1  0
 27 47  1  0
 28 48  1  0
M  END
>  <minimizedAffinity>  (1) 
-8.170681

>  <minimizedRMSD>  (1) 
0.919853806

$$$$
