
     RDKit          3D

 42 44  0  0  1  0  0  0  0  0999 V2000
   45.6400   34.3050   45.0540 C   0  0  0  0  0  0  0  0  0  0  0  0
   46.4230   33.9680   43.9420 C   0  0  0  0  0  0  0  0  0  0  0  0
   47.2120   32.8160   44.0440 C   0  0  0  0  0  0  0  0  0  0  0  0
   47.1710   32.0990   45.2100 N   0  0  0  0  0  0  0  0  0  0  0  0
   46.4100   32.4660   46.2310 C   0  0  0  0  0  0  0  0  0  0  0  0
   45.6450   33.5660   46.1590 N   0  0  0  0  0  0  0  0  0  0  0  0
   46.4180   31.6330   47.4210 N   0  0  0  0  0  0  0  0  0  0  0  0
   46.1470   32.2620   48.6870 C   0  0  0  0  0  0  0  0  0  0  0  0
   45.3870   31.3720   49.5680 C   0  0  0  0  0  0  0  0  0  0  0  0
   44.8370   30.1060   48.9930 C   0  0  0  0  0  0  0  0  0  0  0  0
   45.7480   29.4010   48.0440 C   0  0  0  0  0  0  0  0  0  0  0  0
   46.6680   30.2190   47.2440 C   0  0  2  0  0  0  0  0  0  0  0  0
   48.7020   30.0600   48.6750 C   0  0  0  0  0  0  0  0  0  0  0  0
   48.0890   29.9010   47.4210 C   0  0  0  0  0  0  0  0  0  0  0  0
   48.9990   29.4510   46.4950 C   0  0  0  0  0  0  0  0  0  0  0  0
   50.3290   29.1790   46.7110 C   0  0  0  0  0  0  0  0  0  0  0  0
   50.8350   29.3670   47.9790 C   0  0  0  0  0  0  0  0  0  0  0  0
   50.0120   29.8160   48.9880 C   0  0  0  0  0  0  0  0  0  0  0  0
   47.9170   30.5120   49.7350 O   0  0  0  0  0  0  0  0  0  0  0  0
   50.5140   30.0070   50.2640 O   0  0  0  0  0  0  0  0  0  0  0  0
   44.8890   35.4370   44.9010 O   0  0  0  0  0  0  0  0  0  0  0  0
   44.5140   35.9970   43.6910 C   0  0  0  0  0  0  0  0  0  0  0  0
   45.1410   36.9260   43.1040 O   0  0  0  0  0  0  0  0  0  0  0  0
   43.3780   35.6010   42.9590 N   0  0  0  0  0  0  0  0  0  0  0  0
   46.4180   34.5816   43.0290 H   0  0  0  0  0  0  0  0  0  0  0  0
   47.8497   32.4944   43.2074 H   0  0  0  0  0  0  0  0  0  0  0  0
   47.1005   32.5184   49.1718 H   0  0  0  0  0  0  0  0  0  0  0  0
   45.5488   33.1671   48.5056 H   0  0  0  0  0  0  0  0  0  0  0  0
   46.0512   31.0909   50.3986 H   0  0  0  0  0  0  0  0  0  0  0  0
   44.4957   31.9561   49.8407 H   0  0  0  0  0  0  0  0  0  0  0  0
   44.6132   29.4216   49.8246 H   0  0  0  0  0  0  0  0  0  0  0  0
   43.9467   30.3909   48.4131 H   0  0  0  0  0  0  0  0  0  0  0  0
   46.3588   28.7016   48.6337 H   0  0  0  0  0  0  0  0  0  0  0  0
   45.0758   28.9380   47.3066 H   0  0  0  0  0  0  0  0  0  0  0  0
   46.4439   29.9498   46.2012 H   0  0  0  0  0  0  0  0  0  0  0  0
   48.6237   29.2917   45.4734 H   0  0  0  0  0  0  0  0  0  0  0  0
   50.9722   28.8209   45.8936 H   0  0  0  0  0  0  0  0  0  0  0  0
   51.8952   29.1586   48.1851 H   0  0  0  0  0  0  0  0  0  0  0  0
   46.9581   30.7115   49.5909 H   0  0  0  0  0  0  0  0  0  0  0  0
   51.4675   29.8201   50.4539 H   0  0  0  0  0  0  0  0  0  0  0  0
   43.1562   36.0601   42.0641 H   0  0  0  0  0  0  0  0  0  0  0  0
   42.7689   34.8523   43.3186 H   0  0  0  0  0  0  0  0  0  0  0  0
  1  6  2  0
  2  3  2  0
  2  1  1  0
  3  4  1  0
  4  5  2  0
  5  7  1  0
  6  5  1  0
  7  8  1  0
  8  9  1  0
 10  9  1  0
 11 10  1  0
 12 14  1  0
 12  7  1  0
 12 11  1  0
 13 18  2  0
 13 19  1  0
 14 13  1  0
 15 16  1  0
 15 14  2  0
 16 17  2  0
 17 18  1  0
 18 20  1  0
 21  1  1  0
 22 21  1  0
 23 22  2  0
 24 22  1  0
  2 25  1  0
  3 26  1  0
  8 27  1  0
  8 28  1  0
  9 29  1  0
  9 30  1  0
 10 31  1  0
 10 32  1  0
 11 33  1  0
 11 34  1  0
 12 35  1  6
 15 36  1  0
 16 37  1  0
 17 38  1  0
 19 39  1  0
 20 40  1  0
 24 41  1  0
 24 42  1  0
M  ISO  8  25  14  26  14  27  13  28  13  29  13  30  13  31  13  32  13
M  ISO  8  33  13  34  13  35  13  36  14  37  14  38  14  39   3  40   3
M  END
>  <minimizedAffinity>  (1) 
-6.73880863

>  <minimizedRMSD>  (1) 
0.73923856

$$$$
