
     RDKit          3D

 35 38  0  0  0  0  0  0  0  0999 V2000
   46.0000   34.1840   41.0630 C   0  0  0  0  0  0  0  0  0  0  0  0
   46.5620   34.8270   42.1600 C   0  0  0  0  0  0  0  0  0  0  0  0
   47.9030   35.2210   42.0210 C   0  0  0  0  0  0  0  0  0  0  0  0
   48.5550   34.9580   40.8540 N   0  0  0  0  0  0  0  0  0  0  0  0
   47.9630   34.3390   39.8380 C   0  0  0  0  0  0  0  0  0  0  0  0
   46.6820   33.9450   39.9310 N   0  0  0  0  0  0  0  0  0  0  0  0
   45.7790   35.0560   43.3520 C   0  0  0  0  0  0  0  0  0  0  0  0
   45.0540   36.2230   43.5670 C   0  0  0  0  0  0  0  0  0  0  0  0
   44.4740   36.0140   44.8000 C   0  0  0  0  0  0  0  0  0  0  0  0
   44.8210   34.7990   45.3040 N   0  0  0  0  0  0  0  0  0  0  0  0
   45.6080   34.2480   44.4060 N   0  0  0  0  0  0  0  0  0  0  0  0
   44.6810   33.7750   41.1520 O   0  0  0  0  0  0  0  0  0  0  0  0
   43.5910   34.3670   40.5840 C   0  0  0  0  0  0  0  0  0  0  0  0
   43.3110   35.6160   40.5570 O   0  0  0  0  0  0  0  0  0  0  0  0
   42.5070   33.6220   39.8800 C   0  0  0  0  0  0  0  0  0  0  0  0
   42.5390   32.2570   39.7190 C   0  0  0  0  0  0  0  0  0  0  0  0
   41.5150   31.5720   39.0520 C   0  0  0  0  0  0  0  0  0  0  0  0
   40.4430   32.2670   38.5410 C   0  0  0  0  0  0  0  0  0  0  0  0
   39.4450   31.6400   37.8950 N   0  0  0  0  0  0  0  0  0  0  0  0
   38.4020   32.3500   37.4030 C   0  0  0  0  0  0  0  0  0  0  0  0
   38.2730   33.7360   37.5130 C   0  0  0  0  0  0  0  0  0  0  0  0
   39.3050   34.3670   38.1760 C   0  0  0  0  0  0  0  0  0  0  0  0
   40.3630   33.6350   38.6750 C   0  0  0  0  0  0  0  0  0  0  0  0
   41.4090   34.2280   39.3430 C   0  0  0  0  0  0  0  0  0  0  0  0
   48.4204   35.7355   42.8442 H   0  0  0  0  0  0  0  0  0  0  0  0
   48.5266   34.1476   38.9130 H   0  0  0  0  0  0  0  0  0  0  0  0
   44.9648   37.1015   42.9110 H   0  0  0  0  0  0  0  0  0  0  0  0
   43.8172   36.7347   45.3092 H   0  0  0  0  0  0  0  0  0  0  0  0
   44.5275   34.3938   46.2043 H   0  0  0  0  0  0  0  0  0  0  0  0
   43.3895   31.6888   40.1238 H   0  0  0  0  0  0  0  0  0  0  0  0
   41.5679   30.4793   38.9369 H   0  0  0  0  0  0  0  0  0  0  0  0
   37.6046   31.7990   36.8829 H   0  0  0  0  0  0  0  0  0  0  0  0
   37.4125   34.2839   37.1016 H   0  0  0  0  0  0  0  0  0  0  0  0
   39.2845   35.4589   38.3076 H   0  0  0  0  0  0  0  0  0  0  0  0
   41.3536   35.3206   39.4579 H   0  0  0  0  0  0  0  0  0  0  0  0
  1 12  1  0
  1  2  1  0
  2  7  1  0
  3  2  2  0
  4  3  1  0
  5  6  1  0
  5  4  2  0
  6  1  2  0
  7  8  1  0
  7 11  2  0
  8  9  2  0
  9 10  1  0
 11 10  1  0
 13 12  1  0
 14 13  2  0
 15 13  1  0
 16 15  2  0
 17 16  1  0
 18 23  1  0
 18 17  2  0
 19 18  1  0
 20 21  1  0
 20 19  2  0
 21 22  2  0
 22 23  1  0
 23 24  2  0
 24 15  1  0
  3 25  1  0
  5 26  1  0
  8 27  1  0
  9 28  1  0
 10 29  1  0
 16 30  1  0
 17 31  1  0
 20 32  1  0
 21 33  1  0
 22 34  1  0
 24 35  1  0
M  ISO  8  25  14  26  14  27  14  28  14  29   9  30  14  31  14  32  14
M  ISO  3  33  14  34  14  35  14
M  END
>  <minimizedAffinity>  (1) 
-6.48161983

>  <minimizedRMSD>  (1) 
0.60489136

$$$$
