
     RDKit          3D

 50 54  0  0  1  0  0  0  0  0999 V2000
   46.5670   30.8590   47.0340 C   0  0  1  0  0  0  0  0  0  0  0  0
   46.8160   32.1620   47.7120 C   0  0  0  0  0  0  0  0  0  0  0  0
   45.7830   32.5320   48.7380 C   0  0  0  0  0  0  0  0  0  0  0  0
   45.3990   31.3720   49.6250 C   0  0  0  0  0  0  0  0  0  0  0  0
   45.1680   30.1160   48.8480 C   0  0  0  0  0  0  0  0  0  0  0  0
   45.1130   30.4150   47.3300 C   0  0  2  0  0  0  0  0  0  0  0  0
   46.8480   31.6180   43.0160 C   0  0  0  0  0  0  0  0  0  0  0  0
   47.5690   30.4930   43.4080 C   0  0  0  0  0  0  0  0  0  0  0  0
   47.5570   30.1500   44.6900 C   0  0  0  0  0  0  0  0  0  0  0  0
   46.8250   30.9130   45.6290 C   0  0  0  0  0  0  0  0  0  0  0  0
   46.1090   32.2220   44.5910 S   0  0  0  0  0  0  0  0  0  0  0  0
   46.3310   32.0600   39.3590 C   0  0  0  0  0  0  0  0  0  0  0  0
   46.7030   33.3940   39.1970 C   0  0  0  0  0  0  0  0  0  0  0  0
   47.1110   34.0800   40.3470 C   0  0  0  0  0  0  0  0  0  0  0  0
   47.1220   33.4130   41.5380 N   0  0  0  0  0  0  0  0  0  0  0  0
   46.7530   32.1270   41.6290 C   0  0  0  0  0  0  0  0  0  0  0  0
   46.3560   31.4480   40.5310 N   0  0  0  0  0  0  0  0  0  0  0  0
   44.7900   29.1990   46.6130 C   0  0  0  0  0  0  0  0  0  0  0  0
   45.4810   28.1860   46.7170 O   0  0  0  0  0  0  0  0  0  0  0  0
   43.8670   28.5980   45.7050 C   0  0  0  0  0  0  0  0  0  0  0  0
   43.7270   28.7500   44.3440 C   0  0  0  0  0  0  0  0  0  0  0  0
   43.0020   28.1220   43.3690 C   0  0  0  0  0  0  0  0  0  0  0  0
   42.2460   27.1150   43.8950 C   0  0  0  0  0  0  0  0  0  0  0  0
   41.4710   26.3930   43.0610 N   0  0  0  0  0  0  0  0  0  0  0  0
   40.6830   25.3760   43.4580 C   0  0  0  0  0  0  0  0  0  0  0  0
   40.6640   25.0470   44.7970 C   0  0  0  0  0  0  0  0  0  0  0  0
   41.4270   25.7350   45.7190 C   0  0  0  0  0  0  0  0  0  0  0  0
   42.2000   26.7590   45.2180 C   0  0  0  0  0  0  0  0  0  0  0  0
   43.0060   27.5140   46.0460 C   0  0  0  0  0  0  0  0  0  0  0  0
   47.2705   30.1143   47.4346 H   0  0  0  0  0  0  0  0  0  0  0  0
   47.7945   32.1089   48.2118 H   0  0  0  0  0  0  0  0  0  0  0  0
   46.7763   32.9361   46.9315 H   0  0  0  0  0  0  0  0  0  0  0  0
   46.1865   33.3381   49.3684 H   0  0  0  0  0  0  0  0  0  0  0  0
   44.8788   32.8503   48.1984 H   0  0  0  0  0  0  0  0  0  0  0  0
   46.2089   31.1966   50.3484 H   0  0  0  0  0  0  0  0  0  0  0  0
   44.4578   31.6325   50.1312 H   0  0  0  0  0  0  0  0  0  0  0  0
   45.9887   29.4114   49.0479 H   0  0  0  0  0  0  0  0  0  0  0  0
   44.2070   29.6796   49.1579 H   0  0  0  0  0  0  0  0  0  0  0  0
   44.3611   31.1619   47.0354 H   0  0  0  0  0  0  0  0  0  0  0  0
   48.1351   29.9026   42.6725 H   0  0  0  0  0  0  0  0  0  0  0  0
   48.1202   29.2663   45.0244 H   0  0  0  0  0  0  0  0  0  0  0  0
   46.0031   31.4931   38.4752 H   0  0  0  0  0  0  0  0  0  0  0  0
   46.6771   33.8840   38.2125 H   0  0  0  0  0  0  0  0  0  0  0  0
   47.4166   35.1353   40.2921 H   0  0  0  0  0  0  0  0  0  0  0  0
   44.3436   29.5699   43.9470 H   0  0  0  0  0  0  0  0  0  0  0  0
   43.0252   28.3925   42.3030 H   0  0  0  0  0  0  0  0  0  0  0  0
   40.0698   24.8215   42.7324 H   0  0  0  0  0  0  0  0  0  0  0  0
   40.0266   24.2179   45.1380 H   0  0  0  0  0  0  0  0  0  0  0  0
   41.4182   25.4808   46.7892 H   0  0  0  0  0  0  0  0  0  0  0  0
   42.9806   27.2430   47.1118 H   0  0  0  0  0  0  0  0  0  0  0  0
  1  6  1  0
  1  2  1  0
  2  3  1  0
  3  4  1  0
  5  4  1  0
  6  5  1  0
  7  8  2  0
  7 11  1  0
  8  9  1  0
  9 10  2  0
 10  1  1  0
 11 10  1  0
 12 17  2  0
 13 12  1  0
 13 14  2  0
 14 15  1  0
 15 16  2  0
 16  7  1  0
 17 16  1  0
 18 19  2  0
 18  6  1  0
 20 29  1  0
 20 18  1  0
 21 20  2  0
 22 23  2  0
 22 21  1  0
 23 28  1  0
 24 25  2  0
 24 23  1  0
 25 26  1  0
 26 27  2  0
 28 27  1  0
 28 29  2  0
  1 30  1  1
  2 31  1  0
  2 32  1  0
  3 33  1  0
  3 34  1  0
  4 35  1  0
  4 36  1  0
  5 37  1  0
  5 38  1  0
  6 39  1  1
  8 40  1  0
  9 41  1  0
 12 42  1  0
 13 43  1  0
 14 44  1  0
 21 45  1  0
 22 46  1  0
 25 47  1  0
 26 48  1  0
 27 49  1  0
 29 50  1  0
M  ISO  8  30  13  31  13  32  13  33  13  34  13  35  13  36  13  37  13
M  ISO  8  38  13  39  13  40  14  41  14  42  14  43  14  44  14  45  14
M  ISO  5  46  14  47  14  48  14  49  14  50  14
M  END
>  <minimizedAffinity>  (1) 
-5.19999933

>  <minimizedRMSD>  (1) 
8.2666235

$$$$
