
     RDKit          3D

 52 56  0  0  1  0  0  0  0  0999 V2000
   46.2940   35.7800   42.6220 C   0  0  0  0  0  0  0  0  0  0  0  0
   46.8320   34.5040   42.4480 C   0  0  0  0  0  0  0  0  0  0  0  0
   46.3590   33.4970   43.2870 C   0  0  0  0  0  0  0  0  0  0  0  0
   45.4090   33.7900   44.2280 N   0  0  0  0  0  0  0  0  0  0  0  0
   44.9380   35.0350   44.3430 C   0  0  0  0  0  0  0  0  0  0  0  0
   45.3580   36.0180   43.5680 N   0  0  0  0  0  0  0  0  0  0  0  0
   43.9480   35.3930   45.3020 N   0  0  0  0  0  0  0  0  0  0  0  0
   47.8690   34.2540   41.4150 C   0  0  0  0  0  0  0  0  0  0  0  0
   48.7960   35.4150   41.0970 C   0  0  0  0  0  0  0  0  0  0  0  0
   49.2570   34.2010   41.7730 C   0  0  0  0  0  0  0  0  0  0  0  0
   47.4170   33.5320   40.1810 C   0  0  0  0  0  0  0  0  0  0  0  0
   47.9730   34.0680   38.8760 C   0  0  0  0  0  0  0  0  0  0  0  0
   47.4760   33.1180   37.7940 C   0  0  0  0  0  0  0  0  0  0  0  0
   46.1240   33.4150   37.5920 O   0  0  0  0  0  0  0  0  0  0  0  0
   45.5090   32.8700   38.7450 C   0  0  0  0  0  0  0  0  0  0  0  0
   45.8990   33.6760   39.9710 C   0  0  0  0  0  0  0  0  0  0  0  0
   46.8630   32.1570   43.2600 C   0  0  0  0  0  0  0  0  0  0  0  0
   46.4690   31.1840   42.4950 O   0  0  0  0  0  0  0  0  0  0  0  0
   47.8200   31.2510   43.8570 C   0  0  0  0  0  0  0  0  0  0  0  0
   48.9260   30.6860   43.2880 C   0  0  0  0  0  0  0  0  0  0  0  0
   49.6980   29.7420   43.9960 C   0  0  0  0  0  0  0  0  0  0  0  0
   49.3610   29.3710   45.2570 C   0  0  0  0  0  0  0  0  0  0  0  0
   50.1240   28.4680   45.8920 N   0  0  0  0  0  0  0  0  0  0  0  0
   49.8340   28.0580   47.1600 C   0  0  0  0  0  0  0  0  0  0  0  0
   48.7130   28.5960   47.8020 C   0  0  0  0  0  0  0  0  0  0  0  0
   47.8950   29.5380   47.1740 C   0  0  0  0  0  0  0  0  0  0  0  0
   48.2750   29.8820   45.9000 C   0  0  0  0  0  0  0  0  0  0  0  0
   47.5750   30.7940   45.1500 C   0  0  0  0  0  0  0  0  0  0  0  0
   46.6368   36.6046   41.9797 H   0  0  0  0  0  0  0  0  0  0  0  0
   43.6122   36.3652   45.3572 H   0  0  0  0  0  0  0  0  0  0  0  0
   43.5678   34.6798   45.9405 H   0  0  0  0  0  0  0  0  0  0  0  0
   49.0940   35.6215   40.0585 H   0  0  0  0  0  0  0  0  0  0  0  0
   48.8147   36.4947   41.3067 H   0  0  0  0  0  0  0  0  0  0  0  0
   49.5442   34.2485   42.8338 H   0  0  0  0  0  0  0  0  0  0  0  0
   50.0649   33.4818   41.5729 H   0  0  0  0  0  0  0  0  0  0  0  0
   47.7680   32.5074   40.3731 H   0  0  0  0  0  0  0  0  0  0  0  0
   47.6024   35.0871   38.6912 H   0  0  0  0  0  0  0  0  0  0  0  0
   49.0715   34.1221   38.8949 H   0  0  0  0  0  0  0  0  0  0  0  0
   48.0418   33.2731   36.8635 H   0  0  0  0  0  0  0  0  0  0  0  0
   47.6111   32.0686   38.0947 H   0  0  0  0  0  0  0  0  0  0  0  0
   44.4162   32.8982   38.6229 H   0  0  0  0  0  0  0  0  0  0  0  0
   45.8428   31.8300   38.8751 H   0  0  0  0  0  0  0  0  0  0  0  0
   45.6436   34.7348   39.8168 H   0  0  0  0  0  0  0  0  0  0  0  0
   45.3574   33.3077   40.8548 H   0  0  0  0  0  0  0  0  0  0  0  0
   47.6052   32.4514   42.5033 H   0  0  0  0  0  0  0  0  0  0  0  0
   46.1626   30.4273   43.0550 H   0  0  0  0  0  0  0  0  0  0  0  0
   49.2176   30.9706   42.2662 H   0  0  0  0  0  0  0  0  0  0  0  0
   50.5856   29.3003   43.5195 H   0  0  0  0  0  0  0  0  0  0  0  0
   50.4695   27.3181   47.6686 H   0  0  0  0  0  0  0  0  0  0  0  0
   48.4706   28.2697   48.8241 H   0  0  0  0  0  0  0  0  0  0  0  0
   47.0112   29.9725   47.6640 H   0  0  0  0  0  0  0  0  0  0  0  0
   46.6916   31.2273   45.6418 H   0  0  0  0  0  0  0  0  0  0  0  0
  1  6  2  0
  2  1  1  0
  2  3  2  0
  3  4  1  0
  4  5  2  0
  5  7  1  0
  6  5  1  0
  8 10  1  0
  8  2  1  0
  9  8  1  0
  9 10  1  0
 11  8  1  0
 12 11  1  0
 13 12  1  0
 14 13  1  0
 14 15  1  0
 15 16  1  0
 16 11  1  0
 17 18  1  0
 17  3  1  0
 17 19  1  0
 19 28  1  0
 20 19  2  0
 20 21  1  0
 21 22  2  0
 22 23  1  0
 22 27  1  0
 23 24  2  0
 24 25  1  0
 26 25  2  0
 27 26  1  0
 28 27  2  0
  1 29  1  0
  7 30  1  0
  7 31  1  0
  9 32  1  0
  9 33  1  0
 10 34  1  0
 10 35  1  0
 11 36  1  0
 12 37  1  0
 12 38  1  0
 13 39  1  0
 13 40  1  0
 15 41  1  0
 15 42  1  0
 16 43  1  0
 16 44  1  0
 17 45  1  0
 18 46  1  0
 20 47  1  0
 21 48  1  0
 24 49  1  0
 25 50  1  0
 26 51  1  0
 28 52  1  0
M  ISO  8  29  14  32  13  33  13  34  13  35  13  36  13  37  13  38  13
M  ISO  8  39  13  40  13  41  13  42  13  43  13  44  13  45   8  46   3
M  ISO  6  47  14  48  14  49  14  50  14  51  14  52  14
M  END
>  <minimizedAffinity>  (1) 
-5.67445517

>  <minimizedRMSD>  (1) 
2.10219145

$$$$
