
     RDKit          3D

 50 54  0  0  0  0  0  0  0  0999 V2000
   47.8080   33.7950   42.8690 C   0  0  0  0  0  0  0  0  0  0  0  0
   48.5160   35.0030   42.5980 C   0  0  0  0  0  0  0  0  0  0  0  0
   49.8720   34.9370   42.2690 C   0  0  0  0  0  0  0  0  0  0  0  0
   50.4390   33.6860   42.2310 N   0  0  0  0  0  0  0  0  0  0  0  0
   49.7090   32.5460   42.5030 C   0  0  0  0  0  0  0  0  0  0  0  0
   48.4320   32.6240   42.8100 N   0  0  0  0  0  0  0  0  0  0  0  0
   46.3880   33.9840   43.2090 C   0  0  0  0  0  0  0  0  0  0  0  0
   45.7100   35.0270   42.4630 C   0  0  0  0  0  0  0  0  0  0  0  0
   45.3100   36.2050   43.2600 C   0  0  0  0  0  0  0  0  0  0  0  0
   44.4710   35.8190   44.4770 C   0  0  0  0  0  0  0  0  0  0  0  0
   44.9300   34.5820   45.1570 C   0  0  0  0  0  0  0  0  0  0  0  0
   46.3460   34.2260   44.7410 C   0  0  0  0  0  0  0  0  0  0  0  0
   50.4840   31.3190   42.4160 C   0  0  0  0  0  0  0  0  0  0  0  0
   50.1740   30.4240   41.4540 N   0  0  0  0  0  0  0  0  0  0  0  0
   51.0080   29.3650   41.5460 C   0  0  0  0  0  0  0  0  0  0  0  0
   51.8500   29.6180   42.5900 N   0  0  0  0  0  0  0  0  0  0  0  0
   51.5320   30.8050   43.1200 N   0  0  0  0  0  0  0  0  0  0  0  0
   52.9350   28.7710   43.0930 C   0  0  0  0  0  0  0  0  0  0  0  0
   53.2240   29.0730   44.5020 C   0  0  0  0  0  0  0  0  0  0  0  0
   54.4230   29.6830   44.8450 C   0  0  0  0  0  0  0  0  0  0  0  0
   54.7930   30.0090   46.1320 C   0  0  0  0  0  0  0  0  0  0  0  0
   53.9220   29.7110   47.1470 C   0  0  0  0  0  0  0  0  0  0  0  0
   54.2780   30.0280   48.4200 N   0  0  0  0  0  0  0  0  0  0  0  0
   53.4670   29.7630   49.4700 C   0  0  0  0  0  0  0  0  0  0  0  0
   52.2600   29.1550   49.1830 C   0  0  0  0  0  0  0  0  0  0  0  0
   51.8250   28.8000   47.9040 C   0  0  0  0  0  0  0  0  0  0  0  0
   52.7090   29.1030   46.8810 C   0  0  0  0  0  0  0  0  0  0  0  0
   52.4070   28.8060   45.5640 C   0  0  0  0  0  0  0  0  0  0  0  0
   48.0011   35.9738   42.6474 H   0  0  0  0  0  0  0  0  0  0  0  0
   50.4574   35.8424   42.0510 H   0  0  0  0  0  0  0  0  0  0  0  0
   45.8229   33.0863   42.9178 H   0  0  0  0  0  0  0  0  0  0  0  0
   46.3844   35.3686   41.6640 H   0  0  0  0  0  0  0  0  0  0  0  0
   44.7783   34.5797   42.0864 H   0  0  0  0  0  0  0  0  0  0  0  0
   46.2165   36.7242   43.6046 H   0  0  0  0  0  0  0  0  0  0  0  0
   44.6965   36.8548   42.6186 H   0  0  0  0  0  0  0  0  0  0  0  0
   44.5096   36.6465   45.2007 H   0  0  0  0  0  0  0  0  0  0  0  0
   43.4517   35.6232   44.1126 H   0  0  0  0  0  0  0  0  0  0  0  0
   44.9035   34.7388   46.2454 H   0  0  0  0  0  0  0  0  0  0  0  0
   44.2624   33.7561   44.8703 H   0  0  0  0  0  0  0  0  0  0  0  0
   46.6640   33.3129   45.2656 H   0  0  0  0  0  0  0  0  0  0  0  0
   47.0239   35.0523   45.0010 H   0  0  0  0  0  0  0  0  0  0  0  0
   51.0083   28.4719   40.9039 H   0  0  0  0  0  0  0  0  0  0  0  0
   52.6389   27.7153   43.0041 H   0  0  0  0  0  0  0  0  0  0  0  0
   53.8393   28.9671   42.4982 H   0  0  0  0  0  0  0  0  0  0  0  0
   55.1261   29.9226   44.0337 H   0  0  0  0  0  0  0  0  0  0  0  0
   55.7586   30.4939   46.3382 H   0  0  0  0  0  0  0  0  0  0  0  0
   53.7542   30.0188   50.5006 H   0  0  0  0  0  0  0  0  0  0  0  0
   51.5899   28.9334   50.0268 H   0  0  0  0  0  0  0  0  0  0  0  0
   50.8538   28.3163   47.7226 H   0  0  0  0  0  0  0  0  0  0  0  0
   51.4416   28.3210   45.3574 H   0  0  0  0  0  0  0  0  0  0  0  0
  1  7  1  0
  2  1  2  0
  3  2  1  0
  4  3  2  0
  4  5  1  0
  5  6  2  0
  6  1  1  0
  7 12  1  0
  8  7  1  0
  8  9  1  0
  9 10  1  0
 10 11  1  0
 12 11  1  0
 13  5  1  0
 13 17  2  0
 14 15  2  0
 14 13  1  0
 15 16  1  0
 16 18  1  0
 16 17  1  0
 18 19  1  0
 19 20  2  0
 19 28  1  0
 20 21  1  0
 21 22  2  0
 22 23  1  0
 23 24  2  0
 25 24  1  0
 26 25  2  0
 27 22  1  0
 27 26  1  0
 28 27  2  0
  2 29  1  0
  3 30  1  0
  7 31  1  0
  8 32  1  0
  8 33  1  0
  9 34  1  0
  9 35  1  0
 10 36  1  0
 10 37  1  0
 11 38  1  0
 11 39  1  0
 12 40  1  0
 12 41  1  0
 15 42  1  0
 18 43  1  0
 18 44  1  0
 20 45  1  0
 21 46  1  0
 24 47  1  0
 25 48  1  0
 26 49  1  0
 28 50  1  0
M  ISO  8  29  14  30  14  31  13  32  13  33  13  34  13  35  13  36  13
M  ISO  8  37  13  38  13  39  13  40  13  41  13  42  14  43   8  44   8
M  ISO  6  45  14  46  14  47  14  48  14  49  14  50  14
M  END
>  <minimizedAffinity>  (1) 
-4.68439007

>  <minimizedRMSD>  (1) 
5.52994728

$$$$
