
     RDKit          3D

 55 60  0  0  0  0  0  0  0  0999 V2000
   45.8360   32.6860   45.4040 C   0  0  0  0  0  0  0  0  0  0  0  0
   45.5480   33.3520   46.5920 C   0  0  0  0  0  0  0  0  0  0  0  0
   45.5040   32.7090   47.8350 C   0  0  0  0  0  0  0  0  0  0  0  0
   45.7510   31.3680   47.9330 C   0  0  0  0  0  0  0  0  0  0  0  0
   46.0390   30.6640   46.7420 C   0  0  0  0  0  0  0  0  0  0  0  0
   46.2210   29.3270   46.8740 C   0  0  0  0  0  0  0  0  0  0  0  0
   46.4310   28.5910   45.7040 C   0  0  0  0  0  0  0  0  0  0  0  0
   46.4340   29.2870   44.4450 C   0  0  0  0  0  0  0  0  0  0  0  0
   46.2320   30.6480   44.4820 C   0  0  0  0  0  0  0  0  0  0  0  0
   46.0490   31.4000   45.5540 C   0  0  0  0  0  0  0  0  0  0  0  0
   44.5540   30.3580   42.8870 C   0  0  0  0  0  0  0  0  0  0  0  0
   45.9510   30.7090   43.0650 C   0  0  0  0  0  0  0  0  0  0  0  0
   46.5540   30.8350   41.8840 C   0  0  0  0  0  0  0  0  0  0  0  0
   45.9640   30.6580   40.6500 C   0  0  0  0  0  0  0  0  0  0  0  0
   44.6400   30.3200   40.5080 C   0  0  0  0  0  0  0  0  0  0  0  0
   43.9370   30.1730   41.6670 C   0  0  0  0  0  0  0  0  0  0  0  0
   43.6010   30.1490   43.9210 O   0  0  0  0  0  0  0  0  0  0  0  0
   42.6120   29.8320   41.4620 O   0  0  0  0  0  0  0  0  0  0  0  0
   41.6350   30.7220   41.1290 C   0  0  0  0  0  0  0  0  0  0  0  0
   40.9640   31.3270   42.1930 C   0  0  0  0  0  0  0  0  0  0  0  0
   39.9570   32.2430   41.9900 C   0  0  0  0  0  0  0  0  0  0  0  0
   39.5760   32.5980   40.7050 C   0  0  0  0  0  0  0  0  0  0  0  0
   38.6090   33.4780   40.4920 N   0  0  0  0  0  0  0  0  0  0  0  0
   38.2300   33.8300   39.2540 C   0  0  0  0  0  0  0  0  0  0  0  0
   38.8700   33.2550   38.1720 C   0  0  0  0  0  0  0  0  0  0  0  0
   39.8810   32.3330   38.3600 C   0  0  0  0  0  0  0  0  0  0  0  0
   40.2350   32.0050   39.6490 C   0  0  0  0  0  0  0  0  0  0  0  0
   41.2380   31.0920   39.8600 C   0  0  0  0  0  0  0  0  0  0  0  0
   45.8800   34.6530   42.2330 C   0  0  0  0  0  0  0  0  0  0  0  0
   47.2670   34.9130   42.1290 C   0  0  0  0  0  0  0  0  0  0  0  0
   48.0620   34.3810   43.1190 C   0  0  0  0  0  0  0  0  0  0  0  0
   47.4190   33.6890   44.0540 N   0  0  0  0  0  0  0  0  0  0  0  0
   46.1240   33.4270   44.1870 C   0  0  0  0  0  0  0  0  0  0  0  0
   45.3830   33.9310   43.2430 N   0  0  0  0  0  0  0  0  0  0  0  0
   49.4740   34.5090   43.1050 N   0  0  0  0  0  0  0  0  0  0  0  0
   45.3458   34.4325   46.5524 H   0  0  0  0  0  0  0  0  0  0  0  0
   45.2687   33.2878   48.7404 H   0  0  0  0  0  0  0  0  0  0  0  0
   45.7264   30.8546   48.9055 H   0  0  0  0  0  0  0  0  0  0  0  0
   46.2041   28.8414   47.8609 H   0  0  0  0  0  0  0  0  0  0  0  0
   46.5905   27.5034   45.7453 H   0  0  0  0  0  0  0  0  0  0  0  0
   46.5908   28.7551   43.4950 H   0  0  0  0  0  0  0  0  0  0  0  0
   47.6203   31.1050   41.8938 H   0  0  0  0  0  0  0  0  0  0  0  0
   46.5762   30.7924   39.7460 H   0  0  0  0  0  0  0  0  0  0  0  0
   44.1760   30.1769   39.5210 H   0  0  0  0  0  0  0  0  0  0  0  0
   42.6673   29.9115   43.6930 H   0  0  0  0  0  0  0  0  0  0  0  0
   41.2480   31.0643   43.2227 H   0  0  0  0  0  0  0  0  0  0  0  0
   39.4503   32.6972   42.8543 H   0  0  0  0  0  0  0  0  0  0  0  0
   37.4241   34.5633   39.1027 H   0  0  0  0  0  0  0  0  0  0  0  0
   38.5711   33.5346   37.1510 H   0  0  0  0  0  0  0  0  0  0  0  0
   40.3906   31.8723   37.5009 H   0  0  0  0  0  0  0  0  0  0  0  0
   41.7406   30.6416   38.9914 H   0  0  0  0  0  0  0  0  0  0  0  0
   45.1975   35.0524   41.4684 H   0  0  0  0  0  0  0  0  0  0  0  0
   47.6864   35.5068   41.3035 H   0  0  0  0  0  0  0  0  0  0  0  0
   50.0360   34.0973   43.8637 H   0  0  0  0  0  0  0  0  0  0  0  0
   49.9378   35.0137   42.3362 H   0  0  0  0  0  0  0  0  0  0  0  0
  1 10  1  0
  1  2  2  0
  2  3  1  0
  3  4  2  0
  5  6  2  0
  5  4  1  0
  7  6  1  0
  8  9  1  0
  8  7  2  0
  9 10  2  0
 10  5  1  0
 11 12  2  0
 11 17  1  0
 12  9  1  0
 13 12  1  0
 14 13  2  0
 15 14  1  0
 15 16  2  0
 16 11  1  0
 18 16  1  0
 19 18  1  0
 19 20  2  0
 21 20  1  0
 22 21  2  0
 23 22  1  0
 24 23  2  0
 25 26  2  0
 25 24  1  0
 26 27  1  0
 27 28  2  0
 27 22  1  0
 28 19  1  0
 29 34  2  0
 30 29  1  0
 30 31  2  0
 31 32  1  0
 32 33  2  0
 33  1  1  0
 34 33  1  0
 35 31  1  0
  2 36  1  0
  3 37  1  0
  4 38  1  0
  6 39  1  0
  7 40  1  0
  8 41  1  0
 13 42  1  0
 14 43  1  0
 15 44  1  0
 17 45  1  0
 20 46  1  0
 21 47  1  0
 24 48  1  0
 25 49  1  0
 26 50  1  0
 28 51  1  0
 29 52  1  0
 30 53  1  0
 35 54  1  0
 35 55  1  0
M  ISO  8  36  14  37  14  38  14  39  14  40  14  41  14  42  14  43  14
M  ISO  8  44  14  45   3  46  14  47  14  48  14  49  14  50  14  51  14
M  ISO  2  52  14  53  14
M  END
>  <minimizedAffinity>  (1) 
-6.60739946

>  <minimizedRMSD>  (1) 
3.02523351

$$$$
