
     RDKit          3D

 41 44  0  0  0  0  0  0  0  0999 V2000
   46.8230   34.5390   42.6370 C   0  0  0  0  0  0  0  0  0  0  0  0
   47.9990   34.1090   42.0030 C   0  0  0  0  0  0  0  0  0  0  0  0
   48.6880   33.0610   42.5960 C   0  0  0  0  0  0  0  0  0  0  0  0
   48.1770   32.5310   43.7430 N   0  0  0  0  0  0  0  0  0  0  0  0
   47.0560   32.9600   44.3240 C   0  0  0  0  0  0  0  0  0  0  0  0
   46.3600   33.9800   43.7710 N   0  0  0  0  0  0  0  0  0  0  0  0
   45.7080   30.2440   43.9550 Cl  0  0  0  0  0  0  0  0  0  0  0  0
   45.9460   31.1040   45.4850 C   0  0  0  0  0  0  0  0  0  0  0  0
   46.5740   32.3410   45.5490 C   0  0  0  0  0  0  0  0  0  0  0  0
   46.7440   32.9800   46.7520 C   0  0  0  0  0  0  0  0  0  0  0  0
   46.2790   32.3760   47.9120 C   0  0  0  0  0  0  0  0  0  0  0  0
   45.6620   31.1490   47.8070 C   0  0  0  0  0  0  0  0  0  0  0  0
   45.0940   30.4320   49.2980 Cl  0  0  0  0  0  0  0  0  0  0  0  0
   45.4740   30.4780   46.6230 C   0  0  0  0  0  0  0  0  0  0  0  0
   48.4070   34.7750   40.7930 C   0  0  0  0  0  0  0  0  0  0  0  0
   47.6330   34.2270   39.6290 C   0  0  0  0  0  0  0  0  0  0  0  0
   48.3870   33.3220   38.7550 C   0  0  0  0  0  0  0  0  0  0  0  0
   49.2870   32.3770   39.2040 C   0  0  0  0  0  0  0  0  0  0  0  0
   49.9240   31.5920   38.2530 C   0  0  0  0  0  0  0  0  0  0  0  0
   49.6620   31.7550   36.8880 C   0  0  0  0  0  0  0  0  0  0  0  0
   50.2820   30.9940   35.9670 N   0  0  0  0  0  0  0  0  0  0  0  0
   50.0510   31.1270   34.6490 C   0  0  0  0  0  0  0  0  0  0  0  0
   49.1520   32.0720   34.2140 C   0  0  0  0  0  0  0  0  0  0  0  0
   48.4800   32.8890   35.1060 C   0  0  0  0  0  0  0  0  0  0  0  0
   48.7620   32.7040   36.4610 C   0  0  0  0  0  0  0  0  0  0  0  0
   48.1150   33.4970   37.3980 C   0  0  0  0  0  0  0  0  0  0  0  0
   46.2556   35.3678   42.1885 H   0  0  0  0  0  0  0  0  0  0  0  0
   49.6168   32.6704   42.1547 H   0  0  0  0  0  0  0  0  0  0  0  0
   47.2429   33.9593   46.7962 H   0  0  0  0  0  0  0  0  0  0  0  0
   46.4001   32.8647   48.8900 H   0  0  0  0  0  0  0  0  0  0  0  0
   44.9760   29.4980   46.5831 H   0  0  0  0  0  0  0  0  0  0  0  0
   48.2130   35.8538   40.8860 H   0  0  0  0  0  0  0  0  0  0  0  0
   49.4814   34.6061   40.6284 H   0  0  0  0  0  0  0  0  0  0  0  0
   46.7663   33.6767   40.0240 H   0  0  0  0  0  0  0  0  0  0  0  0
   47.3550   35.0924   39.0095 H   0  0  0  0  0  0  0  0  0  0  0  0
   49.4922   32.2504   40.2773 H   0  0  0  0  0  0  0  0  0  0  0  0
   50.6468   30.8290   38.5776 H   0  0  0  0  0  0  0  0  0  0  0  0
   50.5762   30.4859   33.9258 H   0  0  0  0  0  0  0  0  0  0  0  0
   48.9633   32.1807   33.1358 H   0  0  0  0  0  0  0  0  0  0  0  0
   47.7593   33.6467   34.7646 H   0  0  0  0  0  0  0  0  0  0  0  0
   47.3918   34.2593   37.0726 H   0  0  0  0  0  0  0  0  0  0  0  0
  1  6  2  0
  2  3  2  0
  2  1  1  0
  3  4  1  0
  4  5  2  0
  5  9  1  0
  6  5  1  0
  7  8  1  0
  8  9  2  0
  8 14  1  0
  9 10  1  0
 10 11  2  0
 12 11  1  0
 12 13  1  0
 14 12  2  0
 15  2  1  0
 16 15  1  0
 17 18  2  0
 17 16  1  0
 19 18  1  0
 20 19  2  0
 21 20  1  0
 22 21  2  0
 23 22  1  0
 23 24  2  0
 24 25  1  0
 25 20  1  0
 25 26  2  0
 26 17  1  0
  1 27  1  0
  3 28  1  0
 10 29  1  0
 11 30  1  0
 14 31  1  0
 15 32  1  0
 15 33  1  0
 16 34  1  0
 16 35  1  0
 18 36  1  0
 19 37  1  0
 22 38  1  0
 23 39  1  0
 24 40  1  0
 26 41  1  0
M  ISO  8  27  14  28  14  29  14  30  14  31  14  32   8  33   8  34   8
M  ISO  7  35   8  36  14  37  14  38  14  39  14  40  14  41  14
M  END
>  <minimizedAffinity>  (1) 
-5.5013752

>  <minimizedRMSD>  (1) 
1.46052074

$$$$
