
     RDKit          3D

 43 47  0  0  0  0  0  0  0  0999 V2000
   44.6080   34.4910   40.8740 C   0  0  0  0  0  0  0  0  0  0  0  0
   44.2740   33.8840   39.6860 C   0  0  0  0  0  0  0  0  0  0  0  0
   45.3070   33.2840   38.9670 C   0  0  0  0  0  0  0  0  0  0  0  0
   46.5570   33.3250   39.4580 N   0  0  0  0  0  0  0  0  0  0  0  0
   46.8440   33.9310   40.6300 C   0  0  0  0  0  0  0  0  0  0  0  0
   45.8640   34.5000   41.3100 N   0  0  0  0  0  0  0  0  0  0  0  0
   45.0940   32.6060   37.6940 C   0  0  0  0  0  0  0  0  0  0  0  0
   46.0090   32.8210   36.6870 C   0  0  0  0  0  0  0  0  0  0  0  0
   45.8580   32.2050   35.4590 C   0  0  0  0  0  0  0  0  0  0  0  0
   44.7990   31.3500   35.1750 C   0  0  0  0  0  0  0  0  0  0  0  0
   44.7040   30.7810   33.9700 N   0  0  0  0  0  0  0  0  0  0  0  0
   43.6830   29.9490   33.6770 C   0  0  0  0  0  0  0  0  0  0  0  0
   42.7470   29.7110   34.6640 C   0  0  0  0  0  0  0  0  0  0  0  0
   42.8470   30.3010   35.9140 C   0  0  0  0  0  0  0  0  0  0  0  0
   43.9010   31.1520   36.1970 C   0  0  0  0  0  0  0  0  0  0  0  0
   44.0420   31.7610   37.4210 C   0  0  0  0  0  0  0  0  0  0  0  0
   43.2410   35.2590   41.7790 S   0  0  0  0  0  0  0  0  0  0  0  0
   40.8280   35.4250   40.6120 C   0  0  0  0  0  0  0  0  0  0  0  0
   41.6830   34.5490   41.2760 C   0  0  0  0  0  0  0  0  0  0  0  0
   41.3160   33.2530   41.5020 C   0  0  0  0  0  0  0  0  0  0  0  0
   40.0940   32.7590   41.0880 C   0  0  0  0  0  0  0  0  0  0  0  0
   39.2320   33.6360   40.4220 C   0  0  0  0  0  0  0  0  0  0  0  0
   39.5830   34.9640   40.1780 C   0  0  0  0  0  0  0  0  0  0  0  0
   38.0620   32.9080   40.1030 O   0  0  0  0  0  0  0  0  0  0  0  0
   38.1000   31.7590   40.9000 C   0  0  0  0  0  0  0  0  0  0  0  0
   39.4710   31.5170   41.1800 O   0  0  0  0  0  0  0  0  0  0  0  0
   48.1040   34.0040   41.1790 O   0  0  0  0  0  0  0  0  0  0  0  0
   48.7230   35.2560   41.3190 C   0  0  0  0  0  0  0  0  0  0  0  0
   49.9440   35.1710   41.9260 F   0  0  0  0  0  0  0  0  0  0  0  0
   48.8020   35.7920   40.0350 F   0  0  0  0  0  0  0  0  0  0  0  0
   47.9100   36.0450   42.1210 F   0  0  0  0  0  0  0  0  0  0  0  0
   43.2371   33.8724   39.3190 H   0  0  0  0  0  0  0  0  0  0  0  0
   46.8662   33.4879   36.8615 H   0  0  0  0  0  0  0  0  0  0  0  0
   46.6052   32.3988   34.6753 H   0  0  0  0  0  0  0  0  0  0  0  0
   43.5992   29.4770   32.6870 H   0  0  0  0  0  0  0  0  0  0  0  0
   41.9029   29.0379   34.4533 H   0  0  0  0  0  0  0  0  0  0  0  0
   42.0877   30.0926   36.6821 H   0  0  0  0  0  0  0  0  0  0  0  0
   43.2938   31.5680   38.2039 H   0  0  0  0  0  0  0  0  0  0  0  0
   41.1295   36.4674   40.4315 H   0  0  0  0  0  0  0  0  0  0  0  0
   42.0127   32.5840   42.0283 H   0  0  0  0  0  0  0  0  0  0  0  0
   38.8902   35.6374   39.6521 H   0  0  0  0  0  0  0  0  0  0  0  0
   37.5433   31.9242   41.8342 H   0  0  0  0  0  0  0  0  0  0  0  0
   37.6374   30.9014   40.3897 H   0  0  0  0  0  0  0  0  0  0  0  0
  1  6  1  0
  1 17  1  0
  2  1  2  0
  3  4  2  0
  3  2  1  0
  4  5  1  0
  5 27  1  0
  5  6  2  0
  7  3  1  0
  8  7  2  0
  9  8  1  0
 10  9  2  0
 10 15  1  0
 11 10  1  0
 12 11  2  0
 12 13  1  0
 13 14  2  0
 14 15  1  0
 15 16  2  0
 16  7  1  0
 18 19  2  0
 19 20  1  0
 19 17  1  0
 21 26  1  0
 21 20  2  0
 22 21  1  0
 23 22  2  0
 23 18  1  0
 24 22  1  0
 24 25  1  0
 25 26  1  0
 27 28  1  0
 28 29  1  0
 28 31  1  0
 30 28  1  0
  2 32  1  0
  8 33  1  0
  9 34  1  0
 12 35  1  0
 13 36  1  0
 14 37  1  0
 16 38  1  0
 18 39  1  0
 20 40  1  0
 23 41  1  0
 25 42  1  0
 25 43  1  0
M  ISO  8  32  14  33  14  34  14  35  14  36  14  37  14  38  14  39  14
M  ISO  4  40  14  41  14  42  13  43  13
M  END
>  <minimizedAffinity>  (1) 
-6.79060698

>  <minimizedRMSD>  (1) 
1.55883098

$$$$
