
     RDKit          3D

 48 52  0  0  0  0  0  0  0  0999 V2000
   49.4340   33.2280   41.3390 C   0  0  0  0  0  0  0  0  0  0  0  0
   48.6600   33.9430   40.4710 C   0  0  0  0  0  0  0  0  0  0  0  0
   48.4680   35.2990   40.6770 C   0  0  0  0  0  0  0  0  0  0  0  0
   49.0520   35.9300   41.7500 C   0  0  0  0  0  0  0  0  0  0  0  0
   49.8490   35.2370   42.6600 C   0  0  0  0  0  0  0  0  0  0  0  0
   50.0270   33.8700   42.4280 C   0  0  0  0  0  0  0  0  0  0  0  0
   44.4210   32.0060   38.2460 Cl  0  0  0  0  0  0  0  0  0  0  0  0
   46.1000   32.4770   38.2660 C   0  0  0  0  0  0  0  0  0  0  0  0
   46.6680   33.0240   39.3720 C   0  0  0  0  0  0  0  0  0  0  0  0
   48.0050   33.3730   39.2980 C   0  0  0  0  0  0  0  0  0  0  0  0
   48.7440   33.1850   38.1590 C   0  0  0  0  0  0  0  0  0  0  0  0
   48.1660   32.6360   37.0560 C   0  0  0  0  0  0  0  0  0  0  0  0
   46.8310   32.2810   37.1200 C   0  0  0  0  0  0  0  0  0  0  0  0
   44.3640   34.5700   41.9500 C   0  0  0  0  0  0  0  0  0  0  0  0
   45.1470   34.3890   40.8040 C   0  0  0  0  0  0  0  0  0  0  0  0
   45.8530   33.2230   40.5620 C   0  0  0  0  0  0  0  0  0  0  0  0
   45.7100   32.3090   41.5230 N   0  0  0  0  0  0  0  0  0  0  0  0
   44.9710   32.4540   42.6230 C   0  0  0  0  0  0  0  0  0  0  0  0
   44.3010   33.5800   42.8350 N   0  0  0  0  0  0  0  0  0  0  0  0
   49.6910   31.5740   41.1440 S   0  0  0  0  0  0  0  0  0  0  0  0
   50.5850   31.0430   42.2840 O   0  0  0  0  0  0  0  0  0  0  0  0
   48.3290   30.9120   41.4320 O   0  0  0  0  0  0  0  0  0  0  0  0
   50.3920   30.8220   39.7870 C   0  0  0  0  0  0  0  0  0  0  0  0
   49.9540   29.7790   38.9800 C   0  0  0  0  0  0  0  0  0  0  0  0
   50.5890   29.1920   37.9280 C   0  0  0  0  0  0  0  0  0  0  0  0
   51.8270   29.6840   37.6170 C   0  0  0  0  0  0  0  0  0  0  0  0
   52.4960   29.1360   36.5840 N   0  0  0  0  0  0  0  0  0  0  0  0
   53.7330   29.5900   36.2320 C   0  0  0  0  0  0  0  0  0  0  0  0
   54.3200   30.6340   36.9460 C   0  0  0  0  0  0  0  0  0  0  0  0
   53.6770   31.2440   38.0270 C   0  0  0  0  0  0  0  0  0  0  0  0
   52.4400   30.7020   38.2840 C   0  0  0  0  0  0  0  0  0  0  0  0
   51.6850   31.2050   39.3260 C   0  0  0  0  0  0  0  0  0  0  0  0
   47.8442   35.8750   39.9776 H   0  0  0  0  0  0  0  0  0  0  0  0
   48.8863   37.0079   41.8939 H   0  0  0  0  0  0  0  0  0  0  0  0
   50.3153   35.7415   43.5191 H   0  0  0  0  0  0  0  0  0  0  0  0
   50.6500   33.2853   43.1209 H   0  0  0  0  0  0  0  0  0  0  0  0
   49.8041   33.4778   38.1365 H   0  0  0  0  0  0  0  0  0  0  0  0
   48.7470   32.4784   36.1353 H   0  0  0  0  0  0  0  0  0  0  0  0
   46.3469   31.8345   36.2389 H   0  0  0  0  0  0  0  0  0  0  0  0
   43.8142   35.5085   42.1143 H   0  0  0  0  0  0  0  0  0  0  0  0
   45.2035   35.2042   40.0677 H   0  0  0  0  0  0  0  0  0  0  0  0
   44.9163   31.6373   43.3578 H   0  0  0  0  0  0  0  0  0  0  0  0
   48.9611   29.3730   39.2236 H   0  0  0  0  0  0  0  0  0  0  0  0
   50.1320   28.3683   37.3600 H   0  0  0  0  0  0  0  0  0  0  0  0
   54.2670   29.1331   35.3858 H   0  0  0  0  0  0  0  0  0  0  0  0
   55.3185   30.9880   36.6499 H   0  0  0  0  0  0  0  0  0  0  0  0
   54.1137   32.0688   38.6092 H   0  0  0  0  0  0  0  0  0  0  0  0
   52.1540   32.0276   39.8859 H   0  0  0  0  0  0  0  0  0  0  0  0
  1  6  2  0
  2  3  2  0
  2  1  1  0
  3  4  1  0
  4  5  2  0
  6  5  1  0
  7  8  1  0
  8  9  2  0
  9 16  1  0
 10  9  1  0
 10  2  1  0
 11 10  2  0
 12 13  2  0
 12 11  1  0
 13  8  1  0
 14 19  2  0
 15 14  1  0
 16 15  2  0
 16 17  1  0
 17 18  2  0
 18 19  1  0
 20  1  1  0
 20 22  2  0
 20 21  2  0
 23 20  1  0
 24 23  2  0
 25 24  1  0
 26 25  2  0
 26 31  1  0
 27 26  1  0
 28 27  2  0
 28 29  1  0
 29 30  2  0
 30 31  1  0
 31 32  2  0
 32 23  1  0
  3 33  1  0
  4 34  1  0
  5 35  1  0
  6 36  1  0
 11 37  1  0
 12 38  1  0
 13 39  1  0
 14 40  1  0
 15 41  1  0
 18 42  1  0
 24 43  1  0
 25 44  1  0
 28 45  1  0
 29 46  1  0
 30 47  1  0
 32 48  1  0
M  ISO  8  33  14  34  14  35  14  36  14  37  14  38  14  39  14  40  14
M  ISO  8  41  14  42  14  43  14  44  14  45  14  46  14  47  14  48  14
M  END
>  <minimizedAffinity>  (1) 
-5.67870951

>  <minimizedRMSD>  (1) 
6.69052219

$$$$
