
     RDKit          3D

 29 31  0  0  0  0  0  0  0  0999 V2000
   42.7160   35.6430   41.9890 O   0  0  0  0  0  0  0  0  0  0  0  0
   41.8920   35.2410   40.9550 C   0  0  0  0  0  0  0  0  0  0  0  0
   42.5030   35.3520   39.7020 C   0  0  0  0  0  0  0  0  0  0  0  0
   41.8560   35.0050   38.5380 C   0  0  0  0  0  0  0  0  0  0  0  0
   40.5680   34.5320   38.6030 C   0  0  0  0  0  0  0  0  0  0  0  0
   39.8420   34.1650   37.5460 N   0  0  0  0  0  0  0  0  0  0  0  0
   38.5830   33.7030   37.5990 C   0  0  0  0  0  0  0  0  0  0  0  0
   37.9520   33.5790   38.8100 C   0  0  0  0  0  0  0  0  0  0  0  0
   38.6470   33.9440   39.9570 C   0  0  0  0  0  0  0  0  0  0  0  0
   39.9550   34.4180   39.8280 C   0  0  0  0  0  0  0  0  0  0  0  0
   40.5840   34.7570   40.9850 C   0  0  0  0  0  0  0  0  0  0  0  0
   44.0730   35.3260   41.9460 C   0  0  0  0  0  0  0  0  0  0  0  0
   44.3510   35.5770   44.3310 C   0  0  0  0  0  0  0  0  0  0  0  0
   44.5840   34.7850   43.2080 C   0  0  0  0  0  0  0  0  0  0  0  0
   45.2590   33.5960   43.4090 C   0  0  0  0  0  0  0  0  0  0  0  0
   45.6450   33.2800   44.6520 N   0  0  0  0  0  0  0  0  0  0  0  0
   45.4040   34.0700   45.7170 C   0  0  0  0  0  0  0  0  0  0  0  0
   44.7360   35.2680   45.5940 N   0  0  0  0  0  0  0  0  0  0  0  0
   43.5348   35.7291   39.6449 H   0  0  0  0  0  0  0  0  0  0  0  0
   42.3640   35.1052   37.5675 H   0  0  0  0  0  0  0  0  0  0  0  0
   38.0586   33.4245   36.6730 H   0  0  0  0  0  0  0  0  0  0  0  0
   36.9212   33.2000   38.8722 H   0  0  0  0  0  0  0  0  0  0  0  0
   38.1761   33.8613   40.9477 H   0  0  0  0  0  0  0  0  0  0  0  0
   40.0604   34.6494   41.9464 H   0  0  0  0  0  0  0  0  0  0  0  0
   44.2313   34.5771   41.1560 H   0  0  0  0  0  0  0  0  0  0  0  0
   44.6188   36.2604   41.7483 H   0  0  0  0  0  0  0  0  0  0  0  0
   43.8138   36.5251   44.1813 H   0  0  0  0  0  0  0  0  0  0  0  0
   45.4747   32.9233   42.5659 H   0  0  0  0  0  0  0  0  0  0  0  0
   45.7500   33.7494   46.7107 H   0  0  0  0  0  0  0  0  0  0  0  0
  2 11  1  0
  2  1  1  0
  3  2  2  0
  4  5  2  0
  4  3  1  0
  5 10  1  0
  6  7  2  0
  6  5  1  0
  7  8  1  0
  8  9  2  0
 10  9  1  0
 10 11  2  0
 12  1  1  0
 12 14  1  0
 13 18  2  0
 14 15  2  0
 14 13  1  0
 15 16  1  0
 16 17  2  0
 18 17  1  0
  3 19  1  0
  4 20  1  0
  7 21  1  0
  8 22  1  0
  9 23  1  0
 11 24  1  0
 12 25  1  0
 12 26  1  0
 13 27  1  0
 15 28  1  0
 17 29  1  0
M  ISO  8  19  14  20  14  21  14  22  14  23  14  24  14  25   8  26   8
M  ISO  3  27  14  28  14  29  14
M  END
>  <minimizedAffinity>  (1) 
-5.5004487

>  <minimizedRMSD>  (1) 
3.06059885

$$$$
