
     RDKit          3D

 54 58  0  0  1  0  0  0  0  0999 V2000
   45.2450   36.9100   42.9060 C   0  0  0  0  0  0  0  0  0  0  0  0
   45.5930   35.6670   43.6800 C   0  0  0  0  0  0  0  0  0  0  0  0
   46.6140   34.8400   43.2090 C   0  0  0  0  0  0  0  0  0  0  0  0
   46.9610   33.6810   43.9210 C   0  0  0  0  0  0  0  0  0  0  0  0
   46.2900   33.4250   45.0280 N   0  0  0  0  0  0  0  0  0  0  0  0
   45.3010   34.2260   45.4860 C   0  0  0  0  0  0  0  0  0  0  0  0
   44.9460   35.3470   44.8200 N   0  0  0  0  0  0  0  0  0  0  0  0
   49.0540   33.6210   42.5770 C   0  0  2  0  0  0  0  0  0  0  0  0
   48.0330   32.8890   43.3440 C   0  0  2  0  0  0  0  0  0  0  0  0
   47.5880   31.9190   42.3750 O   0  0  0  0  0  0  0  0  0  0  0  0
   48.8170   31.3750   42.0030 C   0  0  0  0  0  0  0  0  0  0  0  0
   49.8830   32.4090   42.0900 C   0  0  1  0  0  0  0  0  0  0  0  0
   49.7680   34.5430   43.2550 O   0  0  0  0  0  0  0  0  0  0  0  0
   50.4800   32.7380   40.8680 O   0  0  0  0  0  0  0  0  0  0  0  0
   45.3320   39.2950   43.8960 C   0  0  0  0  0  0  0  0  0  0  0  0
   45.9920   39.6730   42.8870 O   0  0  0  0  0  0  0  0  0  0  0  0
   44.9210   37.9320   43.8840 N   0  0  0  0  0  0  0  0  0  0  0  0
   44.9870   40.1600   45.0270 C   0  0  0  0  0  0  0  0  0  0  0  0
   45.5350   39.9330   46.2440 C   0  0  0  0  0  0  0  0  0  0  0  0
   45.1510   40.8030   47.2580 C   0  0  0  0  0  0  0  0  0  0  0  0
   44.2630   41.8580   47.0870 C   0  0  0  0  0  0  0  0  0  0  0  0
   43.7650   42.0080   45.8310 C   0  0  0  0  0  0  0  0  0  0  0  0
   44.1160   41.1880   44.8390 N   0  0  0  0  0  0  0  0  0  0  0  0
   42.8210   43.0640   45.4810 C   0  0  0  0  0  0  0  0  0  0  0  0
   43.2880   44.2940   45.0660 C   0  0  0  0  0  0  0  0  0  0  0  0
   42.4820   45.3720   44.7080 C   0  0  0  0  0  0  0  0  0  0  0  0
   41.1070   45.2000   44.7700 C   0  0  0  0  0  0  0  0  0  0  0  0
   40.3130   46.2300   44.4270 N   0  0  0  0  0  0  0  0  0  0  0  0
   38.9540   46.1140   44.4710 C   0  0  0  0  0  0  0  0  0  0  0  0
   38.4960   44.8810   44.8860 C   0  0  0  0  0  0  0  0  0  0  0  0
   39.2340   43.7750   45.2540 C   0  0  0  0  0  0  0  0  0  0  0  0
   40.6090   43.9790   45.1810 C   0  0  0  0  0  0  0  0  0  0  0  0
   41.4480   42.9390   45.5260 C   0  0  0  0  0  0  0  0  0  0  0  0
   46.1021   37.2284   42.2944 H   0  0  0  0  0  0  0  0  0  0  0  0
   44.3990   36.7296   42.2265 H   0  0  0  0  0  0  0  0  0  0  0  0
   47.1461   35.0961   42.2810 H   0  0  0  0  0  0  0  0  0  0  0  0
   44.7770   33.9605   46.4160 H   0  0  0  0  0  0  0  0  0  0  0  0
   48.6448   34.2788   41.7961 H   0  0  0  0  0  0  0  0  0  0  0  0
   48.4436   32.4591   44.2695 H   0  0  0  0  0  0  0  0  0  0  0  0
   48.7528   31.0052   40.9690 H   0  0  0  0  0  0  0  0  0  0  0  0
   49.0638   30.5464   42.6831 H   0  0  0  0  0  0  0  0  0  0  0  0
   50.7238   32.0796   42.7182 H   0  0  0  0  0  0  0  0  0  0  0  0
   49.6554   34.3976   44.2278 H   0  0  0  0  0  0  0  0  0  0  0  0
   51.3347   33.2090   41.0345 H   0  0  0  0  0  0  0  0  0  0  0  0
   44.3197   37.6347   44.6656 H   0  0  0  0  0  0  0  0  0  0  0  0
   46.2422   39.1090   46.4200 H   0  0  0  0  0  0  0  0  0  0  0  0
   45.5774   40.6462   48.2598 H   0  0  0  0  0  0  0  0  0  0  0  0
   43.9816   42.5275   47.9132 H   0  0  0  0  0  0  0  0  0  0  0  0
   44.3778   44.4337   45.0140 H   0  0  0  0  0  0  0  0  0  0  0  0
   42.9212   46.3280   44.3868 H   0  0  0  0  0  0  0  0  0  0  0  0
   38.2782   46.9377   44.1975 H   0  0  0  0  0  0  0  0  0  0  0  0
   37.4030   44.7646   44.9290 H   0  0  0  0  0  0  0  0  0  0  0  0
   38.7804   42.8252   45.5737 H   0  0  0  0  0  0  0  0  0  0  0  0
   41.0091   41.9825   45.8462 H   0  0  0  0  0  0  0  0  0  0  0  0
  1  2  1  0
  1 17  1  0
  2  7  1  0
  3  2  2  0
  3  4  1  0
  4  5  2  0
  5  6  1  0
  7  6  2  0
  8 13  1  0
  8  9  1  0
  9  4  1  0
 10  9  1  0
 11 12  1  0
 11 10  1  0
 12  8  1  0
 14 12  1  0
 15 18  1  0
 16 15  2  0
 17 15  1  0
 18 19  2  0
 19 20  1  0
 21 20  2  0
 22 21  1  0
 23 18  1  0
 23 22  2  0
 24 33  1  0
 24 22  1  0
 25 24  2  0
 26 27  2  0
 26 25  1  0
 27 32  1  0
 28 29  2  0
 28 27  1  0
 29 30  1  0
 30 31  2  0
 32 31  1  0
 32 33  2  0
  1 34  1  0
  1 35  1  0
  3 36  1  0
  6 37  1  0
  8 38  1  6
  9 39  1  1
 11 40  1  0
 11 41  1  0
 12 42  1  1
 13 43  1  0
 14 44  1  0
 17 45  1  0
 19 46  1  0
 20 47  1  0
 21 48  1  0
 25 49  1  0
 26 50  1  0
 29 51  1  0
 30 52  1  0
 31 53  1  0
 33 54  1  0
M  ISO  8  34   8  35   8  36  14  37  14  38  13  39  13  40  13  41  13
M  ISO  8  42  13  43   3  44   3  46  14  47  14  48  14  49  14  50  14
M  ISO  4  51  14  52  14  53  14  54  14
M  END
>  <minimizedAffinity>  (1) 
-4.33845091

>  <minimizedRMSD>  (1) 
1.29276407

$$$$
