
     RDKit          3D

 50 54  0  0  1  0  0  0  0  0999 V2000
   46.0420   31.6690   47.3400 N   0  0  0  0  0  0  0  0  0  0  0  0
   46.8040   32.5220   48.1910 C   0  0  0  0  0  0  0  0  0  0  0  0
   48.2170   31.9930   48.3760 C   0  0  0  0  0  0  0  0  0  0  0  0
   48.0760   30.6910   49.1480 C   0  0  0  0  0  0  0  0  0  0  0  0
   47.3130   29.7560   48.2190 C   0  0  0  0  0  0  0  0  0  0  0  0
   45.9900   30.3570   47.7790 C   0  0  2  0  0  0  0  0  0  0  0  0
   45.2690   29.3490   47.0190 C   0  0  0  0  0  0  0  0  0  0  0  0
   44.8760   29.3540   45.7000 C   0  0  0  0  0  0  0  0  0  0  0  0
   44.1800   28.3760   45.0280 C   0  0  0  0  0  0  0  0  0  0  0  0
   43.8250   27.2510   45.7370 C   0  0  0  0  0  0  0  0  0  0  0  0
   43.1450   26.2720   45.1180 N   0  0  0  0  0  0  0  0  0  0  0  0
   42.7600   25.1400   45.7360 C   0  0  0  0  0  0  0  0  0  0  0  0
   43.1030   25.0280   47.0680 C   0  0  0  0  0  0  0  0  0  0  0  0
   43.7990   25.9980   47.7550 C   0  0  0  0  0  0  0  0  0  0  0  0
   44.1570   27.1170   47.0670 C   0  0  0  0  0  0  0  0  0  0  0  0
   44.8460   28.1490   47.6240 C   0  0  0  0  0  0  0  0  0  0  0  0
   46.0380   32.0240   45.9690 C   0  0  0  0  0  0  0  0  0  0  0  0
   46.1240   34.1620   44.4850 C   0  0  1  0  0  0  0  0  0  0  0  0
   45.1260   34.3710   45.4690 C   0  0  0  0  0  0  0  0  0  0  0  0
   46.2530   33.4920   45.8680 C   0  0  1  0  0  0  0  0  0  0  0  0
   44.6770   32.9800   42.8360 C   0  0  0  0  0  0  0  0  0  0  0  0
   45.9900   33.2670   43.3050 C   0  0  0  0  0  0  0  0  0  0  0  0
   47.0490   32.6980   42.6460 C   0  0  0  0  0  0  0  0  0  0  0  0
   46.7800   31.8880   41.5750 N   0  0  0  0  0  0  0  0  0  0  0  0
   45.5290   31.6300   41.1470 C   0  0  0  0  0  0  0  0  0  0  0  0
   44.4440   32.1760   41.7750 N   0  0  0  0  0  0  0  0  0  0  0  0
   46.8522   33.5255   47.7432 H   0  0  0  0  0  0  0  0  0  0  0  0
   46.3144   32.5600   49.1753 H   0  0  0  0  0  0  0  0  0  0  0  0
   48.6880   31.8096   47.3990 H   0  0  0  0  0  0  0  0  0  0  0  0
   48.8515   32.7141   48.9122 H   0  0  0  0  0  0  0  0  0  0  0  0
   49.0659   30.2747   49.3862 H   0  0  0  0  0  0  0  0  0  0  0  0
   47.5538   30.8354   50.1053 H   0  0  0  0  0  0  0  0  0  0  0  0
   47.9281   29.5581   47.3288 H   0  0  0  0  0  0  0  0  0  0  0  0
   47.1014   28.8260   48.7671 H   0  0  0  0  0  0  0  0  0  0  0  0
   45.3431   30.5787   48.6406 H   0  0  0  0  0  0  0  0  0  0  0  0
   45.1505   30.2440   45.1148 H   0  0  0  0  0  0  0  0  0  0  0  0
   43.9175   28.4887   43.9657 H   0  0  0  0  0  0  0  0  0  0  0  0
   42.2042   24.3499   45.2098 H   0  0  0  0  0  0  0  0  0  0  0  0
   42.8054   24.1175   47.6088 H   0  0  0  0  0  0  0  0  0  0  0  0
   44.0554   25.8735   48.8174 H   0  0  0  0  0  0  0  0  0  0  0  0
   45.1072   28.0313   48.6860 H   0  0  0  0  0  0  0  0  0  0  0  0
   46.8457   31.4925   45.4445 H   0  0  0  0  0  0  0  0  0  0  0  0
   45.0780   31.7482   45.5081 H   0  0  0  0  0  0  0  0  0  0  0  0
   46.6866   34.8655   43.8536 H   0  0  0  0  0  0  0  0  0  0  0  0
   45.0274   35.3635   45.9330 H   0  0  0  0  0  0  0  0  0  0  0  0
   44.0336   34.2419   45.4720 H   0  0  0  0  0  0  0  0  0  0  0  0
   46.9885   33.4625   46.6854 H   0  0  0  0  0  0  0  0  0  0  0  0
   43.8191   33.4299   43.3572 H   0  0  0  0  0  0  0  0  0  0  0  0
   48.0838   32.8864   42.9679 H   0  0  0  0  0  0  0  0  0  0  0  0
   45.3781   30.9705   40.2797 H   0  0  0  0  0  0  0  0  0  0  0  0
  1  6  1  0
  1  2  1  0
  2  3  1  0
  3  4  1  0
  5  4  1  0
  6  5  1  0
  7 16  1  0
  7  6  1  0
  8  7  2  0
  9  8  1  0
  9 10  2  0
 10 15  1  0
 11 12  2  0
 11 10  1  0
 12 13  1  0
 13 14  2  0
 15 16  2  0
 15 14  1  0
 17  1  1  0
 18 19  1  0
 18 20  1  0
 19 20  1  0
 20 17  1  0
 21 22  2  0
 22 18  1  0
 23 22  1  0
 24 23  2  0
 25 24  1  0
 25 26  2  0
 26 21  1  0
  2 27  1  0
  2 28  1  0
  3 29  1  0
  3 30  1  0
  4 31  1  0
  4 32  1  0
  5 33  1  0
  5 34  1  0
  6 35  1  1
  8 36  1  0
  9 37  1  0
 12 38  1  0
 13 39  1  0
 14 40  1  0
 16 41  1  0
 17 42  1  0
 17 43  1  0
 18 44  1  6
 19 45  1  0
 19 46  1  0
 20 47  1  1
 21 48  1  0
 23 49  1  0
 25 50  1  0
M  ISO  8  27  13  28  13  29  13  30  13  31  13  32  13  33  13  34  13
M  ISO  8  35  13  36  14  37  14  38  14  39  14  40  14  41  14  42   8
M  ISO  8  43   8  44  13  45  13  46  13  47  13  48  14  49  14  50  14
M  END
>  <minimizedAffinity>  (1) 
-4.89694738

>  <minimizedRMSD>  (1) 
0.996487319

$$$$
