
     RDKit          3D

 49 53  0  0  0  0  0  0  0  0999 V2000
   45.1220   29.9980   47.2980 C   0  0  0  0  0  0  0  0  0  0  0  0
   44.9890   30.8040   48.4350 C   0  0  0  0  0  0  0  0  0  0  0  0
   45.5560   32.0060   48.1970 C   0  0  0  0  0  0  0  0  0  0  0  0
   46.0240   31.9470   46.9490 N   0  0  0  0  0  0  0  0  0  0  0  0
   45.7750   30.7560   46.3970 N   0  0  0  0  0  0  0  0  0  0  0  0
   43.3140   27.0730   46.0750 C   0  0  0  0  0  0  0  0  0  0  0  0
   43.6940   26.0670   46.9550 C   0  0  0  0  0  0  0  0  0  0  0  0
   44.5810   26.4110   47.9720 C   0  0  0  0  0  0  0  0  0  0  0  0
   45.0100   27.6990   48.0360 N   0  0  0  0  0  0  0  0  0  0  0  0
   44.6320   28.6360   47.1850 C   0  0  0  0  0  0  0  0  0  0  0  0
   43.7740   28.3150   46.1940 N   0  0  0  0  0  0  0  0  0  0  0  0
   45.0780   25.4980   48.9680 N   0  0  0  0  0  0  0  0  0  0  0  0
   46.0760   24.6250   48.7470 C   0  0  0  0  0  0  0  0  0  0  0  0
   46.5100   23.7710   49.7500 C   0  0  0  0  0  0  0  0  0  0  0  0
   45.8920   23.8400   50.9810 C   0  0  0  0  0  0  0  0  0  0  0  0
   46.2340   23.0970   51.9380 O   0  0  0  0  0  0  0  0  0  0  0  0
   44.8950   24.7420   51.1380 N   0  0  0  0  0  0  0  0  0  0  0  0
   44.4650   25.5830   50.1540 C   0  0  0  0  0  0  0  0  0  0  0  0
   43.5270   26.3510   50.4880 O   0  0  0  0  0  0  0  0  0  0  0  0
   46.7230   33.0200   46.2470 C   0  0  0  0  0  0  0  0  0  0  0  0
   46.7060   32.7920   44.7870 C   0  0  0  0  0  0  0  0  0  0  0  0
   45.8190   35.0440   43.9670 C   0  0  0  0  0  0  0  0  0  0  0  0
   45.8850   33.6720   43.9800 C   0  0  0  0  0  0  0  0  0  0  0  0
   45.0430   33.0030   43.0860 C   0  0  0  0  0  0  0  0  0  0  0  0
   44.1900   33.6850   42.2380 C   0  0  0  0  0  0  0  0  0  0  0  0
   43.2960   33.3240   41.3040 N   0  0  0  0  0  0  0  0  0  0  0  0
   42.7120   34.3820   40.7470 C   0  0  0  0  0  0  0  0  0  0  0  0
   43.2380   35.5290   41.3350 C   0  0  0  0  0  0  0  0  0  0  0  0
   44.1420   35.0510   42.2440 C   0  0  0  0  0  0  0  0  0  0  0  0
   44.9710   35.7180   43.1240 C   0  0  0  0  0  0  0  0  0  0  0  0
   44.9410   37.1820   43.1530 C   0  0  0  0  0  0  0  0  0  0  0  0
   45.0870   37.8020   44.2490 O   0  0  0  0  0  0  0  0  0  0  0  0
   44.4999   30.5052   49.3739 H   0  0  0  0  0  0  0  0  0  0  0  0
   45.6191   32.8584   48.8894 H   0  0  0  0  0  0  0  0  0  0  0  0
   42.6150   26.8360   45.2594 H   0  0  0  0  0  0  0  0  0  0  0  0
   43.3101   25.0413   46.8526 H   0  0  0  0  0  0  0  0  0  0  0  0
   46.5549   24.5874   47.7574 H   0  0  0  0  0  0  0  0  0  0  0  0
   47.3265   23.0567   49.5682 H   0  0  0  0  0  0  0  0  0  0  0  0
   44.4327   24.7966   52.0568 H   0  0  0  0  0  0  0  0  0  0  0  0
   46.2283   33.9773   46.4680 H   0  0  0  0  0  0  0  0  0  0  0  0
   47.7687   33.0408   46.5878 H   0  0  0  0  0  0  0  0  0  0  0  0
   47.7412   32.8860   44.4272 H   0  0  0  0  0  0  0  0  0  0  0  0
   46.2526   31.7972   44.6649 H   0  0  0  0  0  0  0  0  0  0  0  0
   46.4627   35.6176   44.6501 H   0  0  0  0  0  0  0  0  0  0  0  0
   45.0598   31.9035   43.0566 H   0  0  0  0  0  0  0  0  0  0  0  0
   43.0876   32.3479   41.0497 H   0  0  0  0  0  0  0  0  0  0  0  0
   41.9459   34.3550   39.9581 H   0  0  0  0  0  0  0  0  0  0  0  0
   42.9852   36.5775   41.1187 H   0  0  0  0  0  0  0  0  0  0  0  0
   44.7912   37.7456   42.2203 H   0  0  0  0  0  0  0  0  0  0  0  0
  1  2  1  0
  3  2  2  0
  4  3  1  0
  5  4  1  0
  5  1  2  0
  6 11  2  0
  6  7  1  0
  7  8  2  0
  8  9  1  0
  8 12  1  0
 10  1  1  0
 10  9  2  0
 11 10  1  0
 12 18  1  0
 13 12  1  0
 13 14  2  0
 14 15  1  0
 15 17  1  0
 15 16  2  0
 18 19  2  0
 18 17  1  0
 20  4  1  0
 21 20  1  0
 22 23  2  0
 23 21  1  0
 24 23  1  0
 25 29  1  0
 25 24  2  0
 26 25  1  0
 27 26  1  0
 27 28  2  0
 28 29  1  0
 29 30  2  0
 30 31  1  0
 30 22  1  0
 31 32  2  0
  2 33  1  0
  3 34  1  0
  6 35  1  0
  7 36  1  0
 13 37  1  0
 14 38  1  0
 17 39  1  0
 20 40  1  0
 20 41  1  0
 21 42  1  0
 21 43  1  0
 22 44  1  0
 24 45  1  0
 26 46  1  0
 27 47  1  0
 28 48  1  0
 31 49  1  0
M  ISO  8  33  14  34  14  35  14  36  14  37  14  38  14  39   9  40   8
M  ISO  8  41   8  42   8  43   8  44  14  45  14  46   9  47  14  48  14
M  ISO  1  49   6
M  END
>  <minimizedAffinity>  (1) 
-6.82043791

>  <minimizedRMSD>  (1) 
10.1635303

$$$$
