
     RDKit          3D

 47 49  0  0  0  0  0  0  0  0999 V2000
   42.3370   31.7440   42.5220 N   0  0  0  0  0  0  0  0  0  0  0  0
   43.0350   32.5440   41.5700 C   0  0  0  0  0  0  0  0  0  0  0  0
   43.6790   34.9450   41.8910 C   0  0  0  0  0  0  0  0  0  0  0  0
   43.9080   33.5980   42.1590 C   0  0  0  0  0  0  0  0  0  0  0  0
   44.9620   33.2620   42.9830 C   0  0  0  0  0  0  0  0  0  0  0  0
   45.7510   34.2480   43.5130 C   0  0  0  0  0  0  0  0  0  0  0  0
   45.5490   35.5760   43.2670 C   0  0  0  0  0  0  0  0  0  0  0  0
   44.4830   35.8630   42.4380 C   0  0  0  0  0  0  0  0  0  0  0  0
   40.3080   35.9360   40.5120 C   0  0  0  0  0  0  0  0  0  0  0  0
   41.3190   35.6820   41.4460 C   0  0  0  0  0  0  0  0  0  0  0  0
   42.5520   35.2420   41.0160 C   0  0  0  0  0  0  0  0  0  0  0  0
   42.7050   35.0800   39.6690 N   0  0  0  0  0  0  0  0  0  0  0  0
   41.7250   35.3280   38.7730 C   0  0  0  0  0  0  0  0  0  0  0  0
   40.5290   35.7560   39.2100 N   0  0  0  0  0  0  0  0  0  0  0  0
   40.6700   31.5770   42.1460 S   0  0  0  0  0  0  0  0  0  0  0  0
   39.8990   32.8110   42.5510 O   0  0  0  0  0  0  0  0  0  0  0  0
   40.0960   30.3690   42.7990 O   0  0  0  0  0  0  0  0  0  0  0  0
   40.5410   31.3990   40.4790 O   0  0  0  0  0  0  0  0  0  0  0  0
   39.6620   32.3740   40.0140 C   0  0  0  0  0  0  0  0  0  0  0  0
   38.2720   31.7350   39.8300 C   0  0  0  0  0  0  0  0  0  0  0  0
   38.3200   30.8500   38.6860 N   0  0  0  0  0  0  0  0  0  0  0  0
   38.6980   31.3340   37.4800 C   0  0  0  0  0  0  0  0  0  0  0  0
   38.7260   30.4410   36.4170 C   0  0  0  0  0  0  0  0  0  0  0  0
   38.3720   29.1250   36.6350 C   0  0  0  0  0  0  0  0  0  0  0  0
   38.3820   28.2690   35.6920 O   0  0  0  0  0  0  0  0  0  0  0  0
   38.0010   28.6930   37.8650 N   0  0  0  0  0  0  0  0  0  0  0  0
   37.9770   29.5630   38.8870 C   0  0  0  0  0  0  0  0  0  0  0  0
   37.6280   29.1580   40.0470 O   0  0  0  0  0  0  0  0  0  0  0  0
   42.7658   30.8078   42.5442 H   0  0  0  0  0  0  0  0  0  0  0  0
   42.2914   33.0362   40.9260 H   0  0  0  0  0  0  0  0  0  0  0  0
   43.7009   31.8616   41.0214 H   0  0  0  0  0  0  0  0  0  0  0  0
   45.1680   32.2063   43.2135 H   0  0  0  0  0  0  0  0  0  0  0  0
   46.5861   33.9568   44.1671 H   0  0  0  0  0  0  0  0  0  0  0  0
   46.1891   36.3600   43.6980 H   0  0  0  0  0  0  0  0  0  0  0  0
   44.2809   36.9203   42.2117 H   0  0  0  0  0  0  0  0  0  0  0  0
   39.3235   36.2869   40.8551 H   0  0  0  0  0  0  0  0  0  0  0  0
   41.1300   35.8330   42.5191 H   0  0  0  0  0  0  0  0  0  0  0  0
   41.9043   35.1811   37.6977 H   0  0  0  0  0  0  0  0  0  0  0  0
   39.8632   32.8684   43.5387 H   0  0  0  0  0  0  0  0  0  0  0  0
   40.1445   30.4710   43.7825 H   0  0  0  0  0  0  0  0  0  0  0  0
   39.5990   33.1946   40.7438 H   0  0  0  0  0  0  0  0  0  0  0  0
   40.0204   32.7768   39.0552 H   0  0  0  0  0  0  0  0  0  0  0  0
   38.0048   31.1627   40.7306 H   0  0  0  0  0  0  0  0  0  0  0  0
   37.5162   32.5178   39.6688 H   0  0  0  0  0  0  0  0  0  0  0  0
   38.9717   32.3911   37.3473 H   0  0  0  0  0  0  0  0  0  0  0  0
   39.0265   30.7782   35.4140 H   0  0  0  0  0  0  0  0  0  0  0  0
   37.7403   27.7077   38.0139 H   0  0  0  0  0  0  0  0  0  0  0  0
  2  4  1  0
  2  1  1  0
  3  4  1  0
  3  8  2  0
  4  5  2  0
  5  6  1  0
  7  6  2  0
  8  7  1  0
  9 10  2  0
 11 10  1  0
 11  3  1  0
 12 11  2  0
 13 14  2  0
 13 12  1  0
 14  9  1  0
 15  1  1  0
 15 16  1  0
 15 17  1  0
 18 15  1  0
 19 18  1  0
 20 19  1  0
 21 27  1  0
 21 20  1  0
 22 21  1  0
 23 24  1  0
 23 22  2  0
 24 26  1  0
 25 24  2  0
 26 27  1  0
 27 28  2  0
  1 29  1  0
  2 30  1  0
  2 31  1  0
  5 32  1  0
  6 33  1  0
  7 34  1  0
  8 35  1  0
  9 36  1  0
 10 37  1  0
 13 38  1  0
 16 39  1  0
 17 40  1  0
 19 41  1  0
 19 42  1  0
 20 43  1  0
 20 44  1  0
 22 45  1  0
 23 46  1  0
 26 47  1  0
M  ISO  8  29   5  30   8  31   8  32  14  33  14  34  14  35  14  36  14
M  ISO  8  37  14  38  14  39   3  40   3  41   8  42   8  43   8  44   8
M  ISO  3  45  14  46  14  47   9
M  END
>  <minimizedAffinity>  (1) 
-5.53405046

>  <minimizedRMSD>  (1) 
2.37874126

$$$$
