
     RDKit          3D

 21 22  0  0  0  0  0  0  0  0999 V2000
   44.4650   35.8450   44.9700 C   0  0  0  0  0  0  0  0  0  0  0  0
   45.0270   35.7490   43.6700 C   0  0  0  0  0  0  0  0  0  0  0  0
   45.8860   34.6680   43.4390 C   0  0  0  0  0  0  0  0  0  0  0  0
   46.1430   33.7850   44.4230 N   0  0  0  0  0  0  0  0  0  0  0  0
   45.5810   33.9150   45.6630 C   0  0  0  0  0  0  0  0  0  0  0  0
   44.7500   34.9460   45.9090 N   0  0  0  0  0  0  0  0  0  0  0  0
   46.4500   34.5700   42.1350 N   0  0  0  0  0  0  0  0  0  0  0  0
   47.7460   34.9990   42.0890 C   0  0  0  0  0  0  0  0  0  0  0  0
   48.4400   34.9730   40.9090 C   0  0  0  0  0  0  0  0  0  0  0  0
   47.8510   34.5150   39.7510 C   0  0  0  0  0  0  0  0  0  0  0  0
   48.4490   34.4680   38.6240 O   0  0  0  0  0  0  0  0  0  0  0  0
   46.5580   34.0990   39.8540 N   0  0  0  0  0  0  0  0  0  0  0  0
   45.8740   34.1250   41.0170 C   0  0  0  0  0  0  0  0  0  0  0  0
   44.6970   33.7560   41.1530 O   0  0  0  0  0  0  0  0  0  0  0  0
   44.7630   36.6520   42.6660 O   0  0  0  0  0  0  0  0  0  0  0  0
   43.7832   36.6756   45.2050 H   0  0  0  0  0  0  0  0  0  0  0  0
   45.8058   33.1834   46.4531 H   0  0  0  0  0  0  0  0  0  0  0  0
   48.2341   35.3668   43.0036 H   0  0  0  0  0  0  0  0  0  0  0  0
   49.4826   35.3228   40.8854 H   0  0  0  0  0  0  0  0  0  0  0  0
   46.0828   33.7502   39.0094 H   0  0  0  0  0  0  0  0  0  0  0  0
   45.1815   36.5390   41.7760 H   0  0  0  0  0  0  0  0  0  0  0  0
  1  6  2  0
  2  1  1  0
  3  2  2  0
  3  4  1  0
  4  5  2  0
  5  6  1  0
  7  3  1  0
  8  7  1  0
  9  8  2  0
 10 12  1  0
 10  9  1  0
 11 10  2  0
 12 13  1  0
 13 14  2  0
 13  7  1  0
 15  2  1  0
  1 16  1  0
  5 17  1  0
  8 18  1  0
  9 19  1  0
 12 20  1  0
 15 21  1  0
M  ISO  6  16  14  17  14  18  14  19  14  20   9  21   3
M  END
>  <minimizedAffinity>  (1) 
-5.26955938

>  <minimizedRMSD>  (1) 
0.874192417

$$$$
