
     RDKit          3D

 45 48  0  0  1  0  0  0  0  0999 V2000
   44.5450   35.5340   44.6070 C   0  0  0  0  0  0  0  0  0  0  0  0
   45.2440   35.5940   43.3780 C   0  0  0  0  0  0  0  0  0  0  0  0
   46.3680   34.7270   43.2080 C   0  0  0  0  0  0  0  0  0  0  0  0
   46.7040   33.9000   44.2200 N   0  0  0  0  0  0  0  0  0  0  0  0
   46.0130   33.8730   45.3740 C   0  0  0  0  0  0  0  0  0  0  0  0
   44.9350   34.6850   45.5750 N   0  0  0  0  0  0  0  0  0  0  0  0
   47.0920   34.7750   41.9550 C   0  0  0  0  0  0  0  0  0  0  0  0
   48.2800   35.4330   41.9170 C   0  0  0  0  0  0  0  0  0  0  0  0
   48.9410   35.4490   40.6750 C   0  0  0  0  0  0  0  0  0  0  0  0
   48.3230   34.7990   39.6250 C   0  0  0  0  0  0  0  0  0  0  0  0
   47.1310   34.1400   39.6700 C   0  0  0  0  0  0  0  0  0  0  0  0
   46.5300   34.1550   40.9000 N   0  0  0  0  0  0  0  0  0  0  0  0
   46.5560   33.4910   38.5400 N   0  0  0  0  0  0  0  0  0  0  0  0
   45.3680   32.8180   38.5930 C   0  0  0  0  0  0  0  0  0  0  0  0
   44.8720   32.2110   37.4460 C   0  0  0  0  0  0  0  0  0  0  0  0
   45.6060   32.3040   36.2600 C   0  0  0  0  0  0  0  0  0  0  0  0
   45.1400   31.7440   35.2210 O   0  0  0  0  0  0  0  0  0  0  0  0
   46.7640   32.9740   36.2570 N   0  0  0  0  0  0  0  0  0  0  0  0
   47.2430   33.5640   37.3730 C   0  0  0  0  0  0  0  0  0  0  0  0
   48.3440   34.1650   37.2470 O   0  0  0  0  0  0  0  0  0  0  0  0
   46.4370   32.9410   46.4510 C   0  0  2  0  0  0  0  0  0  0  0  0
   46.9540   31.7180   45.7470 C   0  0  0  0  0  0  0  0  0  0  0  0
   46.0780   30.5330   45.7740 C   0  0  0  0  0  0  0  0  0  0  0  0
   45.7730   30.2650   47.2420 C   0  0  0  0  0  0  0  0  0  0  0  0
   45.0080   31.3490   47.8510 C   0  0  0  0  0  0  0  0  0  0  0  0
   45.3840   32.7150   47.4150 C   0  0  0  0  0  0  0  0  0  0  0  0
   44.7050   33.8540   47.9420 N   0  0  0  0  0  0  0  0  0  0  0  0
   43.6754   36.1871   44.7722 H   0  0  0  0  0  0  0  0  0  0  0  0
   44.9330   36.2845   42.5803 H   0  0  0  0  0  0  0  0  0  0  0  0
   48.7010   35.9250   42.8062 H   0  0  0  0  0  0  0  0  0  0  0  0
   49.9080   35.9572   40.5460 H   0  0  0  0  0  0  0  0  0  0  0  0
   48.8444   34.8147   38.6566 H   0  0  0  0  0  0  0  0  0  0  0  0
   44.8079   32.7572   39.5378 H   0  0  0  0  0  0  0  0  0  0  0  0
   43.9169   31.6659   37.4707 H   0  0  0  0  0  0  0  0  0  0  0  0
   47.3033   33.0414   35.3820 H   0  0  0  0  0  0  0  0  0  0  0  0
   47.2394   33.3518   47.0814 H   0  0  0  0  0  0  0  0  0  0  0  0
   47.9096   31.4398   46.2155 H   0  0  0  0  0  0  0  0  0  0  0  0
   47.0349   32.0004   44.6870 H   0  0  0  0  0  0  0  0  0  0  0  0
   45.1481   30.7332   45.2215 H   0  0  0  0  0  0  0  0  0  0  0  0
   46.5609   29.6660   45.2996 H   0  0  0  0  0  0  0  0  0  0  0  0
   45.1922   29.3341   47.3193 H   0  0  0  0  0  0  0  0  0  0  0  0
   46.7305   30.1839   47.7774 H   0  0  0  0  0  0  0  0  0  0  0  0
   44.2078   31.1649   48.5829 H   0  0  0  0  0  0  0  0  0  0  0  0
   43.9494   33.7300   48.6309 H   0  0  0  0  0  0  0  0  0  0  0  0
   44.9705   34.8002   47.6335 H   0  0  0  0  0  0  0  0  0  0  0  0
  1  6  2  0
  2  1  1  0
  3  2  2  0
  3  4  1  0
  4  5  2  0
  5  6  1  0
  5 21  1  0
  7  3  1  0
  8  7  2  0
  9  8  1  0
 10 11  1  0
 10  9  2  0
 11 12  2  0
 12  7  1  0
 13 14  1  0
 13 11  1  0
 15 14  2  0
 16 15  1  0
 17 16  2  0
 18 16  1  0
 18 19  1  0
 19 13  1  0
 20 19  2  0
 21 26  1  0
 22 23  1  0
 22 21  1  0
 23 24  1  0
 24 25  1  0
 26 25  2  0
 26 27  1  0
  1 28  1  0
  2 29  1  0
  8 30  1  0
  9 31  1  0
 10 32  1  0
 14 33  1  0
 15 34  1  0
 18 35  1  0
 21 36  1  1
 22 37  1  0
 22 38  1  0
 23 39  1  0
 23 40  1  0
 24 41  1  0
 24 42  1  0
 25 43  1  0
 27 44  1  0
 27 45  1  0
M  END
>  <minimizedAffinity>  (1) 
-8.28310204

>  <minimizedRMSD>  (1) 
0.375960678

$$$$
