
     RDKit          3D

 42 45  0  0  1  0  0  0  0  0999 V2000
   46.4770   32.9600   46.4760 C   0  0  0  0  0  0  0  0  0  0  0  0
   44.5210   35.6630   44.7750 C   0  0  0  0  0  0  0  0  0  0  0  0
   45.1170   35.6340   43.4940 C   0  0  0  0  0  0  0  0  0  0  0  0
   46.1300   34.7060   43.3060 C   0  0  0  0  0  0  0  0  0  0  0  0
   46.4990   33.8760   44.3510 N   0  0  0  0  0  0  0  0  0  0  0  0
   45.8960   33.9540   45.5410 C   0  0  0  0  0  0  0  0  0  0  0  0
   44.9040   34.8400   45.7750 N   0  0  0  0  0  0  0  0  0  0  0  0
   46.7500   34.6480   42.0170 N   0  0  0  0  0  0  0  0  0  0  0  0
   47.9630   35.2470   41.8790 C   0  0  0  0  0  0  0  0  0  0  0  0
   48.5680   35.1900   40.6200 C   0  0  0  0  0  0  0  0  0  0  0  0
   47.9250   34.5470   39.6080 C   0  0  0  0  0  0  0  0  0  0  0  0
   48.5030   34.5150   38.4790 O   0  0  0  0  0  0  0  0  0  0  0  0
   46.7340   33.9610   39.7520 N   0  0  0  0  0  0  0  0  0  0  0  0
   46.1620   34.0290   40.9840 C   0  0  0  0  0  0  0  0  0  0  0  0
   45.0570   33.5140   41.2170 O   0  0  0  0  0  0  0  0  0  0  0  0
   45.4520   32.5300   47.5090 C   0  0  0  0  0  0  0  0  0  0  0  0
   45.4740   30.0870   47.5800 C   0  0  0  0  0  0  0  0  0  0  0  0
   46.4650   30.2410   48.3690 O   0  0  0  0  0  0  0  0  0  0  0  0
   44.9240   31.2520   47.1430 N   0  0  0  0  0  0  0  0  0  0  0  0
   48.1620   28.0260   47.8190 N   0  0  0  0  0  0  0  0  0  0  0  0
   47.1100   28.9520   47.7150 C   0  0  1  0  0  0  0  0  0  0  0  0
   45.6260   28.7510   47.6990 C   0  0  0  0  0  0  0  0  0  0  0  0
   45.7700   27.4780   47.8130 C   0  0  0  0  0  0  0  0  0  0  0  0
   44.4500   27.3490   47.7940 O   0  0  0  0  0  0  0  0  0  0  0  0
   46.5070   26.4100   47.9210 N   0  0  0  0  0  0  0  0  0  0  0  0
   47.8380   26.7050   47.9260 C   0  0  0  0  0  0  0  0  0  0  0  0
   48.5180   25.6610   48.0310 O   0  0  0  0  0  0  0  0  0  0  0  0
   47.3401   33.4089   46.9893 H   0  0  0  0  0  0  0  0  0  0  0  0
   46.7911   32.0763   45.9013 H   0  0  0  0  0  0  0  0  0  0  0  0
   43.7129   36.3847   44.9652 H   0  0  0  0  0  0  0  0  0  0  0  0
   44.7947   36.3112   42.6893 H   0  0  0  0  0  0  0  0  0  0  0  0
   48.4489   35.7561   42.7244 H   0  0  0  0  0  0  0  0  0  0  0  0
   49.5489   35.6579   40.4502 H   0  0  0  0  0  0  0  0  0  0  0  0
   46.2706   33.4805   38.9676 H   0  0  0  0  0  0  0  0  0  0  0  0
   45.9314   32.4610   48.4966 H   0  0  0  0  0  0  0  0  0  0  0  0
   44.6376   33.2682   47.5516 H   0  0  0  0  0  0  0  0  0  0  0  0
   44.7878   30.0855   48.4397 H   0  0  0  0  0  0  0  0  0  0  0  0
   44.9511   31.2141   46.1141 H   0  0  0  0  0  0  0  0  0  0  0  0
   49.1448   28.3343   47.8146 H   0  0  0  0  0  0  0  0  0  0  0  0
   47.9968   28.9230   47.0648 H   0  0  0  0  0  0  0  0  0  0  0  0
   45.6507   28.6562   46.6034 H   0  0  0  0  0  0  0  0  0  0  0  0
   46.1289   25.4547   47.9941 H   0  0  0  0  0  0  0  0  0  0  0  0
  1 16  1  0
  2  7  2  0
  3  2  1  0
  4  3  2  0
  4  5  1  0
  5  6  2  0
  6  7  1  0
  6  1  1  0
  8  4  1  0
  9  8  1  0
 10  9  2  0
 11 13  1  0
 11 10  1  0
 12 11  2  0
 13 14  1  0
 14 15  2  0
 14  8  1  0
 17 19  1  0
 17 22  1  0
 17 18  1  0
 19 16  1  0
 20 26  1  0
 21 20  1  0
 21 18  1  0
 22 21  1  0
 22 23  1  0
 23 25  1  0
 24 23  2  0
 25 26  1  0
 26 27  2  0
  1 28  1  0
  1 29  1  0
  2 30  1  0
  3 31  1  0
  9 32  1  0
 10 33  1  0
 13 34  1  0
 16 35  1  0
 16 36  1  0
 17 37  1  0
 19 38  1  0
 20 39  1  0
 21 40  1  6
 22 41  1  0
 25 42  1  0
M  ISO  8  28   8  29   8  30  14  31  14  32  14  33  14  34   9  35   8
M  ISO  7  36   8  37  13  38   5  39  10  40  13  41  13  42  10
M  END
>  <minimizedAffinity>  (1) 
-6.46116924

>  <minimizedRMSD>  (1) 
1.55898523

$$$$
