
     RDKit          3D

 36 38  0  0  1  0  0  0  0  0999 V2000
   47.6950   33.2810   42.4150 C   0  0  2  0  0  0  0  0  0  0  0  0
   49.1600   33.0920   42.4370 C   0  0  0  0  0  0  0  0  0  0  0  0
   49.9200   34.3330   42.7670 C   0  0  0  0  0  0  0  0  0  0  0  0
   49.5690   35.5050   41.8770 C   0  0  0  0  0  0  0  0  0  0  0  0
   48.0980   35.6260   41.6050 C   0  0  0  0  0  0  0  0  0  0  0  0
   47.2550   34.7320   42.4760 C   0  0  1  0  0  0  0  0  0  0  0  0
   45.9040   34.7790   41.9420 N   0  0  0  0  0  0  0  0  0  0  0  0
   44.9100   35.3330   42.6580 C   0  0  0  0  0  0  0  0  0  0  0  0
   43.6010   35.4040   42.1950 C   0  0  0  0  0  0  0  0  0  0  0  0
   43.3340   34.8700   40.9320 C   0  0  0  0  0  0  0  0  0  0  0  0
   42.1700   34.9100   40.4710 O   0  0  0  0  0  0  0  0  0  0  0  0
   44.3450   34.3200   40.2320 N   0  0  0  0  0  0  0  0  0  0  0  0
   45.5960   34.2770   40.7270 C   0  0  0  0  0  0  0  0  0  0  0  0
   46.4730   33.7510   40.0140 O   0  0  0  0  0  0  0  0  0  0  0  0
   47.0160   32.5650   43.5120 C   0  0  0  0  0  0  0  0  0  0  0  0
   47.0950   33.1760   44.7780 C   0  0  0  0  0  0  0  0  0  0  0  0
   46.4870   32.5860   45.8910 C   0  0  0  0  0  0  0  0  0  0  0  0
   45.8260   31.3970   45.6600 N   0  0  0  0  0  0  0  0  0  0  0  0
   45.7670   30.8340   44.4310 C   0  0  0  0  0  0  0  0  0  0  0  0
   46.3600   31.4140   43.3600 N   0  0  0  0  0  0  0  0  0  0  0  0
   47.4005   32.8627   41.4412 H   0  0  0  0  0  0  0  0  0  0  0  0
   49.4002   32.3271   43.1901 H   0  0  0  0  0  0  0  0  0  0  0  0
   49.4606   32.7911   41.4225 H   0  0  0  0  0  0  0  0  0  0  0  0
   49.7023   34.6088   43.8094 H   0  0  0  0  0  0  0  0  0  0  0  0
   50.9863   34.1131   42.6101 H   0  0  0  0  0  0  0  0  0  0  0  0
   49.9105   36.4291   42.3662 H   0  0  0  0  0  0  0  0  0  0  0  0
   50.0660   35.3391   40.9098 H   0  0  0  0  0  0  0  0  0  0  0  0
   47.7955   36.6691   41.7793 H   0  0  0  0  0  0  0  0  0  0  0  0
   47.9329   35.3148   40.5629 H   0  0  0  0  0  0  0  0  0  0  0  0
   47.3392   35.0804   43.5160 H   0  0  0  0  0  0  0  0  0  0  0  0
   45.1418   35.7469   43.6504 H   0  0  0  0  0  0  0  0  0  0  0  0
   42.8056   35.8633   42.8003 H   0  0  0  0  0  0  0  0  0  0  0  0
   44.1571   33.9246   39.2997 H   0  0  0  0  0  0  0  0  0  0  0  0
   47.6393   34.1250   44.8928 H   0  0  0  0  0  0  0  0  0  0  0  0
   46.5331   33.0426   46.8907 H   0  0  0  0  0  0  0  0  0  0  0  0
   45.2261   29.8853   44.2988 H   0  0  0  0  0  0  0  0  0  0  0  0
  1  2  1  0
  1  6  1  0
  1 15  1  0
  2  3  1  0
  4  3  1  0
  5  4  1  0
  5  6  1  0
  7  6  1  0
  7  8  1  0
  9  8  2  0
 10  9  1  0
 11 10  2  0
 12 13  1  0
 12 10  1  0
 13  7  1  0
 14 13  2  0
 15 16  2  0
 16 17  1  0
 18 17  2  0
 19 18  1  0
 20 15  1  0
 20 19  2  0
  1 21  1  6
  2 22  1  0
  2 23  1  0
  3 24  1  0
  3 25  1  0
  4 26  1  0
  4 27  1  0
  5 28  1  0
  5 29  1  0
  6 30  1  1
  8 31  1  0
  9 32  1  0
 12 33  1  0
 16 34  1  0
 17 35  1  0
 19 36  1  0
M  ISO  8  21  13  22  13  23  13  24  13  25  13  26  13  27  13  28  13
M  ISO  8  29  13  30  13  31  14  32  14  33   9  34  14  35  14  36  14
M  END
>  <minimizedAffinity>  (1) 
-5.32038307

>  <minimizedRMSD>  (1) 
5.32878351

$$$$
