
     RDKit          3D

 41 44  0  0  1  0  0  0  0  0999 V2000
   48.6270   32.9530   40.8890 O   0  0  0  0  0  0  0  0  0  0  0  0
   48.3870   33.3230   39.5410 C   0  0  0  0  0  0  0  0  0  0  0  0
   48.3720   34.5720   38.9110 C   0  0  0  0  0  0  0  0  0  0  0  0
   48.0800   34.3890   37.5710 C   0  0  0  0  0  0  0  0  0  0  0  0
   47.9330   33.0440   37.4480 C   0  0  0  0  0  0  0  0  0  0  0  0
   48.1110   32.4230   38.5990 O   0  0  0  0  0  0  0  0  0  0  0  0
   47.6070   32.3440   36.1860 C   0  0  2  0  0  0  0  0  0  0  0  0
   48.5140   31.3370   35.6350 C   0  0  0  0  0  0  0  0  0  0  0  0
   48.5770   32.6910   35.0260 C   0  0  1  0  0  0  0  0  0  0  0  0
   48.6380   33.1220   32.5800 C   0  0  0  0  0  0  0  0  0  0  0  0
   49.8900   33.3070   32.5840 O   0  0  0  0  0  0  0  0  0  0  0  0
   47.8830   32.8490   33.7500 N   0  0  0  0  0  0  0  0  0  0  0  0
   48.7870   33.9880   41.8570 C   0  0  0  0  0  0  0  0  0  0  0  0
   49.8840   34.5840   41.8670 O   0  0  0  0  0  0  0  0  0  0  0  0
   47.6600   34.2180   42.7020 C   0  0  0  0  0  0  0  0  0  0  0  0
   46.7400   35.1180   42.2290 C   0  0  0  0  0  0  0  0  0  0  0  0
   45.6180   35.3950   42.9910 C   0  0  0  0  0  0  0  0  0  0  0  0
   45.4760   34.7600   44.1800 N   0  0  0  0  0  0  0  0  0  0  0  0
   46.3900   33.8860   44.6190 C   0  0  0  0  0  0  0  0  0  0  0  0
   47.4710   33.6360   43.8580 N   0  0  0  0  0  0  0  0  0  0  0  0
   46.1880   33.2490   45.8780 N   0  0  0  0  0  0  0  0  0  0  0  0
   46.8650   32.1890   46.3610 C   0  0  0  0  0  0  0  0  0  0  0  0
   46.5660   31.6680   47.6040 C   0  0  0  0  0  0  0  0  0  0  0  0
   45.5500   32.2890   48.3060 C   0  0  0  0  0  0  0  0  0  0  0  0
   45.2640   31.8190   49.4540 O   0  0  0  0  0  0  0  0  0  0  0  0
   44.8830   33.3320   47.8310 N   0  0  0  0  0  0  0  0  0  0  0  0
   45.2020   33.8250   46.5990 C   0  0  0  0  0  0  0  0  0  0  0  0
   44.5090   34.8170   46.2410 O   0  0  0  0  0  0  0  0  0  0  0  0
   48.5610   35.5391   39.3999 H   0  0  0  0  0  0  0  0  0  0  0  0
   47.9882   35.1550   36.7869 H   0  0  0  0  0  0  0  0  0  0  0  0
   46.5254   32.3377   36.3863 H   0  0  0  0  0  0  0  0  0  0  0  0
   49.3573   30.9788   36.2437 H   0  0  0  0  0  0  0  0  0  0  0  0
   48.3643   30.3281   35.2230 H   0  0  0  0  0  0  0  0  0  0  0  0
   49.3816   33.4139   34.8259 H   0  0  0  0  0  0  0  0  0  0  0  0
   48.1068   33.1757   31.6183 H   0  0  0  0  0  0  0  0  0  0  0  0
   46.8578   32.7632   33.7003 H   0  0  0  0  0  0  0  0  0  0  0  0
   46.8913   35.6127   41.2582 H   0  0  0  0  0  0  0  0  0  0  0  0
   44.8611   36.1121   42.6405 H   0  0  0  0  0  0  0  0  0  0  0  0
   47.6647   31.7337   45.7584 H   0  0  0  0  0  0  0  0  0  0  0  0
   47.1082   30.8034   48.0145 H   0  0  0  0  0  0  0  0  0  0  0  0
   44.1317   33.7657   48.3863 H   0  0  0  0  0  0  0  0  0  0  0  0
  1 13  1  0
  2  1  1  0
  3  2  2  0
  4  3  1  0
  5  4  2  0
  5  6  1  0
  6  2  1  0
  7  5  1  0
  8  7  1  0
  9  8  1  0
  9  7  1  0
 10 11  2  0
 10 12  1  0
 12  9  1  0
 13 14  2  0
 13 15  1  0
 15 20  1  0
 16 15  2  0
 16 17  1  0
 17 18  2  0
 18 19  1  0
 19 21  1  0
 20 19  2  0
 21 22  1  0
 21 27  1  0
 22 23  2  0
 23 24  1  0
 24 25  2  0
 26 24  1  0
 27 26  1  0
 28 27  2  0
  3 29  1  0
  4 30  1  0
  7 31  1  6
  8 32  1  0
  8 33  1  0
  9 34  1  1
 10 35  1  0
 12 36  1  0
 16 37  1  0
 17 38  1  0
 22 39  1  0
 23 40  1  0
 26 41  1  0
M  END
>  <minimizedAffinity>  (1) 
-7.28949738

>  <minimizedRMSD>  (1) 
1.26912582

$$$$
