
     RDKit          3D

 36 38  0  0  0  0  0  0  0  0999 V2000
   47.8900   33.6990   42.8800 C   0  0  0  0  0  0  0  0  0  0  0  0
   48.6110   34.9000   42.6960 C   0  0  0  0  0  0  0  0  0  0  0  0
   49.9720   34.8400   42.3860 C   0  0  0  0  0  0  0  0  0  0  0  0
   50.5270   33.5800   42.2790 N   0  0  0  0  0  0  0  0  0  0  0  0
   49.8090   32.4510   42.4600 C   0  0  0  0  0  0  0  0  0  0  0  0
   48.5100   32.5200   42.7560 N   0  0  0  0  0  0  0  0  0  0  0  0
   50.4480   31.1820   42.3340 N   0  0  0  0  0  0  0  0  0  0  0  0
   50.0510   30.2120   43.1980 C   0  0  0  0  0  0  0  0  0  0  0  0
   50.6410   28.9450   43.1240 C   0  0  0  0  0  0  0  0  0  0  0  0
   51.6200   28.7460   42.1530 C   0  0  0  0  0  0  0  0  0  0  0  0
   52.1290   27.6010   42.1110 O   0  0  0  0  0  0  0  0  0  0  0  0
   51.9620   29.7680   41.3240 N   0  0  0  0  0  0  0  0  0  0  0  0
   51.3940   30.9820   41.3980 C   0  0  0  0  0  0  0  0  0  0  0  0
   51.7550   31.8760   40.6080 O   0  0  0  0  0  0  0  0  0  0  0  0
   46.4630   33.8470   43.2170 C   0  0  0  0  0  0  0  0  0  0  0  0
   45.7780   34.8700   42.4060 C   0  0  0  0  0  0  0  0  0  0  0  0
   45.3920   36.0920   43.1910 C   0  0  0  0  0  0  0  0  0  0  0  0
   44.5150   35.7390   44.3800 C   0  0  0  0  0  0  0  0  0  0  0  0
   44.9990   34.5330   45.1390 C   0  0  0  0  0  0  0  0  0  0  0  0
   46.3790   34.0980   44.7160 C   0  0  0  0  0  0  0  0  0  0  0  0
   48.1061   35.8722   42.7958 H   0  0  0  0  0  0  0  0  0  0  0  0
   50.5710   35.7501   42.2348 H   0  0  0  0  0  0  0  0  0  0  0  0
   49.2738   30.4201   43.9481 H   0  0  0  0  0  0  0  0  0  0  0  0
   50.3427   28.1362   43.8073 H   0  0  0  0  0  0  0  0  0  0  0  0
   52.6863   29.6040   40.6103 H   0  0  0  0  0  0  0  0  0  0  0  0
   45.9178   32.9250   42.9666 H   0  0  0  0  0  0  0  0  0  0  0  0
   44.8658   34.4255   41.9814 H   0  0  0  0  0  0  0  0  0  0  0  0
   46.4836   35.1935   41.6266 H   0  0  0  0  0  0  0  0  0  0  0  0
   46.3052   36.5856   43.5550 H   0  0  0  0  0  0  0  0  0  0  0  0
   44.8215   36.7601   42.5290 H   0  0  0  0  0  0  0  0  0  0  0  0
   44.4946   36.5985   45.0662 H   0  0  0  0  0  0  0  0  0  0  0  0
   43.5159   35.4980   43.9879 H   0  0  0  0  0  0  0  0  0  0  0  0
   45.0195   34.7765   46.2115 H   0  0  0  0  0  0  0  0  0  0  0  0
   44.3079   33.7046   44.9245 H   0  0  0  0  0  0  0  0  0  0  0  0
   46.6370   33.1696   45.2466 H   0  0  0  0  0  0  0  0  0  0  0  0
   47.0816   34.9069   44.9651 H   0  0  0  0  0  0  0  0  0  0  0  0
  1 15  1  0
  2  1  2  0
  3  2  1  0
  4  3  2  0
  4  5  1  0
  5  6  2  0
  6  1  1  0
  7  5  1  0
  7  8  1  0
  9  8  2  0
 10  9  1  0
 11 10  2  0
 12 13  1  0
 12 10  1  0
 13  7  1  0
 14 13  2  0
 15 20  1  0
 16 17  1  0
 16 15  1  0
 17 18  1  0
 18 19  1  0
 20 19  1  0
  2 21  1  0
  3 22  1  0
  8 23  1  0
  9 24  1  0
 12 25  1  0
 15 26  1  0
 16 27  1  0
 16 28  1  0
 17 29  1  0
 17 30  1  0
 18 31  1  0
 18 32  1  0
 19 33  1  0
 19 34  1  0
 20 35  1  0
 20 36  1  0
M  ISO  8  21  14  22  14  23  14  24  14  25   9  26  13  27  13  28  13
M  ISO  8  29  13  30  13  31  13  32  13  33  13  34  13  35  13  36  13
M  END
>  <minimizedAffinity>  (1) 
-4.86665392

>  <minimizedRMSD>  (1) 
2.41325378

$$$$
