
     RDKit          3D

 40 42  0  0  0  0  0  0  0  0999 V2000
   47.9480   30.1500   45.3570 C   0  0  0  0  0  0  0  0  0  0  0  0
   48.1130   30.5720   44.0700 C   0  0  0  0  0  0  0  0  0  0  0  0
   47.3360   31.5030   43.4570 C   0  0  0  0  0  0  0  0  0  0  0  0
   46.3260   32.0500   44.1650 C   0  0  0  0  0  0  0  0  0  0  0  0
   46.1140   31.6480   45.4970 C   0  0  0  0  0  0  0  0  0  0  0  0
   46.9270   30.7030   46.0790 C   0  0  0  0  0  0  0  0  0  0  0  0
   45.5280   33.0340   43.4610 N   0  0  0  0  0  0  0  0  0  0  0  0
   46.0380   34.2870   43.5870 C   0  0  0  0  0  0  0  0  0  0  0  0
   45.3870   35.3350   42.9710 C   0  0  0  0  0  0  0  0  0  0  0  0
   44.2300   35.0670   42.2430 C   0  0  0  0  0  0  0  0  0  0  0  0
   43.6130   35.9900   41.6720 O   0  0  0  0  0  0  0  0  0  0  0  0
   43.7820   33.7800   42.1650 N   0  0  0  0  0  0  0  0  0  0  0  0
   44.4200   32.7670   42.7670 C   0  0  0  0  0  0  0  0  0  0  0  0
   44.0390   31.5690   42.7190 O   0  0  0  0  0  0  0  0  0  0  0  0
   47.0950   31.3630   48.4020 C   0  0  0  0  0  0  0  0  0  0  0  0
   48.0570   32.2090   48.4930 O   0  0  0  0  0  0  0  0  0  0  0  0
   46.4380   30.5540   47.4170 N   0  0  0  0  0  0  0  0  0  0  0  0
   48.7000   29.1410   46.1130 C   0  0  0  0  0  0  0  0  0  0  0  0
   49.6400   28.3640   45.1990 C   0  0  0  0  0  0  0  0  0  0  0  0
   52.8800   29.8430   44.3350 C   0  0  0  0  0  0  0  0  0  0  0  0
   53.4760   30.0610   45.5950 C   0  0  0  0  0  0  0  0  0  0  0  0
   52.7140   29.6830   46.7120 C   0  0  0  0  0  0  0  0  0  0  0  0
   51.4930   29.1480   46.5490 N   0  0  0  0  0  0  0  0  0  0  0  0
   50.9820   28.9660   45.3080 C   0  0  0  0  0  0  0  0  0  0  0  0
   51.6430   29.2980   44.2250 N   0  0  0  0  0  0  0  0  0  0  0  0
   48.9331   30.1270   43.4874 H   0  0  0  0  0  0  0  0  0  0  0  0
   47.5246   31.8017   42.4153 H   0  0  0  0  0  0  0  0  0  0  0  0
   45.2920   32.0928   46.0771 H   0  0  0  0  0  0  0  0  0  0  0  0
   46.9541   34.4624   44.1701 H   0  0  0  0  0  0  0  0  0  0  0  0
   45.7734   36.3616   43.0528 H   0  0  0  0  0  0  0  0  0  0  0  0
   42.9267   33.5813   41.6265 H   0  0  0  0  0  0  0  0  0  0  0  0
   46.6298   31.2118   49.3872 H   0  0  0  0  0  0  0  0  0  0  0  0
   45.6690   29.9114   47.6548 H   0  0  0  0  0  0  0  0  0  0  0  0
   49.2903   29.6425   46.8940 H   0  0  0  0  0  0  0  0  0  0  0  0
   47.9861   28.4358   46.5635 H   0  0  0  0  0  0  0  0  0  0  0  0
   49.2861   28.4265   44.1594 H   0  0  0  0  0  0  0  0  0  0  0  0
   49.6711   27.3048   45.4940 H   0  0  0  0  0  0  0  0  0  0  0  0
   53.4296   30.1206   43.4235 H   0  0  0  0  0  0  0  0  0  0  0  0
   54.4789   30.5013   45.6963 H   0  0  0  0  0  0  0  0  0  0  0  0
   53.1187   29.8256   47.7248 H   0  0  0  0  0  0  0  0  0  0  0  0
  1  6  1  0
  1 18  1  0
  2  1  2  0
  3  2  1  0
  3  4  2  0
  4  5  1  0
  5  6  2  0
  6 17  1  0
  7  8  1  0
  7  4  1  0
  9  8  2  0
 10  9  1  0
 11 10  2  0
 12 10  1  0
 12 13  1  0
 13  7  1  0
 14 13  2  0
 15 16  2  0
 17 15  1  0
 19 24  1  0
 19 18  1  0
 20 21  2  0
 21 22  1  0
 23 22  2  0
 24 23  1  0
 25 20  1  0
 25 24  2  0
  2 26  1  0
  3 27  1  0
  5 28  1  0
  8 29  1  0
  9 30  1  0
 12 31  1  0
 15 32  1  0
 17 33  1  0
 18 34  1  0
 18 35  1  0
 19 36  1  0
 19 37  1  0
 20 38  1  0
 21 39  1  0
 22 40  1  0
M  ISO  8  26  14  27  14  28  14  29  14  30  14  31   9  32   6  34   8
M  ISO  6  35   8  36   8  37   8  38  14  39  14  40  14
M  END
>  <minimizedAffinity>  (1) 
-4.22070789

>  <minimizedRMSD>  (1) 
7.92412329

$$$$
