
     RDKit          3D

 47 50  0  0  1  0  0  0  0  0999 V2000
   47.8390   32.8230   41.6080 C   0  0  1  0  0  0  0  0  0  0  0  0
   47.4320   32.1000   40.4040 C   0  0  0  0  0  0  0  0  0  0  0  0
   48.4220   32.5060   39.3160 C   0  0  0  0  0  0  0  0  0  0  0  0
   48.1390   33.9610   38.9840 C   0  0  0  0  0  0  0  0  0  0  0  0
   48.1600   34.8800   40.1690 C   0  0  0  0  0  0  0  0  0  0  0  0
   47.6970   34.3420   41.4550 C   0  0  1  0  0  0  0  0  0  0  0  0
   45.5230   31.0700   44.0270 C   0  0  0  0  0  0  0  0  0  0  0  0
   46.1650   31.5140   42.8640 C   0  0  0  0  0  0  0  0  0  0  0  0
   47.2370   32.4080   42.8570 C   0  0  0  0  0  0  0  0  0  0  0  0
   47.6320   32.8350   44.0570 N   0  0  0  0  0  0  0  0  0  0  0  0
   47.0190   32.4140   45.1950 C   0  0  0  0  0  0  0  0  0  0  0  0
   45.9940   31.5560   45.1960 N   0  0  0  0  0  0  0  0  0  0  0  0
   46.3470   34.7930   41.7960 C   0  0  0  0  0  0  0  0  0  0  0  0
   46.0070   35.6310   42.8670 C   0  0  0  0  0  0  0  0  0  0  0  0
   44.6510   35.9430   42.9910 C   0  0  0  0  0  0  0  0  0  0  0  0
   43.7750   35.4120   42.0720 C   0  0  0  0  0  0  0  0  0  0  0  0
   44.1300   34.5900   41.0260 C   0  0  0  0  0  0  0  0  0  0  0  0
   45.4530   34.2860   40.9050 N   0  0  0  0  0  0  0  0  0  0  0  0
   43.1310   34.0720   40.0890 C   0  0  0  0  0  0  0  0  0  0  0  0
   43.4200   34.0700   38.8600 O   0  0  0  0  0  0  0  0  0  0  0  0
   39.4490   33.7020   40.0340 N   0  0  0  0  0  0  0  0  0  0  0  0
   40.6960   34.1750   39.7970 C   0  0  0  0  0  0  0  0  0  0  0  0
   41.8000   33.5370   40.3660 C   0  0  0  0  0  0  0  0  0  0  0  0
   41.5670   32.4400   41.1570 C   0  0  0  0  0  0  0  0  0  0  0  0
   42.6180   31.9330   41.6250 O   0  0  0  0  0  0  0  0  0  0  0  0
   40.3340   31.9620   41.3980 N   0  0  0  0  0  0  0  0  0  0  0  0
   39.2760   32.6080   40.8270 C   0  0  0  0  0  0  0  0  0  0  0  0
   38.1180   32.1650   41.0510 O   0  0  0  0  0  0  0  0  0  0  0  0
   48.8991   32.5408   41.6891 H   0  0  0  0  0  0  0  0  0  0  0  0
   47.4770   31.0145   40.5762 H   0  0  0  0  0  0  0  0  0  0  0  0
   46.3975   32.3418   40.1187 H   0  0  0  0  0  0  0  0  0  0  0  0
   49.4533   32.3951   39.6822 H   0  0  0  0  0  0  0  0  0  0  0  0
   48.3117   31.8699   38.4254 H   0  0  0  0  0  0  0  0  0  0  0  0
   48.8996   34.3051   38.2677 H   0  0  0  0  0  0  0  0  0  0  0  0
   47.1186   33.9979   38.5749 H   0  0  0  0  0  0  0  0  0  0  0  0
   49.1985   35.2151   40.3072 H   0  0  0  0  0  0  0  0  0  0  0  0
   47.4379   35.6719   39.9212 H   0  0  0  0  0  0  0  0  0  0  0  0
   48.3940   34.7705   42.1902 H   0  0  0  0  0  0  0  0  0  0  0  0
   44.6806   30.3636   43.9904 H   0  0  0  0  0  0  0  0  0  0  0  0
   45.8023   31.1351   41.8971 H   0  0  0  0  0  0  0  0  0  0  0  0
   47.3833   32.7971   46.1596 H   0  0  0  0  0  0  0  0  0  0  0  0
   46.7617   36.0191   43.5669 H   0  0  0  0  0  0  0  0  0  0  0  0
   44.2932   36.5954   43.8012 H   0  0  0  0  0  0  0  0  0  0  0  0
   42.7097   35.6635   42.1815 H   0  0  0  0  0  0  0  0  0  0  0  0
   38.6323   34.1692   39.6149 H   0  0  0  0  0  0  0  0  0  0  0  0
   40.8385   35.0591   39.1582 H   0  0  0  0  0  0  0  0  0  0  0  0
   40.1922   31.1345   41.9946 H   0  0  0  0  0  0  0  0  0  0  0  0
  1  9  1  0
  2  1  1  0
  3  2  1  0
  4  3  1  0
  4  5  1  0
  5  6  1  0
  6  1  1  0
  6 13  1  0
  7 12  2  0
  8  7  1  0
  9  8  2  0
  9 10  1  0
 10 11  2  0
 11 12  1  0
 13 14  2  0
 14 15  1  0
 16 15  2  0
 17 16  1  0
 18 17  2  0
 18 13  1  0
 19 23  1  0
 19 17  1  0
 20 19  2  0
 21 27  1  0
 22 21  1  0
 22 23  2  0
 23 24  1  0
 24 26  1  0
 24 25  2  0
 27 28  2  0
 27 26  1  0
  1 29  1  1
  2 30  1  0
  2 31  1  0
  3 32  1  0
  3 33  1  0
  4 34  1  0
  4 35  1  0
  5 36  1  0
  5 37  1  0
  6 38  1  1
  7 39  1  0
  8 40  1  0
 11 41  1  0
 14 42  1  0
 15 43  1  0
 16 44  1  0
 21 45  1  0
 22 46  1  0
 26 47  1  0
M  ISO  8  29  13  30  13  31  13  32  13  33  13  34  13  35  13  36  13
M  ISO  8  37  13  38  13  39  14  40  14  41  14  42  14  43  14  44  14
M  ISO  3  45   9  46  14  47   9
M  END
>  <minimizedAffinity>  (1) 
-6.09154701

>  <minimizedRMSD>  (1) 
2.32785392

$$$$
