
     RDKit          3D

 40 44  0  0  0  0  0  0  0  0999 V2000
   47.2050   31.3340   45.1930 C   0  0  0  0  0  0  0  0  0  0  0  0
   46.8330   32.6750   45.1930 C   0  0  0  0  0  0  0  0  0  0  0  0
   46.2250   33.2750   46.2760 C   0  0  0  0  0  0  0  0  0  0  0  0
   45.9590   32.5390   47.4290 C   0  0  0  0  0  0  0  0  0  0  0  0
   45.3920   32.7970   48.6390 N   0  0  0  0  0  0  0  0  0  0  0  0
   45.4140   31.6430   49.3660 C   0  0  0  0  0  0  0  0  0  0  0  0
   45.9920   30.7000   48.5910 N   0  0  0  0  0  0  0  0  0  0  0  0
   46.3330   31.2170   47.4060 C   0  0  0  0  0  0  0  0  0  0  0  0
   46.9350   30.5900   46.3570 C   0  0  0  0  0  0  0  0  0  0  0  0
   46.4440   35.1750   42.5210 C   0  0  0  0  0  0  0  0  0  0  0  0
   47.6040   34.9810   41.7680 C   0  0  0  0  0  0  0  0  0  0  0  0
   48.5150   33.9990   42.1730 C   0  0  0  0  0  0  0  0  0  0  0  0
   48.2220   33.2660   43.3020 N   0  0  0  0  0  0  0  0  0  0  0  0
   47.0970   33.4780   44.0040 C   0  0  0  0  0  0  0  0  0  0  0  0
   46.2010   34.4240   43.6290 N   0  0  0  0  0  0  0  0  0  0  0  0
   47.3000   29.1680   46.4260 C   0  0  0  0  0  0  0  0  0  0  0  0
   48.5920   28.6930   46.5090 C   0  0  0  0  0  0  0  0  0  0  0  0
   48.4400   27.3110   46.5500 C   0  0  0  0  0  0  0  0  0  0  0  0
   47.0950   27.0210   46.4910 C   0  0  0  0  0  0  0  0  0  0  0  0
   46.4610   28.1740   46.4180 O   0  0  0  0  0  0  0  0  0  0  0  0
   46.4510   25.7530   46.5020 N   0  0  0  0  0  0  0  0  0  0  0  0
   46.2920   25.0590   45.3620 C   0  0  0  0  0  0  0  0  0  0  0  0
   45.6720   23.8160   45.3050 C   0  0  0  0  0  0  0  0  0  0  0  0
   45.1960   23.2680   46.4840 C   0  0  0  0  0  0  0  0  0  0  0  0
   44.6310   22.1420   46.4600 O   0  0  0  0  0  0  0  0  0  0  0  0
   45.3590   23.9740   47.6410 N   0  0  0  0  0  0  0  0  0  0  0  0
   45.9710   25.1720   47.6090 C   0  0  0  0  0  0  0  0  0  0  0  0
   46.0790   25.7490   48.7040 O   0  0  0  0  0  0  0  0  0  0  0  0
   47.6901   30.8743   44.3193 H   0  0  0  0  0  0  0  0  0  0  0  0
   45.9490   34.3388   46.2293 H   0  0  0  0  0  0  0  0  0  0  0  0
   45.0135   33.7028   48.9505 H   0  0  0  0  0  0  0  0  0  0  0  0
   45.0333   31.5064   50.3890 H   0  0  0  0  0  0  0  0  0  0  0  0
   45.7189   35.9434   42.2149 H   0  0  0  0  0  0  0  0  0  0  0  0
   47.7982   35.5894   40.8723 H   0  0  0  0  0  0  0  0  0  0  0  0
   49.4396   33.8174   41.6055 H   0  0  0  0  0  0  0  0  0  0  0  0
   49.5264   29.2728   46.5364 H   0  0  0  0  0  0  0  0  0  0  0  0
   49.2550   26.5753   46.6179 H   0  0  0  0  0  0  0  0  0  0  0  0
   46.6716   25.4966   44.4269 H   0  0  0  0  0  0  0  0  0  0  0  0
   45.5626   23.2824   44.3493 H   0  0  0  0  0  0  0  0  0  0  0  0
   45.0154   23.5918   48.5336 H   0  0  0  0  0  0  0  0  0  0  0  0
  1  9  2  0
  2  1  1  0
  2  3  2  0
  3  4  1  0
  4  5  1  0
  5  6  1  0
  7  6  2  0
  8  4  2  0
  8  7  1  0
  9 16  1  0
  9  8  1  0
 10 15  2  0
 11 12  2  0
 11 10  1  0
 12 13  1  0
 13 14  2  0
 14  2  1  0
 15 14  1  0
 16 17  2  0
 17 18  1  0
 19 21  1  0
 19 18  2  0
 20 16  1  0
 20 19  1  0
 21 27  1  0
 22 21  1  0
 23 22  2  0
 23 24  1  0
 24 26  1  0
 25 24  2  0
 27 26  1  0
 27 28  2  0
  1 29  1  0
  3 30  1  0
  5 31  1  0
  6 32  1  0
 10 33  1  0
 11 34  1  0
 12 35  1  0
 17 36  1  0
 18 37  1  0
 22 38  1  0
 23 39  1  0
 26 40  1  0
M  ISO  8  29  14  30  14  31   9  32  14  33  14  34  14  35  14  36  14
M  ISO  4  37  14  38  14  39  14  40   9
M  END
>  <minimizedAffinity>  (1) 
-5.74681139

>  <minimizedRMSD>  (1) 
0.343167931

$$$$
