
     RDKit          3D

 46 49  0  0  1  0  0  0  0  0999 V2000
   49.4120   31.8770   41.7210 C   0  0  0  0  0  0  0  0  0  0  0  0
   50.7820   32.0080   42.0650 C   0  0  0  0  0  0  0  0  0  0  0  0
   51.7770   31.8710   41.0840 C   0  0  0  0  0  0  0  0  0  0  0  0
   51.3330   31.6130   39.8320 N   0  0  0  0  0  0  0  0  0  0  0  0
   50.0200   31.4920   39.5270 C   0  0  0  0  0  0  0  0  0  0  0  0
   49.0780   31.6200   40.4480 N   0  0  0  0  0  0  0  0  0  0  0  0
   49.5870   31.2190   38.1120 C   0  0  2  0  0  0  0  0  0  0  0  0
   50.4880   31.3770   36.9780 C   0  0  0  0  0  0  0  0  0  0  0  0
   49.4280   32.4110   37.1650 C   0  0  1  0  0  0  0  0  0  0  0  0
   48.2670   32.3080   36.3060 N   0  0  0  0  0  0  0  0  0  0  0  0
   48.3550   31.5670   35.1900 C   0  0  0  0  0  0  0  0  0  0  0  0
   47.2020   31.5110   34.4130 C   0  0  0  0  0  0  0  0  0  0  0  0
   46.0520   32.1940   34.7970 C   0  0  0  0  0  0  0  0  0  0  0  0
   44.9900   32.1640   34.1140 O   0  0  0  0  0  0  0  0  0  0  0  0
   46.0290   32.9260   35.9360 N   0  0  0  0  0  0  0  0  0  0  0  0
   47.1510   32.9700   36.6790 C   0  0  0  0  0  0  0  0  0  0  0  0
   47.1600   33.6460   37.7470 O   0  0  0  0  0  0  0  0  0  0  0  0
   48.4370   32.0400   42.7930 C   0  0  0  0  0  0  0  0  0  0  0  0
   48.0910   33.2740   43.1350 C   0  0  0  0  0  0  0  0  0  0  0  0
   47.1160   33.5620   44.2020 C   0  0  0  0  0  0  0  0  0  0  0  0
   44.8020   36.1930   43.3460 C   0  0  1  0  0  0  0  0  0  0  0  0
   46.0140   35.3810   42.8740 C   0  0  0  0  0  0  0  0  0  0  0  0
   45.8130   34.1280   43.6450 C   0  0  2  0  0  0  0  0  0  0  0  0
   44.8940   34.3550   44.6360 O   0  0  0  0  0  0  0  0  0  0  0  0
   44.6700   35.6950   44.7650 C   0  0  0  0  0  0  0  0  0  0  0  0
   45.0770   37.5460   43.2760 O   0  0  0  0  0  0  0  0  0  0  0  0
   51.0665   32.2182   43.1066 H   0  0  0  0  0  0  0  0  0  0  0  0
   52.8476   31.9671   41.3178 H   0  0  0  0  0  0  0  0  0  0  0  0
   48.9620   30.3866   38.4677 H   0  0  0  0  0  0  0  0  0  0  0  0
   50.4218   30.6787   36.1306 H   0  0  0  0  0  0  0  0  0  0  0  0
   51.5823   31.4168   36.8730 H   0  0  0  0  0  0  0  0  0  0  0  0
   49.4193   33.5087   37.2361 H   0  0  0  0  0  0  0  0  0  0  0  0
   49.2779   31.0388   34.9083 H   0  0  0  0  0  0  0  0  0  0  0  0
   47.1996   30.9203   33.4850 H   0  0  0  0  0  0  0  0  0  0  0  0
   45.1802   33.4330   36.2248 H   0  0  0  0  0  0  0  0  0  0  0  0
   48.0022   31.1672   43.3020 H   0  0  0  0  0  0  0  0  0  0  0  0
   48.5511   34.1177   42.5998 H   0  0  0  0  0  0  0  0  0  0  0  0
   46.8961   32.6302   44.7437 H   0  0  0  0  0  0  0  0  0  0  0  0
   47.5562   34.3156   44.8715 H   0  0  0  0  0  0  0  0  0  0  0  0
   43.8831   36.0715   42.7536 H   0  0  0  0  0  0  0  0  0  0  0  0
   45.9849   35.2002   41.7894 H   0  0  0  0  0  0  0  0  0  0  0  0
   46.9861   35.8696   43.0363 H   0  0  0  0  0  0  0  0  0  0  0  0
   45.4289   33.3584   42.9593 H   0  0  0  0  0  0  0  0  0  0  0  0
   45.4206   36.1611   45.4202 H   0  0  0  0  0  0  0  0  0  0  0  0
   43.6979   35.9326   45.2218 H   0  0  0  0  0  0  0  0  0  0  0  0
   45.1521   37.9153   44.1915 H   0  0  0  0  0  0  0  0  0  0  0  0
  1  2  2  0
  1 18  1  0
  3  2  1  0
  4  3  2  0
  5  4  1  0
  5  6  2  0
  6  1  1  0
  7  5  1  0
  8  9  1  0
  8  7  1  0
  9  7  1  0
 10 16  1  0
 10  9  1  0
 11 10  1  0
 12 13  1  0
 12 11  2  0
 13 15  1  0
 14 13  2  0
 15 16  1  0
 16 17  2  0
 18 19  2  0
 19 20  1  0
 21 25  1  0
 22 21  1  0
 22 23  1  0
 23 20  1  0
 23 24  1  0
 24 25  1  0
 26 21  1  0
  2 27  1  0
  3 28  1  0
  7 29  1  1
  8 30  1  0
  8 31  1  0
  9 32  1  1
 11 33  1  0
 12 34  1  0
 15 35  1  0
 18 36  1  0
 19 37  1  0
 20 38  1  0
 20 39  1  0
 21 40  1  6
 22 41  1  0
 22 42  1  0
 23 43  1  6
 25 44  1  0
 25 45  1  0
 26 46  1  0
M  ISO  8  27  14  28  14  29  13  30  13  31  13  32  13  33  14  34  14
M  ISO  8  35   9  38   8  39   8  40  13  41  13  42  13  43  13  44  13
M  ISO  2  45  13  46   3
M  END
>  <minimizedAffinity>  (1) 
-5.62794256

>  <minimizedRMSD>  (1) 
0.709978342

$$$$
