
     RDKit          3D

 27 29  0  0  1  0  0  0  0  0999 V2000
   44.4200   34.8850   43.8680 C   0  0  1  0  0  0  0  0  0  0  0  0
   45.1430   36.2500   43.8020 C   0  0  0  0  0  0  0  0  0  0  0  0
   44.7550   35.4880   42.5990 C   0  0  1  0  0  0  0  0  0  0  0  0
   45.8450   35.0250   41.7680 N   0  0  0  0  0  0  0  0  0  0  0  0
   47.1710   35.1930   41.9160 C   0  0  0  0  0  0  0  0  0  0  0  0
   48.0900   34.6850   41.0310 C   0  0  0  0  0  0  0  0  0  0  0  0
   47.7100   33.9680   39.9340 C   0  0  0  0  0  0  0  0  0  0  0  0
   48.5960   33.5390   39.1770 O   0  0  0  0  0  0  0  0  0  0  0  0
   46.3940   33.7890   39.7680 N   0  0  0  0  0  0  0  0  0  0  0  0
   45.5310   34.3040   40.6600 C   0  0  0  0  0  0  0  0  0  0  0  0
   44.2960   34.0780   40.4130 O   0  0  0  0  0  0  0  0  0  0  0  0
   45.2230   33.8260   44.5140 C   0  0  0  0  0  0  0  0  0  0  0  0
   45.3620   32.5830   43.8240 C   0  0  0  0  0  0  0  0  0  0  0  0
   46.1240   31.5750   44.4110 C   0  0  0  0  0  0  0  0  0  0  0  0
   46.6980   31.8490   45.6270 N   0  0  0  0  0  0  0  0  0  0  0  0
   46.5420   33.0410   46.2480 C   0  0  0  0  0  0  0  0  0  0  0  0
   45.8060   34.0260   45.6920 N   0  0  0  0  0  0  0  0  0  0  0  0
   43.4810   34.4440   44.2337 H   0  0  0  0  0  0  0  0  0  0  0  0
   44.6132   37.1757   44.0712 H   0  0  0  0  0  0  0  0  0  0  0  0
   46.0723   36.6775   44.2065 H   0  0  0  0  0  0  0  0  0  0  0  0
   44.1318   35.6638   41.7098 H   0  0  0  0  0  0  0  0  0  0  0  0
   47.5354   35.7622   42.7839 H   0  0  0  0  0  0  0  0  0  0  0  0
   49.1608   34.8607   41.2112 H   0  0  0  0  0  0  0  0  0  0  0  0
   46.0435   33.2576   38.9582 H   0  0  0  0  0  0  0  0  0  0  0  0
   44.8774   32.4249   42.8492 H   0  0  0  0  0  0  0  0  0  0  0  0
   46.2599   30.6000   43.9201 H   0  0  0  0  0  0  0  0  0  0  0  0
   47.0233   33.2100   47.2226 H   0  0  0  0  0  0  0  0  0  0  0  0
  1 12  1  0
  2  1  1  0
  3  2  1  0
  3  1  1  0
  4  5  1  0
  4  3  1  0
  6  5  2  0
  7  6  1  0
  8  7  2  0
  9  7  1  0
  9 10  1  0
 10  4  1  0
 11 10  2  0
 12 17  2  0
 13 14  2  0
 13 12  1  0
 14 15  1  0
 15 16  2  0
 17 16  1  0
  1 18  1  6
  2 19  1  0
  2 20  1  0
  3 21  1  6
  5 22  1  0
  6 23  1  0
  9 24  1  0
 13 25  1  0
 14 26  1  0
 16 27  1  0
M  ISO  8  18  13  19  13  20  13  21  13  22  14  23  14  24   9  25  14
M  ISO  2  26  14  27  14
M  END
>  <minimizedAffinity>  (1) 
-4.37194061

>  <minimizedRMSD>  (1) 
2.01241469

$$$$
