
     RDKit          3D

 33 35  0  0  1  0  0  0  0  0999 V2000
   49.1360   34.7640   41.5470 C   0  0  1  0  0  0  0  0  0  0  0  0
   50.0490   34.3860   42.6690 C   0  0  0  0  0  0  0  0  0  0  0  0
   49.1780   33.3800   42.0340 C   0  0  2  0  0  0  0  0  0  0  0  0
   49.9050   32.5270   41.0680 N   0  0  0  0  0  0  0  0  0  0  0  0
   51.1920   32.3310   41.4310 C   0  0  0  0  0  0  0  0  0  0  0  0
   51.9970   31.5530   40.6240 C   0  0  0  0  0  0  0  0  0  0  0  0
   51.4390   31.0190   39.4890 C   0  0  0  0  0  0  0  0  0  0  0  0
   52.1990   30.3170   38.7790 O   0  0  0  0  0  0  0  0  0  0  0  0
   50.1410   31.2720   39.2110 N   0  0  0  0  0  0  0  0  0  0  0  0
   49.3440   32.0230   39.9800 C   0  0  0  0  0  0  0  0  0  0  0  0
   48.1550   32.2560   39.7270 O   0  0  0  0  0  0  0  0  0  0  0  0
   47.9370   35.5860   41.8990 C   0  0  0  0  0  0  0  0  0  0  0  0
   46.7700   34.6170   41.8940 C   0  0  0  0  0  0  0  0  0  0  0  0
   44.5360   36.0430   44.5560 C   0  0  0  0  0  0  0  0  0  0  0  0
   45.2000   35.8930   43.3030 C   0  0  0  0  0  0  0  0  0  0  0  0
   46.0050   34.7940   43.1580 C   0  0  0  0  0  0  0  0  0  0  0  0
   46.1350   33.9090   44.1880 N   0  0  0  0  0  0  0  0  0  0  0  0
   45.5080   34.0700   45.3410 C   0  0  0  0  0  0  0  0  0  0  0  0
   44.7150   35.1300   45.5230 N   0  0  0  0  0  0  0  0  0  0  0  0
   49.2570   35.2454   40.5654 H   0  0  0  0  0  0  0  0  0  0  0  0
   51.1368   34.3544   42.5089 H   0  0  0  0  0  0  0  0  0  0  0  0
   50.2136   34.7410   43.6970 H   0  0  0  0  0  0  0  0  0  0  0  0
   48.4475   32.6528   42.4181 H   0  0  0  0  0  0  0  0  0  0  0  0
   51.5900   32.7827   42.3516 H   0  0  0  0  0  0  0  0  0  0  0  0
   53.0501   31.3670   40.8815 H   0  0  0  0  0  0  0  0  0  0  0  0
   49.7408   30.8618   38.3551 H   0  0  0  0  0  0  0  0  0  0  0  0
   48.0584   36.0373   42.8948 H   0  0  0  0  0  0  0  0  0  0  0  0
   47.7853   36.4134   41.1902 H   0  0  0  0  0  0  0  0  0  0  0  0
   46.1179   34.8257   41.0331 H   0  0  0  0  0  0  0  0  0  0  0  0
   47.1383   33.5833   41.8175 H   0  0  0  0  0  0  0  0  0  0  0  0
   43.8774   36.9067   44.7298 H   0  0  0  0  0  0  0  0  0  0  0  0
   45.0720   36.6247   42.4917 H   0  0  0  0  0  0  0  0  0  0  0  0
   45.6388   33.3337   46.1477 H   0  0  0  0  0  0  0  0  0  0  0  0
  1 12  1  0
  1  3  1  0
  1  2  1  0
  3  2  1  0
  4  5  1  0
  4  3  1  0
  6  5  2  0
  7  6  1  0
  8  7  2  0
  9  7  1  0
  9 10  1  0
 10  4  1  0
 11 10  2  0
 13 12  1  0
 13 16  1  0
 14 19  2  0
 15 14  1  0
 16 15  2  0
 16 17  1  0
 17 18  2  0
 18 19  1  0
  1 20  1  6
  2 21  1  0
  2 22  1  0
  3 23  1  1
  5 24  1  0
  6 25  1  0
  9 26  1  0
 12 27  1  0
 12 28  1  0
 13 29  1  0
 13 30  1  0
 14 31  1  0
 15 32  1  0
 18 33  1  0
M  ISO  8  20  13  21  13  22  13  23  13  24  14  25  14  26   9  27   8
M  ISO  6  28   8  29   8  30   8  31  14  32  14  33  14
M  END
>  <minimizedAffinity>  (1) 
-5.00458717

>  <minimizedRMSD>  (1) 
1.4351114

$$$$
