
     RDKit          3D

 38 41  0  0  1  0  0  0  0  0999 V2000
   48.1170   33.4910   43.5050 N   0  0  0  0  0  0  0  0  0  0  0  0
   49.2150   33.4770   42.6610 C   0  0  0  0  0  0  0  0  0  0  0  0
   50.4000   33.0970   42.8730 O   0  0  0  0  0  0  0  0  0  0  0  0
   46.3470   32.3770   44.8370 C   0  0  1  0  0  0  0  0  0  0  0  0
   46.6500   31.4920   43.7780 C   0  0  0  0  0  0  0  0  0  0  0  0
   47.7600   32.3930   44.3500 C   0  0  1  0  0  0  0  0  0  0  0  0
   44.9960   33.8880   43.2400 C   0  0  0  0  0  0  0  0  0  0  0  0
   45.5060   33.6170   44.5310 C   0  0  0  0  0  0  0  0  0  0  0  0
   45.2410   34.5240   45.5230 C   0  0  0  0  0  0  0  0  0  0  0  0
   44.5120   35.6280   45.2400 N   0  0  0  0  0  0  0  0  0  0  0  0
   44.0270   35.8790   43.9970 C   0  0  0  0  0  0  0  0  0  0  0  0
   44.2800   34.9740   42.9630 N   0  0  0  0  0  0  0  0  0  0  0  0
   49.0740   33.9670   41.2310 C   0  0  2  0  0  0  0  0  0  0  0  0
   48.7530   35.4750   41.0240 C   0  0  0  0  0  0  0  0  0  0  0  0
   47.7820   34.3900   40.6920 C   0  0  1  0  0  0  0  0  0  0  0  0
   47.5640   33.9810   39.3140 N   0  0  0  0  0  0  0  0  0  0  0  0
   48.3460   34.4420   38.3510 C   0  0  0  0  0  0  0  0  0  0  0  0
   48.0720   34.0070   37.0790 C   0  0  0  0  0  0  0  0  0  0  0  0
   47.0290   33.1310   36.8430 C   0  0  0  0  0  0  0  0  0  0  0  0
   46.7440   32.7060   35.6840 O   0  0  0  0  0  0  0  0  0  0  0  0
   46.2720   32.6960   37.8450 N   0  0  0  0  0  0  0  0  0  0  0  0
   46.5270   33.1180   39.1180 C   0  0  0  0  0  0  0  0  0  0  0  0
   45.8090   32.7070   40.0770 O   0  0  0  0  0  0  0  0  0  0  0  0
   47.5272   34.3351   43.5254 H   0  0  0  0  0  0  0  0  0  0  0  0
   45.8769   32.2265   45.8201 H   0  0  0  0  0  0  0  0  0  0  0  0
   46.2515   31.6852   42.7711 H   0  0  0  0  0  0  0  0  0  0  0  0
   46.5375   30.4096   43.6176 H   0  0  0  0  0  0  0  0  0  0  0  0
   48.7574   32.2722   44.7979 H   0  0  0  0  0  0  0  0  0  0  0  0
   45.2000   33.1707   42.4314 H   0  0  0  0  0  0  0  0  0  0  0  0
   45.6183   34.3558   46.5425 H   0  0  0  0  0  0  0  0  0  0  0  0
   43.4389   36.7886   43.8053 H   0  0  0  0  0  0  0  0  0  0  0  0
   49.8374   33.2504   40.8939 H   0  0  0  0  0  0  0  0  0  0  0  0
   48.5803   36.1320   41.8892 H   0  0  0  0  0  0  0  0  0  0  0  0
   49.2141   36.3182   40.4888 H   0  0  0  0  0  0  0  0  0  0  0  0
   46.7232   34.2707   40.9651 H   0  0  0  0  0  0  0  0  0  0  0  0
   49.1723   35.1375   38.5595 H   0  0  0  0  0  0  0  0  0  0  0  0
   48.6884   34.3588   36.2386 H   0  0  0  0  0  0  0  0  0  0  0  0
   45.4964   32.0434   37.6619 H   0  0  0  0  0  0  0  0  0  0  0  0
  1  6  1  0
  2  3  2  0
  2  1  1  0
  5  6  1  0
  5  4  1  0
  6  4  1  0
  7  8  2  0
  8  4  1  0
  8  9  1  0
 10  9  2  0
 11 10  1  0
 12  7  1  0
 12 11  2  0
 13  2  1  0
 14 13  1  0
 15 14  1  0
 15 13  1  0
 16 15  1  0
 17 16  1  0
 18 17  2  0
 19 18  1  0
 19 21  1  0
 20 19  2  0
 21 22  1  0
 22 16  1  0
 22 23  2  0
  1 24  1  0
  4 25  1  1
  5 26  1  0
  5 27  1  0
  6 28  1  1
  7 29  1  0
  9 30  1  0
 11 31  1  0
 13 32  1  6
 14 33  1  0
 14 34  1  0
 15 35  1  1
 17 36  1  0
 18 37  1  0
 21 38  1  0
M  ISO  8  25  13  26  13  27  13  28  13  29  14  30  14  31  14  32  13
M  ISO  6  33  13  34  13  35  13  36  14  37  14  38   9
M  END
>  <minimizedAffinity>  (1) 
-5.16776514

>  <minimizedRMSD>  (1) 
1.13334167

$$$$
