
     RDKit          3D

 32 33  0  0  0  0  0  0  0  0999 V2000
   44.7270   35.1790   42.0090 O   0  0  0  0  0  0  0  0  0  0  0  0
   46.8350   34.2620   42.6110 C   0  0  0  0  0  0  0  0  0  0  0  0
   45.5200   34.5430   42.9650 C   0  0  0  0  0  0  0  0  0  0  0  0
   45.1010   34.1600   44.2660 C   0  0  0  0  0  0  0  0  0  0  0  0
   46.0080   33.5550   45.0540 N   0  0  0  0  0  0  0  0  0  0  0  0
   47.2660   33.3000   44.6780 C   0  0  0  0  0  0  0  0  0  0  0  0
   47.6640   33.6550   43.4660 N   0  0  0  0  0  0  0  0  0  0  0  0
   47.3340   34.6280   41.2870 C   0  0  0  0  0  0  0  0  0  0  0  0
   48.6100   35.4230   41.4420 C   0  0  0  0  0  0  0  0  0  0  0  0
   44.2070   33.7690   39.8670 O   0  0  0  0  0  0  0  0  0  0  0  0
   43.5380   34.4470   41.0590 P   0  0  1  0  0  0  0  0  0  0  0  0
   42.7660   33.2660   41.9950 O   0  0  0  0  0  0  0  0  0  0  0  0
   42.3620   35.5480   40.5310 O   0  0  0  0  0  0  0  0  0  0  0  0
   40.3510   34.7950   37.5480 N   0  0  0  0  0  0  0  0  0  0  0  0
   41.4400   35.2050   38.2430 C   0  0  0  0  0  0  0  0  0  0  0  0
   41.3970   35.1860   39.6030 C   0  0  0  0  0  0  0  0  0  0  0  0
   40.2370   34.7460   40.2350 C   0  0  0  0  0  0  0  0  0  0  0  0
   40.0550   34.6750   41.4820 O   0  0  0  0  0  0  0  0  0  0  0  0
   39.1730   34.3460   39.4840 N   0  0  0  0  0  0  0  0  0  0  0  0
   39.2350   34.3720   38.1290 C   0  0  0  0  0  0  0  0  0  0  0  0
   38.3190   34.0280   37.3630 O   0  0  0  0  0  0  0  0  0  0  0  0
   44.0756   34.3503   44.6159 H   0  0  0  0  0  0  0  0  0  0  0  0
   47.9623   32.8009   45.3680 H   0  0  0  0  0  0  0  0  0  0  0  0
   46.5814   35.2373   40.7652 H   0  0  0  0  0  0  0  0  0  0  0  0
   47.5328   33.7184   40.7013 H   0  0  0  0  0  0  0  0  0  0  0  0
   48.8293   35.5596   42.5112 H   0  0  0  0  0  0  0  0  0  0  0  0
   49.4396   34.8817   40.9638 H   0  0  0  0  0  0  0  0  0  0  0  0
   48.4898   36.4063   40.9638 H   0  0  0  0  0  0  0  0  0  0  0  0
   42.8979   33.4677   42.9552 H   0  0  0  0  0  0  0  0  0  0  0  0
   40.3914   34.8125   36.5189 H   0  0  0  0  0  0  0  0  0  0  0  0
   42.3432   35.5473   37.7167 H   0  0  0  0  0  0  0  0  0  0  0  0
   38.3135   34.0208   39.9493 H   0  0  0  0  0  0  0  0  0  0  0  0
  1  3  1  0
  2  3  2  0
  2  7  1  0
  3  4  1  0
  4  5  2  0
  6  5  1  0
  7  6  2  0
  8  9  1  0
  8  2  1  0
 11 10  2  0
 11 12  1  0
 11  1  1  0
 13 11  1  0
 14 20  1  0
 14 15  1  0
 15 16  2  0
 16 17  1  0
 16 13  1  0
 17 18  2  0
 19 17  1  0
 20 19  1  0
 21 20  2  0
  4 22  1  0
  6 23  1  0
  8 24  1  0
  8 25  1  0
  9 26  1  0
  9 27  1  0
  9 28  1  0
 12 29  1  0
 14 30  1  0
 15 31  1  0
 19 32  1  0
M  ISO  8  22  14  23  14  24   8  25   8  26   8  27   8  28   8  29   3
M  ISO  3  30   9  31  14  32   9
M  END
>  <minimizedAffinity>  (1) 
-5.37563133

>  <minimizedRMSD>  (1) 
2.01652718

$$$$
