
     RDKit          3D

 35 37  0  0  0  0  0  0  0  0999 V2000
   48.4870   33.0730   41.3960 C   0  0  0  0  0  0  0  0  0  0  0  0
   48.0550   34.3000   41.8310 C   0  0  0  0  0  0  0  0  0  0  0  0
   48.9430   35.1580   42.4510 C   0  0  0  0  0  0  0  0  0  0  0  0
   50.2560   34.7600   42.6220 C   0  0  0  0  0  0  0  0  0  0  0  0
   50.6690   33.5250   42.1780 C   0  0  0  0  0  0  0  0  0  0  0  0
   49.7780   32.6470   41.5480 C   0  0  0  0  0  0  0  0  0  0  0  0
   46.6200   34.5860   41.5760 C   0  0  0  0  0  0  0  0  0  0  0  0
   45.9250   34.8820   42.8760 C   0  0  0  0  0  0  0  0  0  0  0  0
   45.9640   33.8930   43.8670 C   0  0  0  0  0  0  0  0  0  0  0  0
   45.3320   34.1570   45.0720 C   0  0  0  0  0  0  0  0  0  0  0  0
   44.7130   35.3590   45.2190 N   0  0  0  0  0  0  0  0  0  0  0  0
   44.6950   36.2940   44.2410 C   0  0  0  0  0  0  0  0  0  0  0  0
   45.2960   36.0580   43.0760 N   0  0  0  0  0  0  0  0  0  0  0  0
   47.6860   32.1260   40.7590 O   0  0  0  0  0  0  0  0  0  0  0  0
   50.3120   31.4310   41.1410 O   0  0  0  0  0  0  0  0  0  0  0  0
   53.1210   29.7640   42.8500 N   0  0  0  0  0  0  0  0  0  0  0  0
   51.9030   30.2410   42.6480 C   0  0  0  0  0  0  0  0  0  0  0  0
   51.5000   30.8840   41.5190 C   0  0  0  0  0  0  0  0  0  0  0  0
   52.4690   31.0370   40.5170 C   0  0  0  0  0  0  0  0  0  0  0  0
   52.2870   31.6100   39.3920 O   0  0  0  0  0  0  0  0  0  0  0  0
   53.7340   30.5680   40.6710 N   0  0  0  0  0  0  0  0  0  0  0  0
   54.0060   29.9480   41.8370 C   0  0  0  0  0  0  0  0  0  0  0  0
   55.1920   29.5010   41.9940 O   0  0  0  0  0  0  0  0  0  0  0  0
   48.6096   36.1450   42.8040 H   0  0  0  0  0  0  0  0  0  0  0  0
   50.9730   35.4331   43.1148 H   0  0  0  0  0  0  0  0  0  0  0  0
   51.7168   33.2220   42.3202 H   0  0  0  0  0  0  0  0  0  0  0  0
   46.5333   35.4559   40.9084 H   0  0  0  0  0  0  0  0  0  0  0  0
   46.1518   33.7102   41.1031 H   0  0  0  0  0  0  0  0  0  0  0  0
   46.4799   32.9369   43.6944 H   0  0  0  0  0  0  0  0  0  0  0  0
   45.3311   33.4163   45.8853 H   0  0  0  0  0  0  0  0  0  0  0  0
   44.1821   37.2526   44.4087 H   0  0  0  0  0  0  0  0  0  0  0  0
   46.7295   32.3189   40.5914 H   0  0  0  0  0  0  0  0  0  0  0  0
   53.3815   29.2826   43.7225 H   0  0  0  0  0  0  0  0  0  0  0  0
   51.1632   30.1079   43.4511 H   0  0  0  0  0  0  0  0  0  0  0  0
   54.4474   30.6799   39.9365 H   0  0  0  0  0  0  0  0  0  0  0  0
  1  6  2  0
  1  2  1  0
  2  3  2  0
  3  4  1  0
  5  4  2  0
  6  5  1  0
  7  2  1  0
  7  8  1  0
  8 13  1  0
  8  9  2  0
  9 10  1  0
 10 11  2  0
 12 11  1  0
 13 12  2  0
 14  1  1  0
 15 18  1  0
 15  6  1  0
 17 16  1  0
 18 17  2  0
 19 21  1  0
 19 18  1  0
 20 19  2  0
 21 22  1  0
 22 23  2  0
 22 16  1  0
  3 24  1  0
  4 25  1  0
  5 26  1  0
  7 27  1  0
  7 28  1  0
  9 29  1  0
 10 30  1  0
 12 31  1  0
 14 32  1  0
 16 33  1  0
 17 34  1  0
 21 35  1  0
M  ISO  8  24  14  25  14  26  14  27   8  28   8  29  14  30  14  31  14
M  ISO  4  32   3  33   9  34  14  35   9
M  END
>  <minimizedAffinity>  (1) 
-5.42742109

>  <minimizedRMSD>  (1) 
3.11668205

$$$$
