
     RDKit          3D

 46 49  0  0  1  0  0  0  0  0999 V2000
   48.9210   32.2060   40.4540 C   0  0  2  0  0  0  0  0  0  0  0  0
   49.6210   31.4630   41.4910 C   0  0  0  0  0  0  0  0  0  0  0  0
   50.3040   31.7980   40.2020 C   0  0  1  0  0  0  0  0  0  0  0  0
   47.0940   34.8050   42.1520 C   0  0  2  0  0  0  0  0  0  0  0  0
   46.2870   34.4040   40.9140 C   0  0  0  0  0  0  0  0  0  0  0  0
   47.4770   34.2230   39.9450 C   0  0  0  0  0  0  0  0  0  0  0  0
   48.5710   33.6400   40.7830 C   0  0  1  0  0  0  0  0  0  0  0  0
   48.0630   33.6570   42.1950 C   0  0  0  0  0  0  0  0  0  0  0  0
   44.5250   35.7930   44.7230 C   0  0  0  0  0  0  0  0  0  0  0  0
   45.2530   35.8310   43.5390 C   0  0  0  0  0  0  0  0  0  0  0  0
   46.2290   34.8590   43.3630 C   0  0  0  0  0  0  0  0  0  0  0  0
   46.4520   33.8910   44.3520 N   0  0  0  0  0  0  0  0  0  0  0  0
   45.7090   33.9060   45.4910 C   0  0  0  0  0  0  0  0  0  0  0  0
   44.7510   34.8550   45.6680 N   0  0  0  0  0  0  0  0  0  0  0  0
   50.5080   30.7280   39.2920 O   0  0  0  0  0  0  0  0  0  0  0  0
   51.3350   30.3030   36.8560 O   0  0  0  0  0  0  0  0  0  0  0  0
   51.3520   31.3250   37.9660 P   0  0  1  0  0  0  0  0  0  0  0  0
   50.5820   32.7360   37.3670 O   0  0  0  0  0  0  0  0  0  0  0  0
   52.9270   31.7330   38.2870 O   0  0  0  0  0  0  0  0  0  0  0  0
   56.0260   29.9990   37.3200 N   0  0  0  0  0  0  0  0  0  0  0  0
   54.9820   30.8090   37.1740 C   0  0  0  0  0  0  0  0  0  0  0  0
   54.0630   30.9680   38.2020 C   0  0  0  0  0  0  0  0  0  0  0  0
   54.2860   30.2460   39.3780 C   0  0  0  0  0  0  0  0  0  0  0  0
   53.5910   30.2350   40.4330 O   0  0  0  0  0  0  0  0  0  0  0  0
   55.3700   29.4280   39.4830 N   0  0  0  0  0  0  0  0  0  0  0  0
   56.2240   29.3140   38.4550 C   0  0  0  0  0  0  0  0  0  0  0  0
   57.2480   28.5700   38.4920 O   0  0  0  0  0  0  0  0  0  0  0  0
   47.9981   32.0832   39.8683 H   0  0  0  0  0  0  0  0  0  0  0  0
   49.9223   31.9658   42.4218 H   0  0  0  0  0  0  0  0  0  0  0  0
   49.4277   30.5388   42.0554 H   0  0  0  0  0  0  0  0  0  0  0  0
   51.2316   32.3136   39.9127 H   0  0  0  0  0  0  0  0  0  0  0  0
   47.5601   35.8008   42.1185 H   0  0  0  0  0  0  0  0  0  0  0  0
   45.7248   33.4707   41.0652 H   0  0  0  0  0  0  0  0  0  0  0  0
   45.5025   35.1063   40.5957 H   0  0  0  0  0  0  0  0  0  0  0  0
   47.7854   35.1920   39.5256 H   0  0  0  0  0  0  0  0  0  0  0  0
   47.2213   33.5783   39.0912 H   0  0  0  0  0  0  0  0  0  0  0  0
   49.4800   34.2335   40.6059 H   0  0  0  0  0  0  0  0  0  0  0  0
   48.8759   33.8441   42.9121 H   0  0  0  0  0  0  0  0  0  0  0  0
   47.6171   32.7062   42.5223 H   0  0  0  0  0  0  0  0  0  0  0  0
   43.7434   36.5478   44.8947 H   0  0  0  0  0  0  0  0  0  0  0  0
   45.0638   36.5985   42.7741 H   0  0  0  0  0  0  0  0  0  0  0  0
   45.8831   33.1494   46.2703 H   0  0  0  0  0  0  0  0  0  0  0  0
   50.2777   33.2935   38.1264 H   0  0  0  0  0  0  0  0  0  0  0  0
   56.6965   29.8957   36.5450 H   0  0  0  0  0  0  0  0  0  0  0  0
   54.8453   31.3578   36.2306 H   0  0  0  0  0  0  0  0  0  0  0  0
   55.5337   28.8977   40.3507 H   0  0  0  0  0  0  0  0  0  0  0  0
  1  7  1  0
  1  2  1  0
  3  1  1  0
  3  2  1  0
  4  8  1  0
  4 11  1  0
  5  4  1  0
  6  7  1  0
  6  5  1  0
  7  8  1  0
  9 14  2  0
 10  9  1  0
 11 10  2  0
 11 12  1  0
 12 13  2  0
 13 14  1  0
 15  3  1  0
 17 16  2  0
 17 19  1  0
 17 15  1  0
 18 17  1  0
 20 26  1  0
 21 20  1  0
 21 22  2  0
 22 19  1  0
 22 23  1  0
 23 25  1  0
 23 24  2  0
 26 27  2  0
 26 25  1  0
  1 28  1  6
  2 29  1  0
  2 30  1  0
  3 31  1  1
  4 32  1  6
  5 33  1  0
  5 34  1  0
  6 35  1  0
  6 36  1  0
  7 37  1  1
  8 38  1  0
  8 39  1  0
  9 40  1  0
 10 41  1  0
 13 42  1  0
 18 43  1  0
 20 44  1  0
 21 45  1  0
 25 46  1  0
M  ISO  8  28  13  29  13  30  13  31  13  32  13  33  13  34  13  35  13
M  ISO  8  36  13  37  13  38  13  39  13  40  14  41  14  42  14  43   3
M  ISO  3  44   9  45  14  46   9
M  END
>  <minimizedAffinity>  (1) 
-5.48907518

>  <minimizedRMSD>  (1) 
1.95009601

$$$$
