
     RDKit          3D

 31 33  0  0  1  0  0  0  0  0999 V2000
   46.1980   33.0650   45.5060 C   0  0  0  0  0  0  0  0  0  0  0  0
   45.2360   34.0530   45.1940 C   0  0  0  0  0  0  0  0  0  0  0  0
   45.4260   34.9100   44.0890 C   0  0  0  0  0  0  0  0  0  0  0  0
   46.5660   34.7270   43.3690 N   0  0  0  0  0  0  0  0  0  0  0  0
   47.4660   33.7570   43.7160 C   0  0  0  0  0  0  0  0  0  0  0  0
   47.2880   32.9550   44.7460 N   0  0  0  0  0  0  0  0  0  0  0  0
   45.9350   32.2160   46.6650 C   0  0  1  0  0  0  0  0  0  0  0  0
   46.8610   32.5940   47.8790 C   0  0  1  0  0  0  0  0  0  0  0  0
   45.3500   32.6190   47.8850 C   0  0  0  0  0  0  0  0  0  0  0  0
   47.4490   31.3990   48.5910 C   0  0  0  0  0  0  0  0  0  0  0  0
   48.5760   31.6900   49.3020 F   0  0  0  0  0  0  0  0  0  0  0  0
   46.4880   30.8970   49.4900 F   0  0  0  0  0  0  0  0  0  0  0  0
   47.6730   30.3550   47.7030 F   0  0  0  0  0  0  0  0  0  0  0  0
   48.5780   33.6980   42.8880 O   0  0  0  0  0  0  0  0  0  0  0  0
   47.8280   33.0620   39.4600 N   0  0  0  0  0  0  0  0  0  0  0  0
   47.9860   32.9360   40.8090 C   0  0  0  0  0  0  0  0  0  0  0  0
   48.4860   34.0060   41.5400 C   0  0  0  0  0  0  0  0  0  0  0  0
   48.8250   35.1980   40.9170 C   0  0  0  0  0  0  0  0  0  0  0  0
   49.2560   36.0660   41.6840 O   0  0  0  0  0  0  0  0  0  0  0  0
   48.6410   35.2390   39.6000 N   0  0  0  0  0  0  0  0  0  0  0  0
   48.1660   34.2390   38.8660 C   0  0  0  0  0  0  0  0  0  0  0  0
   48.0560   34.4560   37.6160 O   0  0  0  0  0  0  0  0  0  0  0  0
   44.3344   34.1543   45.8160 H   0  0  0  0  0  0  0  0  0  0  0  0
   44.6915   35.6848   43.8238 H   0  0  0  0  0  0  0  0  0  0  0  0
   45.6635   31.3677   46.0195 H   0  0  0  0  0  0  0  0  0  0  0  0
   47.6861   33.2924   48.0829 H   0  0  0  0  0  0  0  0  0  0  0  0
   44.8305   33.5873   47.9358 H   0  0  0  0  0  0  0  0  0  0  0  0
   44.5977   32.1572   48.5414 H   0  0  0  0  0  0  0  0  0  0  0  0
   47.4592   32.2798   38.9005 H   0  0  0  0  0  0  0  0  0  0  0  0
   47.7198   31.9954   41.3134 H   0  0  0  0  0  0  0  0  0  0  0  0
   48.8855   36.1127   39.1124 H   0  0  0  0  0  0  0  0  0  0  0  0
  1  7  1  0
  2  1  2  0
  3  2  1  0
  4  5  1  0
  4  3  2  0
  5  6  2  0
  6  1  1  0
  7  8  1  0
  7  9  1  0
  8  9  1  0
  8 10  1  0
 10 11  1  0
 10 12  1  0
 13 10  1  0
 14  5  1  0
 15 16  1  0
 16 17  2  0
 17 14  1  0
 18 17  1  0
 18 19  2  0
 20 18  1  0
 21 15  1  0
 21 20  1  0
 22 21  2  0
  2 23  1  0
  3 24  1  0
  7 25  1  6
  8 26  1  6
  9 27  1  0
  9 28  1  0
 15 29  1  0
 16 30  1  0
 20 31  1  0
M  ISO  8  23  14  24  14  25  13  26  13  27  13  28  13  29   9  30  14
M  ISO  1  31   9
M  END
>  <minimizedAffinity>  (1) 
-5.94501638

>  <minimizedRMSD>  (1) 
8.09360886

$$$$
