
     RDKit          3D

 30 31  0  0  1  0  0  0  0  0999 V2000
   47.6800   34.2060   42.4390 N   0  0  0  0  0  0  0  0  0  0  0  0
   48.0770   34.6590   41.1210 C   0  0  0  0  0  0  0  0  0  0  0  0
   48.3410   33.3210   40.4960 C   0  0  2  0  0  0  0  0  0  0  0  0
   49.2420   32.6830   41.5310 C   0  0  0  0  0  0  0  0  0  0  0  0
   48.6180   33.1590   42.8310 C   0  0  0  0  0  0  0  0  0  0  0  0
   44.7740   35.9830   43.9190 C   0  0  0  0  0  0  0  0  0  0  0  0
   45.7800   35.6890   43.0100 C   0  0  0  0  0  0  0  0  0  0  0  0
   46.6210   34.6170   43.2720 C   0  0  0  0  0  0  0  0  0  0  0  0
   46.4020   33.9110   44.4260 N   0  0  0  0  0  0  0  0  0  0  0  0
   45.4240   34.2090   45.2990 C   0  0  0  0  0  0  0  0  0  0  0  0
   44.5980   35.2650   45.0340 N   0  0  0  0  0  0  0  0  0  0  0  0
   49.0520   33.4150   39.2720 N   0  0  0  0  0  0  0  0  0  0  0  0
   48.0710   33.5660   37.8780 S   0  0  0  0  0  0  0  0  0  0  0  0
   48.5810   32.3030   36.7310 C   0  0  0  0  0  0  0  0  0  0  0  0
   46.6480   33.3000   38.2250 O   0  0  0  0  0  0  0  0  0  0  0  0
   48.2660   34.8700   37.1750 O   0  0  0  0  0  0  0  0  0  0  0  0
   47.2697   35.2034   40.6093 H   0  0  0  0  0  0  0  0  0  0  0  0
   48.9136   35.3726   41.0931 H   0  0  0  0  0  0  0  0  0  0  0  0
   47.4134   32.7804   40.2565 H   0  0  0  0  0  0  0  0  0  0  0  0
   49.2217   31.5857   41.4564 H   0  0  0  0  0  0  0  0  0  0  0  0
   50.3025   32.9546   41.4230 H   0  0  0  0  0  0  0  0  0  0  0  0
   49.3884   33.5626   43.5046 H   0  0  0  0  0  0  0  0  0  0  0  0
   48.1212   32.3417   43.3743 H   0  0  0  0  0  0  0  0  0  0  0  0
   44.1022   36.8303   43.7172 H   0  0  0  0  0  0  0  0  0  0  0  0
   45.9083   36.2935   42.1000 H   0  0  0  0  0  0  0  0  0  0  0  0
   45.2906   33.6117   46.2130 H   0  0  0  0  0  0  0  0  0  0  0  0
   49.6665   34.2401   39.3216 H   0  0  0  0  0  0  0  0  0  0  0  0
   48.9361   31.4235   37.2881 H   0  0  0  0  0  0  0  0  0  0  0  0
   47.7281   32.0164   36.0982 H   0  0  0  0  0  0  0  0  0  0  0  0
   49.3938   32.6889   36.0982 H   0  0  0  0  0  0  0  0  0  0  0  0
  1  5  1  0
  1  8  1  0
  2  1  1  0
  3  2  1  0
  3  4  1  0
  4  5  1  0
  6 11  2  0
  7  8  2  0
  7  6  1  0
  8  9  1  0
  9 10  2  0
 11 10  1  0
 12  3  1  0
 13 15  2  0
 13 12  1  0
 14 13  1  0
 16 13  2  0
  2 17  1  0
  2 18  1  0
  3 19  1  6
  4 20  1  0
  4 21  1  0
  5 22  1  0
  5 23  1  0
  6 24  1  0
  7 25  1  0
 10 26  1  0
 12 27  1  0
 14 28  1  0
 14 29  1  0
 14 30  1  0
M  ISO  8  17  13  18  13  19  13  20  13  21  13  22  13  23  13  24  14
M  ISO  6  25  14  26  14  27   5  28   8  29   8  30   8
M  END
>  <minimizedAffinity>  (1) 
-4.41223145

>  <minimizedRMSD>  (1) 
1.24346304

$$$$
