
     RDKit          3D

 44 47  0  0  1  0  0  0  0  0999 V2000
   42.0510   33.2380   41.1590 C   0  0  0  0  0  0  0  0  0  0  0  0
   42.7880   34.3760   41.3240 C   0  0  0  0  0  0  0  0  0  0  0  0
   42.1090   35.6100   41.2730 C   0  0  0  0  0  0  0  0  0  0  0  0
   40.7550   35.7230   41.0680 C   0  0  0  0  0  0  0  0  0  0  0  0
   40.0240   34.5750   40.9040 C   0  0  0  0  0  0  0  0  0  0  0  0
   40.6750   33.3780   40.9520 C   0  0  0  0  0  0  0  0  0  0  0  0
   42.7190   31.6980   41.2880 S   0  0  0  0  0  0  0  0  0  0  0  0
   41.7180   30.8830   40.4070 O   0  0  0  0  0  0  0  0  0  0  0  0
   42.6420   31.1440   42.6620 O   0  0  0  0  0  0  0  0  0  0  0  0
   42.6330   32.4710   38.2600 Br  0  0  0  0  0  0  0  0  0  0  0  0
   43.9750   31.3120   39.0320 C   0  0  0  0  0  0  0  0  0  0  0  0
   43.9540   30.9620   40.4130 C   0  0  0  0  0  0  0  0  0  0  0  0
   45.0230   30.1260   40.7080 C   0  0  0  0  0  0  0  0  0  0  0  0
   46.0390   29.6030   39.9450 C   0  0  0  0  0  0  0  0  0  0  0  0
   45.8880   30.0490   38.6620 C   0  0  0  0  0  0  0  0  0  0  0  0
   44.9250   30.8710   38.1460 C   0  0  0  0  0  0  0  0  0  0  0  0
   44.2210   34.3680   41.5480 C   0  0  0  0  0  0  0  0  0  0  0  0
   45.0910   34.2970   40.6280 O   0  0  0  0  0  0  0  0  0  0  0  0
   44.5780   34.4500   42.9440 C   0  0  0  0  0  0  0  0  0  0  0  0
   44.3100   35.7130   43.5780 C   0  0  0  0  0  0  0  0  0  0  0  0
   44.6410   35.8160   44.9170 C   0  0  0  0  0  0  0  0  0  0  0  0
   45.1870   34.7380   45.5360 N   0  0  0  0  0  0  0  0  0  0  0  0
   45.4230   33.5540   44.8840 C   0  0  0  0  0  0  0  0  0  0  0  0
   45.1180   33.4500   43.6370 N   0  0  0  0  0  0  0  0  0  0  0  0
   46.0110   32.4330   45.6420 C   0  0  1  0  0  0  0  0  0  0  0  0
   46.9700   32.7330   46.7730 C   0  0  0  0  0  0  0  0  0  0  0  0
   45.5540   32.3240   47.0460 C   0  0  1  0  0  0  0  0  0  0  0  0
   44.7760   33.3960   47.6470 N   0  0  0  0  0  0  0  0  0  0  0  0
   42.6943   36.5320   41.4043 H   0  0  0  0  0  0  0  0  0  0  0  0
   40.2699   36.7098   41.0363 H   0  0  0  0  0  0  0  0  0  0  0  0
   38.9375   34.6185   40.7376 H   0  0  0  0  0  0  0  0  0  0  0  0
   40.0792   32.4629   40.8193 H   0  0  0  0  0  0  0  0  0  0  0  0
   45.0647   29.8215   41.7642 H   0  0  0  0  0  0  0  0  0  0  0  0
   46.8380   28.9384   40.3055 H   0  0  0  0  0  0  0  0  0  0  0  0
   46.6457   29.6983   37.9458 H   0  0  0  0  0  0  0  0  0  0  0  0
   44.9127   31.1611   37.0850 H   0  0  0  0  0  0  0  0  0  0  0  0
   43.8646   36.5539   43.0262 H   0  0  0  0  0  0  0  0  0  0  0  0
   44.4656   36.7514   45.4686 H   0  0  0  0  0  0  0  0  0  0  0  0
   46.0656   31.7748   44.7623 H   0  0  0  0  0  0  0  0  0  0  0  0
   47.7975   32.0428   46.9942 H   0  0  0  0  0  0  0  0  0  0  0  0
   47.6091   33.5828   47.0548 H   0  0  0  0  0  0  0  0  0  0  0  0
   45.0217   31.5213   47.5774 H   0  0  0  0  0  0  0  0  0  0  0  0
   44.8280   33.3243   48.6732 H   0  0  0  0  0  0  0  0  0  0  0  0
   45.1552   34.3054   47.3467 H   0  0  0  0  0  0  0  0  0  0  0  0
  1  7  1  0
  1  2  1  0
  2 17  1  0
  3  2  2  0
  4  3  1  0
  5  6  1  0
  5  4  2  0
  6  1  2  0
  7  9  2  0
  8  7  2  0
 10 11  1  0
 11 12  2  0
 12 13  1  0
 12  7  1  0
 14 13  2  0
 15 14  1  0
 16 15  2  0
 16 11  1  0
 17 19  1  0
 18 17  2  0
 19 20  2  0
 19 24  1  0
 20 21  1  0
 21 22  2  0
 23 22  1  0
 23 25  1  0
 24 23  2  0
 25 26  1  0
 25 27  1  0
 26 27  1  0
 27 28  1  0
  3 29  1  0
  4 30  1  0
  5 31  1  0
  6 32  1  0
 13 33  1  0
 14 34  1  0
 15 35  1  0
 16 36  1  0
 20 37  1  0
 21 38  1  0
 25 39  1  6
 26 40  1  0
 26 41  1  0
 27 42  1  1
 28 43  1  0
 28 44  1  0
M  ISO  8  29  14  30  14  31  14  32  14  33  14  34  14  35  14  36  14
M  ISO  8  37  14  38  14  39  13  40  13  41  13  42  13  43   5  44   5
M  END
>  <minimizedAffinity>  (1) 
-5.87049723

>  <minimizedRMSD>  (1) 
1.12951255

$$$$
