
     RDKit          3D

 23 24  0  0  0  0  0  0  0  0999 V2000
   44.0680   35.5310   41.5870 C   0  0  0  0  0  0  0  0  0  0  0  0
   44.3380   35.9050   43.9860 C   0  0  0  0  0  0  0  0  0  0  0  0
   44.4850   35.0200   42.9040 C   0  0  0  0  0  0  0  0  0  0  0  0
   45.0040   33.7640   43.1770 C   0  0  0  0  0  0  0  0  0  0  0  0
   45.3390   33.4590   44.4610 N   0  0  0  0  0  0  0  0  0  0  0  0
   45.1800   34.3430   45.4710 C   0  0  0  0  0  0  0  0  0  0  0  0
   44.6730   35.5940   45.2590 N   0  0  0  0  0  0  0  0  0  0  0  0
   44.3890   33.3590   39.4840 Br  0  0  0  0  0  0  0  0  0  0  0  0
   42.7290   33.9450   40.2290 C   0  0  0  0  0  0  0  0  0  0  0  0
   42.7560   34.9490   41.1810 C   0  0  0  0  0  0  0  0  0  0  0  0
   41.5860   35.4220   41.7630 C   0  0  0  0  0  0  0  0  0  0  0  0
   40.3720   34.8640   41.3700 C   0  0  0  0  0  0  0  0  0  0  0  0
   40.3400   33.8530   40.4100 C   0  0  0  0  0  0  0  0  0  0  0  0
   41.5240   33.3960   39.8410 C   0  0  0  0  0  0  0  0  0  0  0  0
   43.9758   36.6259   41.6383 H   0  0  0  0  0  0  0  0  0  0  0  0
   44.8253   35.2435   40.8428 H   0  0  0  0  0  0  0  0  0  0  0  0
   43.9278   36.9060   43.7865 H   0  0  0  0  0  0  0  0  0  0  0  0
   45.1426   33.0277   42.3716 H   0  0  0  0  0  0  0  0  0  0  0  0
   45.4665   34.0474   46.4911 H   0  0  0  0  0  0  0  0  0  0  0  0
   41.6181   36.2208   42.5186 H   0  0  0  0  0  0  0  0  0  0  0  0
   39.4339   35.2224   41.8190 H   0  0  0  0  0  0  0  0  0  0  0  0
   39.3781   33.4168   40.1027 H   0  0  0  0  0  0  0  0  0  0  0  0
   41.4998   32.5988   39.0835 H   0  0  0  0  0  0  0  0  0  0  0  0
  1  3  1  0
  2  7  2  0
  3  4  2  0
  3  2  1  0
  4  5  1  0
  5  6  2  0
  7  6  1  0
  8  9  1  0
  9 10  2  0
 10  1  1  0
 10 11  1  0
 12 11  2  0
 13 12  1  0
 14  9  1  0
 14 13  2  0
  1 15  1  0
  1 16  1  0
  2 17  1  0
  4 18  1  0
  6 19  1  0
 11 20  1  0
 12 21  1  0
 13 22  1  0
 14 23  1  0
M  ISO  8  15   8  16   8  17  14  18  14  19  14  20  14  21  14  22  14
M  ISO  1  23  14
M  END
>  <minimizedAffinity>  (1) 
-4.25371408

>  <minimizedRMSD>  (1) 
0.835597336

$$$$
