
     RDKit          3D

 24 25  0  0  0  0  0  0  0  0999 V2000
   44.8620   33.4620   40.6000 C   0  0  0  0  0  0  0  0  0  0  0  0
   44.4120   32.4380   37.7830 Br  0  0  0  0  0  0  0  0  0  0  0  0
   45.9890   33.2460   38.5400 C   0  0  0  0  0  0  0  0  0  0  0  0
   46.1080   33.6920   39.8600 C   0  0  0  0  0  0  0  0  0  0  0  0
   47.3200   34.2470   40.2200 C   0  0  0  0  0  0  0  0  0  0  0  0
   48.3470   34.3530   39.3250 C   0  0  0  0  0  0  0  0  0  0  0  0
   48.2550   33.9230   38.0240 C   0  0  0  0  0  0  0  0  0  0  0  0
   47.0420   33.3640   37.6540 C   0  0  0  0  0  0  0  0  0  0  0  0
   44.2550   34.8450   41.5430 S   0  0  0  0  0  0  0  0  0  0  0  0
   44.3380   35.5850   44.2100 C   0  0  0  0  0  0  0  0  0  0  0  0
   44.6610   34.6040   43.2870 C   0  0  0  0  0  0  0  0  0  0  0  0
   45.2900   33.4470   43.7000 C   0  0  0  0  0  0  0  0  0  0  0  0
   45.5710   33.3200   45.0280 N   0  0  0  0  0  0  0  0  0  0  0  0
   45.2500   34.2740   45.8970 C   0  0  0  0  0  0  0  0  0  0  0  0
   44.6470   35.3900   45.5210 N   0  0  0  0  0  0  0  0  0  0  0  0
   45.0319   32.6273   41.2960 H   0  0  0  0  0  0  0  0  0  0  0  0
   44.0947   33.2598   39.8381 H   0  0  0  0  0  0  0  0  0  0  0  0
   47.4616   34.6112   41.2482 H   0  0  0  0  0  0  0  0  0  0  0  0
   49.2919   34.8040   39.6624 H   0  0  0  0  0  0  0  0  0  0  0  0
   49.0935   34.0166   37.3182 H   0  0  0  0  0  0  0  0  0  0  0  0
   46.9139   33.0031   36.6228 H   0  0  0  0  0  0  0  0  0  0  0  0
   43.8380   36.5101   43.8874 H   0  0  0  0  0  0  0  0  0  0  0  0
   45.5551   32.6557   42.9834 H   0  0  0  0  0  0  0  0  0  0  0  0
   45.4931   34.1310   46.9602 H   0  0  0  0  0  0  0  0  0  0  0  0
  1  9  1  0
  2  3  1  0
  3  4  2  0
  4  5  1  0
  4  1  1  0
  6  5  2  0
  7  6  1  0
  8  7  2  0
  8  3  1  0
  9 11  1  0
 10 15  2  0
 11 12  2  0
 11 10  1  0
 12 13  1  0
 13 14  2  0
 15 14  1  0
  1 16  1  0
  1 17  1  0
  5 18  1  0
  6 19  1  0
  7 20  1  0
  8 21  1  0
 10 22  1  0
 12 23  1  0
 14 24  1  0
M  ISO  8  16   8  17   8  18  14  19  14  20  14  21  14  22  14  23  14
M  ISO  1  24  14
M  END
>  <minimizedAffinity>  (1) 
-3.89087987

>  <minimizedRMSD>  (1) 
1.55041492

$$$$
