
     RDKit          3D

 30 32  0  0  1  0  0  0  0  0999 V2000
   44.1380   34.7740   42.7090 C   0  0  1  0  0  0  0  0  0  0  0  0
   44.5080   36.1660   42.1710 C   0  0  0  0  0  0  0  0  0  0  0  0
   44.1670   35.0400   41.2650 C   0  0  2  0  0  0  0  0  0  0  0  0
   43.7420   33.3910   38.5240 Br  0  0  0  0  0  0  0  0  0  0  0  0
   42.4140   34.3850   39.4120 C   0  0  0  0  0  0  0  0  0  0  0  0
   42.8600   34.9770   40.5690 C   0  0  0  0  0  0  0  0  0  0  0  0
   41.9410   35.7300   41.3150 C   0  0  0  0  0  0  0  0  0  0  0  0
   40.6120   35.8710   40.8900 C   0  0  0  0  0  0  0  0  0  0  0  0
   40.1860   35.2690   39.7270 C   0  0  0  0  0  0  0  0  0  0  0  0
   41.1130   34.5350   39.0150 C   0  0  0  0  0  0  0  0  0  0  0  0
   45.2640   34.0670   43.3940 C   0  0  0  0  0  0  0  0  0  0  0  0
   46.4430   33.7860   42.6580 C   0  0  0  0  0  0  0  0  0  0  0  0
   47.4680   33.1350   43.3300 C   0  0  0  0  0  0  0  0  0  0  0  0
   47.2860   32.8120   44.6320 N   0  0  0  0  0  0  0  0  0  0  0  0
   46.1410   33.1000   45.2990 C   0  0  0  0  0  0  0  0  0  0  0  0
   45.1210   33.7360   44.6690 N   0  0  0  0  0  0  0  0  0  0  0  0
   46.1500   32.6580   46.7320 C   0  0  0  0  0  0  0  0  0  0  0  0
   45.1510   33.2570   47.4540 F   0  0  0  0  0  0  0  0  0  0  0  0
   47.3750   32.9850   47.3160 F   0  0  0  0  0  0  0  0  0  0  0  0
   46.0810   31.2700   46.7710 F   0  0  0  0  0  0  0  0  0  0  0  0
   43.3813   34.3156   43.3626 H   0  0  0  0  0  0  0  0  0  0  0  0
   43.8139   37.0106   42.2924 H   0  0  0  0  0  0  0  0  0  0  0  0
   45.3567   36.8563   42.2865 H   0  0  0  0  0  0  0  0  0  0  0  0
   44.6896   34.6242   40.3910 H   0  0  0  0  0  0  0  0  0  0  0  0
   42.2673   36.2165   42.2460 H   0  0  0  0  0  0  0  0  0  0  0  0
   39.9062   36.4655   41.4887 H   0  0  0  0  0  0  0  0  0  0  0  0
   39.1473   35.3692   39.3790 H   0  0  0  0  0  0  0  0  0  0  0  0
   40.7904   34.0470   38.0834 H   0  0  0  0  0  0  0  0  0  0  0  0
   46.5409   34.0716   41.6003 H   0  0  0  0  0  0  0  0  0  0  0  0
   48.4082   32.8868   42.8157 H   0  0  0  0  0  0  0  0  0  0  0  0
  1 11  1  0
  2  1  1  0
  3  2  1  0
  3  1  1  0
  4  5  1  0
  5  6  2  0
  6  3  1  0
  6  7  1  0
  8  7  2  0
  9  8  1  0
 10  5  1  0
 10  9  2  0
 11 16  2  0
 12 13  2  0
 12 11  1  0
 13 14  1  0
 14 15  2  0
 15 17  1  0
 16 15  1  0
 17 20  1  0
 17 19  1  0
 17 18  1  0
  1 21  1  1
  2 22  1  0
  2 23  1  0
  3 24  1  6
  7 25  1  0
  8 26  1  0
  9 27  1  0
 10 28  1  0
 12 29  1  0
 13 30  1  0
M  ISO  8  21  13  22  13  23  13  24  13  25  14  26  14  27  14  28  14
M  ISO  2  29  14  30  14
M  END
>  <minimizedAffinity>  (1) 
-5.42626619

>  <minimizedRMSD>  (1) 
1.84208775

$$$$
