
     RDKit          3D

 39 41  0  0  0  0  0  0  0  0999 V2000
   45.3870   30.5940   47.1910 C   0  0  0  0  0  0  0  0  0  0  0  0
   45.4110   29.9280   45.9870 C   0  0  0  0  0  0  0  0  0  0  0  0
   45.1500   28.5940   46.2560 C   0  0  0  0  0  0  0  0  0  0  0  0
   44.9790   28.4700   47.5640 N   0  0  0  0  0  0  0  0  0  0  0  0
   45.1230   29.6810   48.1140 N   0  0  0  0  0  0  0  0  0  0  0  0
   42.3550   28.3730   45.1440 Br  0  0  0  0  0  0  0  0  0  0  0  0
   43.9190   27.4460   44.5030 C   0  0  0  0  0  0  0  0  0  0  0  0
   45.1530   27.6780   45.1350 C   0  0  0  0  0  0  0  0  0  0  0  0
   46.1490   26.9370   44.5480 C   0  0  0  0  0  0  0  0  0  0  0  0
   45.9840   26.0820   43.4880 C   0  0  0  0  0  0  0  0  0  0  0  0
   44.7520   25.9110   42.9270 C   0  0  0  0  0  0  0  0  0  0  0  0
   43.6880   26.6100   43.4460 C   0  0  0  0  0  0  0  0  0  0  0  0
   44.7030   27.2380   48.3000 C   0  0  0  0  0  0  0  0  0  0  0  0
   44.2980   27.5670   49.6140 F   0  0  0  0  0  0  0  0  0  0  0  0
   45.7990   26.4220   48.3160 F   0  0  0  0  0  0  0  0  0  0  0  0
   43.6380   26.6030   47.7330 F   0  0  0  0  0  0  0  0  0  0  0  0
   45.5980   32.0180   47.4750 C   0  0  0  0  0  0  0  0  0  0  0  0
   46.5920   32.6360   46.5170 C   0  0  0  0  0  0  0  0  0  0  0  0
   44.5770   35.4130   45.0670 C   0  0  0  0  0  0  0  0  0  0  0  0
   45.1170   35.4700   43.7560 C   0  0  0  0  0  0  0  0  0  0  0  0
   46.1220   34.5700   43.4520 C   0  0  0  0  0  0  0  0  0  0  0  0
   46.4870   33.7290   44.4320 N   0  0  0  0  0  0  0  0  0  0  0  0
   45.9760   33.6810   45.6590 C   0  0  0  0  0  0  0  0  0  0  0  0
   45.0160   34.5350   45.9640 N   0  0  0  0  0  0  0  0  0  0  0  0
   46.6690   34.6430   42.1050 C   0  0  0  0  0  0  0  0  0  0  0  0
   47.4460   33.5080   41.8650 F   0  0  0  0  0  0  0  0  0  0  0  0
   47.5800   35.7020   42.1120 F   0  0  0  0  0  0  0  0  0  0  0  0
   45.7150   34.7540   41.1390 F   0  0  0  0  0  0  0  0  0  0  0  0
   45.6013   30.3708   44.9982 H   0  0  0  0  0  0  0  0  0  0  0  0
   47.1631   27.0373   44.9621 H   0  0  0  0  0  0  0  0  0  0  0  0
   46.8487   25.5318   43.0885 H   0  0  0  0  0  0  0  0  0  0  0  0
   44.6129   25.2275   42.0764 H   0  0  0  0  0  0  0  0  0  0  0  0
   42.6787   26.4998   43.0226 H   0  0  0  0  0  0  0  0  0  0  0  0
   44.6376   32.5464   47.3829 H   0  0  0  0  0  0  0  0  0  0  0  0
   46.0007   32.1093   48.4946 H   0  0  0  0  0  0  0  0  0  0  0  0
   47.4071   33.0915   47.0985 H   0  0  0  0  0  0  0  0  0  0  0  0
   46.9646   31.8376   45.8585 H   0  0  0  0  0  0  0  0  0  0  0  0
   43.7757   36.1122   45.3481 H   0  0  0  0  0  0  0  0  0  0  0  0
   44.7528   36.1970   43.0152 H   0  0  0  0  0  0  0  0  0  0  0  0
  1 17  1  0
  1  5  2  0
  2  3  2  0
  2  1  1  0
  3  4  1  0
  4  5  1  0
  4 13  1  0
  7  8  2  0
  7  6  1  0
  8  3  1  0
  9  8  1  0
 10  9  2  0
 11 12  2  0
 11 10  1  0
 12  7  1  0
 13 15  1  0
 13 14  1  0
 16 13  1  0
 18 17  1  0
 19 24  2  0
 20 19  1  0
 21 20  2  0
 21 22  1  0
 22 23  2  0
 23 24  1  0
 23 18  1  0
 25 27  1  0
 25 21  1  0
 26 25  1  0
 28 25  1  0
  2 29  1  0
  9 30  1  0
 10 31  1  0
 11 32  1  0
 12 33  1  0
 17 34  1  0
 17 35  1  0
 18 36  1  0
 18 37  1  0
 19 38  1  0
 20 39  1  0
M  ISO  8  29  14  30  14  31  14  32  14  33  14  34   8  35   8  36   8
M  ISO  3  37   8  38  14  39  14
M  END
>  <minimizedAffinity>  (1) 
-5.42147446

>  <minimizedRMSD>  (1) 
0.630916059

$$$$
