
     RDKit          3D

 30 32  0  0  0  0  0  0  0  0999 V2000
   45.0800   33.5260   41.2120 F   0  0  0  0  0  0  0  0  0  0  0  0
   46.3150   34.1130   41.1300 C   0  0  0  0  0  0  0  0  0  0  0  0
   46.8560   34.8000   42.1820 C   0  0  0  0  0  0  0  0  0  0  0  0
   48.0990   35.3510   41.9970 C   0  0  0  0  0  0  0  0  0  0  0  0
   48.8080   35.2440   40.8300 C   0  0  0  0  0  0  0  0  0  0  0  0
   48.2230   34.5440   39.8020 C   0  0  0  0  0  0  0  0  0  0  0  0
   46.9800   33.9710   39.9310 C   0  0  0  0  0  0  0  0  0  0  0  0
   44.4300   35.9770   44.8450 C   0  0  0  0  0  0  0  0  0  0  0  0
   45.1610   35.9210   43.6460 C   0  0  0  0  0  0  0  0  0  0  0  0
   46.0740   34.8970   43.4160 C   0  0  0  0  0  0  0  0  0  0  0  0
   46.2030   33.9750   44.4110 N   0  0  0  0  0  0  0  0  0  0  0  0
   45.4960   34.0440   45.5480 C   0  0  0  0  0  0  0  0  0  0  0  0
   44.6240   35.0240   45.7670 N   0  0  0  0  0  0  0  0  0  0  0  0
   48.2620   34.3540   37.0850 Br  0  0  0  0  0  0  0  0  0  0  0  0
   46.7640   33.2460   37.5040 C   0  0  0  0  0  0  0  0  0  0  0  0
   46.3620   33.2230   38.8230 C   0  0  0  0  0  0  0  0  0  0  0  0
   45.2930   32.4630   39.2560 C   0  0  0  0  0  0  0  0  0  0  0  0
   44.5870   31.6880   38.3450 C   0  0  0  0  0  0  0  0  0  0  0  0
   44.9980   31.7200   37.0290 C   0  0  0  0  0  0  0  0  0  0  0  0
   46.0650   32.4760   36.5870 C   0  0  0  0  0  0  0  0  0  0  0  0
   48.5504   35.9087   42.8308 H   0  0  0  0  0  0  0  0  0  0  0  0
   49.8034   35.6990   40.7202 H   0  0  0  0  0  0  0  0  0  0  0  0
   48.7641   34.4394   38.8500 H   0  0  0  0  0  0  0  0  0  0  0  0
   43.7105   36.7896   45.0237 H   0  0  0  0  0  0  0  0  0  0  0  0
   45.0094   36.6961   42.8803 H   0  0  0  0  0  0  0  0  0  0  0  0
   45.6406   33.2718   46.3179 H   0  0  0  0  0  0  0  0  0  0  0  0
   45.0023   32.4715   40.3169 H   0  0  0  0  0  0  0  0  0  0  0  0
   43.7323   31.0720   38.6612 H   0  0  0  0  0  0  0  0  0  0  0  0
   44.4481   31.1128   36.2949 H   0  0  0  0  0  0  0  0  0  0  0  0
   46.3556   32.4677   35.5261 H   0  0  0  0  0  0  0  0  0  0  0  0
  2  1  1  0
  2  3  2  0
  3 10  1  0
  4  3  1  0
  5  4  2  0
  6  7  2  0
  6  5  1  0
  7  2  1  0
  8 13  2  0
  9  8  1  0
 10  9  2  0
 10 11  1  0
 11 12  2  0
 12 13  1  0
 14 15  1  0
 15 16  2  0
 16 17  1  0
 16  7  1  0
 18 17  2  0
 19 18  1  0
 20 19  2  0
 20 15  1  0
  4 21  1  0
  5 22  1  0
  6 23  1  0
  8 24  1  0
  9 25  1  0
 12 26  1  0
 17 27  1  0
 18 28  1  0
 19 29  1  0
 20 30  1  0
M  ISO  8  21  14  22  14  23  14  24  14  25  14  26  14  27  14  28  14
M  ISO  2  29  14  30  14
M  END
>  <minimizedAffinity>  (1) 
-6.04344702

>  <minimizedRMSD>  (1) 
0.294498086

$$$$
