
     RDKit          3D

 47 51  0  0  1  0  0  0  0  0999 V2000
   45.2220   35.9660   43.4620 C   0  0  0  0  0  0  0  0  0  0  0  0
   46.0450   34.8770   43.2090 C   0  0  0  0  0  0  0  0  0  0  0  0
   46.1550   33.9130   44.1770 C   0  0  0  0  0  0  0  0  0  0  0  0
   45.4560   34.0640   45.3440 N   0  0  0  0  0  0  0  0  0  0  0  0
   44.6650   35.1310   45.5630 C   0  0  0  0  0  0  0  0  0  0  0  0
   44.5540   36.0610   44.6350 N   0  0  0  0  0  0  0  0  0  0  0  0
   46.7290   34.8400   41.9940 N   0  0  0  0  0  0  0  0  0  0  0  0
   48.0190   35.3870   41.8180 C   0  0  0  0  0  0  0  0  0  0  0  0
   48.6510   35.1030   40.4770 C   0  0  0  0  0  0  0  0  0  0  0  0
   48.4270   33.8140   39.9510 N   0  0  0  0  0  0  0  0  0  0  0  0
   47.1480   33.2780   40.1320 C   0  0  0  0  0  0  0  0  0  0  0  0
   46.2080   34.2620   40.8010 C   0  0  0  0  0  0  0  0  0  0  0  0
   46.7420   32.0340   45.4690 C   0  0  0  0  0  0  0  0  0  0  0  0
   46.8730   32.7030   44.2330 C   0  0  0  0  0  0  0  0  0  0  0  0
   47.7320   32.0100   43.4010 C   0  0  0  0  0  0  0  0  0  0  0  0
   48.3810   30.8510   43.6890 C   0  0  0  0  0  0  0  0  0  0  0  0
   48.2020   30.2690   44.9210 C   0  0  0  0  0  0  0  0  0  0  0  0
   47.3740   30.8570   45.8280 C   0  0  0  0  0  0  0  0  0  0  0  0
   48.9930   29.1410   44.9020 O   0  0  0  0  0  0  0  0  0  0  0  0
   49.6150   28.9990   43.6490 C   0  0  1  0  0  0  0  0  0  0  0  0
   49.2380   30.1340   42.8690 O   0  0  0  0  0  0  0  0  0  0  0  0
   51.0270   27.4620   41.2860 Br  0  0  0  0  0  0  0  0  0  0  0  0
   51.9020   28.2740   42.7690 C   0  0  0  0  0  0  0  0  0  0  0  0
   51.0800   28.8960   43.6890 C   0  0  0  0  0  0  0  0  0  0  0  0
   51.6860   29.5000   44.7840 C   0  0  0  0  0  0  0  0  0  0  0  0
   53.0710   29.4810   44.9520 C   0  0  0  0  0  0  0  0  0  0  0  0
   53.9030   28.8540   44.0250 C   0  0  0  0  0  0  0  0  0  0  0  0
   53.2760   28.2550   42.9350 C   0  0  0  0  0  0  0  0  0  0  0  0
   45.1123   36.7562   42.7046 H   0  0  0  0  0  0  0  0  0  0  0  0
   44.1145   35.2264   46.5106 H   0  0  0  0  0  0  0  0  0  0  0  0
   47.9470   36.4781   41.9378 H   0  0  0  0  0  0  0  0  0  0  0  0
   48.6629   34.9084   42.5706 H   0  0  0  0  0  0  0  0  0  0  0  0
   48.2558   35.8343   39.7566 H   0  0  0  0  0  0  0  0  0  0  0  0
   49.7367   35.1739   40.6387 H   0  0  0  0  0  0  0  0  0  0  0  0
   49.1001   33.1736   40.3957 H   0  0  0  0  0  0  0  0  0  0  0  0
   46.7354   33.0048   39.1496 H   0  0  0  0  0  0  0  0  0  0  0  0
   47.2384   32.3975   40.7851 H   0  0  0  0  0  0  0  0  0  0  0  0
   45.9918   35.0726   40.0895 H   0  0  0  0  0  0  0  0  0  0  0  0
   45.3075   33.6986   41.0868 H   0  0  0  0  0  0  0  0  0  0  0  0
   46.0758   32.4908   46.2157 H   0  0  0  0  0  0  0  0  0  0  0  0
   47.9084   32.4403   42.4041 H   0  0  0  0  0  0  0  0  0  0  0  0
   47.2120   30.4083   46.8192 H   0  0  0  0  0  0  0  0  0  0  0  0
   49.2788   28.0441   43.2187 H   0  0  0  0  0  0  0  0  0  0  0  0
   51.0600   30.0042   45.5349 H   0  0  0  0  0  0  0  0  0  0  0  0
   53.5148   29.9696   45.8319 H   0  0  0  0  0  0  0  0  0  0  0  0
   54.9959   28.8336   44.1480 H   0  0  0  0  0  0  0  0  0  0  0  0
   53.8947   27.7489   42.1793 H   0  0  0  0  0  0  0  0  0  0  0  0
  1  6  2  0
  2  1  1  0
  2  3  2  0
  3 14  1  0
  3  4  1  0
  4  5  2  0
  6  5  1  0
  7  2  1  0
  8  7  1  0
  9  8  1  0
 10 11  1  0
 10  9  1  0
 11 12  1  0
 12  7  1  0
 13 18  2  0
 14 13  1  0
 15 16  1  0
 15 14  2  0
 16 17  2  0
 17 18  1  0
 19 17  1  0
 20 24  1  0
 20 19  1  0
 21 20  1  0
 21 16  1  0
 22 23  1  0
 23 28  2  0
 23 24  1  0
 24 25  2  0
 25 26  1  0
 27 26  2  0
 28 27  1  0
  1 29  1  0
  5 30  1  0
  8 31  1  0
  8 32  1  0
  9 33  1  0
  9 34  1  0
 10 35  1  0
 11 36  1  0
 11 37  1  0
 12 38  1  0
 12 39  1  0
 13 40  1  0
 15 41  1  0
 18 42  1  0
 20 43  1  6
 25 44  1  0
 26 45  1  0
 27 46  1  0
 28 47  1  0
M  ISO  8  29  14  30  14  31  13  32  13  33  13  34  13  35   5  36  13
M  ISO  8  37  13  38  13  39  13  40  14  41  14  42  14  43  13  44  14
M  ISO  3  45  14  46  14  47  14
M  END
>  <minimizedAffinity>  (1) 
-5.34789181

>  <minimizedRMSD>  (1) 
1.0619483

$$$$
