
     RDKit          3D

 32 34  0  0  0  0  0  0  0  0999 V2000
   46.6480   33.9240   43.3010 C   0  0  0  0  0  0  0  0  0  0  0  0
   46.8750   35.1200   42.6680 C   0  0  0  0  0  0  0  0  0  0  0  0
   47.9420   34.9330   41.7850 C   0  0  0  0  0  0  0  0  0  0  0  0
   48.3030   33.6010   41.9430 C   0  0  0  0  0  0  0  0  0  0  0  0
   47.5250   33.0820   42.8230 O   0  0  0  0  0  0  0  0  0  0  0  0
   47.3760   32.4840   39.2330 Br  0  0  0  0  0  0  0  0  0  0  0  0
   49.1010   32.3070   40.0540 C   0  0  0  0  0  0  0  0  0  0  0  0
   49.3510   32.8690   41.2740 C   0  0  0  0  0  0  0  0  0  0  0  0
   50.6190   32.7200   41.8400 C   0  0  0  0  0  0  0  0  0  0  0  0
   51.5730   32.0160   41.1590 C   0  0  0  0  0  0  0  0  0  0  0  0
   51.3070   31.4500   39.9260 C   0  0  0  0  0  0  0  0  0  0  0  0
   50.0510   31.5800   39.3310 C   0  0  0  0  0  0  0  0  0  0  0  0
   45.5760   33.7300   44.3250 C   0  0  0  0  0  0  0  0  0  0  0  0
   46.2030   30.6030   46.1310 C   0  0  0  0  0  0  0  0  0  0  0  0
   46.8600   31.0150   47.2920 C   0  0  0  0  0  0  0  0  0  0  0  0
   47.0910   32.3620   47.4590 C   0  0  0  0  0  0  0  0  0  0  0  0
   46.6750   33.2110   46.5030 N   0  0  0  0  0  0  0  0  0  0  0  0
   46.0380   32.7800   45.3860 C   0  0  0  0  0  0  0  0  0  0  0  0
   45.8030   31.4570   45.2050 N   0  0  0  0  0  0  0  0  0  0  0  0
   47.2400   30.0010   48.2130 N   0  0  0  0  0  0  0  0  0  0  0  0
   46.3186   36.0555   42.8266 H   0  0  0  0  0  0  0  0  0  0  0  0
   48.3958   35.6765   41.1132 H   0  0  0  0  0  0  0  0  0  0  0  0
   50.8472   33.1631   42.8206 H   0  0  0  0  0  0  0  0  0  0  0  0
   52.5731   31.8975   41.6014 H   0  0  0  0  0  0  0  0  0  0  0  0
   52.0972   30.8887   39.4059 H   0  0  0  0  0  0  0  0  0  0  0  0
   49.8223   31.1364   38.3507 H   0  0  0  0  0  0  0  0  0  0  0  0
   45.3343   34.6992   44.7857 H   0  0  0  0  0  0  0  0  0  0  0  0
   44.6837   33.3133   43.8349 H   0  0  0  0  0  0  0  0  0  0  0  0
   46.0116   29.5301   45.9818 H   0  0  0  0  0  0  0  0  0  0  0  0
   47.6055   32.7360   48.3564 H   0  0  0  0  0  0  0  0  0  0  0  0
   47.7273   30.2533   49.0847 H   0  0  0  0  0  0  0  0  0  0  0  0
   47.0281   29.0140   48.0086 H   0  0  0  0  0  0  0  0  0  0  0  0
  1 13  1  0
  2  1  2  0
  3  4  2  0
  3  2  1  0
  4  5  1  0
  5  1  1  0
  6  7  1  0
  7  8  2  0
  8  9  1  0
  8  4  1  0
 10  9  2  0
 11 10  1  0
 12 11  2  0
 12  7  1  0
 13 18  1  0
 14 15  2  0
 15 16  1  0
 15 20  1  0
 17 16  2  0
 18 17  1  0
 19 18  2  0
 19 14  1  0
  2 21  1  0
  3 22  1  0
  9 23  1  0
 10 24  1  0
 11 25  1  0
 12 26  1  0
 13 27  1  0
 13 28  1  0
 14 29  1  0
 16 30  1  0
 20 31  1  0
 20 32  1  0
M  ISO  8  21  14  22  14  23  14  24  14  25  14  26  14  27   8  28   8
M  ISO  2  29  14  30  14
M  END
>  <minimizedAffinity>  (1) 
-4.73624277

>  <minimizedRMSD>  (1) 
8.40552235

$$$$
