
     RDKit          3D

 39 41  0  0  0  0  0  0  0  0999 V2000
   45.1860   34.4600   42.1640 C   0  0  0  0  0  0  0  0  0  0  0  0
   46.5270   34.5250   41.7800 C   0  0  0  0  0  0  0  0  0  0  0  0
   47.4960   34.3160   42.7500 C   0  0  0  0  0  0  0  0  0  0  0  0
   47.0910   34.0610   44.0100 N   0  0  0  0  0  0  0  0  0  0  0  0
   45.8040   33.9990   44.3720 C   0  0  0  0  0  0  0  0  0  0  0  0
   44.8640   34.2010   43.4380 N   0  0  0  0  0  0  0  0  0  0  0  0
   45.4430   33.7040   45.7620 C   0  0  0  0  0  0  0  0  0  0  0  0
   44.7490   34.5980   46.3640 O   0  0  0  0  0  0  0  0  0  0  0  0
   46.1270   30.7630   44.5910 Br  0  0  0  0  0  0  0  0  0  0  0  0
   45.9560   31.2950   46.3890 C   0  0  0  0  0  0  0  0  0  0  0  0
   45.6810   32.6100   46.6600 C   0  0  0  0  0  0  0  0  0  0  0  0
   45.6010   32.8540   48.0410 C   0  0  0  0  0  0  0  0  0  0  0  0
   45.7660   31.9440   49.0600 C   0  0  0  0  0  0  0  0  0  0  0  0
   46.0390   30.6550   48.6580 C   0  0  0  0  0  0  0  0  0  0  0  0
   46.1370   30.3130   47.3310 C   0  0  0  0  0  0  0  0  0  0  0  0
   43.9640   34.7400   40.8650 S   0  0  0  0  0  0  0  0  0  0  0  0
   42.2880   34.7500   41.4860 C   0  0  0  0  0  0  0  0  0  0  0  0
   41.4130   35.7740   40.8340 C   0  0  0  0  0  0  0  0  0  0  0  0
   42.1100   36.0410   37.8720 Cl  0  0  0  0  0  0  0  0  0  0  0  0
   40.7090   35.2130   38.4800 C   0  0  0  0  0  0  0  0  0  0  0  0
   40.4840   35.1510   39.8700 C   0  0  0  0  0  0  0  0  0  0  0  0
   39.3580   34.4800   40.2540 C   0  0  0  0  0  0  0  0  0  0  0  0
   38.4260   33.8620   39.4300 C   0  0  0  0  0  0  0  0  0  0  0  0
   38.6660   33.9350   38.0790 C   0  0  0  0  0  0  0  0  0  0  0  0
   37.5590   33.1890   36.9430 Cl  0  0  0  0  0  0  0  0  0  0  0  0
   39.7840   34.5970   37.6310 C   0  0  0  0  0  0  0  0  0  0  0  0
   46.8070   34.7361   40.7374 H   0  0  0  0  0  0  0  0  0  0  0  0
   48.5659   34.3572   42.4979 H   0  0  0  0  0  0  0  0  0  0  0  0
   45.3818   33.8891   48.3418 H   0  0  0  0  0  0  0  0  0  0  0  0
   45.6856   32.2259   50.1202 H   0  0  0  0  0  0  0  0  0  0  0  0
   46.1828   29.8767   49.4219 H   0  0  0  0  0  0  0  0  0  0  0  0
   46.3552   29.2775   47.0307 H   0  0  0  0  0  0  0  0  0  0  0  0
   41.8478   33.7566   41.3145 H   0  0  0  0  0  0  0  0  0  0  0  0
   42.3417   35.0053   42.5546 H   0  0  0  0  0  0  0  0  0  0  0  0
   40.8301   36.2930   41.6092 H   0  0  0  0  0  0  0  0  0  0  0  0
   42.0545   36.4825   40.2895 H   0  0  0  0  0  0  0  0  0  0  0  0
   39.1681   34.4226   41.3360 H   0  0  0  0  0  0  0  0  0  0  0  0
   37.5452   33.3432   39.8362 H   0  0  0  0  0  0  0  0  0  0  0  0
   39.9608   34.6449   36.5464 H   0  0  0  0  0  0  0  0  0  0  0  0
  1  6  1  0
  2  1  2  0
  2  3  1  0
  3  4  2  0
  4  5  1  0
  5  7  1  0
  6  5  2  0
  7  8  2  0
  7 11  1  0
  9 10  1  0
 10 11  2  0
 10 15  1  0
 11 12  1  0
 12 13  2  0
 14 13  1  0
 15 14  2  0
 16 17  1  0
 16  1  1  0
 18 17  1  0
 19 20  1  0
 20 21  2  0
 21 22  1  0
 21 18  1  0
 23 22  2  0
 24 23  1  0
 25 24  1  0
 26 24  2  0
 26 20  1  0
  2 27  1  0
  3 28  1  0
 12 29  1  0
 13 30  1  0
 14 31  1  0
 15 32  1  0
 17 33  1  0
 17 34  1  0
 18 35  1  0
 18 36  1  0
 22 37  1  0
 23 38  1  0
 26 39  1  0
M  ISO  8  27  14  28  14  29  14  30  14  31  14  32  14  33   8  34   8
M  ISO  5  35   8  36   8  37  14  38  14  39  14
M  END
>  <minimizedAffinity>  (1) 
-6.91127586

>  <minimizedRMSD>  (1) 
0.943653166

$$$$
