
     RDKit          3D

 29 30  0  0  0  0  0  0  0  0999 V2000
   43.6820   35.5770   41.1220 C   0  0  0  0  0  0  0  0  0  0  0  0
   42.3510   35.0270   40.8670 N   0  0  0  0  0  0  0  0  0  0  0  0
   41.3410   35.3190   41.6940 C   0  0  0  0  0  0  0  0  0  0  0  0
   40.1010   34.7630   41.3950 C   0  0  0  0  0  0  0  0  0  0  0  0
   39.9170   33.9550   40.3100 C   0  0  0  0  0  0  0  0  0  0  0  0
   38.7870   33.4670   40.0650 O   0  0  0  0  0  0  0  0  0  0  0  0
   40.9770   33.6890   39.5030 N   0  0  0  0  0  0  0  0  0  0  0  0
   42.1910   34.2270   39.7850 C   0  0  0  0  0  0  0  0  0  0  0  0
   43.1290   33.9350   38.9880 O   0  0  0  0  0  0  0  0  0  0  0  0
   44.4530   35.7610   43.4310 C   0  0  0  0  0  0  0  0  0  0  0  0
   44.2290   34.9430   42.3110 C   0  0  0  0  0  0  0  0  0  0  0  0
   44.5560   33.6110   42.4630 C   0  0  0  0  0  0  0  0  0  0  0  0
   45.0560   33.1680   43.6280 N   0  0  0  0  0  0  0  0  0  0  0  0
   45.2540   34.0020   44.6820 C   0  0  0  0  0  0  0  0  0  0  0  0
   44.9540   35.3260   44.6060 N   0  0  0  0  0  0  0  0  0  0  0  0
   45.8040   33.5240   45.9730 C   0  0  0  0  0  0  0  0  0  0  0  0
   46.8580   32.4870   45.7040 C   0  0  0  0  0  0  0  0  0  0  0  0
   43.6093   36.6629   41.2818 H   0  0  0  0  0  0  0  0  0  0  0  0
   44.3379   35.3855   40.2600 H   0  0  0  0  0  0  0  0  0  0  0  0
   41.4841   35.9687   42.5700 H   0  0  0  0  0  0  0  0  0  0  0  0
   39.2452   34.9805   42.0510 H   0  0  0  0  0  0  0  0  0  0  0  0
   40.8599   33.0811   38.6798 H   0  0  0  0  0  0  0  0  0  0  0  0
   44.2030   36.8287   43.3442 H   0  0  0  0  0  0  0  0  0  0  0  0
   44.4068   32.9105   41.6281 H   0  0  0  0  0  0  0  0  0  0  0  0
   46.2491   34.3687   46.5192 H   0  0  0  0  0  0  0  0  0  0  0  0
   44.9982   33.0851   46.5796 H   0  0  0  0  0  0  0  0  0  0  0  0
   47.2475   32.1038   46.6587 H   0  0  0  0  0  0  0  0  0  0  0  0
   46.4191   31.6589   45.1282 H   0  0  0  0  0  0  0  0  0  0  0  0
   47.6789   32.9393   45.1282 H   0  0  0  0  0  0  0  0  0  0  0  0
  1 11  1  0
  2  1  1  0
  2  3  1  0
  4  3  2  0
  5  4  1  0
  6  5  2  0
  7  8  1  0
  7  5  1  0
  8  2  1  0
  9  8  2  0
 10 15  2  0
 11 12  2  0
 11 10  1  0
 12 13  1  0
 13 14  2  0
 14 16  1  0
 15 14  1  0
 17 16  1  0
  1 18  1  0
  1 19  1  0
  3 20  1  0
  4 21  1  0
  7 22  1  0
 10 23  1  0
 12 24  1  0
 16 25  1  0
 16 26  1  0
 17 27  1  0
 17 28  1  0
 17 29  1  0
M  ISO  8  18   8  19   8  20  14  21  14  22   9  23  14  24  14  25   8
M  ISO  4  26   8  27   8  28   8  29   8
M  END
>  <minimizedAffinity>  (1) 
-4.59179401

>  <minimizedRMSD>  (1) 
0.989748418

$$$$
