
     RDKit          3D

 26 27  0  0  0  0  0  0  0  0999 V2000
   44.9370   36.3030   43.2040 Cl  0  0  0  0  0  0  0  0  0  0  0  0
   45.5270   34.9720   44.1530 C   0  0  0  0  0  0  0  0  0  0  0  0
   46.5200   34.1620   43.6640 C   0  0  0  0  0  0  0  0  0  0  0  0
   46.9200   33.1380   44.4880 C   0  0  0  0  0  0  0  0  0  0  0  0
   46.4190   32.8640   45.7340 C   0  0  0  0  0  0  0  0  0  0  0  0
   45.4200   33.7010   46.1940 C   0  0  0  0  0  0  0  0  0  0  0  0
   44.7690   33.3610   47.7950 Cl  0  0  0  0  0  0  0  0  0  0  0  0
   44.9760   34.7520   45.4070 C   0  0  0  0  0  0  0  0  0  0  0  0
   48.7750   35.4000   41.0690 C   0  0  0  0  0  0  0  0  0  0  0  0
   48.3010   34.7950   39.9070 C   0  0  0  0  0  0  0  0  0  0  0  0
   47.1840   33.9430   40.0180 C   0  0  0  0  0  0  0  0  0  0  0  0
   46.6330   33.7610   41.2460 N   0  0  0  0  0  0  0  0  0  0  0  0
   47.1240   34.3670   42.3450 C   0  0  0  0  0  0  0  0  0  0  0  0
   48.2000   35.1930   42.2670 N   0  0  0  0  0  0  0  0  0  0  0  0
   46.9010   31.7340   46.5730 C   0  0  0  0  0  0  0  0  0  0  0  0
   47.6460   32.2490   47.7870 C   0  0  0  0  0  0  0  0  0  0  0  0
   47.7156   32.4772   44.1133 H   0  0  0  0  0  0  0  0  0  0  0  0
   44.1817   35.4158   45.7791 H   0  0  0  0  0  0  0  0  0  0  0  0
   49.6467   36.0678   41.0046 H   0  0  0  0  0  0  0  0  0  0  0  0
   48.7828   34.9764   38.9349 H   0  0  0  0  0  0  0  0  0  0  0  0
   46.7691   33.4384   39.1330 H   0  0  0  0  0  0  0  0  0  0  0  0
   46.0387   31.1370   46.9048 H   0  0  0  0  0  0  0  0  0  0  0  0
   47.5854   31.1153   45.9740 H   0  0  0  0  0  0  0  0  0  0  0  0
   47.1426   31.9010   48.7010 H   0  0  0  0  0  0  0  0  0  0  0  0
   48.6790   31.8712   47.7708 H   0  0  0  0  0  0  0  0  0  0  0  0
   47.6575   33.3488   47.7708 H   0  0  0  0  0  0  0  0  0  0  0  0
  1  2  1  0
  2  8  2  0
  3  2  1  0
  3  4  2  0
  4  5  1  0
  5  6  2  0
  5 15  1  0
  6  7  1  0
  8  6  1  0
  9 14  2  0
 10 11  2  0
 10  9  1  0
 11 12  1  0
 12 13  2  0
 13  3  1  0
 14 13  1  0
 15 16  1  0
  4 17  1  0
  8 18  1  0
  9 19  1  0
 10 20  1  0
 11 21  1  0
 15 22  1  0
 15 23  1  0
 16 24  1  0
 16 25  1  0
 16 26  1  0
M  ISO  8  17  14  18  14  19  14  20  14  21  14  22   8  23   8  24   8
M  ISO  2  25   8  26   8
M  END
>  <minimizedAffinity>  (1) 
-4.9336071

>  <minimizedRMSD>  (1) 
0.407755762

$$$$
