
     RDKit          3D

 19 19  0  0  0  0  0  0  0  0999 V2000
   45.5970   34.9790   43.8790 C   0  0  0  0  0  0  0  0  0  0  0  0
   45.9600   33.8600   44.6560 C   0  0  0  0  0  0  0  0  0  0  0  0
   47.0790   33.1140   44.2430 C   0  0  0  0  0  0  0  0  0  0  0  0
   47.7440   33.5150   43.1190 N   0  0  0  0  0  0  0  0  0  0  0  0
   47.3500   34.5980   42.4110 C   0  0  0  0  0  0  0  0  0  0  0  0
   46.2840   35.3270   42.7860 N   0  0  0  0  0  0  0  0  0  0  0  0
   44.4080   35.7640   44.3250 C   0  0  0  0  0  0  0  0  0  0  0  0
   48.1600   34.9390   41.1950 C   0  0  0  0  0  0  0  0  0  0  0  0
   49.1460   36.0280   41.4690 C   0  0  0  0  0  0  0  0  0  0  0  0
   45.3886   33.5801   45.5533 H   0  0  0  0  0  0  0  0  0  0  0  0
   47.4097   32.2313   44.8100 H   0  0  0  0  0  0  0  0  0  0  0  0
   44.3745   35.7861   45.4243 H   0  0  0  0  0  0  0  0  0  0  0  0
   44.4816   36.7917   43.9397 H   0  0  0  0  0  0  0  0  0  0  0  0
   43.4919   35.2926   43.9397 H   0  0  0  0  0  0  0  0  0  0  0  0
   47.4799   35.2681   40.3956 H   0  0  0  0  0  0  0  0  0  0  0  0
   48.7193   34.0405   40.8953 H   0  0  0  0  0  0  0  0  0  0  0  0
   49.2603   36.1542   42.5557 H   0  0  0  0  0  0  0  0  0  0  0  0
   50.1175   35.7629   41.0265 H   0  0  0  0  0  0  0  0  0  0  0  0
   48.7860   36.9685   41.0265 H   0  0  0  0  0  0  0  0  0  0  0  0
  1  7  1  0
  1  2  2  0
  3  2  1  0
  4  3  2  0
  5  6  2  0
  5  4  1  0
  6  1  1  0
  8  9  1  0
  8  5  1  0
  2 10  1  0
  3 11  1  0
  7 12  1  0
  7 13  1  0
  7 14  1  0
  8 15  1  0
  8 16  1  0
  9 17  1  0
  9 18  1  0
  9 19  1  0
M  ISO  8  10  14  11  14  12   8  13   8  14   8  15   8  16   8  17   8
M  ISO  2  18   8  19   8
M  END
>  <minimizedAffinity>  (1) 
-3.56921315

>  <minimizedRMSD>  (1) 
4.12103796

$$$$
