
     RDKit          3D

 43 45  0  0  0  0  0  0  0  0999 V2000
   43.6080   35.3030   42.3500 C   0  0  0  0  0  0  0  0  0  0  0  0
   42.5860   35.0880   41.4660 C   0  0  0  0  0  0  0  0  0  0  0  0
   42.8770   34.5020   40.2510 C   0  0  0  0  0  0  0  0  0  0  0  0
   44.1490   34.1140   39.8590 C   0  0  0  0  0  0  0  0  0  0  0  0
   45.1730   34.3460   40.7810 C   0  0  0  0  0  0  0  0  0  0  0  0
   44.8960   34.9300   41.9990 C   0  0  0  0  0  0  0  0  0  0  0  0
   41.1840   35.4620   41.7850 C   0  0  0  0  0  0  0  0  0  0  0  0
   39.1410   32.4340   41.2550 C   0  0  0  0  0  0  0  0  0  0  0  0
   38.3780   32.7860   40.1470 C   0  0  0  0  0  0  0  0  0  0  0  0
   38.5740   34.0460   39.5990 C   0  0  0  0  0  0  0  0  0  0  0  0
   39.4830   34.8690   40.1560 N   0  0  0  0  0  0  0  0  0  0  0  0
   40.2140   34.5050   41.2350 C   0  0  0  0  0  0  0  0  0  0  0  0
   40.0280   33.2990   41.7600 N   0  0  0  0  0  0  0  0  0  0  0  0
   43.3720   35.8820   43.5760 O   0  0  0  0  0  0  0  0  0  0  0  0
   45.9530   35.1300   42.8630 O   0  0  0  0  0  0  0  0  0  0  0  0
   46.8860   34.1160   42.9890 C   0  0  0  0  0  0  0  0  0  0  0  0
   46.4720   32.9390   43.5620 C   0  0  0  0  0  0  0  0  0  0  0  0
   47.3740   31.9050   43.7050 C   0  0  0  0  0  0  0  0  0  0  0  0
   48.6880   32.0370   43.2800 C   0  0  0  0  0  0  0  0  0  0  0  0
   49.0690   33.2450   42.7070 C   0  0  0  0  0  0  0  0  0  0  0  0
   48.1830   34.2980   42.5520 C   0  0  0  0  0  0  0  0  0  0  0  0
   48.6080   35.5100   41.9630 N   0  0  0  0  0  0  0  0  0  0  0  0
   50.4690   33.4710   42.2210 C   0  0  0  0  0  0  0  0  0  0  0  0
   51.0770   32.2790   41.5740 C   0  0  0  0  0  0  0  0  0  0  0  0
   42.0473   34.3320   39.5491 H   0  0  0  0  0  0  0  0  0  0  0  0
   44.3408   33.6508   38.8799 H   0  0  0  0  0  0  0  0  0  0  0  0
   46.2063   34.0610   40.5337 H   0  0  0  0  0  0  0  0  0  0  0  0
   41.0667   35.4961   42.8782 H   0  0  0  0  0  0  0  0  0  0  0  0
   40.9849   36.4432   41.3295 H   0  0  0  0  0  0  0  0  0  0  0  0
   39.0152   31.4435   41.7167 H   0  0  0  0  0  0  0  0  0  0  0  0
   37.6430   32.0885   39.7188 H   0  0  0  0  0  0  0  0  0  0  0  0
   37.9945   34.3682   38.7213 H   0  0  0  0  0  0  0  0  0  0  0  0
   44.1214   36.0314   44.2054 H   0  0  0  0  0  0  0  0  0  0  0  0
   45.4328   32.8218   43.9032 H   0  0  0  0  0  0  0  0  0  0  0  0
   47.0460   30.9604   44.1635 H   0  0  0  0  0  0  0  0  0  0  0  0
   49.4061   31.2115   43.3929 H   0  0  0  0  0  0  0  0  0  0  0  0
   47.9435   36.2889   41.8509 H   0  0  0  0  0  0  0  0  0  0  0  0
   49.5823   35.6145   41.6457 H   0  0  0  0  0  0  0  0  0  0  0  0
   50.4544   34.2931   41.4903 H   0  0  0  0  0  0  0  0  0  0  0  0
   51.0818   33.7049   43.1040 H   0  0  0  0  0  0  0  0  0  0  0  0
   51.4321   31.5828   42.3481 H   0  0  0  0  0  0  0  0  0  0  0  0
   50.3244   31.7779   40.9475 H   0  0  0  0  0  0  0  0  0  0  0  0
   51.9245   32.5941   40.9475 H   0  0  0  0  0  0  0  0  0  0  0  0
  1 14  1  0
  2  7  1  0
  2  1  2  0
  3  2  1  0
  4  3  2  0
  4  5  1  0
  5  6  2  0
  6  1  1  0
  6 15  1  0
  8 13  2  0
  9  8  1  0
 10  9  2  0
 10 11  1  0
 11 12  2  0
 12 13  1  0
 12  7  1  0
 15 16  1  0
 16 17  2  0
 17 18  1  0
 19 18  2  0
 20 19  1  0
 21 20  2  0
 21 16  1  0
 22 21  1  0
 23 20  1  0
 24 23  1  0
  3 25  1  0
  4 26  1  0
  5 27  1  0
  7 28  1  0
  7 29  1  0
  8 30  1  0
  9 31  1  0
 10 32  1  0
 14 33  1  0
 17 34  1  0
 18 35  1  0
 19 36  1  0
 22 37  1  0
 22 38  1  0
 23 39  1  0
 23 40  1  0
 24 41  1  0
 24 42  1  0
 24 43  1  0
M  ISO  8  25  14  26  14  27  14  28   8  29   8  30  14  31  14  32  14
M  ISO  8  33   3  34  14  35  14  36  14  39   8  40   8  41   8  42   8
M  ISO  1  43   8
M  END
>  <minimizedAffinity>  (1) 
-6.27495432

>  <minimizedRMSD>  (1) 
0.45329085

$$$$
