
     RDKit          3D

 23 24  0  0  0  0  0  0  0  0999 V2000
   45.8510   33.2720   46.4140 C   0  0  0  0  0  0  0  0  0  0  0  0
   45.1200   33.1190   47.6210 C   0  0  0  0  0  0  0  0  0  0  0  0
   45.5530   32.1750   48.4950 C   0  0  0  0  0  0  0  0  0  0  0  0
   46.6900   31.3970   48.1780 C   0  0  0  0  0  0  0  0  0  0  0  0
   47.1840   32.0330   46.5430 S   0  0  0  0  0  0  0  0  0  0  0  0
   44.4590   36.0620   44.3990 C   0  0  0  0  0  0  0  0  0  0  0  0
   45.1570   35.8560   43.1890 C   0  0  0  0  0  0  0  0  0  0  0  0
   46.0680   34.7850   43.1060 C   0  0  0  0  0  0  0  0  0  0  0  0
   46.2210   33.9990   44.2220 N   0  0  0  0  0  0  0  0  0  0  0  0
   45.5270   34.2410   45.3510 C   0  0  0  0  0  0  0  0  0  0  0  0
   44.6460   35.2670   45.4520 N   0  0  0  0  0  0  0  0  0  0  0  0
   47.3400   30.3630   48.9030 C   0  0  0  0  0  0  0  0  0  0  0  0
   48.7060   30.7620   49.3880 C   0  0  0  0  0  0  0  0  0  0  0  0
   44.2387   33.7400   47.8392 H   0  0  0  0  0  0  0  0  0  0  0  0
   45.0219   32.0162   49.4451 H   0  0  0  0  0  0  0  0  0  0  0  0
   43.7459   36.8962   44.4740 H   0  0  0  0  0  0  0  0  0  0  0  0
   44.9924   36.5196   42.3273 H   0  0  0  0  0  0  0  0  0  0  0  0
   46.6343   34.5860   42.1842 H   0  0  0  0  0  0  0  0  0  0  0  0
   46.7206   30.1011   49.7735 H   0  0  0  0  0  0  0  0  0  0  0  0
   47.4668   29.5093   48.2209 H   0  0  0  0  0  0  0  0  0  0  0  0
   48.7180   30.7655   50.4879 H   0  0  0  0  0  0  0  0  0  0  0  0
   49.4515   30.0441   49.0155 H   0  0  0  0  0  0  0  0  0  0  0  0
   48.9479   31.7683   49.0155 H   0  0  0  0  0  0  0  0  0  0  0  0
  1  5  1  0
  1  2  2  0
  2  3  1  0
  4  3  2  0
  4 12  1  0
  5  4  1  0
  6 11  2  0
  7  6  1  0
  8  7  2  0
  8  9  1  0
  9 10  2  0
 10 11  1  0
 10  1  1  0
 12 13  1  0
  2 14  1  0
  3 15  1  0
  6 16  1  0
  7 17  1  0
  8 18  1  0
 12 19  1  0
 12 20  1  0
 13 21  1  0
 13 22  1  0
 13 23  1  0
M  ISO  8  14  14  15  14  16  14  17  14  18  14  19   8  20   8  21   8
M  ISO  2  22   8  23   8
M  END
>  <minimizedAffinity>  (1) 
-4.23144913

>  <minimizedRMSD>  (1) 
0.82932663

$$$$
