
     RDKit          3D

 23 24  0  0  0  0  0  0  0  0999 V2000
   45.2750   34.3740   44.6180 C   0  0  0  0  0  0  0  0  0  0  0  0
   45.6870   35.0000   43.4270 C   0  0  0  0  0  0  0  0  0  0  0  0
   46.8970   34.5210   42.9250 C   0  0  0  0  0  0  0  0  0  0  0  0
   47.5930   33.5170   43.5780 N   0  0  0  0  0  0  0  0  0  0  0  0
   47.1420   32.9610   44.7110 C   0  0  0  0  0  0  0  0  0  0  0  0
   45.9680   33.4050   45.2270 N   0  0  0  0  0  0  0  0  0  0  0  0
   47.3730   35.0670   41.5980 C   0  0  0  0  0  0  0  0  0  0  0  0
   48.8050   35.6190   41.7300 C   0  0  0  0  0  0  0  0  0  0  0  0
   48.4070   34.3520   40.9050 C   0  0  0  0  0  0  0  0  0  0  0  0
   44.9120   36.0540   42.7820 C   0  0  0  0  0  0  0  0  0  0  0  0
   43.8110   35.6010   41.8860 C   0  0  0  0  0  0  0  0  0  0  0  0
   44.3288   34.7000   45.0746 H   0  0  0  0  0  0  0  0  0  0  0  0
   47.7104   32.1631   45.2112 H   0  0  0  0  0  0  0  0  0  0  0  0
   46.3971   35.4331   41.2466 H   0  0  0  0  0  0  0  0  0  0  0  0
   49.0981   36.5510   41.2245 H   0  0  0  0  0  0  0  0  0  0  0  0
   49.5022   35.8632   42.5450 H   0  0  0  0  0  0  0  0  0  0  0  0
   48.7103   33.3548   41.2566 H   0  0  0  0  0  0  0  0  0  0  0  0
   48.5561   34.0367   39.8617 H   0  0  0  0  0  0  0  0  0  0  0  0
   44.4678   36.6767   43.5725 H   0  0  0  0  0  0  0  0  0  0  0  0
   45.6213   36.5883   42.1329 H   0  0  0  0  0  0  0  0  0  0  0  0
   42.9633   35.2522   42.4942 H   0  0  0  0  0  0  0  0  0  0  0  0
   43.4867   36.4388   41.2512 H   0  0  0  0  0  0  0  0  0  0  0  0
   44.1702   34.7776   41.2512 H   0  0  0  0  0  0  0  0  0  0  0  0
  1  6  2  0
  2  1  1  0
  3  2  2  0
  3  4  1  0
  4  5  2  0
  5  6  1  0
  7  8  1  0
  7  3  1  0
  9  7  1  0
  9  8  1  0
 10  2  1  0
 11 10  1  0
  1 12  1  0
  5 13  1  0
  7 14  1  0
  8 15  1  0
  8 16  1  0
  9 17  1  0
  9 18  1  0
 10 19  1  0
 10 20  1  0
 11 21  1  0
 11 22  1  0
 11 23  1  0
M  ISO  8  12  14  13  14  14  13  15  13  16  13  17  13  18  13  19   8
M  ISO  4  20   8  21   8  22   8  23   8
M  END
>  <minimizedAffinity>  (1) 
-3.93499517

>  <minimizedRMSD>  (1) 
1.30601895

$$$$
