
     RDKit          3D

 37 39  0  0  0  0  0  0  0  0999 V2000
   45.1680   33.6450   43.5490 C   0  0  0  0  0  0  0  0  0  0  0  0
   45.0810   34.9060   44.0840 C   0  0  0  0  0  0  0  0  0  0  0  0
   44.1620   35.6280   43.3580 C   0  0  0  0  0  0  0  0  0  0  0  0
   43.7190   34.7540   42.3890 C   0  0  0  0  0  0  0  0  0  0  0  0
   44.3360   33.6440   42.5610 O   0  0  0  0  0  0  0  0  0  0  0  0
   42.7240   35.0780   41.3720 C   0  0  0  0  0  0  0  0  0  0  0  0
   43.0180   34.9290   40.0340 C   0  0  0  0  0  0  0  0  0  0  0  0
   42.1240   35.2190   39.0200 C   0  0  0  0  0  0  0  0  0  0  0  0
   40.8860   35.6820   39.4810 C   0  0  0  0  0  0  0  0  0  0  0  0
   40.5620   35.8420   40.8000 C   0  0  0  0  0  0  0  0  0  0  0  0
   41.5110   35.5290   41.7120 N   0  0  0  0  0  0  0  0  0  0  0  0
   46.0630   32.5660   44.0680 C   0  0  0  0  0  0  0  0  0  0  0  0
   49.3290   31.6200   42.6690 C   0  0  0  0  0  0  0  0  0  0  0  0
   49.9390   32.8540   42.3910 C   0  0  0  0  0  0  0  0  0  0  0  0
   49.2110   33.9820   42.6930 C   0  0  0  0  0  0  0  0  0  0  0  0
   47.9650   33.8720   43.2320 N   0  0  0  0  0  0  0  0  0  0  0  0
   47.4240   32.6720   43.4780 C   0  0  0  0  0  0  0  0  0  0  0  0
   48.1150   31.5430   43.1930 N   0  0  0  0  0  0  0  0  0  0  0  0
   51.2210   32.8310   41.8370 N   0  0  0  0  0  0  0  0  0  0  0  0
   49.9070   35.2580   42.3760 C   0  0  0  0  0  0  0  0  0  0  0  0
   49.1550   36.1410   41.4290 C   0  0  0  0  0  0  0  0  0  0  0  0
   45.6507   35.2773   44.9486 H   0  0  0  0  0  0  0  0  0  0  0  0
   43.8502   36.6710   43.5159 H   0  0  0  0  0  0  0  0  0  0  0  0
   44.0168   34.5598   39.7581 H   0  0  0  0  0  0  0  0  0  0  0  0
   42.3627   35.0975   37.9531 H   0  0  0  0  0  0  0  0  0  0  0  0
   40.1217   35.9343   38.7312 H   0  0  0  0  0  0  0  0  0  0  0  0
   39.5716   36.2097   41.1065 H   0  0  0  0  0  0  0  0  0  0  0  0
   46.1373   32.6555   45.1618 H   0  0  0  0  0  0  0  0  0  0  0  0
   45.6352   31.5918   43.7889 H   0  0  0  0  0  0  0  0  0  0  0  0
   49.8747   30.6914   42.4453 H   0  0  0  0  0  0  0  0  0  0  0  0
   51.7034   33.7144   41.6182 H   0  0  0  0  0  0  0  0  0  0  0  0
   51.6840   31.9307   41.6473 H   0  0  0  0  0  0  0  0  0  0  0  0
   50.0625   35.8100   43.3147 H   0  0  0  0  0  0  0  0  0  0  0  0
   50.8524   34.9913   41.8809 H   0  0  0  0  0  0  0  0  0  0  0  0
   48.5456   36.8566   42.0004 H   0  0  0  0  0  0  0  0  0  0  0  0
   49.8673   36.6899   40.7954 H   0  0  0  0  0  0  0  0  0  0  0  0
   48.4997   35.5252   40.7954 H   0  0  0  0  0  0  0  0  0  0  0  0
  1 12  1  0
  1  2  2  0
  3  2  1  0
  4  5  1  0
  4  3  2  0
  5  1  1  0
  6 11  1  0
  6  4  1  0
  7  6  2  0
  8  9  2  0
  8  7  1  0
  9 10  1  0
 10 11  2  0
 13 18  2  0
 14 13  1  0
 14 15  2  0
 15 16  1  0
 16 17  2  0
 17 12  1  0
 18 17  1  0
 19 14  1  0
 20 15  1  0
 21 20  1  0
  2 22  1  0
  3 23  1  0
  7 24  1  0
  8 25  1  0
  9 26  1  0
 10 27  1  0
 12 28  1  0
 12 29  1  0
 13 30  1  0
 19 31  1  0
 19 32  1  0
 20 33  1  0
 20 34  1  0
 21 35  1  0
 21 36  1  0
 21 37  1  0
M  ISO  8  22  14  23  14  24  14  25  14  26  14  27  14  28   8  29   8
M  ISO  6  30  14  33   8  34   8  35   8  36   8  37   8
M  END
>  <minimizedAffinity>  (1) 
-5.86689472

>  <minimizedRMSD>  (1) 
1.16262686

$$$$
