
     RDKit          3D

 36 39  0  0  0  0  0  0  0  0999 V2000
   47.3950   31.3620   45.2410 C   0  0  0  0  0  0  0  0  0  0  0  0
   46.9160   32.6570   45.1170 C   0  0  0  0  0  0  0  0  0  0  0  0
   46.2080   33.2840   46.1330 C   0  0  0  0  0  0  0  0  0  0  0  0
   45.9560   32.6180   47.3240 C   0  0  0  0  0  0  0  0  0  0  0  0
   45.3190   32.9110   48.4920 N   0  0  0  0  0  0  0  0  0  0  0  0
   45.4030   31.8310   49.3060 C   0  0  0  0  0  0  0  0  0  0  0  0
   46.0970   30.8770   48.6290 N   0  0  0  0  0  0  0  0  0  0  0  0
   46.4450   31.3400   47.4090 C   0  0  0  0  0  0  0  0  0  0  0  0
   47.1410   30.6910   46.4400 C   0  0  0  0  0  0  0  0  0  0  0  0
   46.5910   35.0980   42.3950 C   0  0  0  0  0  0  0  0  0  0  0  0
   47.6410   34.7600   41.5550 C   0  0  0  0  0  0  0  0  0  0  0  0
   48.4620   33.6940   41.9230 C   0  0  0  0  0  0  0  0  0  0  0  0
   48.1850   33.0400   43.0910 N   0  0  0  0  0  0  0  0  0  0  0  0
   47.1570   33.3920   43.8890 C   0  0  0  0  0  0  0  0  0  0  0  0
   46.3570   34.4180   43.5470 N   0  0  0  0  0  0  0  0  0  0  0  0
   47.6200   29.3150   46.6410 C   0  0  0  0  0  0  0  0  0  0  0  0
   48.9530   28.9360   46.6260 C   0  0  0  0  0  0  0  0  0  0  0  0
   48.9250   27.5620   46.8560 C   0  0  0  0  0  0  0  0  0  0  0  0
   47.6010   27.1870   46.9970 C   0  0  0  0  0  0  0  0  0  0  0  0
   46.8670   28.2800   46.8580 O   0  0  0  0  0  0  0  0  0  0  0  0
   47.0670   25.8330   47.2540 C   0  0  0  0  0  0  0  0  0  0  0  0
   47.4900   25.3390   48.6450 C   0  0  0  0  0  0  0  0  0  0  0  0
   47.9545   30.8804   44.4255 H   0  0  0  0  0  0  0  0  0  0  0  0
   45.8452   34.3130   45.9935 H   0  0  0  0  0  0  0  0  0  0  0  0
   44.8531   33.8014   48.7178 H   0  0  0  0  0  0  0  0  0  0  0  0
   44.9888   31.7426   50.3212 H   0  0  0  0  0  0  0  0  0  0  0  0
   45.9326   35.9359   42.1222 H   0  0  0  0  0  0  0  0  0  0  0  0
   47.8217   35.3172   40.6239 H   0  0  0  0  0  0  0  0  0  0  0  0
   49.3087   33.3882   41.2909 H   0  0  0  0  0  0  0  0  0  0  0  0
   49.8340   29.5754   46.4682 H   0  0  0  0  0  0  0  0  0  0  0  0
   49.7983   26.8957   46.9148 H   0  0  0  0  0  0  0  0  0  0  0  0
   45.9687   25.8614   47.1992 H   0  0  0  0  0  0  0  0  0  0  0  0
   47.4687   25.1442   46.4963 H   0  0  0  0  0  0  0  0  0  0  0  0
   46.9800   25.9347   49.4164 H   0  0  0  0  0  0  0  0  0  0  0  0
   47.2143   24.2801   48.7575 H   0  0  0  0  0  0  0  0  0  0  0  0
   48.5787   25.4484   48.7575 H   0  0  0  0  0  0  0  0  0  0  0  0
  1  9  2  0
  2  1  1  0
  2  3  2  0
  3  4  1  0
  4  8  2  0
  4  5  1  0
  5  6  1  0
  7  6  2  0
  8  7  1  0
  9 16  1  0
  9  8  1  0
 10 15  2  0
 11 12  2  0
 11 10  1  0
 12 13  1  0
 13 14  2  0
 14  2  1  0
 15 14  1  0
 16 20  1  0
 17 16  2  0
 17 18  1  0
 18 19  2  0
 19 21  1  0
 20 19  1  0
 21 22  1  0
  1 23  1  0
  3 24  1  0
  5 25  1  0
  6 26  1  0
 10 27  1  0
 11 28  1  0
 12 29  1  0
 17 30  1  0
 18 31  1  0
 21 32  1  0
 21 33  1  0
 22 34  1  0
 22 35  1  0
 22 36  1  0
M  ISO  8  23  14  24  14  25   9  26  14  27  14  28  14  29  14  30  14
M  ISO  6  31  14  32   8  33   8  34   8  35   8  36   8
M  END
>  <minimizedAffinity>  (1) 
-5.18218946

>  <minimizedRMSD>  (1) 
0.455226898

$$$$
