
     RDKit          3D

 31 32  0  0  0  0  0  0  0  0999 V2000
   46.6500   34.7350   42.2500 C   0  0  0  0  0  0  0  0  0  0  0  0
   47.9190   35.2710   42.1840 C   0  0  0  0  0  0  0  0  0  0  0  0
   48.6990   35.2150   41.0250 C   0  0  0  0  0  0  0  0  0  0  0  0
   48.1790   34.6010   39.9040 C   0  0  0  0  0  0  0  0  0  0  0  0
   46.9150   34.0660   39.9660 C   0  0  0  0  0  0  0  0  0  0  0  0
   46.1610   34.1340   41.1250 C   0  0  0  0  0  0  0  0  0  0  0  0
   44.4810   35.8780   45.0890 C   0  0  0  0  0  0  0  0  0  0  0  0
   45.1190   35.9100   43.8220 C   0  0  0  0  0  0  0  0  0  0  0  0
   45.9410   34.8500   43.5040 C   0  0  0  0  0  0  0  0  0  0  0  0
   46.1010   33.8450   44.4050 N   0  0  0  0  0  0  0  0  0  0  0  0
   45.4710   33.8580   45.6140 C   0  0  0  0  0  0  0  0  0  0  0  0
   44.6610   34.8790   45.9460 N   0  0  0  0  0  0  0  0  0  0  0  0
   45.6730   32.8120   46.5560 N   0  0  0  0  0  0  0  0  0  0  0  0
   44.9630   37.0910   42.9470 C   0  0  0  0  0  0  0  0  0  0  0  0
   45.3390   38.3240   43.7110 C   0  0  0  0  0  0  0  0  0  0  0  0
   44.7960   33.5400   41.1860 C   0  0  0  0  0  0  0  0  0  0  0  0
   44.6140   32.7660   40.0430 F   0  0  0  0  0  0  0  0  0  0  0  0
   43.8600   34.5520   41.2280 F   0  0  0  0  0  0  0  0  0  0  0  0
   44.5730   32.7590   42.2870 F   0  0  0  0  0  0  0  0  0  0  0  0
   48.3333   35.7613   43.0773 H   0  0  0  0  0  0  0  0  0  0  0  0
   49.7082   35.6522   41.0071 H   0  0  0  0  0  0  0  0  0  0  0  0
   48.7667   34.5409   38.9761 H   0  0  0  0  0  0  0  0  0  0  0  0
   46.4938   33.5738   39.0770 H   0  0  0  0  0  0  0  0  0  0  0  0
   43.8157   36.7074   45.3708 H   0  0  0  0  0  0  0  0  0  0  0  0
   45.1893   32.8371   47.4650 H   0  0  0  0  0  0  0  0  0  0  0  0
   46.3030   32.0293   46.3293 H   0  0  0  0  0  0  0  0  0  0  0  0
   43.9168   37.1680   42.6162 H   0  0  0  0  0  0  0  0  0  0  0  0
   45.6158   36.9880   42.0676 H   0  0  0  0  0  0  0  0  0  0  0  0
   45.2768   38.1199   44.7901 H   0  0  0  0  0  0  0  0  0  0  0  0
   46.3672   38.6166   43.4519 H   0  0  0  0  0  0  0  0  0  0  0  0
   44.6490   39.1406   43.4519 H   0  0  0  0  0  0  0  0  0  0  0  0
  1  9  1  0
  2  1  2  0
  3  2  1  0
  4  5  1  0
  4  3  2  0
  5  6  2  0
  6 16  1  0
  6  1  1  0
  7 12  2  0
  8  7  1  0
  9  8  2  0
  9 10  1  0
 10 11  2  0
 11 12  1  0
 11 13  1  0
 14 15  1  0
 14  8  1  0
 16 18  1  0
 16 19  1  0
 17 16  1  0
  2 20  1  0
  3 21  1  0
  4 22  1  0
  5 23  1  0
  7 24  1  0
 13 25  1  0
 13 26  1  0
 14 27  1  0
 14 28  1  0
 15 29  1  0
 15 30  1  0
 15 31  1  0
M  ISO  8  20  14  21  14  22  14  23  14  24  14  27   8  28   8  29   8
M  ISO  2  30   8  31   8
M  END
>  <minimizedAffinity>  (1) 
-5.31312513

>  <minimizedRMSD>  (1) 
0.356434196

$$$$
