
     RDKit          3D

 35 36  0  0  0  0  0  0  0  0999 V2000
   48.3640   32.7340   42.5230 N   0  0  0  0  0  0  0  0  0  0  0  0
   48.7140   31.5080   43.1460 C   0  0  0  0  0  0  0  0  0  0  0  0
   49.5910   30.8660   42.0590 C   0  0  0  0  0  0  0  0  0  0  0  0
   50.7470   31.6730   41.6450 C   0  0  0  0  0  0  0  0  0  0  0  0
   50.7320   33.1010   42.0230 C   0  0  0  0  0  0  0  0  0  0  0  0
   49.4540   33.7040   42.4640 C   0  0  0  0  0  0  0  0  0  0  0  0
   47.2550   33.0160   41.8120 C   0  0  0  0  0  0  0  0  0  0  0  0
   46.0120   32.7000   42.6110 C   0  0  0  0  0  0  0  0  0  0  0  0
   45.5780   33.9620   43.2440 C   0  0  0  0  0  0  0  0  0  0  0  0
   45.5220   35.1410   42.5430 C   0  0  0  0  0  0  0  0  0  0  0  0
   45.1000   36.3160   43.1710 C   0  0  0  0  0  0  0  0  0  0  0  0
   44.7600   36.2120   44.4870 N   0  0  0  0  0  0  0  0  0  0  0  0
   44.8250   35.0530   45.1390 C   0  0  0  0  0  0  0  0  0  0  0  0
   45.2290   33.9600   44.5120 N   0  0  0  0  0  0  0  0  0  0  0  0
   49.3340   35.1570   42.7200 C   0  0  0  0  0  0  0  0  0  0  0  0
   49.0850   35.8220   41.3820 C   0  0  0  0  0  0  0  0  0  0  0  0
   49.2791   31.6739   44.0751 H   0  0  0  0  0  0  0  0  0  0  0  0
   47.8545   30.8952   43.4555 H   0  0  0  0  0  0  0  0  0  0  0  0
   49.9642   29.9052   42.4433 H   0  0  0  0  0  0  0  0  0  0  0  0
   48.9531   30.7587   41.1693 H   0  0  0  0  0  0  0  0  0  0  0  0
   50.8145   31.6197   40.5484 H   0  0  0  0  0  0  0  0  0  0  0  0
   51.6056   31.2423   42.1811 H   0  0  0  0  0  0  0  0  0  0  0  0
   51.6512   33.7036   41.9777 H   0  0  0  0  0  0  0  0  0  0  0  0
   47.2550   34.0849   41.5523 H   0  0  0  0  0  0  0  0  0  0  0  0
   47.2544   32.4010   40.9000 H   0  0  0  0  0  0  0  0  0  0  0  0
   45.2222   32.3183   41.9472 H   0  0  0  0  0  0  0  0  0  0  0  0
   46.2157   31.9287   43.3684 H   0  0  0  0  0  0  0  0  0  0  0  0
   45.8107   35.1610   41.4818 H   0  0  0  0  0  0  0  0  0  0  0  0
   45.0451   37.2735   42.6322 H   0  0  0  0  0  0  0  0  0  0  0  0
   44.5423   35.0039   46.2009 H   0  0  0  0  0  0  0  0  0  0  0  0
   48.4931   35.3525   43.4016 H   0  0  0  0  0  0  0  0  0  0  0  0
   50.2474   35.5500   43.1904 H   0  0  0  0  0  0  0  0  0  0  0  0
   48.7035   36.8409   41.5443 H   0  0  0  0  0  0  0  0  0  0  0  0
   50.0265   35.8690   40.8150 H   0  0  0  0  0  0  0  0  0  0  0  0
   48.3442   35.2391   40.8150 H   0  0  0  0  0  0  0  0  0  0  0  0
  1  2  1  0
  3  2  1  0
  4  5  1  0
  4  3  1  0
  5  6  2  0
  6  1  1  0
  6 15  1  0
  7  1  1  0
  7  8  1  0
  8  9  1  0
  9 14  2  0
 10 11  2  0
 10  9  1  0
 11 12  1  0
 12 13  2  0
 14 13  1  0
 16 15  1  0
  2 17  1  0
  2 18  1  0
  3 19  1  0
  3 20  1  0
  4 21  1  0
  4 22  1  0
  5 23  1  0
  7 24  1  0
  7 25  1  0
  8 26  1  0
  8 27  1  0
 10 28  1  0
 11 29  1  0
 13 30  1  0
 15 31  1  0
 15 32  1  0
 16 33  1  0
 16 34  1  0
 16 35  1  0
M  ISO  8  17  13  18  13  19  13  20  13  21  13  22  13  23  13  24   8
M  ISO  8  25   8  26   8  27   8  28  14  29  14  30  14  31   8  32   8
M  ISO  3  33   8  34   8  35   8
M  END
>  <minimizedAffinity>  (1) 
-4.32162571

>  <minimizedRMSD>  (1) 
0.945638478

$$$$
