
     RDKit          3D

 22 22  0  0  0  0  0  0  0  0999 V2000
   45.4110   34.9130   44.1600 C   0  0  0  0  0  0  0  0  0  0  0  0
   46.4540   34.4470   43.3620 C   0  0  0  0  0  0  0  0  0  0  0  0
   47.2420   33.4110   43.8650 C   0  0  0  0  0  0  0  0  0  0  0  0
   46.9500   32.9120   45.1040 N   0  0  0  0  0  0  0  0  0  0  0  0
   45.9250   33.3920   45.8510 C   0  0  0  0  0  0  0  0  0  0  0  0
   45.1600   34.3870   45.3800 N   0  0  0  0  0  0  0  0  0  0  0  0
   46.6600   35.0500   42.0700 C   0  0  0  0  0  0  0  0  0  0  0  0
   48.1490   35.2360   41.8470 C   0  0  0  0  0  0  0  0  0  0  0  0
   45.7190   32.7580   47.1780 C   0  0  0  0  0  0  0  0  0  0  0  0
   47.1120   32.3720   47.6630 C   0  0  0  0  0  0  0  0  0  0  0  0
   44.7754   35.7300   43.7877 H   0  0  0  0  0  0  0  0  0  0  0  0
   48.0791   33.0050   43.2780 H   0  0  0  0  0  0  0  0  0  0  0  0
   46.2481   34.3960   41.2873 H   0  0  0  0  0  0  0  0  0  0  0  0
   46.1520   36.0248   42.0281 H   0  0  0  0  0  0  0  0  0  0  0  0
   48.6602   35.2999   42.8189 H   0  0  0  0  0  0  0  0  0  0  0  0
   48.5446   34.3803   41.2802 H   0  0  0  0  0  0  0  0  0  0  0  0
   48.3219   36.1627   41.2802 H   0  0  0  0  0  0  0  0  0  0  0  0
   45.2518   33.4686   47.8757 H   0  0  0  0  0  0  0  0  0  0  0  0
   45.0514   31.8860   47.1155 H   0  0  0  0  0  0  0  0  0  0  0  0
   47.1291   32.3673   48.7629 H   0  0  0  0  0  0  0  0  0  0  0  0
   47.3661   31.3696   47.2880 H   0  0  0  0  0  0  0  0  0  0  0  0
   47.8458   33.1007   47.2880 H   0  0  0  0  0  0  0  0  0  0  0  0
  1  6  2  0
  2  3  2  0
  2  1  1  0
  3  4  1  0
  4  5  2  0
  5  9  1  0
  6  5  1  0
  7  2  1  0
  8  7  1  0
  9 10  1  0
  1 11  1  0
  3 12  1  0
  7 13  1  0
  7 14  1  0
  8 15  1  0
  8 16  1  0
  8 17  1  0
  9 18  1  0
  9 19  1  0
 10 20  1  0
 10 21  1  0
 10 22  1  0
M  ISO  8  11  14  12  14  13   8  14   8  15   8  16   8  17   8  18   8
M  ISO  4  19   8  20   8  21   8  22   8
M  END
>  <minimizedAffinity>  (1) 
-3.53239727

>  <minimizedRMSD>  (1) 
0.88234669

$$$$
