
     RDKit          3D

 42 44  0  0  0  0  0  0  0  0999 V2000
   41.0660   35.9510   39.3200 C   0  0  0  0  0  0  0  0  0  0  0  0
   43.9260   34.6700   41.4530 C   0  0  0  0  0  0  0  0  0  0  0  0
   42.8000   35.4310   41.0350 C   0  0  0  0  0  0  0  0  0  0  0  0
   42.2470   35.1870   39.7940 C   0  0  0  0  0  0  0  0  0  0  0  0
   42.8460   34.1980   39.0380 N   0  0  0  0  0  0  0  0  0  0  0  0
   43.9220   33.5030   39.4940 C   0  0  0  0  0  0  0  0  0  0  0  0
   44.4550   33.7380   40.6890 N   0  0  0  0  0  0  0  0  0  0  0  0
   44.5150   34.9610   42.7980 C   0  0  0  0  0  0  0  0  0  0  0  0
   46.0420   35.3430   42.6740 C   0  0  0  0  0  0  0  0  0  0  0  0
   45.0020   36.2110   43.2270 C   0  0  0  0  0  0  0  0  0  0  0  0
   39.8850   35.6950   40.2580 C   0  0  0  0  0  0  0  0  0  0  0  0
   39.3440   33.4090   40.9370 C   0  0  0  0  0  0  0  0  0  0  0  0
   39.8650   33.5470   42.0770 O   0  0  0  0  0  0  0  0  0  0  0  0
   39.2230   34.4430   39.9680 N   0  0  0  0  0  0  0  0  0  0  0  0
   38.8070   32.0860   40.5350 C   0  0  0  0  0  0  0  0  0  0  0  0
   38.6580   31.7890   39.1950 C   0  0  0  0  0  0  0  0  0  0  0  0
   38.1720   30.6040   38.6980 C   0  0  0  0  0  0  0  0  0  0  0  0
   37.8100   29.6520   39.6440 C   0  0  0  0  0  0  0  0  0  0  0  0
   37.9690   29.9760   40.9670 C   0  0  0  0  0  0  0  0  0  0  0  0
   38.4500   31.1510   41.4280 N   0  0  0  0  0  0  0  0  0  0  0  0
   37.5570   28.8980   41.9210 C   0  0  0  0  0  0  0  0  0  0  0  0
   37.3770   27.5770   41.2050 C   0  0  0  0  0  0  0  0  0  0  0  0
   41.3027   37.0252   39.3127 H   0  0  0  0  0  0  0  0  0  0  0  0
   40.8035   35.6272   38.3020 H   0  0  0  0  0  0  0  0  0  0  0  0
   42.3751   36.2041   41.6920 H   0  0  0  0  0  0  0  0  0  0  0  0
   44.3642   32.7238   38.8557 H   0  0  0  0  0  0  0  0  0  0  0  0
   43.8287   34.2631   43.3000 H   0  0  0  0  0  0  0  0  0  0  0  0
   46.7940   34.8777   43.3282 H   0  0  0  0  0  0  0  0  0  0  0  0
   46.7969   35.3975   41.8758 H   0  0  0  0  0  0  0  0  0  0  0  0
   44.7119   37.1134   42.6688 H   0  0  0  0  0  0  0  0  0  0  0  0
   44.9203   36.7433   44.1862 H   0  0  0  0  0  0  0  0  0  0  0  0
   40.2537   35.6699   41.2941 H   0  0  0  0  0  0  0  0  0  0  0  0
   39.1556   36.5057   40.1141 H   0  0  0  0  0  0  0  0  0  0  0  0
   38.6878   34.3060   39.0987 H   0  0  0  0  0  0  0  0  0  0  0  0
   38.9513   32.5613   38.4687 H   0  0  0  0  0  0  0  0  0  0  0  0
   38.0753   30.4199   37.6178 H   0  0  0  0  0  0  0  0  0  0  0  0
   37.4099   28.6729   39.3419 H   0  0  0  0  0  0  0  0  0  0  0  0
   38.3326   28.7856   42.6929 H   0  0  0  0  0  0  0  0  0  0  0  0
   36.5969   29.1824   42.3764 H   0  0  0  0  0  0  0  0  0  0  0  0
   37.2671   26.7707   41.9452 H   0  0  0  0  0  0  0  0  0  0  0  0
   36.4766   27.6213   40.5747 H   0  0  0  0  0  0  0  0  0  0  0  0
   38.2564   27.3788   40.5747 H   0  0  0  0  0  0  0  0  0  0  0  0
  1  4  1  0
  1 11  1  0
  2  8  1  0
  3  2  2  0
  4  3  1  0
  5  6  1  0
  5  4  2  0
  6  7  2  0
  7  2  1  0
  8 10  1  0
  9  8  1  0
  9 10  1  0
 12 13  2  0
 14 11  1  0
 14 12  1  0
 15 12  1  0
 15 20  1  0
 16 15  2  0
 17 16  1  0
 17 18  2  0
 18 19  1  0
 19 20  2  0
 19 21  1  0
 22 21  1  0
  1 23  1  0
  1 24  1  0
  3 25  1  0
  6 26  1  0
  8 27  1  0
  9 28  1  0
  9 29  1  0
 10 30  1  0
 10 31  1  0
 11 32  1  0
 11 33  1  0
 14 34  1  0
 16 35  1  0
 17 36  1  0
 18 37  1  0
 21 38  1  0
 21 39  1  0
 22 40  1  0
 22 41  1  0
 22 42  1  0
M  ISO  8  23   8  24   8  25  14  26  14  27  13  28  13  29  13  30  13
M  ISO  8  31  13  32   8  33   8  35  14  36  14  37  14  38   8  39   8
M  ISO  3  40   8  41   8  42   8
M  END
>  <minimizedAffinity>  (1) 
-5.18727732

>  <minimizedRMSD>  (1) 
0.325443327

$$$$
