
     RDKit          3D

 36 37  0  0  0  0  0  0  0  0999 V2000
   46.4230   30.7330   46.9930 C   0  0  0  0  0  0  0  0  0  0  0  0
   45.1440   30.2350   46.9680 C   0  0  0  0  0  0  0  0  0  0  0  0
   44.8310   28.9290   47.1780 C   0  0  0  0  0  0  0  0  0  0  0  0
   45.8430   28.0550   47.4300 C   0  0  0  0  0  0  0  0  0  0  0  0
   47.1390   28.5290   47.4610 C   0  0  0  0  0  0  0  0  0  0  0  0
   47.4380   29.8630   47.2450 C   0  0  0  0  0  0  0  0  0  0  0  0
   49.3280   30.2590   48.6930 C   0  0  0  0  0  0  0  0  0  0  0  0
   48.8800   30.4890   49.8750 O   0  0  0  0  0  0  0  0  0  0  0  0
   48.8590   29.9750   47.3700 N   0  0  0  0  0  0  0  0  0  0  0  0
   46.8920   32.1040   46.7760 C   0  0  0  0  0  0  0  0  0  0  0  0
   46.9820   32.4340   45.3100 C   0  0  0  0  0  0  0  0  0  0  0  0
   44.5840   35.1730   45.7060 C   0  0  0  0  0  0  0  0  0  0  0  0
   44.6290   35.8150   44.4500 C   0  0  0  0  0  0  0  0  0  0  0  0
   45.5030   35.2650   43.5040 C   0  0  0  0  0  0  0  0  0  0  0  0
   46.2360   34.1880   43.8170 N   0  0  0  0  0  0  0  0  0  0  0  0
   46.1430   33.6210   45.0440 C   0  0  0  0  0  0  0  0  0  0  0  0
   45.3450   34.0860   45.9730 N   0  0  0  0  0  0  0  0  0  0  0  0
   45.4150   26.6280   47.6510 C   0  0  0  0  0  0  0  0  0  0  0  0
   44.4090   26.5430   48.7780 C   0  0  0  0  0  0  0  0  0  0  0  0
   44.3212   30.9364   46.7654 H   0  0  0  0  0  0  0  0  0  0  0  0
   43.7859   28.5873   47.1451 H   0  0  0  0  0  0  0  0  0  0  0  0
   47.9594   27.8248   47.6636 H   0  0  0  0  0  0  0  0  0  0  0  0
   50.4275   30.2904   48.6992 H   0  0  0  0  0  0  0  0  0  0  0  0
   49.4963   29.8601   46.5691 H   0  0  0  0  0  0  0  0  0  0  0  0
   46.1901   32.8015   47.2564 H   0  0  0  0  0  0  0  0  0  0  0  0
   47.8979   32.1963   47.2116 H   0  0  0  0  0  0  0  0  0  0  0  0
   48.0266   32.6504   45.0419 H   0  0  0  0  0  0  0  0  0  0  0  0
   46.6305   31.5819   44.7097 H   0  0  0  0  0  0  0  0  0  0  0  0
   43.9149   35.5651   46.4861 H   0  0  0  0  0  0  0  0  0  0  0  0
   44.0121   36.6979   44.2266 H   0  0  0  0  0  0  0  0  0  0  0  0
   45.5876   35.7169   42.5047 H   0  0  0  0  0  0  0  0  0  0  0  0
   44.9582   26.2404   46.7284 H   0  0  0  0  0  0  0  0  0  0  0  0
   46.2986   26.0297   47.9181 H   0  0  0  0  0  0  0  0  0  0  0  0
   44.9349   26.5874   49.7431 H   0  0  0  0  0  0  0  0  0  0  0  0
   43.7047   27.3848   48.7051 H   0  0  0  0  0  0  0  0  0  0  0  0
   43.8560   25.5949   48.7051 H   0  0  0  0  0  0  0  0  0  0  0  0
  1  6  1  0
  2  1  2  0
  2  3  1  0
  3  4  2  0
  4  5  1  0
  4 18  1  0
  6  9  1  0
  6  5  2  0
  7  8  2  0
  9  7  1  0
 10  1  1  0
 11 10  1  0
 12 17  2  0
 13 12  1  0
 14 15  1  0
 14 13  2  0
 15 16  2  0
 16 11  1  0
 16 17  1  0
 18 19  1  0
  2 20  1  0
  3 21  1  0
  5 22  1  0
  7 23  1  0
  9 24  1  0
 10 25  1  0
 10 26  1  0
 11 27  1  0
 11 28  1  0
 12 29  1  0
 13 30  1  0
 14 31  1  0
 18 32  1  0
 18 33  1  0
 19 34  1  0
 19 35  1  0
 19 36  1  0
M  ISO  8  20  14  21  14  22  14  23   6  25   8  26   8  27   8  28   8
M  ISO  8  29  14  30  14  31  14  32   8  33   8  34   8  35   8  36   8
M  END
>  <minimizedAffinity>  (1) 
-4.51287222

>  <minimizedRMSD>  (1) 
2.18964767

$$$$
