
     RDKit          3D

 25 26  0  0  0  0  0  0  0  0999 V2000
   46.7600   34.7800   42.0430 C   0  0  0  0  0  0  0  0  0  0  0  0
   47.9760   35.3680   41.8230 C   0  0  0  0  0  0  0  0  0  0  0  0
   48.7050   35.2520   40.6640 C   0  0  0  0  0  0  0  0  0  0  0  0
   48.2020   34.4990   39.6340 C   0  0  0  0  0  0  0  0  0  0  0  0
   46.9730   33.9100   39.8650 C   0  0  0  0  0  0  0  0  0  0  0  0
   46.2870   34.0420   41.0090 N   0  0  0  0  0  0  0  0  0  0  0  0
   44.4670   35.9540   44.8090 C   0  0  0  0  0  0  0  0  0  0  0  0
   45.1100   35.9630   43.5600 C   0  0  0  0  0  0  0  0  0  0  0  0
   46.0120   34.9220   43.2850 C   0  0  0  0  0  0  0  0  0  0  0  0
   46.2030   33.9820   44.2370 N   0  0  0  0  0  0  0  0  0  0  0  0
   45.5740   33.9980   45.4260 C   0  0  0  0  0  0  0  0  0  0  0  0
   44.7130   34.9790   45.7090 N   0  0  0  0  0  0  0  0  0  0  0  0
   46.3000   33.0620   38.8400 C   0  0  0  0  0  0  0  0  0  0  0  0
   46.8040   33.3590   37.4460 C   0  0  0  0  0  0  0  0  0  0  0  0
   48.4010   35.9783   42.6335 H   0  0  0  0  0  0  0  0  0  0  0  0
   49.6777   35.7557   40.5638 H   0  0  0  0  0  0  0  0  0  0  0  0
   48.7423   34.3718   38.6843 H   0  0  0  0  0  0  0  0  0  0  0  0
   43.7528   36.7531   45.0569 H   0  0  0  0  0  0  0  0  0  0  0  0
   44.9142   36.7566   42.8239 H   0  0  0  0  0  0  0  0  0  0  0  0
   45.7683   33.2051   46.1633 H   0  0  0  0  0  0  0  0  0  0  0  0
   46.4935   32.0040   39.0706 H   0  0  0  0  0  0  0  0  0  0  0  0
   45.2227   33.2824   38.8680 H   0  0  0  0  0  0  0  0  0  0  0  0
   47.7501   33.9165   37.5092 H   0  0  0  0  0  0  0  0  0  0  0  0
   46.9703   32.4145   36.9072 H   0  0  0  0  0  0  0  0  0  0  0  0
   46.0583   33.9621   36.9072 H   0  0  0  0  0  0  0  0  0  0  0  0
  1  9  1  0
  2  1  2  0
  3  2  1  0
  4  5  1  0
  4  3  2  0
  5  6  2  0
  6  1  1  0
  7 12  2  0
  8  7  1  0
  9  8  2  0
  9 10  1  0
 10 11  2  0
 11 12  1  0
 13  5  1  0
 14 13  1  0
  2 15  1  0
  3 16  1  0
  4 17  1  0
  7 18  1  0
  8 19  1  0
 11 20  1  0
 13 21  1  0
 13 22  1  0
 14 23  1  0
 14 24  1  0
 14 25  1  0
M  ISO  8  15  14  16  14  17  14  18  14  19  14  20  14  21   8  22   8
M  ISO  3  23   8  24   8  25   8
M  END
>  <minimizedAffinity>  (1) 
-4.92172146

>  <minimizedRMSD>  (1) 
0.184399471

$$$$
