
     RDKit          3D

 32 33  0  0  0  0  0  0  0  0999 V2000
   46.8030   32.7430   46.1580 C   0  0  0  0  0  0  0  0  0  0  0  0
   46.2590   31.9110   47.2480 C   0  0  0  0  0  0  0  0  0  0  0  0
   45.5420   32.3320   48.3750 C   0  0  0  0  0  0  0  0  0  0  0  0
   44.9860   31.4880   49.3020 C   0  0  0  0  0  0  0  0  0  0  0  0
   45.1640   30.1630   49.0720 C   0  0  0  0  0  0  0  0  0  0  0  0
   45.8710   29.7090   47.9710 C   0  0  0  0  0  0  0  0  0  0  0  0
   46.4450   30.5780   47.0270 C   0  0  0  0  0  0  0  0  0  0  0  0
   47.2440   29.5770   46.2580 C   0  0  0  0  0  0  0  0  0  0  0  0
   48.6930   29.5040   46.8340 C   0  0  0  0  0  0  0  0  0  0  0  0
   46.0300   32.6020   44.8900 C   0  0  0  0  0  0  0  0  0  0  0  0
   44.5690   36.0080   44.7840 C   0  0  0  0  0  0  0  0  0  0  0  0
   44.9910   36.4620   43.5050 C   0  0  0  0  0  0  0  0  0  0  0  0
   45.7490   35.5910   42.7590 C   0  0  0  0  0  0  0  0  0  0  0  0
   46.0500   34.3940   43.2420 N   0  0  0  0  0  0  0  0  0  0  0  0
   45.6220   33.9920   44.4780 C   0  0  0  0  0  0  0  0  0  0  0  0
   44.8980   34.7830   45.2290 N   0  0  0  0  0  0  0  0  0  0  0  0
   46.7762   33.7969   46.4719 H   0  0  0  0  0  0  0  0  0  0  0  0
   47.8312   32.4050   45.9614 H   0  0  0  0  0  0  0  0  0  0  0  0
   45.4161   33.4141   48.5271 H   0  0  0  0  0  0  0  0  0  0  0  0
   44.4315   31.8613   50.1756 H   0  0  0  0  0  0  0  0  0  0  0  0
   44.7373   29.4330   49.7756 H   0  0  0  0  0  0  0  0  0  0  0  0
   45.9881   28.6244   47.8296 H   0  0  0  0  0  0  0  0  0  0  0  0
   47.2858   29.8773   45.2006 H   0  0  0  0  0  0  0  0  0  0  0  0
   46.7684   28.5888   46.3435 H   0  0  0  0  0  0  0  0  0  0  0  0
   48.6512   29.5061   47.9332 H   0  0  0  0  0  0  0  0  0  0  0  0
   49.1793   28.5802   46.4873 H   0  0  0  0  0  0  0  0  0  0  0  0
   49.2697   30.3742   46.4873 H   0  0  0  0  0  0  0  0  0  0  0  0
   46.6581   32.1444   44.1115 H   0  0  0  0  0  0  0  0  0  0  0  0
   45.1510   31.9559   45.0310 H   0  0  0  0  0  0  0  0  0  0  0  0
   43.9632   36.6700   45.4202 H   0  0  0  0  0  0  0  0  0  0  0  0
   44.7242   37.4613   43.1305 H   0  0  0  0  0  0  0  0  0  0  0  0
   46.1056   35.8874   41.7615 H   0  0  0  0  0  0  0  0  0  0  0  0
  1  2  1  0
  2  3  2  0
  3  4  1  0
  5  4  2  0
  6  5  1  0
  7  2  1  0
  7  6  2  0
  8  9  1  0
  8  7  1  0
 10  1  1  0
 11 16  2  0
 12 11  1  0
 13 14  1  0
 13 12  2  0
 14 15  2  0
 15 10  1  0
 15 16  1  0
  1 17  1  0
  1 18  1  0
  3 19  1  0
  4 20  1  0
  5 21  1  0
  6 22  1  0
  8 23  1  0
  8 24  1  0
  9 25  1  0
  9 26  1  0
  9 27  1  0
 10 28  1  0
 10 29  1  0
 11 30  1  0
 12 31  1  0
 13 32  1  0
M  ISO  8  17   8  18   8  19  14  20  14  21  14  22  14  23   8  24   8
M  ISO  8  25   8  26   8  27   8  28   8  29   8  30  14  31  14  32  14
M  END
>  <minimizedAffinity>  (1) 
-4.66568422

>  <minimizedRMSD>  (1) 
0.564902544

$$$$
