
     RDKit          3D

 33 35  0  0  1  0  0  0  0  0999 V2000
   44.7530   34.5620   43.3080 C   0  0  1  0  0  0  0  0  0  0  0  0
   45.4380   35.7680   43.0430 C   0  0  0  0  0  0  0  0  0  0  0  0
   44.9550   35.0010   41.9450 C   0  0  1  0  0  0  0  0  0  0  0  0
   45.9020   34.3940   41.0250 C   0  0  0  0  0  0  0  0  0  0  0  0
   45.4940   33.5510   40.0130 C   0  0  0  0  0  0  0  0  0  0  0  0
   46.3200   32.9540   39.1130 C   0  0  0  0  0  0  0  0  0  0  0  0
   47.6420   33.1870   39.1960 C   0  0  0  0  0  0  0  0  0  0  0  0
   48.1210   34.0060   40.1700 C   0  0  0  0  0  0  0  0  0  0  0  0
   47.2590   34.6120   41.0880 C   0  0  0  0  0  0  0  0  0  0  0  0
   47.9450   35.4480   42.0760 C   0  0  0  0  0  0  0  0  0  0  0  0
   49.2110   36.1080   41.4560 C   0  0  0  0  0  0  0  0  0  0  0  0
   45.4230   33.3840   43.9110 C   0  0  0  0  0  0  0  0  0  0  0  0
   44.9790   32.0950   43.4510 C   0  0  0  0  0  0  0  0  0  0  0  0
   45.6190   30.9970   43.9890 C   0  0  0  0  0  0  0  0  0  0  0  0
   46.6030   31.2140   44.8980 N   0  0  0  0  0  0  0  0  0  0  0  0
   46.9850   32.4610   45.3030 C   0  0  0  0  0  0  0  0  0  0  0  0
   46.4030   33.5790   44.8200 N   0  0  0  0  0  0  0  0  0  0  0  0
   43.8740   34.2652   43.8989 H   0  0  0  0  0  0  0  0  0  0  0  0
   44.9645   36.7303   43.2875 H   0  0  0  0  0  0  0  0  0  0  0  0
   46.4206   36.1736   43.3259 H   0  0  0  0  0  0  0  0  0  0  0  0
   44.2802   35.1457   41.0884 H   0  0  0  0  0  0  0  0  0  0  0  0
   44.4168   33.3456   39.9271 H   0  0  0  0  0  0  0  0  0  0  0  0
   45.9149   32.2934   38.3323 H   0  0  0  0  0  0  0  0  0  0  0  0
   48.3322   32.7174   38.4796 H   0  0  0  0  0  0  0  0  0  0  0  0
   49.2027   34.1943   40.2363 H   0  0  0  0  0  0  0  0  0  0  0  0
   47.2592   36.2360   42.4204 H   0  0  0  0  0  0  0  0  0  0  0  0
   48.2545   34.8147   42.9205 H   0  0  0  0  0  0  0  0  0  0  0  0
   49.8755   36.4544   42.2612 H   0  0  0  0  0  0  0  0  0  0  0  0
   49.7413   35.3716   40.8343 H   0  0  0  0  0  0  0  0  0  0  0  0
   48.9109   36.9644   40.8343 H   0  0  0  0  0  0  0  0  0  0  0  0
   44.1726   31.9903   42.7102 H   0  0  0  0  0  0  0  0  0  0  0  0
   45.3397   29.9760   43.6898 H   0  0  0  0  0  0  0  0  0  0  0  0
   47.7912   32.5572   46.0451 H   0  0  0  0  0  0  0  0  0  0  0  0
  1 12  1  0
  2  1  1  0
  3  2  1  0
  3  1  1  0
  4  9  1  0
  4  3  1  0
  5  4  2  0
  6  7  2  0
  6  5  1  0
  7  8  1  0
  8  9  2  0
  9 10  1  0
 11 10  1  0
 12 17  1  0
 13 12  2  0
 13 14  1  0
 14 15  2  0
 15 16  1  0
 17 16  2  0
  1 18  1  1
  2 19  1  0
  2 20  1  0
  3 21  1  6
  5 22  1  0
  6 23  1  0
  7 24  1  0
  8 25  1  0
 10 26  1  0
 10 27  1  0
 11 28  1  0
 11 29  1  0
 11 30  1  0
 13 31  1  0
 14 32  1  0
 16 33  1  0
M  ISO  8  18  13  19  13  20  13  21  13  22  14  23  14  24  14  25  14
M  ISO  8  26   8  27   8  28   8  29   8  30   8  31  14  32  14  33  14
M  END
>  <minimizedAffinity>  (1) 
-4.60644817

>  <minimizedRMSD>  (1) 
1.09948611

$$$$
