
     RDKit          3D

 27 28  0  0  0  0  0  0  0  0999 V2000
   45.9880   32.7590   47.0600 C   0  0  0  0  0  0  0  0  0  0  0  0
   47.2520   32.4330   47.5210 C   0  0  0  0  0  0  0  0  0  0  0  0
   47.4100   31.6370   48.6470 C   0  0  0  0  0  0  0  0  0  0  0  0
   46.2980   31.1530   49.3280 C   0  0  0  0  0  0  0  0  0  0  0  0
   45.0610   31.4710   48.8790 C   0  0  0  0  0  0  0  0  0  0  0  0
   44.9000   32.2660   47.7540 C   0  0  0  0  0  0  0  0  0  0  0  0
   44.7170   35.3750   44.8440 C   0  0  0  0  0  0  0  0  0  0  0  0
   45.4760   35.2280   43.6810 C   0  0  0  0  0  0  0  0  0  0  0  0
   46.4330   34.2220   43.6530 C   0  0  0  0  0  0  0  0  0  0  0  0
   46.5920   33.4260   44.7510 N   0  0  0  0  0  0  0  0  0  0  0  0
   45.8320   33.6030   45.8660 C   0  0  0  0  0  0  0  0  0  0  0  0
   44.8940   34.5780   45.9140 N   0  0  0  0  0  0  0  0  0  0  0  0
   49.0500   31.2480   49.1970 S   0  0  0  0  0  0  0  0  0  0  0  0
   49.4730   29.6220   48.5200 C   0  0  0  0  0  0  0  0  0  0  0  0
   50.9820   29.5450   48.4090 C   0  0  0  0  0  0  0  0  0  0  0  0
   48.1393   32.8083   46.9900 H   0  0  0  0  0  0  0  0  0  0  0  0
   46.4219   30.5204   50.2193 H   0  0  0  0  0  0  0  0  0  0  0  0
   44.1750   31.0952   49.4116 H   0  0  0  0  0  0  0  0  0  0  0  0
   43.8848   32.5090   47.4071 H   0  0  0  0  0  0  0  0  0  0  0  0
   43.9526   36.1648   44.8868 H   0  0  0  0  0  0  0  0  0  0  0  0
   45.3208   35.8880   42.8148 H   0  0  0  0  0  0  0  0  0  0  0  0
   47.0545   34.0685   42.7585 H   0  0  0  0  0  0  0  0  0  0  0  0
   49.1062   28.8306   49.1902 H   0  0  0  0  0  0  0  0  0  0  0  0
   49.0075   29.4838   47.5330 H   0  0  0  0  0  0  0  0  0  0  0  0
   51.4231   29.5225   49.4164 H   0  0  0  0  0  0  0  0  0  0  0  0
   51.2635   28.6313   47.8650 H   0  0  0  0  0  0  0  0  0  0  0  0
   51.3550   30.4253   47.8650 H   0  0  0  0  0  0  0  0  0  0  0  0
  1  2  2  0
  1  6  1  0
  2  3  1  0
  3 13  1  0
  3  4  2  0
  5  4  1  0
  6  5  2  0
  7 12  2  0
  8  7  1  0
  9  8  2  0
  9 10  1  0
 10 11  2  0
 11 12  1  0
 11  1  1  0
 14 13  1  0
 15 14  1  0
  2 16  1  0
  4 17  1  0
  5 18  1  0
  6 19  1  0
  7 20  1  0
  8 21  1  0
  9 22  1  0
 14 23  1  0
 14 24  1  0
 15 25  1  0
 15 26  1  0
 15 27  1  0
M  ISO  8  16  14  17  14  18  14  19  14  20  14  21  14  22  14  23   8
M  ISO  4  24   8  25   8  26   8  27   8
M  END
>  <minimizedAffinity>  (1) 
-4.71668291

>  <minimizedRMSD>  (1) 
0.09695822

$$$$
