
     RDKit          3D

 45 47  0  0  0  0  0  0  0  0999 V2000
   46.1270   31.7780   45.2590 C   0  0  0  0  0  0  0  0  0  0  0  0
   47.1020   32.5220   47.4060 C   0  0  0  0  0  0  0  0  0  0  0  0
   47.0080   31.5380   46.3940 C   0  0  0  0  0  0  0  0  0  0  0  0
   47.7350   30.3730   46.5600 C   0  0  0  0  0  0  0  0  0  0  0  0
   48.4910   30.2350   47.6720 N   0  0  0  0  0  0  0  0  0  0  0  0
   48.5560   31.1780   48.6070 C   0  0  0  0  0  0  0  0  0  0  0  0
   47.8670   32.3380   48.4960 N   0  0  0  0  0  0  0  0  0  0  0  0
   49.4180   30.9370   49.8160 C   0  0  0  0  0  0  0  0  0  0  0  0
   50.6960   31.6410   49.7700 C   0  0  0  0  0  0  0  0  0  0  0  0
   51.8950   31.1050   49.3180 C   0  0  0  0  0  0  0  0  0  0  0  0
   52.8660   32.0620   49.4290 C   0  0  0  0  0  0  0  0  0  0  0  0
   52.2290   33.1540   49.9450 N   0  0  0  0  0  0  0  0  0  0  0  0
   50.9340   32.9090   50.1520 N   0  0  0  0  0  0  0  0  0  0  0  0
   46.8090   32.7330   44.3340 C   0  0  0  0  0  0  0  0  0  0  0  0
   46.5100   34.7680   43.0340 C   0  0  0  0  0  0  0  0  0  0  0  0
   46.1270   34.0240   44.1300 C   0  0  0  0  0  0  0  0  0  0  0  0
   45.1800   34.3830   45.0120 C   0  0  0  0  0  0  0  0  0  0  0  0
   44.5330   35.5740   44.8230 C   0  0  0  0  0  0  0  0  0  0  0  0
   44.8290   36.3880   43.7730 C   0  0  0  0  0  0  0  0  0  0  0  0
   45.8180   35.9590   42.8980 C   0  0  0  0  0  0  0  0  0  0  0  0
   47.7450   34.4510   41.9080 S   0  0  0  0  0  0  0  0  0  0  0  0
   48.5210   35.6820   41.5080 O   0  0  0  0  0  0  0  0  0  0  0  0
   47.0660   33.9950   40.5950 O   0  0  0  0  0  0  0  0  0  0  0  0
   48.9070   33.2060   42.1130 C   0  0  0  0  0  0  0  0  0  0  0  0
   50.2450   33.9400   42.4340 C   0  0  0  0  0  0  0  0  0  0  0  0
   45.9269   30.8312   44.7359 H   0  0  0  0  0  0  0  0  0  0  0  0
   45.1702   32.1984   45.6022 H   0  0  0  0  0  0  0  0  0  0  0  0
   46.5362   33.4592   47.2985 H   0  0  0  0  0  0  0  0  0  0  0  0
   47.6987   29.5757   45.8031 H   0  0  0  0  0  0  0  0  0  0  0  0
   48.8681   31.2717   50.7079 H   0  0  0  0  0  0  0  0  0  0  0  0
   49.6426   29.8605   49.8437 H   0  0  0  0  0  0  0  0  0  0  0  0
   52.0393   30.0838   48.9355 H   0  0  0  0  0  0  0  0  0  0  0  0
   53.9290   31.9716   49.1609 H   0  0  0  0  0  0  0  0  0  0  0  0
   52.6896   34.0525   50.1485 H   0  0  0  0  0  0  0  0  0  0  0  0
   47.8100   32.9403   44.7403 H   0  0  0  0  0  0  0  0  0  0  0  0
   46.8195   32.2411   43.3502 H   0  0  0  0  0  0  0  0  0  0  0  0
   44.9305   33.7355   45.8655 H   0  0  0  0  0  0  0  0  0  0  0  0
   43.7547   35.8810   45.5371 H   0  0  0  0  0  0  0  0  0  0  0  0
   44.3070   37.3447   43.6240 H   0  0  0  0  0  0  0  0  0  0  0  0
   46.0670   36.6057   42.0438 H   0  0  0  0  0  0  0  0  0  0  0  0
   48.6210   32.5453   42.9446 H   0  0  0  0  0  0  0  0  0  0  0  0
   48.9915   32.5727   41.2176 H   0  0  0  0  0  0  0  0  0  0  0  0
   50.3724   34.0099   43.5244 H   0  0  0  0  0  0  0  0  0  0  0  0
   51.0851   33.3765   42.0020 H   0  0  0  0  0  0  0  0  0  0  0  0
   50.2212   34.9514   42.0020 H   0  0  0  0  0  0  0  0  0  0  0  0
  1  3  1  0
  2  7  2  0
  3  4  2  0
  3  2  1  0
  4  5  1  0
  5  6  2  0
  6  8  1  0
  7  6  1  0
  9  8  1  0
  9 13  2  0
 10 11  2  0
 10  9  1  0
 11 12  1  0
 12 13  1  0
 14  1  1  0
 15 16  2  0
 16 14  1  0
 16 17  1  0
 18 17  2  0
 19 18  1  0
 20 15  1  0
 20 19  2  0
 21 24  1  0
 21 15  1  0
 22 21  2  0
 23 21  2  0
 24 25  1  0
  1 26  1  0
  1 27  1  0
  2 28  1  0
  4 29  1  0
  8 30  1  0
  8 31  1  0
 10 32  1  0
 11 33  1  0
 12 34  1  0
 14 35  1  0
 14 36  1  0
 17 37  1  0
 18 38  1  0
 19 39  1  0
 20 40  1  0
 24 41  1  0
 24 42  1  0
 25 43  1  0
 25 44  1  0
 25 45  1  0
M  ISO  8  26   8  27   8  28  14  29  14  30   8  31   8  32  14  33  14
M  ISO  8  34   9  35   8  36   8  37  14  38  14  39  14  40  14  41   8
M  ISO  4  42   8  43   8  44   8  45   8
M  END
>  <minimizedAffinity>  (1) 
-5.94646072

>  <minimizedRMSD>  (1) 
0.324026138

$$$$
