
     RDKit          3D

 43 44  0  0  0  0  0  0  0  0999 V2000
   45.2960   34.2330   43.7530 C   0  0  0  0  0  0  0  0  0  0  0  0
   46.4520   34.7460   43.1440 C   0  0  0  0  0  0  0  0  0  0  0  0
   47.6370   34.0810   43.2910 C   0  0  0  0  0  0  0  0  0  0  0  0
   47.6110   32.9540   44.0290 N   0  0  0  0  0  0  0  0  0  0  0  0
   46.5160   32.4740   44.6010 C   0  0  0  0  0  0  0  0  0  0  0  0
   45.3570   33.1150   44.4630 N   0  0  0  0  0  0  0  0  0  0  0  0
   48.9030   34.5090   42.6820 C   0  0  0  0  0  0  0  0  0  0  0  0
   48.7460   35.6590   41.7390 C   0  0  0  0  0  0  0  0  0  0  0  0
   48.6170   35.2650   40.3340 C   0  0  0  0  0  0  0  0  0  0  0  0
   48.0380   34.3540   39.5630 C   0  0  0  0  0  0  0  0  0  0  0  0
   48.2260   34.1890   38.0630 C   0  0  0  0  0  0  0  0  0  0  0  0
   46.4940   31.3280   45.3510 O   0  0  0  0  0  0  0  0  0  0  0  0
   45.5460   30.1120   47.2720 C   0  0  0  0  0  0  0  0  0  0  0  0
   46.0600   31.2080   46.6690 C   0  0  0  0  0  0  0  0  0  0  0  0
   46.1910   32.3710   47.4060 C   0  0  0  0  0  0  0  0  0  0  0  0
   45.8230   32.4630   48.7260 C   0  0  0  0  0  0  0  0  0  0  0  0
   45.3020   31.3460   49.3360 C   0  0  0  0  0  0  0  0  0  0  0  0
   45.1670   30.1760   48.6040 C   0  0  0  0  0  0  0  0  0  0  0  0
   45.3210   28.7150   46.2690 S   0  0  0  0  0  0  0  0  0  0  0  0
   46.4990   28.3650   45.4480 O   0  0  0  0  0  0  0  0  0  0  0  0
   44.2370   29.1160   45.2440 O   0  0  0  0  0  0  0  0  0  0  0  0
   44.5180   27.3590   47.0830 C   0  0  0  0  0  0  0  0  0  0  0  0
   43.2950   27.0120   46.2110 C   0  0  0  0  0  0  0  0  0  0  0  0
   44.3370   34.7600   43.6409 H   0  0  0  0  0  0  0  0  0  0  0  0
   46.4047   35.6736   42.5546 H   0  0  0  0  0  0  0  0  0  0  0  0
   49.5935   34.8073   43.4847 H   0  0  0  0  0  0  0  0  0  0  0  0
   49.2881   33.6594   42.0990 H   0  0  0  0  0  0  0  0  0  0  0  0
   47.8441   36.2200   42.0250 H   0  0  0  0  0  0  0  0  0  0  0  0
   49.6628   36.2618   41.8173 H   0  0  0  0  0  0  0  0  0  0  0  0
   49.1956   35.9588   39.7065 H   0  0  0  0  0  0  0  0  0  0  0  0
   47.3544   33.6482   40.0575 H   0  0  0  0  0  0  0  0  0  0  0  0
   49.0402   33.4744   37.8719 H   0  0  0  0  0  0  0  0  0  0  0  0
   47.2945   33.8116   37.6160 H   0  0  0  0  0  0  0  0  0  0  0  0
   48.4794   35.1616   37.6160 H   0  0  0  0  0  0  0  0  0  0  0  0
   46.6083   33.2615   46.9132 H   0  0  0  0  0  0  0  0  0  0  0  0
   45.9419   33.4054   49.2807 H   0  0  0  0  0  0  0  0  0  0  0  0
   44.9960   31.3802   50.3920 H   0  0  0  0  0  0  0  0  0  0  0  0
   44.7510   29.2810   49.0898 H   0  0  0  0  0  0  0  0  0  0  0  0
   45.1972   26.4964   47.1512 H   0  0  0  0  0  0  0  0  0  0  0  0
   44.2227   27.6201   48.1099 H   0  0  0  0  0  0  0  0  0  0  0  0
   42.4398   26.7693   46.8588 H   0  0  0  0  0  0  0  0  0  0  0  0
   43.0411   27.8736   45.5760 H   0  0  0  0  0  0  0  0  0  0  0  0
   43.5314   26.1455   45.5760 H   0  0  0  0  0  0  0  0  0  0  0  0
  1  6  2  0
  2  3  2  0
  2  1  1  0
  3  4  1  0
  4  5  2  0
  5 12  1  0
  6  5  1  0
  7  3  1  0
  8  7  1  0
  9  8  1  0
 10  9  2  0
 11 10  1  0
 12 14  1  0
 13 18  2  0
 14 13  1  0
 14 15  2  0
 15 16  1  0
 16 17  2  0
 18 17  1  0
 19 22  1  0
 19 13  1  0
 20 19  2  0
 21 19  2  0
 23 22  1  0
  1 24  1  0
  2 25  1  0
  7 26  1  0
  7 27  1  0
  8 28  1  0
  8 29  1  0
  9 30  1  0
 10 31  1  0
 11 32  1  0
 11 33  1  0
 11 34  1  0
 15 35  1  0
 16 36  1  0
 17 37  1  0
 18 38  1  0
 22 39  1  0
 22 40  1  0
 23 41  1  0
 23 42  1  0
 23 43  1  0
M  ISO  8  24  14  25  14  26   8  27   8  28   8  29   8  32   8  33   8
M  ISO  8  34   8  35  14  36  14  37  14  38  14  39   8  40   8  41   8
M  ISO  2  42   8  43   8
M  END
>  <minimizedAffinity>  (1) 
-5.53434944

>  <minimizedRMSD>  (1) 
1.43768466

$$$$
