
     RDKit          3D

 42 44  0  0  1  0  0  0  0  0999 V2000
   44.5780   35.5940   44.6160 C   0  0  0  0  0  0  0  0  0  0  0  0
   45.2280   35.6030   43.3590 C   0  0  0  0  0  0  0  0  0  0  0  0
   46.2990   34.6990   43.1730 C   0  0  0  0  0  0  0  0  0  0  0  0
   46.6490   33.8740   44.1950 N   0  0  0  0  0  0  0  0  0  0  0  0
   46.0100   33.8920   45.3730 C   0  0  0  0  0  0  0  0  0  0  0  0
   44.9610   34.7600   45.5920 N   0  0  0  0  0  0  0  0  0  0  0  0
   46.4280   32.9770   46.4690 C   0  0  2  0  0  0  0  0  0  0  0  0
   46.9590   31.7560   45.7600 C   0  0  0  0  0  0  0  0  0  0  0  0
   46.0960   30.5620   45.7840 C   0  0  0  0  0  0  0  0  0  0  0  0
   45.8220   30.3040   47.2710 C   0  0  0  0  0  0  0  0  0  0  0  0
   45.0250   31.3610   47.8680 C   0  0  0  0  0  0  0  0  0  0  0  0
   45.3840   32.7250   47.4180 C   0  0  0  0  0  0  0  0  0  0  0  0
   44.6820   33.8730   47.9300 N   0  0  0  0  0  0  0  0  0  0  0  0
   46.9890   34.6760   41.8930 C   0  0  0  0  0  0  0  0  0  0  0  0
   48.1320   35.3950   41.7620 C   0  0  0  0  0  0  0  0  0  0  0  0
   48.7700   35.3270   40.5030 C   0  0  0  0  0  0  0  0  0  0  0  0
   48.1660   34.5350   39.5380 C   0  0  0  0  0  0  0  0  0  0  0  0
   47.0320   33.8280   39.6860 C   0  0  0  0  0  0  0  0  0  0  0  0
   46.4360   33.9180   40.9240 N   0  0  0  0  0  0  0  0  0  0  0  0
   46.4690   33.0410   38.6770 O   0  0  0  0  0  0  0  0  0  0  0  0
   45.1480   33.0340   38.5130 C   0  0  0  0  0  0  0  0  0  0  0  0
   43.7410   33.0280   38.3390 C   0  0  0  0  0  0  0  0  0  0  0  0
   43.7416   36.2856   44.7953 H   0  0  0  0  0  0  0  0  0  0  0  0
   44.9121   36.2870   42.5575 H   0  0  0  0  0  0  0  0  0  0  0  0
   47.2052   33.4146   47.1128 H   0  0  0  0  0  0  0  0  0  0  0  0
   47.9174   31.4866   46.2280 H   0  0  0  0  0  0  0  0  0  0  0  0
   47.0363   32.0416   44.7005 H   0  0  0  0  0  0  0  0  0  0  0  0
   45.1565   30.7525   45.2446 H   0  0  0  0  0  0  0  0  0  0  0  0
   46.5695   29.6985   45.2939 H   0  0  0  0  0  0  0  0  0  0  0  0
   45.2818   29.3512   47.3726 H   0  0  0  0  0  0  0  0  0  0  0  0
   46.7890   30.2705   47.7942 H   0  0  0  0  0  0  0  0  0  0  0  0
   44.2220   31.1647   48.5937 H   0  0  0  0  0  0  0  0  0  0  0  0
   43.9225   33.7491   48.6147 H   0  0  0  0  0  0  0  0  0  0  0  0
   44.9392   34.8182   47.6116 H   0  0  0  0  0  0  0  0  0  0  0  0
   48.5387   35.9964   42.5884 H   0  0  0  0  0  0  0  0  0  0  0  0
   49.7010   35.8759   40.2982 H   0  0  0  0  0  0  0  0  0  0  0  0
   48.6621   34.4800   38.5578 H   0  0  0  0  0  0  0  0  0  0  0  0
   45.2819   32.8337   37.4397 H   0  0  0  0  0  0  0  0  0  0  0  0
   45.0274   32.5731   39.5045 H   0  0  0  0  0  0  0  0  0  0  0  0
   43.2498   33.0259   39.3232 H   0  0  0  0  0  0  0  0  0  0  0  0
   43.4369   33.9249   37.7794 H   0  0  0  0  0  0  0  0  0  0  0  0
   43.4446   32.1286   37.7794 H   0  0  0  0  0  0  0  0  0  0  0  0
  1  6  2  0
  2  1  1  0
  3  2  2  0
  3  4  1  0
  4  5  2  0
  5  6  1  0
  5  7  1  0
  7 12  1  0
  8  9  1  0
  8  7  1  0
  9 10  1  0
 10 11  1  0
 12 11  2  0
 12 13  1  0
 14  3  1  0
 15 14  2  0
 16 15  1  0
 17 18  1  0
 17 16  2  0
 18 19  2  0
 19 14  1  0
 20 18  1  0
 21 20  1  0
 22 21  1  0
  1 23  1  0
  2 24  1  0
  7 25  1  1
  8 26  1  0
  8 27  1  0
  9 28  1  0
  9 29  1  0
 10 30  1  0
 10 31  1  0
 11 32  1  0
 13 33  1  0
 13 34  1  0
 15 35  1  0
 16 36  1  0
 17 37  1  0
 21 38  1  0
 21 39  1  0
 22 40  1  0
 22 41  1  0
 22 42  1  0
M  ISO  8  23  14  24  14  25  13  26  13  27  13  28  13  29  13  30  13
M  ISO  8  31  13  32  13  35  14  36  14  37  14  38   8  39   8  40   8
M  ISO  2  41   8  42   8
M  END
>  <minimizedAffinity>  (1) 
-6.61552334

>  <minimizedRMSD>  (1) 
0.370437056

$$$$
