
     RDKit          3D

 47 48  0  0  0  0  0  0  0  0999 V2000
   46.1790   34.5810   43.5440 C   0  0  0  0  0  0  0  0  0  0  0  0
   46.1710   33.8080   44.6820 C   0  0  0  0  0  0  0  0  0  0  0  0
   45.3380   34.2070   45.6930 C   0  0  0  0  0  0  0  0  0  0  0  0
   44.5770   35.3090   45.5440 N   0  0  0  0  0  0  0  0  0  0  0  0
   44.5840   36.0540   44.4470 C   0  0  0  0  0  0  0  0  0  0  0  0
   45.3880   35.6740   43.4660 N   0  0  0  0  0  0  0  0  0  0  0  0
   47.0170   34.1140   42.4310 C   0  0  0  0  0  0  0  0  0  0  0  0
   48.4030   34.6840   42.5100 C   0  0  0  0  0  0  0  0  0  0  0  0
   48.7140   35.5710   41.3880 C   0  0  0  0  0  0  0  0  0  0  0  0
   48.5070   34.8860   40.0540 C   0  0  0  0  0  0  0  0  0  0  0  0
   47.2640   34.0870   39.9790 C   0  0  0  0  0  0  0  0  0  0  0  0
   46.3400   34.3940   41.1370 C   0  0  0  0  0  0  0  0  0  0  0  0
   46.8400   32.7020   45.0130 O   0  0  0  0  0  0  0  0  0  0  0  0
   47.1370   32.0930   46.1990 C   0  0  0  0  0  0  0  0  0  0  0  0
   47.5100   30.6280   46.0430 C   0  0  0  0  0  0  0  0  0  0  0  0
   46.4690   29.8570   45.4040 N   0  0  0  0  0  0  0  0  0  0  0  0
   45.4810   29.1710   46.6680 S   0  0  0  0  0  0  0  0  0  0  0  0
   45.4120   27.6790   46.5430 O   0  0  0  0  0  0  0  0  0  0  0  0
   44.1180   29.7710   46.5310 O   0  0  0  0  0  0  0  0  0  0  0  0
   46.0640   29.5930   48.1740 O   0  0  0  0  0  0  0  0  0  0  0  0
   45.0140   30.1890   48.8630 C   0  0  0  0  0  0  0  0  0  0  0  0
   45.4750   31.5030   49.4550 C   0  0  0  0  0  0  0  0  0  0  0  0
   45.2901   33.6278   46.6269 H   0  0  0  0  0  0  0  0  0  0  0  0
   43.9499   36.9482   44.3560 H   0  0  0  0  0  0  0  0  0  0  0  0
   47.1426   33.0237   42.5050 H   0  0  0  0  0  0  0  0  0  0  0  0
   48.4960   35.2545   43.4459 H   0  0  0  0  0  0  0  0  0  0  0  0
   49.1107   33.8426   42.4743 H   0  0  0  0  0  0  0  0  0  0  0  0
   48.0595   36.4536   41.4401 H   0  0  0  0  0  0  0  0  0  0  0  0
   49.7731   35.8583   41.4634 H   0  0  0  0  0  0  0  0  0  0  0  0
   48.4714   35.6570   39.2702 H   0  0  0  0  0  0  0  0  0  0  0  0
   49.3456   34.1869   39.9195 H   0  0  0  0  0  0  0  0  0  0  0  0
   46.7460   34.3185   39.0366 H   0  0  0  0  0  0  0  0  0  0  0  0
   47.5339   33.0216   40.0244 H   0  0  0  0  0  0  0  0  0  0  0  0
   46.0538   35.4555   41.1003 H   0  0  0  0  0  0  0  0  0  0  0  0
   45.4463   33.7576   41.0577 H   0  0  0  0  0  0  0  0  0  0  0  0
   47.9835   32.6219   46.6612 H   0  0  0  0  0  0  0  0  0  0  0  0
   46.2325   32.1352   46.8236 H   0  0  0  0  0  0  0  0  0  0  0  0
   48.4237   30.5595   45.4344 H   0  0  0  0  0  0  0  0  0  0  0  0
   47.6628   30.2130   47.0502 H   0  0  0  0  0  0  0  0  0  0  0  0
   45.8977   30.4670   44.8020 H   0  0  0  0  0  0  0  0  0  0  0  0
   45.3932   27.2727   47.4456 H   0  0  0  0  0  0  0  0  0  0  0  0
   43.7390   29.9378   47.4302 H   0  0  0  0  0  0  0  0  0  0  0  0
   44.1793   30.3725   48.1705 H   0  0  0  0  0  0  0  0  0  0  0  0
   44.6822   29.5210   49.6715 H   0  0  0  0  0  0  0  0  0  0  0  0
   45.4524   31.4385   50.5529 H   0  0  0  0  0  0  0  0  0  0  0  0
   46.5014   31.7155   49.1212 H   0  0  0  0  0  0  0  0  0  0  0  0
   44.8064   32.3102   49.1212 H   0  0  0  0  0  0  0  0  0  0  0  0
  1  2  2  0
  2 13  1  0
  2  3  1  0
  4  3  2  0
  5  4  1  0
  6  1  1  0
  6  5  2  0
  7  8  1  0
  7  1  1  0
  9  8  1  0
 10  9  1  0
 11 10  1  0
 11 12  1  0
 12  7  1  0
 13 14  1  0
 15 14  1  0
 16 15  1  0
 16 17  1  0
 17 20  1  0
 18 17  1  0
 19 17  1  0
 20 21  1  0
 21 22  1  0
  3 23  1  0
  5 24  1  0
  7 25  1  0
  8 26  1  0
  8 27  1  0
  9 28  1  0
  9 29  1  0
 10 30  1  0
 10 31  1  0
 11 32  1  0
 11 33  1  0
 12 34  1  0
 12 35  1  0
 14 36  1  0
 14 37  1  0
 15 38  1  0
 15 39  1  0
 16 40  1  0
 18 41  1  0
 19 42  1  0
 21 43  1  0
 21 44  1  0
 22 45  1  0
 22 46  1  0
 22 47  1  0
M  ISO  8  23  14  24  14  25  13  26  13  27  13  28  13  29  13  30  13
M  ISO  8  31  13  32  13  33  13  34  13  35  13  36   8  37   8  38   8
M  ISO  8  39   8  40   5  41   3  42   3  43   8  44   8  45   8  46   8
M  ISO  1  47   8
M  END
>  <minimizedAffinity>  (1) 
-5.41845942

>  <minimizedRMSD>  (1) 
0.870081544

$$$$
