
     RDKit          3D

 40 42  0  0  1  0  0  0  0  0999 V2000
   49.6820   33.6520   41.4340 N   0  0  0  0  0  0  0  0  0  0  0  0
   50.7120   33.0650   42.2570 C   0  0  0  0  0  0  0  0  0  0  0  0
   51.2420   31.7780   41.7180 C   0  0  0  0  0  0  0  0  0  0  0  0
   50.1460   30.7370   41.8200 C   0  0  0  0  0  0  0  0  0  0  0  0
   48.7950   31.3520   41.5040 C   0  0  0  0  0  0  0  0  0  0  0  0
   49.0120   32.5960   40.7050 C   0  0  2  0  0  0  0  0  0  0  0  0
   47.4390   34.7830   41.9750 C   0  0  1  0  0  0  0  0  0  0  0  0
   48.4800   35.7840   41.7700 C   0  0  0  0  0  0  0  0  0  0  0  0
   48.8550   34.4350   42.2760 C   0  0  2  0  0  0  0  0  0  0  0  0
   45.5800   36.0190   43.1350 C   0  0  0  0  0  0  0  0  0  0  0  0
   46.4720   34.9340   43.0620 C   0  0  0  0  0  0  0  0  0  0  0  0
   46.3890   33.9930   44.0900 C   0  0  0  0  0  0  0  0  0  0  0  0
   45.4750   34.1700   45.0820 N   0  0  0  0  0  0  0  0  0  0  0  0
   44.6440   35.2220   45.1100 C   0  0  0  0  0  0  0  0  0  0  0  0
   44.6880   36.1670   44.1270 N   0  0  0  0  0  0  0  0  0  0  0  0
   49.6040   32.3230   39.4330 N   0  0  0  0  0  0  0  0  0  0  0  0
   48.8860   32.6640   38.2800 C   0  0  0  0  0  0  0  0  0  0  0  0
   48.0900   33.9070   38.3020 C   0  0  0  0  0  0  0  0  0  0  0  0
   51.5449   33.7793   42.3350 H   0  0  0  0  0  0  0  0  0  0  0  0
   50.2591   32.8447   43.2349 H   0  0  0  0  0  0  0  0  0  0  0  0
   52.1150   31.4589   42.3063 H   0  0  0  0  0  0  0  0  0  0  0  0
   51.5520   31.9030   40.6700 H   0  0  0  0  0  0  0  0  0  0  0  0
   50.3501   29.9258   41.1056 H   0  0  0  0  0  0  0  0  0  0  0  0
   50.1252   30.3430   42.8468 H   0  0  0  0  0  0  0  0  0  0  0  0
   48.1903   30.6396   40.9236 H   0  0  0  0  0  0  0  0  0  0  0  0
   48.2644   31.5927   42.4370 H   0  0  0  0  0  0  0  0  0  0  0  0
   48.0089   32.9990   40.5016 H   0  0  0  0  0  0  0  0  0  0  0  0
   46.6512   34.3468   41.3433 H   0  0  0  0  0  0  0  0  0  0  0  0
   48.7590   36.0835   40.7490 H   0  0  0  0  0  0  0  0  0  0  0  0
   48.6425   36.8143   42.1195 H   0  0  0  0  0  0  0  0  0  0  0  0
   49.3342   33.9806   43.1557 H   0  0  0  0  0  0  0  0  0  0  0  0
   45.6150   36.7813   42.3427 H   0  0  0  0  0  0  0  0  0  0  0  0
   47.0554   33.1179   44.0978 H   0  0  0  0  0  0  0  0  0  0  0  0
   43.9207   35.3239   45.9325 H   0  0  0  0  0  0  0  0  0  0  0  0
   50.4984   32.8325   39.3972 H   0  0  0  0  0  0  0  0  0  0  0  0
   48.1936   31.8358   38.0689 H   0  0  0  0  0  0  0  0  0  0  0  0
   49.6588   32.8459   37.5186 H   0  0  0  0  0  0  0  0  0  0  0  0
   47.9006   34.2027   39.3444 H   0  0  0  0  0  0  0  0  0  0  0  0
   48.6445   34.7066   37.7890 H   0  0  0  0  0  0  0  0  0  0  0  0
   47.1318   33.7379   37.7890 H   0  0  0  0  0  0  0  0  0  0  0  0
  1  2  1  0
  1  9  1  0
  3  4  1  0
  3  2  1  0
  5  4  1  0
  6  1  1  0
  6  5  1  0
  7  9  1  0
  7 11  1  0
  8  7  1  0
  8  9  1  0
 10 15  2  0
 11 10  1  0
 11 12  2  0
 12 13  1  0
 13 14  2  0
 15 14  1  0
 16  6  1  0
 17 18  1  0
 17 16  1  0
  2 19  1  0
  2 20  1  0
  3 21  1  0
  3 22  1  0
  4 23  1  0
  4 24  1  0
  5 25  1  0
  5 26  1  0
  6 27  1  6
  7 28  1  6
  8 29  1  0
  8 30  1  0
  9 31  1  1
 10 32  1  0
 12 33  1  0
 14 34  1  0
 16 35  1  0
 17 36  1  0
 17 37  1  0
 18 38  1  0
 18 39  1  0
 18 40  1  0
M  ISO  8  19  13  20  13  21  13  22  13  23  13  24  13  25  13  26  13
M  ISO  8  27  13  28  13  29  13  30  13  31  13  32  14  33  14  34  14
M  ISO  6  35   5  36   8  37   8  38   8  39   8  40   8
M  END
>  <minimizedAffinity>  (1) 
-4.7078023

>  <minimizedRMSD>  (1) 
1.20508099

$$$$
