
     RDKit          3D

 36 39  0  0  0  0  0  0  0  0999 V2000
   44.9880   34.8390   43.1950 C   0  0  0  0  0  0  0  0  0  0  0  0
   45.6830   33.7200   43.7250 C   0  0  0  0  0  0  0  0  0  0  0  0
   45.7330   33.6170   45.1130 C   0  0  0  0  0  0  0  0  0  0  0  0
   45.1340   34.5610   45.8700 N   0  0  0  0  0  0  0  0  0  0  0  0
   44.4770   35.6190   45.3330 C   0  0  0  0  0  0  0  0  0  0  0  0
   44.4110   35.7470   44.0130 N   0  0  0  0  0  0  0  0  0  0  0  0
   46.7720   32.7520   47.1380 C   0  0  0  0  0  0  0  0  0  0  0  0
   46.4060   32.5290   45.8160 C   0  0  0  0  0  0  0  0  0  0  0  0
   46.6970   31.3150   45.2600 C   0  0  0  0  0  0  0  0  0  0  0  0
   47.3360   30.3110   45.9590 C   0  0  0  0  0  0  0  0  0  0  0  0
   47.7130   29.0530   45.6050 N   0  0  0  0  0  0  0  0  0  0  0  0
   48.3180   28.4890   46.7200 C   0  0  0  0  0  0  0  0  0  0  0  0
   48.2950   29.3980   47.7020 N   0  0  0  0  0  0  0  0  0  0  0  0
   47.6990   30.5210   47.2600 C   0  0  0  0  0  0  0  0  0  0  0  0
   47.4170   31.7350   47.8440 C   0  0  0  0  0  0  0  0  0  0  0  0
   44.9330   34.9510   41.8090 O   0  0  0  0  0  0  0  0  0  0  0  0
   43.7030   34.9700   41.1600 C   0  0  0  0  0  0  0  0  0  0  0  0
   43.9140   34.0550   40.1940 C   0  0  0  0  0  0  0  0  0  0  0  0
   42.2510   34.0450   39.2800 S   0  0  0  0  0  0  0  0  0  0  0  0
   41.6110   35.3650   40.4900 C   0  0  0  0  0  0  0  0  0  0  0  0
   42.5030   35.4910   41.1220 N   0  0  0  0  0  0  0  0  0  0  0  0
   40.2430   35.9430   40.4300 C   0  0  0  0  0  0  0  0  0  0  0  0
   39.3320   34.9120   39.8600 C   0  0  0  0  0  0  0  0  0  0  0  0
   46.1578   32.9725   43.0725 H   0  0  0  0  0  0  0  0  0  0  0  0
   44.0022   36.3658   45.9863 H   0  0  0  0  0  0  0  0  0  0  0  0
   46.5565   33.7164   47.6213 H   0  0  0  0  0  0  0  0  0  0  0  0
   46.4106   31.1307   44.2140 H   0  0  0  0  0  0  0  0  0  0  0  0
   47.5761   28.6055   44.6874 H   0  0  0  0  0  0  0  0  0  0  0  0
   48.7409   27.4756   46.7848 H   0  0  0  0  0  0  0  0  0  0  0  0
   47.7065   31.9078   48.8911 H   0  0  0  0  0  0  0  0  0  0  0  0
   44.8189   33.4646   39.9878 H   0  0  0  0  0  0  0  0  0  0  0  0
   39.9092   36.2178   41.4415 H   0  0  0  0  0  0  0  0  0  0  0  0
   40.2373   36.8466   39.8027 H   0  0  0  0  0  0  0  0  0  0  0  0
   38.8449   34.3607   40.6778 H   0  0  0  0  0  0  0  0  0  0  0  0
   38.5661   35.4016   39.2406 H   0  0  0  0  0  0  0  0  0  0  0  0
   39.9122   34.2122   39.2406 H   0  0  0  0  0  0  0  0  0  0  0  0
  1  2  2  0
  1  6  1  0
  2  3  1  0
  3  8  1  0
  3  4  2  0
  5  4  1  0
  6  5  2  0
  7 15  2  0
  8  7  1  0
  9  8  2  0
  9 10  1  0
 10 14  2  0
 11 10  1  0
 11 12  1  0
 12 13  2  0
 14 13  1  0
 14 15  1  0
 16  1  1  0
 17 16  1  0
 18 17  2  0
 19 18  1  0
 19 20  1  0
 20 21  2  0
 21 17  1  0
 22 20  1  0
 23 22  1  0
  2 24  1  0
  5 25  1  0
  7 26  1  0
  9 27  1  0
 11 28  1  0
 12 29  1  0
 15 30  1  0
 18 31  1  0
 22 32  1  0
 22 33  1  0
 23 34  1  0
 23 35  1  0
 23 36  1  0
M  ISO  8  24  14  25  14  26  14  27  14  28   9  29  14  30  14  31  14
M  ISO  5  32   8  33   8  34   8  35   8  36   8
M  END
>  <minimizedAffinity>  (1) 
-5.87175035

>  <minimizedRMSD>  (1) 
0.802259922

$$$$
