
     RDKit          3D

 26 27  0  0  1  0  0  0  0  0999 V2000
   46.5330   32.9060   46.4170 C   0  0  1  0  0  0  0  0  0  0  0  0
   45.7470   31.5560   46.3920 C   0  0  1  0  0  0  0  0  0  0  0  0
   47.2290   31.6760   46.2000 C   0  0  0  0  0  0  0  0  0  0  0  0
   46.0930   33.8100   45.3440 C   0  0  0  0  0  0  0  0  0  0  0  0
   45.0120   34.7170   45.6100 C   0  0  0  0  0  0  0  0  0  0  0  0
   44.5720   35.5950   44.6340 C   0  0  0  0  0  0  0  0  0  0  0  0
   45.2150   35.5430   43.4310 N   0  0  0  0  0  0  0  0  0  0  0  0
   46.2380   34.6670   43.2140 C   0  0  0  0  0  0  0  0  0  0  0  0
   46.6640   33.8260   44.1440 N   0  0  0  0  0  0  0  0  0  0  0  0
   46.8690   34.6980   41.8670 C   0  0  0  0  0  0  0  0  0  0  0  0
   48.2460   35.3280   41.9150 C   0  0  0  0  0  0  0  0  0  0  0  0
   45.3210   31.0820   47.7620 C   0  0  0  0  0  0  0  0  0  0  0  0
   46.3770   31.0160   48.6450 F   0  0  0  0  0  0  0  0  0  0  0  0
   44.3970   32.0080   48.2750 F   0  0  0  0  0  0  0  0  0  0  0  0
   44.6480   29.8830   47.6810 F   0  0  0  0  0  0  0  0  0  0  0  0
   46.7705   33.7411   47.0925 H   0  0  0  0  0  0  0  0  0  0  0  0
   44.9041   31.1167   45.8383 H   0  0  0  0  0  0  0  0  0  0  0  0
   47.9045   31.2959   46.9805 H   0  0  0  0  0  0  0  0  0  0  0  0
   47.9146   31.3300   45.4124 H   0  0  0  0  0  0  0  0  0  0  0  0
   44.5290   34.7142   46.5983 H   0  0  0  0  0  0  0  0  0  0  0  0
   43.7466   36.2984   44.8185 H   0  0  0  0  0  0  0  0  0  0  0  0
   46.2318   35.2823   41.1868 H   0  0  0  0  0  0  0  0  0  0  0  0
   46.9746   33.6627   41.5107 H   0  0  0  0  0  0  0  0  0  0  0  0
   48.5494   35.4668   42.9632 H   0  0  0  0  0  0  0  0  0  0  0  0
   48.9679   34.6706   41.4083 H   0  0  0  0  0  0  0  0  0  0  0  0
   48.2205   36.3040   41.4083 H   0  0  0  0  0  0  0  0  0  0  0  0
  2  1  1  0
  2 12  1  0
  3  2  1  0
  3  1  1  0
  4  5  2  0
  4  1  1  0
  6  5  1  0
  7  6  2  0
  8  7  1  0
  8  9  2  0
  9  4  1  0
 10 11  1  0
 10  8  1  0
 12 14  1  0
 12 13  1  0
 15 12  1  0
  1 16  1  1
  2 17  1  6
  3 18  1  0
  3 19  1  0
  5 20  1  0
  6 21  1  0
 10 22  1  0
 10 23  1  0
 11 24  1  0
 11 25  1  0
 11 26  1  0
M  ISO  8  16  13  17  13  18  13  19  13  20  14  21  14  22   8  23   8
M  ISO  3  24   8  25   8  26   8
M  END
>  <minimizedAffinity>  (1) 
-4.75686359

>  <minimizedRMSD>  (1) 
5.52041578

$$$$
