
     RDKit          3D

 40 41  0  0  1  0  0  0  0  0999 V2000
   50.3110   34.8190   42.6840 O   0  0  0  0  0  0  0  0  0  0  0  0
   49.0860   34.5830   41.8870 P   0  0  1  0  0  0  0  0  0  0  0  0
   49.0160   35.8050   40.7020 O   0  0  0  0  0  0  0  0  0  0  0  0
   49.2020   33.0830   41.0480 O   0  0  0  0  0  0  0  0  0  0  0  0
   49.6590   31.3080   42.5320 C   0  0  0  0  0  0  0  0  0  0  0  0
   50.0560   32.0830   41.4680 C   0  0  0  0  0  0  0  0  0  0  0  0
   51.3100   31.8200   40.8600 C   0  0  0  0  0  0  0  0  0  0  0  0
   52.0440   30.8070   41.3760 N   0  0  0  0  0  0  0  0  0  0  0  0
   51.6320   30.0820   42.4000 C   0  0  0  0  0  0  0  0  0  0  0  0
   50.4280   30.3440   42.9740 N   0  0  0  0  0  0  0  0  0  0  0  0
   47.2800   30.6910   42.9270 C   0  0  0  0  0  0  0  0  0  0  0  0
   47.0580   30.4050   41.6910 O   0  0  0  0  0  0  0  0  0  0  0  0
   48.5730   31.1660   43.4350 N   0  0  0  0  0  0  0  0  0  0  0  0
   47.6970   34.6480   42.7740 O   0  0  0  0  0  0  0  0  0  0  0  0
   46.5500   34.9850   42.1760 C   0  0  2  0  0  0  0  0  0  0  0  0
   45.5650   35.7520   42.9630 C   0  0  0  0  0  0  0  0  0  0  0  0
   44.2050   35.6370   42.3520 C   0  0  0  0  0  0  0  0  0  0  0  0
   43.6820   34.3560   42.4390 O   0  0  0  0  0  0  0  0  0  0  0  0
   44.6810   33.4030   42.4990 C   0  0  0  0  0  0  0  0  0  0  0  0
   45.8210   33.7700   41.5960 C   0  0  1  0  0  0  0  0  0  0  0  0
   45.5370   33.8200   40.1500 C   0  0  0  0  0  0  0  0  0  0  0  0
   44.9170   32.4710   39.7460 C   0  0  0  0  0  0  0  0  0  0  0  0
   48.9653   36.6899   41.1431 H   0  0  0  0  0  0  0  0  0  0  0  0
   51.6701   32.4133   40.0066 H   0  0  0  0  0  0  0  0  0  0  0  0
   52.2618   29.2677   42.7877 H   0  0  0  0  0  0  0  0  0  0  0  0
   46.4535   30.5726   43.6431 H   0  0  0  0  0  0  0  0  0  0  0  0
   48.6905   31.3931   44.4328 H   0  0  0  0  0  0  0  0  0  0  0  0
   46.9200   35.6667   41.3960 H   0  0  0  0  0  0  0  0  0  0  0  0
   45.5355   35.3579   43.9895 H   0  0  0  0  0  0  0  0  0  0  0  0
   45.8631   36.8108   42.9726 H   0  0  0  0  0  0  0  0  0  0  0  0
   44.2720   35.9176   41.2905 H   0  0  0  0  0  0  0  0  0  0  0  0
   43.5341   36.3065   42.9103 H   0  0  0  0  0  0  0  0  0  0  0  0
   45.0488   33.3305   43.5331 H   0  0  0  0  0  0  0  0  0  0  0  0
   44.2679   32.4376   42.1714 H   0  0  0  0  0  0  0  0  0  0  0  0
   46.5173   32.9184   41.5957 H   0  0  0  0  0  0  0  0  0  0  0  0
   44.8310   34.6357   39.9352 H   0  0  0  0  0  0  0  0  0  0  0  0
   46.4615   34.0034   39.5828 H   0  0  0  0  0  0  0  0  0  0  0  0
   44.6555   31.9021   40.6504 H   0  0  0  0  0  0  0  0  0  0  0  0
   44.0100   32.6483   39.1494 H   0  0  0  0  0  0  0  0  0  0  0  0
   45.6422   31.8982   39.1494 H   0  0  0  0  0  0  0  0  0  0  0  0
  2  1  2  0
  2 14  1  0
  3  2  1  0
  4  6  1  0
  4  2  1  0
  5 10  2  0
  5 13  1  0
  6  5  1  0
  7  8  1  0
  7  6  2  0
  8  9  2  0
  9 10  1  0
 11 13  1  0
 12 11  2  0
 15 14  1  0
 15 16  1  0
 17 18  1  0
 17 16  1  0
 18 19  1  0
 20 15  1  0
 20 19  1  0
 21 20  1  0
 22 21  1  0
  3 23  1  0
  7 24  1  0
  9 25  1  0
 11 26  1  0
 13 27  1  0
 15 28  1  6
 16 29  1  0
 16 30  1  0
 17 31  1  0
 17 32  1  0
 19 33  1  0
 19 34  1  0
 20 35  1  6
 21 36  1  0
 21 37  1  0
 22 38  1  0
 22 39  1  0
 22 40  1  0
M  ISO  8  23   3  24  14  25  14  26   6  28  13  29  13  30  13  31  13
M  ISO  8  32  13  33  13  34  13  35  13  36   8  37   8  38   8  39   8
M  ISO  1  40   8
M  END
>  <minimizedAffinity>  (1) 
-4.21330976

>  <minimizedRMSD>  (1) 
0.853045762

$$$$
