
     RDKit          3D

 38 39  0  0  1  0  0  0  0  0999 V2000
   44.4260   35.4180   44.7150 O   0  0  0  0  0  0  0  0  0  0  0  0
   45.3690   34.2860   44.4490 P   0  0  2  0  0  0  0  0  0  0  0  0
   44.5790   32.9110   43.9080 O   0  0  0  0  0  0  0  0  0  0  0  0
   46.1370   33.8420   45.8980 O   0  0  0  0  0  0  0  0  0  0  0  0
   46.4830   32.5230   45.8150 C   0  0  0  0  0  0  0  0  0  0  0  0
   45.4430   31.5980   49.2640 C   0  0  0  0  0  0  0  0  0  0  0  0
   45.9220   32.3570   48.1890 C   0  0  0  0  0  0  0  0  0  0  0  0
   45.9860   31.7430   46.9510 C   0  0  0  0  0  0  0  0  0  0  0  0
   45.5840   30.4390   46.8450 N   0  0  0  0  0  0  0  0  0  0  0  0
   45.1290   29.7380   47.9060 C   0  0  0  0  0  0  0  0  0  0  0  0
   45.0650   30.3270   49.1010 N   0  0  0  0  0  0  0  0  0  0  0  0
   46.5630   34.7860   43.3740 O   0  0  0  0  0  0  0  0  0  0  0  0
   46.5640   33.9580   42.2640 C   0  0  1  0  0  0  0  0  0  0  0  0
   45.7600   34.4840   41.1050 C   0  0  0  0  0  0  0  0  0  0  0  0
   46.2320   33.5890   39.9770 C   0  0  0  0  0  0  0  0  0  0  0  0
   47.6410   33.1730   40.3380 C   0  0  0  0  0  0  0  0  0  0  0  0
   47.9560   33.8830   41.6400 C   0  0  1  0  0  0  0  0  0  0  0  0
   48.5820   35.2280   41.4200 C   0  0  0  0  0  0  0  0  0  0  0  0
   49.8040   35.3130   42.3310 C   0  0  0  0  0  0  0  0  0  0  0  0
   44.2733   32.3789   44.6848 H   0  0  0  0  0  0  0  0  0  0  0  0
   46.0625   32.1051   44.8885 H   0  0  0  0  0  0  0  0  0  0  0  0
   47.5814   32.4632   45.8218 H   0  0  0  0  0  0  0  0  0  0  0  0
   45.3767   32.0570   50.2615 H   0  0  0  0  0  0  0  0  0  0  0  0
   46.2357   33.4026   48.3240 H   0  0  0  0  0  0  0  0  0  0  0  0
   44.8141   28.6909   47.7857 H   0  0  0  0  0  0  0  0  0  0  0  0
   46.1673   33.0119   42.6610 H   0  0  0  0  0  0  0  0  0  0  0  0
   44.6801   34.3718   41.2816 H   0  0  0  0  0  0  0  0  0  0  0  0
   45.9004   35.5580   40.9133 H   0  0  0  0  0  0  0  0  0  0  0  0
   46.2280   34.1396   39.0247 H   0  0  0  0  0  0  0  0  0  0  0  0
   45.5735   32.7168   39.8516 H   0  0  0  0  0  0  0  0  0  0  0  0
   47.6967   32.0826   40.4722 H   0  0  0  0  0  0  0  0  0  0  0  0
   48.3582   33.4373   39.5470 H   0  0  0  0  0  0  0  0  0  0  0  0
   48.6999   33.3767   42.2727 H   0  0  0  0  0  0  0  0  0  0  0  0
   48.8879   35.3337   40.3687 H   0  0  0  0  0  0  0  0  0  0  0  0
   47.8679   36.0327   41.6493 H   0  0  0  0  0  0  0  0  0  0  0  0
   49.4801   35.2905   43.3820 H   0  0  0  0  0  0  0  0  0  0  0  0
   50.4685   34.4589   42.1337 H   0  0  0  0  0  0  0  0  0  0  0  0
   50.3439   36.2509   42.1337 H   0  0  0  0  0  0  0  0  0  0  0  0
  2  1  2  0
  2  4  1  0
  3  2  1  0
  5  4  1  0
  5  8  1  0
  7  6  2  0
  8  7  1  0
  9  8  2  0
  9 10  1  0
 10 11  2  0
 11  6  1  0
 12  2  1  0
 13 12  1  0
 14 13  1  0
 15 16  1  0
 15 14  1  0
 16 17  1  0
 17 13  1  0
 18 17  1  0
 18 19  1  0
  3 20  1  0
  5 21  1  0
  5 22  1  0
  6 23  1  0
  7 24  1  0
 10 25  1  0
 13 26  1  1
 14 27  1  0
 14 28  1  0
 15 29  1  0
 15 30  1  0
 16 31  1  0
 16 32  1  0
 17 33  1  1
 18 34  1  0
 18 35  1  0
 19 36  1  0
 19 37  1  0
 19 38  1  0
M  ISO  8  20   3  21   8  22   8  23  14  24  14  25  14  26  13  27  13
M  ISO  8  28  13  29  13  30  13  31  13  32  13  33  13  34   8  35   8
M  ISO  3  36   8  37   8  38   8
M  END
>  <minimizedAffinity>  (1) 
-5.15784788

>  <minimizedRMSD>  (1) 
1.11160791

$$$$
