
     RDKit          3D

 40 42  0  0  0  0  0  0  0  0999 V2000
   45.4290   30.6280   47.1430 C   0  0  0  0  0  0  0  0  0  0  0  0
   45.5370   29.9700   45.9380 C   0  0  0  0  0  0  0  0  0  0  0  0
   45.2990   28.6330   46.1870 C   0  0  0  0  0  0  0  0  0  0  0  0
   45.0590   28.4990   47.4830 N   0  0  0  0  0  0  0  0  0  0  0  0
   45.1390   29.7090   48.0560 N   0  0  0  0  0  0  0  0  0  0  0  0
   44.1050   27.4740   44.4310 C   0  0  0  0  0  0  0  0  0  0  0  0
   45.3240   27.6970   45.0840 C   0  0  0  0  0  0  0  0  0  0  0  0
   46.3400   26.9800   44.5330 C   0  0  0  0  0  0  0  0  0  0  0  0
   46.2250   26.1300   43.4670 C   0  0  0  0  0  0  0  0  0  0  0  0
   45.0020   25.9440   42.8590 C   0  0  0  0  0  0  0  0  0  0  0  0
   43.9200   26.6350   43.3550 C   0  0  0  0  0  0  0  0  0  0  0  0
   41.9300   28.6920   45.2610 N   0  0  0  0  0  0  0  0  0  0  0  0
   42.9070   28.1560   44.8840 C   0  0  0  0  0  0  0  0  0  0  0  0
   44.7430   27.2570   48.1980 C   0  0  0  0  0  0  0  0  0  0  0  0
   44.3600   27.5680   49.5240 F   0  0  0  0  0  0  0  0  0  0  0  0
   45.7840   26.4030   48.1640 F   0  0  0  0  0  0  0  0  0  0  0  0
   43.6220   26.6900   47.6280 F   0  0  0  0  0  0  0  0  0  0  0  0
   45.5830   32.0620   47.4470 C   0  0  0  0  0  0  0  0  0  0  0  0
   46.5830   32.7140   46.5400 C   0  0  0  0  0  0  0  0  0  0  0  0
   44.5540   35.4480   45.0230 C   0  0  0  0  0  0  0  0  0  0  0  0
   45.1020   35.4880   43.7190 C   0  0  0  0  0  0  0  0  0  0  0  0
   46.1160   34.5950   43.4380 C   0  0  0  0  0  0  0  0  0  0  0  0
   46.4830   33.7740   44.4310 N   0  0  0  0  0  0  0  0  0  0  0  0
   45.9650   33.7400   45.6550 C   0  0  0  0  0  0  0  0  0  0  0  0
   44.9950   34.5910   45.9330 N   0  0  0  0  0  0  0  0  0  0  0  0
   46.6850   34.6360   42.0910 C   0  0  0  0  0  0  0  0  0  0  0  0
   47.4760   33.5050   41.8820 F   0  0  0  0  0  0  0  0  0  0  0  0
   47.5970   35.6890   42.0870 F   0  0  0  0  0  0  0  0  0  0  0  0
   45.7410   34.7390   41.1140 F   0  0  0  0  0  0  0  0  0  0  0  0
   45.7687   30.4233   44.9629 H   0  0  0  0  0  0  0  0  0  0  0  0
   47.3378   27.0930   44.9820 H   0  0  0  0  0  0  0  0  0  0  0  0
   47.1104   25.5940   43.0944 H   0  0  0  0  0  0  0  0  0  0  0  0
   44.8939   25.2629   42.0020 H   0  0  0  0  0  0  0  0  0  0  0  0
   42.9253   26.5191   42.9000 H   0  0  0  0  0  0  0  0  0  0  0  0
   44.6101   32.5599   47.3223 H   0  0  0  0  0  0  0  0  0  0  0  0
   45.9434   32.1576   48.4819 H   0  0  0  0  0  0  0  0  0  0  0  0
   47.3552   33.1981   47.1560 H   0  0  0  0  0  0  0  0  0  0  0  0
   47.0114   31.9314   45.8966 H   0  0  0  0  0  0  0  0  0  0  0  0
   43.7439   36.1436   45.2874 H   0  0  0  0  0  0  0  0  0  0  0  0
   44.7363   36.1988   42.9634 H   0  0  0  0  0  0  0  0  0  0  0  0
  1 18  1  0
  1  5  2  0
  2  3  2  0
  2  1  1  0
  3  4  1  0
  4  5  1  0
  4 14  1  0
  6 13  1  0
  6  7  2  0
  7  3  1  0
  8  7  1  0
  9  8  2  0
 10 11  2  0
 10  9  1  0
 11  6  1  0
 13 12  3  0
 14 15  1  0
 16 14  1  0
 17 14  1  0
 19 18  1  0
 20 25  2  0
 21 20  1  0
 22 21  2  0
 22 23  1  0
 23 24  2  0
 24 25  1  0
 24 19  1  0
 26 22  1  0
 27 26  1  0
 28 26  1  0
 29 26  1  0
  2 30  1  0
  8 31  1  0
  9 32  1  0
 10 33  1  0
 11 34  1  0
 18 35  1  0
 18 36  1  0
 19 37  1  0
 19 38  1  0
 20 39  1  0
 21 40  1  0
M  ISO  8  30  14  31  14  32  14  33  14  34  14  35   8  36   8  37   8
M  ISO  3  38   8  39  14  40  14
M  END
>  <minimizedAffinity>  (1) 
-5.21819973

>  <minimizedRMSD>  (1) 
1.27426589

$$$$
