
     RDKit          3D

 35 37  0  0  0  0  0  0  0  0999 V2000
   46.3350   30.0400   43.7110 C   0  0  0  0  0  0  0  0  0  0  0  0
   45.0680   30.6400   43.5380 C   0  0  0  0  0  0  0  0  0  0  0  0
   43.9520   29.8870   43.4170 C   0  0  0  0  0  0  0  0  0  0  0  0
   44.1080   28.4660   43.4690 C   0  0  0  0  0  0  0  0  0  0  0  0
   45.8900   28.2100   43.6960 S   0  0  0  0  0  0  0  0  0  0  0  0
   47.6770   30.4690   43.8810 C   0  0  0  0  0  0  0  0  0  0  0  0
   48.4780   30.7170   42.6690 C   0  0  0  0  0  0  0  0  0  0  0  0
   48.9810   32.0850   42.6390 C   0  0  0  0  0  0  0  0  0  0  0  0
   50.3080   32.3350   42.3660 C   0  0  0  0  0  0  0  0  0  0  0  0
   50.7420   33.6670   42.3520 C   0  0  0  0  0  0  0  0  0  0  0  0
   49.8330   34.6230   42.6050 N   0  0  0  0  0  0  0  0  0  0  0  0
   48.5380   34.3400   42.8680 C   0  0  0  0  0  0  0  0  0  0  0  0
   48.1340   33.0970   42.8820 N   0  0  0  0  0  0  0  0  0  0  0  0
   43.1860   27.5640   43.3750 O   0  0  0  0  0  0  0  0  0  0  0  0
   41.2980   27.4330   44.9340 C   0  0  0  0  0  0  0  0  0  0  0  0
   42.5410   27.0380   44.4850 C   0  0  0  0  0  0  0  0  0  0  0  0
   43.1980   26.0420   45.1890 C   0  0  0  0  0  0  0  0  0  0  0  0
   42.6340   25.4570   46.3100 C   0  0  0  0  0  0  0  0  0  0  0  0
   41.3900   25.8440   46.7680 C   0  0  0  0  0  0  0  0  0  0  0  0
   40.7560   26.8270   46.0640 C   0  0  0  0  0  0  0  0  0  0  0  0
   40.0450   29.3170   43.6460 N   0  0  0  0  0  0  0  0  0  0  0  0
   40.6090   28.4650   44.2160 C   0  0  0  0  0  0  0  0  0  0  0  0
   44.9883   31.7365   43.5012 H   0  0  0  0  0  0  0  0  0  0  0  0
   42.9626   30.3488   43.2838 H   0  0  0  0  0  0  0  0  0  0  0  0
   47.6513   31.4071   44.4549 H   0  0  0  0  0  0  0  0  0  0  0  0
   48.1775   29.6235   44.3756 H   0  0  0  0  0  0  0  0  0  0  0  0
   49.3299   30.0213   42.6536 H   0  0  0  0  0  0  0  0  0  0  0  0
   47.8351   30.5634   41.7897 H   0  0  0  0  0  0  0  0  0  0  0  0
   51.0081   31.5108   42.1644 H   0  0  0  0  0  0  0  0  0  0  0  0
   51.7912   33.9212   42.1410 H   0  0  0  0  0  0  0  0  0  0  0  0
   47.8257   35.1536   43.0698 H   0  0  0  0  0  0  0  0  0  0  0  0
   44.1898   25.7085   44.8498 H   0  0  0  0  0  0  0  0  0  0  0  0
   43.1863   24.6704   46.8450 H   0  0  0  0  0  0  0  0  0  0  0  0
   40.9326   25.3831   47.6559 H   0  0  0  0  0  0  0  0  0  0  0  0
   39.7648   27.1576   46.4078 H   0  0  0  0  0  0  0  0  0  0  0  0
  1  6  1  0
  2  1  2  0
  3  4  2  0
  3  2  1  0
  4  5  1  0
  5  1  1  0
  7  6  1  0
  8  7  1  0
  8 13  1  0
  9  8  2  0
 10  9  1  0
 10 11  2  0
 11 12  1  0
 12 13  2  0
 14  4  1  0
 14 16  1  0
 15 20  2  0
 16 15  1  0
 16 17  2  0
 17 18  1  0
 18 19  2  0
 20 19  1  0
 21 22  3  0
 22 15  1  0
  2 23  1  0
  3 24  1  0
  6 25  1  0
  6 26  1  0
  7 27  1  0
  7 28  1  0
  9 29  1  0
 10 30  1  0
 12 31  1  0
 17 32  1  0
 18 33  1  0
 19 34  1  0
 20 35  1  0
M  ISO  8  23  14  24  14  25   8  26   8  27   8  28   8  29  14  30  14
M  ISO  5  31  14  32  14  33  14  34  14  35  14
M  END
>  <minimizedAffinity>  (1) 
-3.43577623

>  <minimizedRMSD>  (1) 
9.99120522

$$$$
