
     RDKit          3D

 36 37  0  0  0  0  0  0  0  0999 V2000
   46.0460   30.6620   46.7250 C   0  0  0  0  0  0  0  0  0  0  0  0
   45.0450   28.5800   46.1740 C   0  0  0  0  0  0  0  0  0  0  0  0
   45.9560   28.1300   45.4400 O   0  0  0  0  0  0  0  0  0  0  0  0
   44.9050   29.7960   46.8790 N   0  0  0  0  0  0  0  0  0  0  0  0
   42.7490   27.6020   45.5590 C   0  0  0  0  0  0  0  0  0  0  0  0
   43.8940   27.6460   46.3230 C   0  0  0  0  0  0  0  0  0  0  0  0
   44.1080   26.7650   47.3810 C   0  0  0  0  0  0  0  0  0  0  0  0
   43.1550   25.8150   47.6800 C   0  0  0  0  0  0  0  0  0  0  0  0
   42.0130   25.7860   46.9000 C   0  0  0  0  0  0  0  0  0  0  0  0
   41.7880   26.6600   45.8430 C   0  0  0  0  0  0  0  0  0  0  0  0
   42.5990   29.3410   43.6580 N   0  0  0  0  0  0  0  0  0  0  0  0
   42.6660   28.5660   44.5120 C   0  0  0  0  0  0  0  0  0  0  0  0
   46.0180   32.9770   46.0310 C   0  0  0  0  0  0  0  0  0  0  0  0
   45.7860   31.7190   45.7420 C   0  0  0  0  0  0  0  0  0  0  0  0
   44.5550   35.9140   44.3990 C   0  0  0  0  0  0  0  0  0  0  0  0
   45.3380   36.0240   43.2440 C   0  0  0  0  0  0  0  0  0  0  0  0
   46.3540   35.1030   43.0240 C   0  0  0  0  0  0  0  0  0  0  0  0
   46.5120   34.1560   43.9570 N   0  0  0  0  0  0  0  0  0  0  0  0
   45.7610   34.0540   45.0640 C   0  0  0  0  0  0  0  0  0  0  0  0
   44.7730   34.9390   45.2880 N   0  0  0  0  0  0  0  0  0  0  0  0
   47.1960   35.0940   41.9400 O   0  0  0  0  0  0  0  0  0  0  0  0
   46.8580   34.2170   40.8670 C   0  0  0  0  0  0  0  0  0  0  0  0
   45.4990   34.3500   40.5720 F   0  0  0  0  0  0  0  0  0  0  0  0
   47.6010   34.6000   39.7490 F   0  0  0  0  0  0  0  0  0  0  0  0
   47.1850   32.9050   41.1690 F   0  0  0  0  0  0  0  0  0  0  0  0
   46.2777   31.1249   47.6956 H   0  0  0  0  0  0  0  0  0  0  0  0
   46.8936   30.0582   46.3685 H   0  0  0  0  0  0  0  0  0  0  0  0
   44.0770   30.0374   47.4421 H   0  0  0  0  0  0  0  0  0  0  0  0
   45.0322   26.8272   47.9743 H   0  0  0  0  0  0  0  0  0  0  0  0
   43.2975   25.1058   48.5087 H   0  0  0  0  0  0  0  0  0  0  0  0
   41.2440   25.0331   47.1278 H   0  0  0  0  0  0  0  0  0  0  0  0
   40.8645   26.5998   45.2485 H   0  0  0  0  0  0  0  0  0  0  0  0
   46.4157   33.2333   47.0240 H   0  0  0  0  0  0  0  0  0  0  0  0
   45.3915   31.4533   44.7501 H   0  0  0  0  0  0  0  0  0  0  0  0
   43.7485   36.6402   44.5781 H   0  0  0  0  0  0  0  0  0  0  0  0
   45.1509   36.8301   42.5193 H   0  0  0  0  0  0  0  0  0  0  0  0
  1  4  1  0
  2  6  1  0
  2  4  1  0
  3  2  2  0
  5 10  2  0
  5  6  1  0
  6  7  2  0
  7  8  1  0
  9  8  2  0
 10  9  1  0
 11 12  3  0
 12  5  1  0
 14 13  2  0
 14  1  1  0
 15 20  2  0
 16 15  1  0
 17 16  2  0
 17 18  1  0
 18 19  2  0
 19 20  1  0
 19 13  1  0
 21 17  1  0
 22 25  1  0
 22 21  1  0
 23 22  1  0
 24 22  1  0
  1 26  1  0
  1 27  1  0
  4 28  1  0
  7 29  1  0
  8 30  1  0
  9 31  1  0
 10 32  1  0
 13 33  1  0
 14 34  1  0
 15 35  1  0
 16 36  1  0
M  ISO  8  26   8  27   8  29  14  30  14  31  14  32  14  35  14  36  14
M  END
>  <minimizedAffinity>  (1) 
-5.46977139

>  <minimizedRMSD>  (1) 
3.28981066

$$$$
