
     RDKit          3D

 35 37  0  0  1  0  0  0  0  0999 V2000
   44.5730   35.7650   44.7330 C   0  0  0  0  0  0  0  0  0  0  0  0
   44.5290   35.3730   43.3850 C   0  0  0  0  0  0  0  0  0  0  0  0
   44.8740   34.0680   43.0380 C   0  0  0  0  0  0  0  0  0  0  0  0
   45.2420   33.2320   44.0550 N   0  0  0  0  0  0  0  0  0  0  0  0
   45.2710   33.6480   45.3390 C   0  0  0  0  0  0  0  0  0  0  0  0
   44.9440   34.8990   45.7000 N   0  0  0  0  0  0  0  0  0  0  0  0
   45.6770   32.6780   46.3040 N   0  0  0  0  0  0  0  0  0  0  0  0
   45.4310   32.8140   47.7490 C   0  0  0  0  0  0  0  0  0  0  0  0
   46.6940   32.2270   48.3180 C   0  0  0  0  0  0  0  0  0  0  0  0
   47.4150   31.5360   47.1920 C   0  0  0  0  0  0  0  0  0  0  0  0
   46.3630   31.4370   46.1400 C   0  0  2  0  0  0  0  0  0  0  0  0
   46.2300   30.0980   44.0420 C   0  0  0  0  0  0  0  0  0  0  0  0
   46.8540   31.0830   44.8210 C   0  0  0  0  0  0  0  0  0  0  0  0
   47.9570   31.6010   44.1800 C   0  0  0  0  0  0  0  0  0  0  0  0
   48.4320   31.2460   42.9490 C   0  0  0  0  0  0  0  0  0  0  0  0
   47.7710   30.2820   42.2560 C   0  0  0  0  0  0  0  0  0  0  0  0
   46.6520   29.6860   42.7920 C   0  0  0  0  0  0  0  0  0  0  0  0
   44.0910   28.9240   45.0300 N   0  0  0  0  0  0  0  0  0  0  0  0
   45.0450   29.4530   44.5880 C   0  0  0  0  0  0  0  0  0  0  0  0
   44.1180   36.3820   42.4380 N   0  0  0  0  0  0  0  0  0  0  0  0
   44.3005   36.7953   45.0055 H   0  0  0  0  0  0  0  0  0  0  0  0
   44.8512   33.7261   41.9927 H   0  0  0  0  0  0  0  0  0  0  0  0
   45.3099   33.8680   48.0397 H   0  0  0  0  0  0  0  0  0  0  0  0
   44.5094   32.3251   48.0976 H   0  0  0  0  0  0  0  0  0  0  0  0
   47.3253   33.0255   48.7350 H   0  0  0  0  0  0  0  0  0  0  0  0
   46.4632   31.5169   49.1257 H   0  0  0  0  0  0  0  0  0  0  0  0
   48.2700   32.1335   46.8428 H   0  0  0  0  0  0  0  0  0  0  0  0
   47.8389   30.5621   47.4780 H   0  0  0  0  0  0  0  0  0  0  0  0
   45.6719   30.5881   46.2485 H   0  0  0  0  0  0  0  0  0  0  0  0
   48.5148   32.3834   44.7155 H   0  0  0  0  0  0  0  0  0  0  0  0
   49.3271   31.7285   42.5295 H   0  0  0  0  0  0  0  0  0  0  0  0
   48.1316   29.9767   41.2627 H   0  0  0  0  0  0  0  0  0  0  0  0
   46.1090   28.9039   42.2411 H   0  0  0  0  0  0  0  0  0  0  0  0
   44.0658   36.1557   41.4345 H   0  0  0  0  0  0  0  0  0  0  0  0
   43.8769   37.3282   42.7658 H   0  0  0  0  0  0  0  0  0  0  0  0
  1  6  2  0
  2  1  1  0
  3  2  2  0
  3  4  1  0
  4  5  2  0
  5  6  1  0
  5  7  1  0
  7  8  1  0
  8  9  1  0
 10  9  1  0
 11  7  1  0
 11 10  1  0
 12 19  1  0
 12 13  2  0
 13 11  1  0
 14 13  1  0
 15 14  2  0
 16 17  2  0
 16 15  1  0
 17 12  1  0
 19 18  3  0
 20  2  1  0
  1 21  1  0
  3 22  1  0
  8 23  1  0
  8 24  1  0
  9 25  1  0
  9 26  1  0
 10 27  1  0
 10 28  1  0
 11 29  1  1
 14 30  1  0
 15 31  1  0
 16 32  1  0
 17 33  1  0
 20 34  1  0
 20 35  1  0
M  ISO  8  21  14  22  14  23  13  24  13  25  13  26  13  27  13  28  13
M  ISO  5  29  13  30  14  31  14  32  14  33  14
M  END
>  <minimizedAffinity>  (1) 
-4.46627522

>  <minimizedRMSD>  (1) 
2.05361581

$$$$
