
     RDKit          3D

 41 43  0  0  0  0  0  0  0  0999 V2000
   45.6450   31.5550   47.1010 C   0  0  0  0  0  0  0  0  0  0  0  0
   45.4210   32.0140   48.4100 C   0  0  0  0  0  0  0  0  0  0  0  0
   45.1780   31.1700   49.4730 C   0  0  0  0  0  0  0  0  0  0  0  0
   45.1590   29.8220   49.2320 C   0  0  0  0  0  0  0  0  0  0  0  0
   45.3820   29.3580   47.9320 C   0  0  0  0  0  0  0  0  0  0  0  0
   45.6070   30.2370   46.9640 N   0  0  0  0  0  0  0  0  0  0  0  0
   44.7720   36.5570   43.8510 C   0  0  0  0  0  0  0  0  0  0  0  0
   45.6540   36.2730   42.8110 C   0  0  0  0  0  0  0  0  0  0  0  0
   46.3140   35.0440   42.8350 C   0  0  0  0  0  0  0  0  0  0  0  0
   46.0690   34.1840   43.8670 N   0  0  0  0  0  0  0  0  0  0  0  0
   45.1900   34.5200   44.8620 C   0  0  0  0  0  0  0  0  0  0  0  0
   44.5360   35.7140   44.8560 N   0  0  0  0  0  0  0  0  0  0  0  0
   45.8930   32.5060   46.0320 C   0  0  0  0  0  0  0  0  0  0  0  0
   46.8880   32.3350   45.2890 O   0  0  0  0  0  0  0  0  0  0  0  0
   44.9750   33.5830   45.8990 N   0  0  0  0  0  0  0  0  0  0  0  0
   45.3620   27.9280   47.6790 C   0  0  0  0  0  0  0  0  0  0  0  0
   44.6140   27.1370   48.4200 C   0  0  0  0  0  0  0  0  0  0  0  0
   44.5080   25.6510   48.2690 C   0  0  0  0  0  0  0  0  0  0  0  0
   43.6830   24.2870   46.4580 C   0  0  0  0  0  0  0  0  0  0  0  0
   43.4210   25.3220   47.3480 C   0  0  0  0  0  0  0  0  0  0  0  0
   42.1880   25.9520   47.3050 C   0  0  0  0  0  0  0  0  0  0  0  0
   41.2420   25.5270   46.3650 C   0  0  0  0  0  0  0  0  0  0  0  0
   41.5180   24.4970   45.4860 C   0  0  0  0  0  0  0  0  0  0  0  0
   42.7410   23.8760   45.5340 C   0  0  0  0  0  0  0  0  0  0  0  0
   45.9650   23.0420   46.4320 N   0  0  0  0  0  0  0  0  0  0  0  0
   44.9460   23.5870   46.4490 C   0  0  0  0  0  0  0  0  0  0  0  0
   45.4404   33.0981   48.5956 H   0  0  0  0  0  0  0  0  0  0  0  0
   45.0047   31.5674   50.4840 H   0  0  0  0  0  0  0  0  0  0  0  0
   44.9705   29.1127   50.0514 H   0  0  0  0  0  0  0  0  0  0  0  0
   44.2453   37.5227   43.8424 H   0  0  0  0  0  0  0  0  0  0  0  0
   45.8245   36.9938   41.9977 H   0  0  0  0  0  0  0  0  0  0  0  0
   47.0197   34.7724   42.0361 H   0  0  0  0  0  0  0  0  0  0  0  0
   44.1749   33.6783   46.5406 H   0  0  0  0  0  0  0  0  0  0  0  0
   45.9724   27.5051   46.8675 H   0  0  0  0  0  0  0  0  0  0  0  0
   44.0176   27.6069   49.2159 H   0  0  0  0  0  0  0  0  0  0  0  0
   45.4548   25.2560   47.8721 H   0  0  0  0  0  0  0  0  0  0  0  0
   44.3004   25.2005   49.2508 H   0  0  0  0  0  0  0  0  0  0  0  0
   41.9560   26.7735   47.9988 H   0  0  0  0  0  0  0  0  0  0  0  0
   40.2605   26.0221   46.3252 H   0  0  0  0  0  0  0  0  0  0  0  0
   40.7628   24.1771   44.7530 H   0  0  0  0  0  0  0  0  0  0  0  0
   42.9706   23.0543   44.8397 H   0  0  0  0  0  0  0  0  0  0  0  0
  1  2  2  0
  2  3  1  0
  4  3  2  0
  5  4  1  0
  6  1  1  0
  6  5  2  0
  7 12  2  0
  8  9  2  0
  8  7  1  0
  9 10  1  0
 10 11  2  0
 11 15  1  0
 12 11  1  0
 13  1  1  0
 14 13  2  0
 15 13  1  0
 16  5  1  0
 16 17  2  0
 18 17  1  0
 19 20  2  0
 20 18  1  0
 21 20  1  0
 22 21  2  0
 23 24  2  0
 23 22  1  0
 24 19  1  0
 25 26  3  0
 26 19  1  0
  2 27  1  0
  3 28  1  0
  4 29  1  0
  7 30  1  0
  8 31  1  0
  9 32  1  0
 15 33  1  0
 16 34  1  0
 17 35  1  0
 18 36  1  0
 18 37  1  0
 21 38  1  0
 22 39  1  0
 23 40  1  0
 24 41  1  0
M  ISO  8  27  14  28  14  29  14  30  14  31  14  32  14  36   8  37   8
M  ISO  4  38  14  39  14  40  14  41  14
M  END
>  <minimizedAffinity>  (1) 
-5.91461706

>  <minimizedRMSD>  (1) 
1.06444681

$$$$
