
     RDKit          3D

 23 24  0  0  0  0  0  0  0  0999 V2000
   44.8780   34.9090   45.2840 C   0  0  0  0  0  0  0  0  0  0  0  0
   45.3490   33.9320   46.1780 C   0  0  0  0  0  0  0  0  0  0  0  0
   46.4000   33.1220   45.7830 C   0  0  0  0  0  0  0  0  0  0  0  0
   46.9120   33.3250   44.5400 N   0  0  0  0  0  0  0  0  0  0  0  0
   46.4450   34.2630   43.7040 C   0  0  0  0  0  0  0  0  0  0  0  0
   45.4180   35.0670   44.0740 N   0  0  0  0  0  0  0  0  0  0  0  0
   46.4880   33.7900   41.2870 C   0  0  0  0  0  0  0  0  0  0  0  0
   47.0470   34.4270   42.3760 C   0  0  0  0  0  0  0  0  0  0  0  0
   48.1680   35.2220   42.2530 C   0  0  0  0  0  0  0  0  0  0  0  0
   48.7810   35.4150   41.0240 C   0  0  0  0  0  0  0  0  0  0  0  0
   48.1730   34.7520   39.9770 C   0  0  0  0  0  0  0  0  0  0  0  0
   47.0570   33.9420   40.0180 C   0  0  0  0  0  0  0  0  0  0  0  0
   44.3840   32.2890   41.4900 N   0  0  0  0  0  0  0  0  0  0  0  0
   45.3240   32.9580   41.3900 C   0  0  0  0  0  0  0  0  0  0  0  0
   44.6940   33.8550   47.4460 N   0  0  0  0  0  0  0  0  0  0  0  0
   44.0445   35.5588   45.5890 H   0  0  0  0  0  0  0  0  0  0  0  0
   46.8047   32.3451   46.4484 H   0  0  0  0  0  0  0  0  0  0  0  0
   48.5832   35.7118   43.1462 H   0  0  0  0  0  0  0  0  0  0  0  0
   49.6751   36.0426   40.8947 H   0  0  0  0  0  0  0  0  0  0  0  0
   48.6354   34.8861   38.9879 H   0  0  0  0  0  0  0  0  0  0  0  0
   46.6463   33.4534   39.1221 H   0  0  0  0  0  0  0  0  0  0  0  0
   44.9973   33.1578   48.1408 H   0  0  0  0  0  0  0  0  0  0  0  0
   43.9187   34.4967   47.6650 H   0  0  0  0  0  0  0  0  0  0  0  0
  1  2  2  0
  2 15  1  0
  3  2  1  0
  4  3  2  0
  5  6  2  0
  5  4  1  0
  6  1  1  0
  7 14  1  0
  7  8  2  0
  8  5  1  0
  9  8  1  0
 10  9  2  0
 11 12  2  0
 11 10  1  0
 12  7  1  0
 14 13  3  0
  1 16  1  0
  3 17  1  0
  9 18  1  0
 10 19  1  0
 11 20  1  0
 12 21  1  0
 15 22  1  0
 15 23  1  0
M  ISO  6  16  14  17  14  18  14  19  14  20  14  21  14
M  END
>  <minimizedAffinity>  (1) 
-5.27853012

>  <minimizedRMSD>  (1) 
5.56752062

$$$$
