
     RDKit          3D

 31 33  0  0  1  0  0  0  0  0999 V2000
   44.5800   33.0900   41.2530 Br  0  0  0  0  0  0  0  0  0  0  0  0
   46.2520   33.9940   41.0520 C   0  0  0  0  0  0  0  0  0  0  0  0
   46.8270   34.7540   42.0630 C   0  0  0  0  0  0  0  0  0  0  0  0
   48.0290   35.3570   41.8060 C   0  0  0  0  0  0  0  0  0  0  0  0
   48.6880   35.2440   40.6000 C   0  0  0  0  0  0  0  0  0  0  0  0
   48.1240   34.4870   39.5800 C   0  0  0  0  0  0  0  0  0  0  0  0
   46.9120   33.8810   39.8440 C   0  0  0  0  0  0  0  0  0  0  0  0
   44.4870   35.9190   44.8010 C   0  0  0  0  0  0  0  0  0  0  0  0
   45.1800   35.8540   43.5900 C   0  0  0  0  0  0  0  0  0  0  0  0
   46.0890   34.8430   43.3250 C   0  0  0  0  0  0  0  0  0  0  0  0
   46.2570   33.9250   44.3210 N   0  0  0  0  0  0  0  0  0  0  0  0
   45.5830   33.9940   45.4890 C   0  0  0  0  0  0  0  0  0  0  0  0
   44.7160   34.9800   45.7130 N   0  0  0  0  0  0  0  0  0  0  0  0
   47.7960   34.1050   37.1610 O   0  0  0  0  0  0  0  0  0  0  0  0
   46.6290   33.6450   37.3960 C   0  0  0  0  0  0  0  0  0  0  0  0
   46.3200   33.0680   38.7310 C   0  0  2  0  0  0  0  0  0  0  0  0
   44.8240   33.0600   38.7420 C   0  0  0  0  0  0  0  0  0  0  0  0
   44.4860   32.7580   37.2970 C   0  0  0  0  0  0  0  0  0  0  0  0
   45.4640   33.5630   36.5820 N   0  0  0  0  0  0  0  0  0  0  0  0
   48.4916   35.9611   42.6004 H   0  0  0  0  0  0  0  0  0  0  0  0
   49.6529   35.7493   40.4464 H   0  0  0  0  0  0  0  0  0  0  0  0
   48.6214   34.3756   38.6052 H   0  0  0  0  0  0  0  0  0  0  0  0
   43.7683   36.7288   44.9953 H   0  0  0  0  0  0  0  0  0  0  0  0
   44.9992   36.6256   42.8271 H   0  0  0  0  0  0  0  0  0  0  0  0
   45.7513   33.2296   46.2619 H   0  0  0  0  0  0  0  0  0  0  0  0
   46.7497   32.0682   38.8916 H   0  0  0  0  0  0  0  0  0  0  0  0
   44.4358   32.2791   39.4124 H   0  0  0  0  0  0  0  0  0  0  0  0
   44.3836   33.9993   39.1078 H   0  0  0  0  0  0  0  0  0  0  0  0
   44.6089   31.6880   37.0732 H   0  0  0  0  0  0  0  0  0  0  0  0
   43.4437   32.9855   37.0289 H   0  0  0  0  0  0  0  0  0  0  0  0
   45.3368   33.9949   35.6556 H   0  0  0  0  0  0  0  0  0  0  0  0
  2  1  1  0
  2  3  2  0
  3 10  1  0
  4  3  1  0
  5  4  2  0
  6  7  2  0
  6  5  1  0
  7  2  1  0
  8 13  2  0
  9  8  1  0
 10  9  2  0
 10 11  1  0
 11 12  2  0
 12 13  1  0
 14 15  2  0
 15 16  1  0
 16 17  1  0
 16  7  1  0
 18 17  1  0
 19 18  1  0
 19 15  1  0
  4 20  1  0
  5 21  1  0
  6 22  1  0
  8 23  1  0
  9 24  1  0
 12 25  1  0
 16 26  1  6
 17 27  1  0
 17 28  1  0
 18 29  1  0
 18 30  1  0
 19 31  1  0
M  ISO  8  20  14  21  14  22  14  23  14  24  14  25  14  26  13  27  13
M  ISO  4  28  13  29  13  30  13  31  10
M  END
>  <minimizedAffinity>  (1) 
-6.22748089

>  <minimizedRMSD>  (1) 
0.254596204

$$$$
