
     RDKit          3D

 49 52  0  0  1  0  0  0  0  0999 V2000
   47.4620   33.6520   42.6160 C   0  0  0  0  0  0  0  0  0  0  0  0
   48.2700   34.7860   42.5500 C   0  0  0  0  0  0  0  0  0  0  0  0
   48.6630   35.3900   41.3600 C   0  0  0  0  0  0  0  0  0  0  0  0
   48.1720   34.7540   40.2090 C   0  0  0  0  0  0  0  0  0  0  0  0
   47.3580   33.6110   40.2840 C   0  0  0  0  0  0  0  0  0  0  0  0
   47.0220   33.0860   41.4760 N   0  0  0  0  0  0  0  0  0  0  0  0
   46.8680   33.0150   39.0470 C   0  0  1  0  0  0  0  0  0  0  0  0
   45.3250   33.3240   38.8590 C   0  0  0  0  0  0  0  0  0  0  0  0
   44.9160   32.2720   37.7950 C   0  0  0  0  0  0  0  0  0  0  0  0
   45.5130   32.8270   36.4970 C   0  0  0  0  0  0  0  0  0  0  0  0
   46.9940   32.8510   36.5670 C   0  0  0  0  0  0  0  0  0  0  0  0
   47.6040   33.2800   37.8490 C   0  0  2  0  0  0  0  0  0  0  0  0
   49.1790   32.3730   37.9860 S   0  0  0  0  0  0  0  0  0  0  0  0
   47.1820   31.5160   45.5580 C   0  0  0  0  0  0  0  0  0  0  0  0
   46.2990   32.1970   46.3900 C   0  0  0  0  0  0  0  0  0  0  0  0
   45.8150   33.3910   45.9120 C   0  0  0  0  0  0  0  0  0  0  0  0
   46.2170   33.8270   44.6820 N   0  0  0  0  0  0  0  0  0  0  0  0
   47.0980   33.1010   43.9030 C   0  0  0  0  0  0  0  0  0  0  0  0
   47.5570   31.9830   44.3410 N   0  0  0  0  0  0  0  0  0  0  0  0
   44.9240   34.2180   46.5970 N   0  0  0  0  0  0  0  0  0  0  0  0
   47.8940   31.9190   48.8460 O   0  0  0  0  0  0  0  0  0  0  0  0
   47.0020   31.1190   48.4480 C   0  0  0  0  0  0  0  0  0  0  0  0
   45.8730   31.7050   47.7240 C   0  0  2  0  0  0  0  0  0  0  0  0
   44.8360   30.6120   47.5880 C   0  0  0  0  0  0  0  0  0  0  0  0
   45.5020   29.3410   48.0600 C   0  0  0  0  0  0  0  0  0  0  0  0
   46.8070   29.7170   48.5290 N   0  0  0  0  0  0  0  0  0  0  0  0
   48.6174   35.2295   43.4948 H   0  0  0  0  0  0  0  0  0  0  0  0
   49.3010   36.2853   41.3243 H   0  0  0  0  0  0  0  0  0  0  0  0
   48.4316   35.1617   39.2209 H   0  0  0  0  0  0  0  0  0  0  0  0
   47.0361   31.9379   39.1937 H   0  0  0  0  0  0  0  0  0  0  0  0
   44.7707   33.1798   39.7981 H   0  0  0  0  0  0  0  0  0  0  0  0
   45.1121   34.3618   38.5630 H   0  0  0  0  0  0  0  0  0  0  0  0
   45.3409   31.2858   38.0333 H   0  0  0  0  0  0  0  0  0  0  0  0
   43.8279   32.1216   37.7367 H   0  0  0  0  0  0  0  0  0  0  0  0
   45.1428   33.8506   36.3385 H   0  0  0  0  0  0  0  0  0  0  0  0
   45.2098   32.1769   35.6631 H   0  0  0  0  0  0  0  0  0  0  0  0
   47.3521   31.8329   36.3542 H   0  0  0  0  0  0  0  0  0  0  0  0
   47.3005   33.6146   35.8370 H   0  0  0  0  0  0  0  0  0  0  0  0
   47.6734   34.3765   37.7948 H   0  0  0  0  0  0  0  0  0  0  0  0
   49.4895   32.1942   39.3083 H   0  0  0  0  0  0  0  0  0  0  0  0
   47.5944   30.5562   45.9025 H   0  0  0  0  0  0  0  0  0  0  0  0
   44.6073   35.0999   46.1694 H   0  0  0  0  0  0  0  0  0  0  0  0
   44.5830   33.9466   47.5302 H   0  0  0  0  0  0  0  0  0  0  0  0
   45.4647   32.5715   48.2649 H   0  0  0  0  0  0  0  0  0  0  0  0
   43.9591   30.8380   48.2124 H   0  0  0  0  0  0  0  0  0  0  0  0
   44.4838   30.5194   46.5500 H   0  0  0  0  0  0  0  0  0  0  0  0
   44.9206   28.8872   48.8761 H   0  0  0  0  0  0  0  0  0  0  0  0
   45.5676   28.6004   47.2494 H   0  0  0  0  0  0  0  0  0  0  0  0
   47.5115   29.0524   48.8796 H   0  0  0  0  0  0  0  0  0  0  0  0
  1 18  1  0
  2  1  2  0
  3  2  1  0
  4  5  1  0
  4  3  2  0
  5  6  2  0
  6  1  1  0
  7  5  1  0
  8  7  1  0
  9  8  1  0
 10 11  1  0
 10  9  1  0
 11 12  1  0
 12 13  1  0
 12  7  1  0
 14 15  2  0
 16 15  1  0
 16 20  1  0
 17 16  2  0
 18 19  2  0
 18 17  1  0
 19 14  1  0
 22 26  1  0
 22 21  2  0
 23 15  1  0
 23 22  1  0
 24 23  1  0
 24 25  1  0
 25 26  1  0
  2 27  1  0
  3 28  1  0
  4 29  1  0
  7 30  1  1
  8 31  1  0
  8 32  1  0
  9 33  1  0
  9 34  1  0
 10 35  1  0
 10 36  1  0
 11 37  1  0
 11 38  1  0
 12 39  1  6
 13 40  1  0
 14 41  1  0
 20 42  1  0
 20 43  1  0
 23 44  1  1
 24 45  1  0
 24 46  1  0
 25 47  1  0
 25 48  1  0
 26 49  1  0
M  ISO  8  27  14  28  14  29  14  30  13  31  13  32  13  33  13  34  13
M  ISO  8  35  13  36  13  37  13  38  13  39  13  40  11  41  14  44  13
M  ISO  5  45  13  46  13  47  13  48  13  49  10
M  END
>  <minimizedAffinity>  (1) 
-6.6736722

>  <minimizedRMSD>  (1) 
1.33747244

$$$$
