
     RDKit          3D

 50 53  0  0  1  0  0  0  0  0999 V2000
   47.9840   33.3580   42.3980 C   0  0  1  0  0  0  0  0  0  0  0  0
   46.5230   33.7160   42.1360 C   0  0  2  0  0  0  0  0  0  0  0  0
   46.3960   34.6350   41.1350 O   0  0  0  0  0  0  0  0  0  0  0  0
   46.7220   34.0190   39.9620 C   0  0  0  0  0  0  0  0  0  0  0  0
   48.1990   33.7650   39.9270 C   0  0  2  0  0  0  0  0  0  0  0  0
   48.7900   33.1600   41.1860 C   0  0  2  0  0  0  0  0  0  0  0  0
   44.6170   35.9280   44.5530 C   0  0  0  0  0  0  0  0  0  0  0  0
   45.1870   35.4710   43.3610 C   0  0  0  0  0  0  0  0  0  0  0  0
   45.8990   34.2230   43.3650 C   0  0  0  0  0  0  0  0  0  0  0  0
   45.9920   33.5350   44.5200 N   0  0  0  0  0  0  0  0  0  0  0  0
   45.4160   34.0220   45.6680 C   0  0  0  0  0  0  0  0  0  0  0  0
   44.7350   35.2050   45.6840 N   0  0  0  0  0  0  0  0  0  0  0  0
   48.5760   34.2250   43.3040 O   0  0  0  0  0  0  0  0  0  0  0  0
   48.7730   35.0220   39.6810 O   0  0  0  0  0  0  0  0  0  0  0  0
   49.1220   31.8260   40.9230 O   0  0  0  0  0  0  0  0  0  0  0  0
   51.3740   32.3060   41.4270 N   0  0  0  0  0  0  0  0  0  0  0  0
   51.2390   31.4920   42.6500 C   0  0  0  0  0  0  0  0  0  0  0  0
   51.6210   30.1430   42.0950 C   0  0  0  0  0  0  0  0  0  0  0  0
   50.8310   30.1500   40.7950 C   0  0  0  0  0  0  0  0  0  0  0  0
   50.4270   31.6250   40.5770 C   0  0  1  0  0  0  0  0  0  0  0  0
   53.1130   31.6520   39.9780 O   0  0  0  0  0  0  0  0  0  0  0  0
   52.2640   31.3170   39.0880 C   0  0  0  0  0  0  0  0  0  0  0  0
   50.8440   31.8610   39.1620 C   0  0  1  0  0  0  0  0  0  0  0  0
   50.2330   31.0300   38.1050 C   0  0  0  0  0  0  0  0  0  0  0  0
   51.4010   30.8980   37.1150 C   0  0  0  0  0  0  0  0  0  0  0  0
   52.4800   30.4540   37.9760 N   0  0  0  0  0  0  0  0  0  0  0  0
   47.9583   32.3641   42.8687 H   0  0  0  0  0  0  0  0  0  0  0  0
   46.0092   32.7982   41.8141 H   0  0  0  0  0  0  0  0  0  0  0  0
   46.1833   33.0629   39.8875 H   0  0  0  0  0  0  0  0  0  0  0  0
   46.4399   34.6645   39.1171 H   0  0  0  0  0  0  0  0  0  0  0  0
   48.4109   33.0086   39.1569 H   0  0  0  0  0  0  0  0  0  0  0  0
   49.7087   33.7096   41.4388 H   0  0  0  0  0  0  0  0  0  0  0  0
   44.0697   36.8821   44.5677 H   0  0  0  0  0  0  0  0  0  0  0  0
   45.0919   36.0573   42.4352 H   0  0  0  0  0  0  0  0  0  0  0  0
   45.5059   33.4433   46.5992 H   0  0  0  0  0  0  0  0  0  0  0  0
   48.3730   33.9277   44.2262 H   0  0  0  0  0  0  0  0  0  0  0  0
   48.9759   35.4663   40.5421 H   0  0  0  0  0  0  0  0  0  0  0  0
   51.1077   33.2878   41.5884 H   0  0  0  0  0  0  0  0  0  0  0  0
   51.9298   31.8211   43.4402 H   0  0  0  0  0  0  0  0  0  0  0  0
   50.2528   31.5363   43.1352 H   0  0  0  0  0  0  0  0  0  0  0  0
   52.7034   30.0695   41.9131 H   0  0  0  0  0  0  0  0  0  0  0  0
   51.4054   29.2938   42.7601 H   0  0  0  0  0  0  0  0  0  0  0  0
   51.4549   29.7934   39.9622 H   0  0  0  0  0  0  0  0  0  0  0  0
   49.9555   29.4856   40.8414 H   0  0  0  0  0  0  0  0  0  0  0  0
   50.6083   32.9203   38.9823 H   0  0  0  0  0  0  0  0  0  0  0  0
   49.9212   30.0492   38.4934 H   0  0  0  0  0  0  0  0  0  0  0  0
   49.3178   31.4565   37.6685 H   0  0  0  0  0  0  0  0  0  0  0  0
   51.6371   31.8640   36.6448 H   0  0  0  0  0  0  0  0  0  0  0  0
   51.1953   30.2170   36.2760 H   0  0  0  0  0  0  0  0  0  0  0  0
   53.1941   29.7268   37.8269 H   0  0  0  0  0  0  0  0  0  0  0  0
  1 13  1  0
  2  1  1  0
  2  9  1  0
  3  2  1  0
  4  3  1  0
  5  4  1  0
  5  6  1  0
  6  1  1  0
  7 12  2  0
  8  9  2  0
  8  7  1  0
  9 10  1  0
 10 11  2  0
 11 12  1  0
 14  5  1  0
 15  6  1  0
 16 17  1  0
 18 17  1  0
 19 18  1  0
 20 19  1  0
 20 15  1  6
 20 16  1  0
 22 23  1  0
 22 21  2  0
 23 24  1  0
 23 20  1  0
 25 26  1  0
 25 24  1  0
 26 22  1  0
  1 27  1  1
  2 28  1  6
  4 29  1  0
  4 30  1  0
  5 31  1  6
  6 32  1  1
  7 33  1  0
  8 34  1  0
 11 35  1  0
 13 36  1  0
 14 37  1  0
 16 38  1  0
 17 39  1  0
 17 40  1  0
 18 41  1  0
 18 42  1  0
 19 43  1  0
 19 44  1  0
 23 45  1  6
 24 46  1  0
 24 47  1  0
 25 48  1  0
 25 49  1  0
 26 50  1  0
M  ISO  8  27  13  28  13  29  13  30  13  31  13  32  13  33  14  34  14
M  ISO  8  35  14  36   3  37   3  38   5  39  13  40  13  41  13  42  13
M  ISO  8  43  13  44  13  45  13  46  13  47  13  48  13  49  13  50  10
M  END
>  <minimizedAffinity>  (1) 
-5.73880863

>  <minimizedRMSD>  (1) 
0.859037042

$$$$
