
     RDKit          3D

 44 48  0  0  1  0  0  0  0  0999 V2000
   45.9190   32.9300   41.6160 C   0  0  0  0  0  0  0  0  0  0  0  0
   47.0220   33.7100   41.2520 C   0  0  0  0  0  0  0  0  0  0  0  0
   47.9980   33.9100   42.2130 C   0  0  0  0  0  0  0  0  0  0  0  0
   47.8200   33.3410   43.4360 N   0  0  0  0  0  0  0  0  0  0  0  0
   46.7600   32.5980   43.7710 C   0  0  0  0  0  0  0  0  0  0  0  0
   45.7940   32.3870   42.8560 N   0  0  0  0  0  0  0  0  0  0  0  0
   47.1330   30.7900   45.3830 C   0  0  0  0  0  0  0  0  0  0  0  0
   46.6610   32.0340   45.1020 C   0  0  0  0  0  0  0  0  0  0  0  0
   46.0520   32.8430   46.0820 C   0  0  0  0  0  0  0  0  0  0  0  0
   45.9150   32.3830   47.3830 C   0  0  0  0  0  0  0  0  0  0  0  0
   45.3940   32.8830   48.5410 N   0  0  0  0  0  0  0  0  0  0  0  0
   45.5720   31.9090   49.5000 C   0  0  0  0  0  0  0  0  0  0  0  0
   46.1890   30.8500   48.9140 N   0  0  0  0  0  0  0  0  0  0  0  0
   46.4080   31.1210   47.6180 C   0  0  0  0  0  0  0  0  0  0  0  0
   47.0080   30.3040   46.6830 C   0  0  0  0  0  0  0  0  0  0  0  0
   49.1890   34.7270   41.8820 C   0  0  0  0  0  0  0  0  0  0  0  0
   48.8230   35.8030   41.0600 F   0  0  0  0  0  0  0  0  0  0  0  0
   49.7260   35.2750   43.0240 F   0  0  0  0  0  0  0  0  0  0  0  0
   50.0960   33.9300   41.2370 F   0  0  0  0  0  0  0  0  0  0  0  0
   47.0810   34.2210   40.0020 O   0  0  0  0  0  0  0  0  0  0  0  0
   47.1220   33.4200   38.8760 C   0  0  0  0  0  0  0  0  0  0  0  0
   48.4340   33.5570   38.4370 C   0  0  0  0  0  0  0  0  0  0  0  0
   48.4980   32.4920   36.9370 S   0  0  0  0  0  0  0  0  0  0  0  0
   46.6900   32.0330   37.1690 C   0  0  0  0  0  0  0  0  0  0  0  0
   46.4800   32.6210   38.0810 N   0  0  0  0  0  0  0  0  0  0  0  0
   46.6450   32.3800   34.4370 O   0  0  0  0  0  0  0  0  0  0  0  0
   45.6580   31.8560   35.0530 C   0  0  0  0  0  0  0  0  0  0  0  0
   45.8870   31.1150   36.2880 C   0  0  2  0  0  0  0  0  0  0  0  0
   44.5250   30.8180   36.8490 C   0  0  0  0  0  0  0  0  0  0  0  0
   43.5980   30.9130   35.6530 C   0  0  0  0  0  0  0  0  0  0  0  0
   44.2520   31.8450   34.7600 N   0  0  0  0  0  0  0  0  0  0  0  0
   45.1268   32.7502   40.8743 H   0  0  0  0  0  0  0  0  0  0  0  0
   47.6044   30.1791   44.5991 H   0  0  0  0  0  0  0  0  0  0  0  0
   45.6835   33.8441   45.8137 H   0  0  0  0  0  0  0  0  0  0  0  0
   44.9548   33.8054   48.6724 H   0  0  0  0  0  0  0  0  0  0  0  0
   45.2678   31.9773   50.5549 H   0  0  0  0  0  0  0  0  0  0  0  0
   47.3753   29.3032   46.9540 H   0  0  0  0  0  0  0  0  0  0  0  0
   49.2413   34.1584   38.8803 H   0  0  0  0  0  0  0  0  0  0  0  0
   46.4326   30.1668   36.1726 H   0  0  0  0  0  0  0  0  0  0  0  0
   44.4951   29.8089   37.2859 H   0  0  0  0  0  0  0  0  0  0  0  0
   44.2426   31.5107   37.6555 H   0  0  0  0  0  0  0  0  0  0  0  0
   43.4818   29.9305   35.1723 H   0  0  0  0  0  0  0  0  0  0  0  0
   42.5865   31.2423   35.9332 H   0  0  0  0  0  0  0  0  0  0  0  0
   43.7861   32.4077   34.0340 H   0  0  0  0  0  0  0  0  0  0  0  0
  1  6  2  0
  2  1  1  0
  2  3  2  0
  3  4  1  0
  4  5  2  0
  5  8  1  0
  6  5  1  0
  7 15  2  0
  8  7  1  0
  8  9  2  0
  9 10  1  0
 10 14  2  0
 10 11  1  0
 11 12  1  0
 13 12  2  0
 14 13  1  0
 15 14  1  0
 16  3  1  0
 16 18  1  0
 17 16  1  0
 19 16  1  0
 20  2  1  0
 21 20  1  0
 22 21  2  0
 23 24  1  0
 23 22  1  0
 24 25  2  0
 25 21  1  0
 26 27  2  0
 27 28  1  0
 28 29  1  0
 28 24  1  0
 30 29  1  0
 31 27  1  0
 31 30  1  0
  1 32  1  0
  7 33  1  0
  9 34  1  0
 11 35  1  0
 12 36  1  0
 15 37  1  0
 22 38  1  0
 28 39  1  6
 29 40  1  0
 29 41  1  0
 30 42  1  0
 30 43  1  0
 31 44  1  0
M  ISO  8  32  14  33  14  34  14  35   9  36  14  37  14  38  14  39  13
M  ISO  5  40  13  41  13  42  13  43  13  44  10
M  END
>  <minimizedAffinity>  (1) 
-6.48150301

>  <minimizedRMSD>  (1) 
0.649222434

$$$$
