
     RDKit          3D

 40 43  0  0  1  0  0  0  0  0999 V2000
   44.8210   31.5320   42.9550 Cl  0  0  0  0  0  0  0  0  0  0  0  0
   44.7700   33.2900   42.8990 C   0  0  0  0  0  0  0  0  0  0  0  0
   45.7180   33.9490   43.7090 C   0  0  0  0  0  0  0  0  0  0  0  0
   45.6010   35.3240   43.5750 C   0  0  0  0  0  0  0  0  0  0  0  0
   44.7600   36.0460   42.8210 C   0  0  0  0  0  0  0  0  0  0  0  0
   43.8780   35.3310   42.0700 C   0  0  0  0  0  0  0  0  0  0  0  0
   43.8600   33.9710   42.0900 C   0  0  0  0  0  0  0  0  0  0  0  0
   41.6830   34.8920   40.1540 O   0  0  0  0  0  0  0  0  0  0  0  0
   41.6960   33.8750   40.9280 C   0  0  0  0  0  0  0  0  0  0  0  0
   42.9350   33.1040   41.3080 C   0  0  2  0  0  0  0  0  0  0  0  0
   42.3680   31.9580   42.0410 C   0  0  0  0  0  0  0  0  0  0  0  0
   40.9020   31.8460   41.6530 C   0  0  0  0  0  0  0  0  0  0  0  0
   40.5590   33.2720   41.5820 N   0  0  0  0  0  0  0  0  0  0  0  0
   46.7280   33.3080   44.5900 C   0  0  0  0  0  0  0  0  0  0  0  0
   46.2180   33.5770   45.6500 O   0  0  0  0  0  0  0  0  0  0  0  0
   47.7750   32.7070   43.7520 C   0  0  0  0  0  0  0  0  0  0  0  0
   48.5500   33.3470   42.8660 C   0  0  0  0  0  0  0  0  0  0  0  0
   49.3820   32.5210   42.1370 C   0  0  0  0  0  0  0  0  0  0  0  0
   49.3480   31.1390   42.3840 N   0  0  0  0  0  0  0  0  0  0  0  0
   48.5630   30.5850   43.2740 C   0  0  0  0  0  0  0  0  0  0  0  0
   47.7130   31.3760   44.0220 N   0  0  0  0  0  0  0  0  0  0  0  0
   48.6690   34.7500   42.7010 C   0  0  0  0  0  0  0  0  0  0  0  0
   49.6690   35.4530   42.1030 C   0  0  0  0  0  0  0  0  0  0  0  0
   48.4520   35.3140   41.2290 C   0  0  0  0  0  0  0  0  0  0  0  0
   46.3063   35.9126   44.1801 H   0  0  0  0  0  0  0  0  0  0  0  0
   44.7812   37.1457   42.8099 H   0  0  0  0  0  0  0  0  0  0  0  0
   43.1613   35.8669   41.4304 H   0  0  0  0  0  0  0  0  0  0  0  0
   43.5677   32.7627   40.4754 H   0  0  0  0  0  0  0  0  0  0  0  0
   42.9006   31.0357   41.7659 H   0  0  0  0  0  0  0  0  0  0  0  0
   42.4710   32.1036   43.1264 H   0  0  0  0  0  0  0  0  0  0  0  0
   40.7717   31.3441   40.6829 H   0  0  0  0  0  0  0  0  0  0  0  0
   40.2813   31.2492   42.3376 H   0  0  0  0  0  0  0  0  0  0  0  0
   39.7039   33.7355   41.9209 H   0  0  0  0  0  0  0  0  0  0  0  0
   50.0590   32.9377   41.3767 H   0  0  0  0  0  0  0  0  0  0  0  0
   48.5805   29.4956   43.4250 H   0  0  0  0  0  0  0  0  0  0  0  0
   48.2514   34.8463   43.7141 H   0  0  0  0  0  0  0  0  0  0  0  0
   49.9259   36.4471   42.4977 H   0  0  0  0  0  0  0  0  0  0  0  0
   50.7284   35.2147   41.9272 H   0  0  0  0  0  0  0  0  0  0  0  0
   47.7862   36.1685   41.0377 H   0  0  0  0  0  0  0  0  0  0  0  0
   48.1973   34.9283   40.2308 H   0  0  0  0  0  0  0  0  0  0  0  0
  2  1  1  0
  2  3  2  0
  3 14  1  0
  4  3  1  0
  5  4  2  0
  6  7  2  0
  6  5  1  0
  7  2  1  0
  8  9  2  0
  9 10  1  0
  9 13  1  0
 10 11  1  0
 10  7  1  0
 12 11  1  0
 13 12  1  0
 14 15  2  0
 16 21  1  0
 16 14  1  0
 17 16  2  0
 18 19  2  0
 18 17  1  0
 19 20  1  0
 20 21  2  0
 22 17  1  0
 23 22  1  0
 24 23  1  0
 24 22  1  0
  4 25  1  0
  5 26  1  0
  6 27  1  0
 10 28  1  6
 11 29  1  0
 11 30  1  0
 12 31  1  0
 12 32  1  0
 13 33  1  0
 18 34  1  0
 20 35  1  0
 22 36  1  0
 23 37  1  0
 23 38  1  0
 24 39  1  0
 24 40  1  0
M  ISO  8  25  14  26  14  27  14  28  13  29  13  30  13  31  13  32  13
M  ISO  8  33  10  34  14  35  14  36  13  37  13  38  13  39  13  40  13
M  END
>  <minimizedAffinity>  (1) 
-5.74695063

>  <minimizedRMSD>  (1) 
0.321719319

$$$$
