
     RDKit          3D

 48 52  0  0  1  0  0  0  0  0999 V2000
   45.0810   36.0230   43.5230 C   0  0  0  0  0  0  0  0  0  0  0  0
   45.8820   34.9180   43.2870 C   0  0  0  0  0  0  0  0  0  0  0  0
   46.0130   33.9930   44.2910 C   0  0  0  0  0  0  0  0  0  0  0  0
   45.3540   34.2020   45.4730 N   0  0  0  0  0  0  0  0  0  0  0  0
   44.5840   35.2880   45.6710 C   0  0  0  0  0  0  0  0  0  0  0  0
   44.4530   36.1800   44.7090 N   0  0  0  0  0  0  0  0  0  0  0  0
   46.5270   34.8190   42.0520 N   0  0  0  0  0  0  0  0  0  0  0  0
   47.8510   35.2680   41.8410 C   0  0  0  0  0  0  0  0  0  0  0  0
   48.4290   34.9370   40.4910 C   0  0  0  0  0  0  0  0  0  0  0  0
   48.1000   33.6650   39.9810 N   0  0  0  0  0  0  0  0  0  0  0  0
   46.7900   33.2210   40.1960 C   0  0  0  0  0  0  0  0  0  0  0  0
   45.9370   34.2710   40.8810 C   0  0  0  0  0  0  0  0  0  0  0  0
   46.5340   32.1120   45.6070 C   0  0  0  0  0  0  0  0  0  0  0  0
   46.7250   32.7840   44.3800 C   0  0  0  0  0  0  0  0  0  0  0  0
   47.6330   32.0990   43.5910 C   0  0  0  0  0  0  0  0  0  0  0  0
   48.2770   30.9450   43.9110 C   0  0  0  0  0  0  0  0  0  0  0  0
   48.0390   30.3590   45.1330 C   0  0  0  0  0  0  0  0  0  0  0  0
   47.1540   30.9430   46.0000 C   0  0  0  0  0  0  0  0  0  0  0  0
   48.8340   29.2410   45.1630 O   0  0  0  0  0  0  0  0  0  0  0  0
   49.6410   29.1840   43.9920 C   0  0  1  0  0  0  0  0  0  0  0  0
   49.1820   30.2310   43.1440 O   0  0  0  0  0  0  0  0  0  0  0  0
   51.4860   31.1690   42.4170 O   0  0  0  0  0  0  0  0  0  0  0  0
   51.7880   30.2250   43.2250 C   0  0  0  0  0  0  0  0  0  0  0  0
   51.0810   29.4790   44.2720 C   0  0  2  0  0  0  0  0  0  0  0  0
   51.8240   28.1380   44.2810 C   0  0  0  0  0  0  0  0  0  0  0  0
   53.2600   28.6440   44.1970 C   0  0  0  0  0  0  0  0  0  0  0  0
   53.1230   29.6790   43.1900 N   0  0  0  0  0  0  0  0  0  0  0  0
   44.9547   36.7812   42.7361 H   0  0  0  0  0  0  0  0  0  0  0  0
   44.0664   35.4307   46.6310 H   0  0  0  0  0  0  0  0  0  0  0  0
   47.8629   36.3617   41.9581 H   0  0  0  0  0  0  0  0  0  0  0  0
   48.4746   34.7421   42.5790 H   0  0  0  0  0  0  0  0  0  0  0  0
   48.0700   35.6913   39.7754 H   0  0  0  0  0  0  0  0  0  0  0  0
   49.5208   34.9334   40.6248 H   0  0  0  0  0  0  0  0  0  0  0  0
   48.7365   32.9809   40.4143 H   0  0  0  0  0  0  0  0  0  0  0  0
   46.3358   32.9730   39.2254 H   0  0  0  0  0  0  0  0  0  0  0  0
   46.8346   32.3396   40.8527 H   0  0  0  0  0  0  0  0  0  0  0  0
   45.7570   35.0895   40.1685 H   0  0  0  0  0  0  0  0  0  0  0  0
   45.0083   33.7722   41.1953 H   0  0  0  0  0  0  0  0  0  0  0  0
   45.8243   32.5624   46.3165 H   0  0  0  0  0  0  0  0  0  0  0  0
   47.8562   32.5323   42.6049 H   0  0  0  0  0  0  0  0  0  0  0  0
   46.9433   30.4933   46.9815 H   0  0  0  0  0  0  0  0  0  0  0  0
   49.5654   28.1743   43.5622 H   0  0  0  0  0  0  0  0  0  0  0  0
   51.0767   30.0650   45.2029 H   0  0  0  0  0  0  0  0  0  0  0  0
   51.6414   27.5741   45.2076 H   0  0  0  0  0  0  0  0  0  0  0  0
   51.5289   27.4344   43.4886 H   0  0  0  0  0  0  0  0  0  0  0  0
   53.6011   29.0564   45.1580 H   0  0  0  0  0  0  0  0  0  0  0  0
   54.0033   27.8695   43.9569 H   0  0  0  0  0  0  0  0  0  0  0  0
   53.8682   29.9795   42.5456 H   0  0  0  0  0  0  0  0  0  0  0  0
  1  6  2  0
  2  1  1  0
  2  3  2  0
  3 14  1  0
  3  4  1  0
  4  5  2  0
  6  5  1  0
  7  2  1  0
  8  7  1  0
  9  8  1  0
 10 11  1  0
 10  9  1  0
 11 12  1  0
 12  7  1  0
 13 18  2  0
 14 13  1  0
 15 16  1  0
 15 14  2  0
 16 17  2  0
 17 19  1  0
 17 18  1  0
 20 24  1  0
 20 19  1  0
 21 16  1  0
 21 20  1  0
 22 23  2  0
 24 23  1  0
 24 25  1  0
 26 25  1  0
 27 23  1  0
 27 26  1  0
  1 28  1  0
  5 29  1  0
  8 30  1  0
  8 31  1  0
  9 32  1  0
  9 33  1  0
 10 34  1  0
 11 35  1  0
 11 36  1  0
 12 37  1  0
 12 38  1  0
 13 39  1  0
 15 40  1  0
 18 41  1  0
 20 42  1  6
 24 43  1  1
 25 44  1  0
 25 45  1  0
 26 46  1  0
 26 47  1  0
 27 48  1  0
M  ISO  8  28  14  29  14  30  13  31  13  32  13  33  13  34   5  35  13
M  ISO  8  36  13  37  13  38  13  39  14  40  14  41  14  42  13  43  13
M  ISO  5  44  13  45  13  46  13  47  13  48  10
M  END
>  <minimizedAffinity>  (1) 
-5.52899647

>  <minimizedRMSD>  (1) 
0.318159759

$$$$
