
     RDKit          3D

 50 53  0  0  1  0  0  0  0  0999 V2000
   46.7910   32.7600   44.2980 C   0  0  0  0  0  0  0  0  0  0  0  0
   46.3800   34.7740   43.0190 C   0  0  0  0  0  0  0  0  0  0  0  0
   46.0790   34.0390   44.1420 C   0  0  0  0  0  0  0  0  0  0  0  0
   45.1950   34.3870   45.0880 C   0  0  0  0  0  0  0  0  0  0  0  0
   44.5260   35.5710   44.9460 C   0  0  0  0  0  0  0  0  0  0  0  0
   44.7380   36.3830   43.8790 C   0  0  0  0  0  0  0  0  0  0  0  0
   45.6620   35.9560   42.9440 C   0  0  0  0  0  0  0  0  0  0  0  0
   47.5570   34.4820   41.8170 S   0  0  0  0  0  0  0  0  0  0  0  0
   48.4540   35.6480   41.5320 O   0  0  0  0  0  0  0  0  0  0  0  0
   46.7520   34.3030   40.4950 O   0  0  0  0  0  0  0  0  0  0  0  0
   50.8940   33.8580   42.5130 O   0  0  0  0  0  0  0  0  0  0  0  0
   49.9560   33.2220   41.9650 C   0  0  0  0  0  0  0  0  0  0  0  0
   48.5040   33.0930   41.6730 C   0  0  2  0  0  0  0  0  0  0  0  0
   48.6700   32.8620   40.1600 C   0  0  0  0  0  0  0  0  0  0  0  0
   49.5650   31.6270   40.2120 C   0  0  0  0  0  0  0  0  0  0  0  0
   50.4790   32.0600   41.2810 N   0  0  0  0  0  0  0  0  0  0  0  0
   46.1300   31.7530   45.1870 C   0  0  0  0  0  0  0  0  0  0  0  0
   47.0750   32.4930   47.3450 C   0  0  0  0  0  0  0  0  0  0  0  0
   47.0070   31.5140   46.3270 C   0  0  0  0  0  0  0  0  0  0  0  0
   47.7560   30.3650   46.4910 C   0  0  0  0  0  0  0  0  0  0  0  0
   48.5070   30.2390   47.6090 N   0  0  0  0  0  0  0  0  0  0  0  0
   48.5490   31.1750   48.5510 C   0  0  0  0  0  0  0  0  0  0  0  0
   47.8350   32.3210   48.4400 N   0  0  0  0  0  0  0  0  0  0  0  0
   49.4040   30.9370   49.7630 C   0  0  0  0  0  0  0  0  0  0  0  0
   50.6850   31.6300   49.7150 C   0  0  0  0  0  0  0  0  0  0  0  0
   51.8720   31.0920   49.2320 C   0  0  0  0  0  0  0  0  0  0  0  0
   52.8560   32.0370   49.3470 C   0  0  0  0  0  0  0  0  0  0  0  0
   52.2370   33.1270   49.9010 N   0  0  0  0  0  0  0  0  0  0  0  0
   50.9450   32.8860   50.1190 N   0  0  0  0  0  0  0  0  0  0  0  0
   47.7864   32.9758   44.7135 H   0  0  0  0  0  0  0  0  0  0  0  0
   46.8145   32.3059   43.2964 H   0  0  0  0  0  0  0  0  0  0  0  0
   45.0126   33.7366   45.9562 H   0  0  0  0  0  0  0  0  0  0  0  0
   43.7990   35.8726   45.7144 H   0  0  0  0  0  0  0  0  0  0  0  0
   44.2000   37.3355   43.7640 H   0  0  0  0  0  0  0  0  0  0  0  0
   45.8408   36.6046   42.0737 H   0  0  0  0  0  0  0  0  0  0  0  0
   48.0073   32.3716   42.3385 H   0  0  0  0  0  0  0  0  0  0  0  0
   49.1640   33.7103   39.6637 H   0  0  0  0  0  0  0  0  0  0  0  0
   47.7358   32.7492   39.5904 H   0  0  0  0  0  0  0  0  0  0  0  0
   49.0049   30.7214   40.4880 H   0  0  0  0  0  0  0  0  0  0  0  0
   50.0428   31.3449   39.2622 H   0  0  0  0  0  0  0  0  0  0  0  0
   51.3704   31.5981   41.5109 H   0  0  0  0  0  0  0  0  0  0  0  0
   45.1618   32.1415   45.5358 H   0  0  0  0  0  0  0  0  0  0  0  0
   45.9530   30.8164   44.6380 H   0  0  0  0  0  0  0  0  0  0  0  0
   46.4910   33.4190   47.2380 H   0  0  0  0  0  0  0  0  0  0  0  0
   47.7421   29.5708   45.7300 H   0  0  0  0  0  0  0  0  0  0  0  0
   48.8540   31.2828   50.6506 H   0  0  0  0  0  0  0  0  0  0  0  0
   49.6201   29.8591   49.8003 H   0  0  0  0  0  0  0  0  0  0  0  0
   51.9994   30.0777   48.8257 H   0  0  0  0  0  0  0  0  0  0  0  0
   53.9130   31.9421   49.0578 H   0  0  0  0  0  0  0  0  0  0  0  0
   52.7088   34.0160   50.1201 H   0  0  0  0  0  0  0  0  0  0  0  0
  1 17  1  0
  2  3  1  0
  3  1  1  0
  3  4  2  0
  5  4  1  0
  6  5  2  0
  7  2  2  0
  7  6  1  0
  8  2  1  0
  9  8  2  0
 10  8  2  0
 12 11  2  0
 13  8  1  0
 13 12  1  0
 14 15  1  0
 14 13  1  0
 15 16  1  0
 16 12  1  0
 17 19  1  0
 18 23  2  0
 19 20  2  0
 19 18  1  0
 20 21  1  0
 21 22  2  0
 22 24  1  0
 23 22  1  0
 25 24  1  0
 25 29  2  0
 26 27  2  0
 26 25  1  0
 27 28  1  0
 28 29  1  0
  1 30  1  0
  1 31  1  0
  4 32  1  0
  5 33  1  0
  6 34  1  0
  7 35  1  0
 13 36  1  1
 14 37  1  0
 14 38  1  0
 15 39  1  0
 15 40  1  0
 16 41  1  0
 17 42  1  0
 17 43  1  0
 18 44  1  0
 20 45  1  0
 24 46  1  0
 24 47  1  0
 26 48  1  0
 27 49  1  0
 28 50  1  0
M  ISO  8  30   8  31   8  32  14  33  14  34  14  35  14  36  13  37  13
M  ISO  8  38  13  39  13  40  13  41  10  42   8  43   8  44  14  45  14
M  ISO  5  46   8  47   8  48  14  49  14  50   9
M  END
>  <minimizedAffinity>  (1) 
-6.59961033

>  <minimizedRMSD>  (1) 
0.546284914

$$$$
