
     RDKit          3D

 39 41  0  0  1  0  0  0  0  0999 V2000
   46.2420   33.8420   44.7130 C   0  0  0  0  0  0  0  0  0  0  0  0
   45.1410   34.5920   45.0300 C   0  0  0  0  0  0  0  0  0  0  0  0
   44.6500   35.6190   44.2700 C   0  0  0  0  0  0  0  0  0  0  0  0
   45.2900   35.9330   43.1090 C   0  0  0  0  0  0  0  0  0  0  0  0
   46.3910   35.2150   42.7480 C   0  0  0  0  0  0  0  0  0  0  0  0
   46.8640   34.1820   43.5390 C   0  0  0  0  0  0  0  0  0  0  0  0
   47.4860   30.5380   45.6890 C   0  0  0  0  0  0  0  0  0  0  0  0
   47.6310   30.6470   47.0760 C   0  0  0  0  0  0  0  0  0  0  0  0
   47.3010   31.8650   47.6780 C   0  0  0  0  0  0  0  0  0  0  0  0
   46.8440   32.9200   46.9220 N   0  0  0  0  0  0  0  0  0  0  0  0
   46.7180   32.7620   45.5600 C   0  0  0  0  0  0  0  0  0  0  0  0
   47.0420   31.5830   44.9950 N   0  0  0  0  0  0  0  0  0  0  0  0
   48.0180   33.5330   43.0280 N   0  0  0  0  0  0  0  0  0  0  0  0
   49.5170   34.1360   42.4420 S   0  0  0  0  0  0  0  0  0  0  0  0
   49.2740   34.6710   41.0310 O   0  0  0  0  0  0  0  0  0  0  0  0
   50.1230   35.2160   43.2520 O   0  0  0  0  0  0  0  0  0  0  0  0
   50.5210   32.8070   42.2510 O   0  0  0  0  0  0  0  0  0  0  0  0
   52.8390   31.6610   40.3190 O   0  0  0  0  0  0  0  0  0  0  0  0
   51.6880   31.4270   40.8140 C   0  0  0  0  0  0  0  0  0  0  0  0
   50.4240   32.1810   41.0370 C   0  0  1  0  0  0  0  0  0  0  0  0
   49.4180   31.0630   41.0020 C   0  0  0  0  0  0  0  0  0  0  0  0
   50.1100   29.8730   41.6360 C   0  0  0  0  0  0  0  0  0  0  0  0
   51.5010   30.0830   41.3030 N   0  0  0  0  0  0  0  0  0  0  0  0
   44.6123   34.3514   45.9641 H   0  0  0  0  0  0  0  0  0  0  0  0
   43.7584   36.1784   44.5895 H   0  0  0  0  0  0  0  0  0  0  0  0
   44.9242   36.7527   42.4732 H   0  0  0  0  0  0  0  0  0  0  0  0
   46.9130   35.4608   41.8114 H   0  0  0  0  0  0  0  0  0  0  0  0
   47.7366   29.5973   45.1768 H   0  0  0  0  0  0  0  0  0  0  0  0
   47.9940   29.7992   47.6756 H   0  0  0  0  0  0  0  0  0  0  0  0
   47.4077   31.9810   48.7666 H   0  0  0  0  0  0  0  0  0  0  0  0
   47.9430   32.5060   43.0037 H   0  0  0  0  0  0  0  0  0  0  0  0
   48.8652   35.5710   41.0852 H   0  0  0  0  0  0  0  0  0  0  0  0
   50.0081   35.0113   44.2138 H   0  0  0  0  0  0  0  0  0  0  0  0
   50.1717   32.9767   40.3206 H   0  0  0  0  0  0  0  0  0  0  0  0
   48.5203   31.3360   41.5761 H   0  0  0  0  0  0  0  0  0  0  0  0
   49.0886   30.8434   39.9757 H   0  0  0  0  0  0  0  0  0  0  0  0
   49.9622   29.8656   42.7260 H   0  0  0  0  0  0  0  0  0  0  0  0
   49.7220   28.9078   41.2784 H   0  0  0  0  0  0  0  0  0  0  0  0
   52.2464   29.3788   41.4003 H   0  0  0  0  0  0  0  0  0  0  0  0
  1  2  2  0
  1 11  1  0
  3  2  1  0
  4  3  2  0
  5  4  1  0
  5  6  2  0
  6  1  1  0
  7  8  2  0
  8  9  1  0
 10  9  2  0
 11 10  1  0
 12 11  2  0
 12  7  1  0
 13  6  1  0
 14 13  1  0
 14 16  1  0
 15 14  1  0
 17 14  1  0
 18 19  2  0
 19 20  1  0
 19 23  1  0
 20 17  1  0
 21 20  1  0
 21 22  1  0
 23 22  1  0
  2 24  1  0
  3 25  1  0
  4 26  1  0
  5 27  1  0
  7 28  1  0
  8 29  1  0
  9 30  1  0
 13 31  1  0
 15 32  1  0
 16 33  1  0
 20 34  1  6
 21 35  1  0
 21 36  1  0
 22 37  1  0
 22 38  1  0
 23 39  1  0
M  ISO  8  24  14  25  14  26  14  27  14  28  14  29  14  30  14  32   3
M  ISO  7  33   3  34  13  35  13  36  13  37  13  38  13  39  10
M  END
>  <minimizedAffinity>  (1) 
-6.09446621

>  <minimizedRMSD>  (1) 
2.38546109

$$$$
