
     RDKit          3D

 43 45  0  0  1  0  0  0  0  0999 V2000
   45.1700   35.7770   43.3230 C   0  0  0  0  0  0  0  0  0  0  0  0
   45.9550   34.5980   43.3620 C   0  0  0  0  0  0  0  0  0  0  0  0
   45.9900   33.8800   44.5450 C   0  0  0  0  0  0  0  0  0  0  0  0
   45.2790   34.3320   45.6120 N   0  0  0  0  0  0  0  0  0  0  0  0
   44.5370   35.4550   45.5580 C   0  0  0  0  0  0  0  0  0  0  0  0
   44.4870   36.1660   44.4230 N   0  0  0  0  0  0  0  0  0  0  0  0
   46.6390   34.2620   42.1620 N   0  0  0  0  0  0  0  0  0  0  0  0
   47.8620   34.9030   41.7350 C   0  0  0  0  0  0  0  0  0  0  0  0
   48.3780   34.2380   40.4910 C   0  0  0  0  0  0  0  0  0  0  0  0
   47.3940   34.1310   39.4600 N   0  0  0  0  0  0  0  0  0  0  0  0
   46.1450   33.5680   39.8730 C   0  0  0  0  0  0  0  0  0  0  0  0
   46.0590   33.2070   41.3240 C   0  0  0  0  0  0  0  0  0  0  0  0
   46.7710   32.7250   44.5500 O   0  0  0  0  0  0  0  0  0  0  0  0
   45.4230   31.2580   46.2990 O   0  0  0  0  0  0  0  0  0  0  0  0
   46.8220   31.7730   45.9790 P   0  0  0  0  0  0  0  0  0  0  0  0
   47.9050   30.5200   45.7360 O   0  0  0  0  0  0  0  0  0  0  0  0
   47.3240   32.7890   47.2490 O   0  0  0  0  0  0  0  0  0  0  0  0
   48.4540   30.3850   48.7090 O   0  0  0  0  0  0  0  0  0  0  0  0
   47.2790   30.8700   48.6960 C   0  0  0  0  0  0  0  0  0  0  0  0
   46.7910   32.2360   48.4110 C   0  0  2  0  0  0  0  0  0  0  0  0
   45.2890   31.9950   48.2500 C   0  0  0  0  0  0  0  0  0  0  0  0
   45.0750   30.9430   49.3450 C   0  0  0  0  0  0  0  0  0  0  0  0
   46.1550   30.0190   49.0000 N   0  0  0  0  0  0  0  0  0  0  0  0
   45.1165   36.3739   42.4006 H   0  0  0  0  0  0  0  0  0  0  0  0
   43.9740   35.7874   46.4426 H   0  0  0  0  0  0  0  0  0  0  0  0
   47.6641   35.9647   41.5262 H   0  0  0  0  0  0  0  0  0  0  0  0
   48.6150   34.8159   42.5322 H   0  0  0  0  0  0  0  0  0  0  0  0
   49.2249   34.8252   40.1063 H   0  0  0  0  0  0  0  0  0  0  0  0
   48.6753   33.2154   40.7664 H   0  0  0  0  0  0  0  0  0  0  0  0
   47.7794   33.5387   38.7106 H   0  0  0  0  0  0  0  0  0  0  0  0
   45.3531   34.3002   39.6566 H   0  0  0  0  0  0  0  0  0  0  0  0
   46.0349   32.6258   39.3161 H   0  0  0  0  0  0  0  0  0  0  0  0
   45.0028   33.0690   41.5986 H   0  0  0  0  0  0  0  0  0  0  0  0
   46.6239   32.2776   41.4886 H   0  0  0  0  0  0  0  0  0  0  0  0
   45.3040   31.2142   47.2809 H   0  0  0  0  0  0  0  0  0  0  0  0
    0.0000    0.0000    0.0000 H   0  0  0  0  0  0  0  0  0  0  0  0
   48.2071   30.1705   46.6116 H   0  0  0  0  0  0  0  0  0  0  0  0
   47.0734   32.9544   49.1946 H   0  0  0  0  0  0  0  0  0  0  0  0
   44.7055   32.9079   48.4400 H   0  0  0  0  0  0  0  0  0  0  0  0
   44.9722   31.6888   47.2421 H   0  0  0  0  0  0  0  0  0  0  0  0
   45.2022   31.3663   50.3523 H   0  0  0  0  0  0  0  0  0  0  0  0
   44.0694   30.4986   49.3796 H   0  0  0  0  0  0  0  0  0  0  0  0
   46.1205   28.9898   48.9789 H   0  0  0  0  0  0  0  0  0  0  0  0
  1  2  2  0
  1  6  1  0
  2  3  1  0
  3 13  1  0
  3  4  2  0
  5  4  1  0
  6  5  2  0
  7  2  1  0
  8  7  1  0
  9  8  1  0
 10 11  1  0
 10  9  1  0
 11 12  1  0
 12  7  1  0
 13 15  1  0
 15 14  1  0
 15 17  1  0
 16 15  1  0
 19 18  2  0
 19 23  1  0
 20 17  1  0
 20 19  1  0
 21 20  1  0
 21 22  1  0
 23 22  1  0
  1 24  1  0
  5 25  1  0
  8 26  1  0
  8 27  1  0
  9 28  1  0
  9 29  1  0
 10 30  1  0
 11 31  1  0
 11 32  1  0
 12 33  1  0
 12 34  1  0
 14 35  1  0
 15 36  1  0
 16 37  1  0
 20 38  1  1
 21 39  1  0
 21 40  1  0
 22 41  1  0
 22 42  1  0
 23 43  1  0
M  ISO  8  24  14  25  14  26  13  27  13  28  13  29  13  30   5  31  13
M  ISO  8  32  13  33  13  34  13  35   3  37   3  38  13  39  13  40  13
M  ISO  3  41  13  42  13  43  10
M  END
>  <minimizedAffinity>  (1) 
-5.71745396

>  <minimizedRMSD>  (1) 
0.323180139

$$$$
