
     RDKit          3D

 46 49  0  0  0  0  0  0  0  0999 V2000
   46.4800   30.8560   48.8830 C   0  0  0  0  0  0  0  0  0  0  0  0
   46.3210   32.8820   45.9480 C   0  0  0  0  0  0  0  0  0  0  0  0
   47.3140   31.9360   45.5870 C   0  0  0  0  0  0  0  0  0  0  0  0
   47.4860   31.0850   46.6210 C   0  0  0  0  0  0  0  0  0  0  0  0
   46.6360   31.4850   47.5840 N   0  0  0  0  0  0  0  0  0  0  0  0
   45.9320   32.5600   47.1930 N   0  0  0  0  0  0  0  0  0  0  0  0
   44.5140   35.8210   44.7470 C   0  0  0  0  0  0  0  0  0  0  0  0
   45.0100   35.9910   43.4480 C   0  0  0  0  0  0  0  0  0  0  0  0
   45.9690   35.0820   43.0030 C   0  0  0  0  0  0  0  0  0  0  0  0
   46.3320   34.1180   43.8630 N   0  0  0  0  0  0  0  0  0  0  0  0
   45.8640   33.9580   45.0880 C   0  0  0  0  0  0  0  0  0  0  0  0
   44.9440   34.8250   45.5250 N   0  0  0  0  0  0  0  0  0  0  0  0
   46.5870   35.1100   41.6900 C   0  0  0  0  0  0  0  0  0  0  0  0
   47.8900   35.0240   41.5310 C   0  0  0  0  0  0  0  0  0  0  0  0
   48.5480   35.0490   40.2210 C   0  0  0  0  0  0  0  0  0  0  0  0
   45.1160   30.2900   49.0230 C   0  0  0  0  0  0  0  0  0  0  0  0
   44.8910   27.7720   48.5850 C   0  0  0  0  0  0  0  0  0  0  0  0
   44.8060   29.1010   48.2320 C   0  0  0  0  0  0  0  0  0  0  0  0
   44.3660   29.3720   46.9450 C   0  0  0  0  0  0  0  0  0  0  0  0
   44.0310   28.3660   46.0670 C   0  0  0  0  0  0  0  0  0  0  0  0
   43.5880   28.3240   44.7960 N   0  0  0  0  0  0  0  0  0  0  0  0
   43.4070   27.0650   44.3810 C   0  0  0  0  0  0  0  0  0  0  0  0
   43.7430   26.2040   45.4210 C   0  0  0  0  0  0  0  0  0  0  0  0
   44.1180   27.0470   46.4260 C   0  0  0  0  0  0  0  0  0  0  0  0
   44.5530   26.7690   47.7030 C   0  0  0  0  0  0  0  0  0  0  0  0
   44.6670   25.3830   48.1470 C   0  0  0  0  0  0  0  0  0  0  0  0
   45.2160   25.0960   49.2470 O   0  0  0  0  0  0  0  0  0  0  0  0
   46.6438   31.6059   49.6709 H   0  0  0  0  0  0  0  0  0  0  0  0
   47.2150   30.0430   48.9763 H   0  0  0  0  0  0  0  0  0  0  0  0
   47.8522   31.9015   44.6283 H   0  0  0  0  0  0  0  0  0  0  0  0
   48.1821   30.2345   46.6669 H   0  0  0  0  0  0  0  0  0  0  0  0
   43.7573   36.5201   45.1326 H   0  0  0  0  0  0  0  0  0  0  0  0
   44.6566   36.8098   42.8041 H   0  0  0  0  0  0  0  0  0  0  0  0
   45.9464   35.2060   40.8010 H   0  0  0  0  0  0  0  0  0  0  0  0
   48.5191   34.9283   42.4282 H   0  0  0  0  0  0  0  0  0  0  0  0
   49.6385   35.0904   40.3592 H   0  0  0  0  0  0  0  0  0  0  0  0
   48.2837   34.1402   39.6605 H   0  0  0  0  0  0  0  0  0  0  0  0
   48.2155   35.9352   39.6605 H   0  0  0  0  0  0  0  0  0  0  0  0
   44.9716   30.0307   50.0822 H   0  0  0  0  0  0  0  0  0  0  0  0
   44.4424   31.0709   48.6404 H   0  0  0  0  0  0  0  0  0  0  0  0
   45.2368   27.5055   49.5946 H   0  0  0  0  0  0  0  0  0  0  0  0
   44.2825   30.4186   46.6170 H   0  0  0  0  0  0  0  0  0  0  0  0
   43.4108   29.1566   44.2161 H   0  0  0  0  0  0  0  0  0  0  0  0
   43.0522   26.7616   43.3850 H   0  0  0  0  0  0  0  0  0  0  0  0
   43.7133   25.1044   45.4306 H   0  0  0  0  0  0  0  0  0  0  0  0
   44.2686   24.5767   47.5137 H   0  0  0  0  0  0  0  0  0  0  0  0
  1 16  1  0
  2  6  2  0
  3  2  1  0
  3  4  2  0
  4  5  1  0
  5  1  1  0
  6  5  1  0
  7 12  2  0
  8  7  1  0
  9  8  2  0
  9 10  1  0
 10 11  2  0
 11 12  1  0
 11  2  1  0
 13  9  1  0
 14 13  2  0
 15 14  1  0
 18 17  2  0
 18 16  1  0
 19 18  1  0
 20 24  1  0
 20 19  2  0
 21 20  1  0
 22 21  1  0
 22 23  2  0
 23 24  1  0
 24 25  2  0
 25 26  1  0
 25 17  1  0
 26 27  2  0
  1 28  1  0
  1 29  1  0
  3 30  1  0
  4 31  1  0
  7 32  1  0
  8 33  1  0
 13 34  1  0
 14 35  1  0
 15 36  1  0
 15 37  1  0
 15 38  1  0
 16 39  1  0
 16 40  1  0
 17 41  1  0
 19 42  1  0
 21 43  1  0
 22 44  1  0
 23 45  1  0
 26 46  1  0
M  ISO  8  28   8  29   8  30  14  31  14  32  14  33  14  36   8  37   8
M  ISO  8  38   8  39   8  40   8  41  14  42  14  43   9  44  14  45  14
M  ISO  1  46   6
M  END
>  <minimizedAffinity>  (1) 
-5.79522657

>  <minimizedRMSD>  (1) 
0.861041188

$$$$
