
     RDKit          3D

 33 34  0  0  1  0  0  0  0  0999 V2000
   47.2300   33.8750   42.5840 C   0  0  2  0  0  0  0  0  0  0  0  0
   48.4870   34.6390   42.5140 C   0  0  0  0  0  0  0  0  0  0  0  0
   48.6060   35.4990   41.2900 C   0  0  0  0  0  0  0  0  0  0  0  0
   48.4180   34.7100   40.0050 C   0  0  0  0  0  0  0  0  0  0  0  0
   47.3690   33.6490   40.1020 C   0  0  1  0  0  0  0  0  0  0  0  0
   46.4490   33.8950   41.2750 C   0  0  0  0  0  0  0  0  0  0  0  0
   46.3210   34.3480   43.6430 C   0  0  0  0  0  0  0  0  0  0  0  0
   45.5630   35.4930   43.3360 C   0  0  0  0  0  0  0  0  0  0  0  0
   44.6700   36.0040   44.2800 C   0  0  0  0  0  0  0  0  0  0  0  0
   44.5880   35.3350   45.4770 N   0  0  0  0  0  0  0  0  0  0  0  0
   45.3320   34.2300   45.7450 C   0  0  0  0  0  0  0  0  0  0  0  0
   46.1840   33.7520   44.8330 N   0  0  0  0  0  0  0  0  0  0  0  0
   46.6030   33.4380   38.8730 C   0  0  0  0  0  0  0  0  0  0  0  0
   47.0460   32.9710   37.7080 C   0  0  0  0  0  0  0  0  0  0  0  0
   46.4930   32.6730   36.3590 C   0  0  0  0  0  0  0  0  0  0  0  0
   47.5611   32.8505   42.8093 H   0  0  0  0  0  0  0  0  0  0  0  0
   48.5486   35.2872   43.4006 H   0  0  0  0  0  0  0  0  0  0  0  0
   49.3056   33.9055   42.4709 H   0  0  0  0  0  0  0  0  0  0  0  0
   47.8393   36.2864   41.3360 H   0  0  0  0  0  0  0  0  0  0  0  0
   49.6207   35.9234   41.2766 H   0  0  0  0  0  0  0  0  0  0  0  0
   49.3743   34.2310   39.7480 H   0  0  0  0  0  0  0  0  0  0  0  0
   48.0863   35.4220   39.2349 H   0  0  0  0  0  0  0  0  0  0  0  0
   47.9227   32.7129   40.2669 H   0  0  0  0  0  0  0  0  0  0  0  0
   45.9672   34.8768   41.1567 H   0  0  0  0  0  0  0  0  0  0  0  0
   45.6902   33.0991   41.3030 H   0  0  0  0  0  0  0  0  0  0  0  0
   45.6733   35.9830   42.3574 H   0  0  0  0  0  0  0  0  0  0  0  0
   44.0624   36.8978   44.0753 H   0  0  0  0  0  0  0  0  0  0  0  0
   45.2325   33.7262   46.7178 H   0  0  0  0  0  0  0  0  0  0  0  0
   45.5346   33.6959   38.9173 H   0  0  0  0  0  0  0  0  0  0  0  0
   48.1207   32.7412   37.7557 H   0  0  0  0  0  0  0  0  0  0  0  0
   45.5291   32.1536   36.4644 H   0  0  0  0  0  0  0  0  0  0  0  0
   46.3445   33.6132   35.8077 H   0  0  0  0  0  0  0  0  0  0  0  0
   47.1966   32.0319   35.8077 H   0  0  0  0  0  0  0  0  0  0  0  0
  1  7  1  0
  2  1  1  0
  3  2  1  0
  4  5  1  0
  4  3  1  0
  5  6  1  0
  6  1  1  0
  7 12  1  0
  8  7  2  0
  8  9  1  0
  9 10  2  0
 10 11  1  0
 12 11  2  0
 13  5  1  0
 14 13  2  0
 15 14  1  0
  1 16  1  1
  2 17  1  0
  2 18  1  0
  3 19  1  0
  3 20  1  0
  4 21  1  0
  4 22  1  0
  5 23  1  1
  6 24  1  0
  6 25  1  0
  8 26  1  0
  9 27  1  0
 11 28  1  0
 13 29  1  0
 14 30  1  0
 15 31  1  0
 15 32  1  0
 15 33  1  0
M  ISO  8  16  13  17  13  18  13  19  13  20  13  21  13  22  13  23  13
M  ISO  8  24  13  25  13  26  14  27  14  28  14  31   8  32   8  33   8
M  END
>  <minimizedAffinity>  (1) 
-4.98114491

>  <minimizedRMSD>  (1) 
5.96453667

$$$$
