
     RDKit          3D

 32 33  0  0  0  0  0  0  0  0999 V2000
   45.4530   31.3030   47.6620 C   0  0  0  0  0  0  0  0  0  0  0  0
   46.7050   30.5570   47.8410 C   0  0  0  0  0  0  0  0  0  0  0  0
   47.0920   29.3180   47.4020 C   0  0  0  0  0  0  0  0  0  0  0  0
   48.3470   28.8500   47.7280 C   0  0  0  0  0  0  0  0  0  0  0  0
   49.2030   29.5760   48.4660 N   0  0  0  0  0  0  0  0  0  0  0  0
   48.8230   30.7830   48.8930 C   0  0  0  0  0  0  0  0  0  0  0  0
   47.5920   31.2700   48.5870 N   0  0  0  0  0  0  0  0  0  0  0  0
   49.7110   31.6100   49.6940 C   0  0  0  0  0  0  0  0  0  0  0  0
   50.3740   31.1910   50.7500 C   0  0  0  0  0  0  0  0  0  0  0  0
   51.2770   32.0980   51.5350 C   0  0  0  0  0  0  0  0  0  0  0  0
   45.7710   32.6740   47.5790 O   0  0  0  0  0  0  0  0  0  0  0  0
   44.9310   35.0020   45.0340 C   0  0  0  0  0  0  0  0  0  0  0  0
   45.8040   34.7040   43.9920 C   0  0  0  0  0  0  0  0  0  0  0  0
   46.7040   33.6570   44.2000 C   0  0  0  0  0  0  0  0  0  0  0  0
   46.6930   32.9920   45.3790 N   0  0  0  0  0  0  0  0  0  0  0  0
   45.8220   33.3300   46.3480 C   0  0  0  0  0  0  0  0  0  0  0  0
   44.9340   34.3260   46.2040 N   0  0  0  0  0  0  0  0  0  0  0  0
   45.7090   35.5170   42.7510 C   0  0  0  0  0  0  0  0  0  0  0  0
   45.2770   36.7580   43.1490 F   0  0  0  0  0  0  0  0  0  0  0  0
   44.7410   34.8840   41.9510 F   0  0  0  0  0  0  0  0  0  0  0  0
   46.9410   35.5300   42.1460 F   0  0  0  0  0  0  0  0  0  0  0  0
   44.9543   30.9788   46.7367 H   0  0  0  0  0  0  0  0  0  0  0  0
   44.7740   31.1187   48.5076 H   0  0  0  0  0  0  0  0  0  0  0  0
   46.4092   28.7039   46.7965 H   0  0  0  0  0  0  0  0  0  0  0  0
   48.6558   27.8553   47.3743 H   0  0  0  0  0  0  0  0  0  0  0  0
   49.8374   32.6612   49.3956 H   0  0  0  0  0  0  0  0  0  0  0  0
   50.2634   30.1437   51.0678 H   0  0  0  0  0  0  0  0  0  0  0  0
   51.1150   31.9352   52.6108 H   0  0  0  0  0  0  0  0  0  0  0  0
   52.3253   31.8780   51.2847 H   0  0  0  0  0  0  0  0  0  0  0  0
   51.0523   33.1453   51.2847 H   0  0  0  0  0  0  0  0  0  0  0  0
   44.2092   35.8211   44.8997 H   0  0  0  0  0  0  0  0  0  0  0  0
   47.4169   33.3745   43.4114 H   0  0  0  0  0  0  0  0  0  0  0  0
  1  2  1  0
  2  7  2  0
  3  4  2  0
  3  2  1  0
  4  5  1  0
  5  6  2  0
  6  8  1  0
  7  6  1  0
  8  9  2  0
  9 10  1  0
 11  1  1  0
 12 17  2  0
 13 14  2  0
 13 12  1  0
 14 15  1  0
 15 16  2  0
 16 11  1  0
 17 16  1  0
 18 19  1  0
 18 13  1  0
 20 18  1  0
 21 18  1  0
  1 22  1  0
  1 23  1  0
  3 24  1  0
  4 25  1  0
  8 26  1  0
  9 27  1  0
 10 28  1  0
 10 29  1  0
 10 30  1  0
 12 31  1  0
 14 32  1  0
M  ISO  8  22   8  23   8  24  14  25  14  28   8  29   8  30   8  31  14
M  ISO  1  32  14
M  END
>  <minimizedAffinity>  (1) 
-5.38086939

>  <minimizedRMSD>  (1) 
0.48720637

$$$$
