
     RDKit          3D

 42 44  0  0  1  0  0  0  0  0999 V2000
   47.8670   32.9150   41.7450 C   0  0  1  0  0  0  0  0  0  0  0  0
   47.5450   32.2030   40.4920 C   0  0  0  0  0  0  0  0  0  0  0  0
   48.5800   32.6830   39.4700 C   0  0  0  0  0  0  0  0  0  0  0  0
   48.2450   34.1280   39.1660 C   0  0  0  0  0  0  0  0  0  0  0  0
   48.1760   35.0070   40.3750 C   0  0  0  0  0  0  0  0  0  0  0  0
   47.6750   34.4130   41.6220 C   0  0  1  0  0  0  0  0  0  0  0  0
   45.4360   31.0680   43.9710 C   0  0  0  0  0  0  0  0  0  0  0  0
   46.1130   31.5680   42.8590 C   0  0  0  0  0  0  0  0  0  0  0  0
   47.2010   32.4170   42.9420 C   0  0  0  0  0  0  0  0  0  0  0  0
   47.5840   32.7440   44.1870 N   0  0  0  0  0  0  0  0  0  0  0  0
   46.9410   32.2700   45.2800 C   0  0  0  0  0  0  0  0  0  0  0  0
   45.8980   31.4570   45.1930 N   0  0  0  0  0  0  0  0  0  0  0  0
   46.2840   34.8000   41.9210 C   0  0  0  0  0  0  0  0  0  0  0  0
   45.8320   35.4680   43.0710 C   0  0  0  0  0  0  0  0  0  0  0  0
   44.4540   35.7430   43.0980 C   0  0  0  0  0  0  0  0  0  0  0  0
   43.6780   35.3470   42.0240 C   0  0  0  0  0  0  0  0  0  0  0  0
   44.1500   34.7030   40.9310 C   0  0  0  0  0  0  0  0  0  0  0  0
   45.4740   34.4280   40.8830 N   0  0  0  0  0  0  0  0  0  0  0  0
   43.2440   34.3260   39.8470 C   0  0  0  0  0  0  0  0  0  0  0  0
   42.2830   35.1460   39.4680 C   0  0  0  0  0  0  0  0  0  0  0  0
   41.3180   34.8510   38.3780 C   0  0  0  0  0  0  0  0  0  0  0  0
   48.9351   32.6955   41.8895 H   0  0  0  0  0  0  0  0  0  0  0  0
   47.6237   31.1154   40.6369 H   0  0  0  0  0  0  0  0  0  0  0  0
   46.5171   32.4087   40.1587 H   0  0  0  0  0  0  0  0  0  0  0  0
   49.5933   32.6083   39.8914 H   0  0  0  0  0  0  0  0  0  0  0  0
   48.5540   32.0681   38.5583 H   0  0  0  0  0  0  0  0  0  0  0  0
   49.0175   34.5273   38.4924 H   0  0  0  0  0  0  0  0  0  0  0  0
   47.2425   34.1325   38.7132 H   0  0  0  0  0  0  0  0  0  0  0  0
   49.1935   35.3756   40.5720 H   0  0  0  0  0  0  0  0  0  0  0  0
   47.4356   35.7784   40.1167 H   0  0  0  0  0  0  0  0  0  0  0  0
   48.3246   34.8526   42.3932 H   0  0  0  0  0  0  0  0  0  0  0  0
   44.5730   30.3939   43.8672 H   0  0  0  0  0  0  0  0  0  0  0  0
   45.7617   31.2702   41.8600 H   0  0  0  0  0  0  0  0  0  0  0  0
   47.2971   32.5705   46.2764 H   0  0  0  0  0  0  0  0  0  0  0  0
   46.5072   35.7549   43.8906 H   0  0  0  0  0  0  0  0  0  0  0  0
   44.0020   36.2625   43.9558 H   0  0  0  0  0  0  0  0  0  0  0  0
   42.6017   35.5711   42.0605 H   0  0  0  0  0  0  0  0  0  0  0  0
   43.3644   33.3544   39.3455 H   0  0  0  0  0  0  0  0  0  0  0  0
   42.1903   36.1087   39.9920 H   0  0  0  0  0  0  0  0  0  0  0  0
   40.3520   34.5557   38.8135 H   0  0  0  0  0  0  0  0  0  0  0  0
   41.1811   35.7483   37.7567 H   0  0  0  0  0  0  0  0  0  0  0  0
   41.7063   34.0305   37.7567 H   0  0  0  0  0  0  0  0  0  0  0  0
  1  9  1  0
  2  1  1  0
  3  2  1  0
  4  3  1  0
  4  5  1  0
  5  6  1  0
  6  1  1  0
  6 13  1  0
  7 12  2  0
  8  9  2  0
  8  7  1  0
  9 10  1  0
 10 11  2  0
 12 11  1  0
 13 14  2  0
 14 15  1  0
 16 15  2  0
 17 16  1  0
 18 17  2  0
 18 13  1  0
 19 17  1  0
 20 19  2  0
 21 20  1  0
  1 22  1  1
  2 23  1  0
  2 24  1  0
  3 25  1  0
  3 26  1  0
  4 27  1  0
  4 28  1  0
  5 29  1  0
  5 30  1  0
  6 31  1  1
  7 32  1  0
  8 33  1  0
 11 34  1  0
 14 35  1  0
 15 36  1  0
 16 37  1  0
 19 38  1  0
 20 39  1  0
 21 40  1  0
 21 41  1  0
 21 42  1  0
M  ISO  8  22  13  23  13  24  13  25  13  26  13  27  13  28  13  29  13
M  ISO  8  30  13  31  13  32  14  33  14  34  14  35  14  36  14  37  14
M  ISO  3  40   8  41   8  42   8
M  END
>  <minimizedAffinity>  (1) 
-5.24982691

>  <minimizedRMSD>  (1) 
0.288330078

$$$$
