
     RDKit          3D

 33 34  0  0  1  0  0  0  0  0999 V2000
   46.7030   34.3940   43.6440 C   0  0  2  0  0  0  0  0  0  0  0  0
   46.4110   33.1520   44.4670 C   0  0  0  0  0  0  0  0  0  0  0  0
   45.7320   33.8190   45.6490 C   0  0  0  0  0  0  0  0  0  0  0  0
   44.9250   34.8930   45.0610 C   0  0  0  0  0  0  0  0  0  0  0  0
   45.3500   35.0160   43.5160 C   0  0  2  0  0  0  0  0  0  0  0  0
   48.2940   34.6410   40.2430 C   0  0  0  0  0  0  0  0  0  0  0  0
   47.7400   35.0710   41.4630 C   0  0  0  0  0  0  0  0  0  0  0  0
   47.3030   34.1040   42.3220 C   0  0  0  0  0  0  0  0  0  0  0  0
   47.4360   32.7790   41.9370 N   0  0  0  0  0  0  0  0  0  0  0  0
   47.9660   32.4020   40.7720 C   0  0  0  0  0  0  0  0  0  0  0  0
   48.3940   33.3250   39.9270 N   0  0  0  0  0  0  0  0  0  0  0  0
   44.4480   34.2020   42.8240 O   0  0  0  0  0  0  0  0  0  0  0  0
   43.5560   34.5890   41.8670 C   0  0  0  0  0  0  0  0  0  0  0  0
   44.2370   35.0830   40.8960 O   0  0  0  0  0  0  0  0  0  0  0  0
   42.1640   34.7160   41.4110 C   0  0  0  0  0  0  0  0  0  0  0  0
   41.4500   35.7720   41.0590 C   0  0  0  0  0  0  0  0  0  0  0  0
   40.1620   36.3140   40.5870 C   0  0  0  0  0  0  0  0  0  0  0  0
   47.4544   35.0428   44.1178 H   0  0  0  0  0  0  0  0  0  0  0  0
   45.7401   32.4557   43.9425 H   0  0  0  0  0  0  0  0  0  0  0  0
   47.2811   32.5238   44.7084 H   0  0  0  0  0  0  0  0  0  0  0  0
   45.0919   33.1017   46.1835 H   0  0  0  0  0  0  0  0  0  0  0  0
   46.4570   34.1993   46.3837 H   0  0  0  0  0  0  0  0  0  0  0  0
   43.8557   34.6469   45.1392 H   0  0  0  0  0  0  0  0  0  0  0  0
   45.0948   35.8428   45.5893 H   0  0  0  0  0  0  0  0  0  0  0  0
   45.3539   35.9945   43.0134 H   0  0  0  0  0  0  0  0  0  0  0  0
   48.6560   35.3923   39.5257 H   0  0  0  0  0  0  0  0  0  0  0  0
   47.6624   36.1393   41.7135 H   0  0  0  0  0  0  0  0  0  0  0  0
   48.0461   31.3349   40.5171 H   0  0  0  0  0  0  0  0  0  0  0  0
   41.6191   33.7622   41.3521 H   0  0  0  0  0  0  0  0  0  0  0  0
   42.1196   36.6380   41.1671 H   0  0  0  0  0  0  0  0  0  0  0  0
   39.5359   36.5775   41.4522 H   0  0  0  0  0  0  0  0  0  0  0  0
   40.3431   37.2122   39.9784 H   0  0  0  0  0  0  0  0  0  0  0  0
   39.6464   35.5565   39.9784 H   0  0  0  0  0  0  0  0  0  0  0  0
  1  2  1  0
  2  3  1  0
  4  3  1  0
  5  1  1  0
  5  4  1  0
  6  7  2  0
  7  8  1  0
  8  1  1  0
  9  8  2  0
 10  9  1  0
 11  6  1  0
 11 10  2  0
 12  5  1  0
 13 12  1  0
 14 13  2  0
 15 13  1  0
 16 15  2  0
 17 16  1  0
  1 18  1  1
  2 19  1  0
  2 20  1  0
  3 21  1  0
  3 22  1  0
  4 23  1  0
  4 24  1  0
  5 25  1  6
  6 26  1  0
  7 27  1  0
 10 28  1  0
 15 29  1  0
 16 30  1  0
 17 31  1  0
 17 32  1  0
 17 33  1  0
M  ISO  8  18  13  19  13  20  13  21  13  22  13  23  13  24  13  25  13
M  ISO  6  26  14  27  14  28  14  31   8  32   8  33   8
M  END
>  <minimizedAffinity>  (1) 
-4.63763809

>  <minimizedRMSD>  (1) 
6.56978273

$$$$
