
     RDKit          3D

 21 21  0  0  0  0  0  0  0  0999 V2000
   44.4640   35.9360   44.6980 C   0  0  0  0  0  0  0  0  0  0  0  0
   45.1950   35.9960   43.5070 C   0  0  0  0  0  0  0  0  0  0  0  0
   46.1740   35.0450   43.2660 C   0  0  0  0  0  0  0  0  0  0  0  0
   46.3690   34.0980   44.2130 N   0  0  0  0  0  0  0  0  0  0  0  0
   45.6580   34.0570   45.3480 C   0  0  0  0  0  0  0  0  0  0  0  0
   44.7100   34.9710   45.5900 N   0  0  0  0  0  0  0  0  0  0  0  0
   45.9250   32.9950   46.3340 C   0  0  0  0  0  0  0  0  0  0  0  0
   45.2880   32.9480   47.4730 C   0  0  0  0  0  0  0  0  0  0  0  0
   45.5260   31.8980   48.4930 C   0  0  0  0  0  0  0  0  0  0  0  0
   46.9740   34.9720   42.1450 O   0  0  0  0  0  0  0  0  0  0  0  0
   46.4760   34.2150   41.0410 C   0  0  0  0  0  0  0  0  0  0  0  0
   45.1930   34.6490   40.7360 F   0  0  0  0  0  0  0  0  0  0  0  0
   47.3130   34.4770   39.9480 F   0  0  0  0  0  0  0  0  0  0  0  0
   46.5110   32.8500   41.3050 F   0  0  0  0  0  0  0  0  0  0  0  0
   43.6844   36.6850   44.9013 H   0  0  0  0  0  0  0  0  0  0  0  0
   44.9953   36.7883   42.7706 H   0  0  0  0  0  0  0  0  0  0  0  0
   46.6770   32.2253   46.1057 H   0  0  0  0  0  0  0  0  0  0  0  0
   44.5388   33.7247   47.6862 H   0  0  0  0  0  0  0  0  0  0  0  0
   45.4272   32.3340   49.4980 H   0  0  0  0  0  0  0  0  0  0  0  0
   44.7878   31.0921   48.3687 H   0  0  0  0  0  0  0  0  0  0  0  0
   46.5396   31.4891   48.3687 H   0  0  0  0  0  0  0  0  0  0  0  0
  1  6  2  0
  2  1  1  0
  3  2  2  0
  3  4  1  0
  4  5  2  0
  5  6  1  0
  5  7  1  0
  7  8  2  0
  8  9  1  0
 10  3  1  0
 11 14  1  0
 11 10  1  0
 12 11  1  0
 13 11  1  0
  1 15  1  0
  2 16  1  0
  7 17  1  0
  8 18  1  0
  9 19  1  0
  9 20  1  0
  9 21  1  0
M  ISO  5  15  14  16  14  19   8  20   8  21   8
M  END
>  <minimizedAffinity>  (1) 
-4.45870113

>  <minimizedRMSD>  (1) 
0.646199703

$$$$
