
     RDKit          3D

 41 43  0  0  1  0  0  0  0  0999 V2000
   48.0050   34.1360   40.5390 C   0  0  0  0  0  0  0  0  0  0  0  0
   48.1020   34.6430   39.2680 C   0  0  0  0  0  0  0  0  0  0  0  0
   48.3500   33.8350   38.1490 C   0  0  0  0  0  0  0  0  0  0  0  0
   48.4890   32.5100   38.4120 N   0  0  0  0  0  0  0  0  0  0  0  0
   48.3920   32.0260   39.6580 C   0  0  0  0  0  0  0  0  0  0  0  0
   48.1560   32.8270   40.6910 N   0  0  0  0  0  0  0  0  0  0  0  0
   48.5250   30.5640   39.9480 C   0  0  2  0  0  0  0  0  0  0  0  0
   48.9100   30.1340   41.3310 C   0  0  0  0  0  0  0  0  0  0  0  0
   49.8900   30.0370   40.1510 C   0  0  2  0  0  0  0  0  0  0  0  0
   51.1000   30.8490   40.3210 C   0  0  0  0  0  0  0  0  0  0  0  0
   51.6290   31.8290   41.0420 C   0  0  0  0  0  0  0  0  0  0  0  0
   51.0830   32.6190   42.1640 C   0  0  0  0  0  0  0  0  0  0  0  0
   47.7440   34.9860   41.6880 C   0  0  0  0  0  0  0  0  0  0  0  0
   46.3470   34.8520   42.1410 C   0  0  0  0  0  0  0  0  0  0  0  0
   44.4310   36.2730   43.9130 Cl  0  0  0  0  0  0  0  0  0  0  0  0
   45.3570   34.9060   44.4450 C   0  0  0  0  0  0  0  0  0  0  0  0
   46.2160   34.3240   43.5380 C   0  0  0  0  0  0  0  0  0  0  0  0
   46.9560   33.2370   43.9490 C   0  0  0  0  0  0  0  0  0  0  0  0
   46.8420   32.7410   45.2360 C   0  0  0  0  0  0  0  0  0  0  0  0
   45.9640   33.3410   46.1480 C   0  0  0  0  0  0  0  0  0  0  0  0
   45.2260   34.4340   45.7220 C   0  0  0  0  0  0  0  0  0  0  0  0
   44.3250   35.0990   46.5630 O   0  0  0  0  0  0  0  0  0  0  0  0
   47.9804   35.7263   39.1208 H   0  0  0  0  0  0  0  0  0  0  0  0
   48.4265   34.2451   37.1312 H   0  0  0  0  0  0  0  0  0  0  0  0
   47.6869   30.3082   39.2830 H   0  0  0  0  0  0  0  0  0  0  0  0
   49.0659   30.8827   42.1216 H   0  0  0  0  0  0  0  0  0  0  0  0
   48.5072   29.4366   42.0803 H   0  0  0  0  0  0  0  0  0  0  0  0
   50.4565   29.2887   39.5773 H   0  0  0  0  0  0  0  0  0  0  0  0
   51.8422   30.5263   39.5760 H   0  0  0  0  0  0  0  0  0  0  0  0
   52.6550   32.1011   40.7533 H   0  0  0  0  0  0  0  0  0  0  0  0
   51.3954   32.1670   43.1169 H   0  0  0  0  0  0  0  0  0  0  0  0
   51.4623   33.6499   42.1054 H   0  0  0  0  0  0  0  0  0  0  0  0
   49.9846   32.6286   42.1054 H   0  0  0  0  0  0  0  0  0  0  0  0
   48.4171   34.6973   42.5087 H   0  0  0  0  0  0  0  0  0  0  0  0
   47.9176   36.0321   41.3954 H   0  0  0  0  0  0  0  0  0  0  0  0
   45.8711   35.8428   42.0979 H   0  0  0  0  0  0  0  0  0  0  0  0
   45.8607   34.1243   41.4747 H   0  0  0  0  0  0  0  0  0  0  0  0
   47.6486   32.7556   43.2429 H   0  0  0  0  0  0  0  0  0  0  0  0
   47.4429   31.8726   45.5439 H   0  0  0  0  0  0  0  0  0  0  0  0
   45.8632   32.9555   47.1733 H   0  0  0  0  0  0  0  0  0  0  0  0
   44.1987   34.7911   47.4954 H   0  0  0  0  0  0  0  0  0  0  0  0
  1  6  1  0
  1 13  1  0
  2  1  2  0
  3  4  2  0
  3  2  1  0
  4  5  1  0
  5  7  1  0
  5  6  2  0
  7  9  1  0
  7  8  1  0
  9 10  1  0
  9  8  1  0
 10 11  2  0
 11 12  1  0
 13 14  1  0
 14 17  1  0
 15 16  1  0
 16 21  2  0
 17 18  2  0
 17 16  1  0
 18 19  1  0
 19 20  2  0
 21 20  1  0
 21 22  1  0
  2 23  1  0
  3 24  1  0
  7 25  1  6
  8 26  1  0
  8 27  1  0
  9 28  1  6
 10 29  1  0
 11 30  1  0
 12 31  1  0
 12 32  1  0
 12 33  1  0
 13 34  1  0
 13 35  1  0
 14 36  1  0
 14 37  1  0
 18 38  1  0
 19 39  1  0
 20 40  1  0
 22 41  1  0
M  ISO  8  23  14  24  14  25  13  26  13  27  13  28  13  31   8  32   8
M  ISO  8  33   8  34   8  35   8  36   8  37   8  38  14  39  14  40  14
M  ISO  1  41   3
M  END
>  <minimizedAffinity>  (1) 
-5.354702

>  <minimizedRMSD>  (1) 
1.40356135

$$$$
