
     RDKit          3D

 34 35  0  0  1  0  0  0  0  0999 V2000
   45.4310   34.4560   41.9800 N   0  0  0  0  0  0  0  0  0  0  0  0
   46.7400   34.1660   41.4600 C   0  0  1  0  0  0  0  0  0  0  0  0
   46.8200   34.0640   39.9880 C   0  0  0  0  0  0  0  0  0  0  0  0
   45.7130   33.5040   39.3430 N   0  0  0  0  0  0  0  0  0  0  0  0
   44.4510   33.6290   39.9050 C   0  0  0  0  0  0  0  0  0  0  0  0
   44.4320   34.6900   40.9910 C   0  0  0  0  0  0  0  0  0  0  0  0
   44.6340   35.5980   43.9140 C   0  0  0  0  0  0  0  0  0  0  0  0
   45.2670   34.4820   43.3770 C   0  0  0  0  0  0  0  0  0  0  0  0
   45.6960   33.4650   44.2560 C   0  0  0  0  0  0  0  0  0  0  0  0
   45.4790   33.6030   45.5930 N   0  0  0  0  0  0  0  0  0  0  0  0
   44.8630   34.6970   46.0750 C   0  0  0  0  0  0  0  0  0  0  0  0
   44.4440   35.6830   45.2650 N   0  0  0  0  0  0  0  0  0  0  0  0
   47.6790   35.2620   41.9200 C   0  0  0  0  0  0  0  0  0  0  0  0
   49.1020   34.8360   41.8330 C   0  0  0  0  0  0  0  0  0  0  0  0
   49.5870   33.7580   42.4300 C   0  0  0  0  0  0  0  0  0  0  0  0
   50.9910   33.3090   42.3630 C   0  0  0  0  0  0  0  0  0  0  0  0
   47.0142   33.1723   41.8440 H   0  0  0  0  0  0  0  0  0  0  0  0
   46.9615   35.0794   39.5893 H   0  0  0  0  0  0  0  0  0  0  0  0
   47.6544   33.3758   39.7875 H   0  0  0  0  0  0  0  0  0  0  0  0
   45.9000   32.4953   39.2515 H   0  0  0  0  0  0  0  0  0  0  0  0
   43.7348   33.9089   39.1184 H   0  0  0  0  0  0  0  0  0  0  0  0
   44.1760   32.6648   40.3575 H   0  0  0  0  0  0  0  0  0  0  0  0
   44.6105   35.6731   40.5309 H   0  0  0  0  0  0  0  0  0  0  0  0
   43.4494   34.6555   41.4842 H   0  0  0  0  0  0  0  0  0  0  0  0
   44.2881   36.4080   43.2550 H   0  0  0  0  0  0  0  0  0  0  0  0
   46.2009   32.5694   43.8649 H   0  0  0  0  0  0  0  0  0  0  0  0
   44.6983   34.7864   47.1589 H   0  0  0  0  0  0  0  0  0  0  0  0
   47.5321   36.1479   41.2848 H   0  0  0  0  0  0  0  0  0  0  0  0
   47.4519   35.4908   42.9717 H   0  0  0  0  0  0  0  0  0  0  0  0
   49.7916   35.4527   41.2379 H   0  0  0  0  0  0  0  0  0  0  0  0
   48.8881   33.1493   43.0225 H   0  0  0  0  0  0  0  0  0  0  0  0
   51.3847   33.1831   43.3824 H   0  0  0  0  0  0  0  0  0  0  0  0
   51.0439   32.3491   41.8283 H   0  0  0  0  0  0  0  0  0  0  0  0
   51.5910   34.0601   41.8283 H   0  0  0  0  0  0  0  0  0  0  0  0
  1  8  1  0
  2 13  1  0
  2  1  1  0
  3  2  1  0
  4  5  1  0
  4  3  1  0
  5  6  1  0
  6  1  1  0
  7 12  2  0
  8  7  1  0
  8  9  2  0
  9 10  1  0
 10 11  2  0
 12 11  1  0
 14 13  1  0
 14 15  2  0
 16 15  1  0
  2 17  1  1
  3 18  1  0
  3 19  1  0
  4 20  1  0
  5 21  1  0
  5 22  1  0
  6 23  1  0
  6 24  1  0
  7 25  1  0
  9 26  1  0
 11 27  1  0
 13 28  1  0
 13 29  1  0
 14 30  1  0
 15 31  1  0
 16 32  1  0
 16 33  1  0
 16 34  1  0
M  ISO  8  17  13  18  13  19  13  20   5  21  13  22  13  23  13  24  13
M  ISO  8  25  14  26  14  27  14  28   8  29   8  32   8  33   8  34   8
M  END
>  <minimizedAffinity>  (1) 
-4.70881605

>  <minimizedRMSD>  (1) 
0.600600898

$$$$
