
     RDKit          3D

 37 38  0  0  1  0  0  0  0  0999 V2000
   46.6290   32.9340   46.7430 C   0  0  2  0  0  0  0  0  0  0  0  0
   47.0840   32.8140   45.3440 C   0  0  1  0  0  0  0  0  0  0  0  0
   46.6480   31.4670   44.9510 O   0  0  0  0  0  0  0  0  0  0  0  0
   47.2850   30.7730   45.9980 C   0  0  0  0  0  0  0  0  0  0  0  0
   46.6130   31.4910   47.2220 C   0  0  2  0  0  0  0  0  0  0  0  0
   44.7090   35.2460   43.9910 C   0  0  0  0  0  0  0  0  0  0  0  0
   45.3190   35.6850   42.8140 C   0  0  0  0  0  0  0  0  0  0  0  0
   46.5800   35.1330   42.4660 C   0  0  0  0  0  0  0  0  0  0  0  0
   47.1490   34.1990   43.2870 N   0  0  0  0  0  0  0  0  0  0  0  0
   46.5210   33.8010   44.4200 C   0  0  0  0  0  0  0  0  0  0  0  0
   45.3130   34.3110   44.7800 N   0  0  0  0  0  0  0  0  0  0  0  0
   43.4690   35.7460   44.3940 O   0  0  0  0  0  0  0  0  0  0  0  0
   45.2740   33.4200   46.7650 O   0  0  0  0  0  0  0  0  0  0  0  0
   45.3590   31.0050   47.2970 O   0  0  0  0  0  0  0  0  0  0  0  0
   45.0720   29.9900   48.1640 C   0  0  0  0  0  0  0  0  0  0  0  0
   44.9680   28.6440   47.5800 C   0  0  0  0  0  0  0  0  0  0  0  0
   44.1800   28.8010   46.2990 C   0  0  0  0  0  0  0  0  0  0  0  0
   43.2100   28.1280   45.7400 C   0  0  0  0  0  0  0  0  0  0  0  0
   42.5600   28.4790   44.4250 C   0  0  0  0  0  0  0  0  0  0  0  0
   47.2558   33.6088   47.3445 H   0  0  0  0  0  0  0  0  0  0  0  0
   48.1683   32.9910   45.2898 H   0  0  0  0  0  0  0  0  0  0  0  0
   47.0576   29.6970   45.9766 H   0  0  0  0  0  0  0  0  0  0  0  0
   48.3845   30.8015   45.9811 H   0  0  0  0  0  0  0  0  0  0  0  0
   47.0811   31.3665   48.2096 H   0  0  0  0  0  0  0  0  0  0  0  0
   44.8358   36.4379   42.1740 H   0  0  0  0  0  0  0  0  0  0  0  0
   47.0931   35.4528   41.5470 H   0  0  0  0  0  0  0  0  0  0  0  0
   43.0062   36.4253   43.8423 H   0  0  0  0  0  0  0  0  0  0  0  0
   44.9768   33.5266   47.7033 H   0  0  0  0  0  0  0  0  0  0  0  0
   45.8659   29.9647   48.9250 H   0  0  0  0  0  0  0  0  0  0  0  0
   44.0708   30.2163   48.5595 H   0  0  0  0  0  0  0  0  0  0  0  0
   45.9695   28.2429   47.3652 H   0  0  0  0  0  0  0  0  0  0  0  0
   44.4756   27.9437   48.2708 H   0  0  0  0  0  0  0  0  0  0  0  0
   44.4924   29.6743   45.7076 H   0  0  0  0  0  0  0  0  0  0  0  0
   42.8390   27.2375   46.2685 H   0  0  0  0  0  0  0  0  0  0  0  0
   41.6064   28.9940   44.6133 H   0  0  0  0  0  0  0  0  0  0  0  0
   43.2265   29.1398   43.8514 H   0  0  0  0  0  0  0  0  0  0  0  0
   42.3730   27.5592   43.8514 H   0  0  0  0  0  0  0  0  0  0  0  0
  1 13  1  0
  1  5  1  0
  2  1  1  0
  3  2  1  0
  3  4  1  0
  4  5  1  0
  5 14  1  0
  6 12  1  0
  6 11  2  0
  7  6  1  0
  8  7  2  0
  8  9  1  0
  9 10  2  0
 10 11  1  0
 10  2  1  0
 14 15  1  0
 16 15  1  0
 17 16  1  0
 18 17  2  0
 19 18  1  0
  1 20  1  1
  2 21  1  1
  4 22  1  0
  4 23  1  0
  5 24  1  1
  7 25  1  0
  8 26  1  0
 12 27  1  0
 13 28  1  0
 15 29  1  0
 15 30  1  0
 16 31  1  0
 16 32  1  0
 17 33  1  0
 18 34  1  0
 19 35  1  0
 19 36  1  0
 19 37  1  0
M  ISO  8  20  13  21  13  22  13  23  13  24  13  25  14  26  14  27   3
M  ISO  8  28   3  29   8  30   8  31   8  32   8  35   8  36   8  37   8
M  END
>  <minimizedAffinity>  (1) 
-5.10025597

>  <minimizedRMSD>  (1) 
0.381311268

$$$$
