
     RDKit          3D

 20 20  0  0  0  0  0  0  0  0999 V2000
   44.5600   35.9730   44.4700 C   0  0  0  0  0  0  0  0  0  0  0  0
   45.3530   35.9370   43.2900 C   0  0  0  0  0  0  0  0  0  0  0  0
   46.2790   34.9110   43.1730 C   0  0  0  0  0  0  0  0  0  0  0  0
   46.3850   33.9960   44.1760 N   0  0  0  0  0  0  0  0  0  0  0  0
   45.6020   34.0660   45.2940 C   0  0  0  0  0  0  0  0  0  0  0  0
   44.7010   35.0560   45.4210 N   0  0  0  0  0  0  0  0  0  0  0  0
   47.0880   34.8850   41.9590 C   0  0  0  0  0  0  0  0  0  0  0  0
   46.4150   34.1870   40.8200 C   0  0  0  0  0  0  0  0  0  0  0  0
   46.9490   33.6980   39.7050 C   0  0  0  0  0  0  0  0  0  0  0  0
   46.2030   33.0130   38.6130 C   0  0  0  0  0  0  0  0  0  0  0  0
   43.8170   36.7740   44.5975 H   0  0  0  0  0  0  0  0  0  0  0  0
   45.2364   36.6939   42.5003 H   0  0  0  0  0  0  0  0  0  0  0  0
   45.7088   33.3133   46.0890 H   0  0  0  0  0  0  0  0  0  0  0  0
   47.3008   35.9214   41.6579 H   0  0  0  0  0  0  0  0  0  0  0  0
   48.0069   34.3260   42.1892 H   0  0  0  0  0  0  0  0  0  0  0  0
   45.3267   34.0607   40.9187 H   0  0  0  0  0  0  0  0  0  0  0  0
   48.0360   33.8089   39.5780 H   0  0  0  0  0  0  0  0  0  0  0  0
   45.4593   32.3301   39.0494 H   0  0  0  0  0  0  0  0  0  0  0  0
   45.6919   33.7631   37.9915 H   0  0  0  0  0  0  0  0  0  0  0  0
   46.9068   32.4399   37.9915 H   0  0  0  0  0  0  0  0  0  0  0  0
  1  6  2  0
  2  1  1  0
  3  2  2  0
  3  4  1  0
  4  5  2  0
  5  6  1  0
  7  3  1  0
  8  7  1  0
  9  8  2  0
 10  9  1  0
  1 11  1  0
  2 12  1  0
  5 13  1  0
  7 14  1  0
  7 15  1  0
  8 16  1  0
  9 17  1  0
 10 18  1  0
 10 19  1  0
 10 20  1  0
M  ISO  8  11  14  12  14  13  14  14   8  15   8  18   8  19   8  20   8
M  END
>  <minimizedAffinity>  (1) 
-3.50894666

>  <minimizedRMSD>  (1) 
0.273204595

$$$$
