
     RDKit          3D

 26 26  0  0  0  0  0  0  0  0999 V2000
   47.0440   32.1170   48.3190 O   0  0  0  0  0  0  0  0  0  0  0  0
   45.9890   32.3730   47.2430 P   0  0  1  0  0  0  0  0  0  0  0  0
   44.6810   33.2570   47.8480 O   0  0  0  0  0  0  0  0  0  0  0  0
   46.7600   33.2010   45.9810 O   0  0  0  0  0  0  0  0  0  0  0  0
   44.4710   35.6230   44.7290 C   0  0  0  0  0  0  0  0  0  0  0  0
   44.8390   35.7970   43.3710 C   0  0  0  0  0  0  0  0  0  0  0  0
   45.9300   35.0190   42.9250 C   0  0  0  0  0  0  0  0  0  0  0  0
   46.5320   34.1810   43.8120 N   0  0  0  0  0  0  0  0  0  0  0  0
   46.1340   34.0640   45.0840 C   0  0  0  0  0  0  0  0  0  0  0  0
   45.1080   34.7820   45.5410 N   0  0  0  0  0  0  0  0  0  0  0  0
   45.4210   30.8800   46.7460 O   0  0  0  0  0  0  0  0  0  0  0  0
   44.9750   30.2000   47.8680 C   0  0  0  0  0  0  0  0  0  0  0  0
   45.2040   28.7540   47.8280 C   0  0  0  0  0  0  0  0  0  0  0  0
   44.6130   27.9120   46.9910 C   0  0  0  0  0  0  0  0  0  0  0  0
   43.6220   28.1000   45.9160 C   0  0  0  0  0  0  0  0  0  0  0  0
   44.7024   33.2425   48.8377 H   0  0  0  0  0  0  0  0  0  0  0  0
   43.6268   36.2052   45.1270 H   0  0  0  0  0  0  0  0  0  0  0  0
   44.3080   36.4943   42.7063 H   0  0  0  0  0  0  0  0  0  0  0  0
   46.2844   35.0888   41.8860 H   0  0  0  0  0  0  0  0  0  0  0  0
   45.4961   30.6070   48.7471 H   0  0  0  0  0  0  0  0  0  0  0  0
   43.8854   30.3449   47.9113 H   0  0  0  0  0  0  0  0  0  0  0  0
   45.9217   28.3338   48.5479 H   0  0  0  0  0  0  0  0  0  0  0  0
   44.9241   26.8655   47.1257 H   0  0  0  0  0  0  0  0  0  0  0  0
   42.6325   28.2877   46.3582 H   0  0  0  0  0  0  0  0  0  0  0  0
   43.9144   28.9587   45.2938 H   0  0  0  0  0  0  0  0  0  0  0  0
   43.5796   27.1939   45.2938 H   0  0  0  0  0  0  0  0  0  0  0  0
  2  3  1  0
  2  1  2  0
  4  2  1  0
  5 10  2  0
  6  5  1  0
  7  6  2  0
  7  8  1  0
  8  9  2  0
  9 10  1  0
  9  4  1  0
 11  2  1  0
 11 12  1  0
 13 12  1  0
 14 13  2  0
 15 14  1  0
  3 16  1  0
  5 17  1  0
  6 18  1  0
  7 19  1  0
 12 20  1  0
 12 21  1  0
 13 22  1  0
 14 23  1  0
 15 24  1  0
 15 25  1  0
 15 26  1  0
M  ISO  8  16   3  17  14  18  14  19  14  20   8  21   8  24   8  25   8
M  ISO  1  26   8
M  END
>  <minimizedAffinity>  (1) 
-4.36227322

>  <minimizedRMSD>  (1) 
0.680461228

$$$$
