
     RDKit          3D

 33 34  0  0  1  0  0  0  0  0999 V2000
   44.6280   35.3410   45.2840 C   0  0  0  0  0  0  0  0  0  0  0  0
   45.3310   35.1830   44.0770 C   0  0  0  0  0  0  0  0  0  0  0  0
   46.1670   34.0590   43.9840 C   0  0  0  0  0  0  0  0  0  0  0  0
   46.2460   33.2190   45.0200 N   0  0  0  0  0  0  0  0  0  0  0  0
   45.5580   33.4040   46.1560 C   0  0  0  0  0  0  0  0  0  0  0  0
   44.7440   34.4670   46.2980 N   0  0  0  0  0  0  0  0  0  0  0  0
   47.2050   32.1220   47.5390 C   0  0  2  0  0  0  0  0  0  0  0  0
   45.7200   32.3990   47.2040 C   0  0  1  0  0  0  0  0  0  0  0  0
   45.2450   32.7580   48.4350 O   0  0  0  0  0  0  0  0  0  0  0  0
   45.7560   31.8600   49.3350 C   0  0  0  0  0  0  0  0  0  0  0  0
   46.9540   31.1760   48.7270 C   0  0  2  0  0  0  0  0  0  0  0  0
   47.7430   33.2550   48.0510 O   0  0  0  0  0  0  0  0  0  0  0  0
   48.0430   31.0850   49.5600 O   0  0  0  0  0  0  0  0  0  0  0  0
   45.1000   36.2020   43.0330 C   0  0  0  0  0  0  0  0  0  0  0  0
   44.5720   35.5990   41.7880 C   0  0  0  0  0  0  0  0  0  0  0  0
   43.4180   35.2660   41.2490 C   0  0  0  0  0  0  0  0  0  0  0  0
   41.9950   35.3380   41.6470 C   0  0  0  0  0  0  0  0  0  0  0  0
   43.9615   36.2080   45.4022 H   0  0  0  0  0  0  0  0  0  0  0  0
   46.7496   33.8723   43.0698 H   0  0  0  0  0  0  0  0  0  0  0  0
   47.8445   31.7688   46.7166 H   0  0  0  0  0  0  0  0  0  0  0  0
   45.1700   31.5530   46.7660 H   0  0  0  0  0  0  0  0  0  0  0  0
   46.0596   32.3889   50.2505 H   0  0  0  0  0  0  0  0  0  0  0  0
   44.9902   31.1110   49.5851 H   0  0  0  0  0  0  0  0  0  0  0  0
   46.7842   30.1185   48.4761 H   0  0  0  0  0  0  0  0  0  0  0  0
   47.7227   33.2123   49.0399 H   0  0  0  0  0  0  0  0  0  0  0  0
   47.7407   31.1103   50.5024 H   0  0  0  0  0  0  0  0  0  0  0  0
   44.3744   36.9388   43.4081 H   0  0  0  0  0  0  0  0  0  0  0  0
   46.0629   36.6806   42.8012 H   0  0  0  0  0  0  0  0  0  0  0  0
   45.3973   35.3541   41.1033 H   0  0  0  0  0  0  0  0  0  0  0  0
   43.5436   34.8221   40.2504 H   0  0  0  0  0  0  0  0  0  0  0  0
   41.9210   35.3417   42.7445 H   0  0  0  0  0  0  0  0  0  0  0  0
   41.5484   36.2599   41.2462 H   0  0  0  0  0  0  0  0  0  0  0  0
   41.4576   34.4659   41.2462 H   0  0  0  0  0  0  0  0  0  0  0  0
  1  6  2  0
  2  1  1  0
  3  2  2  0
  3  4  1  0
  4  5  2  0
  5  6  1  0
  5  8  1  0
  7 12  1  0
  7 11  1  0
  8  7  1  0
  8  9  1  0
  9 10  1  0
 11 10  1  0
 11 13  1  0
 14  2  1  0
 15 14  1  0
 16 17  1  0
 16 15  2  0
  1 18  1  0
  3 19  1  0
  7 20  1  6
  8 21  1  6
 10 22  1  0
 10 23  1  0
 11 24  1  6
 12 25  1  0
 13 26  1  0
 14 27  1  0
 14 28  1  0
 15 29  1  0
 16 30  1  0
 17 31  1  0
 17 32  1  0
 17 33  1  0
M  ISO  8  18  14  19  14  20  13  21  13  22  13  23  13  24  13  25   3
M  ISO  6  26   3  27   8  28   8  31   8  32   8  33   8
M  END
>  <minimizedAffinity>  (1) 
-5.76815367

>  <minimizedRMSD>  (1) 
0.474012166

$$$$
