
     RDKit          3D

 20 20  0  0  0  0  0  0  0  0999 V2000
   46.0620   34.0870   44.6390 C   0  0  0  0  0  0  0  0  0  0  0  0
   46.5070   34.4130   43.3670 C   0  0  0  0  0  0  0  0  0  0  0  0
   45.9030   35.4750   42.6890 C   0  0  0  0  0  0  0  0  0  0  0  0
   44.8940   36.1430   43.3220 N   0  0  0  0  0  0  0  0  0  0  0  0
   44.4880   35.7970   44.5590 C   0  0  0  0  0  0  0  0  0  0  0  0
   45.0690   34.7700   45.2190 N   0  0  0  0  0  0  0  0  0  0  0  0
   46.7390   32.9940   45.2420 C   0  0  0  0  0  0  0  0  0  0  0  0
   47.3160   32.0430   44.6520 O   0  0  0  0  0  0  0  0  0  0  0  0
   46.7480   33.0010   46.6250 O   0  0  0  0  0  0  0  0  0  0  0  0
   46.1200   31.9940   47.3850 C   0  0  0  0  0  0  0  0  0  0  0  0
   45.8340   32.2850   48.6460 C   0  0  0  0  0  0  0  0  0  0  0  0
   45.1670   31.2900   49.5420 C   0  0  0  0  0  0  0  0  0  0  0  0
   47.3235   33.8440   42.8985 H   0  0  0  0  0  0  0  0  0  0  0  0
   46.2294   35.7634   41.6789 H   0  0  0  0  0  0  0  0  0  0  0  0
   43.6724   36.3579   45.0388 H   0  0  0  0  0  0  0  0  0  0  0  0
   45.8784   31.0122   46.9518 H   0  0  0  0  0  0  0  0  0  0  0  0
   46.0923   33.2783   49.0417 H   0  0  0  0  0  0  0  0  0  0  0  0
   45.3494   31.5621   50.5921 H   0  0  0  0  0  0  0  0  0  0  0  0
   44.0845   31.2882   49.3464 H   0  0  0  0  0  0  0  0  0  0  0  0
   45.5766   30.2880   49.3464 H   0  0  0  0  0  0  0  0  0  0  0  0
  1  6  2  0
  1  7  1  0
  2  1  1  0
  3  4  1  0
  3  2  2  0
  4  5  2  0
  5  6  1  0
  7  9  1  0
  8  7  2  0
  9 10  1  0
 10 11  2  0
 11 12  1  0
  2 13  1  0
  3 14  1  0
  5 15  1  0
 10 16  1  0
 11 17  1  0
 12 18  1  0
 12 19  1  0
 12 20  1  0
M  ISO  6  13  14  14  14  15  14  18   8  19   8  20   8
M  END
>  <minimizedAffinity>  (1) 
-4.02424717

>  <minimizedRMSD>  (1) 
5.98633528

$$$$
