
     RDKit          3D

 43 45  0  0  1  0  0  0  0  0999 V2000
   48.0360   34.6860   41.9790 C   0  0  2  0  0  0  0  0  0  0  0  0
   46.7240   33.8990   42.2510 C   0  0  1  0  0  0  0  0  0  0  0  0
   47.2610   32.6840   42.5580 O   0  0  0  0  0  0  0  0  0  0  0  0
   48.1420   32.4240   41.4890 C   0  0  0  0  0  0  0  0  0  0  0  0
   48.5250   33.7860   40.8670 C   0  0  1  0  0  0  0  0  0  0  0  0
   44.5200   36.0560   44.4710 C   0  0  0  0  0  0  0  0  0  0  0  0
   45.1830   35.6870   43.3010 C   0  0  0  0  0  0  0  0  0  0  0  0
   45.9490   34.5370   43.3230 C   0  0  0  0  0  0  0  0  0  0  0  0
   46.0070   33.8270   44.5070 N   0  0  0  0  0  0  0  0  0  0  0  0
   45.3510   34.2170   45.6150 C   0  0  0  0  0  0  0  0  0  0  0  0
   44.6030   35.3410   45.5910 N   0  0  0  0  0  0  0  0  0  0  0  0
   48.9090   34.5470   43.0150 O   0  0  0  0  0  0  0  0  0  0  0  0
   47.7680   33.9450   39.7430 O   0  0  0  0  0  0  0  0  0  0  0  0
   49.1610   32.9310   38.1320 C   0  0  1  0  0  0  0  0  0  0  0  0
   48.4660   34.3110   38.5940 C   0  0  1  0  0  0  0  0  0  0  0  0
   47.6060   34.4460   37.5700 O   0  0  0  0  0  0  0  0  0  0  0  0
   46.8790   33.2290   37.7040 C   0  0  0  0  0  0  0  0  0  0  0  0
   47.9810   32.2040   37.5620 C   0  0  1  0  0  0  0  0  0  0  0  0
   49.9690   33.2940   37.0490 O   0  0  0  0  0  0  0  0  0  0  0  0
   48.1540   31.9080   36.2240 O   0  0  0  0  0  0  0  0  0  0  0  0
   47.2850   31.0830   35.5590 C   0  0  0  0  0  0  0  0  0  0  0  0
   46.2020   31.0200   34.8400 C   0  0  0  0  0  0  0  0  0  0  0  0
   45.3060   32.0960   34.3740 C   0  0  0  0  0  0  0  0  0  0  0  0
   47.9282   35.7659   41.7994 H   0  0  0  0  0  0  0  0  0  0  0  0
   45.9841   33.8472   41.4387 H   0  0  0  0  0  0  0  0  0  0  0  0
   49.0428   31.9128   41.8595 H   0  0  0  0  0  0  0  0  0  0  0  0
   47.6648   31.7746   40.7404 H   0  0  0  0  0  0  0  0  0  0  0  0
   49.5736   33.9438   40.5744 H   0  0  0  0  0  0  0  0  0  0  0  0
   43.9072   36.9695   44.4685 H   0  0  0  0  0  0  0  0  0  0  0  0
   45.0987   36.2936   42.3873 H   0  0  0  0  0  0  0  0  0  0  0  0
   45.4237   33.6222   46.5374 H   0  0  0  0  0  0  0  0  0  0  0  0
   48.4193   34.6250   43.8719 H   0  0  0  0  0  0  0  0  0  0  0  0
   49.7252   32.3763   38.8962 H   0  0  0  0  0  0  0  0  0  0  0  0
   49.0852   35.1990   38.7892 H   0  0  0  0  0  0  0  0  0  0  0  0
   46.3893   33.1593   38.6865 H   0  0  0  0  0  0  0  0  0  0  0  0
   46.0610   33.1123   36.9779 H   0  0  0  0  0  0  0  0  0  0  0  0
   47.7949   31.2425   38.0630 H   0  0  0  0  0  0  0  0  0  0  0  0
   50.8186   33.6757   37.3845 H   0  0  0  0  0  0  0  0  0  0  0  0
   47.6531   30.0540   35.6839 H   0  0  0  0  0  0  0  0  0  0  0  0
   45.9086   30.0058   34.5313 H   0  0  0  0  0  0  0  0  0  0  0  0
   44.8738   32.6150   35.2422 H   0  0  0  0  0  0  0  0  0  0  0  0
   45.8783   32.8122   33.7662 H   0  0  0  0  0  0  0  0  0  0  0  0
   44.4980   31.6628   33.7662 H   0  0  0  0  0  0  0  0  0  0  0  0
  1  2  1  0
  1 12  1  0
  2  3  1  0
  2  8  1  0
  4  3  1  0
  5  4  1  0
  5  1  1  0
  6 11  2  0
  7  8  2  0
  7  6  1  0
  8  9  1  0
  9 10  2  0
 11 10  1  0
 13  5  1  0
 14 15  1  0
 15 13  1  0
 16 17  1  0
 16 15  1  0
 18 17  1  0
 18 14  1  0
 19 14  1  0
 20 18  1  0
 21 20  1  0
 22 21  2  0
 23 22  1  0
  1 24  1  6
  2 25  1  6
  4 26  1  0
  4 27  1  0
  5 28  1  6
  6 29  1  0
  7 30  1  0
 10 31  1  0
 12 32  1  0
 14 33  1  1
 15 34  1  1
 17 35  1  0
 17 36  1  0
 18 37  1  1
 19 38  1  0
 21 39  1  0
 22 40  1  0
 23 41  1  0
 23 42  1  0
 23 43  1  0
M  ISO  8  24  13  25  13  26  13  27  13  28  13  29  14  30  14  31  14
M  ISO  8  32   3  33  13  34  13  35  13  36  13  37  13  38   3  41   8
M  ISO  2  42   8  43   8
M  END
>  <minimizedAffinity>  (1) 
-5.19707108

>  <minimizedRMSD>  (1) 
0.201062277

$$$$
