
     RDKit          3D

 46 48  0  0  1  0  0  0  0  0999 V2000
   47.5080   32.7770   43.7880 C   0  0  0  0  0  0  0  0  0  0  0  0
   48.4400   33.3410   43.0100 C   0  0  0  0  0  0  0  0  0  0  0  0
   49.2880   32.4480   42.4010 C   0  0  0  0  0  0  0  0  0  0  0  0
   49.1020   31.0770   42.6500 N   0  0  0  0  0  0  0  0  0  0  0  0
   48.1630   30.5920   43.4310 C   0  0  0  0  0  0  0  0  0  0  0  0
   47.2920   31.4600   44.0570 N   0  0  0  0  0  0  0  0  0  0  0  0
   48.7060   34.7460   42.8570 C   0  0  1  0  0  0  0  0  0  0  0  0
   49.7660   35.3110   42.2430 C   0  0  0  0  0  0  0  0  0  0  0  0
   48.5380   35.3060   41.3680 C   0  0  1  0  0  0  0  0  0  0  0  0
   48.4600   34.2900   40.3890 N   0  0  0  0  0  0  0  0  0  0  0  0
   47.2990   33.8260   39.7900 C   0  0  0  0  0  0  0  0  0  0  0  0
   46.2090   33.5200   39.2230 C   0  0  0  0  0  0  0  0  0  0  0  0
   45.3700   32.3720   38.8200 C   0  0  0  0  0  0  0  0  0  0  0  0
   46.4240   33.5010   44.5120 C   0  0  0  0  0  0  0  0  0  0  0  0
   45.8460   33.8890   45.4810 O   0  0  0  0  0  0  0  0  0  0  0  0
   44.3940   31.6720   43.0540 Cl  0  0  0  0  0  0  0  0  0  0  0  0
   44.5390   33.3880   42.7270 C   0  0  0  0  0  0  0  0  0  0  0  0
   45.5010   34.1060   43.4770 C   0  0  0  0  0  0  0  0  0  0  0  0
   45.5020   35.4310   43.1300 C   0  0  0  0  0  0  0  0  0  0  0  0
   44.7780   36.0920   42.2480 C   0  0  0  0  0  0  0  0  0  0  0  0
   43.8570   35.3410   41.5450 C   0  0  0  0  0  0  0  0  0  0  0  0
   43.7250   34.0200   41.7630 C   0  0  0  0  0  0  0  0  0  0  0  0
   42.7810   33.3700   41.0120 O   0  0  0  0  0  0  0  0  0  0  0  0
   40.3980   32.9560   39.9910 O   0  0  0  0  0  0  0  0  0  0  0  0
   41.1170   33.1840   41.2960 P   0  0  0  0  0  0  0  0  0  0  0  0
   40.8840   31.8850   42.3610 O   0  0  0  0  0  0  0  0  0  0  0  0
   40.4610   34.5510   42.0710 O   0  0  0  0  0  0  0  0  0  0  0  0
   50.0917   32.7967   41.7358 H   0  0  0  0  0  0  0  0  0  0  0  0
   48.0724   29.5065   43.5840 H   0  0  0  0  0  0  0  0  0  0  0  0
   48.3131   34.9109   43.8711 H   0  0  0  0  0  0  0  0  0  0  0  0
   50.1412   36.2742   42.6191 H   0  0  0  0  0  0  0  0  0  0  0  0
   50.7876   34.9430   42.0671 H   0  0  0  0  0  0  0  0  0  0  0  0
   47.9430   36.0398   40.8046 H   0  0  0  0  0  0  0  0  0  0  0  0
   49.0531   34.6163   39.6127 H   0  0  0  0  0  0  0  0  0  0  0  0
   47.8725   33.1899   39.0997 H   0  0  0  0  0  0  0  0  0  0  0  0
   46.7840   33.8607   40.7614 H   0  0  0  0  0  0  0  0  0  0  0  0
   45.4950   34.0844   39.8408 H   0  0  0  0  0  0  0  0  0  0  0  0
   46.6873   33.5496   38.2329 H   0  0  0  0  0  0  0  0  0  0  0  0
   44.9950   31.8589   39.7178 H   0  0  0  0  0  0  0  0  0  0  0  0
   44.5201   32.7313   38.2211 H   0  0  0  0  0  0  0  0  0  0  0  0
   45.9704   31.6714   38.2211 H   0  0  0  0  0  0  0  0  0  0  0  0
   46.2289   36.0473   43.6794 H   0  0  0  0  0  0  0  0  0  0  0  0
   44.9000   37.1727   42.0829 H   0  0  0  0  0  0  0  0  0  0  0  0
   43.2203   35.8312   40.7938 H   0  0  0  0  0  0  0  0  0  0  0  0
   40.9421   32.2092   43.2946 H   0  0  0  0  0  0  0  0  0  0  0  0
   40.5177   34.4329   43.0523 H   0  0  0  0  0  0  0  0  0  0  0  0
  1  6  1  0
  1 14  1  0
  2  1  2  0
  3  4  2  0
  3  2  1  0
  4  5  1  0
  5  6  2  0
  7  2  1  0
  8  7  1  0
  9  8  1  0
  9  7  1  0
 10  9  1  0
 11 10  1  0
 12 11  1  0
 13 12  1  0
 14 15  2  0
 17 16  1  0
 17 18  2  0
 18 14  1  0
 19 18  1  0
 20 19  2  0
 21 22  2  0
 21 20  1  0
 22 17  1  0
 23 25  1  0
 23 22  1  0
 24 25  2  0
 25 27  1  0
 25 26  1  0
  3 28  1  0
  5 29  1  0
  7 30  1  1
  8 31  1  0
  8 32  1  0
  9 33  1  1
 10 34  1  0
 11 35  1  0
 11 36  1  0
 12 37  1  0
 12 38  1  0
 13 39  1  0
 13 40  1  0
 13 41  1  0
 19 42  1  0
 20 43  1  0
 21 44  1  0
 26 45  1  0
 27 46  1  0
M  ISO  8  28  14  29  14  30  13  31  13  32  13  33  13  34   5  35   8
M  ISO  8  36   8  37   8  38   8  39   8  40   8  41   8  42  14  43  14
M  ISO  3  44  14  45   3  46   3
M  END
>  <minimizedAffinity>  (1) 
-5.54924631

>  <minimizedRMSD>  (1) 
0.763449192

$$$$
