
     RDKit          3D

 43 45  0  0  1  0  0  0  0  0999 V2000
   44.5610   35.5740   44.5960 C   0  0  0  0  0  0  0  0  0  0  0  0
   45.2370   35.6040   43.3590 C   0  0  0  0  0  0  0  0  0  0  0  0
   46.3450   34.7110   43.1840 C   0  0  0  0  0  0  0  0  0  0  0  0
   46.6850   33.8910   44.2080 N   0  0  0  0  0  0  0  0  0  0  0  0
   46.0170   33.8920   45.3680 C   0  0  0  0  0  0  0  0  0  0  0  0
   44.9480   34.7360   45.5720 N   0  0  0  0  0  0  0  0  0  0  0  0
   46.4330   32.9750   46.4650 C   0  0  2  0  0  0  0  0  0  0  0  0
   46.9480   31.7380   45.7590 C   0  0  0  0  0  0  0  0  0  0  0  0
   46.0690   30.5630   45.7750 C   0  0  0  0  0  0  0  0  0  0  0  0
   45.7910   30.3050   47.2570 C   0  0  0  0  0  0  0  0  0  0  0  0
   44.9860   31.3740   47.8740 C   0  0  0  0  0  0  0  0  0  0  0  0
   45.3820   32.7350   47.4080 C   0  0  0  0  0  0  0  0  0  0  0  0
   44.6850   33.8760   47.9190 N   0  0  0  0  0  0  0  0  0  0  0  0
   47.0560   34.7150   41.9200 C   0  0  0  0  0  0  0  0  0  0  0  0
   48.1840   35.4460   41.8070 C   0  0  0  0  0  0  0  0  0  0  0  0
   48.8320   35.4160   40.5630 C   0  0  0  0  0  0  0  0  0  0  0  0
   48.2550   34.6490   39.5890 C   0  0  0  0  0  0  0  0  0  0  0  0
   47.1230   33.9140   39.7000 C   0  0  0  0  0  0  0  0  0  0  0  0
   46.5260   33.9690   40.9170 N   0  0  0  0  0  0  0  0  0  0  0  0
   46.5960   33.1560   38.6570 O   0  0  0  0  0  0  0  0  0  0  0  0
   46.9020   33.3590   37.3430 C   0  0  0  0  0  0  0  0  0  0  0  0
   47.7670   32.6370   36.6690 C   0  0  0  0  0  0  0  0  0  0  0  0
   48.3080   32.5900   35.2980 C   0  0  0  0  0  0  0  0  0  0  0  0
   43.7059   36.2453   44.7640 H   0  0  0  0  0  0  0  0  0  0  0  0
   44.9253   36.2885   42.5563 H   0  0  0  0  0  0  0  0  0  0  0  0
   47.2199   33.4058   47.1015 H   0  0  0  0  0  0  0  0  0  0  0  0
   47.8974   31.4520   46.2352 H   0  0  0  0  0  0  0  0  0  0  0  0
   47.0363   32.0219   44.7000 H   0  0  0  0  0  0  0  0  0  0  0  0
   45.1333   30.7714   45.2355 H   0  0  0  0  0  0  0  0  0  0  0  0
   46.5275   29.6939   45.2805 H   0  0  0  0  0  0  0  0  0  0  0  0
   45.2475   29.3535   47.3537 H   0  0  0  0  0  0  0  0  0  0  0  0
   46.7591   30.2722   47.7782 H   0  0  0  0  0  0  0  0  0  0  0  0
   44.1803   31.1887   48.5996 H   0  0  0  0  0  0  0  0  0  0  0  0
   43.9218   33.7512   48.5994 H   0  0  0  0  0  0  0  0  0  0  0  0
   44.9466   34.8219   47.6063 H   0  0  0  0  0  0  0  0  0  0  0  0
   48.5763   36.0362   42.6483 H   0  0  0  0  0  0  0  0  0  0  0  0
   49.7579   35.9812   40.3803 H   0  0  0  0  0  0  0  0  0  0  0  0
   48.7633   34.6267   38.6137 H   0  0  0  0  0  0  0  0  0  0  0  0
   46.3922   34.1786   36.8154 H   0  0  0  0  0  0  0  0  0  0  0  0
   48.2094   31.8520   37.2999 H   0  0  0  0  0  0  0  0  0  0  0  0
   49.4031   32.4949   35.3390 H   0  0  0  0  0  0  0  0  0  0  0  0
   47.8845   31.7253   34.7661 H   0  0  0  0  0  0  0  0  0  0  0  0
   48.0400   33.5148   34.7661 H   0  0  0  0  0  0  0  0  0  0  0  0
  1  6  2  0
  2  1  1  0
  3  2  2  0
  3  4  1  0
  4  5  2  0
  5  6  1  0
  5  7  1  0
  7 12  1  0
  8  9  1  0
  8  7  1  0
  9 10  1  0
 10 11  1  0
 12 11  2  0
 12 13  1  0
 14  3  1  0
 15 14  2  0
 16 15  1  0
 17 18  1  0
 17 16  2  0
 18 19  2  0
 19 14  1  0
 20 18  1  0
 21 20  1  0
 22 21  2  0
 23 22  1  0
  1 24  1  0
  2 25  1  0
  7 26  1  1
  8 27  1  0
  8 28  1  0
  9 29  1  0
  9 30  1  0
 10 31  1  0
 10 32  1  0
 11 33  1  0
 13 34  1  0
 13 35  1  0
 15 36  1  0
 16 37  1  0
 17 38  1  0
 21 39  1  0
 22 40  1  0
 23 41  1  0
 23 42  1  0
 23 43  1  0
M  ISO  8  24  14  25  14  26  13  27  13  28  13  29  13  30  13  31  13
M  ISO  8  32  13  33  13  36  14  37  14  38  14  41   8  42   8  43   8
M  END
>  <minimizedAffinity>  (1) 
-6.91278076

>  <minimizedRMSD>  (1) 
0.277566135

$$$$
