
     RDKit          3D

 32 33  0  0  1  0  0  0  0  0999 V2000
   48.2070   34.8650   42.2300 C   0  0  2  0  0  0  0  0  0  0  0  0
   46.8770   34.1080   42.3420 C   0  0  1  0  0  0  0  0  0  0  0  0
   47.3710   32.8270   42.4950 O   0  0  0  0  0  0  0  0  0  0  0  0
   48.2650   32.6750   41.4380 C   0  0  0  0  0  0  0  0  0  0  0  0
   48.7300   34.0570   41.0220 C   0  0  1  0  0  0  0  0  0  0  0  0
   44.4940   35.9260   44.6630 C   0  0  0  0  0  0  0  0  0  0  0  0
   45.1960   35.6810   43.4860 C   0  0  0  0  0  0  0  0  0  0  0  0
   46.0550   34.5860   43.4430 C   0  0  0  0  0  0  0  0  0  0  0  0
   46.1580   33.8110   44.5720 N   0  0  0  0  0  0  0  0  0  0  0  0
   45.4640   34.0750   45.6970 C   0  0  0  0  0  0  0  0  0  0  0  0
   44.6260   35.1380   45.7440 N   0  0  0  0  0  0  0  0  0  0  0  0
   49.0200   34.5620   43.2770 O   0  0  0  0  0  0  0  0  0  0  0  0
   48.0420   34.5350   39.9130 O   0  0  0  0  0  0  0  0  0  0  0  0
   47.7020   33.8640   38.7740 C   0  0  0  0  0  0  0  0  0  0  0  0
   48.5260   34.0780   37.7540 C   0  0  0  0  0  0  0  0  0  0  0  0
   48.4120   33.4800   36.3770 C   0  0  0  0  0  0  0  0  0  0  0  0
   48.1453   35.9619   42.1761 H   0  0  0  0  0  0  0  0  0  0  0  0
   46.1782   34.2197   41.4999 H   0  0  0  0  0  0  0  0  0  0  0  0
   49.1264   32.0716   41.7603 H   0  0  0  0  0  0  0  0  0  0  0  0
   47.7791   32.1629   40.5944 H   0  0  0  0  0  0  0  0  0  0  0  0
   49.8020   34.0987   40.7790 H   0  0  0  0  0  0  0  0  0  0  0  0
   43.8125   36.7882   44.7097 H   0  0  0  0  0  0  0  0  0  0  0  0
   45.0750   36.3367   42.6111 H   0  0  0  0  0  0  0  0  0  0  0  0
   45.5784   33.4263   46.5780 H   0  0  0  0  0  0  0  0  0  0  0  0
   48.5439   34.7395   44.1267 H   0  0  0  0  0  0  0  0  0  0  0  0
   47.6983   32.7865   38.9954 H   0  0  0  0  0  0  0  0  0  0  0  0
   46.7135   34.2371   38.4681 H   0  0  0  0  0  0  0  0  0  0  0  0
   48.5112   35.1666   37.5964 H   0  0  0  0  0  0  0  0  0  0  0  0
   49.4133   33.5385   38.1169 H   0  0  0  0  0  0  0  0  0  0  0  0
   48.2066   32.4026   36.4610 H   0  0  0  0  0  0  0  0  0  0  0  0
   47.5908   33.9684   35.8320 H   0  0  0  0  0  0  0  0  0  0  0  0
   49.3553   33.6320   35.8320 H   0  0  0  0  0  0  0  0  0  0  0  0
  1  2  1  0
  1 12  1  0
  2  3  1  0
  2  8  1  0
  4  3  1  0
  5  4  1  0
  5  1  1  0
  6 11  2  0
  7  6  1  0
  8  7  2  0
  8  9  1  0
  9 10  2  0
 10 11  1  0
 13  5  1  0
 14 13  1  0
 15 14  1  0
 16 15  1  0
  1 17  1  6
  2 18  1  6
  4 19  1  0
  4 20  1  0
  5 21  1  6
  6 22  1  0
  7 23  1  0
 10 24  1  0
 12 25  1  0
 14 26  1  0
 14 27  1  0
 15 28  1  0
 15 29  1  0
 16 30  1  0
 16 31  1  0
 16 32  1  0
M  ISO  8  17  13  18  13  19  13  20  13  21  13  22  14  23  14  24  14
M  ISO  8  25   3  26   8  27   8  28   8  29   8  30   8  31   8  32   8
M  END
>  <minimizedAffinity>  (1) 
-4.78774452

>  <minimizedRMSD>  (1) 
0.768975854

$$$$
