
     RDKit          3D

 34 36  0  0  0  0  0  0  0  0999 V2000
   45.2380   34.4120   41.0200 C   0  0  0  0  0  0  0  0  0  0  0  0
   45.4060   34.9970   42.2780 C   0  0  0  0  0  0  0  0  0  0  0  0
   46.6920   35.2640   42.7230 C   0  0  0  0  0  0  0  0  0  0  0  0
   47.7700   34.9490   41.9200 C   0  0  0  0  0  0  0  0  0  0  0  0
   47.6260   34.3730   40.6800 C   0  0  0  0  0  0  0  0  0  0  0  0
   46.3220   34.1170   40.2600 C   0  0  0  0  0  0  0  0  0  0  0  0
   41.6210   34.7550   40.0330 C   0  0  0  0  0  0  0  0  0  0  0  0
   42.9210   35.1350   40.4200 C   0  0  0  0  0  0  0  0  0  0  0  0
   43.8580   34.1610   40.6190 C   0  0  0  0  0  0  0  0  0  0  0  0
   43.4780   32.8720   40.4330 N   0  0  0  0  0  0  0  0  0  0  0  0
   42.2300   32.5140   40.0620 C   0  0  0  0  0  0  0  0  0  0  0  0
   41.2890   33.4650   39.8590 N   0  0  0  0  0  0  0  0  0  0  0  0
   40.5880   35.7920   39.8120 C   0  0  0  0  0  0  0  0  0  0  0  0
   39.3740   35.1390   39.5650 F   0  0  0  0  0  0  0  0  0  0  0  0
   40.8980   36.4080   38.5940 F   0  0  0  0  0  0  0  0  0  0  0  0
   40.4620   36.6780   40.8340 F   0  0  0  0  0  0  0  0  0  0  0  0
   46.3230   32.2830   38.3800 C   0  0  0  0  0  0  0  0  0  0  0  0
   46.9580   31.3550   38.8980 O   0  0  0  0  0  0  0  0  0  0  0  0
   46.0350   33.5300   39.0080 N   0  0  0  0  0  0  0  0  0  0  0  0
   45.8190   32.1040   37.0120 C   0  0  0  0  0  0  0  0  0  0  0  0
   44.7480   31.2770   36.7480 C   0  0  0  0  0  0  0  0  0  0  0  0
   44.4790   31.2900   35.3730 C   0  0  0  0  0  0  0  0  0  0  0  0
   45.4520   32.1620   34.8890 C   0  0  0  0  0  0  0  0  0  0  0  0
   46.1950   32.6010   35.8710 O   0  0  0  0  0  0  0  0  0  0  0  0
   44.5346   35.2411   42.9034 H   0  0  0  0  0  0  0  0  0  0  0  0
   46.8521   35.7238   43.7094 H   0  0  0  0  0  0  0  0  0  0  0  0
   48.7838   35.1674   42.2867 H   0  0  0  0  0  0  0  0  0  0  0  0
   48.4949   34.1270   40.0519 H   0  0  0  0  0  0  0  0  0  0  0  0
   43.1768   36.1957   40.5593 H   0  0  0  0  0  0  0  0  0  0  0  0
   41.9789   31.4518   39.9251 H   0  0  0  0  0  0  0  0  0  0  0  0
   45.4840   34.1542   38.4016 H   0  0  0  0  0  0  0  0  0  0  0  0
   44.1916   30.6975   37.4994 H   0  0  0  0  0  0  0  0  0  0  0  0
   43.6986   30.7495   34.8173 H   0  0  0  0  0  0  0  0  0  0  0  0
   45.5770   32.4410   33.8323 H   0  0  0  0  0  0  0  0  0  0  0  0
  1  2  2  0
  2  3  1  0
  4  3  2  0
  5  4  1  0
  6  5  2  0
  6  1  1  0
  7  8  2  0
  8  9  1  0
  9  1  1  0
 10  9  2  0
 11 10  1  0
 12  7  1  0
 12 11  2  0
 13  7  1  0
 13 16  1  0
 14 13  1  0
 15 13  1  0
 17 18  2  0
 17 19  1  0
 19  6  1  0
 20 17  1  0
 21 20  2  0
 22 21  1  0
 23 22  2  0
 23 24  1  0
 24 20  1  0
  2 25  1  0
  3 26  1  0
  4 27  1  0
  5 28  1  0
  8 29  1  0
 11 30  1  0
 19 31  1  0
 21 32  1  0
 22 33  1  0
 23 34  1  0
M  ISO  8  25  14  26  14  27  14  28  14  29  14  30  14  32  14  33  14
M  ISO  1  34  14
M  END
>  <minimizedAffinity>  (1) 
-5.84024477

>  <minimizedRMSD>  (1) 
0.819865704

$$$$
