
     RDKit          3D

 45 49  0  0  1  0  0  0  0  0999 V2000
   45.2200   36.0330   43.4500 C   0  0  0  0  0  0  0  0  0  0  0  0
   46.0300   34.9190   43.2170 C   0  0  0  0  0  0  0  0  0  0  0  0
   46.1210   33.9490   44.1690 C   0  0  0  0  0  0  0  0  0  0  0  0
   45.4000   34.1320   45.3180 N   0  0  0  0  0  0  0  0  0  0  0  0
   44.6250   35.2010   45.5400 C   0  0  0  0  0  0  0  0  0  0  0  0
   44.5420   36.1280   44.6180 N   0  0  0  0  0  0  0  0  0  0  0  0
   46.7310   34.8800   42.0120 N   0  0  0  0  0  0  0  0  0  0  0  0
   48.0170   35.4840   41.8650 C   0  0  0  0  0  0  0  0  0  0  0  0
   48.7020   35.2010   40.5600 C   0  0  0  0  0  0  0  0  0  0  0  0
   48.5510   33.8960   40.0800 N   0  0  0  0  0  0  0  0  0  0  0  0
   47.2970   33.3360   40.1910 C   0  0  0  0  0  0  0  0  0  0  0  0
   46.2900   34.2740   40.8200 C   0  0  0  0  0  0  0  0  0  0  0  0
   46.3650   31.9020   45.2980 C   0  0  0  0  0  0  0  0  0  0  0  0
   46.8120   32.7390   44.2540 C   0  0  0  0  0  0  0  0  0  0  0  0
   47.8750   32.1770   43.5890 C   0  0  0  0  0  0  0  0  0  0  0  0
   48.4530   30.9780   43.8690 C   0  0  0  0  0  0  0  0  0  0  0  0
   47.9520   30.2190   44.9200 C   0  0  0  0  0  0  0  0  0  0  0  0
   46.8940   30.6890   45.6410 C   0  0  0  0  0  0  0  0  0  0  0  0
   48.7500   29.0840   44.9450 O   0  0  0  0  0  0  0  0  0  0  0  0
   49.6940   29.1240   43.8910 C   0  0  2  0  0  0  0  0  0  0  0  0
   49.5200   30.3710   43.2260 O   0  0  0  0  0  0  0  0  0  0  0  0
   49.3520   28.0840   43.0120 O   0  0  0  0  0  0  0  0  0  0  0  0
   49.1390   28.2080   41.6480 C   0  0  0  0  0  0  0  0  0  0  0  0
   47.8040   28.1640   41.2320 C   0  0  0  0  0  0  0  0  0  0  0  0
   47.8490   28.3070   39.8400 C   0  0  0  0  0  0  0  0  0  0  0  0
   49.1920   28.4270   39.5030 C   0  0  0  0  0  0  0  0  0  0  0  0
   49.9060   28.3630   40.5940 O   0  0  0  0  0  0  0  0  0  0  0  0
   45.1339   36.8253   42.6918 H   0  0  0  0  0  0  0  0  0  0  0  0
   44.0663   35.2994   46.4824 H   0  0  0  0  0  0  0  0  0  0  0  0
   47.8957   36.5733   41.9582 H   0  0  0  0  0  0  0  0  0  0  0  0
   48.6541   35.0485   42.6489 H   0  0  0  0  0  0  0  0  0  0  0  0
   48.2954   35.8905   39.8055 H   0  0  0  0  0  0  0  0  0  0  0  0
   49.7780   35.3365   40.7438 H   0  0  0  0  0  0  0  0  0  0  0  0
   49.2079   33.2952   40.5981 H   0  0  0  0  0  0  0  0  0  0  0  0
   46.9434   33.0635   39.1856 H   0  0  0  0  0  0  0  0  0  0  0  0
   47.3838   32.4560   40.8452 H   0  0  0  0  0  0  0  0  0  0  0  0
   46.0583   35.0679   40.0947 H   0  0  0  0  0  0  0  0  0  0  0  0
   45.4117   33.6654   41.0812 H   0  0  0  0  0  0  0  0  0  0  0  0
   45.5106   32.2589   45.8918 H   0  0  0  0  0  0  0  0  0  0  0  0
   48.2984   32.7507   42.7514 H   0  0  0  0  0  0  0  0  0  0  0  0
   46.4773   30.1074   46.4765 H   0  0  0  0  0  0  0  0  0  0  0  0
   50.7313   29.0168   44.2410 H   0  0  0  0  0  0  0  0  0  0  0  0
   46.9110   28.0431   41.8629 H   0  0  0  0  0  0  0  0  0  0  0  0
   46.9921   28.3215   39.1504 H   0  0  0  0  0  0  0  0  0  0  0  0
   49.5880   28.5548   38.4848 H   0  0  0  0  0  0  0  0  0  0  0  0
  1  6  2  0
  2  1  1  0
  2  3  2  0
  3 14  1  0
  3  4  1  0
  4  5  2  0
  6  5  1  0
  7  2  1  0
  8  7  1  0
  9  8  1  0
 10 11  1  0
 10  9  1  0
 11 12  1  0
 12  7  1  0
 13 18  2  0
 14 13  1  0
 15 16  1  0
 15 14  2  0
 16 17  2  0
 17 19  1  0
 17 18  1  0
 20 19  1  0
 21 16  1  0
 21 20  1  0
 22 20  1  0
 23 22  1  0
 24 23  2  0
 25 24  1  0
 26 25  2  0
 26 27  1  0
 27 23  1  0
  1 28  1  0
  5 29  1  0
  8 30  1  0
  8 31  1  0
  9 32  1  0
  9 33  1  0
 10 34  1  0
 11 35  1  0
 11 36  1  0
 12 37  1  0
 12 38  1  0
 13 39  1  0
 15 40  1  0
 18 41  1  0
 20 42  1  1
 24 43  1  0
 25 44  1  0
 26 45  1  0
M  ISO  8  28  14  29  14  30  13  31  13  32  13  33  13  34   5  35  13
M  ISO  8  36  13  37  13  38  13  39  14  40  14  41  14  42  13  43  14
M  ISO  2  44  14  45  14
M  END
>  <minimizedAffinity>  (1) 
-4.71231842

>  <minimizedRMSD>  (1) 
1.52640867

$$$$
