
     RDKit          3D

 26 28  0  0  1  0  0  0  0  0999 V2000
   46.0080   31.8990   45.2280 C   0  0  1  0  0  0  0  0  0  0  0  0
   45.5390   33.2190   44.6920 C   0  0  0  0  0  0  0  0  0  0  0  0
   47.0320   32.8570   44.7970 C   0  0  2  0  0  0  0  0  0  0  0  0
   45.9450   32.3020   48.9180 C   0  0  0  0  0  0  0  0  0  0  0  0
   45.5130   30.9930   49.3300 C   0  0  0  0  0  0  0  0  0  0  0  0
   45.2510   30.0160   48.3190 C   0  0  0  0  0  0  0  0  0  0  0  0
   45.4130   30.3460   47.0350 N   0  0  0  0  0  0  0  0  0  0  0  0
   45.8280   31.6070   46.6780 C   0  0  0  0  0  0  0  0  0  0  0  0
   46.0860   32.5650   47.6170 N   0  0  0  0  0  0  0  0  0  0  0  0
   47.7380   32.7410   43.5650 N   0  0  0  0  0  0  0  0  0  0  0  0
   48.3510   33.8430   42.9050 C   0  0  0  0  0  0  0  0  0  0  0  0
   47.7190   34.7290   42.0580 C   0  0  0  0  0  0  0  0  0  0  0  0
   48.6820   35.6440   41.6380 C   0  0  0  0  0  0  0  0  0  0  0  0
   49.8460   35.2440   42.2680 C   0  0  0  0  0  0  0  0  0  0  0  0
   49.6120   34.1760   43.0100 O   0  0  0  0  0  0  0  0  0  0  0  0
   45.8002   30.8488   44.9751 H   0  0  0  0  0  0  0  0  0  0  0  0
   45.0996   33.9688   45.3664 H   0  0  0  0  0  0  0  0  0  0  0  0
   44.8601   33.5524   43.8933 H   0  0  0  0  0  0  0  0  0  0  0  0
   47.9365   33.2424   45.2903 H   0  0  0  0  0  0  0  0  0  0  0  0
   46.1570   33.0785   49.6678 H   0  0  0  0  0  0  0  0  0  0  0  0
   45.3874   30.7498   50.3954 H   0  0  0  0  0  0  0  0  0  0  0  0
   44.9198   29.0042   48.5958 H   0  0  0  0  0  0  0  0  0  0  0  0
   47.8085   31.8105   43.1289 H   0  0  0  0  0  0  0  0  0  0  0  0
   46.6577   34.7158   41.7693 H   0  0  0  0  0  0  0  0  0  0  0  0
   48.5463   36.4963   40.9559 H   0  0  0  0  0  0  0  0  0  0  0  0
   50.8220   35.7411   42.1665 H   0  0  0  0  0  0  0  0  0  0  0  0
  1  8  1  0
  2  3  1  0
  2  1  1  0
  3  1  1  0
  4  5  2  0
  6  5  1  0
  7  6  2  0
  8  7  1  0
  8  9  2  0
  9  4  1  0
 10  3  1  0
 11 15  1  0
 11 10  1  0
 12 11  2  0
 13 12  1  0
 13 14  2  0
 14 15  1  0
  1 16  1  6
  2 17  1  0
  2 18  1  0
  3 19  1  1
  4 20  1  0
  5 21  1  0
  6 22  1  0
 10 23  1  0
 12 24  1  0
 13 25  1  0
 14 26  1  0
M  ISO  8  16  13  17  13  18  13  19  13  20  14  21  14  22  14  24  14
M  ISO  2  25  14  26  14
M  END
>  <minimizedAffinity>  (1) 
-4.49262667

>  <minimizedRMSD>  (1) 
6.5908432

$$$$
