
     RDKit          3D

 47 51  0  0  0  0  0  0  0  0999 V2000
   45.8580   32.2670   46.0510 C   0  0  0  0  0  0  0  0  0  0  0  0
   45.6680   32.9360   47.2570 C   0  0  0  0  0  0  0  0  0  0  0  0
   45.8640   32.3310   48.5040 C   0  0  0  0  0  0  0  0  0  0  0  0
   46.2590   31.0250   48.5880 C   0  0  0  0  0  0  0  0  0  0  0  0
   46.4500   30.3180   47.3800 C   0  0  0  0  0  0  0  0  0  0  0  0
   46.7860   29.0090   47.5070 C   0  0  0  0  0  0  0  0  0  0  0  0
   46.9080   28.2640   46.3350 C   0  0  0  0  0  0  0  0  0  0  0  0
   46.6650   28.9160   45.0740 C   0  0  0  0  0  0  0  0  0  0  0  0
   46.3320   30.2510   45.1180 C   0  0  0  0  0  0  0  0  0  0  0  0
   46.2220   31.0150   46.1920 C   0  0  0  0  0  0  0  0  0  0  0  0
   44.4740   29.7920   43.7870 C   0  0  0  0  0  0  0  0  0  0  0  0
   45.8530   30.2400   43.7520 C   0  0  0  0  0  0  0  0  0  0  0  0
   46.2700   30.3600   42.4940 C   0  0  0  0  0  0  0  0  0  0  0  0
   45.5260   30.0980   41.3640 C   0  0  0  0  0  0  0  0  0  0  0  0
   44.2280   29.6740   41.4200 C   0  0  0  0  0  0  0  0  0  0  0  0
   43.6980   29.5200   42.6770 C   0  0  0  0  0  0  0  0  0  0  0  0
   43.6910   29.5590   44.9520 O   0  0  0  0  0  0  0  0  0  0  0  0
   42.3890   29.0870   42.6690 O   0  0  0  0  0  0  0  0  0  0  0  0
   41.3260   29.8560   42.2350 C   0  0  0  0  0  0  0  0  0  0  0  0
   40.2260   29.6720   41.4460 C   0  0  0  0  0  0  0  0  0  0  0  0
   39.5660   30.8820   41.4310 C   0  0  0  0  0  0  0  0  0  0  0  0
   40.2840   31.7620   42.2090 C   0  0  0  0  0  0  0  0  0  0  0  0
   41.3230   31.1040   42.6650 O   0  0  0  0  0  0  0  0  0  0  0  0
   45.2630   34.1410   42.8800 C   0  0  0  0  0  0  0  0  0  0  0  0
   46.5920   34.5150   42.5690 C   0  0  0  0  0  0  0  0  0  0  0  0
   47.5650   34.0820   43.4350 C   0  0  0  0  0  0  0  0  0  0  0  0
   47.1290   33.3650   44.4660 N   0  0  0  0  0  0  0  0  0  0  0  0
   45.8960   32.9950   44.7930 C   0  0  0  0  0  0  0  0  0  0  0  0
   44.9840   33.4070   43.9630 N   0  0  0  0  0  0  0  0  0  0  0  0
   48.9420   34.3290   43.2080 N   0  0  0  0  0  0  0  0  0  0  0  0
   45.3492   33.9884   47.2287 H   0  0  0  0  0  0  0  0  0  0  0  0
   45.6988   32.9112   49.4238 H   0  0  0  0  0  0  0  0  0  0  0  0
   46.4224   30.5414   49.5624 H   0  0  0  0  0  0  0  0  0  0  0  0
   46.9551   28.5546   48.4944 H   0  0  0  0  0  0  0  0  0  0  0  0
   47.1842   27.1999   46.3726 H   0  0  0  0  0  0  0  0  0  0  0  0
   46.7419   28.3728   44.1206 H   0  0  0  0  0  0  0  0  0  0  0  0
   47.3050   30.7000   42.3419 H   0  0  0  0  0  0  0  0  0  0  0  0
   45.9951   30.2355   40.3786 H   0  0  0  0  0  0  0  0  0  0  0  0
   43.6426   29.4683   40.5117 H   0  0  0  0  0  0  0  0  0  0  0  0
   42.7537   29.2524   44.8653 H   0  0  0  0  0  0  0  0  0  0  0  0
   39.9282   28.7480   40.9289 H   0  0  0  0  0  0  0  0  0  0  0  0
   38.6325   31.1047   40.8935 H   0  0  0  0  0  0  0  0  0  0  0  0
   40.0344   32.8144   42.4096 H   0  0  0  0  0  0  0  0  0  0  0  0
   44.4439   34.4599   42.2186 H   0  0  0  0  0  0  0  0  0  0  0  0
   46.8321   35.1195   41.6819 H   0  0  0  0  0  0  0  0  0  0  0  0
   49.6440   33.9884   43.8804 H   0  0  0  0  0  0  0  0  0  0  0  0
   49.2407   34.8491   42.3706 H   0  0  0  0  0  0  0  0  0  0  0  0
  1 10  1  0
  1  2  2  0
  2  3  1  0
  3  4  2  0
  5  6  2  0
  5  4  1  0
  7  6  1  0
  8  9  1  0
  8  7  2  0
  9 10  2  0
 10  5  1  0
 11 17  1  0
 12 11  2  0
 12  9  1  0
 13 12  1  0
 14 15  1  0
 14 13  2  0
 15 16  2  0
 16 11  1  0
 18 16  1  0
 19 23  1  0
 19 18  1  0
 20 19  2  0
 21 20  1  0
 21 22  2  0
 22 23  1  0
 24 29  2  0
 25 24  1  0
 25 26  2  0
 26 27  1  0
 27 28  2  0
 28  1  1  0
 29 28  1  0
 30 26  1  0
  2 31  1  0
  3 32  1  0
  4 33  1  0
  6 34  1  0
  7 35  1  0
  8 36  1  0
 13 37  1  0
 14 38  1  0
 15 39  1  0
 17 40  1  0
 20 41  1  0
 21 42  1  0
 22 43  1  0
 24 44  1  0
 25 45  1  0
 30 46  1  0
 30 47  1  0
M  ISO  8  31  14  32  14  33  14  34  14  35  14  36  14  37  14  38  14
M  ISO  7  39  14  40   3  41  14  42  14  43  14  44  14  45  14
M  END
>  <minimizedAffinity>  (1) 
-5.33354044

>  <minimizedRMSD>  (1) 
0.804436088

$$$$
