
     RDKit          3D

 28 29  0  0  0  0  0  0  0  0999 V2000
   43.5510   35.7380   41.4170 O   0  0  0  0  0  0  0  0  0  0  0  0
   44.6170   34.8990   41.6500 C   0  0  0  0  0  0  0  0  0  0  0  0
   44.4660   35.6110   43.9260 C   0  0  0  0  0  0  0  0  0  0  0  0
   44.8510   34.5670   43.0690 C   0  0  0  0  0  0  0  0  0  0  0  0
   45.3790   33.4480   43.6540 C   0  0  0  0  0  0  0  0  0  0  0  0
   45.4870   33.4360   44.9790 N   0  0  0  0  0  0  0  0  0  0  0  0
   45.1230   34.4240   45.7890 C   0  0  0  0  0  0  0  0  0  0  0  0
   44.5790   35.5930   45.2820 N   0  0  0  0  0  0  0  0  0  0  0  0
   42.4710   35.5150   40.5800 C   0  0  0  0  0  0  0  0  0  0  0  0
   41.2490   35.7890   41.1000 C   0  0  0  0  0  0  0  0  0  0  0  0
   39.9340   35.6800   40.3540 C   0  0  0  0  0  0  0  0  0  0  0  0
   39.4310   34.2930   40.5580 C   0  0  0  0  0  0  0  0  0  0  0  0
   38.4690   33.6110   39.8490 C   0  0  0  0  0  0  0  0  0  0  0  0
   38.3890   32.3610   40.4580 C   0  0  0  0  0  0  0  0  0  0  0  0
   39.3110   32.3590   41.5030 C   0  0  0  0  0  0  0  0  0  0  0  0
   39.9170   33.5350   41.5330 O   0  0  0  0  0  0  0  0  0  0  0  0
   44.4380   33.9604   41.1050 H   0  0  0  0  0  0  0  0  0  0  0  0
   45.5129   35.4382   41.3087 H   0  0  0  0  0  0  0  0  0  0  0  0
   44.0397   36.5141   43.4649 H   0  0  0  0  0  0  0  0  0  0  0  0
   45.7028   32.5884   43.0488 H   0  0  0  0  0  0  0  0  0  0  0  0
   45.2551   34.3126   46.8753 H   0  0  0  0  0  0  0  0  0  0  0  0
   42.5967   35.1380   39.5543 H   0  0  0  0  0  0  0  0  0  0  0  0
   41.2087   36.1173   42.1491 H   0  0  0  0  0  0  0  0  0  0  0  0
   40.0908   35.8711   39.2821 H   0  0  0  0  0  0  0  0  0  0  0  0
   39.2092   36.4190   40.7262 H   0  0  0  0  0  0  0  0  0  0  0  0
   37.8889   33.9743   38.9879 H   0  0  0  0  0  0  0  0  0  0  0  0
   37.7247   31.5332   40.1692 H   0  0  0  0  0  0  0  0  0  0  0  0
   39.5029   31.5202   42.1883 H   0  0  0  0  0  0  0  0  0  0  0  0
  1  2  1  0
  2  4  1  0
  3  8  2  0
  4  5  2  0
  4  3  1  0
  5  6  1  0
  6  7  2  0
  8  7  1  0
  9 10  2  0
  9  1  1  0
 11 12  1  0
 11 10  1  0
 12 16  1  0
 13 14  1  0
 13 12  2  0
 14 15  2  0
 15 16  1  0
  2 17  1  0
  2 18  1  0
  3 19  1  0
  5 20  1  0
  7 21  1  0
  9 22  1  0
 10 23  1  0
 11 24  1  0
 11 25  1  0
 13 26  1  0
 14 27  1  0
 15 28  1  0
M  ISO  8  17   8  18   8  19  14  20  14  21  14  24   8  25   8  26  14
M  ISO  2  27  14  28  14
M  END
>  <minimizedAffinity>  (1) 
-4.76616287

>  <minimizedRMSD>  (1) 
1.51356339

$$$$
