
     RDKit          3D

 37 40  0  0  0  0  0  0  0  0999 V2000
   48.7900   35.4860   40.6910 C   0  0  0  0  0  0  0  0  0  0  0  0
   48.2620   34.8690   39.5470 C   0  0  0  0  0  0  0  0  0  0  0  0
   47.2470   33.9340   39.6950 C   0  0  0  0  0  0  0  0  0  0  0  0
   46.8190   33.6770   40.9500 N   0  0  0  0  0  0  0  0  0  0  0  0
   47.3220   34.2730   42.0430 C   0  0  0  0  0  0  0  0  0  0  0  0
   48.3120   35.1780   41.9190 N   0  0  0  0  0  0  0  0  0  0  0  0
   45.0500   36.0960   42.9660 Cl  0  0  0  0  0  0  0  0  0  0  0  0
   45.7440   34.7810   43.8850 C   0  0  0  0  0  0  0  0  0  0  0  0
   46.7790   34.0090   43.3610 C   0  0  0  0  0  0  0  0  0  0  0  0
   47.2290   33.0120   44.1590 C   0  0  0  0  0  0  0  0  0  0  0  0
   46.7400   32.7260   45.4190 C   0  0  0  0  0  0  0  0  0  0  0  0
   45.7190   33.5020   45.9160 C   0  0  0  0  0  0  0  0  0  0  0  0
   45.1750   33.0650   47.5230 Cl  0  0  0  0  0  0  0  0  0  0  0  0
   45.2230   34.5210   45.1580 C   0  0  0  0  0  0  0  0  0  0  0  0
   49.1250   33.4760   37.4140 Cl  0  0  0  0  0  0  0  0  0  0  0  0
   47.4290   33.0400   37.4340 C   0  0  0  0  0  0  0  0  0  0  0  0
   46.7070   33.2360   38.5610 C   0  0  0  0  0  0  0  0  0  0  0  0
   45.4240   32.7220   38.5120 C   0  0  0  0  0  0  0  0  0  0  0  0
   44.8690   32.0610   37.4360 C   0  0  0  0  0  0  0  0  0  0  0  0
   45.6490   31.8930   36.3030 C   0  0  0  0  0  0  0  0  0  0  0  0
   46.9390   32.3930   36.3160 C   0  0  0  0  0  0  0  0  0  0  0  0
   47.7750   32.2250   35.1320 C   0  0  0  0  0  0  0  0  0  0  0  0
   49.0540   31.7130   35.0970 C   0  0  0  0  0  0  0  0  0  0  0  0
   49.4610   31.7410   33.7640 C   0  0  0  0  0  0  0  0  0  0  0  0
   48.3970   32.2730   33.0620 C   0  0  0  0  0  0  0  0  0  0  0  0
   47.4330   32.5410   33.9070 O   0  0  0  0  0  0  0  0  0  0  0  0
   49.5981   36.2253   40.5891 H   0  0  0  0  0  0  0  0  0  0  0  0
   48.6465   35.1224   38.5480 H   0  0  0  0  0  0  0  0  0  0  0  0
   48.0453   32.3824   43.7752 H   0  0  0  0  0  0  0  0  0  0  0  0
   47.1571   31.8977   46.0105 H   0  0  0  0  0  0  0  0  0  0  0  0
   44.4061   35.1444   45.5503 H   0  0  0  0  0  0  0  0  0  0  0  0
   44.7942   32.8509   39.4046 H   0  0  0  0  0  0  0  0  0  0  0  0
   43.8383   31.6788   37.4761 H   0  0  0  0  0  0  0  0  0  0  0  0
   45.2530   31.3757   35.4166 H   0  0  0  0  0  0  0  0  0  0  0  0
   49.6403   31.3521   35.9549 H   0  0  0  0  0  0  0  0  0  0  0  0
   50.4273   31.4089   33.3565 H   0  0  0  0  0  0  0  0  0  0  0  0
   48.3648   32.4430   31.9757 H   0  0  0  0  0  0  0  0  0  0  0  0
  1  6  2  0
  2  3  2  0
  2  1  1  0
  3  4  1  0
  4  5  2  0
  5  9  1  0
  6  5  1  0
  7  8  1  0
  8 14  2  0
  9  8  1  0
  9 10  2  0
 10 11  1  0
 11 12  2  0
 12 13  1  0
 14 12  1  0
 15 16  1  0
 16 17  2  0
 17  3  1  0
 18 17  1  0
 19 18  2  0
 20 21  2  0
 20 19  1  0
 21 16  1  0
 22 21  1  0
 23 22  2  0
 24 23  1  0
 25 24  2  0
 25 26  1  0
 26 22  1  0
  1 27  1  0
  2 28  1  0
 10 29  1  0
 11 30  1  0
 14 31  1  0
 18 32  1  0
 19 33  1  0
 20 34  1  0
 23 35  1  0
 24 36  1  0
 25 37  1  0
M  ISO  8  27  14  28  14  29  14  30  14  31  14  32  14  33  14  34  14
M  ISO  3  35  14  36  14  37  14
M  END
>  <minimizedAffinity>  (1) 
-6.27386189

>  <minimizedRMSD>  (1) 
0.735657215

$$$$
