
     RDKit          3D

 30 33  0  0  0  0  0  0  0  0999 V2000
   46.1560   31.6170   44.3840 C   0  0  0  0  0  0  0  0  0  0  0  0
   46.4850   32.6260   43.4950 C   0  0  0  0  0  0  0  0  0  0  0  0
   47.6950   32.6600   42.8320 C   0  0  0  0  0  0  0  0  0  0  0  0
   48.6330   31.6550   43.0510 C   0  0  0  0  0  0  0  0  0  0  0  0
   49.8800   31.3680   42.5960 N   0  0  0  0  0  0  0  0  0  0  0  0
   50.3100   30.2250   43.1810 C   0  0  0  0  0  0  0  0  0  0  0  0
   49.3170   29.8160   43.9940 N   0  0  0  0  0  0  0  0  0  0  0  0
   48.2760   30.6690   43.9390 C   0  0  0  0  0  0  0  0  0  0  0  0
   47.0800   30.5980   44.6190 C   0  0  0  0  0  0  0  0  0  0  0  0
   44.5920   35.7560   43.8200 C   0  0  0  0  0  0  0  0  0  0  0  0
   43.7150   35.6980   42.7360 C   0  0  0  0  0  0  0  0  0  0  0  0
   43.7750   34.5770   41.8900 C   0  0  0  0  0  0  0  0  0  0  0  0
   44.7010   33.6210   42.2010 N   0  0  0  0  0  0  0  0  0  0  0  0
   45.5320   33.6950   43.2430 C   0  0  0  0  0  0  0  0  0  0  0  0
   45.4870   34.7650   44.0630 N   0  0  0  0  0  0  0  0  0  0  0  0
   48.0690   33.7110   41.8890 C   0  0  0  0  0  0  0  0  0  0  0  0
   48.7650   34.7730   42.4740 C   0  0  0  0  0  0  0  0  0  0  0  0
   49.0450   35.6830   41.4480 C   0  0  0  0  0  0  0  0  0  0  0  0
   48.4950   35.1050   40.3020 C   0  0  0  0  0  0  0  0  0  0  0  0
   47.9380   33.9560   40.6160 O   0  0  0  0  0  0  0  0  0  0  0  0
   45.1827   31.6185   44.8965 H   0  0  0  0  0  0  0  0  0  0  0  0
   50.4126   31.9290   41.9159 H   0  0  0  0  0  0  0  0  0  0  0  0
   51.2789   29.7286   43.0234 H   0  0  0  0  0  0  0  0  0  0  0  0
   46.8631   29.7750   45.3159 H   0  0  0  0  0  0  0  0  0  0  0  0
   44.5571   36.6252   44.4932 H   0  0  0  0  0  0  0  0  0  0  0  0
   42.9954   36.5085   42.5484 H   0  0  0  0  0  0  0  0  0  0  0  0
   43.1093   34.4742   41.0203 H   0  0  0  0  0  0  0  0  0  0  0  0
   49.0393   34.8739   43.5345 H   0  0  0  0  0  0  0  0  0  0  0  0
   49.5797   36.6410   41.5269 H   0  0  0  0  0  0  0  0  0  0  0  0
   48.5233   35.5428   39.2933 H   0  0  0  0  0  0  0  0  0  0  0  0
  1  9  2  0
  2  1  1  0
  3  4  1  0
  3  2  2  0
  4  8  2  0
  5  4  1  0
  5  6  1  0
  6  7  2  0
  8  7  1  0
  8  9  1  0
 10 15  2  0
 11 10  1  0
 12 13  1  0
 12 11  2  0
 13 14  2  0
 14  2  1  0
 14 15  1  0
 16 17  2  0
 16  3  1  0
 18 17  1  0
 19 20  1  0
 19 18  2  0
 20 16  1  0
  1 21  1  0
  5 22  1  0
  6 23  1  0
  9 24  1  0
 10 25  1  0
 11 26  1  0
 12 27  1  0
 17 28  1  0
 18 29  1  0
 19 30  1  0
M  ISO  8  21  14  22   9  23  14  24  14  25  14  26  14  27  14  28  14
M  ISO  2  29  14  30  14
M  END
>  <minimizedAffinity>  (1) 
-4.46988916

>  <minimizedRMSD>  (1) 
4.79374266

$$$$
