
     RDKit          3D

 40 43  0  0  1  0  0  0  0  0999 V2000
   40.1680   34.9150   40.4120 C   0  0  0  0  0  0  0  0  0  0  0  0
   41.2300   34.2750   41.0520 C   0  0  0  0  0  0  0  0  0  0  0  0
   41.1220   32.9720   41.4960 C   0  0  0  0  0  0  0  0  0  0  0  0
   39.9480   32.2750   41.3110 C   0  0  0  0  0  0  0  0  0  0  0  0
   38.8950   32.8990   40.6800 C   0  0  0  0  0  0  0  0  0  0  0  0
   38.9790   34.1850   40.2340 C   0  0  0  0  0  0  0  0  0  0  0  0
   37.8490   31.9460   40.6380 O   0  0  0  0  0  0  0  0  0  0  0  0
   38.1740   30.9110   41.4830 C   0  0  2  0  0  0  0  0  0  0  0  0
   39.5730   30.9770   41.6500 O   0  0  0  0  0  0  0  0  0  0  0  0
   37.6830   29.5790   41.1130 C   0  0  0  0  0  0  0  0  0  0  0  0
   36.8310   29.1980   40.0870 C   0  0  0  0  0  0  0  0  0  0  0  0
   36.7120   27.8250   40.2080 C   0  0  0  0  0  0  0  0  0  0  0  0
   37.4950   27.4640   41.2910 C   0  0  0  0  0  0  0  0  0  0  0  0
   38.0560   28.5260   41.8050 O   0  0  0  0  0  0  0  0  0  0  0  0
   42.6790   35.3180   41.1880 S   0  0  0  0  0  0  0  0  0  0  0  0
   44.1350   34.4340   40.5380 C   0  0  0  0  0  0  0  0  0  0  0  0
   43.9670   33.7870   39.3660 C   0  0  0  0  0  0  0  0  0  0  0  0
   45.0820   33.1000   38.8980 C   0  0  0  0  0  0  0  0  0  0  0  0
   46.2400   33.0920   39.5780 N   0  0  0  0  0  0  0  0  0  0  0  0
   46.3680   33.7520   40.7460 C   0  0  0  0  0  0  0  0  0  0  0  0
   45.3050   34.3990   41.1810 N   0  0  0  0  0  0  0  0  0  0  0  0
   45.0010   32.3570   37.6640 N   0  0  0  0  0  0  0  0  0  0  0  0
   42.8260   33.6520   38.4020 C   0  0  0  0  0  0  0  0  0  0  0  0
   47.5120   33.7980   41.5040 O   0  0  0  0  0  0  0  0  0  0  0  0
   48.3600   34.9190   41.3490 C   0  0  0  0  0  0  0  0  0  0  0  0
   49.6170   34.6740   41.8190 F   0  0  0  0  0  0  0  0  0  0  0  0
   48.3540   35.2410   39.9770 F   0  0  0  0  0  0  0  0  0  0  0  0
   47.8240   35.9670   42.0880 F   0  0  0  0  0  0  0  0  0  0  0  0
   40.2575   35.9531   40.0594 H   0  0  0  0  0  0  0  0  0  0  0  0
   41.9740   32.4900   41.9978 H   0  0  0  0  0  0  0  0  0  0  0  0
   38.1168   34.6514   39.7350 H   0  0  0  0  0  0  0  0  0  0  0  0
   37.6391   31.0489   42.4342 H   0  0  0  0  0  0  0  0  0  0  0  0
   36.3531   29.8473   39.3387 H   0  0  0  0  0  0  0  0  0  0  0  0
   36.1152   27.1550   39.5717 H   0  0  0  0  0  0  0  0  0  0  0  0
   37.6253   26.4370   41.6630 H   0  0  0  0  0  0  0  0  0  0  0  0
   45.8250   31.8472   37.3148 H   0  0  0  0  0  0  0  0  0  0  0  0
   44.1191   32.3364   37.1322 H   0  0  0  0  0  0  0  0  0  0  0  0
   41.8851   33.5407   38.9608 H   0  0  0  0  0  0  0  0  0  0  0  0
   42.7725   34.5501   37.7691 H   0  0  0  0  0  0  0  0  0  0  0  0
   42.9836   32.7662   37.7691 H   0  0  0  0  0  0  0  0  0  0  0  0
  1  2  2  0
  2 15  1  0
  2  3  1  0
  4  3  2  0
  4  9  1  0
  5  4  1  0
  6  1  1  0
  6  5  2  0
  7  5  1  0
  7  8  1  0
  8  9  1  0
 10  8  1  0
 10 14  1  0
 11 12  1  0
 11 10  2  0
 12 13  2  0
 13 14  1  0
 16 21  1  0
 16 15  1  0
 17 16  2  0
 18 17  1  0
 18 19  2  0
 19 20  1  0
 20 21  2  0
 20 24  1  0
 22 18  1  0
 23 17  1  0
 25 24  1  0
 25 26  1  0
 25 28  1  0
 27 25  1  0
  1 29  1  0
  3 30  1  0
  6 31  1  0
  8 32  1  1
 11 33  1  0
 12 34  1  0
 13 35  1  0
 22 36  1  0
 22 37  1  0
 23 38  1  0
 23 39  1  0
 23 40  1  0
M  ISO  8  29  14  30  14  31  14  32  13  33  14  34  14  35  14  38   8
M  ISO  2  39   8  40   8
M  END
>  <minimizedAffinity>  (1) 
-6.20452261

>  <minimizedRMSD>  (1) 
0.646450102

$$$$
