
     RDKit          3D

 20 21  0  0  0  0  0  0  0  0999 V2000
   45.0670   33.8450   46.1570 C   0  0  0  0  0  0  0  0  0  0  0  0
   45.6750   33.7900   44.8770 C   0  0  0  0  0  0  0  0  0  0  0  0
   46.8090   32.9870   44.8010 C   0  0  0  0  0  0  0  0  0  0  0  0
   47.2400   32.3320   45.9270 N   0  0  0  0  0  0  0  0  0  0  0  0
   46.6150   32.4280   47.1160 C   0  0  0  0  0  0  0  0  0  0  0  0
   45.5210   33.1920   47.2210 N   0  0  0  0  0  0  0  0  0  0  0  0
   45.0810   34.5620   43.7920 C   0  0  0  0  0  0  0  0  0  0  0  0
   45.2500   35.9150   43.6280 C   0  0  0  0  0  0  0  0  0  0  0  0
   44.5570   36.3240   42.5110 C   0  0  0  0  0  0  0  0  0  0  0  0
   43.9810   35.1890   42.0220 C   0  0  0  0  0  0  0  0  0  0  0  0
   44.3140   34.2150   42.7920 O   0  0  0  0  0  0  0  0  0  0  0  0
   47.4560   32.9170   43.4940 C   0  0  0  0  0  0  0  0  0  0  0  0
   48.5400   32.0510   43.5460 F   0  0  0  0  0  0  0  0  0  0  0  0
   48.0270   34.1730   43.2770 F   0  0  0  0  0  0  0  0  0  0  0  0
   46.6340   32.5100   42.5010 F   0  0  0  0  0  0  0  0  0  0  0  0
   44.1662   34.4650   46.2758 H   0  0  0  0  0  0  0  0  0  0  0  0
   46.9995   31.8843   47.9916 H   0  0  0  0  0  0  0  0  0  0  0  0
   45.8442   36.5677   44.2844 H   0  0  0  0  0  0  0  0  0  0  0  0
   44.4840   37.3428   42.1026 H   0  0  0  0  0  0  0  0  0  0  0  0
   43.3445   35.1192   41.1276 H   0  0  0  0  0  0  0  0  0  0  0  0
  1  6  2  0
  2  1  1  0
  3  2  2  0
  3  4  1  0
  4  5  2  0
  5  6  1  0
  7  2  1  0
  8  7  2  0
  9  8  1  0
 10  9  2  0
 10 11  1  0
 11  7  1  0
 12 13  1  0
 12  3  1  0
 14 12  1  0
 15 12  1  0
  1 16  1  0
  5 17  1  0
  8 18  1  0
  9 19  1  0
 10 20  1  0
M  ISO  5  16  14  17  14  18  14  19  14  20  14
M  END
>  <minimizedAffinity>  (1) 
-3.5757699

>  <minimizedRMSD>  (1) 
2.74564457

$$$$
