
     RDKit          3D

 19 20  0  0  0  0  0  0  0  0999 V2000
   45.3930   36.0210   43.2860 C   0  0  0  0  0  0  0  0  0  0  0  0
   46.1670   34.8470   43.1930 C   0  0  0  0  0  0  0  0  0  0  0  0
   46.1300   33.9350   44.2360 C   0  0  0  0  0  0  0  0  0  0  0  0
   45.3500   34.2160   45.3010 N   0  0  0  0  0  0  0  0  0  0  0  0
   44.6110   35.3470   45.3790 C   0  0  0  0  0  0  0  0  0  0  0  0
   44.6350   36.2350   44.3800 N   0  0  0  0  0  0  0  0  0  0  0  0
   46.9290   32.7160   44.1510 C   0  0  0  0  0  0  0  0  0  0  0  0
   47.7290   32.3380   43.0980 C   0  0  0  0  0  0  0  0  0  0  0  0
   48.2720   31.1240   43.4780 C   0  0  0  0  0  0  0  0  0  0  0  0
   47.7500   30.8670   44.7450 C   0  0  0  0  0  0  0  0  0  0  0  0
   46.9460   31.8340   45.1300 O   0  0  0  0  0  0  0  0  0  0  0  0
   46.9760   34.6250   42.0200 C   0  0  0  0  0  0  0  0  0  0  0  0
   47.8840   35.4670   41.7740 O   0  0  0  0  0  0  0  0  0  0  0  0
   45.4073   36.7588   42.4702 H   0  0  0  0  0  0  0  0  0  0  0  0
   43.9891   35.5361   46.2664 H   0  0  0  0  0  0  0  0  0  0  0  0
   47.8999   32.8828   42.1578 H   0  0  0  0  0  0  0  0  0  0  0  0
   48.9676   30.4951   42.9030 H   0  0  0  0  0  0  0  0  0  0  0  0
   47.9802   29.9733   45.3437 H   0  0  0  0  0  0  0  0  0  0  0  0
   46.8086   33.7567   41.3657 H   0  0  0  0  0  0  0  0  0  0  0  0
  1  6  2  0
  2  1  1  0
  2  3  2  0
  3  4  1  0
  4  5  2  0
  6  5  1  0
  7  3  1  0
  7 11  1  0
  8  9  1  0
  8  7  2  0
  9 10  2  0
 10 11  1  0
 12  2  1  0
 13 12  2  0
  1 14  1  0
  5 15  1  0
  8 16  1  0
  9 17  1  0
 10 18  1  0
 12 19  1  0
M  ISO  6  14  14  15  14  16  14  17  14  18  14  19   6
M  END
>  <minimizedAffinity>  (1) 
-3.7282474

>  <minimizedRMSD>  (1) 
0.348796606

$$$$
