
     RDKit          3D

 35 38  0  0  1  0  0  0  0  0999 V2000
   46.7090   35.0310   42.7040 C   0  0  0  0  0  0  0  0  0  0  0  0
   45.7970   36.0880   42.7040 C   0  0  0  0  0  0  0  0  0  0  0  0
   44.8480   36.1050   43.7080 C   0  0  0  0  0  0  0  0  0  0  0  0
   44.8470   35.1120   44.6320 N   0  0  0  0  0  0  0  0  0  0  0  0
   45.7480   34.1070   44.5970 C   0  0  0  0  0  0  0  0  0  0  0  0
   46.6800   34.0610   43.6360 N   0  0  0  0  0  0  0  0  0  0  0  0
   46.0430   31.7550   45.1860 C   0  0  0  0  0  0  0  0  0  0  0  0
   45.7410   33.0330   45.6010 C   0  0  0  0  0  0  0  0  0  0  0  0
   45.4410   33.2800   46.9350 C   0  0  0  0  0  0  0  0  0  0  0  0
   45.4580   32.2090   47.8130 C   0  0  0  0  0  0  0  0  0  0  0  0
   45.2160   32.1310   49.1390 N   0  0  0  0  0  0  0  0  0  0  0  0
   45.3500   30.8750   49.5750 C   0  0  0  0  0  0  0  0  0  0  0  0
   45.6930   30.0920   48.5070 C   0  0  0  0  0  0  0  0  0  0  0  0
   45.7610   30.9200   47.4020 C   0  0  0  0  0  0  0  0  0  0  0  0
   46.0550   30.7040   46.0770 C   0  0  0  0  0  0  0  0  0  0  0  0
   47.6810   35.0560   41.6350 C   0  0  0  0  0  0  0  0  0  0  0  0
   48.8080   35.6710   41.7050 O   0  0  0  0  0  0  0  0  0  0  0  0
   47.4110   34.3540   40.3800 C   0  0  0  0  0  0  0  0  0  0  0  0
   48.1710   34.3460   39.2580 C   0  0  0  0  0  0  0  0  0  0  0  0
   47.5760   33.5650   38.2880 C   0  0  0  0  0  0  0  0  0  0  0  0
   46.4100   33.1070   38.9100 C   0  0  0  0  0  0  0  0  0  0  0  0
   46.3630   33.5960   40.1280 O   0  0  0  0  0  0  0  0  0  0  0  0
   45.8325   36.8749   41.9362 H   0  0  0  0  0  0  0  0  0  0  0  0
   44.1032   36.9130   43.7573 H   0  0  0  0  0  0  0  0  0  0  0  0
   46.2782   31.5705   44.1274 H   0  0  0  0  0  0  0  0  0  0  0  0
   45.1975   34.2947   47.2830 H   0  0  0  0  0  0  0  0  0  0  0  0
   44.9622   32.9321   49.7346 H   0  0  0  0  0  0  0  0  0  0  0  0
   45.2093   30.5312   50.6104 H   0  0  0  0  0  0  0  0  0  0  0  0
   45.8795   29.0081   48.5242 H   0  0  0  0  0  0  0  0  0  0  0  0
   46.3003   29.6904   45.7272 H   0  0  0  0  0  0  0  0  0  0  0  0
   48.1511   34.1483   42.0412 H   0  0  0  0  0  0  0  0  0  0  0  0
   49.0526   35.8045   42.6550 H   0  0  0  0  0  0  0  0  0  0  0  0
   49.1232   34.8835   39.1379 H   0  0  0  0  0  0  0  0  0  0  0  0
   47.9333   33.3534   37.2694 H   0  0  0  0  0  0  0  0  0  0  0  0
   45.6572   32.4468   38.4546 H   0  0  0  0  0  0  0  0  0  0  0  0
  1  6  1  0
  2  1  2  0
  2  3  1  0
  3  4  2  0
  5  4  1  0
  5  8  1  0
  6  5  2  0
  7  8  2  0
  7 15  1  0
  8  9  1  0
  9 10  2  0
 10 11  1  0
 11 12  1  0
 13 12  2  0
 14 10  1  0
 14 13  1  0
 15 14  2  0
 16 17  1  0
 16  1  1  0
 18 16  1  0
 19 18  2  0
 20 21  2  0
 20 19  1  0
 21 22  1  0
 22 18  1  0
  2 23  1  0
  3 24  1  0
  7 25  1  0
  9 26  1  0
 11 27  1  0
 12 28  1  0
 13 29  1  0
 15 30  1  0
 16 31  1  0
 17 32  1  0
 19 33  1  0
 20 34  1  0
 21 35  1  0
M  ISO  8  23  14  24  14  25  14  26  14  27   9  28  14  29  14  30  14
M  ISO  5  31   8  32   3  33  14  34  14  35  14
M  END
>  <minimizedAffinity>  (1) 
-6.10202789

>  <minimizedRMSD>  (1) 
0.671083033

$$$$
