
     RDKit          3D

 44 47  0  0  0  0  0  0  0  0999 V2000
   46.1210   32.8570   45.9490 C   0  0  0  0  0  0  0  0  0  0  0  0
   45.5500   32.8730   47.2500 C   0  0  0  0  0  0  0  0  0  0  0  0
   45.7660   31.8940   48.1880 C   0  0  0  0  0  0  0  0  0  0  0  0
   46.5540   30.8410   47.9060 C   0  0  0  0  0  0  0  0  0  0  0  0
   47.1450   30.7660   46.6410 C   0  0  0  0  0  0  0  0  0  0  0  0
   47.9360   29.6830   46.3940 C   0  0  0  0  0  0  0  0  0  0  0  0
   48.5400   29.5520   45.1790 C   0  0  0  0  0  0  0  0  0  0  0  0
   48.3070   30.5540   44.2430 C   0  0  0  0  0  0  0  0  0  0  0  0
   47.5120   31.5930   44.5650 C   0  0  0  0  0  0  0  0  0  0  0  0
   46.9060   31.7590   45.7340 C   0  0  0  0  0  0  0  0  0  0  0  0
   44.5040   35.8240   44.7300 C   0  0  0  0  0  0  0  0  0  0  0  0
   45.1730   36.0690   43.4930 C   0  0  0  0  0  0  0  0  0  0  0  0
   46.2010   35.1840   43.0730 C   0  0  0  0  0  0  0  0  0  0  0  0
   46.4720   34.1600   43.8920 N   0  0  0  0  0  0  0  0  0  0  0  0
   45.8820   33.9190   45.0120 C   0  0  0  0  0  0  0  0  0  0  0  0
   44.9010   34.7660   45.4070 N   0  0  0  0  0  0  0  0  0  0  0  0
   44.7360   37.2140   42.7760 N   0  0  0  0  0  0  0  0  0  0  0  0
   47.4650   32.4000   43.4600 O   0  0  0  0  0  0  0  0  0  0  0  0
   49.0210   32.5830   41.6780 C   0  0  0  0  0  0  0  0  0  0  0  0
   47.8230   32.0480   42.1600 C   0  0  0  0  0  0  0  0  0  0  0  0
   47.1130   31.2240   41.3160 C   0  0  0  0  0  0  0  0  0  0  0  0
   47.5590   30.9340   40.0450 C   0  0  0  0  0  0  0  0  0  0  0  0
   48.7420   31.4640   39.5730 C   0  0  0  0  0  0  0  0  0  0  0  0
   49.4700   32.2960   40.4110 C   0  0  0  0  0  0  0  0  0  0  0  0
   51.2290   33.3810   42.5200 N   0  0  0  0  0  0  0  0  0  0  0  0
   49.9420   33.4580   42.4020 C   0  0  0  0  0  0  0  0  0  0  0  0
   49.6260   34.6150   43.1550 N   0  0  0  0  0  0  0  0  0  0  0  0
   51.6960   32.5910   42.0390 H   0  0  0  0  0  0  0  0  0  0  0  0
   44.8985   33.7169   47.5208 H   0  0  0  0  0  0  0  0  0  0  0  0
   45.2912   31.9713   49.1773 H   0  0  0  0  0  0  0  0  0  0  0  0
   46.7299   30.0550   48.6552 H   0  0  0  0  0  0  0  0  0  0  0  0
   48.0859   28.9191   47.1712 H   0  0  0  0  0  0  0  0  0  0  0  0
   49.1842   28.6906   44.9487 H   0  0  0  0  0  0  0  0  0  0  0  0
   48.7688   30.4985   43.2462 H   0  0  0  0  0  0  0  0  0  0  0  0
   43.7022   36.4816   45.0972 H   0  0  0  0  0  0  0  0  0  0  0  0
   46.7442   35.3314   42.1279 H   0  0  0  0  0  0  0  0  0  0  0  0
   45.1724   37.4547   41.8746 H   0  0  0  0  0  0  0  0  0  0  0  0
   43.9826   37.8039   43.1573 H   0  0  0  0  0  0  0  0  0  0  0  0
   46.1661   30.7863   41.6650 H   0  0  0  0  0  0  0  0  0  0  0  0
   46.9644   30.2717   39.3986 H   0  0  0  0  0  0  0  0  0  0  0  0
   49.0988   31.2329   38.5585 H   0  0  0  0  0  0  0  0  0  0  0  0
   50.4167   32.7307   40.0577 H   0  0  0  0  0  0  0  0  0  0  0  0
   50.3751   35.1471   43.6204 H   0  0  0  0  0  0  0  0  0  0  0  0
   48.6470   34.9245   43.2372 H   0  0  0  0  0  0  0  0  0  0  0  0
  1  2  2  0
  2  3  1  0
  4  3  2  0
  5  4  1  0
  6  5  2  0
  7  6  1  0
  8  9  1  0
  8  7  2  0
  9 10  2  0
 10  1  1  0
 10  5  1  0
 11 16  2  0
 12 11  1  0
 13 12  2  0
 13 14  1  0
 14 15  2  0
 15 16  1  0
 15  1  1  0
 17 12  1  0
 18  9  1  0
 19 20  2  0
 19 26  1  0
 20 18  1  0
 21 20  1  0
 22 21  2  0
 23 22  1  0
 23 24  2  0
 24 19  1  0
 26 25  2  0
 26 27  1  0
 28 25  1  0
  2 29  1  0
  3 30  1  0
  4 31  1  0
  6 32  1  0
  7 33  1  0
  8 34  1  0
 11 35  1  0
 13 36  1  0
 17 37  1  0
 17 38  1  0
 21 39  1  0
 22 40  1  0
 23 41  1  0
 24 42  1  0
 27 43  1  0
 27 44  1  0
M  ISO  8  29  14  30  14  31  14  32  14  33  14  34  14  35  14  36  14
M  ISO  4  39  14  40  14  41  14  42  14
M  END
>  <minimizedAffinity>  (1) 
-6.72955179

>  <minimizedRMSD>  (1) 
1.09167659

$$$$
