
     RDKit          3D

 37 39  0  0  1  0  0  0  0  0999 V2000
   46.5060   34.9750   41.9660 C   0  0  1  0  0  0  0  0  0  0  0  0
   48.0240   35.3100   41.9380 C   0  0  0  0  0  0  0  0  0  0  0  0
   47.3530   34.0150   41.3930 C   0  0  2  0  0  0  0  0  0  0  0  0
   44.6590   35.3910   45.2030 C   0  0  0  0  0  0  0  0  0  0  0  0
   45.0990   35.6820   43.8650 C   0  0  0  0  0  0  0  0  0  0  0  0
   46.0260   34.8130   43.3900 C   0  0  0  0  0  0  0  0  0  0  0  0
   46.5050   33.7460   44.1260 N   0  0  0  0  0  0  0  0  0  0  0  0
   46.0600   33.5180   45.3760 C   0  0  0  0  0  0  0  0  0  0  0  0
   45.1310   34.3450   45.9170 N   0  0  0  0  0  0  0  0  0  0  0  0
   44.6320   36.7850   43.1350 N   0  0  0  0  0  0  0  0  0  0  0  0
   47.3510   33.7660   39.9020 C   0  0  0  0  0  0  0  0  0  0  0  0
   48.7590   32.8860   38.0790 C   0  0  0  0  0  0  0  0  0  0  0  0
   48.4740   32.9510   39.4260 C   0  0  0  0  0  0  0  0  0  0  0  0
   49.2470   32.2540   40.3310 C   0  0  0  0  0  0  0  0  0  0  0  0
   50.3000   31.4950   39.8800 C   0  0  0  0  0  0  0  0  0  0  0  0
   50.6090   31.4100   38.5390 C   0  0  0  0  0  0  0  0  0  0  0  0
   49.8270   32.1110   37.6790 C   0  0  0  0  0  0  0  0  0  0  0  0
   47.7900   34.8060   36.7820 N   0  0  0  0  0  0  0  0  0  0  0  0
   48.0250   33.5680   37.0330 C   0  0  0  0  0  0  0  0  0  0  0  0
   47.3790   32.8220   36.0020 N   0  0  0  0  0  0  0  0  0  0  0  0
   47.2280   35.1060   35.9620 H   0  0  0  0  0  0  0  0  0  0  0  0
   45.5679   35.4031   41.5829 H   0  0  0  0  0  0  0  0  0  0  0  0
   48.4237   36.0726   41.2534 H   0  0  0  0  0  0  0  0  0  0  0  0
   48.8116   35.5770   42.6580 H   0  0  0  0  0  0  0  0  0  0  0  0
   47.4917   32.9390   41.5744 H   0  0  0  0  0  0  0  0  0  0  0  0
   43.9067   36.0474   45.6647 H   0  0  0  0  0  0  0  0  0  0  0  0
   46.4473   32.6665   45.9548 H   0  0  0  0  0  0  0  0  0  0  0  0
   44.9763   36.9530   42.1789 H   0  0  0  0  0  0  0  0  0  0  0  0
   43.9447   37.4270   43.5551 H   0  0  0  0  0  0  0  0  0  0  0  0
   46.4153   33.2505   39.6398 H   0  0  0  0  0  0  0  0  0  0  0  0
   47.4468   34.7490   39.4177 H   0  0  0  0  0  0  0  0  0  0  0  0
   49.0221   32.3054   41.4065 H   0  0  0  0  0  0  0  0  0  0  0  0
   50.9119   30.9412   40.6073 H   0  0  0  0  0  0  0  0  0  0  0  0
   51.4523   30.8008   38.1817 H   0  0  0  0  0  0  0  0  0  0  0  0
   50.0578   32.0579   36.6048 H   0  0  0  0  0  0  0  0  0  0  0  0
   47.4335   31.7934   35.9992 H   0  0  0  0  0  0  0  0  0  0  0  0
   46.8583   33.3122   35.2607 H   0  0  0  0  0  0  0  0  0  0  0  0
  1  6  1  0
  2  1  1  0
  3  2  1  0
  3  1  1  0
  4  9  2  0
  5  4  1  0
  6  5  2  0
  6  7  1  0
  7  8  2  0
  8  9  1  0
 10  5  1  0
 11  3  1  0
 12 13  2  0
 13 11  1  0
 13 14  1  0
 15 14  2  0
 16 15  1  0
 17 12  1  0
 17 16  2  0
 18 19  2  0
 19 12  1  0
 20 19  1  0
 21 18  1  0
  1 22  1  6
  2 23  1  0
  2 24  1  0
  3 25  1  1
  4 26  1  0
  8 27  1  0
 10 28  1  0
 10 29  1  0
 11 30  1  0
 11 31  1  0
 14 32  1  0
 15 33  1  0
 16 34  1  0
 17 35  1  0
 20 36  1  0
 20 37  1  0
M  ISO  8  22  13  23  13  24  13  25  13  26  14  27  14  30   8  31   8
M  ISO  4  32  14  33  14  34  14  35  14
M  END
>  <minimizedAffinity>  (1) 
-5.73952055

>  <minimizedRMSD>  (1) 
0.40849638

$$$$
