
     RDKit          3D

 49 52  0  0  1  0  0  0  0  0999 V2000
   41.4110   33.2960   41.2930 C   0  0  0  0  0  0  0  0  0  0  0  0
   42.4860   34.1340   41.2060 C   0  0  0  0  0  0  0  0  0  0  0  0
   42.2380   35.4870   40.9060 C   0  0  0  0  0  0  0  0  0  0  0  0
   40.9820   36.0030   40.6980 C   0  0  0  0  0  0  0  0  0  0  0  0
   39.9120   35.1550   40.7880 C   0  0  0  0  0  0  0  0  0  0  0  0
   40.1410   33.8430   41.0770 C   0  0  0  0  0  0  0  0  0  0  0  0
   41.5510   31.6790   41.7430 S   0  0  0  0  0  0  0  0  0  0  0  0
   40.2990   31.5360   42.6670 O   0  0  0  0  0  0  0  0  0  0  0  0
   42.7370   31.4110   42.5860 O   0  0  0  0  0  0  0  0  0  0  0  0
   40.6330   29.2280   41.8300 C   0  0  0  0  0  0  0  0  0  0  0  0
   41.0350   30.2800   40.9600 C   0  0  0  0  0  0  0  0  0  0  0  0
   40.8400   29.9370   39.6100 C   0  0  0  0  0  0  0  0  0  0  0  0
   40.3460   28.7940   39.0210 C   0  0  0  0  0  0  0  0  0  0  0  0
   40.0110   27.8950   39.9860 C   0  0  0  0  0  0  0  0  0  0  0  0
   40.1270   28.0510   41.3230 C   0  0  0  0  0  0  0  0  0  0  0  0
   39.6590   28.8970   44.0400 N   0  0  0  0  0  0  0  0  0  0  0  0
   40.7000   29.1230   43.3080 C   0  0  0  0  0  0  0  0  0  0  0  0
   41.8360   29.2080   44.1540 N   0  0  0  0  0  0  0  0  0  0  0  0
   39.8530   28.8260   45.0630 H   0  0  0  0  0  0  0  0  0  0  0  0
   43.8520   33.6910   41.4070 C   0  0  0  0  0  0  0  0  0  0  0  0
   44.5330   33.0520   40.5440 O   0  0  0  0  0  0  0  0  0  0  0  0
   44.3810   34.0460   42.6960 C   0  0  0  0  0  0  0  0  0  0  0  0
   44.2610   35.4310   43.0600 C   0  0  0  0  0  0  0  0  0  0  0  0
   44.7550   35.7950   44.3020 C   0  0  0  0  0  0  0  0  0  0  0  0
   45.3150   34.8340   45.0870 N   0  0  0  0  0  0  0  0  0  0  0  0
   45.4050   33.5240   44.6900 C   0  0  0  0  0  0  0  0  0  0  0  0
   44.9470   33.1830   43.5360 N   0  0  0  0  0  0  0  0  0  0  0  0
   46.0220   32.5500   45.6140 C   0  0  1  0  0  0  0  0  0  0  0  0
   46.9330   33.0470   46.7100 C   0  0  0  0  0  0  0  0  0  0  0  0
   45.5170   32.6190   47.0120 C   0  0  1  0  0  0  0  0  0  0  0  0
   44.6700   33.7120   47.4290 N   0  0  0  0  0  0  0  0  0  0  0  0
   43.0980   36.1690   40.8341 H   0  0  0  0  0  0  0  0  0  0  0  0
   40.8404   37.0688   40.4655 H   0  0  0  0  0  0  0  0  0  0  0  0
   38.8880   35.5246   40.6303 H   0  0  0  0  0  0  0  0  0  0  0  0
   39.2725   33.1713   41.1448 H   0  0  0  0  0  0  0  0  0  0  0  0
   41.1345   30.7215   38.8974 H   0  0  0  0  0  0  0  0  0  0  0  0
   40.2389   28.6329   37.9381 H   0  0  0  0  0  0  0  0  0  0  0  0
   39.6004   26.9352   39.6392 H   0  0  0  0  0  0  0  0  0  0  0  0
   39.8192   27.2429   42.0029 H   0  0  0  0  0  0  0  0  0  0  0  0
   41.7267   29.1150   45.1739 H   0  0  0  0  0  0  0  0  0  0  0  0
   42.7699   29.3627   43.7482 H   0  0  0  0  0  0  0  0  0  0  0  0
   43.7992   36.1666   42.3850 H   0  0  0  0  0  0  0  0  0  0  0  0
   44.6960   36.8380   44.6465 H   0  0  0  0  0  0  0  0  0  0  0  0
   46.1364   31.7784   44.8384 H   0  0  0  0  0  0  0  0  0  0  0  0
   47.7801   32.4310   47.0462 H   0  0  0  0  0  0  0  0  0  0  0  0
   47.5302   33.9549   46.8807 H   0  0  0  0  0  0  0  0  0  0  0  0
   45.0034   31.8800   47.6446 H   0  0  0  0  0  0  0  0  0  0  0  0
   44.6404   33.7502   48.4579 H   0  0  0  0  0  0  0  0  0  0  0  0
   45.0475   34.5978   47.0633 H   0  0  0  0  0  0  0  0  0  0  0  0
  1  7  1  0
  2  1  1  0
  2 20  1  0
  3  2  2  0
  4  5  2  0
  4  3  1  0
  5  6  1  0
  6  1  2  0
  7  9  2  0
  7  8  2  0
 10 17  1  0
 11  7  1  0
 11 10  2  0
 12 11  1  0
 13 12  2  0
 13 14  1  0
 14 15  2  0
 15 10  1  0
 16 19  1  0
 17 16  2  0
 17 18  1  0
 20 22  1  0
 21 20  2  0
 22 23  2  0
 22 27  1  0
 23 24  1  0
 24 25  2  0
 26 25  1  0
 26 28  1  0
 27 26  2  0
 28 29  1  0
 28 30  1  0
 29 30  1  0
 30 31  1  0
  3 32  1  0
  4 33  1  0
  5 34  1  0
  6 35  1  0
 12 36  1  0
 13 37  1  0
 14 38  1  0
 15 39  1  0
 18 40  1  0
 18 41  1  0
 23 42  1  0
 24 43  1  0
 28 44  1  6
 29 45  1  0
 29 46  1  0
 30 47  1  1
 31 48  1  0
 31 49  1  0
M  ISO  8  32  14  33  14  34  14  35  14  36  14  37  14  38  14  39  14
M  ISO  8  42  14  43  14  44  13  45  13  46  13  47  13  48   5  49   5
M  END
>  <minimizedAffinity>  (1) 
-6.36508369

>  <minimizedRMSD>  (1) 
3.62769628

$$$$
