
     RDKit          3D

 50 54  0  0  1  0  0  0  0  0999 V2000
   46.5920   32.4140   43.5870 C   0  0  0  0  0  0  0  0  0  0  0  0
   46.6080   31.7030   44.7850 C   0  0  0  0  0  0  0  0  0  0  0  0
   46.1160   32.2160   45.9800 C   0  0  0  0  0  0  0  0  0  0  0  0
   45.5790   33.4870   46.0170 C   0  0  0  0  0  0  0  0  0  0  0  0
   45.5470   34.2070   44.8660 C   0  0  0  0  0  0  0  0  0  0  0  0
   45.0100   35.4770   44.8910 C   0  0  0  0  0  0  0  0  0  0  0  0
   44.9420   36.2660   43.7500 C   0  0  0  0  0  0  0  0  0  0  0  0
   45.4430   35.7160   42.5740 C   0  0  0  0  0  0  0  0  0  0  0  0
   45.9780   34.4330   42.5830 C   0  0  0  0  0  0  0  0  0  0  0  0
   46.0460   33.6610   43.7020 C   0  0  0  0  0  0  0  0  0  0  0  0
   47.7190   34.4990   40.9780 C   0  0  0  0  0  0  0  0  0  0  0  0
   46.3820   34.1420   41.2200 C   0  0  0  0  0  0  0  0  0  0  0  0
   45.7350   33.5530   40.1520 C   0  0  0  0  0  0  0  0  0  0  0  0
   46.3320   33.3250   38.9400 C   0  0  0  0  0  0  0  0  0  0  0  0
   47.6430   33.6790   38.7130 C   0  0  0  0  0  0  0  0  0  0  0  0
   48.3170   34.2670   39.7540 C   0  0  0  0  0  0  0  0  0  0  0  0
   49.0450   34.5620   42.9990 N   0  0  0  0  0  0  0  0  0  0  0  0
   48.5830   35.1250   41.9410 C   0  0  0  0  0  0  0  0  0  0  0  0
   49.0310   36.4680   41.8240 N   0  0  0  0  0  0  0  0  0  0  0  0
   49.6640   35.0420   43.6720 H   0  0  0  0  0  0  0  0  0  0  0  0
   47.1190   31.8160   42.4340 N   0  0  0  0  0  0  0  0  0  0  0  0
   49.5700   31.1290   42.4720 C   0  0  1  0  0  0  0  0  0  0  0  0
   48.9400   30.5350   41.2310 C   0  0  0  0  0  0  0  0  0  0  0  0
   48.1500   30.8190   42.5030 C   0  0  2  0  0  0  0  0  0  0  0  0
   50.9400   28.8010   45.0290 C   0  0  0  0  0  0  0  0  0  0  0  0
   52.3320   28.8110   44.6840 C   0  0  0  0  0  0  0  0  0  0  0  0
   52.7530   29.6030   43.5820 C   0  0  0  0  0  0  0  0  0  0  0  0
   51.8370   30.3050   42.9140 N   0  0  0  0  0  0  0  0  0  0  0  0
   50.5250   30.2810   43.2590 C   0  0  0  0  0  0  0  0  0  0  0  0
   50.0740   29.5280   44.3170 N   0  0  0  0  0  0  0  0  0  0  0  0
   47.0301   30.6872   44.7855 H   0  0  0  0  0  0  0  0  0  0  0  0
   46.1547   31.6087   46.8963 H   0  0  0  0  0  0  0  0  0  0  0  0
   45.1868   33.9062   46.9553 H   0  0  0  0  0  0  0  0  0  0  0  0
   44.6249   35.8762   45.8409 H   0  0  0  0  0  0  0  0  0  0  0  0
   44.5122   37.2783   43.7748 H   0  0  0  0  0  0  0  0  0  0  0  0
   45.4157   36.2953   41.6393 H   0  0  0  0  0  0  0  0  0  0  0  0
   44.6852   33.2509   40.2809 H   0  0  0  0  0  0  0  0  0  0  0  0
   45.7534   32.8505   38.1337 H   0  0  0  0  0  0  0  0  0  0  0  0
   48.1278   33.4989   37.7422 H   0  0  0  0  0  0  0  0  0  0  0  0
   49.3665   34.5630   39.6094 H   0  0  0  0  0  0  0  0  0  0  0  0
   49.6501   36.8689   42.5430 H   0  0  0  0  0  0  0  0  0  0  0  0
   48.7367   37.0409   41.0202 H   0  0  0  0  0  0  0  0  0  0  0  0
   46.7569   32.0994   41.5123 H   0  0  0  0  0  0  0  0  0  0  0  0
   50.1557   32.0356   42.6843 H   0  0  0  0  0  0  0  0  0  0  0  0
   48.7901   31.1512   40.3322 H   0  0  0  0  0  0  0  0  0  0  0  0
   49.1228   29.6611   40.5884 H   0  0  0  0  0  0  0  0  0  0  0  0
   47.5365   30.2496   43.2167 H   0  0  0  0  0  0  0  0  0  0  0  0
   50.5863   28.1966   45.8773 H   0  0  0  0  0  0  0  0  0  0  0  0
   53.0580   28.2184   45.2600 H   0  0  0  0  0  0  0  0  0  0  0  0
   53.8120   29.6363   43.2862 H   0  0  0  0  0  0  0  0  0  0  0  0
  1 10  1  0
  1  2  2  0
  2  3  1  0
  3  4  2  0
  5  6  2  0
  5  4  1  0
  7  6  1  0
  8  9  1  0
  8  7  2  0
  9 10  2  0
 10  5  1  0
 11 12  2  0
 11 18  1  0
 12  9  1  0
 13 12  1  0
 14 13  2  0
 15 14  1  0
 15 16  2  0
 16 11  1  0
 17 20  1  0
 18 17  2  0
 19 18  1  0
 21 24  1  0
 21  1  1  0
 22 24  1  0
 22 29  1  0
 23 22  1  0
 23 24  1  0
 26 25  2  0
 27 26  1  0
 28 29  1  0
 28 27  2  0
 29 30  2  0
 30 25  1  0
  2 31  1  0
  3 32  1  0
  4 33  1  0
  6 34  1  0
  7 35  1  0
  8 36  1  0
 13 37  1  0
 14 38  1  0
 15 39  1  0
 16 40  1  0
 19 41  1  0
 19 42  1  0
 21 43  1  0
 22 44  1  6
 23 45  1  0
 23 46  1  0
 24 47  1  1
 25 48  1  0
 26 49  1  0
 27 50  1  0
M  ISO  8  31  14  32  14  33  14  34  14  35  14  36  14  37  14  38  14
M  ISO  8  39  14  40  14  44  13  45  13  46  13  47  13  48  14  49  14
M  ISO  1  50  14
M  END
>  <minimizedAffinity>  (1) 
-5.86016464

>  <minimizedRMSD>  (1) 
2.11933064

$$$$
