
     RDKit          3D

 48 51  0  0  0  0  0  0  0  0999 V2000
   48.3860   33.1720   41.3390 C   0  0  0  0  0  0  0  0  0  0  0  0
   48.0140   34.3870   41.8330 C   0  0  0  0  0  0  0  0  0  0  0  0
   48.9390   35.1620   42.4710 C   0  0  0  0  0  0  0  0  0  0  0  0
   50.2450   34.7050   42.6090 C   0  0  0  0  0  0  0  0  0  0  0  0
   50.5980   33.4820   42.1050 C   0  0  0  0  0  0  0  0  0  0  0  0
   49.6500   32.6780   41.4470 C   0  0  0  0  0  0  0  0  0  0  0  0
   46.6150   34.7740   41.6330 C   0  0  0  0  0  0  0  0  0  0  0  0
   45.9210   34.9660   42.9590 C   0  0  0  0  0  0  0  0  0  0  0  0
   46.0010   33.9250   43.8820 C   0  0  0  0  0  0  0  0  0  0  0  0
   45.3730   34.0900   45.1010 C   0  0  0  0  0  0  0  0  0  0  0  0
   44.7170   35.2530   45.3260 N   0  0  0  0  0  0  0  0  0  0  0  0
   44.6560   36.2510   44.4070 C   0  0  0  0  0  0  0  0  0  0  0  0
   45.2600   36.1020   43.2240 N   0  0  0  0  0  0  0  0  0  0  0  0
   47.5260   32.2900   40.6680 O   0  0  0  0  0  0  0  0  0  0  0  0
   50.1150   31.4460   40.9700 O   0  0  0  0  0  0  0  0  0  0  0  0
   50.5970   31.4660   39.6650 C   0  0  0  0  0  0  0  0  0  0  0  0
   51.9500   31.4860   39.4460 C   0  0  0  0  0  0  0  0  0  0  0  0
   52.4750   31.5060   38.1560 C   0  0  0  0  0  0  0  0  0  0  0  0
   51.6520   31.5040   37.1170 N   0  0  0  0  0  0  0  0  0  0  0  0
   50.3330   31.4840   37.3100 C   0  0  0  0  0  0  0  0  0  0  0  0
   49.8390   31.4660   38.5700 N   0  0  0  0  0  0  0  0  0  0  0  0
   48.3680   32.5370   36.4140 C   0  0  0  0  0  0  0  0  0  0  0  0
   49.2420   31.4770   36.3280 C   0  0  0  0  0  0  0  0  0  0  0  0
   49.0350   30.5130   35.3580 C   0  0  0  0  0  0  0  0  0  0  0  0
   47.9570   30.6580   34.5180 C   0  0  0  0  0  0  0  0  0  0  0  0
   47.0500   31.6880   34.5520 C   0  0  0  0  0  0  0  0  0  0  0  0
   47.2820   32.6390   35.5330 C   0  0  0  0  0  0  0  0  0  0  0  0
   47.3480   33.9370   38.1060 N   0  0  0  0  0  0  0  0  0  0  0  0
   48.3640   33.6780   37.3100 C   0  0  0  0  0  0  0  0  0  0  0  0
   49.1150   34.8010   37.7270 N   0  0  0  0  0  0  0  0  0  0  0  0
   47.4350   34.7870   38.7060 H   0  0  0  0  0  0  0  0  0  0  0  0
   48.6523   36.1444   42.8744 H   0  0  0  0  0  0  0  0  0  0  0  0
   50.9939   35.3256   43.1227 H   0  0  0  0  0  0  0  0  0  0  0  0
   51.6325   33.1249   42.2157 H   0  0  0  0  0  0  0  0  0  0  0  0
   46.5782   35.7160   41.0662 H   0  0  0  0  0  0  0  0  0  0  0  0
   46.1025   33.9748   41.0776 H   0  0  0  0  0  0  0  0  0  0  0  0
   46.5477   32.9999   43.6468 H   0  0  0  0  0  0  0  0  0  0  0  0
   45.4048   33.3003   45.8661 H   0  0  0  0  0  0  0  0  0  0  0  0
   44.1113   37.1790   44.6355 H   0  0  0  0  0  0  0  0  0  0  0  0
   46.5776   32.5357   40.5257 H   0  0  0  0  0  0  0  0  0  0  0  0
   52.6351   31.4863   40.3066 H   0  0  0  0  0  0  0  0  0  0  0  0
   53.5639   31.5233   38.0008 H   0  0  0  0  0  0  0  0  0  0  0  0
   49.7148   29.6536   35.2615 H   0  0  0  0  0  0  0  0  0  0  0  0
   47.8081   29.8821   33.7526 H   0  0  0  0  0  0  0  0  0  0  0  0
   46.2030   31.7535   33.8533 H   0  0  0  0  0  0  0  0  0  0  0  0
   46.5972   33.4951   35.6227 H   0  0  0  0  0  0  0  0  0  0  0  0
   48.7407   35.4309   38.4508 H   0  0  0  0  0  0  0  0  0  0  0  0
   50.0364   34.9892   37.3070 H   0  0  0  0  0  0  0  0  0  0  0  0
  1  6  2  0
  1  2  1  0
  2  3  2  0
  3  4  1  0
  5  4  2  0
  6  5  1  0
  7  2  1  0
  7  8  1  0
  8 13  1  0
  8  9  2  0
  9 10  1  0
 10 11  2  0
 12 11  1  0
 13 12  2  0
 14  1  1  0
 15  6  1  0
 16 15  1  0
 17 16  2  0
 18 17  1  0
 19 20  1  0
 19 18  2  0
 20 21  2  0
 21 16  1  0
 22 29  1  0
 23 22  2  0
 23 20  1  0
 24 23  1  0
 25 26  1  0
 25 24  2  0
 26 27  2  0
 27 22  1  0
 28 31  1  0
 29 30  1  0
 29 28  2  0
  3 32  1  0
  4 33  1  0
  5 34  1  0
  7 35  1  0
  7 36  1  0
  9 37  1  0
 10 38  1  0
 12 39  1  0
 14 40  1  0
 17 41  1  0
 18 42  1  0
 24 43  1  0
 25 44  1  0
 26 45  1  0
 27 46  1  0
 30 47  1  0
 30 48  1  0
M  ISO  8  32  14  33  14  34  14  35   8  36   8  37  14  38  14  39  14
M  ISO  7  40   3  41  14  42  14  43  14  44  14  45  14  46  14
M  END
>  <minimizedAffinity>  (1) 
-6.66827154

>  <minimizedRMSD>  (1) 
1.284971

$$$$
