
     RDKit          3D

 43 46  0  0  0  0  0  0  0  0999 V2000
   43.8670   34.6620   40.8920 C   0  0  0  0  0  0  0  0  0  0  0  0
   43.8150   33.6050   40.0140 C   0  0  0  0  0  0  0  0  0  0  0  0
   45.0050   32.9570   39.6940 C   0  0  0  0  0  0  0  0  0  0  0  0
   46.1440   33.4050   40.2680 N   0  0  0  0  0  0  0  0  0  0  0  0
   46.1660   34.4470   41.1280 C   0  0  0  0  0  0  0  0  0  0  0  0
   45.0270   35.0530   41.4210 N   0  0  0  0  0  0  0  0  0  0  0  0
   45.4590   31.8180   37.5210 C   0  0  0  0  0  0  0  0  0  0  0  0
   45.1750   31.8050   38.8400 C   0  0  0  0  0  0  0  0  0  0  0  0
   45.0600   30.5370   39.3700 C   0  0  0  0  0  0  0  0  0  0  0  0
   45.2090   29.3700   38.6580 C   0  0  0  0  0  0  0  0  0  0  0  0
   45.4950   29.4250   37.3130 C   0  0  0  0  0  0  0  0  0  0  0  0
   45.6220   30.6870   36.7320 C   0  0  0  0  0  0  0  0  0  0  0  0
   46.5500   34.0090   36.9620 N   0  0  0  0  0  0  0  0  0  0  0  0
   45.7440   33.0130   36.7550 C   0  0  0  0  0  0  0  0  0  0  0  0
   45.1450   33.3590   35.5180 N   0  0  0  0  0  0  0  0  0  0  0  0
   46.5840   34.7650   36.2590 H   0  0  0  0  0  0  0  0  0  0  0  0
   42.2900   35.4560   41.2590 S   0  0  0  0  0  0  0  0  0  0  0  0
   39.9170   34.8260   40.1780 C   0  0  0  0  0  0  0  0  0  0  0  0
   40.9340   34.3430   40.9820 C   0  0  0  0  0  0  0  0  0  0  0  0
   40.8680   33.0760   41.5170 C   0  0  0  0  0  0  0  0  0  0  0  0
   39.7970   32.2380   41.2790 C   0  0  0  0  0  0  0  0  0  0  0  0
   38.7610   32.7320   40.4610 C   0  0  0  0  0  0  0  0  0  0  0  0
   38.8040   34.0070   39.9090 C   0  0  0  0  0  0  0  0  0  0  0  0
   37.7910   31.7140   40.3610 O   0  0  0  0  0  0  0  0  0  0  0  0
   38.0940   30.7730   41.3670 C   0  0  0  0  0  0  0  0  0  0  0  0
   39.4610   30.9430   41.6710 O   0  0  0  0  0  0  0  0  0  0  0  0
   47.3000   34.9330   41.7330 O   0  0  0  0  0  0  0  0  0  0  0  0
   48.4960   35.0110   41.0190 C   0  0  0  0  0  0  0  0  0  0  0  0
   49.3320   33.9660   41.2540 F   0  0  0  0  0  0  0  0  0  0  0  0
   48.1060   35.1260   39.6700 F   0  0  0  0  0  0  0  0  0  0  0  0
   49.1410   36.1770   41.4310 F   0  0  0  0  0  0  0  0  0  0  0  0
   42.8594   33.2803   39.5765 H   0  0  0  0  0  0  0  0  0  0  0  0
   44.8320   30.4528   40.4428 H   0  0  0  0  0  0  0  0  0  0  0  0
   45.1002   28.3977   39.1609 H   0  0  0  0  0  0  0  0  0  0  0  0
   45.6189   28.5080   36.7182 H   0  0  0  0  0  0  0  0  0  0  0  0
   45.8489   30.7851   35.6601 H   0  0  0  0  0  0  0  0  0  0  0  0
   44.4429   32.7361   35.0937 H   0  0  0  0  0  0  0  0  0  0  0  0
   45.4117   34.2333   35.0433 H   0  0  0  0  0  0  0  0  0  0  0  0
   39.9774   35.8390   39.7535 H   0  0  0  0  0  0  0  0  0  0  0  0
   41.6927   32.7212   42.1526 H   0  0  0  0  0  0  0  0  0  0  0  0
   37.9829   34.3696   39.2732 H   0  0  0  0  0  0  0  0  0  0  0  0
   37.4794   30.9593   42.2601 H   0  0  0  0  0  0  0  0  0  0  0  0
   37.8844   29.7470   41.0302 H   0  0  0  0  0  0  0  0  0  0  0  0
  1 17  1  0
  1  6  1  0
  2  1  2  0
  3  2  1  0
  3  4  2  0
  4  5  1  0
  5  6  2  0
  5 27  1  0
  7  8  2  0
  8  9  1  0
  8  3  1  0
 10  9  2  0
 11 10  1  0
 12 11  2  0
 12  7  1  0
 14 13  2  0
 14  7  1  0
 15 14  1  0
 16 13  1  0
 18 19  2  0
 19 17  1  0
 19 20  1  0
 21 20  2  0
 21 26  1  0
 22 21  1  0
 23 18  1  0
 23 22  2  0
 24 22  1  0
 24 25  1  0
 25 26  1  0
 28 29  1  0
 28 31  1  0
 28 27  1  0
 30 28  1  0
  2 32  1  0
  9 33  1  0
 10 34  1  0
 11 35  1  0
 12 36  1  0
 15 37  1  0
 15 38  1  0
 18 39  1  0
 20 40  1  0
 23 41  1  0
 25 42  1  0
 25 43  1  0
M  ISO  8  32  14  33  14  34  14  35  14  36  14  39  14  40  14  41  14
M  ISO  2  42  13  43  13
M  END
>  <minimizedAffinity>  (1) 
-6.63916492

>  <minimizedRMSD>  (1) 
0.361851633

$$$$
