
     RDKit          3D

 39 41  0  0  1  0  0  0  0  0999 V2000
   44.5910   35.6960   44.8660 C   0  0  0  0  0  0  0  0  0  0  0  0
   44.6770   35.3260   43.5040 C   0  0  0  0  0  0  0  0  0  0  0  0
   45.1080   34.0400   43.1730 C   0  0  0  0  0  0  0  0  0  0  0  0
   45.4220   33.2190   44.2050 N   0  0  0  0  0  0  0  0  0  0  0  0
   45.3290   33.6040   45.4940 C   0  0  0  0  0  0  0  0  0  0  0  0
   44.9210   34.8250   45.8400 N   0  0  0  0  0  0  0  0  0  0  0  0
   45.7040   32.6350   46.4660 N   0  0  0  0  0  0  0  0  0  0  0  0
   45.3830   32.7690   47.8990 C   0  0  0  0  0  0  0  0  0  0  0  0
   46.5650   32.1200   48.5350 C   0  0  0  0  0  0  0  0  0  0  0  0
   47.4450   31.5580   47.4120 C   0  0  0  0  0  0  0  0  0  0  0  0
   46.4100   31.4080   46.3620 C   0  0  2  0  0  0  0  0  0  0  0  0
   46.0060   29.9750   44.3360 C   0  0  0  0  0  0  0  0  0  0  0  0
   46.7630   30.8280   45.1100 C   0  0  0  0  0  0  0  0  0  0  0  0
   48.0070   31.0630   44.5000 C   0  0  0  0  0  0  0  0  0  0  0  0
   48.4150   30.5280   43.3110 C   0  0  0  0  0  0  0  0  0  0  0  0
   47.5980   29.6840   42.5980 C   0  0  0  0  0  0  0  0  0  0  0  0
   46.3790   29.4090   43.1250 C   0  0  0  0  0  0  0  0  0  0  0  0
   43.8750   29.0520   45.5880 N   0  0  0  0  0  0  0  0  0  0  0  0
   44.6750   29.5780   44.7340 C   0  0  0  0  0  0  0  0  0  0  0  0
   43.5380   29.7890   43.9010 N   0  0  0  0  0  0  0  0  0  0  0  0
   42.8600   29.0290   45.2990 H   0  0  0  0  0  0  0  0  0  0  0  0
   44.3020   36.3340   42.5540 N   0  0  0  0  0  0  0  0  0  0  0  0
   44.2506   36.7071   45.1338 H   0  0  0  0  0  0  0  0  0  0  0  0
   45.1888   33.7094   42.1270 H   0  0  0  0  0  0  0  0  0  0  0  0
   45.2984   33.8253   48.1940 H   0  0  0  0  0  0  0  0  0  0  0  0
   44.4198   32.3211   48.1848 H   0  0  0  0  0  0  0  0  0  0  0  0
   47.1303   32.8607   49.1196 H   0  0  0  0  0  0  0  0  0  0  0  0
   46.2455   31.3162   49.2146 H   0  0  0  0  0  0  0  0  0  0  0  0
   48.2353   32.2631   47.1148 H   0  0  0  0  0  0  0  0  0  0  0  0
   48.0038   30.6437   47.6605 H   0  0  0  0  0  0  0  0  0  0  0  0
   45.7271   30.5584   46.5100 H   0  0  0  0  0  0  0  0  0  0  0  0
   48.7082   31.7311   45.0215 H   0  0  0  0  0  0  0  0  0  0  0  0
   49.4122   30.7765   42.9187 H   0  0  0  0  0  0  0  0  0  0  0  0
   47.9193   29.2496   41.6398 H   0  0  0  0  0  0  0  0  0  0  0  0
   45.6873   28.7387   42.5937 H   0  0  0  0  0  0  0  0  0  0  0  0
   42.6044   29.4923   44.2191 H   0  0  0  0  0  0  0  0  0  0  0  0
   43.6499   30.2382   42.9809 H   0  0  0  0  0  0  0  0  0  0  0  0
   44.3413   36.1308   41.5450 H   0  0  0  0  0  0  0  0  0  0  0  0
   43.9935   37.2607   42.8811 H   0  0  0  0  0  0  0  0  0  0  0  0
  1  6  2  0
  2  1  1  0
  3  2  2  0
  3  4  1  0
  4  5  2  0
  5  6  1  0
  5  7  1  0
  7  8  1  0
  8  9  1  0
 10  9  1  0
 11  7  1  0
 11 10  1  0
 12 19  1  0
 12 13  2  0
 13 11  1  0
 14 13  1  0
 15 14  2  0
 16 17  2  0
 16 15  1  0
 17 12  1  0
 19 18  2  0
 20 19  1  0
 21 18  1  0
 22  2  1  0
  1 23  1  0
  3 24  1  0
  8 25  1  0
  8 26  1  0
  9 27  1  0
  9 28  1  0
 10 29  1  0
 10 30  1  0
 11 31  1  1
 14 32  1  0
 15 33  1  0
 16 34  1  0
 17 35  1  0
 20 36  1  0
 20 37  1  0
 22 38  1  0
 22 39  1  0
M  ISO  8  23  14  24  14  25  13  26  13  27  13  28  13  29  13  30  13
M  ISO  5  31  13  32  14  33  14  34  14  35  14
M  END
>  <minimizedAffinity>  (1) 
-4.98545742

>  <minimizedRMSD>  (1) 
1.62925875

$$$$
