
     RDKit          3D

 51 55  0  0  0  0  0  0  0  0999 V2000
   44.3500   25.5840   48.1710 C   0  0  0  0  0  0  0  0  0  0  0  0
   45.0860   23.4660   46.2320 Cl  0  0  0  0  0  0  0  0  0  0  0  0
   43.5270   24.2820   46.2840 C   0  0  0  0  0  0  0  0  0  0  0  0
   43.2520   25.2670   47.2210 C   0  0  0  0  0  0  0  0  0  0  0  0
   42.0310   25.9070   47.2630 C   0  0  0  0  0  0  0  0  0  0  0  0
   41.0420   25.5510   46.3300 C   0  0  0  0  0  0  0  0  0  0  0  0
   41.3280   24.5680   45.3990 C   0  0  0  0  0  0  0  0  0  0  0  0
   42.5740   23.9190   45.3620 C   0  0  0  0  0  0  0  0  0  0  0  0
   42.8090   22.9160   44.3800 N   0  0  0  0  0  0  0  0  0  0  0  0
   43.3850   22.9090   43.1750 C   0  0  0  0  0  0  0  0  0  0  0  0
   43.3290   21.6610   42.6800 N   0  0  0  0  0  0  0  0  0  0  0  0
   42.7140   20.8780   43.5830 C   0  0  0  0  0  0  0  0  0  0  0  0
   42.4190   19.5140   43.5300 C   0  0  0  0  0  0  0  0  0  0  0  0
   41.7850   18.9100   44.5600 N   0  0  0  0  0  0  0  0  0  0  0  0
   41.4780   19.7190   45.5950 C   0  0  0  0  0  0  0  0  0  0  0  0
   41.7330   21.0340   45.7070 N   0  0  0  0  0  0  0  0  0  0  0  0
   42.3720   21.6570   44.6770 C   0  0  0  0  0  0  0  0  0  0  0  0
   45.2890   27.8390   47.5830 C   0  0  0  0  0  0  0  0  0  0  0  0
   44.5330   27.0650   48.3130 C   0  0  0  0  0  0  0  0  0  0  0  0
   45.6470   31.4580   47.0430 C   0  0  0  0  0  0  0  0  0  0  0  0
   45.4840   31.9000   48.3630 C   0  0  0  0  0  0  0  0  0  0  0  0
   45.2610   31.0520   49.4250 C   0  0  0  0  0  0  0  0  0  0  0  0
   45.1980   29.7070   49.1570 C   0  0  0  0  0  0  0  0  0  0  0  0
   45.3580   29.2620   47.8490 C   0  0  0  0  0  0  0  0  0  0  0  0
   45.5710   30.1340   46.8660 N   0  0  0  0  0  0  0  0  0  0  0  0
   44.7780   36.5360   43.8980 C   0  0  0  0  0  0  0  0  0  0  0  0
   45.6700   36.2660   42.8550 C   0  0  0  0  0  0  0  0  0  0  0  0
   46.3210   35.0340   42.8620 C   0  0  0  0  0  0  0  0  0  0  0  0
   46.0830   34.1330   43.8610 N   0  0  0  0  0  0  0  0  0  0  0  0
   45.2020   34.4510   44.8540 C   0  0  0  0  0  0  0  0  0  0  0  0
   44.5600   35.6480   44.8620 N   0  0  0  0  0  0  0  0  0  0  0  0
   45.8770   32.4320   45.9850 C   0  0  0  0  0  0  0  0  0  0  0  0
   46.8720   32.2550   45.2270 O   0  0  0  0  0  0  0  0  0  0  0  0
   44.9540   33.5100   45.8970 N   0  0  0  0  0  0  0  0  0  0  0  0
   45.2855   25.1409   47.7989 H   0  0  0  0  0  0  0  0  0  0  0  0
   44.0892   25.1692   49.1558 H   0  0  0  0  0  0  0  0  0  0  0  0
   41.8341   26.6846   48.0157 H   0  0  0  0  0  0  0  0  0  0  0  0
   40.0590   26.0446   46.3397 H   0  0  0  0  0  0  0  0  0  0  0  0
   40.5574   24.2863   44.6663 H   0  0  0  0  0  0  0  0  0  0  0  0
   43.8308   23.7796   42.6717 H   0  0  0  0  0  0  0  0  0  0  0  0
   42.7044   18.9273   42.6444 H   0  0  0  0  0  0  0  0  0  0  0  0
   40.9600   19.2490   46.4440 H   0  0  0  0  0  0  0  0  0  0  0  0
   45.8780   27.4082   46.7599 H   0  0  0  0  0  0  0  0  0  0  0  0
   43.9682   27.5530   49.1210 H   0  0  0  0  0  0  0  0  0  0  0  0
   45.5370   32.9807   48.5611 H   0  0  0  0  0  0  0  0  0  0  0  0
   45.1382   31.4373   50.4480 H   0  0  0  0  0  0  0  0  0  0  0  0
   45.0224   28.9872   49.9701 H   0  0  0  0  0  0  0  0  0  0  0  0
   44.2481   37.4997   43.9205 H   0  0  0  0  0  0  0  0  0  0  0  0
   45.8513   37.0008   42.0568 H   0  0  0  0  0  0  0  0  0  0  0  0
   47.0304   34.7856   42.0588 H   0  0  0  0  0  0  0  0  0  0  0  0
   44.1583   33.6052   46.5441 H   0  0  0  0  0  0  0  0  0  0  0  0
  1 19  1  0
  2  3  1  0
  3  4  2  0
  4  5  1  0
  4  1  1  0
  6  5  2  0
  7  6  1  0
  8  7  2  0
  8  3  1  0
  9 17  1  0
  9  8  1  0
 10  9  1  0
 11 10  2  0
 11 12  1  0
 12 17  2  0
 13 12  1  0
 13 14  2  0
 14 15  1  0
 15 16  2  0
 17 16  1  0
 18 24  1  0
 18 19  2  0
 20 21  2  0
 21 22  1  0
 23 22  2  0
 24 23  1  0
 25 20  1  0
 25 24  2  0
 26 31  2  0
 27 28  2  0
 27 26  1  0
 28 29  1  0
 29 30  2  0
 30 31  1  0
 30 34  1  0
 32 20  1  0
 33 32  2  0
 34 32  1  0
  1 35  1  0
  1 36  1  0
  5 37  1  0
  6 38  1  0
  7 39  1  0
 10 40  1  0
 13 41  1  0
 15 42  1  0
 18 43  1  0
 19 44  1  0
 21 45  1  0
 22 46  1  0
 23 47  1  0
 26 48  1  0
 27 49  1  0
 28 50  1  0
 34 51  1  0
M  ISO  8  35   8  36   8  37  14  38  14  39  14  40  14  41  14  42  14
M  ISO  6  45  14  46  14  47  14  48  14  49  14  50  14
M  END
>  <minimizedAffinity>  (1) 
-6.26691055

>  <minimizedRMSD>  (1) 
0.604740143

$$$$
