
     RDKit          3D

 41 46  0  0  0  0  0  0  0  0999 V2000
   47.2950   31.3220   45.2040 C   0  0  0  0  0  0  0  0  0  0  0  0
   46.9030   32.6500   45.1390 C   0  0  0  0  0  0  0  0  0  0  0  0
   46.2630   33.3000   46.1830 C   0  0  0  0  0  0  0  0  0  0  0  0
   45.9910   32.6060   47.3640 C   0  0  0  0  0  0  0  0  0  0  0  0
   45.4040   32.8990   48.5490 N   0  0  0  0  0  0  0  0  0  0  0  0
   45.4300   31.7880   49.3290 C   0  0  0  0  0  0  0  0  0  0  0  0
   46.0360   30.8220   48.6080 N   0  0  0  0  0  0  0  0  0  0  0  0
   46.3890   31.2890   47.4040 C   0  0  0  0  0  0  0  0  0  0  0  0
   47.0200   30.6270   46.3910 C   0  0  0  0  0  0  0  0  0  0  0  0
   46.5970   35.0960   42.4160 C   0  0  0  0  0  0  0  0  0  0  0  0
   47.7020   34.8210   41.6270 C   0  0  0  0  0  0  0  0  0  0  0  0
   48.5640   33.7840   42.0340 C   0  0  0  0  0  0  0  0  0  0  0  0
   48.2530   33.1130   43.1850 N   0  0  0  0  0  0  0  0  0  0  0  0
   47.1700   33.4110   43.9210 C   0  0  0  0  0  0  0  0  0  0  0  0
   46.3290   34.4020   43.5510 N   0  0  0  0  0  0  0  0  0  0  0  0
   47.4060   29.2210   46.5310 C   0  0  0  0  0  0  0  0  0  0  0  0
   48.3830   28.5950   45.7930 C   0  0  0  0  0  0  0  0  0  0  0  0
   48.3870   27.2810   46.2800 C   0  0  0  0  0  0  0  0  0  0  0  0
   47.4310   27.1810   47.2700 C   0  0  0  0  0  0  0  0  0  0  0  0
   46.8850   28.3750   47.3680 O   0  0  0  0  0  0  0  0  0  0  0  0
   47.0910   26.0170   48.0440 N   0  0  0  0  0  0  0  0  0  0  0  0
   45.8790   25.4410   48.0650 C   0  0  0  0  0  0  0  0  0  0  0  0
   45.9660   24.3900   48.9010 N   0  0  0  0  0  0  0  0  0  0  0  0
   47.2170   24.3160   49.3930 C   0  0  0  0  0  0  0  0  0  0  0  0
   47.9050   23.4910   50.2650 C   0  0  0  0  0  0  0  0  0  0  0  0
   49.2220   23.7180   50.5480 N   0  0  0  0  0  0  0  0  0  0  0  0
   49.8940   24.7360   50.0010 C   0  0  0  0  0  0  0  0  0  0  0  0
   49.2540   25.5570   49.1490 N   0  0  0  0  0  0  0  0  0  0  0  0
   47.9570   25.3680   48.8430 C   0  0  0  0  0  0  0  0  0  0  0  0
   47.8013   30.8329   44.3588 H   0  0  0  0  0  0  0  0  0  0  0  0
   45.9713   34.3558   46.0818 H   0  0  0  0  0  0  0  0  0  0  0  0
   45.0051   33.8110   48.8138 H   0  0  0  0  0  0  0  0  0  0  0  0
   45.0338   31.6937   50.3508 H   0  0  0  0  0  0  0  0  0  0  0  0
   45.9144   35.9034   42.1125 H   0  0  0  0  0  0  0  0  0  0  0  0
   47.9003   35.3953   40.7100 H   0  0  0  0  0  0  0  0  0  0  0  0
   49.4566   33.5226   41.4466 H   0  0  0  0  0  0  0  0  0  0  0  0
   49.0153   29.0261   45.0029 H   0  0  0  0  0  0  0  0  0  0  0  0
   49.0409   26.4677   45.9323 H   0  0  0  0  0  0  0  0  0  0  0  0
   44.9879   25.7649   47.5074 H   0  0  0  0  0  0  0  0  0  0  0  0
   47.3858   22.6430   50.7355 H   0  0  0  0  0  0  0  0  0  0  0  0
   50.9543   24.8998   50.2439 H   0  0  0  0  0  0  0  0  0  0  0  0
  1  9  2  0
  2  1  1  0
  2  3  2  0
  3  4  1  0
  4  8  2  0
  4  5  1  0
  5  6  1  0
  7  6  2  0
  8  7  1  0
  9 16  1  0
  9  8  1  0
 10 15  2  0
 11 12  2  0
 11 10  1  0
 12 13  1  0
 13 14  2  0
 14  2  1  0
 15 14  1  0
 16 20  1  0
 17 18  1  0
 17 16  2  0
 18 19  2  0
 19 20  1  0
 19 21  1  0
 21 22  1  0
 21 29  1  0
 22 23  2  0
 23 24  1  0
 24 25  2  0
 25 26  1  0
 27 26  2  0
 28 27  1  0
 29 28  2  0
 29 24  1  0
  1 30  1  0
  3 31  1  0
  5 32  1  0
  6 33  1  0
 10 34  1  0
 11 35  1  0
 12 36  1  0
 17 37  1  0
 18 38  1  0
 22 39  1  0
 25 40  1  0
 27 41  1  0
M  ISO  8  30  14  31  14  32   9  33  14  34  14  35  14  36  14  37  14
M  ISO  4  38  14  39  14  40  14  41  14
M  END
>  <minimizedAffinity>  (1) 
-6.41993952

>  <minimizedRMSD>  (1) 
1.64233339

$$$$
