
     RDKit          3D

 52 56  0  0  1  0  0  0  0  0999 V2000
   46.9440   32.8070   45.5160 C   0  0  0  0  0  0  0  0  0  0  0  0
   45.8610   33.4880   46.0480 C   0  0  0  0  0  0  0  0  0  0  0  0
   45.1650   34.4290   45.2530 C   0  0  0  0  0  0  0  0  0  0  0  0
   45.6340   34.6070   43.9540 N   0  0  0  0  0  0  0  0  0  0  0  0
   46.6860   33.9180   43.5020 C   0  0  0  0  0  0  0  0  0  0  0  0
   47.3300   33.0340   44.2660 N   0  0  0  0  0  0  0  0  0  0  0  0
   47.1430   34.1670   42.1310 C   0  0  0  0  0  0  0  0  0  0  0  0
   48.2090   35.0010   41.8790 C   0  0  0  0  0  0  0  0  0  0  0  0
   48.7110   35.2950   40.6300 C   0  0  0  0  0  0  0  0  0  0  0  0
   48.0520   34.6760   39.5980 C   0  0  0  0  0  0  0  0  0  0  0  0
   46.9680   33.8250   39.8240 C   0  0  0  0  0  0  0  0  0  0  0  0
   46.5230   33.5790   41.0950 N   0  0  0  0  0  0  0  0  0  0  0  0
   46.3210   33.2100   38.7130 N   0  0  0  0  0  0  0  0  0  0  0  0
   45.0670   32.7070   38.5330 C   0  0  0  0  0  0  0  0  0  0  0  0
   44.9640   32.2300   37.2730 N   0  0  0  0  0  0  0  0  0  0  0  0
   46.1420   32.4180   36.6350 C   0  0  0  0  0  0  0  0  0  0  0  0
   46.5570   32.1100   35.3460 C   0  0  0  0  0  0  0  0  0  0  0  0
   47.8050   32.4050   34.9420 N   0  0  0  0  0  0  0  0  0  0  0  0
   48.6160   33.0100   35.8580 C   0  0  0  0  0  0  0  0  0  0  0  0
   48.2560   33.3260   37.1170 N   0  0  0  0  0  0  0  0  0  0  0  0
   47.0050   33.0380   37.5450 C   0  0  0  0  0  0  0  0  0  0  0  0
   47.6070   31.8360   46.3630 C   0  0  2  0  0  0  0  0  0  0  0  0
   47.4090   30.3860   45.8400 C   0  0  0  0  0  0  0  0  0  0  0  0
   48.2390   29.4470   46.6470 C   0  0  0  0  0  0  0  0  0  0  0  0
   48.2060   29.6520   48.1240 C   0  0  0  0  0  0  0  0  0  0  0  0
   48.1660   31.0360   48.5330 C   0  0  0  0  0  0  0  0  0  0  0  0
   47.1520   31.8900   47.7380 C   0  0  2  0  0  0  0  0  0  0  0  0
   45.8300   31.2700   47.8510 N   0  0  0  0  0  0  0  0  0  0  0  0
   45.1540   30.7040   48.9450 C   0  0  0  0  0  0  0  0  0  0  0  0
   44.5910   31.4080   49.8600 O   0  0  0  0  0  0  0  0  0  0  0  0
   45.1340   29.2760   48.9600 N   0  0  0  0  0  0  0  0  0  0  0  0
   45.5437   33.2979   47.0839 H   0  0  0  0  0  0  0  0  0  0  0  0
   44.3009   34.9892   45.6398 H   0  0  0  0  0  0  0  0  0  0  0  0
   48.6994   35.4704   42.7445 H   0  0  0  0  0  0  0  0  0  0  0  0
   49.5667   35.9683   40.4737 H   0  0  0  0  0  0  0  0  0  0  0  0
   48.3863   34.8547   38.5654 H   0  0  0  0  0  0  0  0  0  0  0  0
   44.2690   32.6919   39.2900 H   0  0  0  0  0  0  0  0  0  0  0  0
   45.8594   31.6210   34.6502 H   0  0  0  0  0  0  0  0  0  0  0  0
   49.6408   33.2582   35.5446 H   0  0  0  0  0  0  0  0  0  0  0  0
   48.6734   32.1037   46.3302 H   0  0  0  0  0  0  0  0  0  0  0  0
   46.3488   30.1063   45.9283 H   0  0  0  0  0  0  0  0  0  0  0  0
   47.7167   30.3323   44.7853 H   0  0  0  0  0  0  0  0  0  0  0  0
   47.8883   28.4250   46.4408 H   0  0  0  0  0  0  0  0  0  0  0  0
   49.2797   29.6344   46.3440 H   0  0  0  0  0  0  0  0  0  0  0  0
   47.3115   29.1498   48.5212 H   0  0  0  0  0  0  0  0  0  0  0  0
   49.1434   29.2344   48.5200 H   0  0  0  0  0  0  0  0  0  0  0  0
   47.8937   31.0756   49.5980 H   0  0  0  0  0  0  0  0  0  0  0  0
   49.1633   31.4575   48.3387 H   0  0  0  0  0  0  0  0  0  0  0  0
   47.0833   32.9254   48.1031 H   0  0  0  0  0  0  0  0  0  0  0  0
   45.2996   31.2442   46.9684 H   0  0  0  0  0  0  0  0  0  0  0  0
   44.6602   28.7756   49.7255 H   0  0  0  0  0  0  0  0  0  0  0  0
   45.5934   28.7466   48.2053 H   0  0  0  0  0  0  0  0  0  0  0  0
  1  2  2  0
  1 22  1  0
  3  2  1  0
  4  3  2  0
  5  4  1  0
  5  6  2  0
  6  1  1  0
  7  5  1  0
  8  7  2  0
  9  8  1  0
 10 11  1  0
 10  9  2  0
 11 12  2  0
 12  7  1  0
 13 11  1  0
 14 13  1  0
 15 14  2  0
 16 15  1  0
 16 21  2  0
 17 16  1  0
 18 17  2  0
 18 19  1  0
 19 20  2  0
 20 21  1  0
 21 13  1  0
 22 27  1  0
 23 22  1  0
 23 24  1  0
 24 25  1  0
 25 26  1  0
 27 28  1  0
 27 26  1  0
 28 29  1  0
 29 31  1  0
 29 30  2  0
  2 32  1  0
  3 33  1  0
  8 34  1  0
  9 35  1  0
 10 36  1  0
 14 37  1  0
 17 38  1  0
 19 39  1  0
 22 40  1  1
 23 41  1  0
 23 42  1  0
 24 43  1  0
 24 44  1  0
 25 45  1  0
 25 46  1  0
 26 47  1  0
 26 48  1  0
 27 49  1  1
 28 50  1  0
 31 51  1  0
 31 52  1  0
M  END
>  <minimizedAffinity>  (1) 
-7.36927414

>  <minimizedRMSD>  (1) 
0.33474195

$$$$
