
     RDKit          3D

 40 43  0  0  0  0  0  0  0  0999 V2000
   45.6020   29.8780   44.7260 Br  0  0  0  0  0  0  0  0  0  0  0  0
   45.6630   30.5010   46.5490 C   0  0  0  0  0  0  0  0  0  0  0  0
   46.3370   31.6740   46.7720 C   0  0  0  0  0  0  0  0  0  0  0  0
   46.3640   32.1000   48.1030 C   0  0  0  0  0  0  0  0  0  0  0  0
   45.7600   31.4000   49.1220 C   0  0  0  0  0  0  0  0  0  0  0  0
   45.1020   30.2340   48.8310 C   0  0  0  0  0  0  0  0  0  0  0  0
   45.0420   29.7650   47.5450 C   0  0  0  0  0  0  0  0  0  0  0  0
   47.0120   32.4970   45.7720 C   0  0  0  0  0  0  0  0  0  0  0  0
   44.5400   35.2710   45.5040 C   0  0  0  0  0  0  0  0  0  0  0  0
   44.7340   35.7180   44.1950 C   0  0  0  0  0  0  0  0  0  0  0  0
   45.7040   35.0630   43.4340 C   0  0  0  0  0  0  0  0  0  0  0  0
   46.4090   34.0380   43.9760 N   0  0  0  0  0  0  0  0  0  0  0  0
   46.1900   33.6300   45.2640 C   0  0  0  0  0  0  0  0  0  0  0  0
   45.2550   34.2680   45.9820 N   0  0  0  0  0  0  0  0  0  0  0  0
   44.3710   28.5790   47.2560 O   0  0  0  0  0  0  0  0  0  0  0  0
   44.0830   26.0020   47.1080 O   0  0  0  0  0  0  0  0  0  0  0  0
   44.8580   27.0650   47.8710 P   0  0  2  0  0  0  0  0  0  0  0  0
   44.4380   27.0170   49.4960 O   0  0  0  0  0  0  0  0  0  0  0  0
   46.5000   26.7870   47.6490 O   0  0  0  0  0  0  0  0  0  0  0  0
   48.5190   26.2630   48.7600 N   0  0  0  0  0  0  0  0  0  0  0  0
   47.2550   25.8970   48.4020 C   0  0  0  0  0  0  0  0  0  0  0  0
   47.0280   24.6710   48.9020 N   0  0  0  0  0  0  0  0  0  0  0  0
   48.0990   24.2260   49.5730 C   0  0  0  0  0  0  0  0  0  0  0  0
   48.4100   23.0740   50.2650 C   0  0  0  0  0  0  0  0  0  0  0  0
   49.6100   22.9090   50.8550 N   0  0  0  0  0  0  0  0  0  0  0  0
   50.5200   23.9220   50.7480 C   0  0  0  0  0  0  0  0  0  0  0  0
   50.2440   25.0640   50.0750 N   0  0  0  0  0  0  0  0  0  0  0  0
   49.0470   25.2510   49.4760 C   0  0  0  0  0  0  0  0  0  0  0  0
   46.8905   33.0347   48.3462 H   0  0  0  0  0  0  0  0  0  0  0  0
   45.8048   31.7715   50.1564 H   0  0  0  0  0  0  0  0  0  0  0  0
   44.6162   29.6677   49.6393 H   0  0  0  0  0  0  0  0  0  0  0  0
   47.9268   32.9086   46.2233 H   0  0  0  0  0  0  0  0  0  0  0  0
   47.2204   31.8445   44.9113 H   0  0  0  0  0  0  0  0  0  0  0  0
   43.7868   35.7573   46.1413 H   0  0  0  0  0  0  0  0  0  0  0  0
   44.1471   36.5512   43.7811 H   0  0  0  0  0  0  0  0  0  0  0  0
   45.8963   35.3771   42.3975 H   0  0  0  0  0  0  0  0  0  0  0  0
   45.2529   27.1101   50.0504 H   0  0  0  0  0  0  0  0  0  0  0  0
   48.9851   27.1511   48.5258 H   0  0  0  0  0  0  0  0  0  0  0  0
   47.6611   22.2716   50.3368 H   0  0  0  0  0  0  0  0  0  0  0  0
   51.5057   23.8067   51.2224 H   0  0  0  0  0  0  0  0  0  0  0  0
  1  2  1  0
  2  3  2  0
  2  7  1  0
  3  4  1  0
  4  5  2  0
  6  5  1  0
  7  6  2  0
  8  3  1  0
  9 14  2  0
 10  9  1  0
 11 12  1  0
 11 10  2  0
 12 13  2  0
 13  8  1  0
 13 14  1  0
 15  7  1  0
 15 17  1  0
 17 16  2  0
 17 18  1  0
 19 17  1  0
 19 21  1  0
 20 28  1  0
 21 20  1  0
 21 22  2  0
 22 23  1  0
 23 24  1  0
 24 25  2  0
 26 25  1  0
 27 26  2  0
 28 23  2  0
 28 27  1  0
  4 29  1  0
  5 30  1  0
  6 31  1  0
  8 32  1  0
  8 33  1  0
  9 34  1  0
 10 35  1  0
 11 36  1  0
 18 37  1  0
 20 38  1  0
 24 39  1  0
 26 40  1  0
M  ISO  8  29  14  30  14  31  14  32   8  33   8  34  14  35  14  36  14
M  ISO  4  37   3  38   9  39  14  40  14
M  END
>  <minimizedAffinity>  (1) 
-5.94806862

>  <minimizedRMSD>  (1) 
2.35961604

$$$$
