
     RDKit          3D

 45 49  0  0  0  0  0  0  0  0999 V2000
   45.3190   33.8120   45.6050 C   0  0  0  0  0  0  0  0  0  0  0  0
   44.8020   35.0350   45.8900 C   0  0  0  0  0  0  0  0  0  0  0  0
   44.3950   35.9310   44.9310 C   0  0  0  0  0  0  0  0  0  0  0  0
   44.5370   35.5280   43.6460 N   0  0  0  0  0  0  0  0  0  0  0  0
   45.0500   34.3140   43.3600 C   0  0  0  0  0  0  0  0  0  0  0  0
   45.4480   33.4350   44.3080 N   0  0  0  0  0  0  0  0  0  0  0  0
   45.4890   32.0830   48.8380 C   0  0  0  0  0  0  0  0  0  0  0  0
   46.5320   31.1570   48.6150 C   0  0  0  0  0  0  0  0  0  0  0  0
   47.1510   31.1370   47.3880 C   0  0  0  0  0  0  0  0  0  0  0  0
   46.7410   32.0110   46.4180 N   0  0  0  0  0  0  0  0  0  0  0  0
   45.7380   32.8900   46.6530 C   0  0  0  0  0  0  0  0  0  0  0  0
   45.1240   32.9190   47.8540 N   0  0  0  0  0  0  0  0  0  0  0  0
   48.2090   30.2330   47.0890 N   0  0  0  0  0  0  0  0  0  0  0  0
   48.4850   29.7130   45.8810 C   0  0  0  0  0  0  0  0  0  0  0  0
   49.5440   28.9070   45.9710 N   0  0  0  0  0  0  0  0  0  0  0  0
   49.9550   28.9130   47.2690 C   0  0  0  0  0  0  0  0  0  0  0  0
   51.0080   28.2520   47.9110 C   0  0  0  0  0  0  0  0  0  0  0  0
   51.1990   28.4400   49.2480 N   0  0  0  0  0  0  0  0  0  0  0  0
   50.3660   29.2580   49.9040 C   0  0  0  0  0  0  0  0  0  0  0  0
   49.3500   29.8890   49.2580 N   0  0  0  0  0  0  0  0  0  0  0  0
   49.1170   29.7420   47.9510 C   0  0  0  0  0  0  0  0  0  0  0  0
   45.1940   33.8960   41.9590 C   0  0  0  0  0  0  0  0  0  0  0  0
   44.1520   33.2310   41.3380 C   0  0  0  0  0  0  0  0  0  0  0  0
   44.1800   32.7920   40.0190 C   0  0  0  0  0  0  0  0  0  0  0  0
   45.3420   33.0510   39.3020 C   0  0  0  0  0  0  0  0  0  0  0  0
   46.3740   33.7110   39.9210 C   0  0  0  0  0  0  0  0  0  0  0  0
   46.3350   34.1410   41.2260 C   0  0  0  0  0  0  0  0  0  0  0  0
   47.3540   34.8020   41.8640 O   0  0  0  0  0  0  0  0  0  0  0  0
   49.7930   35.4540   42.5290 O   0  0  0  0  0  0  0  0  0  0  0  0
   48.9670   34.8540   41.3910 P   0  0  0  0  0  0  0  0  0  0  0  0
   49.6010   33.3650   40.9370 O   0  0  0  0  0  0  0  0  0  0  0  0
   49.1250   35.8960   40.0740 O   0  0  0  0  0  0  0  0  0  0  0  0
   44.7036   35.3243   46.9467 H   0  0  0  0  0  0  0  0  0  0  0  0
   43.9792   36.9156   45.1912 H   0  0  0  0  0  0  0  0  0  0  0  0
   44.9792   32.1186   49.8121 H   0  0  0  0  0  0  0  0  0  0  0  0
   46.8436   30.4635   49.4100 H   0  0  0  0  0  0  0  0  0  0  0  0
   47.9231   29.9205   44.9584 H   0  0  0  0  0  0  0  0  0  0  0  0
   51.6752   27.5872   47.3427 H   0  0  0  0  0  0  0  0  0  0  0  0
   50.5062   29.4219   50.9827 H   0  0  0  0  0  0  0  0  0  0  0  0
   43.2426   33.0370   41.9256 H   0  0  0  0  0  0  0  0  0  0  0  0
   43.3262   32.2666   39.5662 H   0  0  0  0  0  0  0  0  0  0  0  0
   45.4333   32.7316   38.2534 H   0  0  0  0  0  0  0  0  0  0  0  0
   47.2861   33.9074   39.3384 H   0  0  0  0  0  0  0  0  0  0  0  0
   49.8242   32.8407   41.7466 H   0  0  0  0  0  0  0  0  0  0  0  0
   49.2652   36.8204   40.3995 H   0  0  0  0  0  0  0  0  0  0  0  0
  1  2  2  0
  1 11  1  0
  3  2  1  0
  4  3  2  0
  5  4  1  0
  5  6  2  0
  6  1  1  0
  8  7  2  0
  9  8  1  0
 10 11  1  0
 10  9  2  0
 11 12  2  0
 12  7  1  0
 13  9  1  0
 13 21  1  0
 14 15  2  0
 14 13  1  0
 15 16  1  0
 16 17  1  0
 16 21  2  0
 17 18  2  0
 18 19  1  0
 20 19  2  0
 21 20  1  0
 22  5  1  0
 23 22  2  0
 24 23  1  0
 25 26  1  0
 25 24  2  0
 26 27  2  0
 27 28  1  0
 27 22  1  0
 30 28  1  0
 30 29  2  0
 31 30  1  0
 32 30  1  0
  2 33  1  0
  3 34  1  0
  7 35  1  0
  8 36  1  0
 14 37  1  0
 17 38  1  0
 19 39  1  0
 23 40  1  0
 24 41  1  0
 25 42  1  0
 26 43  1  0
 31 44  1  0
 32 45  1  0
M  END
>  <minimizedAffinity>  (1) 
-7.15202427

>  <minimizedRMSD>  (1) 
0.607631862

$$$$
