
     RDKit          3D

 46 50  0  0  0  0  0  0  0  0999 V2000
   38.4540   31.7210   41.2250 C   0  0  0  0  0  0  0  0  0  0  0  0
   39.8270   31.5610   40.9420 C   0  0  0  0  0  0  0  0  0  0  0  0
   40.2700   30.3160   40.5580 C   0  0  0  0  0  0  0  0  0  0  0  0
   39.3760   29.3070   40.4690 N   0  0  0  0  0  0  0  0  0  0  0  0
   38.0680   29.4820   40.7450 C   0  0  0  0  0  0  0  0  0  0  0  0
   37.5790   30.6570   41.1200 N   0  0  0  0  0  0  0  0  0  0  0  0
   37.1440   28.3340   40.6270 C   0  0  0  0  0  0  0  0  0  0  0  0
   36.2090   28.4700   39.4210 C   0  0  0  0  0  0  0  0  0  0  0  0
   35.1410   27.4940   39.6930 N   0  0  0  0  0  0  0  0  0  0  0  0
   35.3540   26.1730   39.9600 C   0  0  0  0  0  0  0  0  0  0  0  0
   34.1780   25.5410   40.1650 N   0  0  0  0  0  0  0  0  0  0  0  0
   33.1990   26.4660   40.0270 C   0  0  0  0  0  0  0  0  0  0  0  0
   31.8230   26.4370   40.1150 C   0  0  0  0  0  0  0  0  0  0  0  0
   31.1000   27.5780   39.9160 N   0  0  0  0  0  0  0  0  0  0  0  0
   31.7560   28.7400   39.6300 C   0  0  0  0  0  0  0  0  0  0  0  0
   33.0820   28.7720   39.5440 N   0  0  0  0  0  0  0  0  0  0  0  0
   33.8020   27.6710   39.7350 C   0  0  0  0  0  0  0  0  0  0  0  0
   40.9290   32.9420   41.0840 S   0  0  0  0  0  0  0  0  0  0  0  0
   40.8080   33.9740   39.6460 C   0  0  0  0  0  0  0  0  0  0  0  0
   39.7130   33.9880   38.7940 C   0  0  0  0  0  0  0  0  0  0  0  0
   39.6920   34.8220   37.6900 C   0  0  0  0  0  0  0  0  0  0  0  0
   40.7500   35.6520   37.4140 C   0  0  0  0  0  0  0  0  0  0  0  0
   41.8300   35.6370   38.2560 C   0  0  0  0  0  0  0  0  0  0  0  0
   41.8830   34.8150   39.3680 C   0  0  0  0  0  0  0  0  0  0  0  0
   43.0350   34.8130   40.2490 C   0  0  0  0  0  0  0  0  0  0  0  0
   44.1410   34.0430   40.0800 C   0  0  0  0  0  0  0  0  0  0  0  0
   45.2400   34.0640   40.9490 C   0  0  0  0  0  0  0  0  0  0  0  0
   45.2030   34.8850   42.0090 N   0  0  0  0  0  0  0  0  0  0  0  0
   44.1110   35.6500   42.1820 C   0  0  0  0  0  0  0  0  0  0  0  0
   43.0540   35.6230   41.3360 N   0  0  0  0  0  0  0  0  0  0  0  0
   38.0750   32.7065   41.5335 H   0  0  0  0  0  0  0  0  0  0  0  0
   41.3321   30.1455   40.3278 H   0  0  0  0  0  0  0  0  0  0  0  0
   37.7348   27.4128   40.5159 H   0  0  0  0  0  0  0  0  0  0  0  0
   36.5241   28.3027   41.5351 H   0  0  0  0  0  0  0  0  0  0  0  0
   36.7358   28.2244   38.4871 H   0  0  0  0  0  0  0  0  0  0  0  0
   35.8272   29.4935   39.2920 H   0  0  0  0  0  0  0  0  0  0  0  0
   36.3421   25.6916   40.0023 H   0  0  0  0  0  0  0  0  0  0  0  0
   31.3072   25.4932   40.3459 H   0  0  0  0  0  0  0  0  0  0  0  0
   31.1795   29.6628   39.4684 H   0  0  0  0  0  0  0  0  0  0  0  0
   38.8547   33.3309   38.9978 H   0  0  0  0  0  0  0  0  0  0  0  0
   38.8159   34.8199   37.0248 H   0  0  0  0  0  0  0  0  0  0  0  0
   40.7308   36.3144   36.5360 H   0  0  0  0  0  0  0  0  0  0  0  0
   42.6819   36.2990   38.0417 H   0  0  0  0  0  0  0  0  0  0  0  0
   44.1759   33.3660   39.2137 H   0  0  0  0  0  0  0  0  0  0  0  0
   46.1138   33.4214   40.7659 H   0  0  0  0  0  0  0  0  0  0  0  0
   44.0746   36.3271   43.0482 H   0  0  0  0  0  0  0  0  0  0  0  0
  2 18  1  0
  2  1  2  0
  3  2  1  0
  4  3  2  0
  4  5  1  0
  5  6  2  0
  6  1  1  0
  7  5  1  0
  8  9  1  0
  8  7  1  0
  9 17  1  0
  9 10  1  0
 10 11  2  0
 12 13  2  0
 12 11  1  0
 14 13  1  0
 15 14  2  0
 16 15  1  0
 16 17  2  0
 17 12  1  0
 19 18  1  0
 20 19  2  0
 21 20  1  0
 22 21  2  0
 22 23  1  0
 23 24  2  0
 24 19  1  0
 24 25  1  0
 25 30  1  0
 26 25  2  0
 26 27  1  0
 27 28  2  0
 28 29  1  0
 30 29  2  0
  1 31  1  0
  3 32  1  0
  7 33  1  0
  7 34  1  0
  8 35  1  0
  8 36  1  0
 10 37  1  0
 13 38  1  0
 15 39  1  0
 20 40  1  0
 21 41  1  0
 22 42  1  0
 23 43  1  0
 26 44  1  0
 27 45  1  0
 29 46  1  0
M  ISO  8  31  14  32  14  33   8  34   8  35   8  36   8  37  14  38  14
M  ISO  8  39  14  40  14  41  14  42  14  43  14  44  14  45  14  46  14
M  END
>  <minimizedAffinity>  (1) 
-5.8723073

>  <minimizedRMSD>  (1) 
0.512263238

$$$$
