
     RDKit          3D

 30 32  0  0  0  0  0  0  0  0999 V2000
   45.3550   31.1800   49.6300 O   0  0  0  0  0  0  0  0  0  0  0  0
   45.7130   31.1490   48.1370 P   0  0  1  0  0  0  0  0  0  0  0  0
   44.5000   30.2490   47.3710 O   0  0  0  0  0  0  0  0  0  0  0  0
   45.7760   32.7460   47.6230 O   0  0  0  0  0  0  0  0  0  0  0  0
   45.0690   34.7070   44.6810 C   0  0  0  0  0  0  0  0  0  0  0  0
   45.3640   33.8050   43.6640 C   0  0  0  0  0  0  0  0  0  0  0  0
   45.8040   32.5310   44.0370 C   0  0  0  0  0  0  0  0  0  0  0  0
   45.9140   32.2560   45.3560 N   0  0  0  0  0  0  0  0  0  0  0  0
   45.6120   33.1770   46.3150 C   0  0  0  0  0  0  0  0  0  0  0  0
   45.1880   34.4080   45.9650 N   0  0  0  0  0  0  0  0  0  0  0  0
   44.6140   36.0720   44.2530 C   0  0  0  0  0  0  0  0  0  0  0  0
   47.1890   30.3660   47.8790 O   0  0  0  0  0  0  0  0  0  0  0  0
   48.7870   29.8340   49.7640 N   0  0  0  0  0  0  0  0  0  0  0  0
   48.2210   30.5640   48.7870 C   0  0  0  0  0  0  0  0  0  0  0  0
   48.8780   31.7570   48.7570 N   0  0  0  0  0  0  0  0  0  0  0  0
   49.8340   31.7640   49.6980 C   0  0  0  0  0  0  0  0  0  0  0  0
   50.8090   32.6330   50.1670 C   0  0  0  0  0  0  0  0  0  0  0  0
   51.6470   32.3200   51.1750 N   0  0  0  0  0  0  0  0  0  0  0  0
   51.5430   31.1030   51.7660 C   0  0  0  0  0  0  0  0  0  0  0  0
   50.6180   30.2160   51.3570 N   0  0  0  0  0  0  0  0  0  0  0  0
   49.7790   30.5280   50.3490 C   0  0  0  0  0  0  0  0  0  0  0  0
   43.9246   29.8221   48.0542 H   0  0  0  0  0  0  0  0  0  0  0  0
   45.2552   34.0835   42.6054 H   0  0  0  0  0  0  0  0  0  0  0  0
   46.0535   31.7742   43.2787 H   0  0  0  0  0  0  0  0  0  0  0  0
   44.4094   36.6859   45.1425 H   0  0  0  0  0  0  0  0  0  0  0  0
   45.4017   36.5492   43.6514 H   0  0  0  0  0  0  0  0  0  0  0  0
   43.6976   35.9811   43.6514 H   0  0  0  0  0  0  0  0  0  0  0  0
   48.5016   28.8798   50.0267 H   0  0  0  0  0  0  0  0  0  0  0  0
   50.9021   33.6221   49.6947 H   0  0  0  0  0  0  0  0  0  0  0  0
   52.2230   30.8386   52.5892 H   0  0  0  0  0  0  0  0  0  0  0  0
  2  1  2  0
  3  2  1  0
  4  2  1  0
  5 10  2  0
  6  7  2  0
  6  5  1  0
  7  8  1  0
  8  9  2  0
  9  4  1  0
 10  9  1  0
 11  5  1  0
 12  2  1  0
 12 14  1  0
 13 21  1  0
 14 13  1  0
 15 14  2  0
 15 16  1  0
 16 17  1  0
 16 21  2  0
 17 18  2  0
 18 19  1  0
 20 19  2  0
 21 20  1  0
  3 22  1  0
  6 23  1  0
  7 24  1  0
 11 25  1  0
 11 26  1  0
 11 27  1  0
 13 28  1  0
 17 29  1  0
 19 30  1  0
M  ISO  8  22   3  23  14  24  14  25   8  26   8  27   8  28   9  29  14
M  ISO  1  30  14
M  END
>  <minimizedAffinity>  (1) 
-5.65480375

>  <minimizedRMSD>  (1) 
2.35165572

$$$$
