
     RDKit          3D

 36 39  0  0  0  0  0  0  0  0999 V2000
   47.3520   34.0060   42.5720 C   0  0  0  0  0  0  0  0  0  0  0  0
   48.6940   33.9060   42.8980 C   0  0  0  0  0  0  0  0  0  0  0  0
   49.6710   33.3680   42.0640 C   0  0  0  0  0  0  0  0  0  0  0  0
   49.2820   32.9020   40.8260 C   0  0  0  0  0  0  0  0  0  0  0  0
   47.9690   33.0100   40.5250 C   0  0  0  0  0  0  0  0  0  0  0  0
   47.0550   33.5280   41.3410 N   0  0  0  0  0  0  0  0  0  0  0  0
   44.6600   36.0510   44.2130 C   0  0  0  0  0  0  0  0  0  0  0  0
   45.5740   35.6580   43.2320 C   0  0  0  0  0  0  0  0  0  0  0  0
   46.3570   34.5580   43.4650 C   0  0  0  0  0  0  0  0  0  0  0  0
   46.1970   33.9010   44.6620 N   0  0  0  0  0  0  0  0  0  0  0  0
   45.3090   34.2970   45.5960 C   0  0  0  0  0  0  0  0  0  0  0  0
   44.5450   35.3720   45.3630 N   0  0  0  0  0  0  0  0  0  0  0  0
   47.5600   32.5500   39.2840 O   0  0  0  0  0  0  0  0  0  0  0  0
   46.7390   33.5630   36.9890 O   0  0  0  0  0  0  0  0  0  0  0  0
   47.9780   33.3230   37.8220 P   0  0  1  0  0  0  0  0  0  0  0  0
   48.7070   34.8050   38.1800 O   0  0  0  0  0  0  0  0  0  0  0  0
   49.0110   32.3040   36.9570 O   0  0  0  0  0  0  0  0  0  0  0  0
   48.7090   33.2090   34.6900 N   0  0  0  0  0  0  0  0  0  0  0  0
   49.1370   32.2970   35.5850 C   0  0  0  0  0  0  0  0  0  0  0  0
   49.7440   31.3230   34.8430 N   0  0  0  0  0  0  0  0  0  0  0  0
   49.6720   31.6570   33.5410 C   0  0  0  0  0  0  0  0  0  0  0  0
   50.1220   31.0310   32.3950 C   0  0  0  0  0  0  0  0  0  0  0  0
   49.9290   31.5700   31.1770 N   0  0  0  0  0  0  0  0  0  0  0  0
   49.2780   32.7560   31.0920 C   0  0  0  0  0  0  0  0  0  0  0  0
   48.8250   33.3930   32.2100 N   0  0  0  0  0  0  0  0  0  0  0  0
   49.0200   32.8470   33.4290 C   0  0  0  0  0  0  0  0  0  0  0  0
   49.0103   34.2772   43.8840 H   0  0  0  0  0  0  0  0  0  0  0  0
   50.7223   33.3163   42.3836 H   0  0  0  0  0  0  0  0  0  0  0  0
   50.0032   32.4649   40.1198 H   0  0  0  0  0  0  0  0  0  0  0  0
   44.0245   36.9318   44.0388 H   0  0  0  0  0  0  0  0  0  0  0  0
   45.6632   36.2207   42.2910 H   0  0  0  0  0  0  0  0  0  0  0  0
   45.2129   33.7421   46.5409 H   0  0  0  0  0  0  0  0  0  0  0  0
   48.7621   34.9170   39.1621 H   0  0  0  0  0  0  0  0  0  0  0  0
   48.2074   34.0738   34.9380 H   0  0  0  0  0  0  0  0  0  0  0  0
   50.6502   30.0699   32.4798 H   0  0  0  0  0  0  0  0  0  0  0  0
   49.1122   33.2124   30.1050 H   0  0  0  0  0  0  0  0  0  0  0  0
  1  2  2  0
  1  9  1  0
  3  2  1  0
  4  3  2  0
  5  4  1  0
  5  6  2  0
  6  1  1  0
  7 12  2  0
  8  9  2  0
  8  7  1  0
  9 10  1  0
 10 11  2  0
 12 11  1  0
 13  5  1  0
 15 14  2  0
 15 16  1  0
 15 13  1  0
 17 15  1  0
 18 19  1  0
 19 17  1  0
 20 19  2  0
 21 20  1  0
 22 21  2  0
 23 22  1  0
 24 23  2  0
 24 25  1  0
 25 26  2  0
 26 21  1  0
 26 18  1  0
  2 27  1  0
  3 28  1  0
  4 29  1  0
  7 30  1  0
  8 31  1  0
 11 32  1  0
 16 33  1  0
 18 34  1  0
 22 35  1  0
 24 36  1  0
M  ISO  8  27  14  28  14  29  14  30  14  31  14  32  14  33   3  34   9
M  ISO  2  35  14  36  14
M  END
>  <minimizedAffinity>  (1) 
-6.48135233

>  <minimizedRMSD>  (1) 
5.6310935

$$$$
