
     RDKit          3D

 52 57  0  0  1  0  0  0  0  0999 V2000
   46.9660   31.6970   48.2830 C   0  0  1  0  0  0  0  0  0  0  0  0
   46.3540   30.7030   49.2110 C   0  0  0  0  0  0  0  0  0  0  0  0
   47.6890   31.2330   49.4850 C   0  0  1  0  0  0  0  0  0  0  0  0
   48.9090   30.3920   49.2870 C   0  0  2  0  0  0  0  0  0  0  0  0
   49.6680   30.0830   50.6030 C   0  0  0  0  0  0  0  0  0  0  0  0
   50.2610   31.0140   49.6370 C   0  0  1  0  0  0  0  0  0  0  0  0
   51.3130   30.6210   48.7190 N   0  0  0  0  0  0  0  0  0  0  0  0
   51.1690   29.6430   47.8070 C   0  0  0  0  0  0  0  0  0  0  0  0
   52.3160   29.5170   47.1080 N   0  0  0  0  0  0  0  0  0  0  0  0
   53.1500   30.4360   47.6170 C   0  0  0  0  0  0  0  0  0  0  0  0
   54.4640   30.7230   47.2500 C   0  0  0  0  0  0  0  0  0  0  0  0
   55.0830   31.7080   47.9330 N   0  0  0  0  0  0  0  0  0  0  0  0
   54.4720   32.3810   48.9150 C   0  0  0  0  0  0  0  0  0  0  0  0
   53.2010   32.1290   49.2950 N   0  0  0  0  0  0  0  0  0  0  0  0
   52.5480   31.1580   48.6430 C   0  0  0  0  0  0  0  0  0  0  0  0
   47.3160   31.1570   46.9410 C   0  0  0  0  0  0  0  0  0  0  0  0
   46.1920   33.0850   46.1840 C   0  0  0  0  0  0  0  0  0  0  0  0
   46.9980   32.1630   45.8590 C   0  0  0  0  0  0  0  0  0  0  0  0
   44.5320   35.8460   44.3910 C   0  0  0  0  0  0  0  0  0  0  0  0
   45.1540   35.8310   43.1470 C   0  0  0  0  0  0  0  0  0  0  0  0
   46.1100   34.8850   42.9690 C   0  0  0  0  0  0  0  0  0  0  0  0
   46.4240   34.0130   43.9650 N   0  0  0  0  0  0  0  0  0  0  0  0
   45.7960   34.0590   45.1630 C   0  0  0  0  0  0  0  0  0  0  0  0
   44.8660   34.9780   45.3380 N   0  0  0  0  0  0  0  0  0  0  0  0
   46.8500   34.7470   41.7160 C   0  0  0  0  0  0  0  0  0  0  0  0
   48.0570   35.3450   41.4540 C   0  0  0  0  0  0  0  0  0  0  0  0
   48.7490   35.2090   40.2700 C   0  0  0  0  0  0  0  0  0  0  0  0
   48.2190   34.4230   39.2580 C   0  0  0  0  0  0  0  0  0  0  0  0
   47.0140   33.8030   39.4690 C   0  0  0  0  0  0  0  0  0  0  0  0
   46.3730   33.9810   40.6780 C   0  0  0  0  0  0  0  0  0  0  0  0
   46.7324   32.6959   47.8858 H   0  0  0  0  0  0  0  0  0  0  0  0
   45.5053   30.9945   49.8472 H   0  0  0  0  0  0  0  0  0  0  0  0
   45.9247   29.6964   49.0994 H   0  0  0  0  0  0  0  0  0  0  0  0
   48.1448   31.7080   50.3662 H   0  0  0  0  0  0  0  0  0  0  0  0
   48.5103   29.8416   48.4221 H   0  0  0  0  0  0  0  0  0  0  0  0
   49.2802   30.4606   51.5606 H   0  0  0  0  0  0  0  0  0  0  0  0
   50.0100   29.1634   51.1004 H   0  0  0  0  0  0  0  0  0  0  0  0
   50.6905   32.0147   49.7920 H   0  0  0  0  0  0  0  0  0  0  0  0
   50.2606   29.0416   47.6552 H   0  0  0  0  0  0  0  0  0  0  0  0
   54.9710   30.1734   46.4433 H   0  0  0  0  0  0  0  0  0  0  0  0
   55.0293   33.1739   49.4353 H   0  0  0  0  0  0  0  0  0  0  0  0
   48.3912   30.9261   46.9142 H   0  0  0  0  0  0  0  0  0  0  0  0
   46.7247   30.2469   46.7616 H   0  0  0  0  0  0  0  0  0  0  0  0
   45.7985   33.1529   47.2090 H   0  0  0  0  0  0  0  0  0  0  0  0
   47.4384   32.0988   44.8530 H   0  0  0  0  0  0  0  0  0  0  0  0
   43.7486   36.5911   44.5938 H   0  0  0  0  0  0  0  0  0  0  0  0
   44.8864   36.5446   42.3538 H   0  0  0  0  0  0  0  0  0  0  0  0
   48.5009   35.9736   42.2400 H   0  0  0  0  0  0  0  0  0  0  0  0
   49.7132   35.7194   40.1290 H   0  0  0  0  0  0  0  0  0  0  0  0
   48.7543   34.2992   38.3051 H   0  0  0  0  0  0  0  0  0  0  0  0
   46.5653   33.1735   38.6865 H   0  0  0  0  0  0  0  0  0  0  0  0
   45.4085   33.4722   40.8224 H   0  0  0  0  0  0  0  0  0  0  0  0
  1  2  1  0
  1  3  1  0
  2  3  1  0
  4  3  1  0
  4  6  1  0
  4  5  1  0
  6  5  1  0
  7  6  1  0
  8  7  1  0
  9 10  1  0
  9  8  2  0
 10 15  2  0
 11 10  1  0
 11 12  2  0
 12 13  1  0
 13 14  2  0
 15  7  1  0
 15 14  1  0
 16  1  1  0
 18 17  2  0
 18 16  1  0
 19 24  2  0
 20 19  1  0
 21 20  2  0
 21 22  1  0
 22 23  2  0
 23 24  1  0
 23 17  1  0
 25 21  1  0
 26 25  2  0
 27 26  1  0
 28 29  1  0
 28 27  2  0
 29 30  2  0
 30 25  1  0
  1 31  1  6
  2 32  1  0
  2 33  1  0
  3 34  1  1
  4 35  1  6
  5 36  1  0
  5 37  1  0
  6 38  1  1
  8 39  1  0
 11 40  1  0
 13 41  1  0
 16 42  1  0
 16 43  1  0
 17 44  1  0
 18 45  1  0
 19 46  1  0
 20 47  1  0
 26 48  1  0
 27 49  1  0
 28 50  1  0
 29 51  1  0
 30 52  1  0
M  ISO  8  31  13  32  13  33  13  34  13  35  13  36  13  37  13  38  13
M  ISO  8  39  14  40  14  41  14  42   8  43   8  46  14  47  14  48  14
M  ISO  4  49  14  50  14  51  14  52  14
M  END
>  <minimizedAffinity>  (1) 
-6.57481909

>  <minimizedRMSD>  (1) 
1.00100684

$$$$
