
     RDKit          3D

 42 46  0  0  1  0  0  0  0  0999 V2000
   46.1990   33.8280   44.3380 C   0  0  1  0  0  0  0  0  0  0  0  0
   46.4980   32.4180   44.7640 C   0  0  0  0  0  0  0  0  0  0  0  0
   47.4880   33.0940   44.0650 C   0  0  1  0  0  0  0  0  0  0  0  0
   45.2000   34.0740   43.3010 C   0  0  0  0  0  0  0  0  0  0  0  0
   45.1110   35.3840   42.8050 C   0  0  0  0  0  0  0  0  0  0  0  0
   44.1500   35.6020   41.8010 C   0  0  0  0  0  0  0  0  0  0  0  0
   43.3910   34.5460   41.3930 N   0  0  0  0  0  0  0  0  0  0  0  0
   43.5230   33.2810   41.9180 C   0  0  0  0  0  0  0  0  0  0  0  0
   44.4430   33.0340   42.8900 N   0  0  0  0  0  0  0  0  0  0  0  0
   42.6860   32.2360   41.4340 N   0  0  0  0  0  0  0  0  0  0  0  0
   42.0420   31.3520   42.2170 C   0  0  0  0  0  0  0  0  0  0  0  0
   41.3420   30.5030   41.4300 N   0  0  0  0  0  0  0  0  0  0  0  0
   41.5830   30.9010   40.1530 C   0  0  0  0  0  0  0  0  0  0  0  0
   41.0650   30.3110   38.9970 C   0  0  0  0  0  0  0  0  0  0  0  0
   41.4630   30.9010   37.8540 N   0  0  0  0  0  0  0  0  0  0  0  0
   42.2870   31.9650   37.8270 C   0  0  0  0  0  0  0  0  0  0  0  0
   42.7820   32.5260   38.9570 N   0  0  0  0  0  0  0  0  0  0  0  0
   42.4290   31.9910   40.1370 C   0  0  0  0  0  0  0  0  0  0  0  0
   47.8920   32.6280   42.7120 C   0  0  0  0  0  0  0  0  0  0  0  0
   47.3790   31.4960   42.1250 C   0  0  0  0  0  0  0  0  0  0  0  0
   47.7500   31.0050   40.9040 C   0  0  0  0  0  0  0  0  0  0  0  0
   48.7120   31.6980   40.2060 C   0  0  0  0  0  0  0  0  0  0  0  0
   49.2580   32.8490   40.7640 C   0  0  0  0  0  0  0  0  0  0  0  0
   48.8390   33.2800   41.9910 C   0  0  0  0  0  0  0  0  0  0  0  0
   49.0380   35.6510   41.6820 C   0  0  0  0  0  0  0  0  0  0  0  0
   48.0200   35.3180   41.0740 O   0  0  0  0  0  0  0  0  0  0  0  0
   49.5920   34.4710   42.2950 N   0  0  0  0  0  0  0  0  0  0  0  0
   45.9173   34.7853   44.8009 H   0  0  0  0  0  0  0  0  0  0  0  0
   46.6446   32.1934   45.8308 H   0  0  0  0  0  0  0  0  0  0  0  0
   45.9870   31.4546   44.6199 H   0  0  0  0  0  0  0  0  0  0  0  0
   48.5422   33.3492   44.2481 H   0  0  0  0  0  0  0  0  0  0  0  0
   45.7552   36.1931   43.1795 H   0  0  0  0  0  0  0  0  0  0  0  0
   44.0146   36.5991   41.3566 H   0  0  0  0  0  0  0  0  0  0  0  0
   42.0785   31.3240   43.3160 H   0  0  0  0  0  0  0  0  0  0  0  0
   40.3916   29.4415   39.0189 H   0  0  0  0  0  0  0  0  0  0  0  0
   42.5684   32.3941   36.8540 H   0  0  0  0  0  0  0  0  0  0  0  0
   46.6092   30.9412   42.6814 H   0  0  0  0  0  0  0  0  0  0  0  0
   47.2963   30.0902   40.4951 H   0  0  0  0  0  0  0  0  0  0  0  0
   49.0453   31.3460   39.2186 H   0  0  0  0  0  0  0  0  0  0  0  0
   50.0279   33.4129   40.2170 H   0  0  0  0  0  0  0  0  0  0  0  0
   49.4508   36.6686   41.7456 H   0  0  0  0  0  0  0  0  0  0  0  0
   50.4351   34.4776   42.8866 H   0  0  0  0  0  0  0  0  0  0  0  0
  1  2  1  0
  3  1  1  0
  3  2  1  0
  4  1  1  0
  5  4  2  0
  6  5  1  0
  7  6  2  0
  7  8  1  0
  8  9  2  0
  9  4  1  0
 10  8  1  0
 10 11  1  0
 12 11  2  0
 13 12  1  0
 14 13  2  0
 15 14  1  0
 16 15  2  0
 16 17  1  0
 17 18  2  0
 18 13  1  0
 18 10  1  0
 19  3  1  0
 20 19  2  0
 21 20  1  0
 22 23  1  0
 22 21  2  0
 23 24  2  0
 24 27  1  0
 24 19  1  0
 25 27  1  0
 26 25  2  0
  1 28  1  1
  2 29  1  0
  2 30  1  0
  3 31  1  1
  5 32  1  0
  6 33  1  0
 11 34  1  0
 14 35  1  0
 16 36  1  0
 20 37  1  0
 21 38  1  0
 22 39  1  0
 23 40  1  0
 25 41  1  0
 27 42  1  0
M  ISO  8  28  13  29  13  30  13  31  13  32  14  33  14  34  14  35  14
M  ISO  6  36  14  37  14  38  14  39  14  40  14  41   6
M  END
>  <minimizedAffinity>  (1) 
-5.13152504

>  <minimizedRMSD>  (1) 
7.35521793

$$$$
