
     RDKit          3D

 42 46  0  0  1  0  0  0  0  0999 V2000
   42.6450   33.0410   40.1610 N   0  0  0  0  0  0  0  0  0  0  0  0
   42.4180   34.0190   41.2310 C   0  0  2  0  0  0  0  0  0  0  0  0
   41.6580   35.2090   40.7630 C   0  0  0  0  0  0  0  0  0  0  0  0
   41.0700   35.0120   39.4520 N   0  0  0  0  0  0  0  0  0  0  0  0
   41.9670   34.5430   38.4610 C   0  0  0  0  0  0  0  0  0  0  0  0
   43.1740   33.8510   39.0390 C   0  0  2  0  0  0  0  0  0  0  0  0
   43.8980   33.0610   38.1030 N   0  0  0  0  0  0  0  0  0  0  0  0
   45.1820   33.3220   37.7180 C   0  0  0  0  0  0  0  0  0  0  0  0
   45.6200   32.4290   36.8340 N   0  0  0  0  0  0  0  0  0  0  0  0
   44.5960   31.5660   36.6410 C   0  0  0  0  0  0  0  0  0  0  0  0
   44.4960   30.4500   35.8320 C   0  0  0  0  0  0  0  0  0  0  0  0
   43.3360   29.7670   35.8400 N   0  0  0  0  0  0  0  0  0  0  0  0
   42.2840   30.1540   36.6170 C   0  0  0  0  0  0  0  0  0  0  0  0
   42.3950   31.2590   37.4100 N   0  0  0  0  0  0  0  0  0  0  0  0
   43.5280   31.9750   37.4420 C   0  0  0  0  0  0  0  0  0  0  0  0
   45.8650   34.6210   42.1230 C   0  0  0  0  0  0  0  0  0  0  0  0
   45.1760   35.6910   42.6960 C   0  0  0  0  0  0  0  0  0  0  0  0
   43.8220   35.5770   42.4330 C   0  0  0  0  0  0  0  0  0  0  0  0
   43.7180   34.4600   41.7160 N   0  0  0  0  0  0  0  0  0  0  0  0
   44.9070   33.9020   41.5350 N   0  0  0  0  0  0  0  0  0  0  0  0
   49.6000   35.0350   42.1160 C   0  0  0  0  0  0  0  0  0  0  0  0
   48.2270   35.4050   41.9910 C   0  0  0  0  0  0  0  0  0  0  0  0
   47.3110   34.4040   42.2090 C   0  0  0  0  0  0  0  0  0  0  0  0
   47.7310   33.1430   42.5250 N   0  0  0  0  0  0  0  0  0  0  0  0
   49.0470   32.8410   42.6330 C   0  0  0  0  0  0  0  0  0  0  0  0
   49.9530   33.7950   42.4250 N   0  0  0  0  0  0  0  0  0  0  0  0
   43.3305   32.3304   40.4543 H   0  0  0  0  0  0  0  0  0  0  0  0
   41.8227   33.5350   42.0193 H   0  0  0  0  0  0  0  0  0  0  0  0
   40.8531   35.4190   41.4827 H   0  0  0  0  0  0  0  0  0  0  0  0
   42.3643   36.0491   40.6898 H   0  0  0  0  0  0  0  0  0  0  0  0
   40.3068   34.3263   39.5433 H   0  0  0  0  0  0  0  0  0  0  0  0
   42.3079   35.4008   37.8626 H   0  0  0  0  0  0  0  0  0  0  0  0
   41.4259   33.8052   37.8503 H   0  0  0  0  0  0  0  0  0  0  0  0
   43.9206   34.5899   39.3657 H   0  0  0  0  0  0  0  0  0  0  0  0
   45.7801   34.1659   38.0923 H   0  0  0  0  0  0  0  0  0  0  0  0
   45.3382   30.1297   35.2011 H   0  0  0  0  0  0  0  0  0  0  0  0
   41.3479   29.5765   36.6045 H   0  0  0  0  0  0  0  0  0  0  0  0
   45.6407   36.5050   43.2718 H   0  0  0  0  0  0  0  0  0  0  0  0
   43.0146   36.2556   42.7456 H   0  0  0  0  0  0  0  0  0  0  0  0
   50.3801   35.7932   41.9528 H   0  0  0  0  0  0  0  0  0  0  0  0
   47.9205   36.4301   41.7355 H   0  0  0  0  0  0  0  0  0  0  0  0
   49.3640   31.8194   42.8896 H   0  0  0  0  0  0  0  0  0  0  0  0
  1  2  1  0
  2 19  1  0
  3  2  1  0
  4  3  1  0
  5  6  1  0
  5  4  1  0
  6  1  1  0
  7  6  1  0
  8  7  1  0
  9  8  2  0
 10  9  1  0
 10 15  2  0
 11 12  2  0
 11 10  1  0
 12 13  1  0
 13 14  2  0
 14 15  1  0
 15  7  1  0
 16 23  1  0
 16 17  1  0
 18 17  2  0
 19 18  1  0
 20 19  1  0
 20 16  2  0
 21 26  2  0
 22 21  1  0
 22 23  2  0
 23 24  1  0
 24 25  2  0
 26 25  1  0
  1 27  1  0
  2 28  1  1
  3 29  1  0
  3 30  1  0
  4 31  1  0
  5 32  1  0
  5 33  1  0
  6 34  1  1
  8 35  1  0
 11 36  1  0
 13 37  1  0
 17 38  1  0
 18 39  1  0
 21 40  1  0
 22 41  1  0
 25 42  1  0
M  ISO  8  27   5  28  13  29  13  30  13  31   5  32  13  33  13  34  13
M  ISO  8  35  14  36  14  37  14  38  14  39  14  40  14  41  14  42  14
M  END
>  <minimizedAffinity>  (1) 
-5.16799402

>  <minimizedRMSD>  (1) 
1.89271605

$$$$
