
     RDKit          3D

 41 45  0  0  0  0  0  0  0  0999 V2000
   48.9850   33.3150   37.6610 Cl  0  0  0  0  0  0  0  0  0  0  0  0
   47.2410   33.1150   37.6470 C   0  0  0  0  0  0  0  0  0  0  0  0
   46.5320   33.3990   38.7670 C   0  0  0  0  0  0  0  0  0  0  0  0
   45.1830   33.0980   38.6850 C   0  0  0  0  0  0  0  0  0  0  0  0
   44.5450   32.5600   37.5920 C   0  0  0  0  0  0  0  0  0  0  0  0
   45.3030   32.2910   36.4670 C   0  0  0  0  0  0  0  0  0  0  0  0
   46.6620   32.5760   36.5070 C   0  0  0  0  0  0  0  0  0  0  0  0
   47.4080   32.2860   35.3380 N   0  0  0  0  0  0  0  0  0  0  0  0
   48.5700   32.7850   34.8970 C   0  0  0  0  0  0  0  0  0  0  0  0
   48.9480   32.2410   33.7250 N   0  0  0  0  0  0  0  0  0  0  0  0
   47.9870   31.3440   33.3870 C   0  0  0  0  0  0  0  0  0  0  0  0
   47.9190   30.5320   32.2760 C   0  0  0  0  0  0  0  0  0  0  0  0
   46.8360   29.7170   32.1780 N   0  0  0  0  0  0  0  0  0  0  0  0
   45.9030   29.7440   33.1550 C   0  0  0  0  0  0  0  0  0  0  0  0
   46.0000   30.5500   34.2300 N   0  0  0  0  0  0  0  0  0  0  0  0
   47.0450   31.3840   34.3930 C   0  0  0  0  0  0  0  0  0  0  0  0
   48.8270   35.3540   40.9650 C   0  0  0  0  0  0  0  0  0  0  0  0
   48.2280   34.8480   39.8020 C   0  0  0  0  0  0  0  0  0  0  0  0
   47.1470   33.9850   39.9260 C   0  0  0  0  0  0  0  0  0  0  0  0
   46.7270   33.6890   41.1760 N   0  0  0  0  0  0  0  0  0  0  0  0
   47.2980   34.1800   42.2860 C   0  0  0  0  0  0  0  0  0  0  0  0
   48.3550   35.0140   42.1860 N   0  0  0  0  0  0  0  0  0  0  0  0
   45.0530   35.9990   43.2830 Cl  0  0  0  0  0  0  0  0  0  0  0  0
   45.7430   34.6510   44.1600 C   0  0  0  0  0  0  0  0  0  0  0  0
   46.7670   33.8870   43.6020 C   0  0  0  0  0  0  0  0  0  0  0  0
   47.2190   32.8640   44.3650 C   0  0  0  0  0  0  0  0  0  0  0  0
   46.7280   32.5600   45.6270 C   0  0  0  0  0  0  0  0  0  0  0  0
   45.7230   33.3280   46.1510 C   0  0  0  0  0  0  0  0  0  0  0  0
   45.1940   32.8370   47.7480 Cl  0  0  0  0  0  0  0  0  0  0  0  0
   45.2300   34.3690   45.4240 C   0  0  0  0  0  0  0  0  0  0  0  0
   44.5674   33.3077   39.5722 H   0  0  0  0  0  0  0  0  0  0  0  0
   43.4654   32.3502   37.6119 H   0  0  0  0  0  0  0  0  0  0  0  0
   44.8421   31.8628   35.5646 H   0  0  0  0  0  0  0  0  0  0  0  0
   49.1496   33.5520   35.4316 H   0  0  0  0  0  0  0  0  0  0  0  0
   48.7037   30.5429   31.5053 H   0  0  0  0  0  0  0  0  0  0  0  0
   45.0293   29.0813   33.0691 H   0  0  0  0  0  0  0  0  0  0  0  0
   49.6883   36.0334   40.8833 H   0  0  0  0  0  0  0  0  0  0  0  0
   48.6079   35.1299   38.8089 H   0  0  0  0  0  0  0  0  0  0  0  0
   48.0252   32.2349   43.9596 H   0  0  0  0  0  0  0  0  0  0  0  0
   47.1401   31.7147   46.1977 H   0  0  0  0  0  0  0  0  0  0  0  0
   44.4221   34.9906   45.8374 H   0  0  0  0  0  0  0  0  0  0  0  0
  2  1  1  0
  2  3  2  0
  3 19  1  0
  4  3  1  0
  5  4  2  0
  6  7  2  0
  6  5  1  0
  7  2  1  0
  8  7  1  0
  9  8  1  0
 10  9  2  0
 11 10  1  0
 11 16  2  0
 12 11  1  0
 13 12  2  0
 13 14  1  0
 14 15  2  0
 15 16  1  0
 16  8  1  0
 17 22  2  0
 18 19  2  0
 18 17  1  0
 19 20  1  0
 20 21  2  0
 21 25  1  0
 22 21  1  0
 23 24  1  0
 24 30  2  0
 25 24  1  0
 25 26  2  0
 26 27  1  0
 27 28  2  0
 28 29  1  0
 30 28  1  0
  4 31  1  0
  5 32  1  0
  6 33  1  0
  9 34  1  0
 12 35  1  0
 14 36  1  0
 17 37  1  0
 18 38  1  0
 26 39  1  0
 27 40  1  0
 30 41  1  0
M  END
>  <minimizedAffinity>  (1) 
-7.19384527

>  <minimizedRMSD>  (1) 
0.698943436

$$$$
