
     RDKit          3D

 37 40  0  0  0  0  0  0  0  0999 V2000
   44.6180   36.2610   43.9480 C   0  0  0  0  0  0  0  0  0  0  0  0
   44.7860   35.4480   45.0800 C   0  0  0  0  0  0  0  0  0  0  0  0
   45.4700   34.2490   44.9190 C   0  0  0  0  0  0  0  0  0  0  0  0
   45.9420   33.9130   43.6900 N   0  0  0  0  0  0  0  0  0  0  0  0
   45.7610   34.7270   42.6080 C   0  0  0  0  0  0  0  0  0  0  0  0
   45.1000   35.8970   42.7430 N   0  0  0  0  0  0  0  0  0  0  0  0
   48.5270   35.6930   42.0260 Cl  0  0  0  0  0  0  0  0  0  0  0  0
   47.5570   34.7140   40.9470 C   0  0  0  0  0  0  0  0  0  0  0  0
   46.2930   34.3170   41.3040 C   0  0  0  0  0  0  0  0  0  0  0  0
   45.4950   33.5400   40.4740 C   0  0  0  0  0  0  0  0  0  0  0  0
   46.0620   33.1900   39.2560 C   0  0  0  0  0  0  0  0  0  0  0  0
   47.3180   33.5790   38.8880 C   0  0  0  0  0  0  0  0  0  0  0  0
   48.0720   34.3390   39.7230 C   0  0  0  0  0  0  0  0  0  0  0  0
   45.6570   33.4080   46.1070 C   0  0  0  0  0  0  0  0  0  0  0  0
   46.5230   32.1900   45.8510 C   0  0  0  0  0  0  0  0  0  0  0  0
   47.2690   31.8050   47.0210 N   0  0  0  0  0  0  0  0  0  0  0  0
   47.5430   32.3980   48.1750 C   0  0  0  0  0  0  0  0  0  0  0  0
   48.3060   31.5770   48.9510 N   0  0  0  0  0  0  0  0  0  0  0  0
   48.5160   30.4420   48.2670 C   0  0  0  0  0  0  0  0  0  0  0  0
   49.2100   29.3020   48.5850 C   0  0  0  0  0  0  0  0  0  0  0  0
   49.2740   28.2820   47.7090 N   0  0  0  0  0  0  0  0  0  0  0  0
   48.6440   28.4140   46.5310 C   0  0  0  0  0  0  0  0  0  0  0  0
   47.9620   29.5290   46.2150 N   0  0  0  0  0  0  0  0  0  0  0  0
   47.8650   30.5900   47.0600 C   0  0  0  0  0  0  0  0  0  0  0  0
   44.0812   37.2161   44.0465 H   0  0  0  0  0  0  0  0  0  0  0  0
   44.3898   35.7496   46.0608 H   0  0  0  0  0  0  0  0  0  0  0  0
   44.4818   33.2233   40.7624 H   0  0  0  0  0  0  0  0  0  0  0  0
   45.4752   32.5739   38.5587 H   0  0  0  0  0  0  0  0  0  0  0  0
   47.7208   33.2752   37.9105 H   0  0  0  0  0  0  0  0  0  0  0  0
   49.0838   34.6528   39.4266 H   0  0  0  0  0  0  0  0  0  0  0  0
   46.1314   34.0145   46.8926 H   0  0  0  0  0  0  0  0  0  0  0  0
   44.6635   33.0434   46.4070 H   0  0  0  0  0  0  0  0  0  0  0  0
   45.8775   31.3520   45.5493 H   0  0  0  0  0  0  0  0  0  0  0  0
   47.2412   32.4436   45.0574 H   0  0  0  0  0  0  0  0  0  0  0  0
   47.2045   33.4041   48.4636 H   0  0  0  0  0  0  0  0  0  0  0  0
   49.7156   29.2213   49.5586 H   0  0  0  0  0  0  0  0  0  0  0  0
   48.6868   27.5885   45.8052 H   0  0  0  0  0  0  0  0  0  0  0  0
  1  2  2  0
  3  2  1  0
  3 14  1  0
  4  3  2  0
  5  6  2  0
  5  4  1  0
  6  1  1  0
  8  9  2  0
  8  7  1  0
  9  5  1  0
 10  9  1  0
 11 10  2  0
 12 11  1  0
 12 13  2  0
 13  8  1  0
 15 14  1  0
 15 16  1  0
 16 24  1  0
 16 17  1  0
 17 18  2  0
 19 20  2  0
 19 18  1  0
 21 20  1  0
 22 21  2  0
 23 22  1  0
 23 24  2  0
 24 19  1  0
  1 25  1  0
  2 26  1  0
 10 27  1  0
 11 28  1  0
 12 29  1  0
 13 30  1  0
 14 31  1  0
 14 32  1  0
 15 33  1  0
 15 34  1  0
 17 35  1  0
 20 36  1  0
 22 37  1  0
M  ISO  8  25  14  26  14  27  14  28  14  29  14  30  14  31   8  32   8
M  ISO  5  33   8  34   8  35  14  36  14  37  14
M  END
>  <minimizedAffinity>  (1) 
-5.88228655

>  <minimizedRMSD>  (1) 
0.515794516

$$$$
