
     RDKit          3D

 44 49  0  0  1  0  0  0  0  0999 V2000
   46.5150   32.4220   46.0590 C   0  0  1  0  0  0  0  0  0  0  0  0
   46.8860   32.6830   47.4580 C   0  0  0  0  0  0  0  0  0  0  0  0
   45.5300   32.0000   47.0310 C   0  0  2  0  0  0  0  0  0  0  0  0
   45.2590   30.6140   47.4230 C   0  0  0  0  0  0  0  0  0  0  0  0
   45.1230   30.1200   48.6820 C   0  0  0  0  0  0  0  0  0  0  0  0
   44.9900   28.7800   49.0160 C   0  0  0  0  0  0  0  0  0  0  0  0
   44.9990   27.8660   47.9530 C   0  0  0  0  0  0  0  0  0  0  0  0
   45.1340   28.3450   46.6500 C   0  0  0  0  0  0  0  0  0  0  0  0
   45.0740   27.4150   45.6310 C   0  0  0  0  0  0  0  0  0  0  0  0
   45.1330   27.8550   44.3140 C   0  0  0  0  0  0  0  0  0  0  0  0
   45.2450   29.1970   44.0240 C   0  0  0  0  0  0  0  0  0  0  0  0
   45.3020   30.0820   45.0750 C   0  0  0  0  0  0  0  0  0  0  0  0
   45.2570   29.6920   46.4060 C   0  0  0  0  0  0  0  0  0  0  0  0
   44.8410   35.3560   44.5740 C   0  0  0  0  0  0  0  0  0  0  0  0
   45.5960   35.5580   43.3630 C   0  0  0  0  0  0  0  0  0  0  0  0
   46.6840   34.6580   43.1070 C   0  0  0  0  0  0  0  0  0  0  0  0
   46.9530   33.6880   43.9830 N   0  0  0  0  0  0  0  0  0  0  0  0
   46.1950   33.5430   45.1270 C   0  0  0  0  0  0  0  0  0  0  0  0
   45.1770   34.3490   45.4090 N   0  0  0  0  0  0  0  0  0  0  0  0
   47.4350   34.8510   41.9110 N   0  0  0  0  0  0  0  0  0  0  0  0
   48.5180   35.6250   41.7000 C   0  0  0  0  0  0  0  0  0  0  0  0
   48.9500   35.5470   40.4320 N   0  0  0  0  0  0  0  0  0  0  0  0
   48.1230   34.6890   39.7840 C   0  0  0  0  0  0  0  0  0  0  0  0
   48.0380   34.2000   38.4980 C   0  0  0  0  0  0  0  0  0  0  0  0
   47.0570   33.3250   38.1600 N   0  0  0  0  0  0  0  0  0  0  0  0
   46.1470   32.9170   39.0780 C   0  0  0  0  0  0  0  0  0  0  0  0
   46.2140   33.3890   40.3540 N   0  0  0  0  0  0  0  0  0  0  0  0
   47.1710   34.2510   40.7120 C   0  0  0  0  0  0  0  0  0  0  0  0
   47.0398   31.9022   45.2439 H   0  0  0  0  0  0  0  0  0  0  0  0
   47.6787   32.0963   47.9452 H   0  0  0  0  0  0  0  0  0  0  0  0
   47.1854   33.5579   48.0538 H   0  0  0  0  0  0  0  0  0  0  0  0
   44.4494   32.1761   47.1375 H   0  0  0  0  0  0  0  0  0  0  0  0
   45.1179   30.8461   49.5083 H   0  0  0  0  0  0  0  0  0  0  0  0
   44.8831   28.4518   50.0604 H   0  0  0  0  0  0  0  0  0  0  0  0
   44.9010   26.7871   48.1437 H   0  0  0  0  0  0  0  0  0  0  0  0
   44.9810   26.3427   45.8581 H   0  0  0  0  0  0  0  0  0  0  0  0
   45.0898   27.1233   43.4938 H   0  0  0  0  0  0  0  0  0  0  0  0
   45.2876   29.5501   42.9831 H   0  0  0  0  0  0  0  0  0  0  0  0
   45.3877   31.1551   44.8488 H   0  0  0  0  0  0  0  0  0  0  0  0
   43.9965   36.0178   44.8166 H   0  0  0  0  0  0  0  0  0  0  0  0
   45.3481   36.3696   42.6630 H   0  0  0  0  0  0  0  0  0  0  0  0
   48.9912   36.2463   42.4746 H   0  0  0  0  0  0  0  0  0  0  0  0
   48.7693   34.5207   37.7415 H   0  0  0  0  0  0  0  0  0  0  0  0
   45.3567   32.2068   38.7934 H   0  0  0  0  0  0  0  0  0  0  0  0
  1  3  1  0
  1  2  1  0
  3  4  1  0
  3  2  1  0
  4  5  2  0
  5  6  1  0
  7  6  2  0
  8  7  1  0
  9  8  2  0
 10  9  1  0
 11 10  2  0
 11 12  1  0
 12 13  2  0
 13  8  1  0
 13  4  1  0
 14 19  2  0
 15 14  1  0
 16 15  2  0
 16 17  1  0
 17 18  2  0
 18 19  1  0
 18  1  1  0
 20 16  1  0
 21 20  1  0
 22 21  2  0
 23 22  1  0
 23 28  2  0
 24 23  1  0
 25 24  2  0
 25 26  1  0
 26 27  2  0
 27 28  1  0
 28 20  1  0
  1 29  1  6
  2 30  1  0
  2 31  1  0
  3 32  1  6
  5 33  1  0
  6 34  1  0
  7 35  1  0
  9 36  1  0
 10 37  1  0
 11 38  1  0
 12 39  1  0
 14 40  1  0
 15 41  1  0
 21 42  1  0
 24 43  1  0
 26 44  1  0
M  ISO  8  29  13  30  13  31  13  32  13  33  14  34  14  35  14  36  14
M  ISO  8  37  14  38  14  39  14  40  14  41  14  42  14  43  14  44  14
M  END
>  <minimizedAffinity>  (1) 
-6.23869324

>  <minimizedRMSD>  (1) 
0.996984959

$$$$
