
     RDKit          3D

 45 48  0  0  0  0  0  0  0  0999 V2000
   45.3510   33.4360   41.1610 F   0  0  0  0  0  0  0  0  0  0  0  0
   46.5050   34.0890   41.0590 C   0  0  0  0  0  0  0  0  0  0  0  0
   46.9190   34.8500   42.1320 C   0  0  0  0  0  0  0  0  0  0  0  0
   48.1250   35.5820   42.1320 C   0  0  0  0  0  0  0  0  0  0  0  0
   48.9370   35.5300   40.9870 C   0  0  0  0  0  0  0  0  0  0  0  0
   48.4740   34.7560   39.9460 C   0  0  0  0  0  0  0  0  0  0  0  0
   47.3230   34.0540   39.9370 C   0  0  0  0  0  0  0  0  0  0  0  0
   45.5060   33.9720   45.3970 C   0  0  0  0  0  0  0  0  0  0  0  0
   44.6180   35.0520   45.6330 C   0  0  0  0  0  0  0  0  0  0  0  0
   44.5130   36.0830   44.6530 C   0  0  0  0  0  0  0  0  0  0  0  0
   45.2920   35.9560   43.5340 N   0  0  0  0  0  0  0  0  0  0  0  0
   46.1080   34.9310   43.3540 C   0  0  0  0  0  0  0  0  0  0  0  0
   46.2160   33.9490   44.2730 N   0  0  0  0  0  0  0  0  0  0  0  0
   45.5810   32.9780   46.3860 N   0  0  0  0  0  0  0  0  0  0  0  0
   46.9690   33.3210   38.8420 O   0  0  0  0  0  0  0  0  0  0  0  0
   48.0720   34.8010   36.9470 O   0  0  0  0  0  0  0  0  0  0  0  0
   47.6490   33.3860   37.3160 P   0  0  2  0  0  0  0  0  0  0  0  0
   46.5360   32.8220   36.1600 O   0  0  0  0  0  0  0  0  0  0  0  0
   45.2880   32.3130   36.4900 C   0  0  0  0  0  0  0  0  0  0  0  0
   44.5950   32.6430   37.6150 N   0  0  0  0  0  0  0  0  0  0  0  0
   43.3760   32.0950   37.8570 C   0  0  0  0  0  0  0  0  0  0  0  0
   42.8230   31.2180   36.9980 N   0  0  0  0  0  0  0  0  0  0  0  0
   43.4640   30.8580   35.8720 C   0  0  0  0  0  0  0  0  0  0  0  0
   42.9210   29.9500   34.9570 C   0  0  0  0  0  0  0  0  0  0  0  0
   43.6040   29.5910   33.7950 C   0  0  0  0  0  0  0  0  0  0  0  0
   44.8560   30.1350   33.5190 C   0  0  0  0  0  0  0  0  0  0  0  0
   45.3310   31.0220   34.4610 C   0  0  0  0  0  0  0  0  0  0  0  0
   44.7030   31.4140   35.6250 C   0  0  0  0  0  0  0  0  0  0  0  0
   49.0010   32.3780   37.1510 O   0  0  0  0  0  0  0  0  0  0  0  0
   48.6310   31.0300   37.3450 C   0  0  0  0  0  0  0  0  0  0  0  0
   48.3010   30.5670   36.0740 F   0  0  0  0  0  0  0  0  0  0  0  0
   49.7050   30.2900   37.7850 F   0  0  0  0  0  0  0  0  0  0  0  0
   47.6090   30.8610   38.2360 F   0  0  0  0  0  0  0  0  0  0  0  0
   48.4221   36.1787   43.0070 H   0  0  0  0  0  0  0  0  0  0  0  0
   49.8894   36.0769   40.9252 H   0  0  0  0  0  0  0  0  0  0  0  0
   49.0986   34.7062   39.0419 H   0  0  0  0  0  0  0  0  0  0  0  0
   44.0206   35.0940   46.5557 H   0  0  0  0  0  0  0  0  0  0  0  0
   43.8376   36.9404   44.7898 H   0  0  0  0  0  0  0  0  0  0  0  0
   46.2116   32.1733   46.2606 H   0  0  0  0  0  0  0  0  0  0  0  0
   45.0054   33.0536   47.2368 H   0  0  0  0  0  0  0  0  0  0  0  0
   42.8308   32.3727   38.7711 H   0  0  0  0  0  0  0  0  0  0  0  0
   41.9335   29.5093   35.1583 H   0  0  0  0  0  0  0  0  0  0  0  0
   43.1516   28.8748   33.0933 H   0  0  0  0  0  0  0  0  0  0  0  0
   45.4250   29.8754   32.6141 H   0  0  0  0  0  0  0  0  0  0  0  0
   46.3180   31.4655   34.2631 H   0  0  0  0  0  0  0  0  0  0  0  0
  2  1  1  0
  2  3  2  0
  3 12  1  0
  4  3  1  0
  5  4  2  0
  6  5  1  0
  7  6  2  0
  7  2  1  0
  8  9  2  0
  8 14  1  0
 10  9  1  0
 11 10  2  0
 12 11  1  0
 12 13  2  0
 13  8  1  0
 15  7  1  0
 17 16  2  0
 17 15  1  0
 18 19  1  0
 18 17  1  0
 19 20  2  0
 20 21  1  0
 22 21  2  0
 23 22  1  0
 24 23  2  0
 25 24  1  0
 26 25  2  0
 26 27  1  0
 27 28  2  0
 28 23  1  0
 28 19  1  0
 29 17  1  0
 29 30  1  0
 30 32  1  0
 30 33  1  0
 31 30  1  0
  4 34  1  0
  5 35  1  0
  6 36  1  0
  9 37  1  0
 10 38  1  0
 14 39  1  0
 14 40  1  0
 21 41  1  0
 24 42  1  0
 25 43  1  0
 26 44  1  0
 27 45  1  0
M  ISO  8  34  14  35  14  36  14  37  14  38  14  41  14  42  14  43  14
M  ISO  2  44  14  45  14
M  END
>  <minimizedAffinity>  (1) 
-6.36798143

>  <minimizedRMSD>  (1) 
1.2501477

$$$$
