
     RDKit          3D

 38 41  0  0  1  0  0  0  0  0999 V2000
   47.4510   34.3320   42.4870 N   0  0  0  0  0  0  0  0  0  0  0  0
   47.7670   35.1340   41.3310 C   0  0  0  0  0  0  0  0  0  0  0  0
   47.8140   34.0390   40.3080 C   0  0  2  0  0  0  0  0  0  0  0  0
   48.7200   33.0380   40.9690 C   0  0  0  0  0  0  0  0  0  0  0  0
   48.3290   33.1740   42.4290 C   0  0  0  0  0  0  0  0  0  0  0  0
   48.4700   34.4610   39.0840 N   0  0  0  0  0  0  0  0  0  0  0  0
   48.0810   33.7720   37.9100 C   0  0  0  0  0  0  0  0  0  0  0  0
   48.9460   33.6120   36.9050 N   0  0  0  0  0  0  0  0  0  0  0  0
   48.5860   32.9580   35.7830 C   0  0  0  0  0  0  0  0  0  0  0  0
   47.3620   32.4250   35.5790 N   0  0  0  0  0  0  0  0  0  0  0  0
   46.4640   32.5710   36.5780 C   0  0  0  0  0  0  0  0  0  0  0  0
   45.2130   32.0290   36.3780 C   0  0  0  0  0  0  0  0  0  0  0  0
   44.2990   32.1800   37.4000 C   0  0  0  0  0  0  0  0  0  0  0  0
   44.5940   32.8420   38.5870 C   0  0  0  0  0  0  0  0  0  0  0  0
   45.8750   33.3510   38.6960 C   0  0  0  0  0  0  0  0  0  0  0  0
   46.8230   33.2380   37.7300 C   0  0  0  0  0  0  0  0  0  0  0  0
   44.6470   35.5560   44.6010 C   0  0  0  0  0  0  0  0  0  0  0  0
   45.5040   35.4760   43.5090 C   0  0  0  0  0  0  0  0  0  0  0  0
   46.5140   34.5260   43.5170 C   0  0  0  0  0  0  0  0  0  0  0  0
   46.6070   33.7060   44.6270 N   0  0  0  0  0  0  0  0  0  0  0  0
   45.7680   33.7980   45.6760 C   0  0  0  0  0  0  0  0  0  0  0  0
   44.7780   34.7340   45.6600 N   0  0  0  0  0  0  0  0  0  0  0  0
   46.9820   35.8728   41.1118 H   0  0  0  0  0  0  0  0  0  0  0  0
   48.6733   35.7522   41.4114 H   0  0  0  0  0  0  0  0  0  0  0  0
   46.8076   33.6897   40.0339 H   0  0  0  0  0  0  0  0  0  0  0  0
   48.5297   32.0203   40.5975 H   0  0  0  0  0  0  0  0  0  0  0  0
   49.7890   33.2135   40.7780 H   0  0  0  0  0  0  0  0  0  0  0  0
   47.8001   32.2724   42.7714 H   0  0  0  0  0  0  0  0  0  0  0  0
   49.2084   33.2943   43.0787 H   0  0  0  0  0  0  0  0  0  0  0  0
   49.1733   35.2134   39.0704 H   0  0  0  0  0  0  0  0  0  0  0  0
   49.3350   32.8518   34.9844 H   0  0  0  0  0  0  0  0  0  0  0  0
   44.9556   31.5012   35.4479 H   0  0  0  0  0  0  0  0  0  0  0  0
   43.2915   31.7579   37.2703 H   0  0  0  0  0  0  0  0  0  0  0  0
   43.8522   32.9540   39.3915 H   0  0  0  0  0  0  0  0  0  0  0  0
   46.1428   33.8802   39.6224 H   0  0  0  0  0  0  0  0  0  0  0  0
   43.8438   36.3076   44.6000 H   0  0  0  0  0  0  0  0  0  0  0  0
   45.3827   36.1555   42.6525 H   0  0  0  0  0  0  0  0  0  0  0  0
   45.8807   33.1238   46.5379 H   0  0  0  0  0  0  0  0  0  0  0  0
  1 19  1  0
  2  1  1  0
  3  4  1  0
  3  2  1  0
  4  5  1  0
  5  1  1  0
  6  3  1  0
  7  6  1  0
  8  7  2  0
  9  8  1  0
 10  9  2  0
 10 11  1  0
 11 16  2  0
 12 11  1  0
 12 13  2  0
 13 14  1  0
 14 15  2  0
 16  7  1  0
 16 15  1  0
 17 22  2  0
 18 19  2  0
 18 17  1  0
 19 20  1  0
 20 21  2  0
 22 21  1  0
  2 23  1  0
  2 24  1  0
  3 25  1  6
  4 26  1  0
  4 27  1  0
  5 28  1  0
  5 29  1  0
  6 30  1  0
  9 31  1  0
 12 32  1  0
 13 33  1  0
 14 34  1  0
 15 35  1  0
 17 36  1  0
 18 37  1  0
 21 38  1  0
M  ISO  8  23  13  24  13  25  13  26  13  27  13  28  13  29  13  31  14
M  ISO  7  32  14  33  14  34  14  35  14  36  14  37  14  38  14
M  END
>  <minimizedAffinity>  (1) 
-5.67888641

>  <minimizedRMSD>  (1) 
0.748993576

$$$$
