
     RDKit          3D

 48 51  0  0  0  0  0  0  0  0999 V2000
   41.6170   35.7460   41.1860 C   0  0  0  0  0  0  0  0  0  0  0  0
   40.9290   33.4020   41.3080 C   0  0  0  0  0  0  0  0  0  0  0  0
   40.5830   34.7040   40.8690 C   0  0  0  0  0  0  0  0  0  0  0  0
   39.3980   34.8350   40.2330 C   0  0  0  0  0  0  0  0  0  0  0  0
   38.6550   33.7560   40.0670 N   0  0  0  0  0  0  0  0  0  0  0  0
   38.9680   32.5490   40.4690 C   0  0  0  0  0  0  0  0  0  0  0  0
   40.1550   32.3250   41.1260 N   0  0  0  0  0  0  0  0  0  0  0  0
   38.2170   31.2770   40.3370 C   0  0  0  0  0  0  0  0  0  0  0  0
   37.4560   30.7460   41.3280 N   0  0  0  0  0  0  0  0  0  0  0  0
   36.7710   29.6210   41.2600 C   0  0  0  0  0  0  0  0  0  0  0  0
   36.7900   28.8840   40.1210 N   0  0  0  0  0  0  0  0  0  0  0  0
   37.5220   29.3180   39.0510 C   0  0  0  0  0  0  0  0  0  0  0  0
   37.5330   28.5630   37.9000 C   0  0  0  0  0  0  0  0  0  0  0  0
   38.2620   28.9740   36.8040 C   0  0  0  0  0  0  0  0  0  0  0  0
   38.9550   30.1570   36.9390 C   0  0  0  0  0  0  0  0  0  0  0  0
   38.9110   30.8760   38.1130 C   0  0  0  0  0  0  0  0  0  0  0  0
   38.2040   30.4990   39.2080 C   0  0  0  0  0  0  0  0  0  0  0  0
   42.8380   35.4520   40.6540 O   0  0  0  0  0  0  0  0  0  0  0  0
   44.0480   35.3110   41.3090 C   0  0  0  0  0  0  0  0  0  0  0  0
   44.0540   35.6420   42.5950 C   0  0  0  0  0  0  0  0  0  0  0  0
   45.2550   35.5700   43.5210 C   0  0  0  0  0  0  0  0  0  0  0  0
   44.9810   34.5960   44.4630 O   0  0  0  0  0  0  0  0  0  0  0  0
   45.6580   32.4670   43.0280 O   0  0  0  0  0  0  0  0  0  0  0  0
   45.9940   33.2620   44.2680 P   0  0  1  0  0  0  0  0  0  0  0  0
   47.6120   33.7530   44.1050 O   0  0  0  0  0  0  0  0  0  0  0  0
   45.9020   32.2750   45.6350 O   0  0  0  0  0  0  0  0  0  0  0  0
   46.1960   32.9620   46.7960 C   0  0  0  0  0  0  0  0  0  0  0  0
   47.0560   32.3130   47.8340 C   0  0  0  0  0  0  0  0  0  0  0  0
   45.5520   32.4010   48.0440 C   0  0  0  0  0  0  0  0  0  0  0  0
   41.2797   36.7116   40.7814 H   0  0  0  0  0  0  0  0  0  0  0  0
   41.7298   35.7816   42.2796 H   0  0  0  0  0  0  0  0  0  0  0  0
   41.8889   33.2685   41.8283 H   0  0  0  0  0  0  0  0  0  0  0  0
   39.0611   35.8147   39.8633 H   0  0  0  0  0  0  0  0  0  0  0  0
   36.1847   29.2805   42.1262 H   0  0  0  0  0  0  0  0  0  0  0  0
   36.9572   27.6269   37.8543 H   0  0  0  0  0  0  0  0  0  0  0  0
   38.2887   28.3892   35.8727 H   0  0  0  0  0  0  0  0  0  0  0  0
   39.5529   30.5333   36.0959 H   0  0  0  0  0  0  0  0  0  0  0  0
   39.4842   31.8133   38.1661 H   0  0  0  0  0  0  0  0  0  0  0  0
   44.9503   34.9469   40.7959 H   0  0  0  0  0  0  0  0  0  0  0  0
   43.1073   35.9991   43.0265 H   0  0  0  0  0  0  0  0  0  0  0  0
   46.1563   35.3010   42.9506 H   0  0  0  0  0  0  0  0  0  0  0  0
   45.4381   36.5418   44.0028 H   0  0  0  0  0  0  0  0  0  0  0  0
   48.0120   33.8744   45.0024 H   0  0  0  0  0  0  0  0  0  0  0  0
   46.2439   33.9367   46.2884 H   0  0  0  0  0  0  0  0  0  0  0  0
   47.5262   31.3401   47.6282 H   0  0  0  0  0  0  0  0  0  0  0  0
   47.9404   32.6188   48.4122 H   0  0  0  0  0  0  0  0  0  0  0  0
   45.1392   33.0792   48.8053 H   0  0  0  0  0  0  0  0  0  0  0  0
   44.7472   31.6811   48.2540 H   0  0  0  0  0  0  0  0  0  0  0  0
  3  1  1  0
  3  2  2  0
  4  3  1  0
  5  4  2  0
  5  6  1  0
  6  7  2  0
  7  2  1  0
  8  6  1  0
  8  9  2  0
 10  9  1  0
 11 10  2  0
 12 17  2  0
 12 11  1  0
 13 12  1  0
 14 15  1  0
 14 13  2  0
 15 16  2  0
 16 17  1  0
 17  8  1  0
 18  1  1  0
 18 19  1  0
 19 20  2  0
 20 21  1  0
 21 22  1  0
 24 23  2  0
 24 22  1  0
 24 26  1  0
 25 24  1  0
 26 27  1  0
 27 28  1  0
 27 29  1  0
 28 29  1  0
  1 30  1  0
  1 31  1  0
  2 32  1  0
  4 33  1  0
 10 34  1  0
 13 35  1  0
 14 36  1  0
 15 37  1  0
 16 38  1  0
 19 39  1  0
 20 40  1  0
 21 41  1  0
 21 42  1  0
 25 43  1  0
 27 44  1  0
 28 45  1  0
 28 46  1  0
 29 47  1  0
 29 48  1  0
M  ISO  8  30   8  31   8  32  14  33  14  34  14  35  14  36  14  37  14
M  ISO  8  38  14  41   8  42   8  43   3  44  13  45  13  46  13  47  13
M  ISO  1  48  13
M  END
>  <minimizedAffinity>  (1) 
-5.68821669

>  <minimizedRMSD>  (1) 
1.15577853

$$$$
