
     RDKit          3D

 42 45  0  0  0  0  0  0  0  0999 V2000
   45.1450   33.3470   41.2030 F   0  0  0  0  0  0  0  0  0  0  0  0
   46.3180   33.9700   41.0480 C   0  0  0  0  0  0  0  0  0  0  0  0
   46.8010   34.7500   42.0780 C   0  0  0  0  0  0  0  0  0  0  0  0
   48.0180   35.4330   42.0000 C   0  0  0  0  0  0  0  0  0  0  0  0
   48.7850   35.3320   40.8390 C   0  0  0  0  0  0  0  0  0  0  0  0
   48.2570   34.5360   39.8330 C   0  0  0  0  0  0  0  0  0  0  0  0
   47.0760   33.8650   39.8930 C   0  0  0  0  0  0  0  0  0  0  0  0
   45.4440   34.0260   45.4080 C   0  0  0  0  0  0  0  0  0  0  0  0
   44.6180   35.1500   45.6340 C   0  0  0  0  0  0  0  0  0  0  0  0
   44.5320   36.1570   44.6350 C   0  0  0  0  0  0  0  0  0  0  0  0
   45.2700   35.9610   43.5020 N   0  0  0  0  0  0  0  0  0  0  0  0
   46.0400   34.8870   43.3210 C   0  0  0  0  0  0  0  0  0  0  0  0
   46.1220   33.9340   44.2650 N   0  0  0  0  0  0  0  0  0  0  0  0
   45.5130   33.0420   46.4150 N   0  0  0  0  0  0  0  0  0  0  0  0
   46.6610   33.1130   38.8350 O   0  0  0  0  0  0  0  0  0  0  0  0
   47.8840   34.5620   36.9900 O   0  0  0  0  0  0  0  0  0  0  0  0
   46.9040   33.4440   37.2000 P   0  0  2  0  0  0  0  0  0  0  0  0
   45.3880   33.8420   36.5090 O   0  0  0  0  0  0  0  0  0  0  0  0
   47.4270   32.0900   36.3340 O   0  0  0  0  0  0  0  0  0  0  0  0
   47.8770   32.0610   35.0440 C   0  0  0  0  0  0  0  0  0  0  0  0
   48.7670   32.8550   34.4250 N   0  0  0  0  0  0  0  0  0  0  0  0
   49.1060   32.6970   33.1400 C   0  0  0  0  0  0  0  0  0  0  0  0
   48.5530   31.7050   32.3890 N   0  0  0  0  0  0  0  0  0  0  0  0
   47.6560   30.8750   32.9460 C   0  0  0  0  0  0  0  0  0  0  0  0
   47.1330   29.8900   32.1320 C   0  0  0  0  0  0  0  0  0  0  0  0
   46.2080   29.0170   32.6670 C   0  0  0  0  0  0  0  0  0  0  0  0
   45.8340   29.1510   33.9920 C   0  0  0  0  0  0  0  0  0  0  0  0
   46.3870   30.1520   34.7600 C   0  0  0  0  0  0  0  0  0  0  0  0
   47.3250   31.0550   34.2590 C   0  0  0  0  0  0  0  0  0  0  0  0
   48.3675   36.0439   42.8454 H   0  0  0  0  0  0  0  0  0  0  0  0
   49.7484   35.8512   40.7282 H   0  0  0  0  0  0  0  0  0  0  0  0
   48.8440   34.4394   38.9077 H   0  0  0  0  0  0  0  0  0  0  0  0
   44.0491   35.2442   46.5708 H   0  0  0  0  0  0  0  0  0  0  0  0
   43.9028   37.0495   44.7673 H   0  0  0  0  0  0  0  0  0  0  0  0
   46.1056   32.2100   46.2824 H   0  0  0  0  0  0  0  0  0  0  0  0
   44.9708   33.1550   47.2834 H   0  0  0  0  0  0  0  0  0  0  0  0
   44.7318   34.0143   37.2299 H   0  0  0  0  0  0  0  0  0  0  0  0
   49.8408   33.3773   32.6847 H   0  0  0  0  0  0  0  0  0  0  0  0
   47.4465   29.8032   31.0812 H   0  0  0  0  0  0  0  0  0  0  0  0
   45.7718   28.2213   32.0452 H   0  0  0  0  0  0  0  0  0  0  0  0
   45.0980   28.4611   34.4306 H   0  0  0  0  0  0  0  0  0  0  0  0
   46.0763   30.2430   35.8113 H   0  0  0  0  0  0  0  0  0  0  0  0
  2  1  1  0
  2  3  2  0
  3 12  1  0
  4  3  1  0
  5  4  2  0
  6  7  2  0
  6  5  1  0
  7  2  1  0
  8  9  2  0
  8 14  1  0
 10  9  1  0
 11 10  2  0
 12 11  1  0
 12 13  2  0
 13  8  1  0
 15  7  1  0
 17 16  2  0
 17 15  1  0
 18 17  1  0
 19 17  1  0
 20 19  1  0
 21 20  2  0
 22 21  1  0
 23 24  1  0
 23 22  2  0
 24 29  2  0
 25 26  2  0
 25 24  1  0
 26 27  1  0
 27 28  2  0
 29 28  1  0
 29 20  1  0
  4 30  1  0
  5 31  1  0
  6 32  1  0
  9 33  1  0
 10 34  1  0
 14 35  1  0
 14 36  1  0
 18 37  1  0
 22 38  1  0
 25 39  1  0
 26 40  1  0
 27 41  1  0
 28 42  1  0
M  ISO  8  30  14  31  14  32  14  33  14  34  14  37   3  38  14  39  14
M  ISO  3  40  14  41  14  42  14
M  END
>  <minimizedAffinity>  (1) 
-7.41285324

>  <minimizedRMSD>  (1) 
1.16270792

$$$$
