
     RDKit          3D

 49 54  0  0  0  0  0  0  0  0999 V2000
   49.7770   30.2110   49.4250 C   0  0  0  0  0  0  0  0  0  0  0  0
   50.0180   31.3840   50.0810 N   0  0  0  0  0  0  0  0  0  0  0  0
   50.6700   31.4500   51.2440 C   0  0  0  0  0  0  0  0  0  0  0  0
   51.1070   30.3050   51.7940 N   0  0  0  0  0  0  0  0  0  0  0  0
   50.9180   29.1080   51.2240 C   0  0  0  0  0  0  0  0  0  0  0  0
   51.3770   27.9220   51.7650 C   0  0  0  0  0  0  0  0  0  0  0  0
   51.1670   26.7180   51.1170 C   0  0  0  0  0  0  0  0  0  0  0  0
   50.4860   26.6400   49.8960 C   0  0  0  0  0  0  0  0  0  0  0  0
   50.0430   27.8500   49.3910 C   0  0  0  0  0  0  0  0  0  0  0  0
   50.2410   29.0540   50.0160 C   0  0  0  0  0  0  0  0  0  0  0  0
   49.2680   27.5350   48.1980 C   0  0  0  0  0  0  0  0  0  0  0  0
   47.9300   27.3890   47.9570 N   0  0  0  0  0  0  0  0  0  0  0  0
   47.5050   27.0970   46.7010 C   0  0  0  0  0  0  0  0  0  0  0  0
   48.3180   26.9320   45.6290 N   0  0  0  0  0  0  0  0  0  0  0  0
   49.6440   27.0680   45.8170 C   0  0  0  0  0  0  0  0  0  0  0  0
   50.4400   26.9170   44.7170 C   0  0  0  0  0  0  0  0  0  0  0  0
   51.7900   27.0620   44.8330 C   0  0  0  0  0  0  0  0  0  0  0  0
   52.3620   27.3610   46.0590 C   0  0  0  0  0  0  0  0  0  0  0  0
   51.4920   27.4950   47.1160 C   0  0  0  0  0  0  0  0  0  0  0  0
   50.1130   27.3660   47.0910 C   0  0  0  0  0  0  0  0  0  0  0  0
   48.9260   30.0950   47.8800 S   0  0  0  0  0  0  0  0  0  0  0  0
   46.0470   32.7320   46.8910 C   0  0  0  0  0  0  0  0  0  0  0  0
   47.1600   31.9460   46.9200 C   0  0  0  0  0  0  0  0  0  0  0  0
   47.4220   31.0670   47.9490 C   0  0  0  0  0  0  0  0  0  0  0  0
   46.5270   30.9560   49.0220 C   0  0  0  0  0  0  0  0  0  0  0  0
   45.4110   31.7220   49.0200 C   0  0  0  0  0  0  0  0  0  0  0  0
   45.1820   32.5940   47.9690 C   0  0  0  0  0  0  0  0  0  0  0  0
   44.5650   35.5030   45.0360 C   0  0  0  0  0  0  0  0  0  0  0  0
   45.2030   35.4520   43.7970 C   0  0  0  0  0  0  0  0  0  0  0  0
   46.1620   34.4520   43.5940 C   0  0  0  0  0  0  0  0  0  0  0  0
   46.4330   33.5720   44.6010 N   0  0  0  0  0  0  0  0  0  0  0  0
   45.7770   33.6600   45.8060 C   0  0  0  0  0  0  0  0  0  0  0  0
   44.8590   34.6190   46.0020 N   0  0  0  0  0  0  0  0  0  0  0  0
   50.8448   32.4167   51.7390 H   0  0  0  0  0  0  0  0  0  0  0  0
   51.9165   27.9356   52.7235 H   0  0  0  0  0  0  0  0  0  0  0  0
   51.5469   25.7930   51.5752 H   0  0  0  0  0  0  0  0  0  0  0  0
   50.3154   25.6859   49.3758 H   0  0  0  0  0  0  0  0  0  0  0  0
   46.4222   26.9863   46.5418 H   0  0  0  0  0  0  0  0  0  0  0  0
   49.9926   26.6791   43.7407 H   0  0  0  0  0  0  0  0  0  0  0  0
   52.4303   26.9408   43.9468 H   0  0  0  0  0  0  0  0  0  0  0  0
   53.4484   27.4840   46.1800 H   0  0  0  0  0  0  0  0  0  0  0  0
   51.9422   27.7313   48.0914 H   0  0  0  0  0  0  0  0  0  0  0  0
   47.8777   32.0158   46.0893 H   0  0  0  0  0  0  0  0  0  0  0  0
   46.7277   30.2598   49.8497 H   0  0  0  0  0  0  0  0  0  0  0  0
   44.6904   31.6522   49.8482 H   0  0  0  0  0  0  0  0  0  0  0  0
   44.2696   33.2080   47.9888 H   0  0  0  0  0  0  0  0  0  0  0  0
   43.8092   36.2797   45.2244 H   0  0  0  0  0  0  0  0  0  0  0  0
   44.9605   36.1747   43.0040 H   0  0  0  0  0  0  0  0  0  0  0  0
   46.6914   34.3767   42.6327 H   0  0  0  0  0  0  0  0  0  0  0  0
  1 10  1  0
  1  2  2  0
  2  3  1  0
  3  4  2  0
  5  6  2  0
  5  4  1  0
  7  6  1  0
  8  7  2  0
  9  8  1  0
  9 10  2  0
 10  5  1  0
 11  9  1  0
 12 11  2  0
 13 12  1  0
 14 15  1  0
 14 13  2  0
 15 20  2  0
 16 17  2  0
 16 15  1  0
 17 18  1  0
 18 19  2  0
 20 19  1  0
 20 11  1  0
 21 24  1  0
 21  1  1  0
 22 23  2  0
 22 27  1  0
 23 24  1  0
 24 25  2  0
 26 25  1  0
 27 26  2  0
 28 33  2  0
 29 28  1  0
 30 29  2  0
 30 31  1  0
 31 32  2  0
 32 33  1  0
 32 22  1  0
  3 34  1  0
  6 35  1  0
  7 36  1  0
  8 37  1  0
 13 38  1  0
 16 39  1  0
 17 40  1  0
 18 41  1  0
 19 42  1  0
 23 43  1  0
 25 44  1  0
 26 45  1  0
 27 46  1  0
 28 47  1  0
 29 48  1  0
 30 49  1  0
M  ISO  8  34  14  35  14  36  14  37  14  38  14  39  14  40  14  41  14
M  ISO  8  42  14  43  14  44  14  45  14  46  14  47  14  48  14  49  14
M  END
>  <minimizedAffinity>  (1) 
-6.64356995

>  <minimizedRMSD>  (1) 
1.20380604

$$$$
