
     RDKit          3D

 42 46  0  0  0  0  0  0  0  0999 V2000
   44.0770   34.8130   41.0430 C   0  0  0  0  0  0  0  0  0  0  0  0
   44.0160   34.0460   39.9090 C   0  0  0  0  0  0  0  0  0  0  0  0
   45.2210   33.4580   39.4480 C   0  0  0  0  0  0  0  0  0  0  0  0
   46.3360   33.7170   40.1860 N   0  0  0  0  0  0  0  0  0  0  0  0
   46.3550   34.4650   41.2780 C   0  0  0  0  0  0  0  0  0  0  0  0
   45.2160   34.9960   41.6800 N   0  0  0  0  0  0  0  0  0  0  0  0
   45.0470   32.6680   38.2490 C   0  0  0  0  0  0  0  0  0  0  0  0
   43.9290   31.9470   38.0130 N   0  0  0  0  0  0  0  0  0  0  0  0
   43.7320   31.2070   36.9220 C   0  0  0  0  0  0  0  0  0  0  0  0
   44.6380   31.1010   35.9350 N   0  0  0  0  0  0  0  0  0  0  0  0
   45.7790   31.7790   36.0780 C   0  0  0  0  0  0  0  0  0  0  0  0
   46.7380   31.7010   35.0930 C   0  0  0  0  0  0  0  0  0  0  0  0
   47.9320   32.3840   35.2020 C   0  0  0  0  0  0  0  0  0  0  0  0
   48.1300   33.1580   36.3510 C   0  0  0  0  0  0  0  0  0  0  0  0
   47.1400   33.2020   37.3030 C   0  0  0  0  0  0  0  0  0  0  0  0
   45.9440   32.5310   37.2190 C   0  0  0  0  0  0  0  0  0  0  0  0
   42.5010   35.5390   41.5880 S   0  0  0  0  0  0  0  0  0  0  0  0
   40.3230   35.0210   40.0710 C   0  0  0  0  0  0  0  0  0  0  0  0
   41.1310   34.4970   41.0780 C   0  0  0  0  0  0  0  0  0  0  0  0
   40.8660   33.2720   41.6140 C   0  0  0  0  0  0  0  0  0  0  0  0
   39.7930   32.5120   41.1830 C   0  0  0  0  0  0  0  0  0  0  0  0
   38.9760   33.0450   40.1650 C   0  0  0  0  0  0  0  0  0  0  0  0
   39.2310   34.2930   39.6040 C   0  0  0  0  0  0  0  0  0  0  0  0
   37.9720   32.0840   39.9150 O   0  0  0  0  0  0  0  0  0  0  0  0
   37.9930   31.1850   40.9780 C   0  0  0  0  0  0  0  0  0  0  0  0
   39.2920   31.2570   41.5390 O   0  0  0  0  0  0  0  0  0  0  0  0
   47.4790   34.7130   42.0040 O   0  0  0  0  0  0  0  0  0  0  0  0
   48.6510   35.1570   41.3680 C   0  0  0  0  0  0  0  0  0  0  0  0
   49.7110   34.3140   41.6040 F   0  0  0  0  0  0  0  0  0  0  0  0
   48.3220   35.2680   40.0200 F   0  0  0  0  0  0  0  0  0  0  0  0
   48.9700   36.4050   41.9080 F   0  0  0  0  0  0  0  0  0  0  0  0
   43.0664   33.8921   39.3756 H   0  0  0  0  0  0  0  0  0  0  0  0
   42.7840   30.6576   36.8250 H   0  0  0  0  0  0  0  0  0  0  0  0
   46.5488   31.0829   34.2030 H   0  0  0  0  0  0  0  0  0  0  0  0
   48.6989   32.3225   34.4158 H   0  0  0  0  0  0  0  0  0  0  0  0
   49.0638   33.7225   36.4899 H   0  0  0  0  0  0  0  0  0  0  0  0
   47.3178   33.8187   38.1964 H   0  0  0  0  0  0  0  0  0  0  0  0
   40.5475   36.0099   39.6446 H   0  0  0  0  0  0  0  0  0  0  0  0
   41.5196   32.8790   42.4067 H   0  0  0  0  0  0  0  0  0  0  0  0
   38.5849   34.6953   38.8099 H   0  0  0  0  0  0  0  0  0  0  0  0
   37.2389   31.4655   41.7281 H   0  0  0  0  0  0  0  0  0  0  0  0
   37.7610   30.1640   40.6407 H   0  0  0  0  0  0  0  0  0  0  0  0
  1 17  1  0
  1  6  1  0
  2  1  2  0
  3  2  1  0
  3  4  2  0
  4  5  1  0
  5  6  2  0
  5 27  1  0
  7  3  1  0
  8  7  2  0
  9  8  1  0
 10 11  1  0
 10  9  2  0
 11 16  2  0
 12 13  2  0
 12 11  1  0
 13 14  1  0
 14 15  2  0
 16 15  1  0
 16  7  1  0
 18 19  2  0
 19 17  1  0
 19 20  1  0
 21 26  1  0
 21 20  2  0
 22 21  1  0
 23 18  1  0
 23 22  2  0
 24 22  1  0
 24 25  1  0
 25 26  1  0
 28 29  1  0
 28 31  1  0
 28 27  1  0
 30 28  1  0
  2 32  1  0
  9 33  1  0
 12 34  1  0
 13 35  1  0
 14 36  1  0
 15 37  1  0
 18 38  1  0
 20 39  1  0
 23 40  1  0
 25 41  1  0
 25 42  1  0
M  ISO  8  32  14  33  14  34  14  35  14  36  14  37  14  38  14  39  14
M  ISO  3  40  14  41  13  42  13
M  END
>  <minimizedAffinity>  (1) 
-6.6552124

>  <minimizedRMSD>  (1) 
0.83474344

$$$$
