
     RDKit          3D

 38 41  0  0  0  0  0  0  0  0999 V2000
   46.6960   34.8890   42.7320 C   0  0  0  0  0  0  0  0  0  0  0  0
   46.0860   32.1330   45.1120 C   0  0  0  0  0  0  0  0  0  0  0  0
   45.5010   31.2530   44.2710 C   0  0  0  0  0  0  0  0  0  0  0  0
   45.5120   32.1830   42.6650 S   0  0  0  0  0  0  0  0  0  0  0  0
   46.3410   33.6390   43.4880 C   0  0  0  0  0  0  0  0  0  0  0  0
   46.4310   33.2500   44.5510 N   0  0  0  0  0  0  0  0  0  0  0  0
   45.9310   32.2810   48.8840 C   0  0  0  0  0  0  0  0  0  0  0  0
   45.6800   32.5990   47.5310 C   0  0  0  0  0  0  0  0  0  0  0  0
   46.3100   31.8490   46.5460 C   0  0  0  0  0  0  0  0  0  0  0  0
   47.1450   30.8420   46.9720 N   0  0  0  0  0  0  0  0  0  0  0  0
   47.3590   30.5700   48.2560 C   0  0  0  0  0  0  0  0  0  0  0  0
   46.7600   31.2820   49.2160 N   0  0  0  0  0  0  0  0  0  0  0  0
   44.7880   33.6780   47.2960 N   0  0  0  0  0  0  0  0  0  0  0  0
   48.1870   34.9510   42.4970 C   0  0  0  0  0  0  0  0  0  0  0  0
   48.7410   33.7410   41.8570 C   0  0  0  0  0  0  0  0  0  0  0  0
   49.3080   32.7870   42.6490 N   0  0  0  0  0  0  0  0  0  0  0  0
   49.8150   31.6520   42.0960 C   0  0  0  0  0  0  0  0  0  0  0  0
   49.7670   31.4520   40.7630 N   0  0  0  0  0  0  0  0  0  0  0  0
   49.2290   32.3360   39.9140 C   0  0  0  0  0  0  0  0  0  0  0  0
   49.1620   32.1760   38.5430 C   0  0  0  0  0  0  0  0  0  0  0  0
   48.5990   33.1340   37.7250 C   0  0  0  0  0  0  0  0  0  0  0  0
   48.0850   34.2850   38.2830 C   0  0  0  0  0  0  0  0  0  0  0  0
   48.1630   34.4240   39.6560 C   0  0  0  0  0  0  0  0  0  0  0  0
   48.7160   33.4930   40.5060 C   0  0  0  0  0  0  0  0  0  0  0  0
   46.1752   34.8879   41.7631 H   0  0  0  0  0  0  0  0  0  0  0  0
   46.3890   35.7649   43.3224 H   0  0  0  0  0  0  0  0  0  0  0  0
   45.1168   30.2444   44.4833 H   0  0  0  0  0  0  0  0  0  0  0  0
   45.4384   32.8623   49.6774 H   0  0  0  0  0  0  0  0  0  0  0  0
   48.0373   29.7490   48.5316 H   0  0  0  0  0  0  0  0  0  0  0  0
   44.5634   33.9598   46.3311 H   0  0  0  0  0  0  0  0  0  0  0  0
   44.3653   34.1792   48.0904 H   0  0  0  0  0  0  0  0  0  0  0  0
   48.4003   35.8142   41.8494 H   0  0  0  0  0  0  0  0  0  0  0  0
   48.6634   35.0373   43.4847 H   0  0  0  0  0  0  0  0  0  0  0  0
   50.2696   30.8881   42.7439 H   0  0  0  0  0  0  0  0  0  0  0  0
   49.5689   31.2593   38.0912 H   0  0  0  0  0  0  0  0  0  0  0  0
   48.5606   32.9805   36.6364 H   0  0  0  0  0  0  0  0  0  0  0  0
   47.6285   35.0659   37.6571 H   0  0  0  0  0  0  0  0  0  0  0  0
   47.7544   35.3433   40.1008 H   0  0  0  0  0  0  0  0  0  0  0  0
  1  5  1  0
  2  9  1  0
  3  2  2  0
  4  5  1  0
  4  3  1  0
  5  6  2  0
  6  2  1  0
  7 12  2  0
  8  7  1  0
  9 10  1  0
  9  8  2  0
 10 11  2  0
 11 12  1  0
 13  8  1  0
 14  1  1  0
 15 14  1  0
 15 16  2  0
 17 16  1  0
 18 17  2  0
 19 24  2  0
 19 18  1  0
 20 19  1  0
 21 22  1  0
 21 20  2  0
 22 23  2  0
 23 24  1  0
 24 15  1  0
  1 25  1  0
  1 26  1  0
  3 27  1  0
  7 28  1  0
 11 29  1  0
 13 30  1  0
 13 31  1  0
 14 32  1  0
 14 33  1  0
 17 34  1  0
 20 35  1  0
 21 36  1  0
 22 37  1  0
 23 38  1  0
M  ISO  8  25   8  26   8  27  14  28  14  29  14  32   8  33   8  34  14
M  ISO  4  35  14  36  14  37  14  38  14
M  END
>  <minimizedAffinity>  (1) 
-5.67133665

>  <minimizedRMSD>  (1) 
3.82150912

$$$$
