
     RDKit          3D

 38 41  0  0  1  0  0  0  0  0999 V2000
   44.5060   35.6540   45.0120 C   0  0  0  0  0  0  0  0  0  0  0  0
   45.1660   35.5800   43.7910 C   0  0  0  0  0  0  0  0  0  0  0  0
   46.0640   34.5590   43.6130 C   0  0  0  0  0  0  0  0  0  0  0  0
   46.2630   33.6730   44.6410 N   0  0  0  0  0  0  0  0  0  0  0  0
   45.6090   33.7830   45.7950 C   0  0  0  0  0  0  0  0  0  0  0  0
   44.7290   34.7660   45.9960 N   0  0  0  0  0  0  0  0  0  0  0  0
   45.8650   32.8240   46.8150 N   0  0  0  0  0  0  0  0  0  0  0  0
   45.0290   32.6180   47.9990 C   0  0  0  0  0  0  0  0  0  0  0  0
   46.0640   32.2910   49.0340 C   0  0  0  0  0  0  0  0  0  0  0  0
   47.3690   32.0740   48.3270 C   0  0  0  0  0  0  0  0  0  0  0  0
   46.9830   31.8810   46.8910 C   0  0  1  0  0  0  0  0  0  0  0  0
   46.5870   30.4900   46.6930 C   0  0  0  0  0  0  0  0  0  0  0  0
   45.4640   30.0840   46.0770 N   0  0  0  0  0  0  0  0  0  0  0  0
   45.1070   28.8050   45.8910 C   0  0  0  0  0  0  0  0  0  0  0  0
   45.8870   27.7940   46.3280 N   0  0  0  0  0  0  0  0  0  0  0  0
   47.0310   28.1090   46.9570 C   0  0  0  0  0  0  0  0  0  0  0  0
   47.8050   27.0640   47.3940 C   0  0  0  0  0  0  0  0  0  0  0  0
   48.9890   27.3250   48.0470 C   0  0  0  0  0  0  0  0  0  0  0  0
   49.3820   28.6350   48.2530 C   0  0  0  0  0  0  0  0  0  0  0  0
   48.5510   29.6450   47.7850 C   0  0  0  0  0  0  0  0  0  0  0  0
   47.3590   29.4590   47.1270 C   0  0  0  0  0  0  0  0  0  0  0  0
   44.8320   36.5850   42.8270 N   0  0  0  0  0  0  0  0  0  0  0  0
   43.7797   36.4633   45.1779 H   0  0  0  0  0  0  0  0  0  0  0  0
   46.6131   34.4528   42.6658 H   0  0  0  0  0  0  0  0  0  0  0  0
   44.4704   33.5286   48.2613 H   0  0  0  0  0  0  0  0  0  0  0  0
   44.2546   31.8465   47.8759 H   0  0  0  0  0  0  0  0  0  0  0  0
   46.1581   33.1249   49.7452 H   0  0  0  0  0  0  0  0  0  0  0  0
   45.7758   31.3885   49.5929 H   0  0  0  0  0  0  0  0  0  0  0  0
   48.0243   32.9502   48.4403 H   0  0  0  0  0  0  0  0  0  0  0  0
   47.9293   31.2179   48.7309 H   0  0  0  0  0  0  0  0  0  0  0  0
   47.7540   32.0599   46.1270 H   0  0  0  0  0  0  0  0  0  0  0  0
   44.1634   28.5761   45.3740 H   0  0  0  0  0  0  0  0  0  0  0  0
   47.4825   26.0261   47.2242 H   0  0  0  0  0  0  0  0  0  0  0  0
   49.6187   26.4962   48.4028 H   0  0  0  0  0  0  0  0  0  0  0  0
   50.3234   28.8698   48.7713 H   0  0  0  0  0  0  0  0  0  0  0  0
   48.8748   30.6823   47.9557 H   0  0  0  0  0  0  0  0  0  0  0  0
   45.2873   36.5839   41.9031 H   0  0  0  0  0  0  0  0  0  0  0  0
   44.1365   37.3089   43.0576 H   0  0  0  0  0  0  0  0  0  0  0  0
  1  6  2  0
  2  1  1  0
  3  2  2  0
  3  4  1  0
  4  5  2  0
  5  6  1  0
  5  7  1  0
  7 11  1  0
  7  8  1  0
  8  9  1  0
 10  9  1  0
 11 10  1  0
 12 11  1  0
 12 21  1  0
 13 12  2  0
 14 13  1  0
 14 15  2  0
 15 16  1  0
 16 21  2  0
 16 17  1  0
 17 18  2  0
 18 19  1  0
 20 19  2  0
 21 20  1  0
 22  2  1  0
  1 23  1  0
  3 24  1  0
  8 25  1  0
  8 26  1  0
  9 27  1  0
  9 28  1  0
 10 29  1  0
 10 30  1  0
 11 31  1  6
 14 32  1  0
 17 33  1  0
 18 34  1  0
 19 35  1  0
 20 36  1  0
 22 37  1  0
 22 38  1  0
M  ISO  8  23  14  24  14  25  13  26  13  27  13  28  13  29  13  30  13
M  ISO  6  31  13  32  14  33  14  34  14  35  14  36  14
M  END
>  <minimizedAffinity>  (1) 
-6.09861326

>  <minimizedRMSD>  (1) 
1.10311866

$$$$
