
     RDKit          3D

 32 34  0  0  0  0  0  0  0  0999 V2000
   47.6400   32.1920   48.6430 O   0  0  0  0  0  0  0  0  0  0  0  0
   45.7990   30.4730   47.9930 O   0  0  0  0  0  0  0  0  0  0  0  0
   46.0100   31.8870   48.5980 P   0  0  1  0  0  0  0  0  0  0  0  0
   45.3240   31.8060   50.1310 O   0  0  0  0  0  0  0  0  0  0  0  0
   45.1750   32.9820   47.6320 O   0  0  0  0  0  0  0  0  0  0  0  0
   47.1200   32.8370   44.5650 C   0  0  0  0  0  0  0  0  0  0  0  0
   46.6360   32.5280   45.8550 C   0  0  0  0  0  0  0  0  0  0  0  0
   45.6270   33.3040   46.3720 C   0  0  0  0  0  0  0  0  0  0  0  0
   45.1380   34.3360   45.6180 N   0  0  0  0  0  0  0  0  0  0  0  0
   45.6210   34.6010   44.3970 C   0  0  0  0  0  0  0  0  0  0  0  0
   46.6020   33.8680   43.8620 N   0  0  0  0  0  0  0  0  0  0  0  0
   48.7300   31.4370   48.8850 C   0  0  0  0  0  0  0  0  0  0  0  0
   49.7350   32.1590   49.3510 O   0  0  0  0  0  0  0  0  0  0  0  0
   49.1870   29.9850   48.7840 C   0  0  0  0  0  0  0  0  0  0  0  0
   48.9600   29.2490   47.6990 N   0  0  0  0  0  0  0  0  0  0  0  0
   49.3160   27.9960   47.5680 C   0  0  0  0  0  0  0  0  0  0  0  0
   49.9500   27.3640   48.5480 N   0  0  0  0  0  0  0  0  0  0  0  0
   50.2070   28.0510   49.6660 C   0  0  0  0  0  0  0  0  0  0  0  0
   50.8470   27.3760   50.6620 C   0  0  0  0  0  0  0  0  0  0  0  0
   51.1650   27.9610   51.8820 C   0  0  0  0  0  0  0  0  0  0  0  0
   50.7710   29.2970   51.9960 C   0  0  0  0  0  0  0  0  0  0  0  0
   50.1280   29.9320   50.9600 C   0  0  0  0  0  0  0  0  0  0  0  0
   49.8290   29.3460   49.7780 C   0  0  0  0  0  0  0  0  0  0  0  0
   46.0345   31.8899   50.8153 H   0  0  0  0  0  0  0  0  0  0  0  0
   47.9276   32.2317   44.1276 H   0  0  0  0  0  0  0  0  0  0  0  0
   47.0552   31.6892   46.4301 H   0  0  0  0  0  0  0  0  0  0  0  0
   45.2012   35.4398   43.8225 H   0  0  0  0  0  0  0  0  0  0  0  0
   49.0870   27.4606   46.6348 H   0  0  0  0  0  0  0  0  0  0  0  0
   51.1233   26.3247   50.4934 H   0  0  0  0  0  0  0  0  0  0  0  0
   51.6819   27.4194   52.6879 H   0  0  0  0  0  0  0  0  0  0  0  0
   50.9779   29.8471   52.9258 H   0  0  0  0  0  0  0  0  0  0  0  0
   49.8382   30.9837   51.1012 H   0  0  0  0  0  0  0  0  0  0  0  0
  1 12  1  0
  3  2  2  0
  3  1  1  0
  3  4  1  0
  5  3  1  0
  6  7  2  0
  7  8  1  0
  8  5  1  0
  9  8  2  0
 10  9  1  0
 11 10  2  0
 11  6  1  0
 12 13  2  0
 14 12  1  0
 14 23  1  0
 15 14  2  0
 16 15  1  0
 16 17  2  0
 17 18  1  0
 18 23  2  0
 18 19  1  0
 19 20  2  0
 20 21  1  0
 22 21  2  0
 23 22  1  0
  4 24  1  0
  6 25  1  0
  7 26  1  0
 10 27  1  0
 16 28  1  0
 19 29  1  0
 20 30  1  0
 21 31  1  0
 22 32  1  0
M  ISO  8  24   3  25  14  26  14  27  14  28  14  29  14  30  14  31  14
M  ISO  1  32  14
M  END
>  <minimizedAffinity>  (1) 
-5.6002593

>  <minimizedRMSD>  (1) 
0.909525394

$$$$
