
     RDKit          3D

 37 40  0  0  1  0  0  0  0  0999 V2000
   47.9750   32.6410   41.7790 O   0  0  0  0  0  0  0  0  0  0  0  0
   46.9880   33.7310   41.3320 P   0  0  2  0  0  0  0  0  0  0  0  0
   45.4680   33.4930   42.1010 O   0  0  0  0  0  0  0  0  0  0  0  0
   44.3480   35.8970   44.5580 C   0  0  0  0  0  0  0  0  0  0  0  0
   44.5940   35.2920   43.3060 C   0  0  0  0  0  0  0  0  0  0  0  0
   45.2400   34.0530   43.3210 C   0  0  0  0  0  0  0  0  0  0  0  0
   45.5930   33.4990   44.5070 N   0  0  0  0  0  0  0  0  0  0  0  0
   45.3410   34.1090   45.6780 C   0  0  0  0  0  0  0  0  0  0  0  0
   44.7200   35.3070   45.7110 N   0  0  0  0  0  0  0  0  0  0  0  0
   46.7130   33.5840   39.7140 O   0  0  0  0  0  0  0  0  0  0  0  0
   45.6990   33.1870   38.9790 C   0  0  0  0  0  0  0  0  0  0  0  0
   45.9140   33.2150   37.6510 O   0  0  0  0  0  0  0  0  0  0  0  0
   44.4880   32.7260   38.4610 C   0  0  1  0  0  0  0  0  0  0  0  0
   44.3150   31.6710   37.6420 N   0  0  0  0  0  0  0  0  0  0  0  0
   43.1430   31.2220   37.1480 C   0  0  0  0  0  0  0  0  0  0  0  0
   42.0680   31.8780   37.4990 N   0  0  0  0  0  0  0  0  0  0  0  0
   42.0020   32.9380   38.2900 C   0  0  0  0  0  0  0  0  0  0  0  0
   40.7900   33.5100   38.5670 C   0  0  0  0  0  0  0  0  0  0  0  0
   40.8020   34.6030   39.4010 C   0  0  0  0  0  0  0  0  0  0  0  0
   41.9870   35.0750   39.9170 C   0  0  0  0  0  0  0  0  0  0  0  0
   43.1470   34.4200   39.5690 C   0  0  0  0  0  0  0  0  0  0  0  0
   43.2430   33.3120   38.7370 C   0  0  0  0  0  0  0  0  0  0  0  0
   47.5390   35.2020   41.8330 O   0  0  0  0  0  0  0  0  0  0  0  0
   48.7940   35.4680   41.3030 C   0  0  0  0  0  0  0  0  0  0  0  0
   49.2490   36.7230   41.6910 F   0  0  0  0  0  0  0  0  0  0  0  0
   49.6760   34.4780   41.5990 F   0  0  0  0  0  0  0  0  0  0  0  0
   48.6270   35.5260   39.9310 F   0  0  0  0  0  0  0  0  0  0  0  0
   43.8409   36.8725   44.5929 H   0  0  0  0  0  0  0  0  0  0  0  0
   44.2916   35.7730   42.3641 H   0  0  0  0  0  0  0  0  0  0  0  0
   45.6440   33.6269   46.6191 H   0  0  0  0  0  0  0  0  0  0  0  0
   45.3229   34.2200   38.9399 H   0  0  0  0  0  0  0  0  0  0  0  0
   45.1626   31.1554   37.3651 H   0  0  0  0  0  0  0  0  0  0  0  0
   43.0941   30.3473   36.4828 H   0  0  0  0  0  0  0  0  0  0  0  0
   39.8543   33.1156   38.1441 H   0  0  0  0  0  0  0  0  0  0  0  0
   39.8570   35.1040   39.6577 H   0  0  0  0  0  0  0  0  0  0  0  0
   42.0070   35.9478   40.5862 H   0  0  0  0  0  0  0  0  0  0  0  0
   44.0855   34.8108   39.9892 H   0  0  0  0  0  0  0  0  0  0  0  0
  2  1  2  0
  2 23  1  0
  2  3  1  0
  3  6  1  0
  4  9  2  0
  5  6  2  0
  5  4  1  0
  6  7  1  0
  7  8  2  0
  8  9  1  0
 10  2  1  0
 11 10  1  0
 13 12  1  6
 12 11  1  0
 13 14  1  0
 13 22  1  0
 13 11  1  0
 15 16  2  0
 15 14  1  0
 16 17  1  0
 17 18  2  0
 17 22  1  0
 18 19  1  0
 19 20  2  0
 21 20  1  0
 22 21  2  0
 24 26  1  0
 24 25  1  0
 24 23  1  0
 27 24  1  0
  4 28  1  0
  5 29  1  0
  8 30  1  0
 11 31  1  0
 14 32  1  0
 15 33  1  0
 18 34  1  0
 19 35  1  0
 20 36  1  0
 21 37  1  0
M  ISO  8  28  14  29  14  30  14  31  13  33  13  34  14  35  14  36  14
M  ISO  1  37  14
M  END
>  <minimizedAffinity>  (1) 
-5.98672962

>  <minimizedRMSD>  (1) 
3.04887438

$$$$
