
     RDKit          3D

 35 37  0  0  0  0  0  0  0  0999 V2000
   45.2420   34.3710   41.9030 C   0  0  0  0  0  0  0  0  0  0  0  0
   46.1160   34.3970   40.8510 C   0  0  0  0  0  0  0  0  0  0  0  0
   47.4940   34.3980   41.0080 C   0  0  0  0  0  0  0  0  0  0  0  0
   47.9970   34.3730   42.3010 C   0  0  0  0  0  0  0  0  0  0  0  0
   47.1000   34.3470   43.3360 C   0  0  0  0  0  0  0  0  0  0  0  0
   45.7360   34.3440   43.2030 C   0  0  0  0  0  0  0  0  0  0  0  0
   41.8260   33.1610   41.3600 C   0  0  0  0  0  0  0  0  0  0  0  0
   41.1910   34.3270   41.1380 C   0  0  0  0  0  0  0  0  0  0  0  0
   41.8150   35.5490   41.1490 C   0  0  0  0  0  0  0  0  0  0  0  0
   43.1390   35.5320   41.4020 N   0  0  0  0  0  0  0  0  0  0  0  0
   43.7760   34.3710   41.6230 C   0  0  0  0  0  0  0  0  0  0  0  0
   43.1610   33.1750   41.6110 N   0  0  0  0  0  0  0  0  0  0  0  0
   40.1780   30.1180   40.1160 C   0  0  0  0  0  0  0  0  0  0  0  0
   39.8080   29.4830   41.2960 C   0  0  0  0  0  0  0  0  0  0  0  0
   40.1140   30.0820   42.5180 C   0  0  0  0  0  0  0  0  0  0  0  0
   40.7730   31.2820   42.4990 N   0  0  0  0  0  0  0  0  0  0  0  0
   41.1220   31.8770   41.3400 C   0  0  0  0  0  0  0  0  0  0  0  0
   40.8270   31.3020   40.1820 N   0  0  0  0  0  0  0  0  0  0  0  0
   46.2500   33.7590   45.9980 N   0  0  0  0  0  0  0  0  0  0  0  0
   45.1970   34.4590   45.6430 C   0  0  0  0  0  0  0  0  0  0  0  0
   44.8260   34.3230   44.2940 N   0  0  0  0  0  0  0  0  0  0  0  0
   44.4190   35.3230   46.5000 N   0  0  0  0  0  0  0  0  0  0  0  0
   46.5700   33.8210   46.9830 H   0  0  0  0  0  0  0  0  0  0  0  0
   45.7058   34.4181   39.8306 H   0  0  0  0  0  0  0  0  0  0  0  0
   48.1655   34.4179   40.1370 H   0  0  0  0  0  0  0  0  0  0  0  0
   49.0809   34.3740   42.4888 H   0  0  0  0  0  0  0  0  0  0  0  0
   47.5079   34.3269   44.3574 H   0  0  0  0  0  0  0  0  0  0  0  0
   40.1100   34.2985   40.9362 H   0  0  0  0  0  0  0  0  0  0  0  0
   41.2683   36.4852   40.9628 H   0  0  0  0  0  0  0  0  0  0  0  0
   39.9458   29.6632   39.1417 H   0  0  0  0  0  0  0  0  0  0  0  0
   39.2797   28.5186   41.2664 H   0  0  0  0  0  0  0  0  0  0  0  0
   39.8342   29.6045   43.4686 H   0  0  0  0  0  0  0  0  0  0  0  0
   43.8257   34.1996   44.0818 H   0  0  0  0  0  0  0  0  0  0  0  0
   43.6069   35.8298   46.1198 H   0  0  0  0  0  0  0  0  0  0  0  0
   44.6763   35.4323   47.4914 H   0  0  0  0  0  0  0  0  0  0  0  0
  1  6  2  0
  2  3  2  0
  2  1  1  0
  3  4  1  0
  4  5  2  0
  6  5  1  0
  6 21  1  0
  7 12  2  0
  8  9  2  0
  8  7  1  0
  9 10  1  0
 10 11  2  0
 11  1  1  0
 12 11  1  0
 13 18  2  0
 13 14  1  0
 14 15  2  0
 16 15  1  0
 17  7  1  0
 17 16  2  0
 18 17  1  0
 19 23  1  0
 20 19  2  0
 20 22  1  0
 21 20  1  0
  2 24  1  0
  3 25  1  0
  4 26  1  0
  5 27  1  0
  8 28  1  0
  9 29  1  0
 13 30  1  0
 14 31  1  0
 15 32  1  0
 21 33  1  0
 22 34  1  0
 22 35  1  0
M  ISO  8  24  14  25  14  26  14  27  14  28  14  29  14  30  14  31  14
M  ISO  1  32  14
M  END
>  <minimizedAffinity>  (1) 
-6.32617712

>  <minimizedRMSD>  (1) 
5.91923094

$$$$
