
     RDKit          3D

 21 21  0  0  0  0  0  0  0  0999 V2000
   44.9030   35.0100   44.4900 C   0  0  0  0  0  0  0  0  0  0  0  0
   45.8550   35.0320   43.4650 C   0  0  0  0  0  0  0  0  0  0  0  0
   46.9870   34.2020   43.5680 C   0  0  0  0  0  0  0  0  0  0  0  0
   47.0870   33.4270   44.6620 N   0  0  0  0  0  0  0  0  0  0  0  0
   46.1540   33.4290   45.6320 C   0  0  0  0  0  0  0  0  0  0  0  0
   45.0820   34.2150   45.5330 N   0  0  0  0  0  0  0  0  0  0  0  0
   43.7640   35.8440   44.3850 N   0  0  0  0  0  0  0  0  0  0  0  0
   47.9060   34.3050   42.4520 C   0  0  0  0  0  0  0  0  0  0  0  0
   49.0960   34.7000   42.5700 O   0  0  0  0  0  0  0  0  0  0  0  0
   48.9260   35.4670   40.1610 N   0  0  0  0  0  0  0  0  0  0  0  0
   48.0260   34.5630   39.9520 C   0  0  0  0  0  0  0  0  0  0  0  0
   47.4840   33.9500   41.1180 N   0  0  0  0  0  0  0  0  0  0  0  0
   47.4930   34.0920   38.7290 N   0  0  0  0  0  0  0  0  0  0  0  0
   49.3830   35.9700   39.3930 H   0  0  0  0  0  0  0  0  0  0  0  0
   45.7209   35.6878   42.5921 H   0  0  0  0  0  0  0  0  0  0  0  0
   46.2767   32.7788   46.5108 H   0  0  0  0  0  0  0  0  0  0  0  0
   43.6465   36.4543   43.5636 H   0  0  0  0  0  0  0  0  0  0  0  0
   43.0527   35.8405   45.1300 H   0  0  0  0  0  0  0  0  0  0  0  0
   46.7619   33.2243   41.0047 H   0  0  0  0  0  0  0  0  0  0  0  0
   46.7713   33.3571   38.7308 H   0  0  0  0  0  0  0  0  0  0  0  0
   47.8267   34.4840   37.8369 H   0  0  0  0  0  0  0  0  0  0  0  0
  1  6  2  0
  2  3  2  0
  2  1  1  0
  3  4  1  0
  4  5  2  0
  6  5  1  0
  7  1  1  0
  8  9  2  0
  8  3  1  0
 11 10  2  0
 11 12  1  0
 12  8  1  0
 13 11  1  0
 14 10  1  0
  2 15  1  0
  5 16  1  0
  7 17  1  0
  7 18  1  0
 12 19  1  0
 13 20  1  0
 13 21  1  0
M  ISO  2  15  14  16  14
M  END
>  <minimizedAffinity>  (1) 
-5.07349777

>  <minimizedRMSD>  (1) 
0.930505991

$$$$
