
     RDKit          3D

 26 27  0  0  0  0  0  0  0  0999 V2000
   46.2180   34.5870   43.5860 C   0  0  0  0  0  0  0  0  0  0  0  0
   47.3490   34.0160   43.1030 C   0  0  0  0  0  0  0  0  0  0  0  0
   47.7690   32.8690   43.7470 C   0  0  0  0  0  0  0  0  0  0  0  0
   47.0080   32.4080   44.8190 N   0  0  0  0  0  0  0  0  0  0  0  0
   45.9130   33.0010   45.2520 C   0  0  0  0  0  0  0  0  0  0  0  0
   45.4730   34.1420   44.6310 N   0  0  0  0  0  0  0  0  0  0  0  0
   45.4980   35.7250   43.0360 C   0  0  0  0  0  0  0  0  0  0  0  0
   45.2380   36.9180   43.0820 O   0  0  0  0  0  0  0  0  0  0  0  0
   42.4560   35.6150   42.5920 N   0  0  0  0  0  0  0  0  0  0  0  0
   43.3560   35.1500   41.8480 C   0  0  0  0  0  0  0  0  0  0  0  0
   44.7670   35.1280   41.9250 N   0  0  0  0  0  0  0  0  0  0  0  0
   42.4700   34.6200   40.8360 N   0  0  0  0  0  0  0  0  0  0  0  0
   42.5140   36.1080   43.4690 H   0  0  0  0  0  0  0  0  0  0  0  0
   48.1490   34.5330   42.0560 C   0  0  0  0  0  0  0  0  0  0  0  0
   48.6240   35.7810   41.8260 C   0  0  0  0  0  0  0  0  0  0  0  0
   49.6900   34.8040   42.3230 C   0  0  0  0  0  0  0  0  0  0  0  0
   48.6755   32.3363   43.4239 H   0  0  0  0  0  0  0  0  0  0  0  0
   45.3567   32.5840   46.1045 H   0  0  0  0  0  0  0  0  0  0  0  0
   45.2982   34.6736   41.1686 H   0  0  0  0  0  0  0  0  0  0  0  0
   41.4504   34.7249   40.9380 H   0  0  0  0  0  0  0  0  0  0  0  0
   42.8583   34.1375   40.0130 H   0  0  0  0  0  0  0  0  0  0  0  0
   47.5003   33.9098   41.4228 H   0  0  0  0  0  0  0  0  0  0  0  0
   48.6794   36.1457   40.7897 H   0  0  0  0  0  0  0  0  0  0  0  0
   48.3044   36.7700   42.1861 H   0  0  0  0  0  0  0  0  0  0  0  0
   50.0911   34.8665   43.3454 H   0  0  0  0  0  0  0  0  0  0  0  0
   50.6645   34.4115   41.9969 H   0  0  0  0  0  0  0  0  0  0  0  0
  1  6  2  0
  2  1  1  0
  2  3  2  0
  3  4  1  0
  4  5  2  0
  6  5  1  0
  7  8  2  0
  7  1  1  0
  9 13  1  0
 10 11  1  0
 10  9  2  0
 11  7  1  0
 12 10  1  0
 14 16  1  0
 14  2  1  0
 15 14  1  0
 15 16  1  0
  3 17  1  0
  5 18  1  0
 11 19  1  0
 12 20  1  0
 12 21  1  0
 14 22  1  0
 15 23  1  0
 15 24  1  0
 16 25  1  0
 16 26  1  0
M  ISO  7  17  14  18  14  22  13  23  13  24  13  25  13  26  13
M  END
>  <minimizedAffinity>  (1) 
-5.10581827

>  <minimizedRMSD>  (1) 
0.336185485

$$$$
