
     RDKit          3D

 21 21  0  0  0  0  0  0  0  0999 V2000
   44.9400   34.9500   44.6490 C   0  0  0  0  0  0  0  0  0  0  0  0
   45.8660   34.7050   43.6290 C   0  0  0  0  0  0  0  0  0  0  0  0
   46.8750   33.7630   43.8710 C   0  0  0  0  0  0  0  0  0  0  0  0
   46.8890   33.1530   45.0700 N   0  0  0  0  0  0  0  0  0  0  0  0
   45.9870   33.4100   46.0290 C   0  0  0  0  0  0  0  0  0  0  0  0
   45.0130   34.3050   45.8270 N   0  0  0  0  0  0  0  0  0  0  0  0
   43.9030   35.9080   44.4220 N   0  0  0  0  0  0  0  0  0  0  0  0
   46.0310   32.7330   47.3180 C   0  0  0  0  0  0  0  0  0  0  0  0
   44.9910   32.3520   47.9280 O   0  0  0  0  0  0  0  0  0  0  0  0
   46.4200   30.9660   49.4210 N   0  0  0  0  0  0  0  0  0  0  0  0
   47.4840   31.5790   48.9930 C   0  0  0  0  0  0  0  0  0  0  0  0
   47.3110   32.4920   47.9140 N   0  0  0  0  0  0  0  0  0  0  0  0
   48.8230   31.4380   49.4900 N   0  0  0  0  0  0  0  0  0  0  0  0
   46.4910   30.2770   50.2210 H   0  0  0  0  0  0  0  0  0  0  0  0
   45.8039   35.2352   42.6672 H   0  0  0  0  0  0  0  0  0  0  0  0
   47.6304   33.5301   43.1060 H   0  0  0  0  0  0  0  0  0  0  0  0
   43.8468   36.4021   43.5200 H   0  0  0  0  0  0  0  0  0  0  0  0
   43.2122   36.1039   45.1605 H   0  0  0  0  0  0  0  0  0  0  0  0
   48.1328   32.9953   47.5504 H   0  0  0  0  0  0  0  0  0  0  0  0
   49.5893   31.9808   49.0668 H   0  0  0  0  0  0  0  0  0  0  0  0
   49.0177   30.7940   50.2699 H   0  0  0  0  0  0  0  0  0  0  0  0
  1  6  2  0
  2  3  2  0
  2  1  1  0
  3  4  1  0
  4  5  2  0
  5  8  1  0
  6  5  1  0
  7  1  1  0
  8 12  1  0
  8  9  2  0
 10 14  1  0
 11 10  2  0
 11 13  1  0
 12 11  1  0
  2 15  1  0
  3 16  1  0
  7 17  1  0
  7 18  1  0
 12 19  1  0
 13 20  1  0
 13 21  1  0
M  ISO  2  15  14  16  14
M  END
>  <minimizedAffinity>  (1) 
-5.37144899

>  <minimizedRMSD>  (1) 
0.876595855

$$$$
