
     RDKit          3D

 42 43  0  0  1  0  0  0  0  0999 V2000
   46.0460   33.8090   42.1620 C   0  0  1  0  0  0  0  0  0  0  0  0
   45.2690   34.5840   41.1140 C   0  0  0  0  0  0  0  0  0  0  0  0
   45.3740   33.6330   39.9230 C   0  0  0  0  0  0  0  0  0  0  0  0
   46.6620   32.8710   40.1200 C   0  0  0  0  0  0  0  0  0  0  0  0
   47.2850   33.4470   41.3780 C   0  0  1  0  0  0  0  0  0  0  0  0
   48.1760   34.6210   41.0960 C   0  0  0  0  0  0  0  0  0  0  0  0
   49.9480   35.1490   43.0980 N   0  0  0  0  0  0  0  0  0  0  0  0
   50.2690   34.1620   42.3020 C   0  0  0  0  0  0  0  0  0  0  0  0
   49.5460   34.0880   41.0720 N   0  0  0  0  0  0  0  0  0  0  0  0
   51.2920   33.2040   42.6400 N   0  0  0  0  0  0  0  0  0  0  0  0
   50.4080   35.3030   44.0210 H   0  0  0  0  0  0  0  0  0  0  0  0
   46.3420   34.5940   43.2740 O   0  0  0  0  0  0  0  0  0  0  0  0
   44.7750   34.9730   45.3050 O   0  0  0  0  0  0  0  0  0  0  0  0
   45.6170   33.9240   44.6350 P   0  0  1  0  0  0  0  0  0  0  0  0
   44.7100   32.5730   44.2300 O   0  0  0  0  0  0  0  0  0  0  0  0
   46.8100   33.3910   45.6900 O   0  0  0  0  0  0  0  0  0  0  0  0
   46.7770   32.0290   45.7410 C   0  0  0  0  0  0  0  0  0  0  0  0
   45.7290   31.8320   49.3020 C   0  0  0  0  0  0  0  0  0  0  0  0
   46.2750   32.3330   48.1090 C   0  0  0  0  0  0  0  0  0  0  0  0
   46.2030   31.5240   46.9980 C   0  0  0  0  0  0  0  0  0  0  0  0
   45.6160   30.3050   47.1230 N   0  0  0  0  0  0  0  0  0  0  0  0
   45.1020   29.8450   48.2730 C   0  0  0  0  0  0  0  0  0  0  0  0
   45.1650   30.6220   49.3590 N   0  0  0  0  0  0  0  0  0  0  0  0
   45.5087   32.9481   42.5865 H   0  0  0  0  0  0  0  0  0  0  0  0
   44.2232   34.7396   41.4175 H   0  0  0  0  0  0  0  0  0  0  0  0
   45.6476   35.5989   40.9227 H   0  0  0  0  0  0  0  0  0  0  0  0
   45.4043   34.2002   38.9810 H   0  0  0  0  0  0  0  0  0  0  0  0
   44.5077   32.9575   39.8657 H   0  0  0  0  0  0  0  0  0  0  0  0
   46.4580   31.7978   40.2487 H   0  0  0  0  0  0  0  0  0  0  0  0
   47.3307   32.9681   39.2520 H   0  0  0  0  0  0  0  0  0  0  0  0
   47.9637   32.7627   41.9083 H   0  0  0  0  0  0  0  0  0  0  0  0
   47.9225   35.0695   40.1241 H   0  0  0  0  0  0  0  0  0  0  0  0
   48.0612   35.4079   41.8560 H   0  0  0  0  0  0  0  0  0  0  0  0
   49.9599   33.6852   40.2192 H   0  0  0  0  0  0  0  0  0  0  0  0
   51.5175   32.4396   41.9875 H   0  0  0  0  0  0  0  0  0  0  0  0
   51.7973   33.2840   43.5340 H   0  0  0  0  0  0  0  0  0  0  0  0
   44.4059   32.1200   45.0560 H   0  0  0  0  0  0  0  0  0  0  0  0
   46.1686   31.6596   44.9023 H   0  0  0  0  0  0  0  0  0  0  0  0
   47.8142   31.6679   45.6794 H   0  0  0  0  0  0  0  0  0  0  0  0
   45.7665   32.4503   50.2110 H   0  0  0  0  0  0  0  0  0  0  0  0
   46.7400   33.3289   48.0645 H   0  0  0  0  0  0  0  0  0  0  0  0
   44.6381   28.8488   48.3217 H   0  0  0  0  0  0  0  0  0  0  0  0
  1 12  1  0
  2  1  1  0
  3  4  1  0
  3  2  1  0
  4  5  1  0
  5  1  1  0
  6  5  1  0
  7 11  1  0
  8 10  1  0
  8  7  2  0
  9  6  1  0
  9  8  1  0
 12 14  1  0
 14 13  2  0
 14 16  1  0
 15 14  1  0
 16 17  1  0
 17 20  1  0
 18 23  2  0
 19 18  1  0
 20 21  1  0
 20 19  2  0
 21 22  2  0
 22 23  1  0
  1 24  1  1
  2 25  1  0
  2 26  1  0
  3 27  1  0
  3 28  1  0
  4 29  1  0
  4 30  1  0
  5 31  1  1
  6 32  1  0
  6 33  1  0
  9 34  1  0
 10 35  1  0
 10 36  1  0
 15 37  1  0
 17 38  1  0
 17 39  1  0
 18 40  1  0
 19 41  1  0
 22 42  1  0
M  ISO  8  24  13  25  13  26  13  27  13  28  13  29  13  30  13  31  13
M  ISO  8  32   8  33   8  37   3  38   8  39   8  40  14  41  14  42  14
M  END
>  <minimizedAffinity>  (1) 
-5.83848619

>  <minimizedRMSD>  (1) 
1.67119837

$$$$
