
     RDKit          3D

 49 51  0  0  0  0  0  0  0  0999 V2000
   47.8960   33.8070   42.8460 C   0  0  0  0  0  0  0  0  0  0  0  0
   48.5940   35.0380   42.6790 C   0  0  0  0  0  0  0  0  0  0  0  0
   49.9600   35.0330   42.3720 C   0  0  0  0  0  0  0  0  0  0  0  0
   50.5570   33.8010   42.2490 N   0  0  0  0  0  0  0  0  0  0  0  0
   49.8390   32.6390   42.4210 C   0  0  0  0  0  0  0  0  0  0  0  0
   48.5540   32.6700   42.7080 N   0  0  0  0  0  0  0  0  0  0  0  0
   46.4740   33.9550   43.1690 C   0  0  0  0  0  0  0  0  0  0  0  0
   45.7810   34.9700   42.4180 C   0  0  0  0  0  0  0  0  0  0  0  0
   45.3310   36.1330   43.2150 C   0  0  0  0  0  0  0  0  0  0  0  0
   44.4490   35.6730   44.3900 C   0  0  0  0  0  0  0  0  0  0  0  0
   44.9870   34.4900   45.1110 C   0  0  0  0  0  0  0  0  0  0  0  0
   46.4240   34.1930   44.7150 C   0  0  0  0  0  0  0  0  0  0  0  0
   50.6420   31.4330   42.2560 C   0  0  0  0  0  0  0  0  0  0  0  0
   51.4180   31.3060   41.1680 N   0  0  0  0  0  0  0  0  0  0  0  0
   52.0700   30.1140   41.2220 C   0  0  0  0  0  0  0  0  0  0  0  0
   51.6800   29.5140   42.3630 N   0  0  0  0  0  0  0  0  0  0  0  0
   50.8130   30.3060   42.9970 N   0  0  0  0  0  0  0  0  0  0  0  0
   52.1170   28.2380   42.8750 C   0  0  0  0  0  0  0  0  0  0  0  0
   53.4200   28.3910   43.5230 C   0  0  0  0  0  0  0  0  0  0  0  0
   53.9660   29.3160   44.2930 C   0  0  0  0  0  0  0  0  0  0  0  0
   55.3430   29.2820   44.9760 C   0  0  0  0  0  0  0  0  0  0  0  0
   58.0360   29.6000   44.0650 N   0  0  0  0  0  0  0  0  0  0  0  0
   57.3050   30.6440   44.1410 C   0  0  0  0  0  0  0  0  0  0  0  0
   56.0090   30.5400   44.7520 N   0  0  0  0  0  0  0  0  0  0  0  0
   57.7350   31.9010   43.6390 N   0  0  0  0  0  0  0  0  0  0  0  0
   57.7010   28.6890   44.4380 H   0  0  0  0  0  0  0  0  0  0  0  0
   48.0593   35.9927   42.7913 H   0  0  0  0  0  0  0  0  0  0  0  0
   50.5260   35.9664   42.2363 H   0  0  0  0  0  0  0  0  0  0  0  0
   45.9257   33.0483   42.8738 H   0  0  0  0  0  0  0  0  0  0  0  0
   46.4575   35.3354   41.6313 H   0  0  0  0  0  0  0  0  0  0  0  0
   44.8712   34.4953   42.0220 H   0  0  0  0  0  0  0  0  0  0  0  0
   46.2102   36.6640   43.6087 H   0  0  0  0  0  0  0  0  0  0  0  0
   44.7425   36.8008   42.5687 H   0  0  0  0  0  0  0  0  0  0  0  0
   44.3601   36.5047   45.1044 H   0  0  0  0  0  0  0  0  0  0  0  0
   43.4771   35.3784   43.9674 H   0  0  0  0  0  0  0  0  0  0  0  0
   44.9488   34.6848   46.1929 H   0  0  0  0  0  0  0  0  0  0  0  0
   44.3717   33.6181   44.8442 H   0  0  0  0  0  0  0  0  0  0  0  0
   46.7752   33.2928   45.2406 H   0  0  0  0  0  0  0  0  0  0  0  0
   47.0725   35.0388   44.9873 H   0  0  0  0  0  0  0  0  0  0  0  0
   52.7776   29.7173   40.4791 H   0  0  0  0  0  0  0  0  0  0  0  0
   51.3849   27.8669   43.6074 H   0  0  0  0  0  0  0  0  0  0  0  0
   52.2028   27.5207   42.0454 H   0  0  0  0  0  0  0  0  0  0  0  0
   54.0968   27.5468   43.3248 H   0  0  0  0  0  0  0  0  0  0  0  0
   53.3624   30.2192   44.4661 H   0  0  0  0  0  0  0  0  0  0  0  0
   55.2149   29.1198   46.0564 H   0  0  0  0  0  0  0  0  0  0  0  0
   55.9456   28.4627   44.5569 H   0  0  0  0  0  0  0  0  0  0  0  0
   55.5333   31.4057   45.0438 H   0  0  0  0  0  0  0  0  0  0  0  0
   57.1204   32.7240   43.7163 H   0  0  0  0  0  0  0  0  0  0  0  0
   58.6614   31.9897   43.1977 H   0  0  0  0  0  0  0  0  0  0  0  0
  1  7  1  0
  2  1  2  0
  3  2  1  0
  4  3  2  0
  4  5  1  0
  5  6  2  0
  6  1  1  0
  7 12  1  0
  8  7  1  0
  8  9  1  0
  9 10  1  0
 10 11  1  0
 12 11  1  0
 13  5  1  0
 13 17  2  0
 14 15  2  0
 14 13  1  0
 15 16  1  0
 16 18  1  0
 16 17  1  0
 18 19  1  0
 19 20  2  0
 20 21  1  0
 22 23  2  0
 22 26  1  0
 23 24  1  0
 24 21  1  0
 25 23  1  0
  2 27  1  0
  3 28  1  0
  7 29  1  0
  8 30  1  0
  8 31  1  0
  9 32  1  0
  9 33  1  0
 10 34  1  0
 10 35  1  0
 11 36  1  0
 11 37  1  0
 12 38  1  0
 12 39  1  0
 15 40  1  0
 18 41  1  0
 18 42  1  0
 19 43  1  0
 20 44  1  0
 21 45  1  0
 21 46  1  0
 24 47  1  0
 25 48  1  0
 25 49  1  0
M  ISO  8  27  14  28  14  29  13  30  13  31  13  32  13  33  13  34  13
M  ISO  8  35  13  36  13  37  13  38  13  39  13  40  14  41   8  42   8
M  ISO  2  45   8  46   8
M  END
>  <minimizedAffinity>  (1) 
-4.45124435

>  <minimizedRMSD>  (1) 
1.47029078

$$$$
