
     RDKit          3D

 47 49  0  0  0  0  0  0  0  0999 V2000
   45.3810   27.8820   47.6560 C   0  0  0  0  0  0  0  0  0  0  0  0
   44.5980   27.0960   48.3450 C   0  0  0  0  0  0  0  0  0  0  0  0
   45.6320   31.5030   47.0700 C   0  0  0  0  0  0  0  0  0  0  0  0
   45.4110   31.9580   48.3690 C   0  0  0  0  0  0  0  0  0  0  0  0
   45.1800   31.1240   49.4420 C   0  0  0  0  0  0  0  0  0  0  0  0
   45.1710   29.7790   49.2010 C   0  0  0  0  0  0  0  0  0  0  0  0
   45.3910   29.3150   47.9120 C   0  0  0  0  0  0  0  0  0  0  0  0
   45.6080   30.1730   46.9170 N   0  0  0  0  0  0  0  0  0  0  0  0
   44.7800   36.5510   43.8700 C   0  0  0  0  0  0  0  0  0  0  0  0
   45.6810   36.2600   42.8220 C   0  0  0  0  0  0  0  0  0  0  0  0
   46.3240   35.0270   42.8440 C   0  0  0  0  0  0  0  0  0  0  0  0
   46.0750   34.1450   43.8570 N   0  0  0  0  0  0  0  0  0  0  0  0
   45.1970   34.4760   44.8400 C   0  0  0  0  0  0  0  0  0  0  0  0
   44.5520   35.6780   44.8450 N   0  0  0  0  0  0  0  0  0  0  0  0
   45.8660   32.4660   46.0050 C   0  0  0  0  0  0  0  0  0  0  0  0
   46.8660   32.2810   45.2560 O   0  0  0  0  0  0  0  0  0  0  0  0
   44.9460   33.5470   45.8880 N   0  0  0  0  0  0  0  0  0  0  0  0
   44.4730   25.6100   48.2050 C   0  0  0  0  0  0  0  0  0  0  0  0
   45.1630   23.2860   46.5270 Cl  0  0  0  0  0  0  0  0  0  0  0  0
   43.6440   24.1760   46.4430 C   0  0  0  0  0  0  0  0  0  0  0  0
   43.3830   25.2520   47.2580 C   0  0  0  0  0  0  0  0  0  0  0  0
   42.1910   25.9430   47.1910 C   0  0  0  0  0  0  0  0  0  0  0  0
   41.2280   25.5220   46.2580 C   0  0  0  0  0  0  0  0  0  0  0  0
   41.5010   24.4490   45.4520 C   0  0  0  0  0  0  0  0  0  0  0  0
   42.6930   23.7530   45.5150 C   0  0  0  0  0  0  0  0  0  0  0  0
   41.5760   21.0690   45.6010 N   0  0  0  0  0  0  0  0  0  0  0  0
   42.7180   21.3020   45.0390 C   0  0  0  0  0  0  0  0  0  0  0  0
   42.9630   22.6410   44.6850 N   0  0  0  0  0  0  0  0  0  0  0  0
   43.7200   20.3010   44.7630 N   0  0  0  0  0  0  0  0  0  0  0  0
   41.3920   20.0850   45.8630 H   0  0  0  0  0  0  0  0  0  0  0  0
   46.0354   27.4596   46.8793 H   0  0  0  0  0  0  0  0  0  0  0  0
   43.9650   27.5747   49.1067 H   0  0  0  0  0  0  0  0  0  0  0  0
   45.4215   33.0433   48.5478 H   0  0  0  0  0  0  0  0  0  0  0  0
   45.0097   31.5252   50.4520 H   0  0  0  0  0  0  0  0  0  0  0  0
   44.9908   29.0698   50.0223 H   0  0  0  0  0  0  0  0  0  0  0  0
   44.2572   37.5188   43.8790 H   0  0  0  0  0  0  0  0  0  0  0  0
   45.8679   36.9843   42.0155 H   0  0  0  0  0  0  0  0  0  0  0  0
   47.0330   34.7620   42.0458 H   0  0  0  0  0  0  0  0  0  0  0  0
   44.1441   33.6504   46.5261 H   0  0  0  0  0  0  0  0  0  0  0  0
   45.4235   25.2031   47.8294 H   0  0  0  0  0  0  0  0  0  0  0  0
   44.2336   25.1847   49.1908 H   0  0  0  0  0  0  0  0  0  0  0  0
   41.9991   26.8018   47.8511 H   0  0  0  0  0  0  0  0  0  0  0  0
   40.2657   26.0485   46.1760 H   0  0  0  0  0  0  0  0  0  0  0  0
   40.7405   24.1282   44.7249 H   0  0  0  0  0  0  0  0  0  0  0  0
   43.3676   22.8242   43.7557 H   0  0  0  0  0  0  0  0  0  0  0  0
   44.6058   20.5698   44.3112 H   0  0  0  0  0  0  0  0  0  0  0  0
   43.5495   19.3177   45.0178 H   0  0  0  0  0  0  0  0  0  0  0  0
  1  7  1  0
  1  2  2  0
  3  4  2  0
  4  5  1  0
  6  5  2  0
  7  6  1  0
  8  3  1  0
  8  7  2  0
  9 14  2  0
 10 11  2  0
 10  9  1  0
 11 12  1  0
 12 13  2  0
 13 14  1  0
 13 17  1  0
 15  3  1  0
 16 15  2  0
 17 15  1  0
 18  2  1  0
 20 19  1  0
 20 21  2  0
 21 18  1  0
 22 21  1  0
 23 22  2  0
 24 25  2  0
 24 23  1  0
 25 20  1  0
 26 30  1  0
 27 26  2  0
 28 27  1  0
 28 25  1  0
 29 27  1  0
  1 31  1  0
  2 32  1  0
  4 33  1  0
  5 34  1  0
  6 35  1  0
  9 36  1  0
 10 37  1  0
 11 38  1  0
 17 39  1  0
 18 40  1  0
 18 41  1  0
 22 42  1  0
 23 43  1  0
 24 44  1  0
 28 45  1  0
 29 46  1  0
 29 47  1  0
M  ISO  8  33  14  34  14  35  14  36  14  37  14  38  14  40   8  41   8
M  ISO  3  42  14  43  14  44  14
M  END
>  <minimizedAffinity>  (1) 
-6.06163597

>  <minimizedRMSD>  (1) 
0.435155332

$$$$
