
     RDKit          3D

 42 44  0  0  0  0  0  0  0  0999 V2000
   38.2410   31.5460   41.2290 C   0  0  0  0  0  0  0  0  0  0  0  0
   39.6320   31.5210   41.3410 C   0  0  0  0  0  0  0  0  0  0  0  0
   40.2560   30.2830   41.4280 C   0  0  0  0  0  0  0  0  0  0  0  0
   39.4780   29.1760   41.3990 N   0  0  0  0  0  0  0  0  0  0  0  0
   38.1250   29.2440   41.2890 C   0  0  0  0  0  0  0  0  0  0  0  0
   37.4880   30.4040   41.2030 N   0  0  0  0  0  0  0  0  0  0  0  0
   37.3850   27.9550   41.2690 C   0  0  0  0  0  0  0  0  0  0  0  0
   36.5540   27.8050   40.0120 C   0  0  0  0  0  0  0  0  0  0  0  0
   34.2750   27.2290   38.5220 N   0  0  0  0  0  0  0  0  0  0  0  0
   34.2100   28.1960   39.4040 C   0  0  0  0  0  0  0  0  0  0  0  0
   35.4430   28.7010   39.9590 N   0  0  0  0  0  0  0  0  0  0  0  0
   32.9560   28.7670   39.8360 N   0  0  0  0  0  0  0  0  0  0  0  0
   33.3560   26.9020   38.1530 H   0  0  0  0  0  0  0  0  0  0  0  0
   40.5440   33.0470   41.3680 S   0  0  0  0  0  0  0  0  0  0  0  0
   40.3650   33.8910   39.8140 C   0  0  0  0  0  0  0  0  0  0  0  0
   39.2160   33.8440   39.0490 C   0  0  0  0  0  0  0  0  0  0  0  0
   39.1500   34.5350   37.8350 C   0  0  0  0  0  0  0  0  0  0  0  0
   40.2090   35.2640   37.3860 C   0  0  0  0  0  0  0  0  0  0  0  0
   41.3570   35.3070   38.1560 C   0  0  0  0  0  0  0  0  0  0  0  0
   41.4560   34.6290   39.3710 C   0  0  0  0  0  0  0  0  0  0  0  0
   42.6650   34.6860   40.1630 C   0  0  0  0  0  0  0  0  0  0  0  0
   43.7630   33.9270   39.9580 C   0  0  0  0  0  0  0  0  0  0  0  0
   44.9250   33.9910   40.7300 C   0  0  0  0  0  0  0  0  0  0  0  0
   44.9460   34.8750   41.7510 N   0  0  0  0  0  0  0  0  0  0  0  0
   43.8540   35.6370   41.9630 C   0  0  0  0  0  0  0  0  0  0  0  0
   42.7450   35.5550   41.2020 N   0  0  0  0  0  0  0  0  0  0  0  0
   37.7320   32.5186   41.1591 H   0  0  0  0  0  0  0  0  0  0  0  0
   41.3495   30.2048   41.5178 H   0  0  0  0  0  0  0  0  0  0  0  0
   38.1085   27.1279   41.3187 H   0  0  0  0  0  0  0  0  0  0  0  0
   36.7050   27.9368   42.1335 H   0  0  0  0  0  0  0  0  0  0  0  0
   37.1991   27.9969   39.1420 H   0  0  0  0  0  0  0  0  0  0  0  0
   36.1484   26.7825   40.0097 H   0  0  0  0  0  0  0  0  0  0  0  0
   35.5187   29.6689   40.3031 H   0  0  0  0  0  0  0  0  0  0  0  0
   32.9485   29.5264   40.5318 H   0  0  0  0  0  0  0  0  0  0  0  0
   32.0691   28.4149   39.4483 H   0  0  0  0  0  0  0  0  0  0  0  0
   38.3500   33.2611   39.3958 H   0  0  0  0  0  0  0  0  0  0  0  0
   38.2297   34.4890   37.2343 H   0  0  0  0  0  0  0  0  0  0  0  0
   40.1525   35.8071   36.4311 H   0  0  0  0  0  0  0  0  0  0  0  0
   42.2171   35.8930   37.7999 H   0  0  0  0  0  0  0  0  0  0  0  0
   43.7406   33.2086   39.1253 H   0  0  0  0  0  0  0  0  0  0  0  0
   45.7899   33.3463   40.5148 H   0  0  0  0  0  0  0  0  0  0  0  0
   43.8691   36.3575   42.7940 H   0  0  0  0  0  0  0  0  0  0  0  0
  1  2  2  0
  2 14  1  0
  2  3  1  0
  4  3  2  0
  5  4  1  0
  6  1  1  0
  6  5  2  0
  7  5  1  0
  8  7  1  0
  9 10  2  0
 10 12  1  0
 10 11  1  0
 11  8  1  0
 13  9  1  0
 15 14  1  0
 16 15  2  0
 17 16  1  0
 18 17  2  0
 18 19  1  0
 19 20  2  0
 20 15  1  0
 20 21  1  0
 21 26  1  0
 22 21  2  0
 22 23  1  0
 23 24  2  0
 24 25  1  0
 26 25  2  0
  1 27  1  0
  3 28  1  0
  7 29  1  0
  7 30  1  0
  8 31  1  0
  8 32  1  0
 11 33  1  0
 12 34  1  0
 12 35  1  0
 16 36  1  0
 17 37  1  0
 18 38  1  0
 19 39  1  0
 22 40  1  0
 23 41  1  0
 25 42  1  0
M  ISO  8  27  14  28  14  29   8  30   8  31   8  32   8  36  14  37  14
M  ISO  5  38  14  39  14  40  14  41  14  42  14
M  END
>  <minimizedAffinity>  (1) 
-5.78275442

>  <minimizedRMSD>  (1) 
0.923461974

$$$$
