
     RDKit          3D

 40 43  0  0  1  0  0  0  0  0999 V2000
   46.6120   32.2140   46.1230 C   0  0  1  0  0  0  0  0  0  0  0  0
   46.8720   32.4980   47.5410 C   0  0  0  0  0  0  0  0  0  0  0  0
   45.5480   31.8080   47.0230 C   0  0  2  0  0  0  0  0  0  0  0  0
   45.2490   30.4260   47.4150 C   0  0  0  0  0  0  0  0  0  0  0  0
   45.1250   29.9300   48.6750 C   0  0  0  0  0  0  0  0  0  0  0  0
   44.9610   28.5990   49.0110 C   0  0  0  0  0  0  0  0  0  0  0  0
   44.9220   27.6870   47.9440 C   0  0  0  0  0  0  0  0  0  0  0  0
   45.0450   28.1670   46.6400 C   0  0  0  0  0  0  0  0  0  0  0  0
   44.9400   27.2410   45.6200 C   0  0  0  0  0  0  0  0  0  0  0  0
   44.9870   27.6790   44.3040 C   0  0  0  0  0  0  0  0  0  0  0  0
   45.1320   29.0200   44.0140 C   0  0  0  0  0  0  0  0  0  0  0  0
   45.2350   29.8990   45.0670 C   0  0  0  0  0  0  0  0  0  0  0  0
   45.2020   29.5110   46.3930 C   0  0  0  0  0  0  0  0  0  0  0  0
   45.0660   35.1350   44.4790 C   0  0  0  0  0  0  0  0  0  0  0  0
   45.8850   35.2920   43.3040 C   0  0  0  0  0  0  0  0  0  0  0  0
   46.9550   34.3830   43.1320 C   0  0  0  0  0  0  0  0  0  0  0  0
   47.1550   33.4380   44.0480 N   0  0  0  0  0  0  0  0  0  0  0  0
   46.3570   33.3180   45.1510 C   0  0  0  0  0  0  0  0  0  0  0  0
   45.3400   34.1480   45.3570 N   0  0  0  0  0  0  0  0  0  0  0  0
   49.7490   35.0740   43.0170 N   0  0  0  0  0  0  0  0  0  0  0  0
   49.0030   35.2270   41.9470 C   0  0  0  0  0  0  0  0  0  0  0  0
   47.8160   34.4680   42.0070 N   0  0  0  0  0  0  0  0  0  0  0  0
   49.2540   36.0360   40.7840 N   0  0  0  0  0  0  0  0  0  0  0  0
   50.6410   35.6080   43.0350 H   0  0  0  0  0  0  0  0  0  0  0  0
   47.2035   31.6825   45.3630 H   0  0  0  0  0  0  0  0  0  0  0  0
   47.6228   31.9188   48.0985 H   0  0  0  0  0  0  0  0  0  0  0  0
   47.1262   33.3831   48.1426 H   0  0  0  0  0  0  0  0  0  0  0  0
   44.4628   31.9870   47.0429 H   0  0  0  0  0  0  0  0  0  0  0  0
   45.1582   30.6539   49.5026 H   0  0  0  0  0  0  0  0  0  0  0  0
   44.8662   28.2723   50.0571 H   0  0  0  0  0  0  0  0  0  0  0  0
   44.7964   26.6107   48.1335 H   0  0  0  0  0  0  0  0  0  0  0  0
   44.8208   26.1715   45.8479 H   0  0  0  0  0  0  0  0  0  0  0  0
   44.9079   26.9499   43.4841 H   0  0  0  0  0  0  0  0  0  0  0  0
   45.1642   29.3751   42.9734 H   0  0  0  0  0  0  0  0  0  0  0  0
   45.3499   30.9694   44.8413 H   0  0  0  0  0  0  0  0  0  0  0  0
   44.2216   35.8165   44.6593 H   0  0  0  0  0  0  0  0  0  0  0  0
   45.6861   36.0869   42.5701 H   0  0  0  0  0  0  0  0  0  0  0  0
   47.5529   33.9326   41.1673 H   0  0  0  0  0  0  0  0  0  0  0  0
   50.1158   36.5969   40.7230 H   0  0  0  0  0  0  0  0  0  0  0  0
   48.5719   36.0543   40.0124 H   0  0  0  0  0  0  0  0  0  0  0  0
  1  3  1  0
  1  2  1  0
  3  4  1  0
  3  2  1  0
  4  5  2  0
  5  6  1  0
  7  6  2  0
  8  7  1  0
  9  8  2  0
 10  9  1  0
 11 10  2  0
 11 12  1  0
 12 13  2  0
 13  8  1  0
 13  4  1  0
 14 19  2  0
 15 14  1  0
 16 15  2  0
 16 17  1  0
 17 18  2  0
 18 19  1  0
 18  1  1  0
 20 24  1  0
 21 22  1  0
 21 20  2  0
 22 16  1  0
 23 21  1  0
  1 25  1  6
  2 26  1  0
  2 27  1  0
  3 28  1  6
  5 29  1  0
  6 30  1  0
  7 31  1  0
  9 32  1  0
 10 33  1  0
 11 34  1  0
 12 35  1  0
 14 36  1  0
 15 37  1  0
 22 38  1  0
 23 39  1  0
 23 40  1  0
M  ISO  8  25  13  26  13  27  13  28  13  29  14  30  14  31  14  32  14
M  ISO  5  33  14  34  14  35  14  36  14  37  14
M  END
>  <minimizedAffinity>  (1) 
-5.80069304

>  <minimizedRMSD>  (1) 
0.978172064

$$$$
