
     RDKit          3D

 27 28  0  0  0  0  0  0  0  0999 V2000
   44.5200   36.1150   44.5220 C   0  0  0  0  0  0  0  0  0  0  0  0
   45.1400   35.9890   43.2620 C   0  0  0  0  0  0  0  0  0  0  0  0
   45.9860   34.9130   43.0640 C   0  0  0  0  0  0  0  0  0  0  0  0
   46.1810   34.0320   44.0840 N   0  0  0  0  0  0  0  0  0  0  0  0
   45.5780   34.1790   45.2700 C   0  0  0  0  0  0  0  0  0  0  0  0
   44.7430   35.2200   45.5000 N   0  0  0  0  0  0  0  0  0  0  0  0
   45.8970   33.1640   46.2170 N   0  0  0  0  0  0  0  0  0  0  0  0
   45.1600   33.1530   47.3430 C   0  0  0  0  0  0  0  0  0  0  0  0
   45.4700   32.1710   48.2600 C   0  0  0  0  0  0  0  0  0  0  0  0
   46.4930   31.2980   47.9500 C   0  0  0  0  0  0  0  0  0  0  0  0
   46.8990   30.2480   48.8190 N   0  0  0  0  0  0  0  0  0  0  0  0
   47.1990   31.3670   46.7900 N   0  0  0  0  0  0  0  0  0  0  0  0
   46.8980   32.3320   45.8830 C   0  0  0  0  0  0  0  0  0  0  0  0
   47.5060   32.4580   44.7900 O   0  0  0  0  0  0  0  0  0  0  0  0
   46.5830   34.8150   41.8100 O   0  0  0  0  0  0  0  0  0  0  0  0
   48.4990   33.1040   41.1610 O   0  0  0  0  0  0  0  0  0  0  0  0
   48.2670   34.5080   41.7140 P   0  0  0  0  0  0  0  0  0  0  0  0
   48.9650   35.6810   40.7440 O   0  0  0  0  0  0  0  0  0  0  0  0
   48.8800   34.5400   43.2920 O   0  0  0  0  0  0  0  0  0  0  0  0
   43.8417   36.9607   44.7081 H   0  0  0  0  0  0  0  0  0  0  0  0
   44.9569   36.7223   42.4628 H   0  0  0  0  0  0  0  0  0  0  0  0
   44.3577   33.8842   47.5213 H   0  0  0  0  0  0  0  0  0  0  0  0
   44.9194   32.0861   49.2085 H   0  0  0  0  0  0  0  0  0  0  0  0
   47.6685   29.6207   48.5444 H   0  0  0  0  0  0  0  0  0  0  0  0
   46.4236   30.1148   49.7230 H   0  0  0  0  0  0  0  0  0  0  0  0
   49.3790   36.3768   41.3137 H   0  0  0  0  0  0  0  0  0  0  0  0
   48.1308   34.5009   43.9379 H   0  0  0  0  0  0  0  0  0  0  0  0
  1  6  2  0
  2  1  1  0
  3  2  2  0
  3  4  1  0
  4  5  2  0
  5  6  1  0
  5  7  1  0
  7  8  1  0
  8  9  2  0
 10  9  1  0
 10 11  1  0
 12 10  2  0
 13  7  1  0
 13 12  1  0
 14 13  2  0
 15  3  1  0
 16 17  2  0
 17 15  1  0
 17 19  1  0
 18 17  1  0
  1 20  1  0
  2 21  1  0
  8 22  1  0
  9 23  1  0
 11 24  1  0
 11 25  1  0
 18 26  1  0
 19 27  1  0
M  ISO  6  20  14  21  14  22  14  23  14  26   3  27   3
M  END
>  <minimizedAffinity>  (1) 
-6.4417181

>  <minimizedRMSD>  (1) 
0.370384693

$$$$
