
     RDKit          3D

 50 54  0  0  0  0  0  0  0  0999 V2000
   46.3520   32.8420   46.0970 C   0  0  0  0  0  0  0  0  0  0  0  0
   47.3990   31.9130   45.8640 C   0  0  0  0  0  0  0  0  0  0  0  0
   47.4950   31.1010   46.9370 C   0  0  0  0  0  0  0  0  0  0  0  0
   46.5560   31.5010   47.8000 N   0  0  0  0  0  0  0  0  0  0  0  0
   45.8710   32.5390   47.3040 N   0  0  0  0  0  0  0  0  0  0  0  0
   44.6000   35.6890   44.6440 C   0  0  0  0  0  0  0  0  0  0  0  0
   45.1840   35.8440   43.3990 C   0  0  0  0  0  0  0  0  0  0  0  0
   46.1970   34.9510   43.0630 C   0  0  0  0  0  0  0  0  0  0  0  0
   46.5430   33.9950   43.9640 N   0  0  0  0  0  0  0  0  0  0  0  0
   45.9650   33.8690   45.1520 C   0  0  0  0  0  0  0  0  0  0  0  0
   44.9830   34.7290   45.4890 N   0  0  0  0  0  0  0  0  0  0  0  0
   46.9630   34.8890   41.8490 N   0  0  0  0  0  0  0  0  0  0  0  0
   48.1610   35.4710   41.6640 C   0  0  0  0  0  0  0  0  0  0  0  0
   48.8070   35.3370   40.4360 C   0  0  0  0  0  0  0  0  0  0  0  0
   48.1680   34.6020   39.4590 C   0  0  0  0  0  0  0  0  0  0  0  0
   48.8390   34.4740   38.2060 N   0  0  0  0  0  0  0  0  0  0  0  0
   46.9680   34.0380   39.6880 N   0  0  0  0  0  0  0  0  0  0  0  0
   46.3420   34.1730   40.8940 C   0  0  0  0  0  0  0  0  0  0  0  0
   45.2230   33.6120   41.0210 O   0  0  0  0  0  0  0  0  0  0  0  0
   46.2980   30.9050   49.1020 C   0  0  0  0  0  0  0  0  0  0  0  0
   44.9560   30.2520   49.1160 C   0  0  0  0  0  0  0  0  0  0  0  0
   44.9540   27.7390   48.6110 C   0  0  0  0  0  0  0  0  0  0  0  0
   44.7870   29.0730   48.2910 C   0  0  0  0  0  0  0  0  0  0  0  0
   44.3990   29.3400   46.9750 C   0  0  0  0  0  0  0  0  0  0  0  0
   44.1960   28.3420   46.0650 C   0  0  0  0  0  0  0  0  0  0  0  0
   43.8280   28.2950   44.7640 N   0  0  0  0  0  0  0  0  0  0  0  0
   43.7730   27.0390   44.3200 C   0  0  0  0  0  0  0  0  0  0  0  0
   44.1140   26.1840   45.3510 C   0  0  0  0  0  0  0  0  0  0  0  0
   44.3660   27.0200   46.4010 C   0  0  0  0  0  0  0  0  0  0  0  0
   44.7480   26.7410   47.6910 C   0  0  0  0  0  0  0  0  0  0  0  0
   44.9450   25.3550   48.1070 C   0  0  0  0  0  0  0  0  0  0  0  0
   45.3050   25.0690   49.2830 O   0  0  0  0  0  0  0  0  0  0  0  0
   48.0260   31.8634   44.9615 H   0  0  0  0  0  0  0  0  0  0  0  0
   48.2059   30.2729   47.0746 H   0  0  0  0  0  0  0  0  0  0  0  0
   43.7967   36.3770   44.9462 H   0  0  0  0  0  0  0  0  0  0  0  0
   44.8624   36.6363   42.7071 H   0  0  0  0  0  0  0  0  0  0  0  0
   48.6278   36.0485   42.4756 H   0  0  0  0  0  0  0  0  0  0  0  0
   49.7882   35.7994   40.2531 H   0  0  0  0  0  0  0  0  0  0  0  0
   49.7571   34.9192   38.0656 H   0  0  0  0  0  0  0  0  0  0  0  0
   48.4052   33.9364   37.4420 H   0  0  0  0  0  0  0  0  0  0  0  0
   47.0704   30.1515   49.3157 H   0  0  0  0  0  0  0  0  0  0  0  0
   46.3197   31.6946   49.8676 H   0  0  0  0  0  0  0  0  0  0  0  0
   44.7388   29.9633   50.1550 H   0  0  0  0  0  0  0  0  0  0  0  0
   44.2715   30.9992   48.6881 H   0  0  0  0  0  0  0  0  0  0  0  0
   45.2608   27.4690   49.6323 H   0  0  0  0  0  0  0  0  0  0  0  0
   44.2528   30.3847   46.6631 H   0  0  0  0  0  0  0  0  0  0  0  0
   43.6172   29.1237   44.1898 H   0  0  0  0  0  0  0  0  0  0  0  0
   43.5005   26.7330   43.2992 H   0  0  0  0  0  0  0  0  0  0  0  0
   44.1695   25.0856   45.3305 H   0  0  0  0  0  0  0  0  0  0  0  0
   44.7766   24.5449   47.3822 H   0  0  0  0  0  0  0  0  0  0  0  0
  1  5  2  0
  2  1  1  0
  2  3  2  0
  3  4  1  0
  4 20  1  0
  5  4  1  0
  6 11  2  0
  7  6  1  0
  8  7  2  0
  8  9  1  0
  9 10  2  0
 10 11  1  0
 10  1  1  0
 12  8  1  0
 13 12  1  0
 14 13  2  0
 15 17  2  0
 15 14  1  0
 16 15  1  0
 17 18  1  0
 18 19  2  0
 18 12  1  0
 20 21  1  0
 23 22  2  0
 23 21  1  0
 24 23  1  0
 25 29  1  0
 25 24  2  0
 26 25  1  0
 27 26  1  0
 27 28  2  0
 28 29  1  0
 29 30  2  0
 30 31  1  0
 30 22  1  0
 31 32  2  0
  2 33  1  0
  3 34  1  0
  6 35  1  0
  7 36  1  0
 13 37  1  0
 14 38  1  0
 16 39  1  0
 16 40  1  0
 20 41  1  0
 20 42  1  0
 21 43  1  0
 21 44  1  0
 22 45  1  0
 24 46  1  0
 26 47  1  0
 27 48  1  0
 28 49  1  0
 31 50  1  0
M  ISO  8  33  14  34  14  35  14  36  14  37  14  38  14  41   8  42   8
M  ISO  8  43   8  44   8  45  14  46  14  47   9  48  14  49  14  50   6
M  END
>  <minimizedAffinity>  (1) 
-6.54918337

>  <minimizedRMSD>  (1) 
1.03727043

$$$$
