
     RDKit          3D

 39 42  0  0  1  0  0  0  0  0999 V2000
   48.0420   33.1000   43.6560 N   0  0  0  0  0  0  0  0  0  0  0  0
   49.0400   32.9380   42.7120 C   0  0  0  0  0  0  0  0  0  0  0  0
   50.1060   32.2660   42.7580 O   0  0  0  0  0  0  0  0  0  0  0  0
   46.0400   32.1440   44.7610 C   0  0  1  0  0  0  0  0  0  0  0  0
   46.3460   31.2710   43.6890 C   0  0  0  0  0  0  0  0  0  0  0  0
   47.4850   32.0180   44.4050 C   0  0  1  0  0  0  0  0  0  0  0  0
   44.8970   33.7960   43.1290 C   0  0  0  0  0  0  0  0  0  0  0  0
   45.3710   33.4820   44.4280 C   0  0  0  0  0  0  0  0  0  0  0  0
   45.2300   34.4330   45.4070 C   0  0  0  0  0  0  0  0  0  0  0  0
   44.6530   35.6180   45.0980 N   0  0  0  0  0  0  0  0  0  0  0  0
   44.2040   35.9120   43.8600 C   0  0  0  0  0  0  0  0  0  0  0  0
   44.3330   34.9640   42.8400 N   0  0  0  0  0  0  0  0  0  0  0  0
   48.9240   33.6340   41.3630 C   0  0  2  0  0  0  0  0  0  0  0  0
   47.8690   34.7820   41.2630 C   0  0  0  0  0  0  0  0  0  0  0  0
   47.7490   33.4740   40.5180 C   0  0  1  0  0  0  0  0  0  0  0  0
   48.0150   33.4840   39.0720 N   0  0  0  0  0  0  0  0  0  0  0  0
   48.3420   34.5600   38.3430 C   0  0  0  0  0  0  0  0  0  0  0  0
   48.5660   34.4240   36.9840 C   0  0  0  0  0  0  0  0  0  0  0  0
   48.4520   33.1840   36.3810 C   0  0  0  0  0  0  0  0  0  0  0  0
   48.6730   32.9920   34.9750 N   0  0  0  0  0  0  0  0  0  0  0  0
   48.1180   32.1070   37.1490 N   0  0  0  0  0  0  0  0  0  0  0  0
   47.9010   32.2620   38.4880 C   0  0  0  0  0  0  0  0  0  0  0  0
   47.5990   31.1840   39.0780 O   0  0  0  0  0  0  0  0  0  0  0  0
   47.6818   34.0495   43.8279 H   0  0  0  0  0  0  0  0  0  0  0  0
   45.4672   32.0120   45.6908 H   0  0  0  0  0  0  0  0  0  0  0  0
   46.0701   31.5475   42.6607 H   0  0  0  0  0  0  0  0  0  0  0  0
   46.1328   30.2154   43.4647 H   0  0  0  0  0  0  0  0  0  0  0  0
   48.4154   31.7666   44.9352 H   0  0  0  0  0  0  0  0  0  0  0  0
   44.9999   33.0454   42.3315 H   0  0  0  0  0  0  0  0  0  0  0  0
   45.5815   34.2349   46.4303 H   0  0  0  0  0  0  0  0  0  0  0  0
   43.7407   36.8884   43.6549 H   0  0  0  0  0  0  0  0  0  0  0  0
   50.0007   33.5056   41.1778 H   0  0  0  0  0  0  0  0  0  0  0  0
   47.2043   35.0061   42.1103 H   0  0  0  0  0  0  0  0  0  0  0  0
   47.8755   35.8506   41.0023 H   0  0  0  0  0  0  0  0  0  0  0  0
   46.9414   32.7303   40.4498 H   0  0  0  0  0  0  0  0  0  0  0  0
   48.4319   35.5460   38.8222 H   0  0  0  0  0  0  0  0  0  0  0  0
   48.8354   35.3041   36.3817 H   0  0  0  0  0  0  0  0  0  0  0  0
   48.5787   32.0530   34.5624 H   0  0  0  0  0  0  0  0  0  0  0  0
   48.9258   33.7933   34.3793 H   0  0  0  0  0  0  0  0  0  0  0  0
  1  6  1  0
  2  3  2  0
  2  1  1  0
  5  6  1  0
  5  4  1  0
  6  4  1  0
  7  8  2  0
  8  4  1  0
  8  9  1  0
 10  9  2  0
 11 10  1  0
 12  7  1  0
 12 11  2  0
 13  2  1  0
 14 13  1  0
 15 14  1  0
 15 13  1  0
 16 15  1  0
 17 16  1  0
 18 17  2  0
 19 18  1  0
 19 21  2  0
 20 19  1  0
 21 22  1  0
 22 16  1  0
 22 23  2  0
  1 24  1  0
  4 25  1  1
  5 26  1  0
  5 27  1  0
  6 28  1  1
  7 29  1  0
  9 30  1  0
 11 31  1  0
 13 32  1  6
 14 33  1  0
 14 34  1  0
 15 35  1  1
 17 36  1  0
 18 37  1  0
 20 38  1  0
 20 39  1  0
M  ISO  8  25  13  26  13  27  13  28  13  29  14  30  14  31  14  32  13
M  ISO  5  33  13  34  13  35  13  36  14  37  14
M  END
>  <minimizedAffinity>  (1) 
-5.01603937

>  <minimizedRMSD>  (1) 
1.76272333

$$$$
