
     RDKit          3D

 50 55  0  0  1  0  0  0  0  0999 V2000
   47.4810   32.6700   41.1290 C   0  0  0  0  0  0  0  0  0  0  0  0
   47.1970   31.7170   40.0930 C   0  0  0  0  0  0  0  0  0  0  0  0
   47.0770   30.3990   40.4490 C   0  0  0  0  0  0  0  0  0  0  0  0
   47.2370   30.0780   41.7610 N   0  0  0  0  0  0  0  0  0  0  0  0
   47.5070   30.9910   42.7280 C   0  0  0  0  0  0  0  0  0  0  0  0
   47.6270   32.2880   42.4050 N   0  0  0  0  0  0  0  0  0  0  0  0
   47.0630   32.2020   38.6870 C   0  0  1  0  0  0  0  0  0  0  0  0
   47.5920   33.5040   38.3010 C   0  0  0  0  0  0  0  0  0  0  0  0
   48.3490   32.2990   37.8790 C   0  0  2  0  0  0  0  0  0  0  0  0
   48.2070   31.8750   36.4600 C   0  0  0  0  0  0  0  0  0  0  0  0
   47.5660   30.7230   36.0560 C   0  0  0  0  0  0  0  0  0  0  0  0
   47.4710   30.3920   34.7130 C   0  0  0  0  0  0  0  0  0  0  0  0
   48.0200   31.2110   33.7560 C   0  0  0  0  0  0  0  0  0  0  0  0
   47.9380   30.9230   32.4260 N   0  0  0  0  0  0  0  0  0  0  0  0
   48.4780   31.7460   31.5140 C   0  0  0  0  0  0  0  0  0  0  0  0
   49.1570   32.9470   31.8310 C   0  0  0  0  0  0  0  0  0  0  0  0
   49.2500   33.2580   33.1680 C   0  0  0  0  0  0  0  0  0  0  0  0
   48.6830   32.3900   34.1110 C   0  0  0  0  0  0  0  0  0  0  0  0
   48.7530   32.6800   35.4600 C   0  0  0  0  0  0  0  0  0  0  0  0
   47.6560   30.5140   44.1300 C   0  0  2  0  0  0  0  0  0  0  0  0
   47.3610   29.1380   44.4990 C   0  0  0  0  0  0  0  0  0  0  0  0
   46.3110   30.1740   44.8210 C   0  0  1  0  0  0  0  0  0  0  0  0
   46.0680   30.6220   46.1480 N   0  0  0  0  0  0  0  0  0  0  0  0
   46.6910   31.7390   46.6270 C   0  0  0  0  0  0  0  0  0  0  0  0
   46.5080   32.2380   47.9020 C   0  0  0  0  0  0  0  0  0  0  0  0
   45.6450   31.5750   48.7520 C   0  0  0  0  0  0  0  0  0  0  0  0
   45.3980   32.0180   50.0820 N   0  0  0  0  0  0  0  0  0  0  0  0
   45.0270   30.4670   48.2750 N   0  0  0  0  0  0  0  0  0  0  0  0
   45.2430   30.0230   47.0200 C   0  0  0  0  0  0  0  0  0  0  0  0
   44.6200   28.9900   46.6800 O   0  0  0  0  0  0  0  0  0  0  0  0
   47.5806   33.7344   40.8700 H   0  0  0  0  0  0  0  0  0  0  0  0
   46.8583   29.6257   39.6979 H   0  0  0  0  0  0  0  0  0  0  0  0
   46.0791   31.7226   38.5765 H   0  0  0  0  0  0  0  0  0  0  0  0
   47.0617   34.1044   37.5471 H   0  0  0  0  0  0  0  0  0  0  0  0
   47.8557   34.4165   38.8557 H   0  0  0  0  0  0  0  0  0  0  0  0
   49.3926   31.9658   37.9787 H   0  0  0  0  0  0  0  0  0  0  0  0
   47.1232   30.0564   36.8107 H   0  0  0  0  0  0  0  0  0  0  0  0
   46.9535   29.4691   34.4121 H   0  0  0  0  0  0  0  0  0  0  0  0
   48.3873   31.4700   30.4531 H   0  0  0  0  0  0  0  0  0  0  0  0
   49.5860   33.5949   31.0524 H   0  0  0  0  0  0  0  0  0  0  0  0
   49.7625   34.1756   33.4925 H   0  0  0  0  0  0  0  0  0  0  0  0
   49.2707   33.6017   35.7640 H   0  0  0  0  0  0  0  0  0  0  0  0
   48.5357   31.1487   44.3122 H   0  0  0  0  0  0  0  0  0  0  0  0
   47.1657   28.3960   43.7108 H   0  0  0  0  0  0  0  0  0  0  0  0
   47.8905   28.3816   45.0970 H   0  0  0  0  0  0  0  0  0  0  0  0
   45.2379   30.2909   44.6095 H   0  0  0  0  0  0  0  0  0  0  0  0
   47.3803   32.2737   45.9569 H   0  0  0  0  0  0  0  0  0  0  0  0
   47.0379   33.1434   48.2329 H   0  0  0  0  0  0  0  0  0  0  0  0
   44.7470   31.4963   50.6861 H   0  0  0  0  0  0  0  0  0  0  0  0
   45.8703   32.8603   50.4403 H   0  0  0  0  0  0  0  0  0  0  0  0
  1  6  2  0
  2  3  2  0
  2  1  1  0
  3  4  1  0
  4  5  2  0
  5 20  1  0
  6  5  1  0
  7  2  1  0
  8  7  1  0
  9  8  1  0
  9  7  1  0
 10  9  1  0
 11 10  2  0
 12 11  1  0
 13 18  1  0
 13 12  2  0
 14 13  1  0
 15 16  1  0
 15 14  2  0
 16 17  2  0
 17 18  1  0
 18 19  2  0
 19 10  1  0
 20 21  1  0
 20 22  1  0
 21 22  1  0
 22 23  1  0
 23 24  1  0
 23 29  1  0
 24 25  2  0
 25 26  1  0
 26 27  1  0
 28 26  2  0
 29 28  1  0
 30 29  2  0
  1 31  1  0
  3 32  1  0
  7 33  1  6
  8 34  1  0
  8 35  1  0
  9 36  1  1
 11 37  1  0
 12 38  1  0
 15 39  1  0
 16 40  1  0
 17 41  1  0
 19 42  1  0
 20 43  1  1
 21 44  1  0
 21 45  1  0
 22 46  1  6
 24 47  1  0
 25 48  1  0
 27 49  1  0
 27 50  1  0
M  ISO  8  31  14  32  14  33  13  34  13  35  13  36  13  37  14  38  14
M  ISO  8  39  14  40  14  41  14  42  14  43  13  44  13  45  13  46  13
M  ISO  2  47  14  48  14
M  END
>  <minimizedAffinity>  (1) 
-5.62079811

>  <minimizedRMSD>  (1) 
5.09642315

$$$$
