
     RDKit          3D

 29 31  0  0  0  0  0  0  0  0999 V2000
   46.2420   33.1160   44.8420 C   0  0  0  0  0  0  0  0  0  0  0  0
   47.3100   33.6250   44.1240 C   0  0  0  0  0  0  0  0  0  0  0  0
   46.8850   34.0950   42.9300 C   0  0  0  0  0  0  0  0  0  0  0  0
   45.5560   33.8790   42.9050 N   0  0  0  0  0  0  0  0  0  0  0  0
   45.1770   33.2930   44.0540 N   0  0  0  0  0  0  0  0  0  0  0  0
   45.4450   32.5620   40.4100 F   0  0  0  0  0  0  0  0  0  0  0  0
   44.5750   33.5410   40.6740 C   0  0  0  0  0  0  0  0  0  0  0  0
   44.6300   34.1830   41.8900 C   0  0  0  0  0  0  0  0  0  0  0  0
   43.7320   35.2080   42.1850 C   0  0  0  0  0  0  0  0  0  0  0  0
   42.7720   35.6140   41.2920 C   0  0  0  0  0  0  0  0  0  0  0  0
   42.7370   34.9570   40.0800 C   0  0  0  0  0  0  0  0  0  0  0  0
   43.6150   33.9410   39.7680 C   0  0  0  0  0  0  0  0  0  0  0  0
   43.5050   33.3010   38.4630 C   0  0  0  0  0  0  0  0  0  0  0  0
   44.4350   33.3640   37.6170 O   0  0  0  0  0  0  0  0  0  0  0  0
   47.2940   31.0160   47.6400 C   0  0  0  0  0  0  0  0  0  0  0  0
   46.4150   31.4220   48.6670 C   0  0  0  0  0  0  0  0  0  0  0  0
   45.4690   32.4120   48.3920 C   0  0  0  0  0  0  0  0  0  0  0  0
   45.4780   32.9090   47.1320 N   0  0  0  0  0  0  0  0  0  0  0  0
   46.3060   32.5270   46.1620 C   0  0  0  0  0  0  0  0  0  0  0  0
   47.2240   31.5730   46.4140 N   0  0  0  0  0  0  0  0  0  0  0  0
   48.3527   33.6443   44.4739 H   0  0  0  0  0  0  0  0  0  0  0  0
   47.4976   34.5578   42.1423 H   0  0  0  0  0  0  0  0  0  0  0  0
   43.7948   35.7066   43.1635 H   0  0  0  0  0  0  0  0  0  0  0  0
   42.0659   36.4229   41.5311 H   0  0  0  0  0  0  0  0  0  0  0  0
   41.9825   35.2539   39.3366 H   0  0  0  0  0  0  0  0  0  0  0  0
   42.5870   32.7496   38.2114 H   0  0  0  0  0  0  0  0  0  0  0  0
   48.0440   30.2371   47.8419 H   0  0  0  0  0  0  0  0  0  0  0  0
   46.4740   30.9666   49.6666 H   0  0  0  0  0  0  0  0  0  0  0  0
   44.7589   32.7670   49.1534 H   0  0  0  0  0  0  0  0  0  0  0  0
  1 19  1  0
  2  1  1  0
  3  2  2  0
  4  3  1  0
  4  5  1  0
  5  1  2  0
  6  7  1  0
  7  8  2  0
  8  9  1  0
  8  4  1  0
 10  9  2  0
 11 10  1  0
 12 11  2  0
 12  7  1  0
 13 12  1  0
 14 13  2  0
 15 16  2  0
 17 16  1  0
 18 17  2  0
 19 20  2  0
 19 18  1  0
 20 15  1  0
  2 21  1  0
  3 22  1  0
  9 23  1  0
 10 24  1  0
 11 25  1  0
 13 26  1  0
 15 27  1  0
 16 28  1  0
 17 29  1  0
M  ISO  8  21  14  22  14  23  14  24  14  25  14  26   6  27  14  28  14
M  ISO  1  29  14
M  END
>  <minimizedAffinity>  (1) 
-4.71242952

>  <minimizedRMSD>  (1) 
0.301558375

$$$$
