
     RDKit          3D

 35 37  0  0  0  0  0  0  0  0999 V2000
   47.5290   31.3880   45.4290 Cl  0  0  0  0  0  0  0  0  0  0  0  0
   46.6630   31.5040   46.9700 C   0  0  0  0  0  0  0  0  0  0  0  0
   45.7810   32.5570   47.1340 C   0  0  0  0  0  0  0  0  0  0  0  0
   45.1260   32.6370   48.3080 C   0  0  0  0  0  0  0  0  0  0  0  0
   45.3550   31.6750   49.3000 C   0  0  0  0  0  0  0  0  0  0  0  0
   46.2430   30.6300   49.1150 C   0  0  0  0  0  0  0  0  0  0  0  0
   46.9280   30.5330   47.9060 C   0  0  0  0  0  0  0  0  0  0  0  0
   49.5240   30.9530   48.6610 F   0  0  0  0  0  0  0  0  0  0  0  0
   49.1600   29.7810   48.0590 C   0  0  0  0  0  0  0  0  0  0  0  0
   47.8820   29.4580   47.6370 C   0  0  0  0  0  0  0  0  0  0  0  0
   47.6360   28.2460   47.0440 C   0  0  0  0  0  0  0  0  0  0  0  0
   48.6750   27.3650   46.8790 C   0  0  0  0  0  0  0  0  0  0  0  0
   49.9690   27.6620   47.2930 C   0  0  0  0  0  0  0  0  0  0  0  0
   50.2070   28.8790   47.8870 C   0  0  0  0  0  0  0  0  0  0  0  0
   44.6100   35.4350   45.2290 C   0  0  0  0  0  0  0  0  0  0  0  0
   45.2940   35.3370   44.0020 C   0  0  0  0  0  0  0  0  0  0  0  0
   46.1630   34.2520   43.8560 C   0  0  0  0  0  0  0  0  0  0  0  0
   46.2890   33.3750   44.8920 N   0  0  0  0  0  0  0  0  0  0  0  0
   45.5940   33.5290   46.0570 C   0  0  0  0  0  0  0  0  0  0  0  0
   44.7660   34.5600   46.2030 N   0  0  0  0  0  0  0  0  0  0  0  0
   46.8600   34.1700   42.5710 C   0  0  0  0  0  0  0  0  0  0  0  0
   47.7780   33.1250   42.6260 F   0  0  0  0  0  0  0  0  0  0  0  0
   47.6000   35.3200   42.4500 F   0  0  0  0  0  0  0  0  0  0  0  0
   46.0180   33.9110   41.5210 F   0  0  0  0  0  0  0  0  0  0  0  0
   45.0380   36.3710   43.0350 C   0  0  0  0  0  0  0  0  0  0  0  0
   45.1510   37.6110   43.1140 O   0  0  0  0  0  0  0  0  0  0  0  0
   44.4133   33.4554   48.4873 H   0  0  0  0  0  0  0  0  0  0  0  0
   44.8130   31.7525   50.2541 H   0  0  0  0  0  0  0  0  0  0  0  0
   46.4054   29.8875   49.9102 H   0  0  0  0  0  0  0  0  0  0  0  0
   46.6224   27.9845   46.7062 H   0  0  0  0  0  0  0  0  0  0  0  0
   48.4781   26.3926   46.4040 H   0  0  0  0  0  0  0  0  0  0  0  0
   50.7849   26.9386   47.1483 H   0  0  0  0  0  0  0  0  0  0  0  0
   51.2209   29.1392   48.2252 H   0  0  0  0  0  0  0  0  0  0  0  0
   43.9173   36.2758   45.3811 H   0  0  0  0  0  0  0  0  0  0  0  0
   44.6821   36.0063   42.0602 H   0  0  0  0  0  0  0  0  0  0  0  0
  1  2  1  0
  2  3  2  0
  2  7  1  0
  3  4  1  0
  4  5  2  0
  6  5  1  0
  7  6  2  0
  9  8  1  0
 10  7  1  0
 10  9  2  0
 11 10  1  0
 12 11  2  0
 12 13  1  0
 13 14  2  0
 14  9  1  0
 15 20  2  0
 16 15  1  0
 17 16  2  0
 17 18  1  0
 18 19  2  0
 19 20  1  0
 19  3  1  0
 21 22  1  0
 21 17  1  0
 23 21  1  0
 24 21  1  0
 25 26  2  0
 25 16  1  0
  4 27  1  0
  5 28  1  0
  6 29  1  0
 11 30  1  0
 12 31  1  0
 13 32  1  0
 14 33  1  0
 15 34  1  0
 25 35  1  0
M  ISO  8  27  14  28  14  29  14  30  14  31  14  32  14  33  14  34  14
M  ISO  1  35   6
M  END
>  <minimizedAffinity>  (1) 
-5.915205

>  <minimizedRMSD>  (1) 
0.720182717

$$$$
