
     RDKit          3D

 22 23  0  0  0  0  0  0  0  0999 V2000
   44.8160   33.1640   41.1670 Cl  0  0  0  0  0  0  0  0  0  0  0  0
   46.3360   34.0020   40.9930 C   0  0  0  0  0  0  0  0  0  0  0  0
   46.8550   34.7520   42.0100 C   0  0  0  0  0  0  0  0  0  0  0  0
   48.0640   35.3750   41.7730 C   0  0  0  0  0  0  0  0  0  0  0  0
   48.7290   35.2610   40.5880 C   0  0  0  0  0  0  0  0  0  0  0  0
   48.2050   34.5080   39.5700 C   0  0  0  0  0  0  0  0  0  0  0  0
   47.0080   33.8850   39.7900 C   0  0  0  0  0  0  0  0  0  0  0  0
   44.4860   35.9400   44.7140 C   0  0  0  0  0  0  0  0  0  0  0  0
   45.1910   35.8670   43.5110 C   0  0  0  0  0  0  0  0  0  0  0  0
   46.1180   34.8450   43.2510 C   0  0  0  0  0  0  0  0  0  0  0  0
   46.2790   33.9390   44.2500 N   0  0  0  0  0  0  0  0  0  0  0  0
   45.6000   34.0150   45.4050 C   0  0  0  0  0  0  0  0  0  0  0  0
   44.7080   34.9990   45.6520 N   0  0  0  0  0  0  0  0  0  0  0  0
   46.4300   33.0770   38.7180 C   0  0  0  0  0  0  0  0  0  0  0  0
   46.6200   33.3580   37.5070 O   0  0  0  0  0  0  0  0  0  0  0  0
   48.5083   35.9874   42.5715 H   0  0  0  0  0  0  0  0  0  0  0  0
   49.6909   35.7761   40.4485 H   0  0  0  0  0  0  0  0  0  0  0  0
   48.7297   34.4082   38.6084 H   0  0  0  0  0  0  0  0  0  0  0  0
   43.7635   36.7500   44.8923 H   0  0  0  0  0  0  0  0  0  0  0  0
   45.0146   36.6343   42.7428 H   0  0  0  0  0  0  0  0  0  0  0  0
   45.7756   33.2506   46.1763 H   0  0  0  0  0  0  0  0  0  0  0  0
   45.8145   32.2027   38.9764 H   0  0  0  0  0  0  0  0  0  0  0  0
  2  1  1  0
  2  3  2  0
  3 10  1  0
  4  3  1  0
  5  4  2  0
  6  7  2  0
  6  5  1  0
  7  2  1  0
  8 13  2  0
  9  8  1  0
 10  9  2  0
 10 11  1  0
 11 12  2  0
 12 13  1  0
 14  7  1  0
 15 14  2  0
  4 16  1  0
  5 17  1  0
  6 18  1  0
  8 19  1  0
  9 20  1  0
 12 21  1  0
 14 22  1  0
M  ISO  7  16  14  17  14  18  14  19  14  20  14  21  14  22   6
M  END
>  <minimizedAffinity>  (1) 
-5.14250183

>  <minimizedRMSD>  (1) 
0.42843914

$$$$
