
     RDKit          3D

 36 39  0  0  0  0  0  0  0  0999 V2000
   45.8790   33.2490   40.8550 F   0  0  0  0  0  0  0  0  0  0  0  0
   46.8920   34.0910   41.0160 C   0  0  0  0  0  0  0  0  0  0  0  0
   47.7100   34.3900   39.9480 C   0  0  0  0  0  0  0  0  0  0  0  0
   48.7840   35.2770   40.1000 C   0  0  0  0  0  0  0  0  0  0  0  0
   49.0610   35.8760   41.3050 C   0  0  0  0  0  0  0  0  0  0  0  0
   48.2320   35.5640   42.3610 C   0  0  0  0  0  0  0  0  0  0  0  0
   47.1660   34.6890   42.2270 C   0  0  0  0  0  0  0  0  0  0  0  0
   46.3510   34.4300   43.4110 C   0  0  0  0  0  0  0  0  0  0  0  0
   45.1090   34.8910   43.7860 C   0  0  0  0  0  0  0  0  0  0  0  0
   44.7530   34.3720   44.9810 N   0  0  0  0  0  0  0  0  0  0  0  0
   45.7660   33.5810   45.3680 C   0  0  0  0  0  0  0  0  0  0  0  0
   46.7280   33.6150   44.4250 N   0  0  0  0  0  0  0  0  0  0  0  0
   46.5520   32.8290   37.0200 C   0  0  0  0  0  0  0  0  0  0  0  0
   47.8230   33.2430   36.6020 C   0  0  0  0  0  0  0  0  0  0  0  0
   48.4300   33.8820   37.6370 C   0  0  0  0  0  0  0  0  0  0  0  0
   47.5570   33.8620   38.6590 N   0  0  0  0  0  0  0  0  0  0  0  0
   46.4450   33.2310   38.2740 N   0  0  0  0  0  0  0  0  0  0  0  0
   44.9500   31.3220   34.1050 C   0  0  0  0  0  0  0  0  0  0  0  0
   43.7790   30.7470   34.6590 C   0  0  0  0  0  0  0  0  0  0  0  0
   43.5690   30.8940   36.0330 C   0  0  0  0  0  0  0  0  0  0  0  0
   44.4960   31.5710   36.7220 N   0  0  0  0  0  0  0  0  0  0  0  0
   45.6030   32.1130   36.1930 C   0  0  0  0  0  0  0  0  0  0  0  0
   45.8470   31.9930   34.8510 N   0  0  0  0  0  0  0  0  0  0  0  0
   42.3890   30.3290   36.6680 C   0  0  0  0  0  0  0  0  0  0  0  0
   41.4410   29.9270   35.9460 O   0  0  0  0  0  0  0  0  0  0  0  0
   49.4220   35.4995   39.2320 H   0  0  0  0  0  0  0  0  0  0  0  0
   49.9048   36.5720   41.4215 H   0  0  0  0  0  0  0  0  0  0  0  0
   48.4228   36.0244   43.3416 H   0  0  0  0  0  0  0  0  0  0  0  0
   44.4930   35.5848   43.1951 H   0  0  0  0  0  0  0  0  0  0  0  0
   43.8774   34.5483   45.4939 H   0  0  0  0  0  0  0  0  0  0  0  0
   45.8046   33.0004   46.3015 H   0  0  0  0  0  0  0  0  0  0  0  0
   48.2568   33.0788   35.6046 H   0  0  0  0  0  0  0  0  0  0  0  0
   49.4359   34.3271   37.6380 H   0  0  0  0  0  0  0  0  0  0  0  0
   45.1324   31.2159   33.0254 H   0  0  0  0  0  0  0  0  0  0  0  0
   43.0597   30.2034   34.0289 H   0  0  0  0  0  0  0  0  0  0  0  0
   42.3266   30.2544   37.7637 H   0  0  0  0  0  0  0  0  0  0  0  0
  1  2  1  0
  2  7  2  0
  3  4  2  0
  3  2  1  0
  4  5  1  0
  5  6  2  0
  7  6  1  0
  7  8  1  0
  8  9  2  0
  8 12  1  0
  9 10  1  0
 10 11  1  0
 12 11  2  0
 13 17  2  0
 14 13  1  0
 14 15  2  0
 15 16  1  0
 16  3  1  0
 17 16  1  0
 18 19  2  0
 18 23  1  0
 19 20  1  0
 20 24  1  0
 20 21  2  0
 22 21  1  0
 22 13  1  0
 23 22  2  0
 25 24  2  0
  4 26  1  0
  5 27  1  0
  6 28  1  0
  9 29  1  0
 10 30  1  0
 11 31  1  0
 14 32  1  0
 15 33  1  0
 18 34  1  0
 19 35  1  0
 24 36  1  0
M  ISO  8  26  14  27  14  28  14  29  14  30   9  31  14  32  14  33  14
M  ISO  3  34  14  35  14  36   6
M  END
>  <minimizedAffinity>  (1) 
-5.71240854

>  <minimizedRMSD>  (1) 
8.90367126

$$$$
