
     RDKit          3D

 36 38  0  0  1  0  0  0  0  0999 V2000
   47.9040   35.1100   41.9750 C   0  0  0  0  0  0  0  0  0  0  0  0
   48.3040   34.2050   40.9210 C   0  0  0  0  0  0  0  0  0  0  0  0
   47.7880   34.2950   39.6460 C   0  0  0  0  0  0  0  0  0  0  0  0
   48.1550   33.4200   38.6140 C   0  0  0  0  0  0  0  0  0  0  0  0
   49.0610   32.4680   38.9590 N   0  0  0  0  0  0  0  0  0  0  0  0
   49.5570   32.3900   40.2040 C   0  0  0  0  0  0  0  0  0  0  0  0
   49.1880   33.2420   41.1680 N   0  0  0  0  0  0  0  0  0  0  0  0
   50.5350   31.3210   40.5860 C   0  0  2  0  0  0  0  0  0  0  0  0
   51.0760   31.3080   41.9780 C   0  0  0  0  0  0  0  0  0  0  0  0
   51.9460   31.7590   40.7890 C   0  0  1  0  0  0  0  0  0  0  0  0
   53.0190   30.8510   40.3200 C   0  0  0  0  0  0  0  0  0  0  0  0
   53.6310   31.1840   39.2970 O   0  0  0  0  0  0  0  0  0  0  0  0
   46.4780   34.9460   42.3100 C   0  0  0  0  0  0  0  0  0  0  0  0
   44.5660   36.4090   44.0440 Cl  0  0  0  0  0  0  0  0  0  0  0  0
   45.3770   34.9660   44.5740 C   0  0  0  0  0  0  0  0  0  0  0  0
   46.2450   34.3780   43.6750 C   0  0  0  0  0  0  0  0  0  0  0  0
   46.9020   33.2300   44.0830 C   0  0  0  0  0  0  0  0  0  0  0  0
   46.6940   32.6980   45.3370 C   0  0  0  0  0  0  0  0  0  0  0  0
   45.8090   33.3120   46.2300 C   0  0  0  0  0  0  0  0  0  0  0  0
   45.1630   34.4500   45.8160 C   0  0  0  0  0  0  0  0  0  0  0  0
   44.2520   35.1490   46.6310 O   0  0  0  0  0  0  0  0  0  0  0  0
   48.0775   36.1445   41.6439 H   0  0  0  0  0  0  0  0  0  0  0  0
   48.4994   34.8830   42.8717 H   0  0  0  0  0  0  0  0  0  0  0  0
   47.0567   35.0875   39.4289 H   0  0  0  0  0  0  0  0  0  0  0  0
   47.7396   33.4985   37.5985 H   0  0  0  0  0  0  0  0  0  0  0  0
   50.0359   30.5610   39.9670 H   0  0  0  0  0  0  0  0  0  0  0  0
   50.7230   32.0438   42.7156 H   0  0  0  0  0  0  0  0  0  0  0  0
   51.1677   30.5576   42.7771 H   0  0  0  0  0  0  0  0  0  0  0  0
   52.5350   32.6568   40.5501 H   0  0  0  0  0  0  0  0  0  0  0  0
   53.2609   29.9221   40.8572 H   0  0  0  0  0  0  0  0  0  0  0  0
   45.9924   35.9315   42.2558 H   0  0  0  0  0  0  0  0  0  0  0  0
   46.0567   34.2319   41.5871 H   0  0  0  0  0  0  0  0  0  0  0  0
   47.6020   32.7340   43.3945 H   0  0  0  0  0  0  0  0  0  0  0  0
   47.2274   31.7843   45.6381 H   0  0  0  0  0  0  0  0  0  0  0  0
   45.6362   32.8954   47.2333 H   0  0  0  0  0  0  0  0  0  0  0  0
   44.0545   34.8233   47.5448 H   0  0  0  0  0  0  0  0  0  0  0  0
  1 13  1  0
  2  7  1  0
  2  1  1  0
  3  2  2  0
  4  5  2  0
  4  3  1  0
  5  6  1  0
  6  8  1  0
  6  7  2  0
  8 10  1  0
  8  9  1  0
 10  9  1  0
 11 10  1  0
 12 11  2  0
 13 16  1  0
 14 15  1  0
 15 20  2  0
 16 17  2  0
 16 15  1  0
 17 18  1  0
 18 19  2  0
 20 19  1  0
 20 21  1  0
  1 22  1  0
  1 23  1  0
  3 24  1  0
  4 25  1  0
  8 26  1  6
  9 27  1  0
  9 28  1  0
 10 29  1  1
 11 30  1  0
 13 31  1  0
 13 32  1  0
 17 33  1  0
 18 34  1  0
 19 35  1  0
 21 36  1  0
M  ISO  8  22   8  23   8  24  14  25  14  26  13  27  13  28  13  29  13
M  ISO  7  30   6  31   8  32   8  33  14  34  14  35  14  36   3
M  END
>  <minimizedAffinity>  (1) 
-5.62367153

>  <minimizedRMSD>  (1) 
0.470087767

$$$$
