
     RDKit          3D

 30 32  0  0  0  0  0  0  0  0999 V2000
   45.7240   34.0430   45.1300 C   0  0  0  0  0  0  0  0  0  0  0  0
   44.9170   35.1200   45.2970 C   0  0  0  0  0  0  0  0  0  0  0  0
   44.6240   36.0170   44.2930 C   0  0  0  0  0  0  0  0  0  0  0  0
   45.1910   35.7750   43.0950 N   0  0  0  0  0  0  0  0  0  0  0  0
   45.9890   34.7140   42.9210 C   0  0  0  0  0  0  0  0  0  0  0  0
   46.2790   33.8250   43.9150 N   0  0  0  0  0  0  0  0  0  0  0  0
   46.6080   34.4540   41.6020 C   0  0  0  0  0  0  0  0  0  0  0  0
   45.9190   33.7610   40.6440 C   0  0  0  0  0  0  0  0  0  0  0  0
   46.4360   33.4840   39.3940 C   0  0  0  0  0  0  0  0  0  0  0  0
   47.7180   33.9340   39.1010 C   0  0  0  0  0  0  0  0  0  0  0  0
   48.4020   34.6220   40.0520 C   0  0  0  0  0  0  0  0  0  0  0  0
   47.8890   34.9010   41.3050 C   0  0  0  0  0  0  0  0  0  0  0  0
   48.6610   35.6450   42.2980 C   0  0  0  0  0  0  0  0  0  0  0  0
   49.7360   35.1460   42.7160 O   0  0  0  0  0  0  0  0  0  0  0  0
   47.3260   31.3930   47.0960 C   0  0  0  0  0  0  0  0  0  0  0  0
   46.5500   31.3780   48.2530 C   0  0  0  0  0  0  0  0  0  0  0  0
   45.4830   32.2680   48.3680 C   0  0  0  0  0  0  0  0  0  0  0  0
   45.2410   33.1280   47.3270 N   0  0  0  0  0  0  0  0  0  0  0  0
   46.0060   33.1200   46.2190 C   0  0  0  0  0  0  0  0  0  0  0  0
   47.0280   32.2660   46.1100 N   0  0  0  0  0  0  0  0  0  0  0  0
   44.4717   35.2867   46.2889 H   0  0  0  0  0  0  0  0  0  0  0  0
   43.9647   36.8815   44.4601 H   0  0  0  0  0  0  0  0  0  0  0  0
   44.9046   33.4077   40.8811 H   0  0  0  0  0  0  0  0  0  0  0  0
   45.8499   32.9231   38.6511 H   0  0  0  0  0  0  0  0  0  0  0  0
   48.1702   33.7368   38.1178 H   0  0  0  0  0  0  0  0  0  0  0  0
   49.4159   34.9751   39.8127 H   0  0  0  0  0  0  0  0  0  0  0  0
   48.3096   36.6185   42.6707 H   0  0  0  0  0  0  0  0  0  0  0  0
   48.1734   30.7002   46.9868 H   0  0  0  0  0  0  0  0  0  0  0  0
   46.7764   30.6725   49.0660 H   0  0  0  0  0  0  0  0  0  0  0  0
   44.8523   32.2803   49.2691 H   0  0  0  0  0  0  0  0  0  0  0  0
  1  2  2  0
  1 19  1  0
  3  2  1  0
  4  3  2  0
  5  4  1  0
  5  6  2  0
  6  1  1  0
  7  5  1  0
  8  7  2  0
  9  8  1  0
 10  9  2  0
 10 11  1  0
 11 12  2  0
 12  7  1  0
 12 13  1  0
 13 14  2  0
 15 16  2  0
 16 17  1  0
 18 17  2  0
 19 18  1  0
 20 19  2  0
 20 15  1  0
  2 21  1  0
  3 22  1  0
  8 23  1  0
  9 24  1  0
 10 25  1  0
 11 26  1  0
 13 27  1  0
 15 28  1  0
 16 29  1  0
 17 30  1  0
M  ISO  8  21  14  22  14  23  14  24  14  25  14  26  14  27   6  28  14
M  ISO  2  29  14  30  14
M  END
>  <minimizedAffinity>  (1) 
-5.94510508

>  <minimizedRMSD>  (1) 
1.24008691

$$$$
