
     RDKit          3D

 38 40  0  0  1  0  0  0  0  0999 V2000
   44.5680   35.6050   44.6100 C   0  0  0  0  0  0  0  0  0  0  0  0
   45.2270   35.6160   43.3550 C   0  0  0  0  0  0  0  0  0  0  0  0
   46.3170   34.6990   43.1820 C   0  0  0  0  0  0  0  0  0  0  0  0
   46.6540   33.8850   44.2020 N   0  0  0  0  0  0  0  0  0  0  0  0
   46.0040   33.9080   45.3690 C   0  0  0  0  0  0  0  0  0  0  0  0
   44.9530   34.7690   45.5860 N   0  0  0  0  0  0  0  0  0  0  0  0
   46.4240   32.9870   46.4640 C   0  0  2  0  0  0  0  0  0  0  0  0
   46.9480   31.7560   45.7570 C   0  0  0  0  0  0  0  0  0  0  0  0
   46.0770   30.5740   45.7670 C   0  0  0  0  0  0  0  0  0  0  0  0
   45.7930   30.3010   47.2400 C   0  0  0  0  0  0  0  0  0  0  0  0
   44.9960   31.3730   47.8600 C   0  0  0  0  0  0  0  0  0  0  0  0
   45.3750   32.7420   47.4120 C   0  0  0  0  0  0  0  0  0  0  0  0
   44.6840   33.8730   47.9290 N   0  0  0  0  0  0  0  0  0  0  0  0
   47.0140   34.6840   41.9050 C   0  0  0  0  0  0  0  0  0  0  0  0
   48.1520   35.3960   41.7730 C   0  0  0  0  0  0  0  0  0  0  0  0
   48.7780   35.3400   40.5140 C   0  0  0  0  0  0  0  0  0  0  0  0
   48.1660   34.5630   39.5420 C   0  0  0  0  0  0  0  0  0  0  0  0
   47.0120   33.8430   39.6830 C   0  0  0  0  0  0  0  0  0  0  0  0
   46.4520   33.9360   40.9230 N   0  0  0  0  0  0  0  0  0  0  0  0
   46.4790   33.1000   38.6560 O   0  0  0  0  0  0  0  0  0  0  0  0
   45.0860   32.9220   38.6640 C   0  0  0  0  0  0  0  0  0  0  0  0
   44.0250   33.4220   38.2100 O   0  0  0  0  0  0  0  0  0  0  0  0
   43.7278   36.2927   44.7863 H   0  0  0  0  0  0  0  0  0  0  0  0
   44.9165   36.2975   42.5493 H   0  0  0  0  0  0  0  0  0  0  0  0
   47.2094   33.4191   47.1015 H   0  0  0  0  0  0  0  0  0  0  0  0
   47.8980   31.4751   46.2350 H   0  0  0  0  0  0  0  0  0  0  0  0
   47.0363   32.0435   44.6989 H   0  0  0  0  0  0  0  0  0  0  0  0
   45.1419   30.7790   45.2251 H   0  0  0  0  0  0  0  0  0  0  0  0
   46.5473   29.7118   45.2717 H   0  0  0  0  0  0  0  0  0  0  0  0
   45.2399   29.3539   47.3247 H   0  0  0  0  0  0  0  0  0  0  0  0
   46.7575   30.2493   47.7663 H   0  0  0  0  0  0  0  0  0  0  0  0
   44.1939   31.1802   48.5876 H   0  0  0  0  0  0  0  0  0  0  0  0
   43.9238   33.7442   48.6119 H   0  0  0  0  0  0  0  0  0  0  0  0
   44.9439   34.8207   47.6204 H   0  0  0  0  0  0  0  0  0  0  0  0
   48.5672   35.9870   42.6026 H   0  0  0  0  0  0  0  0  0  0  0  0
   49.7101   35.8875   40.3102 H   0  0  0  0  0  0  0  0  0  0  0  0
   48.6581   34.5217   38.5591 H   0  0  0  0  0  0  0  0  0  0  0  0
   44.8376   32.0439   39.2781 H   0  0  0  0  0  0  0  0  0  0  0  0
  1  6  2  0
  2  1  1  0
  3  2  2  0
  3  4  1  0
  4  5  2  0
  5  6  1  0
  5  7  1  0
  7 12  1  0
  8  9  1  0
  8  7  1  0
  9 10  1  0
 10 11  1  0
 12 11  2  0
 12 13  1  0
 14  3  1  0
 15 14  2  0
 16 15  1  0
 17 18  1  0
 17 16  2  0
 18 19  2  0
 19 14  1  0
 20 21  1  0
 20 18  1  0
 22 21  2  0
  1 23  1  0
  2 24  1  0
  7 25  1  1
  8 26  1  0
  8 27  1  0
  9 28  1  0
  9 29  1  0
 10 30  1  0
 10 31  1  0
 11 32  1  0
 13 33  1  0
 13 34  1  0
 15 35  1  0
 16 36  1  0
 17 37  1  0
 21 38  1  0
M  ISO  8  23  14  24  14  25  13  26  13  27  13  28  13  29  13  30  13
M  ISO  6  31  13  32  13  35  14  36  14  37  14  38   6
M  END
>  <minimizedAffinity>  (1) 
-6.61853886

>  <minimizedRMSD>  (1) 
0.510549128

$$$$
