
     RDKit          3D

 39 40  0  0  1  0  0  0  0  0999 V2000
   46.8750   34.3060   43.5500 N   0  0  0  0  0  0  0  0  0  0  0  0
   46.5260   35.0190   42.3660 C   0  0  0  0  0  0  0  0  0  0  0  0
   45.0610   35.0690   42.0530 C   0  0  0  0  0  0  0  0  0  0  0  0
   44.1510   35.0460   43.2510 C   0  0  0  0  0  0  0  0  0  0  0  0
   44.9420   35.1450   44.5340 C   0  0  0  0  0  0  0  0  0  0  0  0
   45.9090   33.9070   44.4540 C   0  0  2  0  0  0  0  0  0  0  0  0
   48.0880   33.5500   43.4450 C   0  0  0  0  0  0  0  0  0  0  0  0
   47.8020   32.3110   42.6430 C   0  0  0  0  0  0  0  0  0  0  0  0
   51.2980   32.0920   41.2780 C   0  0  0  0  0  0  0  0  0  0  0  0
   50.2180   32.3270   42.1490 C   0  0  0  0  0  0  0  0  0  0  0  0
   48.9390   32.0610   41.7160 C   0  0  0  0  0  0  0  0  0  0  0  0
   48.7840   31.5840   40.4690 N   0  0  0  0  0  0  0  0  0  0  0  0
   49.8200   31.3640   39.6450 C   0  0  0  0  0  0  0  0  0  0  0  0
   51.0890   31.6150   40.0410 N   0  0  0  0  0  0  0  0  0  0  0  0
   46.4040   33.8540   45.7480 O   0  0  0  0  0  0  0  0  0  0  0  0
   45.7860   31.2850   45.4310 O   0  0  0  0  0  0  0  0  0  0  0  0
   46.1950   32.3460   46.4600 P   0  0  2  0  0  0  0  0  0  0  0  0
   44.8370   32.4930   47.4930 O   0  0  0  0  0  0  0  0  0  0  0  0
   47.4900   31.8700   47.3880 O   0  0  0  0  0  0  0  0  0  0  0  0
   47.3680   30.7670   48.2200 C   0  0  0  0  0  0  0  0  0  0  0  0
   46.6440   31.0370   49.2190 O   0  0  0  0  0  0  0  0  0  0  0  0
   46.8852   36.0530   42.4744 H   0  0  0  0  0  0  0  0  0  0  0  0
   46.9948   34.4726   41.5343 H   0  0  0  0  0  0  0  0  0  0  0  0
   44.8637   35.9950   41.4930 H   0  0  0  0  0  0  0  0  0  0  0  0
   44.8385   34.1556   41.4819 H   0  0  0  0  0  0  0  0  0  0  0  0
   43.4555   35.8961   43.1907 H   0  0  0  0  0  0  0  0  0  0  0  0
   43.5982   34.0950   43.2528 H   0  0  0  0  0  0  0  0  0  0  0  0
   45.5089   36.0867   44.5766 H   0  0  0  0  0  0  0  0  0  0  0  0
   44.3088   35.1414   45.4335 H   0  0  0  0  0  0  0  0  0  0  0  0
   45.4958   32.9355   44.1450 H   0  0  0  0  0  0  0  0  0  0  0  0
   48.8586   34.1508   42.9398 H   0  0  0  0  0  0  0  0  0  0  0  0
   48.4540   33.2783   44.4461 H   0  0  0  0  0  0  0  0  0  0  0  0
   47.6827   31.4525   43.3204 H   0  0  0  0  0  0  0  0  0  0  0  0
   46.8752   32.4472   42.0663 H   0  0  0  0  0  0  0  0  0  0  0  0
   52.3241   32.3014   41.6145 H   0  0  0  0  0  0  0  0  0  0  0  0
   50.3936   32.7180   43.1621 H   0  0  0  0  0  0  0  0  0  0  0  0
   49.6348   30.9741   38.6332 H   0  0  0  0  0  0  0  0  0  0  0  0
   45.1351   32.4607   48.4365 H   0  0  0  0  0  0  0  0  0  0  0  0
   47.8380   29.7898   48.0349 H   0  0  0  0  0  0  0  0  0  0  0  0
  1  6  1  0
  2  1  1  0
  3  2  1  0
  3  4  1  0
  4  5  1  0
  6  5  1  0
  6 15  1  0
  7  1  1  0
  8  7  1  0
  9 10  2  0
 11 10  1  0
 11  8  1  0
 12 11  2  0
 13 14  2  0
 13 12  1  0
 14  9  1  0
 15 17  1  0
 17 16  2  0
 17 19  1  0
 17 18  1  0
 19 20  1  0
 20 21  2  0
  2 22  1  0
  2 23  1  0
  3 24  1  0
  3 25  1  0
  4 26  1  0
  4 27  1  0
  5 28  1  0
  5 29  1  0
  6 30  1  6
  7 31  1  0
  7 32  1  0
  8 33  1  0
  8 34  1  0
  9 35  1  0
 10 36  1  0
 13 37  1  0
 18 38  1  0
 20 39  1  0
M  ISO  8  22  13  23  13  24  13  25  13  26  13  27  13  28  13  29  13
M  ISO  8  30  13  31   8  32   8  33   8  34   8  35  14  36  14  37  14
M  ISO  2  38   3  39   6
M  END
>  <minimizedAffinity>  (1) 
-4.27263784

>  <minimizedRMSD>  (1) 
2.59272861

$$$$
