
     RDKit          3D

 28 28  0  0  0  0  0  0  0  0999 V2000
   43.6280   35.7500   41.5980 C   0  0  0  0  0  0  0  0  0  0  0  0
   43.3870   35.5590   43.0320 N   0  0  0  0  0  0  0  0  0  0  0  0
   44.7900   35.8540   43.9630 S   0  0  0  0  0  0  0  0  0  0  0  0
   46.0300   35.3430   43.2980 O   0  0  0  0  0  0  0  0  0  0  0  0
   44.9030   37.3630   44.1010 O   0  0  0  0  0  0  0  0  0  0  0  0
   44.6030   35.2230   45.4830 O   0  0  0  0  0  0  0  0  0  0  0  0
   45.3820   34.1010   45.6900 C   0  0  0  0  0  0  0  0  0  0  0  0
   43.5470   34.1480   40.8220 S   0  0  0  0  0  0  0  0  0  0  0  0
   41.5940   32.2400   41.3000 C   0  0  0  0  0  0  0  0  0  0  0  0
   41.8530   33.5350   40.8740 C   0  0  0  0  0  0  0  0  0  0  0  0
   40.8240   34.3680   40.4860 C   0  0  0  0  0  0  0  0  0  0  0  0
   39.5630   33.8730   40.5380 N   0  0  0  0  0  0  0  0  0  0  0  0
   39.3440   32.6040   40.9580 C   0  0  0  0  0  0  0  0  0  0  0  0
   40.3160   31.7840   41.3370 N   0  0  0  0  0  0  0  0  0  0  0  0
   38.0420   32.0940   41.0110 O   0  0  0  0  0  0  0  0  0  0  0  0
   37.7860   30.7340   41.0600 C   0  0  0  0  0  0  0  0  0  0  0  0
   36.7250   30.3450   41.6520 O   0  0  0  0  0  0  0  0  0  0  0  0
   42.8593   36.4122   41.1731 H   0  0  0  0  0  0  0  0  0  0  0  0
   44.6116   36.2125   41.4291 H   0  0  0  0  0  0  0  0  0  0  0  0
   42.6455   36.2072   43.3337 H   0  0  0  0  0  0  0  0  0  0  0  0
   46.6867   35.0724   43.9876 H   0  0  0  0  0  0  0  0  0  0  0  0
   44.9212   37.6062   45.0605 H   0  0  0  0  0  0  0  0  0  0  0  0
   45.5001   33.9309   46.7703 H   0  0  0  0  0  0  0  0  0  0  0  0
   44.8953   33.2272   45.2322 H   0  0  0  0  0  0  0  0  0  0  0  0
   46.3708   34.2516   45.2322 H   0  0  0  0  0  0  0  0  0  0  0  0
   42.4223   31.5845   41.6070 H   0  0  0  0  0  0  0  0  0  0  0  0
   41.0195   35.3960   40.1469 H   0  0  0  0  0  0  0  0  0  0  0  0
   38.4768   30.0107   40.6022 H   0  0  0  0  0  0  0  0  0  0  0  0
  1  2  1  0
  2  3  1  0
  3  5  1  0
  3  6  1  0
  4  3  1  0
  6  7  1  0
  8 10  1  0
  8  1  1  0
  9 14  2  0
 10  9  1  0
 11 12  1  0
 11 10  2  0
 12 13  2  0
 13 15  1  0
 13 14  1  0
 15 16  1  0
 16 17  2  0
  1 18  1  0
  1 19  1  0
  2 20  1  0
  4 21  1  0
  5 22  1  0
  7 23  1  0
  7 24  1  0
  7 25  1  0
  9 26  1  0
 11 27  1  0
 16 28  1  0
M  ISO  8  18   8  19   8  20   5  21   3  22   3  23   8  24   8  25   8
M  ISO  3  26  14  27  14  28   6
M  END
>  <minimizedAffinity>  (1) 
-4.60521984

>  <minimizedRMSD>  (1) 
1.24038482

$$$$
