
     RDKit          3D

 32 33  0  0  0  0  0  0  0  0999 V2000
   45.1040   35.6140   43.5140 C   0  0  0  0  0  0  0  0  0  0  0  0
   46.0140   34.5270   43.5290 C   0  0  0  0  0  0  0  0  0  0  0  0
   46.1680   33.7970   44.7000 C   0  0  0  0  0  0  0  0  0  0  0  0
   45.4290   34.1610   45.7980 N   0  0  0  0  0  0  0  0  0  0  0  0
   44.5700   35.1970   45.7650 C   0  0  0  0  0  0  0  0  0  0  0  0
   44.4100   35.9120   44.6450 N   0  0  0  0  0  0  0  0  0  0  0  0
   46.6940   34.2880   42.3130 N   0  0  0  0  0  0  0  0  0  0  0  0
   47.8460   35.0560   41.8710 C   0  0  0  0  0  0  0  0  0  0  0  0
   48.3980   34.4760   40.6150 C   0  0  0  0  0  0  0  0  0  0  0  0
   47.4100   34.2770   39.5930 N   0  0  0  0  0  0  0  0  0  0  0  0
   46.2250   33.6130   40.0200 C   0  0  0  0  0  0  0  0  0  0  0  0
   46.2050   33.2050   41.4570 C   0  0  0  0  0  0  0  0  0  0  0  0
   47.0630   32.7460   44.6750 O   0  0  0  0  0  0  0  0  0  0  0  0
   45.5760   31.0270   46.0190 O   0  0  0  0  0  0  0  0  0  0  0  0
   46.9970   31.5720   45.9300 P   0  0  1  0  0  0  0  0  0  0  0  0
   48.0700   30.3490   45.5570 O   0  0  0  0  0  0  0  0  0  0  0  0
   47.3500   32.3550   47.3840 O   0  0  0  0  0  0  0  0  0  0  0  0
   47.9110   31.8000   48.5020 C   0  0  0  0  0  0  0  0  0  0  0  0
   47.0030   31.1230   49.0860 O   0  0  0  0  0  0  0  0  0  0  0  0
   44.9611   36.2086   42.5996 H   0  0  0  0  0  0  0  0  0  0  0  0
   43.9950   35.4579   46.6657 H   0  0  0  0  0  0  0  0  0  0  0  0
   47.5405   36.0967   41.6874 H   0  0  0  0  0  0  0  0  0  0  0  0
   48.6200   35.0248   42.6520 H   0  0  0  0  0  0  0  0  0  0  0  0
   49.1686   35.1578   40.2261 H   0  0  0  0  0  0  0  0  0  0  0  0
   48.8055   33.4860   40.8679 H   0  0  0  0  0  0  0  0  0  0  0  0
   47.8367   33.7166   38.8414 H   0  0  0  0  0  0  0  0  0  0  0  0
   45.3751   34.2895   39.8468 H   0  0  0  0  0  0  0  0  0  0  0  0
   46.1718   32.6810   39.4381 H   0  0  0  0  0  0  0  0  0  0  0  0
   45.1737   32.9546   41.7463 H   0  0  0  0  0  0  0  0  0  0  0  0
   46.8617   32.3317   41.5843 H   0  0  0  0  0  0  0  0  0  0  0  0
   48.4197   29.9504   46.3930 H   0  0  0  0  0  0  0  0  0  0  0  0
   48.9529   31.9167   48.8349 H   0  0  0  0  0  0  0  0  0  0  0  0
  1  2  2  0
  1  6  1  0
  2  3  1  0
  3  4  2  0
  5  4  1  0
  6  5  2  0
  7  2  1  0
  8  7  1  0
  9  8  1  0
 10 11  1  0
 10  9  1  0
 11 12  1  0
 12  7  1  0
 13  3  1  0
 13 15  1  0
 15 14  2  0
 15 17  1  0
 16 15  1  0
 17 18  1  0
 18 19  2  0
  1 20  1  0
  5 21  1  0
  8 22  1  0
  8 23  1  0
  9 24  1  0
  9 25  1  0
 10 26  1  0
 11 27  1  0
 11 28  1  0
 12 29  1  0
 12 30  1  0
 16 31  1  0
 18 32  1  0
M  ISO  8  20  14  21  14  22  13  23  13  24  13  25  13  26   5  27  13
M  ISO  5  28  13  29  13  30  13  31   3  32   6
M  END
>  <minimizedAffinity>  (1) 
-4.63180256

>  <minimizedRMSD>  (1) 
0.991565704

$$$$
