
     RDKit          3D

 38 40  0  0  1  0  0  0  0  0999 V2000
   47.1000   34.8140   42.0980 C   0  0  2  0  0  0  0  0  0  0  0  0
   46.3320   34.3140   40.8750 C   0  0  0  0  0  0  0  0  0  0  0  0
   47.5340   34.1740   39.9170 C   0  0  0  0  0  0  0  0  0  0  0  0
   48.6600   33.6960   40.7810 C   0  0  1  0  0  0  0  0  0  0  0  0
   48.1490   33.7380   42.1890 C   0  0  0  0  0  0  0  0  0  0  0  0
   44.5350   35.8050   44.6700 C   0  0  0  0  0  0  0  0  0  0  0  0
   45.2650   35.8480   43.4710 C   0  0  0  0  0  0  0  0  0  0  0  0
   46.2360   34.8710   43.3040 C   0  0  0  0  0  0  0  0  0  0  0  0
   46.4590   33.9010   44.2940 N   0  0  0  0  0  0  0  0  0  0  0  0
   45.7170   33.9170   45.4290 C   0  0  0  0  0  0  0  0  0  0  0  0
   44.7610   34.8690   45.6090 N   0  0  0  0  0  0  0  0  0  0  0  0
   49.1020   32.2770   40.5060 C   0  0  2  0  0  0  0  0  0  0  0  0
   49.9260   31.6540   41.5290 C   0  0  0  0  0  0  0  0  0  0  0  0
   50.4910   31.9580   40.1790 C   0  0  1  0  0  0  0  0  0  0  0  0
   50.7200   30.8590   39.3130 O   0  0  0  0  0  0  0  0  0  0  0  0
   51.1310   30.4070   36.7770 O   0  0  0  0  0  0  0  0  0  0  0  0
   51.2820   31.4570   37.8460 P   0  0  1  0  0  0  0  0  0  0  0  0
   50.3450   32.8120   37.3650 O   0  0  0  0  0  0  0  0  0  0  0  0
   52.8660   31.9640   37.8700 O   0  0  0  0  0  0  0  0  0  0  0  0
   53.8320   31.1580   38.4580 C   0  0  0  0  0  0  0  0  0  0  0  0
   54.7500   31.0630   37.5750 O   0  0  0  0  0  0  0  0  0  0  0  0
   47.4955   35.8378   42.0240 H   0  0  0  0  0  0  0  0  0  0  0  0
   45.8316   33.3522   41.0606 H   0  0  0  0  0  0  0  0  0  0  0  0
   45.5060   34.9516   40.5269 H   0  0  0  0  0  0  0  0  0  0  0  0
   47.7807   35.1441   39.4609 H   0  0  0  0  0  0  0  0  0  0  0  0
   47.3250   33.4820   39.0879 H   0  0  0  0  0  0  0  0  0  0  0  0
   49.5304   34.3393   40.5844 H   0  0  0  0  0  0  0  0  0  0  0  0
   48.9450   34.0122   42.8969 H   0  0  0  0  0  0  0  0  0  0  0  0
   47.7698   32.7731   42.5565 H   0  0  0  0  0  0  0  0  0  0  0  0
   43.7546   36.5599   44.8465 H   0  0  0  0  0  0  0  0  0  0  0  0
   45.0771   36.6151   42.7053 H   0  0  0  0  0  0  0  0  0  0  0  0
   45.8883   33.1582   46.2067 H   0  0  0  0  0  0  0  0  0  0  0  0
   48.1550   32.0510   39.9940 H   0  0  0  0  0  0  0  0  0  0  0  0
   50.2494   32.2343   42.4057 H   0  0  0  0  0  0  0  0  0  0  0  0
   49.8444   30.7547   42.1571 H   0  0  0  0  0  0  0  0  0  0  0  0
   51.3551   32.5213   39.7967 H   0  0  0  0  0  0  0  0  0  0  0  0
   50.0160   33.2877   38.1685 H   0  0  0  0  0  0  0  0  0  0  0  0
   53.8112   30.7034   39.4595 H   0  0  0  0  0  0  0  0  0  0  0  0
  1  5  1  0
  1  8  1  0
  2  1  1  0
  3  4  1  0
  3  2  1  0
  4  5  1  0
  6 11  2  0
  7  6  1  0
  8  7  2  0
  8  9  1  0
  9 10  2  0
 10 11  1  0
 12  4  1  0
 12 13  1  0
 14 12  1  0
 14 13  1  0
 15 14  1  0
 17 16  2  0
 17 19  1  0
 17 15  1  0
 18 17  1  0
 19 20  1  0
 21 20  2  0
  1 22  1  6
  2 23  1  0
  2 24  1  0
  3 25  1  0
  3 26  1  0
  4 27  1  1
  5 28  1  0
  5 29  1  0
  6 30  1  0
  7 31  1  0
 10 32  1  0
 12 33  1  6
 13 34  1  0
 13 35  1  0
 14 36  1  1
 18 37  1  0
 20 38  1  0
M  ISO  8  22  13  23  13  24  13  25  13  26  13  27  13  28  13  29  13
M  ISO  8  30  14  31  14  32  14  33  13  34  13  35  13  36  13  37   3
M  ISO  1  38   6
M  END
>  <minimizedAffinity>  (1) 
-5.03299236

>  <minimizedRMSD>  (1) 
0.667977571

$$$$
