
     RDKit          3D

 39 40  0  0  0  0  0  0  0  0999 V2000
   47.9070   34.8780   41.0770 C   0  0  0  0  0  0  0  0  0  0  0  0
   49.0520   33.9890   41.3520 C   0  0  0  0  0  0  0  0  0  0  0  0
   49.1460   32.8280   40.6000 C   0  0  0  0  0  0  0  0  0  0  0  0
   50.1840   31.9430   40.7950 C   0  0  0  0  0  0  0  0  0  0  0  0
   51.1070   32.2770   41.7680 N   0  0  0  0  0  0  0  0  0  0  0  0
   50.9790   33.4200   42.4780 C   0  0  0  0  0  0  0  0  0  0  0  0
   49.9650   34.2510   42.2660 N   0  0  0  0  0  0  0  0  0  0  0  0
   47.9060   32.4770   39.3660 S   0  0  0  0  0  0  0  0  0  0  0  0
   48.5990   32.6650   37.7000 C   0  0  0  0  0  0  0  0  0  0  0  0
   48.6470   34.1200   37.3610 C   0  0  0  0  0  0  0  0  0  0  0  0
   47.3730   34.5300   36.8830 N   0  0  0  0  0  0  0  0  0  0  0  0
   46.9900   35.0720   42.2310 C   0  0  0  0  0  0  0  0  0  0  0  0
   45.5620   34.8990   41.9000 C   0  0  0  0  0  0  0  0  0  0  0  0
   44.6020   35.8040   42.4480 C   0  0  0  0  0  0  0  0  0  0  0  0
   43.0220   35.1840   41.7600 S   0  0  0  0  0  0  0  0  0  0  0  0
   43.9330   33.7880   40.8340 C   0  0  0  0  0  0  0  0  0  0  0  0
   45.0160   33.9940   41.1410 N   0  0  0  0  0  0  0  0  0  0  0  0
   43.2930   32.8500   40.0360 O   0  0  0  0  0  0  0  0  0  0  0  0
   42.2210   32.2880   37.6780 O   0  0  0  0  0  0  0  0  0  0  0  0
   43.3100   33.1280   38.3600 P   0  0  1  0  0  0  0  0  0  0  0  0
   42.9620   34.7620   38.0980 O   0  0  0  0  0  0  0  0  0  0  0  0
   44.8310   32.7890   37.7200 O   0  0  0  0  0  0  0  0  0  0  0  0
   45.0010   31.9790   36.6070 C   0  0  0  0  0  0  0  0  0  0  0  0
   45.6120   32.4110   35.5980 O   0  0  0  0  0  0  0  0  0  0  0  0
   48.2988   35.8619   40.7796 H   0  0  0  0  0  0  0  0  0  0  0  0
   47.3169   34.3944   40.2846 H   0  0  0  0  0  0  0  0  0  0  0  0
   50.2734   31.0180   40.2064 H   0  0  0  0  0  0  0  0  0  0  0  0
   51.7280   33.6663   43.2450 H   0  0  0  0  0  0  0  0  0  0  0  0
   49.6153   32.2450   37.6725 H   0  0  0  0  0  0  0  0  0  0  0  0
   47.9713   32.1314   36.9711 H   0  0  0  0  0  0  0  0  0  0  0  0
   48.9067   34.6989   38.2596 H   0  0  0  0  0  0  0  0  0  0  0  0
   49.4068   34.2941   36.5849 H   0  0  0  0  0  0  0  0  0  0  0  0
   46.7543   34.7291   37.6820 H   0  0  0  0  0  0  0  0  0  0  0  0
   47.4783   35.3796   36.3103 H   0  0  0  0  0  0  0  0  0  0  0  0
   47.2552   34.3419   43.0099 H   0  0  0  0  0  0  0  0  0  0  0  0
   47.1150   36.1126   42.5649 H   0  0  0  0  0  0  0  0  0  0  0  0
   44.7701   36.6607   43.1172 H   0  0  0  0  0  0  0  0  0  0  0  0
   42.8640   35.2223   38.9690 H   0  0  0  0  0  0  0  0  0  0  0  0
   44.5995   30.9549   36.6078 H   0  0  0  0  0  0  0  0  0  0  0  0
  1  2  1  0
  1 12  1  0
  2  7  2  0
  3  4  2  0
  3  2  1  0
  4  5  1  0
  5  6  2  0
  7  6  1  0
  8  3  1  0
  9  8  1  0
 10  9  1  0
 11 10  1  0
 13 12  1  0
 13 14  2  0
 15 14  1  0
 16 17  2  0
 16 15  1  0
 17 13  1  0
 18 16  1  0
 20 19  2  0
 20 18  1  0
 21 20  1  0
 22 20  1  0
 23 22  1  0
 24 23  2  0
  1 25  1  0
  1 26  1  0
  4 27  1  0
  6 28  1  0
  9 29  1  0
  9 30  1  0
 10 31  1  0
 10 32  1  0
 11 33  1  0
 11 34  1  0
 12 35  1  0
 12 36  1  0
 14 37  1  0
 21 38  1  0
 23 39  1  0
M  ISO  8  25   8  26   8  27  14  28  14  29   8  30   8  31   8  32   8
M  ISO  7  33   5  34   5  35   8  36   8  37  14  38   3  39   6
M  END
>  <minimizedAffinity>  (1) 
-4.43296242

>  <minimizedRMSD>  (1) 
1.59544408

$$$$
