
     RDKit          3D

 27 28  0  0  0  0  0  0  0  0999 V2000
   46.7700   34.8470   42.1320 C   0  0  0  0  0  0  0  0  0  0  0  0
   48.0290   35.3900   41.9660 C   0  0  0  0  0  0  0  0  0  0  0  0
   48.8000   35.2690   40.8170 C   0  0  0  0  0  0  0  0  0  0  0  0
   48.2830   34.5610   39.7640 C   0  0  0  0  0  0  0  0  0  0  0  0
   47.0490   34.0350   39.9340 C   0  0  0  0  0  0  0  0  0  0  0  0
   46.3280   34.1670   41.0520 N   0  0  0  0  0  0  0  0  0  0  0  0
   44.4430   35.9320   44.8790 C   0  0  0  0  0  0  0  0  0  0  0  0
   45.0940   35.9690   43.6460 C   0  0  0  0  0  0  0  0  0  0  0  0
   45.9960   34.9770   43.3590 C   0  0  0  0  0  0  0  0  0  0  0  0
   46.2110   34.0000   44.3010 N   0  0  0  0  0  0  0  0  0  0  0  0
   45.5660   33.9870   45.4910 C   0  0  0  0  0  0  0  0  0  0  0  0
   44.6860   34.9590   45.7640 N   0  0  0  0  0  0  0  0  0  0  0  0
   46.4930   33.3190   38.8890 O   0  0  0  0  0  0  0  0  0  0  0  0
   47.9060   34.5100   36.9910 O   0  0  0  0  0  0  0  0  0  0  0  0
   47.2500   33.1880   37.3600 P   0  0  1  0  0  0  0  0  0  0  0  0
   48.4360   31.9930   37.4440 O   0  0  0  0  0  0  0  0  0  0  0  0
   46.0590   32.8180   36.2140 O   0  0  0  0  0  0  0  0  0  0  0  0
   46.2050   32.0660   35.0850 C   0  0  0  0  0  0  0  0  0  0  0  0
   45.3000   32.4590   34.3210 O   0  0  0  0  0  0  0  0  0  0  0  0
   48.4524   35.9605   42.8058 H   0  0  0  0  0  0  0  0  0  0  0  0
   49.7974   35.7286   40.7542 H   0  0  0  0  0  0  0  0  0  0  0  0
   48.8438   34.4272   38.8272 H   0  0  0  0  0  0  0  0  0  0  0  0
   43.7155   36.7184   45.1285 H   0  0  0  0  0  0  0  0  0  0  0  0
   44.8893   36.7725   42.9232 H   0  0  0  0  0  0  0  0  0  0  0  0
   45.7618   33.1897   46.2231 H   0  0  0  0  0  0  0  0  0  0  0  0
   48.6354   31.7921   38.3927 H   0  0  0  0  0  0  0  0  0  0  0  0
   46.9552   31.2853   34.8910 H   0  0  0  0  0  0  0  0  0  0  0  0
  1  9  1  0
  2  1  2  0
  3  2  1  0
  4  5  1  0
  4  3  2  0
  5  6  2  0
  6  1  1  0
  7 12  2  0
  8  7  1  0
  9  8  2  0
  9 10  1  0
 10 11  2  0
 11 12  1  0
 13  5  1  0
 15 14  2  0
 15 16  1  0
 15 13  1  0
 17 15  1  0
 18 17  1  0
 19 18  2  0
  2 20  1  0
  3 21  1  0
  4 22  1  0
  7 23  1  0
  8 24  1  0
 11 25  1  0
 16 26  1  0
 18 27  1  0
M  ISO  8  20  14  21  14  22  14  23  14  24  14  25  14  26   3  27   6
M  END
>  <minimizedAffinity>  (1) 
-5.16075087

>  <minimizedRMSD>  (1) 
0.953807831

$$$$
