
     RDKit          3D

 21 21  0  0  0  0  0  0  0  0999 V2000
   46.9900   33.4630   42.9030 C   0  0  0  0  0  0  0  0  0  0  0  0
   45.1060   34.3000   46.0080 C   0  0  0  0  0  0  0  0  0  0  0  0
   45.9440   33.6100   45.1280 C   0  0  0  0  0  0  0  0  0  0  0  0
   46.1220   34.1420   43.8700 C   0  0  0  0  0  0  0  0  0  0  0  0
   45.4780   35.3190   43.5330 N   0  0  0  0  0  0  0  0  0  0  0  0
   44.6780   35.9450   44.4260 C   0  0  0  0  0  0  0  0  0  0  0  0
   44.4910   35.4410   45.6580 N   0  0  0  0  0  0  0  0  0  0  0  0
   48.2920   33.3600   43.3960 O   0  0  0  0  0  0  0  0  0  0  0  0
   50.1140   33.0740   41.5500 O   0  0  0  0  0  0  0  0  0  0  0  0
   49.3040   34.1130   42.2700 P   0  0  2  0  0  0  0  0  0  0  0  0
   50.2400   35.2310   43.1000 O   0  0  0  0  0  0  0  0  0  0  0  0
   48.3110   34.9000   41.1420 O   0  0  0  0  0  0  0  0  0  0  0  0
   48.1210   34.3140   39.8960 C   0  0  0  0  0  0  0  0  0  0  0  0
   48.3490   34.7200   38.7460 O   0  0  0  0  0  0  0  0  0  0  0  0
   47.0035   34.0369   41.9647 H   0  0  0  0  0  0  0  0  0  0  0  0
   46.5979   32.4507   42.7256 H   0  0  0  0  0  0  0  0  0  0  0  0
   44.9453   33.8960   47.0184 H   0  0  0  0  0  0  0  0  0  0  0  0
   46.4429   32.6769   45.4287 H   0  0  0  0  0  0  0  0  0  0  0  0
   44.1733   36.8796   44.1401 H   0  0  0  0  0  0  0  0  0  0  0  0
   50.1277   35.0968   44.0744 H   0  0  0  0  0  0  0  0  0  0  0  0
   47.6885   33.3034   39.9371 H   0  0  0  0  0  0  0  0  0  0  0  0
  1  8  1  0
  1  4  1  0
  3  2  2  0
  4  3  1  0
  5  4  2  0
  5  6  1  0
  6  7  2  0
  7  2  1  0
 10  9  2  0
 10 11  1  0
 10  8  1  0
 12 10  1  0
 13 12  1  0
 14 13  2  0
  1 15  1  0
  1 16  1  0
  2 17  1  0
  3 18  1  0
  6 19  1  0
 11 20  1  0
 13 21  1  0
M  ISO  7  15   8  16   8  17  14  18  14  19  14  20   3  21   6
M  END
>  <minimizedAffinity>  (1) 
-4.39336872

>  <minimizedRMSD>  (1) 
0.679682612

$$$$
