
     RDKit          3D

 20 20  0  0  0  0  0  0  0  0999 V2000
   44.8380   35.1920   45.1970 C   0  0  0  0  0  0  0  0  0  0  0  0
   45.3150   35.4410   43.9250 C   0  0  0  0  0  0  0  0  0  0  0  0
   46.2370   34.5090   43.4250 C   0  0  0  0  0  0  0  0  0  0  0  0
   46.6050   33.4400   44.2020 N   0  0  0  0  0  0  0  0  0  0  0  0
   46.1040   33.2630   45.4240 C   0  0  0  0  0  0  0  0  0  0  0  0
   45.2030   34.1500   45.9370 N   0  0  0  0  0  0  0  0  0  0  0  0
   46.7410   34.7570   42.0620 C   0  0  0  0  0  0  0  0  0  0  0  0
   47.5770   33.7100   41.6880 F   0  0  0  0  0  0  0  0  0  0  0  0
   47.5420   35.8680   42.1430 F   0  0  0  0  0  0  0  0  0  0  0  0
   45.7360   34.8390   41.1540 F   0  0  0  0  0  0  0  0  0  0  0  0
   44.9460   36.6110   43.1350 C   0  0  0  0  0  0  0  0  0  0  0  0
   45.0210   37.8070   43.9300 N   0  0  0  0  0  0  0  0  0  0  0  0
   45.4770   39.1120   43.7180 C   0  0  0  0  0  0  0  0  0  0  0  0
   45.1520   40.0370   44.4930 O   0  0  0  0  0  0  0  0  0  0  0  0
   44.1116   35.8993   45.6237 H   0  0  0  0  0  0  0  0  0  0  0  0
   46.4189   32.3960   46.0232 H   0  0  0  0  0  0  0  0  0  0  0  0
   45.6337   36.7015   42.2813 H   0  0  0  0  0  0  0  0  0  0  0  0
   43.9119   36.4864   42.7814 H   0  0  0  0  0  0  0  0  0  0  0  0
   44.6510   37.6700   44.8814 H   0  0  0  0  0  0  0  0  0  0  0  0
   46.1295   39.3268   42.8589 H   0  0  0  0  0  0  0  0  0  0  0  0
  1  6  2  0
  2  1  1  0
  3  2  2  0
  3  4  1  0
  4  5  2  0
  5  6  1  0
  7  9  1  0
  7  3  1  0
  8  7  1  0
 10  7  1  0
 11  2  1  0
 11 12  1  0
 13 12  1  0
 13 14  2  0
  1 15  1  0
  5 16  1  0
 11 17  1  0
 11 18  1  0
 12 19  1  0
 13 20  1  0
M  ISO  5  15  14  16  14  17   8  18   8  20   6
M  END
>  <minimizedAffinity>  (1) 
-4.44585323

>  <minimizedRMSD>  (1) 
0.667575598

$$$$
