
     RDKit          3D

 30 31  0  0  1  0  0  0  0  0999 V2000
   44.9110   34.3820   41.9920 C   0  0  1  0  0  0  0  0  0  0  0  0
   46.1490   34.1790   41.0990 C   0  0  0  0  0  0  0  0  0  0  0  0
   45.9780   33.6700   39.7360 C   0  0  0  0  0  0  0  0  0  0  0  0
   44.5340   33.3530   39.3570 C   0  0  0  0  0  0  0  0  0  0  0  0
   44.0300   32.5500   40.5420 C   0  0  0  0  0  0  0  0  0  0  0  0
   43.7370   33.6430   41.5920 C   0  0  2  0  0  0  0  0  0  0  0  0
   46.4660   33.2500   43.6080 C   0  0  0  0  0  0  0  0  0  0  0  0
   45.4150   34.1650   43.3710 C   0  0  0  0  0  0  0  0  0  0  0  0
   44.8390   34.7480   44.5030 C   0  0  0  0  0  0  0  0  0  0  0  0
   45.2770   34.4360   45.7460 N   0  0  0  0  0  0  0  0  0  0  0  0
   46.2920   33.5450   45.9000 C   0  0  0  0  0  0  0  0  0  0  0  0
   46.8740   32.9650   44.8330 N   0  0  0  0  0  0  0  0  0  0  0  0
   46.7730   33.2050   47.1790 N   0  0  0  0  0  0  0  0  0  0  0  0
   43.8160   35.7170   44.2680 N   0  0  0  0  0  0  0  0  0  0  0  0
   42.6430   34.4850   41.0060 C   0  0  0  0  0  0  0  0  0  0  0  0
   42.2790   35.5720   41.4620 O   0  0  0  0  0  0  0  0  0  0  0  0
   44.4881   35.3932   41.8996 H   0  0  0  0  0  0  0  0  0  0  0  0
   47.1532   34.4142   41.4813 H   0  0  0  0  0  0  0  0  0  0  0  0
   46.8205   33.5280   39.0432 H   0  0  0  0  0  0  0  0  0  0  0  0
   43.9487   34.2755   39.2286 H   0  0  0  0  0  0  0  0  0  0  0  0
   44.4483   32.8122   38.4030 H   0  0  0  0  0  0  0  0  0  0  0  0
   43.1174   31.9926   40.2842 H   0  0  0  0  0  0  0  0  0  0  0  0
   44.7450   31.7902   40.8905 H   0  0  0  0  0  0  0  0  0  0  0  0
   43.4084   33.2042   42.5457 H   0  0  0  0  0  0  0  0  0  0  0  0
   46.9565   32.7631   42.7523 H   0  0  0  0  0  0  0  0  0  0  0  0
   47.5429   32.5278   47.2764 H   0  0  0  0  0  0  0  0  0  0  0  0
   46.3549   33.6335   48.0171 H   0  0  0  0  0  0  0  0  0  0  0  0
   43.3540   36.1813   45.0629 H   0  0  0  0  0  0  0  0  0  0  0  0
   43.5404   35.9514   43.3036 H   0  0  0  0  0  0  0  0  0  0  0  0
   42.1304   34.1078   40.1088 H   0  0  0  0  0  0  0  0  0  0  0  0
  1  8  1  0
  2  1  1  0
  3  2  2  0
  4  3  1  0
  4  5  1  0
  5  6  1  0
  6  1  1  0
  7 12  2  0
  8  7  1  0
  8  9  2  0
  9 10  1  0
 10 11  2  0
 11 13  1  0
 12 11  1  0
 14  9  1  0
 15 16  2  0
 15  6  1  0
  1 17  1  1
  2 18  1  0
  3 19  1  0
  4 20  1  0
  4 21  1  0
  5 22  1  0
  5 23  1  0
  6 24  1  1
  7 25  1  0
 13 26  1  0
 13 27  1  0
 14 28  1  0
 14 29  1  0
 15 30  1  0
M  ISO  8  17  13  18  13  19  13  20  13  21  13  22  13  23  13  24  13
M  ISO  2  25  14  30   6
M  END
>  <minimizedAffinity>  (1) 
-4.82395554

>  <minimizedRMSD>  (1) 
2.51514935

$$$$
