
     RDKit          3D

 37 39  0  0  1  0  0  0  0  0999 V2000
   47.7540   34.2600   42.2720 N   0  0  0  0  0  0  0  0  0  0  0  0
   47.9800   34.6820   40.9080 C   0  0  0  0  0  0  0  0  0  0  0  0
   48.3610   33.3540   40.3120 C   0  0  2  0  0  0  0  0  0  0  0  0
   49.4120   32.8840   41.2960 C   0  0  0  0  0  0  0  0  0  0  0  0
   48.8650   33.3860   42.6110 C   0  0  0  0  0  0  0  0  0  0  0  0
   44.7920   35.7860   43.9270 C   0  0  0  0  0  0  0  0  0  0  0  0
   45.7750   35.5770   42.9690 C   0  0  0  0  0  0  0  0  0  0  0  0
   46.7140   34.5760   43.1580 C   0  0  0  0  0  0  0  0  0  0  0  0
   46.6120   33.8360   44.3040 N   0  0  0  0  0  0  0  0  0  0  0  0
   45.6580   34.0390   45.2340 C   0  0  0  0  0  0  0  0  0  0  0  0
   44.7490   35.0180   45.0400 N   0  0  0  0  0  0  0  0  0  0  0  0
   49.0120   33.4840   39.0310 N   0  0  0  0  0  0  0  0  0  0  0  0
   49.6890   32.0510   37.1120 C   0  0  0  0  0  0  0  0  0  0  0  0
   48.7670   32.8800   37.7810 C   0  0  0  0  0  0  0  0  0  0  0  0
   47.5800   33.0600   37.1080 C   0  0  0  0  0  0  0  0  0  0  0  0
   47.2740   32.5020   35.8850 C   0  0  0  0  0  0  0  0  0  0  0  0
   48.1880   31.7030   35.2630 C   0  0  0  0  0  0  0  0  0  0  0  0
   49.3820   31.4940   35.8930 C   0  0  0  0  0  0  0  0  0  0  0  0
   50.3620   30.6420   35.2310 C   0  0  0  0  0  0  0  0  0  0  0  0
   51.0410   31.0390   34.2260 O   0  0  0  0  0  0  0  0  0  0  0  0
   51.9830   31.6270   38.2830 N   0  0  0  0  0  0  0  0  0  0  0  0
   50.9640   31.8090   37.7540 C   0  0  0  0  0  0  0  0  0  0  0  0
   47.0703   35.0951   40.4478 H   0  0  0  0  0  0  0  0  0  0  0  0
   48.7168   35.4883   40.7777 H   0  0  0  0  0  0  0  0  0  0  0  0
   47.4867   32.7047   40.1572 H   0  0  0  0  0  0  0  0  0  0  0  0
   49.4993   31.7875   41.2929 H   0  0  0  0  0  0  0  0  0  0  0  0
   50.4241   33.2509   41.0699 H   0  0  0  0  0  0  0  0  0  0  0  0
   49.6381   33.9447   43.1588 H   0  0  0  0  0  0  0  0  0  0  0  0
   48.5438   32.5565   43.2581 H   0  0  0  0  0  0  0  0  0  0  0  0
   44.0447   36.5797   43.7804 H   0  0  0  0  0  0  0  0  0  0  0  0
   45.8081   36.2027   42.0649 H   0  0  0  0  0  0  0  0  0  0  0  0
   45.6205   33.4152   46.1392 H   0  0  0  0  0  0  0  0  0  0  0  0
   49.8047   34.1417   39.0295 H   0  0  0  0  0  0  0  0  0  0  0  0
   46.8183   33.6969   37.5815 H   0  0  0  0  0  0  0  0  0  0  0  0
   46.2997   32.6997   35.4141 H   0  0  0  0  0  0  0  0  0  0  0  0
   47.9711   31.2428   34.2877 H   0  0  0  0  0  0  0  0  0  0  0  0
   50.5218   29.6220   35.6106 H   0  0  0  0  0  0  0  0  0  0  0  0
  1  5  1  0
  1  8  1  0
  2  1  1  0
  3  2  1  0
  3  4  1  0
  4  5  1  0
  6 11  2  0
  7  8  2  0
  7  6  1  0
  8  9  1  0
  9 10  2  0
 11 10  1  0
 12  3  1  0
 13 22  1  0
 13 14  2  0
 14 12  1  0
 15 14  1  0
 16 15  2  0
 17 16  1  0
 17 18  2  0
 18 13  1  0
 19 18  1  0
 20 19  2  0
 22 21  3  0
  2 23  1  0
  2 24  1  0
  3 25  1  6
  4 26  1  0
  4 27  1  0
  5 28  1  0
  5 29  1  0
  6 30  1  0
  7 31  1  0
 10 32  1  0
 12 33  1  0
 15 34  1  0
 16 35  1  0
 17 36  1  0
 19 37  1  0
M  ISO  8  23  13  24  13  25  13  26  13  27  13  28  13  29  13  30  14
M  ISO  6  31  14  32  14  34  14  35  14  36  14  37   6
M  END
>  <minimizedAffinity>  (1) 
-4.7552433

>  <minimizedRMSD>  (1) 
1.59724474

$$$$
