
     RDKit          3D

 29 31  0  0  1  0  0  0  0  0999 V2000
   47.2880   33.5970   39.7650 C   0  0  0  0  0  0  0  0  0  0  0  0
   48.2010   34.0430   38.8210 C   0  0  0  0  0  0  0  0  0  0  0  0
   47.6340   33.9320   37.5610 C   0  0  0  0  0  0  0  0  0  0  0  0
   46.3880   33.4180   37.8040 C   0  0  0  0  0  0  0  0  0  0  0  0
   46.1970   33.2250   39.0940 O   0  0  0  0  0  0  0  0  0  0  0  0
   45.3880   33.1210   36.7680 C   0  0  2  0  0  0  0  0  0  0  0  0
   44.6030   31.8720   36.8450 C   0  0  0  0  0  0  0  0  0  0  0  0
   45.7480   31.9100   35.8850 C   0  0  1  0  0  0  0  0  0  0  0  0
   45.4090   32.0960   34.4510 C   0  0  0  0  0  0  0  0  0  0  0  0
   44.8640   31.1550   33.8610 O   0  0  0  0  0  0  0  0  0  0  0  0
   47.3650   33.5030   41.1700 O   0  0  0  0  0  0  0  0  0  0  0  0
   47.4280   34.6890   41.9400 C   0  0  0  0  0  0  0  0  0  0  0  0
   48.2530   35.5550   41.5680 O   0  0  0  0  0  0  0  0  0  0  0  0
   46.5360   34.7490   43.0540 C   0  0  0  0  0  0  0  0  0  0  0  0
   45.6290   35.7740   43.0020 C   0  0  0  0  0  0  0  0  0  0  0  0
   44.7160   35.8970   44.0550 C   0  0  0  0  0  0  0  0  0  0  0  0
   44.7800   34.9930   45.0720 N   0  0  0  0  0  0  0  0  0  0  0  0
   45.6860   34.0150   45.0680 C   0  0  0  0  0  0  0  0  0  0  0  0
   46.5620   33.8840   44.0740 N   0  0  0  0  0  0  0  0  0  0  0  0
   49.2105   34.4229   39.0370 H   0  0  0  0  0  0  0  0  0  0  0  0
   48.0810   34.1956   36.5911 H   0  0  0  0  0  0  0  0  0  0  0  0
   45.1059   34.1755   36.6323 H   0  0  0  0  0  0  0  0  0  0  0  0
   44.6698   31.2433   37.7452 H   0  0  0  0  0  0  0  0  0  0  0  0
   43.5330   31.6361   36.7474 H   0  0  0  0  0  0  0  0  0  0  0  0
   46.6283   31.2752   35.7060 H   0  0  0  0  0  0  0  0  0  0  0  0
   45.6349   33.0387   33.9310 H   0  0  0  0  0  0  0  0  0  0  0  0
   45.6187   36.4792   42.1578 H   0  0  0  0  0  0  0  0  0  0  0  0
   43.9666   36.7022   44.0615 H   0  0  0  0  0  0  0  0  0  0  0  0
   45.7103   33.3007   45.9042 H   0  0  0  0  0  0  0  0  0  0  0  0
  1 11  1  0
  2  1  2  0
  3  4  2  0
  3  2  1  0
  4  5  1  0
  5  1  1  0
  6  7  1  0
  6  4  1  0
  8  6  1  0
  8  7  1  0
  9  8  1  0
 10  9  2  0
 11 12  1  0
 12 14  1  0
 13 12  2  0
 14 19  1  0
 15 14  2  0
 15 16  1  0
 16 17  2  0
 18 17  1  0
 19 18  2  0
  2 20  1  0
  3 21  1  0
  6 22  1  6
  7 23  1  0
  7 24  1  0
  8 25  1  6
  9 26  1  0
 15 27  1  0
 16 28  1  0
 18 29  1  0
M  ISO  8  20  14  21  14  22  13  23  13  24  13  25  13  26   6  27  14
M  ISO  2  28  14  29  14
M  END
>  <minimizedAffinity>  (1) 
-4.4792366

>  <minimizedRMSD>  (1) 
0.303349346

$$$$
