
     RDKit          3D

 22 23  0  0  1  0  0  0  0  0999 V2000
   42.7240   34.3490   40.8060 C   0  0  1  0  0  0  0  0  0  0  0  0
   42.4860   35.1010   39.4600 C   0  0  1  0  0  0  0  0  0  0  0  0
   42.5610   33.6060   39.5970 C   0  0  0  0  0  0  0  0  0  0  0  0
   44.0250   34.6960   41.4000 C   0  0  0  0  0  0  0  0  0  0  0  0
   44.0400   35.4550   42.6020 C   0  0  0  0  0  0  0  0  0  0  0  0
   45.2490   35.8030   43.2140 C   0  0  0  0  0  0  0  0  0  0  0  0
   46.3760   35.3620   42.5800 N   0  0  0  0  0  0  0  0  0  0  0  0
   46.3260   34.6400   41.4380 C   0  0  0  0  0  0  0  0  0  0  0  0
   45.1760   34.3180   40.8680 N   0  0  0  0  0  0  0  0  0  0  0  0
   47.5830   34.2080   40.8260 C   0  0  0  0  0  0  0  0  0  0  0  0
   48.3220   35.0280   40.2230 O   0  0  0  0  0  0  0  0  0  0  0  0
   41.0880   35.6530   39.3130 C   0  0  0  0  0  0  0  0  0  0  0  0
   40.9380   36.3940   38.1620 F   0  0  0  0  0  0  0  0  0  0  0  0
   40.1970   34.5700   39.2330 F   0  0  0  0  0  0  0  0  0  0  0  0
   40.7240   36.3650   40.4330 F   0  0  0  0  0  0  0  0  0  0  0  0
   42.2581   34.1998   41.7912 H   0  0  0  0  0  0  0  0  0  0  0  0
   42.9900   35.8753   38.8630 H   0  0  0  0  0  0  0  0  0  0  0  0
   41.6502   33.0063   39.4529 H   0  0  0  0  0  0  0  0  0  0  0  0
   43.1684   32.8349   39.1006 H   0  0  0  0  0  0  0  0  0  0  0  0
   43.0898   35.7724   43.0562 H   0  0  0  0  0  0  0  0  0  0  0  0
   45.2894   36.3916   44.1424 H   0  0  0  0  0  0  0  0  0  0  0  0
   47.8855   33.1526   40.8942 H   0  0  0  0  0  0  0  0  0  0  0  0
  1  4  1  0
  2  3  1  0
  2  1  1  0
  3  1  1  0
  4  5  2  0
  5  6  1  0
  7  6  2  0
  8  7  1  0
  9  4  1  0
  9  8  2  0
 10  8  1  0
 11 10  2  0
 12  2  1  0
 12 15  1  0
 13 12  1  0
 14 12  1  0
  1 16  1  1
  2 17  1  6
  3 18  1  0
  3 19  1  0
  5 20  1  0
  6 21  1  0
 10 22  1  0
M  ISO  7  16  13  17  13  18  13  19  13  20  14  21  14  22   6
M  END
>  <minimizedAffinity>  (1) 
-4.411376

>  <minimizedRMSD>  (1) 
5.7478075

$$$$
