
     RDKit          3D

 31 33  0  0  0  0  0  0  0  0999 V2000
   47.5930   31.1260   47.2690 C   0  0  0  0  0  0  0  0  0  0  0  0
   47.9160   31.9640   48.3090 C   0  0  0  0  0  0  0  0  0  0  0  0
   48.7160   31.4670   49.3210 C   0  0  0  0  0  0  0  0  0  0  0  0
   49.1900   30.1630   49.3100 C   0  0  0  0  0  0  0  0  0  0  0  0
   49.9650   29.7130   50.3110 N   0  0  0  0  0  0  0  0  0  0  0  0
   50.4370   28.4550   50.3240 C   0  0  0  0  0  0  0  0  0  0  0  0
   50.1150   27.6130   49.2830 C   0  0  0  0  0  0  0  0  0  0  0  0
   49.3140   28.0670   48.2420 C   0  0  0  0  0  0  0  0  0  0  0  0
   48.8220   29.3760   48.2270 C   0  0  0  0  0  0  0  0  0  0  0  0
   48.0300   29.8300   47.2010 C   0  0  0  0  0  0  0  0  0  0  0  0
   46.5610   31.7930   45.9850 S   0  0  0  0  0  0  0  0  0  0  0  0
   45.5890   33.1830   46.5900 C   0  0  0  0  0  0  0  0  0  0  0  0
   44.5330   36.0700   44.4730 C   0  0  0  0  0  0  0  0  0  0  0  0
   45.3290   35.8540   43.3340 C   0  0  0  0  0  0  0  0  0  0  0  0
   46.1900   34.7540   43.3130 C   0  0  0  0  0  0  0  0  0  0  0  0
   46.2390   33.9170   44.3900 N   0  0  0  0  0  0  0  0  0  0  0  0
   45.4540   34.1580   45.4740 C   0  0  0  0  0  0  0  0  0  0  0  0
   44.6270   35.2140   45.4980 N   0  0  0  0  0  0  0  0  0  0  0  0
   47.0250   34.5070   42.1470 C   0  0  0  0  0  0  0  0  0  0  0  0
   47.9110   35.3380   41.8300 O   0  0  0  0  0  0  0  0  0  0  0  0
   47.5486   33.0005   48.3355 H   0  0  0  0  0  0  0  0  0  0  0  0
   48.9849   32.1252   50.1603 H   0  0  0  0  0  0  0  0  0  0  0  0
   51.0699   28.1037   51.1522 H   0  0  0  0  0  0  0  0  0  0  0  0
   50.4923   26.5797   49.2754 H   0  0  0  0  0  0  0  0  0  0  0  0
   49.0628   27.3853   47.4160 H   0  0  0  0  0  0  0  0  0  0  0  0
   47.7574   29.1783   46.3578 H   0  0  0  0  0  0  0  0  0  0  0  0
   44.5945   32.8355   46.9067 H   0  0  0  0  0  0  0  0  0  0  0  0
   46.0820   33.6516   47.4545 H   0  0  0  0  0  0  0  0  0  0  0  0
   43.8453   36.9272   44.5209 H   0  0  0  0  0  0  0  0  0  0  0  0
   45.2747   36.5389   42.4750 H   0  0  0  0  0  0  0  0  0  0  0  0
   46.8806   33.5968   41.5465 H   0  0  0  0  0  0  0  0  0  0  0  0
  1  2  2  0
  2  3  1  0
  4  3  2  0
  4  5  1  0
  5  6  2  0
  7  6  1  0
  8  7  2  0
  9  8  1  0
  9  4  1  0
 10  1  1  0
 10  9  2  0
 11 12  1  0
 11  1  1  0
 13 18  2  0
 14 13  1  0
 15 14  2  0
 15 16  1  0
 16 17  2  0
 17 18  1  0
 17 12  1  0
 19 15  1  0
 20 19  2  0
  2 21  1  0
  3 22  1  0
  6 23  1  0
  7 24  1  0
  8 25  1  0
 10 26  1  0
 12 27  1  0
 12 28  1  0
 13 29  1  0
 14 30  1  0
 19 31  1  0
M  ISO  8  21  14  22  14  23  14  24  14  25  14  26  14  27   8  28   8
M  ISO  3  29  14  30  14  31   6
M  END
>  <minimizedAffinity>  (1) 
-5.19349289

>  <minimizedRMSD>  (1) 
0.12207485

$$$$
