
     RDKit          3D

 28 30  0  0  0  0  0  0  0  0999 V2000
   45.2440   36.1620   43.4800 C   0  0  0  0  0  0  0  0  0  0  0  0
   45.8810   34.9510   43.1580 C   0  0  0  0  0  0  0  0  0  0  0  0
   45.8160   33.9730   44.1320 C   0  0  0  0  0  0  0  0  0  0  0  0
   45.1860   34.1640   45.3090 N   0  0  0  0  0  0  0  0  0  0  0  0
   44.5860   35.3560   45.5710 C   0  0  0  0  0  0  0  0  0  0  0  0
   44.6170   36.3410   44.6620 N   0  0  0  0  0  0  0  0  0  0  0  0
   46.4320   32.7350   43.8880 C   0  0  0  0  0  0  0  0  0  0  0  0
   47.6970   32.2410   44.0210 C   0  0  0  0  0  0  0  0  0  0  0  0
   48.0280   30.9990   43.7130 C   0  0  0  0  0  0  0  0  0  0  0  0
   47.0270   30.2050   43.2430 C   0  0  0  0  0  0  0  0  0  0  0  0
   45.5610   31.3110   43.2550 S   0  0  0  0  0  0  0  0  0  0  0  0
   46.5300   34.8020   41.8990 C   0  0  0  0  0  0  0  0  0  0  0  0
   47.7420   35.1890   41.8620 O   0  0  0  0  0  0  0  0  0  0  0  0
   45.7900   34.2240   40.7320 C   0  0  0  0  0  0  0  0  0  0  0  0
   44.4210   34.2580   40.5320 C   0  0  0  0  0  0  0  0  0  0  0  0
   44.2120   33.6220   39.3640 N   0  0  0  0  0  0  0  0  0  0  0  0
   45.4230   33.2150   38.8720 C   0  0  0  0  0  0  0  0  0  0  0  0
   46.3990   33.5880   39.7180 N   0  0  0  0  0  0  0  0  0  0  0  0
   45.6120   32.4900   37.6230 C   0  0  0  0  0  0  0  0  0  0  0  0
   45.4640   33.0850   36.5130 O   0  0  0  0  0  0  0  0  0  0  0  0
   45.2568   36.9849   42.7501 H   0  0  0  0  0  0  0  0  0  0  0  0
   44.0737   35.5125   46.5317 H   0  0  0  0  0  0  0  0  0  0  0  0
   48.4812   32.9105   44.4041 H   0  0  0  0  0  0  0  0  0  0  0  0
   49.0566   30.6271   43.8301 H   0  0  0  0  0  0  0  0  0  0  0  0
   47.0830   29.1518   42.9305 H   0  0  0  0  0  0  0  0  0  0  0  0
   43.6632   34.7096   41.1891 H   0  0  0  0  0  0  0  0  0  0  0  0
   43.2970   33.4679   38.9168 H   0  0  0  0  0  0  0  0  0  0  0  0
   45.8836   31.4243   37.6426 H   0  0  0  0  0  0  0  0  0  0  0  0
  1  6  2  0
  2  1  1  0
  2  3  2  0
  3  4  1  0
  4  5  2  0
  6  5  1  0
  7  8  2  0
  7  3  1  0
  9  8  1  0
 10 11  1  0
 10  9  2  0
 11  7  1  0
 12  2  1  0
 13 12  2  0
 14 12  1  0
 15 14  2  0
 16 15  1  0
 17 16  1  0
 17 18  2  0
 18 14  1  0
 19 17  1  0
 20 19  2  0
  1 21  1  0
  5 22  1  0
  8 23  1  0
  9 24  1  0
 10 25  1  0
 15 26  1  0
 16 27  1  0
 19 28  1  0
M  ISO  8  21  14  22  14  23  14  24  14  25  14  26  14  27   9  28   6
M  END
>  <minimizedAffinity>  (1) 
-4.40121603

>  <minimizedRMSD>  (1) 
0.109804139

$$$$
