
     RDKit          3D

 25 26  0  0  1  0  0  0  0  0999 V2000
   46.4840   34.7930   41.5610 C   0  0  2  0  0  0  0  0  0  0  0  0
   45.9330   33.6820   40.7220 C   0  0  0  0  0  0  0  0  0  0  0  0
   46.9100   33.7260   39.5440 C   0  0  0  0  0  0  0  0  0  0  0  0
   48.2250   34.1530   40.1320 C   0  0  0  0  0  0  0  0  0  0  0  0
   47.9610   34.3940   41.6110 C   0  0  1  0  0  0  0  0  0  0  0  0
   44.6100   36.0100   44.5880 C   0  0  0  0  0  0  0  0  0  0  0  0
   45.1180   36.0190   43.2830 C   0  0  0  0  0  0  0  0  0  0  0  0
   45.8940   34.9370   42.8920 C   0  0  0  0  0  0  0  0  0  0  0  0
   46.1130   33.9400   43.7950 N   0  0  0  0  0  0  0  0  0  0  0  0
   45.6160   33.9470   45.0450 C   0  0  0  0  0  0  0  0  0  0  0  0
   44.8600   34.9900   45.4420 N   0  0  0  0  0  0  0  0  0  0  0  0
   48.8220   35.4980   42.0790 C   0  0  0  0  0  0  0  0  0  0  0  0
   49.2760   36.3770   41.3580 O   0  0  0  0  0  0  0  0  0  0  0  0
   46.2712   35.7871   41.1409 H   0  0  0  0  0  0  0  0  0  0  0  0
   45.9710   32.7165   41.2476 H   0  0  0  0  0  0  0  0  0  0  0  0
   44.8732   33.7910   40.4483 H   0  0  0  0  0  0  0  0  0  0  0  0
   46.5716   34.4521   38.7902 H   0  0  0  0  0  0  0  0  0  0  0  0
   46.9850   32.7521   39.0382 H   0  0  0  0  0  0  0  0  0  0  0  0
   48.9777   33.3615   40.0016 H   0  0  0  0  0  0  0  0  0  0  0  0
   48.6143   35.0558   39.6386 H   0  0  0  0  0  0  0  0  0  0  0  0
   48.1667   33.5538   42.2906 H   0  0  0  0  0  0  0  0  0  0  0  0
   43.9917   36.8539   44.9279 H   0  0  0  0  0  0  0  0  0  0  0  0
   44.9100   36.8514   42.5946 H   0  0  0  0  0  0  0  0  0  0  0  0
   45.8234   33.1141   45.7329 H   0  0  0  0  0  0  0  0  0  0  0  0
   49.0729   35.5332   43.1494 H   0  0  0  0  0  0  0  0  0  0  0  0
  1  5  1  0
  1  8  1  0
  2  1  1  0
  3  4  1  0
  3  2  1  0
  4  5  1  0
  5 12  1  0
  6 11  2  0
  7  6  1  0
  8  7  2  0
  8  9  1  0
  9 10  2  0
 10 11  1  0
 13 12  2  0
  1 14  1  6
  2 15  1  0
  2 16  1  0
  3 17  1  0
  3 18  1  0
  4 19  1  0
  4 20  1  0
  5 21  1  1
  6 22  1  0
  7 23  1  0
 10 24  1  0
 12 25  1  0
M  ISO  8  14  13  15  13  16  13  17  13  18  13  19  13  20  13  21  13
M  ISO  4  22  14  23  14  24  14  25   6
M  END
>  <minimizedAffinity>  (1) 
-4.50633144

>  <minimizedRMSD>  (1) 
0.857779026

$$$$
