
     RDKit          3D

 19 20  0  0  0  0  0  0  0  0999 V2000
   45.3470   34.3640   44.7040 C   0  0  0  0  0  0  0  0  0  0  0  0
   45.7710   35.0050   43.5020 C   0  0  0  0  0  0  0  0  0  0  0  0
   46.9180   34.4760   42.9390 C   0  0  0  0  0  0  0  0  0  0  0  0
   47.5780   33.4070   43.5240 N   0  0  0  0  0  0  0  0  0  0  0  0
   47.1340   32.8470   44.6480 C   0  0  0  0  0  0  0  0  0  0  0  0
   46.0150   33.3210   45.2480 N   0  0  0  0  0  0  0  0  0  0  0  0
   47.3550   35.0450   41.6060 C   0  0  0  0  0  0  0  0  0  0  0  0
   48.7780   35.6230   41.7180 C   0  0  0  0  0  0  0  0  0  0  0  0
   48.4040   34.3530   40.9100 C   0  0  0  0  0  0  0  0  0  0  0  0
   45.0000   36.1210   42.9810 C   0  0  0  0  0  0  0  0  0  0  0  0
   45.2260   37.2920   43.3800 O   0  0  0  0  0  0  0  0  0  0  0  0
   44.4414   34.7323   45.2082 H   0  0  0  0  0  0  0  0  0  0  0  0
   47.6765   31.9983   45.0901 H   0  0  0  0  0  0  0  0  0  0  0  0
   46.3682   35.3935   41.2672 H   0  0  0  0  0  0  0  0  0  0  0  0
   49.0475   36.5574   41.2040 H   0  0  0  0  0  0  0  0  0  0  0  0
   49.4780   35.8852   42.5250 H   0  0  0  0  0  0  0  0  0  0  0  0
   48.7335   33.3652   41.2646 H   0  0  0  0  0  0  0  0  0  0  0  0
   48.5529   34.0368   39.8670 H   0  0  0  0  0  0  0  0  0  0  0  0
   44.2139   35.9405   42.2330 H   0  0  0  0  0  0  0  0  0  0  0  0
  1  6  2  0
  2  1  1  0
  3  2  2  0
  3  4  1  0
  4  5  2  0
  5  6  1  0
  7  8  1  0
  7  3  1  0
  9  7  1  0
  9  8  1  0
 10 11  2  0
 10  2  1  0
  1 12  1  0
  5 13  1  0
  7 14  1  0
  8 15  1  0
  8 16  1  0
  9 17  1  0
  9 18  1  0
 10 19  1  0
M  ISO  8  12  14  13  14  14  13  15  13  16  13  17  13  18  13  19   6
M  END
>  <minimizedAffinity>  (1) 
-3.79808664

>  <minimizedRMSD>  (1) 
1.32771349

$$$$
