
     RDKit          3D

 13 13  0  0  0  0  0  0  0  0999 V2000
   45.4550   34.3790   45.0100 C   0  0  0  0  0  0  0  0  0  0  0  0
   46.4040   33.7690   44.1920 C   0  0  0  0  0  0  0  0  0  0  0  0
   47.1180   32.6740   44.7020 C   0  0  0  0  0  0  0  0  0  0  0  0
   46.8460   32.2690   45.9680 N   0  0  0  0  0  0  0  0  0  0  0  0
   45.9270   32.8780   46.7280 C   0  0  0  0  0  0  0  0  0  0  0  0
   45.2240   33.9300   46.2710 N   0  0  0  0  0  0  0  0  0  0  0  0
   45.7040   32.3700   48.0760 C   0  0  0  0  0  0  0  0  0  0  0  0
   44.6780   31.6800   48.2980 O   0  0  0  0  0  0  0  0  0  0  0  0
   44.5900   35.7720   44.2750 S   0  0  0  0  0  0  0  0  0  0  0  0
   46.5888   34.1367   43.1719 H   0  0  0  0  0  0  0  0  0  0  0  0
   47.8759   32.1591   44.0933 H   0  0  0  0  0  0  0  0  0  0  0  0
   46.4198   32.5865   48.8827 H   0  0  0  0  0  0  0  0  0  0  0  0
   44.0915   36.5748   45.2669 H   0  0  0  0  0  0  0  0  0  0  0  0
  1  6  2  0
  2  3  2  0
  2  1  1  0
  3  4  1  0
  4  5  2  0
  5  7  1  0
  6  5  1  0
  7  8  2  0
  9  1  1  0
  2 10  1  0
  3 11  1  0
  7 12  1  0
  9 13  1  0
M  ISO  4  10  14  11  14  12   6  13  11
M  END
>  <minimizedAffinity>  (1) 
-3.07025576

>  <minimizedRMSD>  (1) 
0.886566043

$$$$
