
     RDKit          3D

 15 15  0  0  0  0  0  0  0  0999 V2000
   47.5960   34.9710   42.3360 C   0  0  0  0  0  0  0  0  0  0  0  0
   47.8100   33.9630   43.2920 C   0  0  0  0  0  0  0  0  0  0  0  0
   46.7540   33.6470   44.1500 C   0  0  0  0  0  0  0  0  0  0  0  0
   45.5960   34.3260   44.0090 N   0  0  0  0  0  0  0  0  0  0  0  0
   45.4150   35.2890   43.0840 C   0  0  0  0  0  0  0  0  0  0  0  0
   46.4230   35.6040   42.2520 N   0  0  0  0  0  0  0  0  0  0  0  0
   48.7560   35.2870   41.4270 C   0  0  0  0  0  0  0  0  0  0  0  0
   48.4100   35.2150   40.1070 F   0  0  0  0  0  0  0  0  0  0  0  0
   49.2100   36.5660   41.7560 F   0  0  0  0  0  0  0  0  0  0  0  0
   49.8150   34.4320   41.7300 F   0  0  0  0  0  0  0  0  0  0  0  0
   46.9720   32.6020   45.1430 C   0  0  0  0  0  0  0  0  0  0  0  0
   46.8550   32.8100   46.3710 O   0  0  0  0  0  0  0  0  0  0  0  0
   48.7757   33.4410   43.3620 H   0  0  0  0  0  0  0  0  0  0  0  0
   44.4506   35.8130   43.0102 H   0  0  0  0  0  0  0  0  0  0  0  0
   47.2494   31.5943   44.8000 H   0  0  0  0  0  0  0  0  0  0  0  0
  1  2  2  0
  2  3  1  0
  3 11  1  0
  4  3  2  0
  5  4  1  0
  6  1  1  0
  6  5  2  0
  7 10  1  0
  7  9  1  0
  7  1  1  0
  8  7  1  0
 11 12  2  0
  2 13  1  0
  5 14  1  0
 11 15  1  0
M  ISO  3  13  14  14  14  15   6
M  END
>  <minimizedAffinity>  (1) 
-4.15107632

>  <minimizedRMSD>  (1) 
0.167612731

$$$$
