
     RDKit          3D

 41 43  0  0  1  0  0  0  0  0999 V2000
   45.6520   34.9420   42.1100 C   0  0  0  0  0  0  0  0  0  0  0  0
   46.8220   34.6810   41.5120 C   0  0  0  0  0  0  0  0  0  0  0  0
   44.0810   33.5850   40.6550 C   0  0  0  0  0  0  0  0  0  0  0  0
   44.3570   34.7380   41.4570 C   0  0  0  0  0  0  0  0  0  0  0  0
   43.3540   35.6960   41.6150 C   0  0  0  0  0  0  0  0  0  0  0  0
   42.1590   35.4920   41.0040 N   0  0  0  0  0  0  0  0  0  0  0  0
   41.9340   34.3960   40.2570 C   0  0  0  0  0  0  0  0  0  0  0  0
   42.8890   33.4680   40.0970 N   0  0  0  0  0  0  0  0  0  0  0  0
   39.7100   33.5960   41.7110 F   0  0  0  0  0  0  0  0  0  0  0  0
   39.5350   33.8200   40.3750 C   0  0  0  0  0  0  0  0  0  0  0  0
   40.6330   34.2230   39.6210 C   0  0  0  0  0  0  0  0  0  0  0  0
   40.5420   34.4700   38.2650 C   0  0  0  0  0  0  0  0  0  0  0  0
   39.2860   34.2960   37.6790 C   0  0  0  0  0  0  0  0  0  0  0  0
   38.1710   33.8930   38.4170 C   0  0  0  0  0  0  0  0  0  0  0  0
   38.3040   33.6520   39.7900 C   0  0  0  0  0  0  0  0  0  0  0  0
   48.1200   34.9090   42.2290 C   0  0  0  0  0  0  0  0  0  0  0  0
   49.2300   34.2540   41.5880 N   0  0  0  0  0  0  0  0  0  0  0  0
   50.3480   34.1910   42.4700 C   0  0  0  0  0  0  0  0  0  0  0  0
   51.0710   32.9010   42.2090 C   0  0  0  0  0  0  0  0  0  0  0  0
   50.0020   32.0220   41.6100 C   0  0  0  0  0  0  0  0  0  0  0  0
   48.8970   32.9460   41.1390 C   0  0  2  0  0  0  0  0  0  0  0  0
   48.6890   32.8350   39.6680 C   0  0  0  0  0  0  0  0  0  0  0  0
   49.5020   32.1460   39.0830 O   0  0  0  0  0  0  0  0  0  0  0  0
   45.6645   35.3277   43.1401 H   0  0  0  0  0  0  0  0  0  0  0  0
   46.8311   34.2946   40.4821 H   0  0  0  0  0  0  0  0  0  0  0  0
   44.8475   32.8102   40.5059 H   0  0  0  0  0  0  0  0  0  0  0  0
   43.5282   36.5969   42.2216 H   0  0  0  0  0  0  0  0  0  0  0  0
   41.4150   34.7878   37.6760 H   0  0  0  0  0  0  0  0  0  0  0  0
   39.1714   34.4825   36.6010 H   0  0  0  0  0  0  0  0  0  0  0  0
   37.1961   33.7659   37.9237 H   0  0  0  0  0  0  0  0  0  0  0  0
   37.4381   33.3339   40.3891 H   0  0  0  0  0  0  0  0  0  0  0  0
   48.3196   35.9903   42.2605 H   0  0  0  0  0  0  0  0  0  0  0  0
   48.0213   34.4845   43.2390 H   0  0  0  0  0  0  0  0  0  0  0  0
   51.0206   35.0409   42.2819 H   0  0  0  0  0  0  0  0  0  0  0  0
   50.0128   34.2369   43.5167 H   0  0  0  0  0  0  0  0  0  0  0  0
   51.9009   33.0499   41.5025 H   0  0  0  0  0  0  0  0  0  0  0  0
   51.5264   32.4711   43.1133 H   0  0  0  0  0  0  0  0  0  0  0  0
   50.4094   31.4536   40.7609 H   0  0  0  0  0  0  0  0  0  0  0  0
   49.6260   31.2962   42.3461 H   0  0  0  0  0  0  0  0  0  0  0  0
   47.9223   32.6675   41.5661 H   0  0  0  0  0  0  0  0  0  0  0  0
   47.8605   33.3395   39.1492 H   0  0  0  0  0  0  0  0  0  0  0  0
  2  1  2  0
  2 16  1  0
  3  4  2  0
  4  5  1  0
  4  1  1  0
  6  5  2  0
  7  6  1  0
  8  7  2  0
  8  3  1  0
 10  9  1  0
 11  7  1  0
 11 10  2  0
 12 11  1  0
 13 12  2  0
 13 14  1  0
 14 15  2  0
 15 10  1  0
 17 16  1  0
 17 18  1  0
 19 18  1  0
 20 19  1  0
 21 17  1  0
 21 20  1  0
 22 21  1  0
 23 22  2  0
  1 24  1  0
  2 25  1  0
  3 26  1  0
  5 27  1  0
 12 28  1  0
 13 29  1  0
 14 30  1  0
 15 31  1  0
 16 32  1  0
 16 33  1  0
 18 34  1  0
 18 35  1  0
 19 36  1  0
 19 37  1  0
 20 38  1  0
 20 39  1  0
 21 40  1  1
 22 41  1  0
M  ISO  8  26  14  27  14  28  14  29  14  30  14  31  14  32   8  33   8
M  ISO  8  34  13  35  13  36  13  37  13  38  13  39  13  40  13  41   6
M  END
>  <minimizedAffinity>  (1) 
-5.98502827

>  <minimizedRMSD>  (1) 
0.268058687

$$$$
