
     RDKit          3D

 35 37  0  0  1  0  0  0  0  0999 V2000
   43.6530   34.6270   40.5780 C   0  0  0  0  0  0  0  0  0  0  0  0
   43.6720   33.8170   39.5050 C   0  0  0  0  0  0  0  0  0  0  0  0
   44.9110   33.2210   39.2340 C   0  0  0  0  0  0  0  0  0  0  0  0
   45.9910   33.4570   40.0070 N   0  0  0  0  0  0  0  0  0  0  0  0
   45.9180   34.2790   41.0710 C   0  0  0  0  0  0  0  0  0  0  0  0
   44.7420   34.8330   41.3140 N   0  0  0  0  0  0  0  0  0  0  0  0
   45.0500   32.3180   38.1170 N   0  0  0  0  0  0  0  0  0  0  0  0
   42.6720   33.3940   38.4780 C   0  0  0  0  0  0  0  0  0  0  0  0
   42.0450   35.3940   40.9610 S   0  0  0  0  0  0  0  0  0  0  0  0
   39.6290   34.5530   40.2410 C   0  0  0  0  0  0  0  0  0  0  0  0
   40.7600   34.1450   40.9460 C   0  0  0  0  0  0  0  0  0  0  0  0
   40.8310   32.8970   41.5340 C   0  0  0  0  0  0  0  0  0  0  0  0
   39.7850   32.0190   41.4410 C   0  0  0  0  0  0  0  0  0  0  0  0
   38.6570   32.4030   40.7490 C   0  0  0  0  0  0  0  0  0  0  0  0
   38.5500   33.6350   40.1510 C   0  0  0  0  0  0  0  0  0  0  0  0
   37.7490   31.3280   40.8060 O   0  0  0  0  0  0  0  0  0  0  0  0
   38.2210   30.4220   41.7250 C   0  0  2  0  0  0  0  0  0  0  0  0
   39.5830   30.7280   41.9210 O   0  0  0  0  0  0  0  0  0  0  0  0
   38.1200   29.0280   41.1580 C   0  0  0  0  0  0  0  0  0  0  0  0
   37.4170   28.2150   41.7750 O   0  0  0  0  0  0  0  0  0  0  0  0
   46.9600   34.5830   41.9140 O   0  0  0  0  0  0  0  0  0  0  0  0
   48.1980   34.9390   41.3180 C   0  0  0  0  0  0  0  0  0  0  0  0
   49.1670   34.0130   41.5840 F   0  0  0  0  0  0  0  0  0  0  0  0
   47.9620   35.0680   39.9430 F   0  0  0  0  0  0  0  0  0  0  0  0
   48.6100   36.1370   41.8650 F   0  0  0  0  0  0  0  0  0  0  0  0
   45.9611   31.8805   37.9187 H   0  0  0  0  0  0  0  0  0  0  0  0
   44.2381   32.1110   37.5180 H   0  0  0  0  0  0  0  0  0  0  0  0
   41.7703   33.0126   38.9795 H   0  0  0  0  0  0  0  0  0  0  0  0
   42.4049   34.2562   37.8493 H   0  0  0  0  0  0  0  0  0  0  0  0
   43.1047   32.6019   37.8493 H   0  0  0  0  0  0  0  0  0  0  0  0
   39.5747   35.5469   39.7729 H   0  0  0  0  0  0  0  0  0  0  0  0
   41.7384   32.6055   42.0832 H   0  0  0  0  0  0  0  0  0  0  0  0
   37.6344   33.9084   39.6061 H   0  0  0  0  0  0  0  0  0  0  0  0
   37.6463   30.4714   42.6616 H   0  0  0  0  0  0  0  0  0  0  0  0
   38.6481   28.7449   40.2356 H   0  0  0  0  0  0  0  0  0  0  0  0
  1  9  1  0
  1  6  1  0
  2  1  2  0
  3  2  1  0
  3  4  2  0
  4  5  1  0
  5  6  2  0
  5 21  1  0
  7  3  1  0
  8  2  1  0
 10 11  2  0
 11  9  1  0
 11 12  1  0
 13 12  2  0
 13 18  1  0
 14 16  1  0
 14 13  1  0
 15 10  1  0
 15 14  2  0
 16 17  1  0
 17 18  1  0
 19 17  1  0
 19 20  2  0
 22 23  1  0
 22 25  1  0
 22 21  1  0
 24 22  1  0
  7 26  1  0
  7 27  1  0
  8 28  1  0
  8 29  1  0
  8 30  1  0
 10 31  1  0
 12 32  1  0
 15 33  1  0
 17 34  1  1
 19 35  1  0
M  ISO  8  28   8  29   8  30   8  31  14  32  14  33  14  34  13  35   6
M  END
>  <minimizedAffinity>  (1) 
-5.79231882

>  <minimizedRMSD>  (1) 
0.204280376

$$$$
