
     RDKit          3D

 27 28  0  0  1  0  0  0  0  0999 V2000
   47.2630   32.7400   47.6220 O   0  0  0  0  0  0  0  0  0  0  0  0
   45.8010   32.6150   47.1820 P   0  0  1  0  0  0  0  0  0  0  0  0
   44.8490   33.8200   47.8660 O   0  0  0  0  0  0  0  0  0  0  0  0
   45.8020   32.7050   45.4940 O   0  0  0  0  0  0  0  0  0  0  0  0
   44.6280   35.9490   44.6080 C   0  0  0  0  0  0  0  0  0  0  0  0
   45.1930   36.2070   43.3570 C   0  0  0  0  0  0  0  0  0  0  0  0
   46.0150   35.1980   42.8130 C   0  0  0  0  0  0  0  0  0  0  0  0
   46.2040   34.0560   43.5280 N   0  0  0  0  0  0  0  0  0  0  0  0
   45.6250   33.8630   44.7440 C   0  0  0  0  0  0  0  0  0  0  0  0
   44.8400   34.8120   45.2760 N   0  0  0  0  0  0  0  0  0  0  0  0
   45.2470   31.1180   47.7290 O   0  0  0  0  0  0  0  0  0  0  0  0
   45.6640   30.0800   46.9450 C   0  0  2  0  0  0  0  0  0  0  0  0
   44.5790   29.0580   46.6680 C   0  0  0  0  0  0  0  0  0  0  0  0
   45.4490   27.9160   46.1740 C   0  0  0  0  0  0  0  0  0  0  0  0
   46.6950   28.0800   46.7390 O   0  0  0  0  0  0  0  0  0  0  0  0
   46.7130   29.1920   47.5390 C   0  0  0  0  0  0  0  0  0  0  0  0
   44.8976   33.7585   48.8529 H   0  0  0  0  0  0  0  0  0  0  0  0
   43.9813   36.7143   45.0621 H   0  0  0  0  0  0  0  0  0  0  0  0
   45.0062   37.1501   42.8226 H   0  0  0  0  0  0  0  0  0  0  0  0
   46.4931   35.3316   41.8314 H   0  0  0  0  0  0  0  0  0  0  0  0
   46.0198   30.6435   46.0698 H   0  0  0  0  0  0  0  0  0  0  0  0
   44.0234   28.7892   47.5785 H   0  0  0  0  0  0  0  0  0  0  0  0
   43.7880   29.3835   45.9764 H   0  0  0  0  0  0  0  0  0  0  0  0
   45.0183   26.9525   46.4841 H   0  0  0  0  0  0  0  0  0  0  0  0
   45.5141   27.9211   45.0759 H   0  0  0  0  0  0  0  0  0  0  0  0
   47.6992   29.6784   47.5109 H   0  0  0  0  0  0  0  0  0  0  0  0
   46.5209   28.9571   48.5963 H   0  0  0  0  0  0  0  0  0  0  0  0
  2  1  2  0
  2 11  1  0
  2  3  1  0
  4  2  1  0
  5 10  2  0
  6  5  1  0
  7  6  2  0
  7  8  1  0
  8  9  2  0
  9 10  1  0
  9  4  1  0
 12 16  1  0
 12 11  1  0
 13 12  1  0
 14 13  1  0
 14 15  1  0
 15 16  1  0
  3 17  1  0
  5 18  1  0
  6 19  1  0
  7 20  1  0
 12 21  1  6
 13 22  1  0
 13 23  1  0
 14 24  1  0
 14 25  1  0
 16 26  1  0
 16 27  1  0
M  ISO  8  17   3  18  14  19  14  20  14  21  13  22  13  23  13  24  13
M  ISO  3  25  13  26  13  27  13
M  END
>  <minimizedAffinity>  (1) 
-4.60087633

>  <minimizedRMSD>  (1) 
1.33908665

$$$$
