
     RDKit          3D

 25 26  0  0  1  0  0  0  0  0999 V2000
   45.6290   33.3470   46.4200 C   0  0  0  0  0  0  0  0  0  0  0  0
   44.5490   36.1220   44.1820 C   0  0  0  0  0  0  0  0  0  0  0  0
   45.3380   35.8810   43.0480 C   0  0  0  0  0  0  0  0  0  0  0  0
   46.2070   34.8000   43.0690 C   0  0  0  0  0  0  0  0  0  0  0  0
   46.2710   34.0120   44.1660 N   0  0  0  0  0  0  0  0  0  0  0  0
   45.4900   34.2630   45.2660 C   0  0  0  0  0  0  0  0  0  0  0  0
   44.6640   35.3030   45.2310 N   0  0  0  0  0  0  0  0  0  0  0  0
   46.1770   31.7410   45.7490 S   0  0  0  0  0  0  0  0  0  0  0  0
   46.4030   30.5420   47.1180 C   0  0  2  0  0  0  0  0  0  0  0  0
   45.1550   30.4330   47.9270 C   0  0  0  0  0  0  0  0  0  0  0  0
   45.5360   30.9290   49.2950 C   0  0  0  0  0  0  0  0  0  0  0  0
   46.9190   30.8810   49.3780 O   0  0  0  0  0  0  0  0  0  0  0  0
   47.4010   31.0880   48.0890 C   0  0  0  0  0  0  0  0  0  0  0  0
   46.3760   33.7377   47.1267 H   0  0  0  0  0  0  0  0  0  0  0  0
   44.6775   33.2460   46.9627 H   0  0  0  0  0  0  0  0  0  0  0  0
   43.8484   36.9697   44.2072 H   0  0  0  0  0  0  0  0  0  0  0  0
   45.2695   36.5326   42.1644 H   0  0  0  0  0  0  0  0  0  0  0  0
   46.8416   34.5846   42.1967 H   0  0  0  0  0  0  0  0  0  0  0  0
   46.6997   29.5836   46.6669 H   0  0  0  0  0  0  0  0  0  0  0  0
   44.3589   31.0582   47.4965 H   0  0  0  0  0  0  0  0  0  0  0  0
   44.7668   29.4041   47.9528 H   0  0  0  0  0  0  0  0  0  0  0  0
   45.1859   31.9627   49.4321 H   0  0  0  0  0  0  0  0  0  0  0  0
   45.0761   30.3078   50.0777 H   0  0  0  0  0  0  0  0  0  0  0  0
   48.3628   30.5691   47.9643 H   0  0  0  0  0  0  0  0  0  0  0  0
   47.5528   32.1628   47.9105 H   0  0  0  0  0  0  0  0  0  0  0  0
  2  7  2  0
  3  4  2  0
  3  2  1  0
  4  5  1  0
  5  6  2  0
  6  1  1  0
  7  6  1  0
  8  1  1  0
  9  8  1  0
  9 10  1  0
  9 13  1  0
 10 11  1  0
 11 12  1  0
 13 12  1  0
  1 14  1  0
  1 15  1  0
  2 16  1  0
  3 17  1  0
  4 18  1  0
  9 19  1  6
 10 20  1  0
 10 21  1  0
 11 22  1  0
 11 23  1  0
 13 24  1  0
 13 25  1  0
M  ISO  8  14   8  15   8  16  14  17  14  18  14  19  13  20  13  21  13
M  ISO  4  22  13  23  13  24  13  25  13
M  END
>  <minimizedAffinity>  (1) 
-4.056427

>  <minimizedRMSD>  (1) 
0.791863084

$$$$
