
     RDKit          3D

 48 50  0  0  1  0  0  0  0  0999 V2000
   46.6740   31.3700   45.4700 O   0  0  0  0  0  0  0  0  0  0  0  0
   45.5640   30.1630   47.3020 C   0  0  0  0  0  0  0  0  0  0  0  0
   46.1600   31.2450   46.7520 C   0  0  0  0  0  0  0  0  0  0  0  0
   46.3000   32.3840   47.5210 C   0  0  0  0  0  0  0  0  0  0  0  0
   45.8610   32.4590   48.8220 C   0  0  0  0  0  0  0  0  0  0  0  0
   45.2550   31.3520   49.3770 C   0  0  0  0  0  0  0  0  0  0  0  0
   45.1140   30.2080   48.6050 C   0  0  0  0  0  0  0  0  0  0  0  0
   45.2980   28.8040   46.2570 S   0  0  0  0  0  0  0  0  0  0  0  0
   44.7760   29.1360   44.9200 O   0  0  0  0  0  0  0  0  0  0  0  0
   44.1730   27.9830   46.9350 O   0  0  0  0  0  0  0  0  0  0  0  0
   46.5940   27.6220   46.2090 C   0  0  1  0  0  0  0  0  0  0  0  0
   47.8260   28.0710   46.9690 C   0  0  0  0  0  0  0  0  0  0  0  0
   48.2210   26.8200   47.7050 C   0  0  0  0  0  0  0  0  0  0  0  0
   47.3480   25.8150   47.3830 O   0  0  0  0  0  0  0  0  0  0  0  0
   46.1510   26.4840   47.1150 C   0  0  0  0  0  0  0  0  0  0  0  0
   45.3810   34.2200   43.8470 C   0  0  0  0  0  0  0  0  0  0  0  0
   46.5100   34.7200   43.1660 C   0  0  0  0  0  0  0  0  0  0  0  0
   47.7070   34.0640   43.2770 C   0  0  0  0  0  0  0  0  0  0  0  0
   47.7150   32.9640   44.0470 N   0  0  0  0  0  0  0  0  0  0  0  0
   46.6550   32.4960   44.6860 C   0  0  0  0  0  0  0  0  0  0  0  0
   45.4870   33.1230   44.5870 N   0  0  0  0  0  0  0  0  0  0  0  0
   48.9360   34.4900   42.5990 C   0  0  0  0  0  0  0  0  0  0  0  0
   48.7220   35.6580   41.6820 C   0  0  0  0  0  0  0  0  0  0  0  0
   48.5930   35.2830   40.2750 C   0  0  0  0  0  0  0  0  0  0  0  0
   48.0670   34.3490   39.4900 C   0  0  0  0  0  0  0  0  0  0  0  0
   48.2410   34.2270   37.9880 C   0  0  0  0  0  0  0  0  0  0  0  0
   46.7820   33.2664   47.0747 H   0  0  0  0  0  0  0  0  0  0  0  0
   45.9904   33.3816   49.4068 H   0  0  0  0  0  0  0  0  0  0  0  0
   44.8895   31.3754   50.4142 H   0  0  0  0  0  0  0  0  0  0  0  0
   44.6339   29.3193   49.0406 H   0  0  0  0  0  0  0  0  0  0  0  0
   46.7986   27.4132   45.1486 H   0  0  0  0  0  0  0  0  0  0  0  0
   48.6210   28.3972   46.2823 H   0  0  0  0  0  0  0  0  0  0  0  0
   47.6472   28.9328   47.6288 H   0  0  0  0  0  0  0  0  0  0  0  0
   49.2412   26.5286   47.4146 H   0  0  0  0  0  0  0  0  0  0  0  0
   48.1909   27.0033   48.7892 H   0  0  0  0  0  0  0  0  0  0  0  0
   45.6967   26.8684   48.0401 H   0  0  0  0  0  0  0  0  0  0  0  0
   45.3851   25.8389   46.6597 H   0  0  0  0  0  0  0  0  0  0  0  0
   44.4141   34.7381   43.7652 H   0  0  0  0  0  0  0  0  0  0  0  0
   46.4300   35.6287   42.5512 H   0  0  0  0  0  0  0  0  0  0  0  0
   49.6771   34.7731   43.3610 H   0  0  0  0  0  0  0  0  0  0  0  0
   49.2830   33.6466   41.9839 H   0  0  0  0  0  0  0  0  0  0  0  0
   47.8020   36.1769   41.9891 H   0  0  0  0  0  0  0  0  0  0  0  0
   49.6121   36.2991   41.7641 H   0  0  0  0  0  0  0  0  0  0  0  0
   49.1078   36.0301   39.6531 H   0  0  0  0  0  0  0  0  0  0  0  0
   47.4421   33.5870   39.9787 H   0  0  0  0  0  0  0  0  0  0  0  0
   49.1238   33.6080   37.7702 H   0  0  0  0  0  0  0  0  0  0  0  0
   47.3470   33.7569   37.5523 H   0  0  0  0  0  0  0  0  0  0  0  0
   48.3783   35.2277   37.5523 H   0  0  0  0  0  0  0  0  0  0  0  0
  1  3  1  0
  2  7  2  0
  3  2  1  0
  3  4  2  0
  4  5  1  0
  5  6  2  0
  7  6  1  0
  8 10  2  0
  8  2  1  0
  9  8  2  0
 11  8  1  0
 11 12  1  0
 11 15  1  0
 12 13  1  0
 14 13  1  0
 15 14  1  0
 16 21  2  0
 17 18  2  0
 17 16  1  0
 18 19  1  0
 19 20  2  0
 20  1  1  0
 21 20  1  0
 22 18  1  0
 23 22  1  0
 24 23  1  0
 25 24  2  0
 26 25  1  0
  4 27  1  0
  5 28  1  0
  6 29  1  0
  7 30  1  0
 11 31  1  6
 12 32  1  0
 12 33  1  0
 13 34  1  0
 13 35  1  0
 15 36  1  0
 15 37  1  0
 16 38  1  0
 17 39  1  0
 22 40  1  0
 22 41  1  0
 23 42  1  0
 23 43  1  0
 24 44  1  0
 25 45  1  0
 26 46  1  0
 26 47  1  0
 26 48  1  0
M  ISO  8  27  14  28  14  29  14  30  14  31  13  32  13  33  13  34  13
M  ISO  8  35  13  36  13  37  13  38  14  39  14  40   8  41   8  42   8
M  ISO  4  43   8  46   8  47   8  48   8
M  END
>  <minimizedAffinity>  (1) 
-5.70587587

>  <minimizedRMSD>  (1) 
1.93401301

$$$$
