
     RDKit          3D

 34 36  0  0  1  0  0  0  0  0999 V2000
   45.8210   34.1540   43.4570 C   0  0  0  0  0  0  0  0  0  0  0  0
   47.0070   34.3090   42.7100 C   0  0  0  0  0  0  0  0  0  0  0  0
   48.1210   33.4830   43.0170 C   0  0  0  0  0  0  0  0  0  0  0  0
   47.9960   32.5750   44.0210 N   0  0  0  0  0  0  0  0  0  0  0  0
   46.8330   32.4500   44.7240 C   0  0  0  0  0  0  0  0  0  0  0  0
   45.7580   33.2250   44.4490 N   0  0  0  0  0  0  0  0  0  0  0  0
   46.7210   32.1400   47.1940 C   0  0  2  0  0  0  0  0  0  0  0  0
   46.6730   31.5030   45.8300 C   0  0  1  0  0  0  0  0  0  0  0  0
   45.3730   30.8990   45.8030 O   0  0  0  0  0  0  0  0  0  0  0  0
   45.5220   30.1270   46.9890 C   0  0  0  0  0  0  0  0  0  0  0  0
   45.7690   31.2400   47.9910 C   0  0  2  0  0  0  0  0  0  0  0  0
   46.2010   33.4610   47.1410 O   0  0  0  0  0  0  0  0  0  0  0  0
   44.5610   31.9050   48.1850 O   0  0  0  0  0  0  0  0  0  0  0  0
   44.6600   35.0020   43.1500 C   0  0  2  0  0  0  0  0  0  0  0  0
   44.9570   36.2160   42.3450 C   0  0  0  0  0  0  0  0  0  0  0  0
   45.0230   37.3270   43.3410 C   0  0  0  0  0  0  0  0  0  0  0  0
   44.9140   36.7520   44.6040 O   0  0  0  0  0  0  0  0  0  0  0  0
   44.1390   35.6030   44.4430 C   0  0  0  0  0  0  0  0  0  0  0  0
   47.0683   35.0557   41.9046 H   0  0  0  0  0  0  0  0  0  0  0  0
   49.0625   33.5758   42.4557 H   0  0  0  0  0  0  0  0  0  0  0  0
   47.7342   32.2195   47.6149 H   0  0  0  0  0  0  0  0  0  0  0  0
   47.5054   30.7983   45.6868 H   0  0  0  0  0  0  0  0  0  0  0  0
   44.6100   29.5589   47.2248 H   0  0  0  0  0  0  0  0  0  0  0  0
   46.3051   29.3557   46.9473 H   0  0  0  0  0  0  0  0  0  0  0  0
   46.1552   30.9276   48.9725 H   0  0  0  0  0  0  0  0  0  0  0  0
   46.0675   33.8003   48.0614 H   0  0  0  0  0  0  0  0  0  0  0  0
   44.3886   31.9999   49.1553 H   0  0  0  0  0  0  0  0  0  0  0  0
   43.9794   34.3326   42.6034 H   0  0  0  0  0  0  0  0  0  0  0  0
   45.9180   36.1079   41.8208 H   0  0  0  0  0  0  0  0  0  0  0  0
   44.1971   36.3970   41.5705 H   0  0  0  0  0  0  0  0  0  0  0  0
   45.9816   37.8587   43.2500 H   0  0  0  0  0  0  0  0  0  0  0  0
   44.2149   38.0537   43.1708 H   0  0  0  0  0  0  0  0  0  0  0  0
   43.0723   35.8572   44.3565 H   0  0  0  0  0  0  0  0  0  0  0  0
   44.2135   34.9131   45.2965 H   0  0  0  0  0  0  0  0  0  0  0  0
  1  6  2  0
  2  3  2  0
  2  1  1  0
  3  4  1  0
  4  5  2  0
  5  8  1  0
  6  5  1  0
  7 11  1  0
  8  7  1  0
  9  8  1  0
  9 10  1  0
 10 11  1  0
 11 13  1  0
 12  7  1  0
 14  1  1  0
 14 18  1  0
 15 14  1  0
 15 16  1  0
 16 17  1  0
 18 17  1  0
  2 19  1  0
  3 20  1  0
  7 21  1  1
  8 22  1  1
 10 23  1  0
 10 24  1  0
 11 25  1  1
 12 26  1  0
 13 27  1  0
 14 28  1  6
 15 29  1  0
 15 30  1  0
 16 31  1  0
 16 32  1  0
 18 33  1  0
 18 34  1  0
M  ISO  8  19  14  20  14  21  13  22  13  23  13  24  13  25  13  26   3
M  ISO  8  27   3  28  13  29  13  30  13  31  13  32  13  33  13  34  13
M  END
>  <minimizedAffinity>  (1) 
-4.45212603

>  <minimizedRMSD>  (1) 
2.21939516

$$$$
