
     RDKit          3D

 39 41  0  0  1  0  0  0  0  0999 V2000
   44.9200   34.7310   45.0720 C   0  0  0  0  0  0  0  0  0  0  0  0
   45.5490   34.8240   43.8120 C   0  0  0  0  0  0  0  0  0  0  0  0
   46.7090   34.0810   43.6310 C   0  0  0  0  0  0  0  0  0  0  0  0
   47.1590   33.3260   44.6570 N   0  0  0  0  0  0  0  0  0  0  0  0
   46.5370   33.2630   45.8340 C   0  0  0  0  0  0  0  0  0  0  0  0
   45.4250   33.9580   46.0460 N   0  0  0  0  0  0  0  0  0  0  0  0
   47.5080   34.0240   42.4230 C   0  0  2  0  0  0  0  0  0  0  0  0
   48.6150   32.9820   42.6700 C   0  0  0  0  0  0  0  0  0  0  0  0
   49.9140   33.6700   42.3970 C   0  0  0  0  0  0  0  0  0  0  0  0
   49.6220   34.9600   42.8410 O   0  0  0  0  0  0  0  0  0  0  0  0
   48.3890   35.2560   42.2610 C   0  0  0  0  0  0  0  0  0  0  0  0
   44.9620   35.6850   42.7630 C   0  0  0  0  0  0  0  0  0  0  0  0
   43.5920   35.6500   43.0230 F   0  0  0  0  0  0  0  0  0  0  0  0
   45.1580   35.0260   41.5480 F   0  0  0  0  0  0  0  0  0  0  0  0
   45.4390   36.9220   42.8270 F   0  0  0  0  0  0  0  0  0  0  0  0
   47.0050   32.4820   46.8880 O   0  0  0  0  0  0  0  0  0  0  0  0
   46.5670   31.1470   47.0410 C   0  0  0  0  0  0  0  0  0  0  0  0
   47.6760   30.3840   47.6390 C   0  0  0  0  0  0  0  0  0  0  0  0
   47.9950   29.0370   47.5280 C   0  0  0  0  0  0  0  0  0  0  0  0
   49.0890   28.5840   48.1960 C   0  0  0  0  0  0  0  0  0  0  0  0
   49.8530   29.3820   48.9390 N   0  0  0  0  0  0  0  0  0  0  0  0
   49.5400   30.6800   49.0410 C   0  0  0  0  0  0  0  0  0  0  0  0
   48.4500   31.1960   48.3940 N   0  0  0  0  0  0  0  0  0  0  0  0
   50.4470   31.4850   49.8900 C   0  0  0  0  0  0  0  0  0  0  0  0
   50.2830   32.8360   49.6660 F   0  0  0  0  0  0  0  0  0  0  0  0
   51.7770   31.1540   49.6190 F   0  0  0  0  0  0  0  0  0  0  0  0
   50.2430   31.2580   51.2360 F   0  0  0  0  0  0  0  0  0  0  0  0
   43.9990   35.3026   45.2592 H   0  0  0  0  0  0  0  0  0  0  0  0
   46.8079   33.8629   41.5900 H   0  0  0  0  0  0  0  0  0  0  0  0
   48.5819   32.6322   43.7124 H   0  0  0  0  0  0  0  0  0  0  0  0
   48.4862   32.1032   42.0210 H   0  0  0  0  0  0  0  0  0  0  0  0
   50.7387   33.2211   42.9701 H   0  0  0  0  0  0  0  0  0  0  0  0
   50.2502   33.6123   41.3512 H   0  0  0  0  0  0  0  0  0  0  0  0
   48.5204   35.4877   41.1937 H   0  0  0  0  0  0  0  0  0  0  0  0
   47.9298   36.1309   42.7445 H   0  0  0  0  0  0  0  0  0  0  0  0
   45.6883   31.1132   47.7019 H   0  0  0  0  0  0  0  0  0  0  0  0
   46.2814   30.7187   46.0689 H   0  0  0  0  0  0  0  0  0  0  0  0
   47.3814   28.3575   46.9183 H   0  0  0  0  0  0  0  0  0  0  0  0
   49.3527   27.5188   48.1198 H   0  0  0  0  0  0  0  0  0  0  0  0
  1  6  2  0
  2  1  1  0
  3  2  2  0
  3  4  1  0
  4  5  2  0
  5  6  1  0
  5 16  1  0
  7  8  1  0
  7  3  1  0
  9  8  1  0
  9 10  1  0
 11  7  1  0
 11 10  1  0
 12 15  1  0
 12 13  1  0
 12  2  1  0
 14 12  1  0
 16 17  1  0
 17 18  1  0
 18 23  1  0
 19 18  2  0
 19 20  1  0
 20 21  2  0
 21 22  1  0
 22 24  1  0
 23 22  2  0
 24 27  1  0
 25 24  1  0
 26 24  1  0
  1 28  1  0
  7 29  1  6
  8 30  1  0
  8 31  1  0
  9 32  1  0
  9 33  1  0
 11 34  1  0
 11 35  1  0
 17 36  1  0
 17 37  1  0
 19 38  1  0
 20 39  1  0
M  ISO  8  28  14  29  13  30  13  31  13  32  13  33  13  34  13  35  13
M  ISO  4  36   8  37   8  38  14  39  14
M  END
>  <minimizedAffinity>  (1) 
-6.05235529

>  <minimizedRMSD>  (1) 
1.16510451

$$$$
