
     RDKit          3D

 34 36  0  0  1  0  0  0  0  0999 V2000
   44.8980   35.1200   45.1760 C   0  0  0  0  0  0  0  0  0  0  0  0
   45.7330   34.8010   44.0960 C   0  0  0  0  0  0  0  0  0  0  0  0
   46.5230   33.6810   44.2260 C   0  0  0  0  0  0  0  0  0  0  0  0
   46.4630   32.9580   45.3510 N   0  0  0  0  0  0  0  0  0  0  0  0
   45.6380   33.2950   46.3850 C   0  0  0  0  0  0  0  0  0  0  0  0
   44.8460   34.3750   46.3170 N   0  0  0  0  0  0  0  0  0  0  0  0
   45.7740   32.3170   47.5100 C   0  0  2  0  0  0  0  0  0  0  0  0
   47.1770   32.3430   48.0710 C   0  0  0  0  0  0  0  0  0  0  0  0
   47.3540   30.9160   48.5180 C   0  0  0  0  0  0  0  0  0  0  0  0
   46.1890   30.2390   48.1900 O   0  0  0  0  0  0  0  0  0  0  0  0
   45.6750   30.8920   47.0450 C   0  0  0  0  0  0  0  0  0  0  0  0
   45.6610   35.7140   42.9480 C   0  0  0  0  0  0  0  0  0  0  0  0
   44.7910   35.1340   41.9510 N   0  0  0  0  0  0  0  0  0  0  0  0
   43.4600   35.2450   42.0710 C   0  0  0  0  0  0  0  0  0  0  0  0
   42.6740   34.6670   41.0820 C   0  0  0  0  0  0  0  0  0  0  0  0
   43.2280   34.0060   40.0180 C   0  0  0  0  0  0  0  0  0  0  0  0
   42.4840   33.5010   39.1500 O   0  0  0  0  0  0  0  0  0  0  0  0
   44.5670   33.9160   39.9330 N   0  0  0  0  0  0  0  0  0  0  0  0
   45.3570   34.4730   40.8880 C   0  0  0  0  0  0  0  0  0  0  0  0
   46.6090   34.3530   40.7490 O   0  0  0  0  0  0  0  0  0  0  0  0
   44.2566   36.0104   45.0997 H   0  0  0  0  0  0  0  0  0  0  0  0
   47.1988   33.3823   43.4111 H   0  0  0  0  0  0  0  0  0  0  0  0
   44.9820   32.6024   48.2181 H   0  0  0  0  0  0  0  0  0  0  0  0
   47.9122   32.6156   47.2996 H   0  0  0  0  0  0  0  0  0  0  0  0
   47.3240   33.0830   48.8715 H   0  0  0  0  0  0  0  0  0  0  0  0
   48.2125   30.4623   48.0011 H   0  0  0  0  0  0  0  0  0  0  0  0
   47.5451   30.8653   49.6001 H   0  0  0  0  0  0  0  0  0  0  0  0
   44.6353   30.5991   46.8371 H   0  0  0  0  0  0  0  0  0  0  0  0
   46.1976   30.6684   46.1032 H   0  0  0  0  0  0  0  0  0  0  0  0
   45.2580   36.6850   43.2716 H   0  0  0  0  0  0  0  0  0  0  0  0
   46.6654   35.8674   42.5265 H   0  0  0  0  0  0  0  0  0  0  0  0
   43.0068   35.7747   42.9219 H   0  0  0  0  0  0  0  0  0  0  0  0
   41.5790   34.7421   41.1553 H   0  0  0  0  0  0  0  0  0  0  0  0
   44.9968   33.4213   39.1384 H   0  0  0  0  0  0  0  0  0  0  0  0
  1  6  2  0
  2  3  2  0
  2  1  1  0
  3  4  1  0
  4  5  2  0
  6  5  1  0
  7  5  1  0
  7  8  1  0
  8  9  1  0
 10  9  1  0
 11  7  1  0
 11 10  1  0
 12  2  1  0
 13 14  1  0
 13 12  1  0
 15 14  2  0
 16 15  1  0
 17 16  2  0
 18 16  1  0
 18 19  1  0
 19 13  1  0
 20 19  2  0
  1 21  1  0
  3 22  1  0
  7 23  1  1
  8 24  1  0
  8 25  1  0
  9 26  1  0
  9 27  1  0
 11 28  1  0
 11 29  1  0
 12 30  1  0
 12 31  1  0
 14 32  1  0
 15 33  1  0
 18 34  1  0
M  ISO  8  21  14  22  14  23  13  24  13  25  13  26  13  27  13  28  13
M  ISO  6  29  13  30   8  31   8  32  14  33  14  34   9
M  END
>  <minimizedAffinity>  (1) 
-5.32155037

>  <minimizedRMSD>  (1) 
2.49907041

$$$$
