
     RDKit          3D

 51 53  0  0  1  0  0  0  0  0999 V2000
   46.7120   34.3740   43.5020 N   0  0  0  0  0  0  0  0  0  0  0  0
   46.4590   34.9390   42.2340 C   0  0  0  0  0  0  0  0  0  0  0  0
   44.9930   34.9910   41.8410 C   0  0  0  0  0  0  0  0  0  0  0  0
   44.0460   35.2130   42.9920 C   0  0  0  0  0  0  0  0  0  0  0  0
   44.7960   35.4240   44.2950 C   0  0  0  0  0  0  0  0  0  0  0  0
   45.7000   34.1330   44.4070 C   0  0  2  0  0  0  0  0  0  0  0  0
   47.8800   33.5350   43.5440 C   0  0  0  0  0  0  0  0  0  0  0  0
   47.6420   32.3190   42.7060 C   0  0  0  0  0  0  0  0  0  0  0  0
   51.1930   32.2060   41.4600 C   0  0  0  0  0  0  0  0  0  0  0  0
   50.0610   32.4070   42.2820 C   0  0  0  0  0  0  0  0  0  0  0  0
   48.8170   32.0970   41.8200 C   0  0  0  0  0  0  0  0  0  0  0  0
   48.7230   31.6050   40.5760 N   0  0  0  0  0  0  0  0  0  0  0  0
   49.7820   31.4100   39.7890 C   0  0  0  0  0  0  0  0  0  0  0  0
   51.0200   31.7050   40.2140 N   0  0  0  0  0  0  0  0  0  0  0  0
   46.1210   34.2140   45.7150 O   0  0  0  0  0  0  0  0  0  0  0  0
   45.6020   31.6010   45.6070 O   0  0  0  0  0  0  0  0  0  0  0  0
   46.0200   32.7600   46.5350 P   0  0  2  0  0  0  0  0  0  0  0  0
   44.6940   32.9160   47.6170 O   0  0  0  0  0  0  0  0  0  0  0  0
   47.3530   32.3740   47.4370 O   0  0  0  0  0  0  0  0  0  0  0  0
   47.8140   31.1150   47.1100 C   0  0  0  0  0  0  0  0  0  0  0  0
   47.8140   30.1640   48.2810 C   0  0  1  0  0  0  0  0  0  0  0  0
   48.7620   29.0040   48.0590 C   0  0  0  0  0  0  0  0  0  0  0  0
   50.0630   29.5410   48.6490 C   0  0  0  0  0  0  0  0  0  0  0  0
   49.8380   30.8940   48.9020 O   0  0  0  0  0  0  0  0  0  0  0  0
   48.5450   30.8730   49.4280 C   0  0  0  0  0  0  0  0  0  0  0  0
   46.8502   35.9671   42.2333 H   0  0  0  0  0  0  0  0  0  0  0  0
   46.9535   34.2860   41.4998 H   0  0  0  0  0  0  0  0  0  0  0  0
   44.8588   35.8126   41.1220 H   0  0  0  0  0  0  0  0  0  0  0  0
   44.7468   34.0057   41.4183 H   0  0  0  0  0  0  0  0  0  0  0  0
   43.4327   36.1022   42.7842 H   0  0  0  0  0  0  0  0  0  0  0  0
   43.4144   34.3186   43.0975 H   0  0  0  0  0  0  0  0  0  0  0  0
   45.4123   36.3341   44.2520 H   0  0  0  0  0  0  0  0  0  0  0  0
   44.1286   35.5585   45.1590 H   0  0  0  0  0  0  0  0  0  0  0  0
   45.2609   33.1464   44.1976 H   0  0  0  0  0  0  0  0  0  0  0  0
   48.7453   34.0890   43.1512 H   0  0  0  0  0  0  0  0  0  0  0  0
   48.0822   33.2345   44.5826 H   0  0  0  0  0  0  0  0  0  0  0  0
   47.5027   31.4443   43.3583 H   0  0  0  0  0  0  0  0  0  0  0  0
   46.7397   32.4633   42.0936 H   0  0  0  0  0  0  0  0  0  0  0  0
   52.2001   32.4530   41.8272 H   0  0  0  0  0  0  0  0  0  0  0  0
   50.1843   32.8143   43.2963 H   0  0  0  0  0  0  0  0  0  0  0  0
   49.6385   31.0018   38.7777 H   0  0  0  0  0  0  0  0  0  0  0  0
   45.0230   32.8773   48.5499 H   0  0  0  0  0  0  0  0  0  0  0  0
   47.1694   30.6997   46.3213 H   0  0  0  0  0  0  0  0  0  0  0  0
   48.8560   31.2233   46.7745 H   0  0  0  0  0  0  0  0  0  0  0  0
   46.7713   29.8550   48.4465 H   0  0  0  0  0  0  0  0  0  0  0  0
   48.4232   28.1032   48.5918 H   0  0  0  0  0  0  0  0  0  0  0  0
   48.8462   28.6948   47.0067 H   0  0  0  0  0  0  0  0  0  0  0  0
   50.3067   29.0125   49.5825 H   0  0  0  0  0  0  0  0  0  0  0  0
   50.9092   29.3938   47.9618 H   0  0  0  0  0  0  0  0  0  0  0  0
   48.1549   31.8874   49.5978 H   0  0  0  0  0  0  0  0  0  0  0  0
   48.4486   30.3912   50.4122 H   0  0  0  0  0  0  0  0  0  0  0  0
  1  7  1  0
  1  6  1  0
  2  1  1  0
  3  2  1  0
  3  4  1  0
  4  5  1  0
  5  6  1  0
  6 15  1  0
  8  7  1  0
  9 10  2  0
 11 10  1  0
 11  8  1  0
 12 11  2  0
 13 14  2  0
 13 12  1  0
 14  9  1  0
 15 17  1  0
 17 16  2  0
 17 19  1  0
 17 18  1  0
 20 19  1  0
 21 20  1  0
 21 25  1  0
 22 21  1  0
 22 23  1  0
 23 24  1  0
 24 25  1  0
  2 26  1  0
  2 27  1  0
  3 28  1  0
  3 29  1  0
  4 30  1  0
  4 31  1  0
  5 32  1  0
  5 33  1  0
  6 34  1  6
  7 35  1  0
  7 36  1  0
  8 37  1  0
  8 38  1  0
  9 39  1  0
 10 40  1  0
 13 41  1  0
 18 42  1  0
 20 43  1  0
 20 44  1  0
 21 45  1  1
 22 46  1  0
 22 47  1  0
 23 48  1  0
 23 49  1  0
 25 50  1  0
 25 51  1  0
M  ISO  8  26  13  27  13  28  13  29  13  30  13  31  13  32  13  33  13
M  ISO  8  34  13  35   8  36   8  37   8  38   8  39  14  40  14  41  14
M  ISO  8  42   3  43   8  44   8  45  13  46  13  47  13  48  13  49  13
M  ISO  2  50  13  51  13
M  END
>  <minimizedAffinity>  (1) 
-4.67830896

>  <minimizedRMSD>  (1) 
2.81435847

$$$$
