
     RDKit          3D

 38 40  0  0  1  0  0  0  0  0999 V2000
   48.2360   33.6190   42.5940 C   0  0  1  0  0  0  0  0  0  0  0  0
   46.7560   33.7460   42.3200 C   0  0  2  0  0  0  0  0  0  0  0  0
   46.4970   34.6230   41.2860 O   0  0  0  0  0  0  0  0  0  0  0  0
   46.9300   33.9970   40.1280 C   0  0  0  0  0  0  0  0  0  0  0  0
   48.4360   34.0250   40.1190 C   0  0  2  0  0  0  0  0  0  0  0  0
   49.0760   33.5140   41.3710 C   0  0  2  0  0  0  0  0  0  0  0  0
   44.5860   35.7450   44.6960 C   0  0  0  0  0  0  0  0  0  0  0  0
   45.2340   35.3700   43.5090 C   0  0  0  0  0  0  0  0  0  0  0  0
   46.0360   34.1940   43.5300 C   0  0  0  0  0  0  0  0  0  0  0  0
   46.1380   33.4940   44.6860 N   0  0  0  0  0  0  0  0  0  0  0  0
   45.4900   33.8990   45.8160 C   0  0  0  0  0  0  0  0  0  0  0  0
   44.7160   35.0200   45.8220 N   0  0  0  0  0  0  0  0  0  0  0  0
   48.6900   34.6000   43.4840 O   0  0  0  0  0  0  0  0  0  0  0  0
   48.7960   35.3540   39.8530 O   0  0  0  0  0  0  0  0  0  0  0  0
   49.6220   32.2280   41.2170 O   0  0  0  0  0  0  0  0  0  0  0  0
   50.9480   32.1430   41.5610 C   0  0  2  0  0  0  0  0  0  0  0  0
   51.7100   31.5600   40.3970 C   0  0  0  0  0  0  0  0  0  0  0  0
   51.4140   30.0920   40.5610 C   0  0  0  0  0  0  0  0  0  0  0  0
   51.0930   29.8450   41.8790 O   0  0  0  0  0  0  0  0  0  0  0  0
   51.1680   31.0350   42.5850 C   0  0  0  0  0  0  0  0  0  0  0  0
   48.3596   32.6474   43.0947 H   0  0  0  0  0  0  0  0  0  0  0  0
   46.3997   32.7476   42.0264 H   0  0  0  0  0  0  0  0  0  0  0  0
   46.5759   32.9557   40.1118 H   0  0  0  0  0  0  0  0  0  0  0  0
   46.5329   34.5146   39.2424 H   0  0  0  0  0  0  0  0  0  0  0  0
   48.8076   33.3326   39.3493 H   0  0  0  0  0  0  0  0  0  0  0  0
   49.9111   34.2091   41.5427 H   0  0  0  0  0  0  0  0  0  0  0  0
   43.9596   36.6492   44.7060 H   0  0  0  0  0  0  0  0  0  0  0  0
   45.1256   35.9662   42.5910 H   0  0  0  0  0  0  0  0  0  0  0  0
   45.5943   33.3098   46.7390 H   0  0  0  0  0  0  0  0  0  0  0  0
   48.5478   34.2928   44.4143 H   0  0  0  0  0  0  0  0  0  0  0  0
   48.9270   35.8376   40.7068 H   0  0  0  0  0  0  0  0  0  0  0  0
   51.2502   33.1463   41.8957 H   0  0  0  0  0  0  0  0  0  0  0  0
   52.7877   31.7655   40.4769 H   0  0  0  0  0  0  0  0  0  0  0  0
   51.4244   31.9720   39.4179 H   0  0  0  0  0  0  0  0  0  0  0  0
   50.5680   29.8118   39.9163 H   0  0  0  0  0  0  0  0  0  0  0  0
   52.2960   29.5001   40.2753 H   0  0  0  0  0  0  0  0  0  0  0  0
   52.1570   31.1393   43.0551 H   0  0  0  0  0  0  0  0  0  0  0  0
   50.4196   31.0748   43.3901 H   0  0  0  0  0  0  0  0  0  0  0  0
  1 13  1  0
  2  1  1  0
  2  9  1  0
  3  2  1  0
  4  3  1  0
  5  4  1  0
  5  6  1  0
  6  1  1  0
  7 12  2  0
  8  9  2  0
  8  7  1  0
  9 10  1  0
 10 11  2  0
 11 12  1  0
 14  5  1  0
 15  6  1  0
 16 15  1  0
 16 20  1  0
 17 18  1  0
 17 16  1  0
 18 19  1  0
 19 20  1  0
  1 21  1  1
  2 22  1  6
  4 23  1  0
  4 24  1  0
  5 25  1  6
  6 26  1  1
  7 27  1  0
  8 28  1  0
 11 29  1  0
 13 30  1  0
 14 31  1  0
 16 32  1  1
 17 33  1  0
 17 34  1  0
 18 35  1  0
 18 36  1  0
 20 37  1  0
 20 38  1  0
M  ISO  8  21  13  22  13  23  13  24  13  25  13  26  13  27  14  28  14
M  ISO  8  29  14  30   3  31   3  32  13  33  13  34  13  35  13  36  13
M  ISO  2  37  13  38  13
M  END
>  <minimizedAffinity>  (1) 
-5.28906536

>  <minimizedRMSD>  (1) 
0.292503625

$$$$
