
     RDKit          3D

 38 41  0  0  1  0  0  0  0  0999 V2000
   46.4050   33.0480   44.2550 C   0  0  1  0  0  0  0  0  0  0  0  0
   45.1520   33.4980   43.6170 C   0  0  0  0  0  0  0  0  0  0  0  0
   46.4400   34.4000   43.6980 C   0  0  2  0  0  0  0  0  0  0  0  0
   47.1490   32.0020   47.7810 C   0  0  0  0  0  0  0  0  0  0  0  0
   47.3170   32.1340   46.4110 C   0  0  0  0  0  0  0  0  0  0  0  0
   46.3390   32.8460   45.7350 C   0  0  0  0  0  0  0  0  0  0  0  0
   45.2890   33.3700   46.4060 N   0  0  0  0  0  0  0  0  0  0  0  0
   45.1670   33.2120   47.7570 C   0  0  0  0  0  0  0  0  0  0  0  0
   46.1110   32.5200   48.4360 N   0  0  0  0  0  0  0  0  0  0  0  0
   48.1990   31.2480   48.5420 C   0  0  0  0  0  0  0  0  0  0  0  0
   47.5880   30.6640   49.6260 F   0  0  0  0  0  0  0  0  0  0  0  0
   49.1100   32.1720   49.0100 F   0  0  0  0  0  0  0  0  0  0  0  0
   48.7830   30.2830   47.7670 F   0  0  0  0  0  0  0  0  0  0  0  0
   47.1240   34.5400   42.3740 C   0  0  0  0  0  0  0  0  0  0  0  0
   48.2550   35.2950   42.0790 C   0  0  0  0  0  0  0  0  0  0  0  0
   48.4250   35.0490   40.7320 C   0  0  0  0  0  0  0  0  0  0  0  0
   47.4410   34.1950   40.2680 C   0  0  0  0  0  0  0  0  0  0  0  0
   46.6940   33.9310   41.3140 O   0  0  0  0  0  0  0  0  0  0  0  0
   47.1910   33.6450   38.9420 C   0  0  1  0  0  0  0  0  0  0  0  0
   48.5570   33.4730   38.2620 C   0  0  0  0  0  0  0  0  0  0  0  0
   49.0320   32.1980   38.9350 C   0  0  0  0  0  0  0  0  0  0  0  0
   47.9640   31.6330   39.5870 O   0  0  0  0  0  0  0  0  0  0  0  0
   46.7940   32.1890   39.0730 C   0  0  0  0  0  0  0  0  0  0  0  0
   47.0837   32.1935   44.1168 H   0  0  0  0  0  0  0  0  0  0  0  0
   44.2679   33.7322   44.2282 H   0  0  0  0  0  0  0  0  0  0  0  0
   44.4899   33.1290   42.8198 H   0  0  0  0  0  0  0  0  0  0  0  0
   46.7118   35.3912   44.0900 H   0  0  0  0  0  0  0  0  0  0  0  0
   48.1806   31.6968   45.8885 H   0  0  0  0  0  0  0  0  0  0  0  0
   44.3071   33.6444   48.2896 H   0  0  0  0  0  0  0  0  0  0  0  0
   48.8586   35.9260   42.7479 H   0  0  0  0  0  0  0  0  0  0  0  0
   49.2302   35.4727   40.1139 H   0  0  0  0  0  0  0  0  0  0  0  0
   46.4557   34.2852   38.4326 H   0  0  0  0  0  0  0  0  0  0  0  0
   49.2270   34.3194   38.4733 H   0  0  0  0  0  0  0  0  0  0  0  0
   48.5240   33.4307   37.1633 H   0  0  0  0  0  0  0  0  0  0  0  0
   49.4183   31.4993   38.1783 H   0  0  0  0  0  0  0  0  0  0  0  0
   49.8373   32.4231   39.6496 H   0  0  0  0  0  0  0  0  0  0  0  0
   45.9495   32.0626   39.7664 H   0  0  0  0  0  0  0  0  0  0  0  0
   46.4507   31.7291   38.1346 H   0  0  0  0  0  0  0  0  0  0  0  0
  1  6  1  0
  2  3  1  0
  2  1  1  0
  3  1  1  0
  4  9  2  0
  4 10  1  0
  5  4  1  0
  6  7  1  0
  6  5  2  0
  7  8  2  0
  8  9  1  0
 10 12  1  0
 10 11  1  0
 13 10  1  0
 14  3  1  0
 15 14  2  0
 16 15  1  0
 17 16  2  0
 17 18  1  0
 18 14  1  0
 19 23  1  0
 19 17  1  0
 20 21  1  0
 20 19  1  0
 21 22  1  0
 23 22  1  0
  1 24  1  6
  2 25  1  0
  2 26  1  0
  3 27  1  1
  5 28  1  0
  8 29  1  0
 15 30  1  0
 16 31  1  0
 19 32  1  6
 20 33  1  0
 20 34  1  0
 21 35  1  0
 21 36  1  0
 23 37  1  0
 23 38  1  0
M  ISO  8  24  13  25  13  26  13  27  13  28  14  29  14  30  14  31  14
M  ISO  7  32  13  33  13  34  13  35  13  36  13  37  13  38  13
M  END
>  <minimizedAffinity>  (1) 
-5.28891516

>  <minimizedRMSD>  (1) 
3.21230412

$$$$
