
     RDKit          3D

 37 40  0  0  0  0  0  0  0  0999 V2000
   45.9100   33.0090   41.7720 C   0  0  0  0  0  0  0  0  0  0  0  0
   47.0050   33.7610   41.3610 C   0  0  0  0  0  0  0  0  0  0  0  0
   48.0220   33.9380   42.2950 C   0  0  0  0  0  0  0  0  0  0  0  0
   47.8760   33.3700   43.5280 N   0  0  0  0  0  0  0  0  0  0  0  0
   46.7960   32.6450   43.8880 C   0  0  0  0  0  0  0  0  0  0  0  0
   45.8060   32.4620   43.0070 N   0  0  0  0  0  0  0  0  0  0  0  0
   47.3360   30.8760   45.5010 C   0  0  0  0  0  0  0  0  0  0  0  0
   46.7360   32.0840   45.2170 C   0  0  0  0  0  0  0  0  0  0  0  0
   46.0430   32.8290   46.1850 C   0  0  0  0  0  0  0  0  0  0  0  0
   45.9420   32.3550   47.4900 C   0  0  0  0  0  0  0  0  0  0  0  0
   45.3740   32.7860   48.6440 N   0  0  0  0  0  0  0  0  0  0  0  0
   45.6330   31.8410   49.6090 C   0  0  0  0  0  0  0  0  0  0  0  0
   46.3590   30.8450   49.0240 N   0  0  0  0  0  0  0  0  0  0  0  0
   46.5510   31.1500   47.7350 C   0  0  0  0  0  0  0  0  0  0  0  0
   47.2420   30.3880   46.8060 C   0  0  0  0  0  0  0  0  0  0  0  0
   49.2240   34.7290   41.9340 C   0  0  0  0  0  0  0  0  0  0  0  0
   48.8820   35.7730   41.0640 F   0  0  0  0  0  0  0  0  0  0  0  0
   49.7650   35.3220   43.0390 F   0  0  0  0  0  0  0  0  0  0  0  0
   50.1270   33.8930   41.3290 F   0  0  0  0  0  0  0  0  0  0  0  0
   47.0590   34.2850   40.1090 O   0  0  0  0  0  0  0  0  0  0  0  0
   44.5430   33.4620   38.6140 Cl  0  0  0  0  0  0  0  0  0  0  0  0
   46.2450   33.0910   38.3000 C   0  0  0  0  0  0  0  0  0  0  0  0
   47.3730   33.4860   39.0260 C   0  0  0  0  0  0  0  0  0  0  0  0
   48.6090   33.0530   38.5990 C   0  0  0  0  0  0  0  0  0  0  0  0
   48.7640   32.2510   37.4910 C   0  0  0  0  0  0  0  0  0  0  0  0
   47.6450   31.8650   36.7810 C   0  0  0  0  0  0  0  0  0  0  0  0
   46.3730   32.2850   37.1810 C   0  0  0  0  0  0  0  0  0  0  0  0
   45.0960   31.7010   36.1660 Cl  0  0  0  0  0  0  0  0  0  0  0  0
   45.0875   32.8504   41.0590 H   0  0  0  0  0  0  0  0  0  0  0  0
   47.8728   30.3133   44.7230 H   0  0  0  0  0  0  0  0  0  0  0  0
   45.5794   33.7883   45.9116 H   0  0  0  0  0  0  0  0  0  0  0  0
   44.8456   33.6606   48.7737 H   0  0  0  0  0  0  0  0  0  0  0  0
   45.3131   31.8809   50.6607 H   0  0  0  0  0  0  0  0  0  0  0  0
   47.7018   29.4292   47.0878 H   0  0  0  0  0  0  0  0  0  0  0  0
   49.5028   33.3586   39.1627 H   0  0  0  0  0  0  0  0  0  0  0  0
   49.7654   31.9224   37.1759 H   0  0  0  0  0  0  0  0  0  0  0  0
   47.7548   31.2228   35.8947 H   0  0  0  0  0  0  0  0  0  0  0  0
  1  6  2  0
  2  1  1  0
  2  3  2  0
  3  4  1  0
  4  5  2  0
  5  8  1  0
  6  5  1  0
  7 15  2  0
  8  7  1  0
  8  9  2  0
  9 10  1  0
 10 14  2  0
 10 11  1  0
 11 12  1  0
 13 12  2  0
 14 13  1  0
 15 14  1  0
 16  3  1  0
 16 18  1  0
 17 16  1  0
 19 16  1  0
 20  2  1  0
 22 21  1  0
 22 23  2  0
 23 20  1  0
 24 23  1  0
 25 24  2  0
 26 27  2  0
 26 25  1  0
 27 22  1  0
 28 27  1  0
  1 29  1  0
  7 30  1  0
  9 31  1  0
 11 32  1  0
 12 33  1  0
 15 34  1  0
 24 35  1  0
 25 36  1  0
 26 37  1  0
M  ISO  8  29  14  30  14  31  14  32   9  33  14  34  14  35  14  36  14
M  ISO  1  37  14
M  END
>  <minimizedAffinity>  (1) 
-6.08705091

>  <minimizedRMSD>  (1) 
1.98444736

$$$$
