
     RDKit          3D

 40 42  0  0  0  0  0  0  0  0999 V2000
   46.4620   32.6820   46.5410 C   0  0  0  0  0  0  0  0  0  0  0  0
   44.5690   35.5100   44.9820 C   0  0  0  0  0  0  0  0  0  0  0  0
   45.1400   35.5180   43.6920 C   0  0  0  0  0  0  0  0  0  0  0  0
   46.1180   34.5740   43.4410 C   0  0  0  0  0  0  0  0  0  0  0  0
   46.4880   33.6850   44.4360 N   0  0  0  0  0  0  0  0  0  0  0  0
   45.8980   33.7340   45.6500 C   0  0  0  0  0  0  0  0  0  0  0  0
   44.9360   34.6390   45.9420 N   0  0  0  0  0  0  0  0  0  0  0  0
   46.7140   34.5560   42.1480 N   0  0  0  0  0  0  0  0  0  0  0  0
   47.9120   35.1650   41.9870 C   0  0  0  0  0  0  0  0  0  0  0  0
   48.5020   35.1520   40.7310 C   0  0  0  0  0  0  0  0  0  0  0  0
   47.8540   34.5300   39.7090 C   0  0  0  0  0  0  0  0  0  0  0  0
   48.4180   34.5330   38.5680 O   0  0  0  0  0  0  0  0  0  0  0  0
   46.6690   33.9270   39.8640 N   0  0  0  0  0  0  0  0  0  0  0  0
   46.1320   33.9640   41.1040 C   0  0  0  0  0  0  0  0  0  0  0  0
   45.0270   33.4270   41.3450 O   0  0  0  0  0  0  0  0  0  0  0  0
   45.4970   32.3520   47.6600 C   0  0  0  0  0  0  0  0  0  0  0  0
   45.5160   29.9170   47.5510 C   0  0  0  0  0  0  0  0  0  0  0  0
   46.7150   29.9760   47.8930 O   0  0  0  0  0  0  0  0  0  0  0  0
   44.8290   31.1140   47.3410 N   0  0  0  0  0  0  0  0  0  0  0  0
   44.6480   29.3800   44.7700 Cl  0  0  0  0  0  0  0  0  0  0  0  0
   44.4780   28.2600   46.1180 C   0  0  0  0  0  0  0  0  0  0  0  0
   44.9150   28.5950   47.3970 C   0  0  0  0  0  0  0  0  0  0  0  0
   44.7630   27.6880   48.4230 C   0  0  0  0  0  0  0  0  0  0  0  0
   44.1780   26.4760   48.1350 C   0  0  0  0  0  0  0  0  0  0  0  0
   43.7260   26.0830   46.8930 C   0  0  0  0  0  0  0  0  0  0  0  0
   43.8970   27.0290   45.8780 C   0  0  0  0  0  0  0  0  0  0  0  0
   43.3530   26.6330   44.2490 Cl  0  0  0  0  0  0  0  0  0  0  0  0
   47.4062   33.0441   46.9739 H   0  0  0  0  0  0  0  0  0  0  0  0
   46.6373   31.7731   45.9467 H   0  0  0  0  0  0  0  0  0  0  0  0
   43.7881   36.2490   45.2147 H   0  0  0  0  0  0  0  0  0  0  0  0
   44.8228   36.2393   42.9244 H   0  0  0  0  0  0  0  0  0  0  0  0
   48.4080   35.6603   42.8347 H   0  0  0  0  0  0  0  0  0  0  0  0
   49.4758   35.6357   40.5647 H   0  0  0  0  0  0  0  0  0  0  0  0
   46.1917   33.4596   39.0800 H   0  0  0  0  0  0  0  0  0  0  0  0
   46.0489   32.2425   48.6052 H   0  0  0  0  0  0  0  0  0  0  0  0
   44.7587   33.1600   47.7703 H   0  0  0  0  0  0  0  0  0  0  0  0
   43.8691   31.1132   46.9676 H   0  0  0  0  0  0  0  0  0  0  0  0
   45.0995   27.9258   49.4429 H   0  0  0  0  0  0  0  0  0  0  0  0
   44.0614   25.7621   48.9637 H   0  0  0  0  0  0  0  0  0  0  0  0
   43.2659   25.0999   46.7144 H   0  0  0  0  0  0  0  0  0  0  0  0
  1 16  1  0
  2  7  2  0
  3  2  1  0
  4  3  2  0
  4  5  1  0
  5  6  2  0
  6  7  1  0
  6  1  1  0
  8  4  1  0
  9  8  1  0
 10  9  2  0
 11 13  1  0
 11 10  1  0
 12 11  2  0
 13 14  1  0
 14 15  2  0
 14  8  1  0
 17 18  2  0
 19 17  1  0
 19 16  1  0
 20 21  1  0
 21 22  2  0
 22 17  1  0
 22 23  1  0
 24 23  2  0
 25 24  1  0
 26 21  1  0
 26 25  2  0
 27 26  1  0
  1 28  1  0
  1 29  1  0
  2 30  1  0
  3 31  1  0
  9 32  1  0
 10 33  1  0
 13 34  1  0
 16 35  1  0
 16 36  1  0
 19 37  1  0
 23 38  1  0
 24 39  1  0
 25 40  1  0
M  ISO  8  28   8  29   8  30  14  31  14  32  14  33  14  34   9  35   8
M  ISO  4  36   8  38  14  39  14  40  14
M  END
>  <minimizedAffinity>  (1) 
-6.55276489

>  <minimizedRMSD>  (1) 
1.49834657

$$$$
