
     RDKit          3D

 42 45  0  0  0  0  0  0  0  0999 V2000
   46.8440   33.6380   42.5360 C   0  0  0  0  0  0  0  0  0  0  0  0
   46.9120   34.7690   41.6870 C   0  0  0  0  0  0  0  0  0  0  0  0
   47.9280   34.8650   40.7270 C   0  0  0  0  0  0  0  0  0  0  0  0
   48.8190   33.8210   40.6720 N   0  0  0  0  0  0  0  0  0  0  0  0
   48.7270   32.7390   41.5090 C   0  0  0  0  0  0  0  0  0  0  0  0
   47.7600   32.6540   42.4180 N   0  0  0  0  0  0  0  0  0  0  0  0
   45.7460   33.6340   43.5140 C   0  0  0  0  0  0  0  0  0  0  0  0
   44.7520   34.6810   43.2830 C   0  0  0  0  0  0  0  0  0  0  0  0
   44.7250   35.7440   44.3170 C   0  0  0  0  0  0  0  0  0  0  0  0
   44.6150   35.2070   45.7350 C   0  0  0  0  0  0  0  0  0  0  0  0
   45.3330   33.9040   45.9540 C   0  0  0  0  0  0  0  0  0  0  0  0
   46.4140   33.7240   44.8990 C   0  0  0  0  0  0  0  0  0  0  0  0
   49.7520   31.7240   41.3240 C   0  0  0  0  0  0  0  0  0  0  0  0
   49.3390   30.4590   41.0830 N   0  0  0  0  0  0  0  0  0  0  0  0
   50.4110   29.6570   40.9360 C   0  0  0  0  0  0  0  0  0  0  0  0
   51.5080   30.4460   41.0920 N   0  0  0  0  0  0  0  0  0  0  0  0
   51.1050   31.6980   41.3270 N   0  0  0  0  0  0  0  0  0  0  0  0
   52.6460   29.7150   43.6980 Cl  0  0  0  0  0  0  0  0  0  0  0  0
   53.5170   29.6310   42.1670 C   0  0  0  0  0  0  0  0  0  0  0  0
   52.8580   30.0050   41.0160 C   0  0  0  0  0  0  0  0  0  0  0  0
   53.4960   29.9540   39.8040 C   0  0  0  0  0  0  0  0  0  0  0  0
   54.8170   29.5200   39.7500 C   0  0  0  0  0  0  0  0  0  0  0  0
   55.4720   29.1440   40.9270 C   0  0  0  0  0  0  0  0  0  0  0  0
   54.8260   29.1970   42.1370 C   0  0  0  0  0  0  0  0  0  0  0  0
   55.6060   28.7330   43.6480 Cl  0  0  0  0  0  0  0  0  0  0  0  0
   46.1669   35.5727   41.7811 H   0  0  0  0  0  0  0  0  0  0  0  0
   48.0079   35.7306   40.0530 H   0  0  0  0  0  0  0  0  0  0  0  0
   45.1524   32.7123   43.4238 H   0  0  0  0  0  0  0  0  0  0  0  0
   44.9681   35.1515   42.3125 H   0  0  0  0  0  0  0  0  0  0  0  0
   43.7682   34.1900   43.3141 H   0  0  0  0  0  0  0  0  0  0  0  0
   45.6521   36.3307   44.2377 H   0  0  0  0  0  0  0  0  0  0  0  0
   43.8286   36.3539   44.1312 H   0  0  0  0  0  0  0  0  0  0  0  0
   45.0385   35.9548   46.4217 H   0  0  0  0  0  0  0  0  0  0  0  0
   43.5476   35.0169   45.9209 H   0  0  0  0  0  0  0  0  0  0  0  0
   45.7946   33.9054   46.9525 H   0  0  0  0  0  0  0  0  0  0  0  0
   44.6122   33.0765   45.8784 H   0  0  0  0  0  0  0  0  0  0  0  0
   46.9757   32.7997   45.0993 H   0  0  0  0  0  0  0  0  0  0  0  0
   47.1072   34.5777   44.9248 H   0  0  0  0  0  0  0  0  0  0  0  0
   50.4013   28.5765   40.7303 H   0  0  0  0  0  0  0  0  0  0  0  0
   52.9701   30.2525   38.8851 H   0  0  0  0  0  0  0  0  0  0  0  0
   55.3439   29.4729   38.7855 H   0  0  0  0  0  0  0  0  0  0  0  0
   56.5165   28.8020   40.8827 H   0  0  0  0  0  0  0  0  0  0  0  0
  1  7  1  0
  2  1  2  0
  3  2  1  0
  4  3  2  0
  4  5  1  0
  5  6  2  0
  6  1  1  0
  7 12  1  0
  8  7  1  0
  8  9  1  0
  9 10  1  0
 10 11  1  0
 12 11  1  0
 13 17  2  0
 13  5  1  0
 14 13  1  0
 15 14  2  0
 15 16  1  0
 16 17  1  0
 19 18  1  0
 20 16  1  0
 20 19  2  0
 21 20  1  0
 22 21  2  0
 22 23  1  0
 23 24  2  0
 24 19  1  0
 24 25  1  0
  2 26  1  0
  3 27  1  0
  7 28  1  0
  8 29  1  0
  8 30  1  0
  9 31  1  0
  9 32  1  0
 10 33  1  0
 10 34  1  0
 11 35  1  0
 11 36  1  0
 12 37  1  0
 12 38  1  0
 15 39  1  0
 21 40  1  0
 22 41  1  0
 23 42  1  0
M  ISO  8  26  14  27  14  28  13  29  13  30  13  31  13  32  13  33  13
M  ISO  8  34  13  35  13  36  13  37  13  38  13  39  14  40  14  41  14
M  ISO  1  42  14
M  END
>  <minimizedAffinity>  (1) 
-4.58081675

>  <minimizedRMSD>  (1) 
2.90476751

$$$$
