
     RDKit          3D

 24 25  0  0  0  0  0  0  0  0999 V2000
   44.6240   36.2990   44.5490 C   0  0  0  0  0  0  0  0  0  0  0  0
   45.2560   36.4100   43.2890 C   0  0  0  0  0  0  0  0  0  0  0  0
   45.9630   35.2860   42.8280 C   0  0  0  0  0  0  0  0  0  0  0  0
   46.0060   34.1610   43.6040 N   0  0  0  0  0  0  0  0  0  0  0  0
   45.3910   34.1010   44.7950 C   0  0  0  0  0  0  0  0  0  0  0  0
   44.6940   35.1740   45.2750 N   0  0  0  0  0  0  0  0  0  0  0  0
   46.5060   31.9890   45.1700 C   0  0  0  0  0  0  0  0  0  0  0  0
   47.3220   32.1570   44.2470 O   0  0  0  0  0  0  0  0  0  0  0  0
   45.4740   32.9030   45.5510 N   0  0  0  0  0  0  0  0  0  0  0  0
   48.7090   29.9960   44.5110 Cl  0  0  0  0  0  0  0  0  0  0  0  0
   47.5290   29.7590   45.7730 C   0  0  0  0  0  0  0  0  0  0  0  0
   46.5890   30.7430   45.9620 C   0  0  0  0  0  0  0  0  0  0  0  0
   45.6350   30.5970   46.9530 C   0  0  0  0  0  0  0  0  0  0  0  0
   45.5750   29.4920   47.7780 C   0  0  0  0  0  0  0  0  0  0  0  0
   46.5280   28.5080   47.5750 C   0  0  0  0  0  0  0  0  0  0  0  0
   47.4990   28.6400   46.5800 C   0  0  0  0  0  0  0  0  0  0  0  0
   48.6970   27.3860   46.3390 Cl  0  0  0  0  0  0  0  0  0  0  0  0
   44.0606   37.1574   44.9436 H   0  0  0  0  0  0  0  0  0  0  0  0
   45.1970   37.3346   42.6961 H   0  0  0  0  0  0  0  0  0  0  0  0
   46.4754   35.3111   41.8549 H   0  0  0  0  0  0  0  0  0  0  0  0
   44.8288   32.7033   46.3286 H   0  0  0  0  0  0  0  0  0  0  0  0
   44.8918   31.3964   47.0895 H   0  0  0  0  0  0  0  0  0  0  0  0
   44.8067   29.3975   48.5595 H   0  0  0  0  0  0  0  0  0  0  0  0
   46.5201   27.6081   48.2075 H   0  0  0  0  0  0  0  0  0  0  0  0
  1  6  2  0
  2  1  1  0
  3  2  2  0
  3  4  1  0
  4  5  2  0
  5  6  1  0
  5  9  1  0
  7  9  1  0
  7 12  1  0
  8  7  2  0
 10 11  1  0
 11 12  2  0
 11 16  1  0
 12 13  1  0
 13 14  2  0
 15 14  1  0
 16 15  2  0
 17 16  1  0
  1 18  1  0
  2 19  1  0
  3 20  1  0
  9 21  1  0
 13 22  1  0
 14 23  1  0
 15 24  1  0
M  ISO  6  18  14  19  14  20  14  22  14  23  14  24  14
M  END
>  <minimizedAffinity>  (1) 
-4.56318331

>  <minimizedRMSD>  (1) 
2.80448842

$$$$
