
     RDKit          3D

 39 42  0  0  0  0  0  0  0  0999 V2000
   46.9500   32.1810   46.7870 C   0  0  0  0  0  0  0  0  0  0  0  0
   47.3410   32.5330   47.9320 O   0  0  0  0  0  0  0  0  0  0  0  0
   44.7860   30.5590   48.0160 Cl  0  0  0  0  0  0  0  0  0  0  0  0
   46.0600   29.9190   46.9740 C   0  0  0  0  0  0  0  0  0  0  0  0
   47.0240   30.7610   46.4740 C   0  0  0  0  0  0  0  0  0  0  0  0
   47.9930   30.2110   45.6940 C   0  0  0  0  0  0  0  0  0  0  0  0
   48.0100   28.8670   45.4140 C   0  0  0  0  0  0  0  0  0  0  0  0
   47.0390   28.0250   45.9160 C   0  0  0  0  0  0  0  0  0  0  0  0
   46.0400   28.5840   46.7200 C   0  0  0  0  0  0  0  0  0  0  0  0
   45.0600   27.6080   47.1950 C   0  0  0  0  0  0  0  0  0  0  0  0
   43.9880   27.0270   46.5360 C   0  0  0  0  0  0  0  0  0  0  0  0
   43.3020   26.1490   47.3410 C   0  0  0  0  0  0  0  0  0  0  0  0
   44.0230   26.2370   48.5220 C   0  0  0  0  0  0  0  0  0  0  0  0
   45.0010   27.0730   48.3820 O   0  0  0  0  0  0  0  0  0  0  0  0
   44.8890   34.7690   45.3140 C   0  0  0  0  0  0  0  0  0  0  0  0
   45.4240   34.9720   44.0270 C   0  0  0  0  0  0  0  0  0  0  0  0
   46.5040   34.1870   43.7030 C   0  0  0  0  0  0  0  0  0  0  0  0
   46.9820   33.2910   44.6110 N   0  0  0  0  0  0  0  0  0  0  0  0
   46.4510   33.1270   45.8190 C   0  0  0  0  0  0  0  0  0  0  0  0
   45.3920   33.8830   46.1610 N   0  0  0  0  0  0  0  0  0  0  0  0
   45.2380   32.6930   41.3360 Cl  0  0  0  0  0  0  0  0  0  0  0  0
   46.6020   33.7660   41.2420 C   0  0  0  0  0  0  0  0  0  0  0  0
   47.0780   34.3770   42.3800 C   0  0  0  0  0  0  0  0  0  0  0  0
   48.1590   35.1910   42.1350 C   0  0  0  0  0  0  0  0  0  0  0  0
   48.7170   35.3870   40.9100 C   0  0  0  0  0  0  0  0  0  0  0  0
   48.2130   34.7600   39.8080 C   0  0  0  0  0  0  0  0  0  0  0  0
   47.1240   33.9250   39.9770 C   0  0  0  0  0  0  0  0  0  0  0  0
   46.4750   33.1170   38.5640 Cl  0  0  0  0  0  0  0  0  0  0  0  0
   48.7803   30.8571   45.2784 H   0  0  0  0  0  0  0  0  0  0  0  0
   48.8094   28.4555   44.7802 H   0  0  0  0  0  0  0  0  0  0  0  0
   47.0501   26.9483   45.6911 H   0  0  0  0  0  0  0  0  0  0  0  0
   43.7180   27.2431   45.4918 H   0  0  0  0  0  0  0  0  0  0  0  0
   42.4165   25.5388   47.1097 H   0  0  0  0  0  0  0  0  0  0  0  0
   43.7971   25.6785   49.4424 H   0  0  0  0  0  0  0  0  0  0  0  0
   44.0215   35.3682   45.6275 H   0  0  0  0  0  0  0  0  0  0  0  0
   45.0048   35.7103   43.3275 H   0  0  0  0  0  0  0  0  0  0  0  0
   48.6039   35.7211   42.9900 H   0  0  0  0  0  0  0  0  0  0  0  0
   49.5829   36.0575   40.8069 H   0  0  0  0  0  0  0  0  0  0  0  0
   48.6597   34.9142   38.8147 H   0  0  0  0  0  0  0  0  0  0  0  0
  1  2  2  0
  4  3  1  0
  5  1  1  0
  5  4  2  0
  6  5  1  0
  7  6  2  0
  7  8  1  0
  8  9  2  0
  9  4  1  0
  9 10  1  0
 10 14  1  0
 11 10  2  0
 11 12  1  0
 12 13  2  0
 14 13  1  0
 15 20  2  0
 16 15  1  0
 17 16  2  0
 17 18  1  0
 18 19  2  0
 19 20  1  0
 19  1  1  0
 22 21  1  0
 22 23  2  0
 23 17  1  0
 24 23  1  0
 25 24  2  0
 26 27  2  0
 26 25  1  0
 27 22  1  0
 28 27  1  0
  6 29  1  0
  7 30  1  0
  8 31  1  0
 11 32  1  0
 12 33  1  0
 13 34  1  0
 15 35  1  0
 16 36  1  0
 24 37  1  0
 25 38  1  0
 26 39  1  0
M  ISO  8  29  14  30  14  31  14  32  14  33  14  34  14  35  14  36  14
M  ISO  3  37  14  38  14  39  14
M  END
>  <minimizedAffinity>  (1) 
-6.73846054

>  <minimizedRMSD>  (1) 
1.32368541

$$$$
