
     RDKit          3D

 47 51  0  0  1  0  0  0  0  0999 V2000
   46.9560   30.7940   43.4560 C   0  0  0  0  0  0  0  0  0  0  0  0
   46.1260   31.6980   44.0170 C   0  0  0  0  0  0  0  0  0  0  0  0
   46.2090   31.9130   45.3880 C   0  0  0  0  0  0  0  0  0  0  0  0
   47.1220   31.2150   46.1460 C   0  0  0  0  0  0  0  0  0  0  0  0
   47.9660   30.2860   45.5360 C   0  0  0  0  0  0  0  0  0  0  0  0
   47.8920   30.0630   44.1720 C   0  0  0  0  0  0  0  0  0  0  0  0
   48.7740   29.7420   46.5500 O   0  0  0  0  0  0  0  0  0  0  0  0
   48.1580   30.0580   47.7990 C   0  0  2  0  0  0  0  0  0  0  0  0
   47.4260   31.2210   47.5100 O   0  0  0  0  0  0  0  0  0  0  0  0
   49.3350   27.4710   48.7850 Cl  0  0  0  0  0  0  0  0  0  0  0  0
   49.7130   29.0590   49.4380 C   0  0  0  0  0  0  0  0  0  0  0  0
   49.1100   30.1820   48.9050 C   0  0  0  0  0  0  0  0  0  0  0  0
   49.3750   31.4420   49.3840 C   0  0  0  0  0  0  0  0  0  0  0  0
   50.2690   31.5850   50.4260 C   0  0  0  0  0  0  0  0  0  0  0  0
   50.8730   30.4650   50.9610 C   0  0  0  0  0  0  0  0  0  0  0  0
   50.6210   29.1910   50.4940 C   0  0  0  0  0  0  0  0  0  0  0  0
   51.3980   27.7800   51.1870 Cl  0  0  0  0  0  0  0  0  0  0  0  0
   44.2890   34.4450   42.3570 C   0  0  0  0  0  0  0  0  0  0  0  0
   43.2790   33.7740   41.6950 C   0  0  0  0  0  0  0  0  0  0  0  0
   43.2410   32.3850   41.8270 C   0  0  0  0  0  0  0  0  0  0  0  0
   44.1740   31.7550   42.5820 N   0  0  0  0  0  0  0  0  0  0  0  0
   45.1490   32.4490   43.2150 C   0  0  0  0  0  0  0  0  0  0  0  0
   45.1990   33.7790   43.0990 N   0  0  0  0  0  0  0  0  0  0  0  0
   42.3770   34.5550   40.9450 N   0  0  0  0  0  0  0  0  0  0  0  0
   42.4210   34.4540   39.5190 C   0  0  0  0  0  0  0  0  0  0  0  0
   41.4900   35.3740   38.8220 C   0  0  0  0  0  0  0  0  0  0  0  0
   40.1630   35.3480   39.3660 N   0  0  0  0  0  0  0  0  0  0  0  0
   40.0490   35.2570   40.7700 C   0  0  0  0  0  0  0  0  0  0  0  0
   41.3890   35.4680   41.4600 C   0  0  0  0  0  0  0  0  0  0  0  0
   46.8863   30.6277   42.3709 H   0  0  0  0  0  0  0  0  0  0  0  0
   45.5424   32.6439   45.8691 H   0  0  0  0  0  0  0  0  0  0  0  0
   48.5498   29.3345   43.6754 H   0  0  0  0  0  0  0  0  0  0  0  0
   47.5078   29.2551   48.1766 H   0  0  0  0  0  0  0  0  0  0  0  0
   48.8830   32.3222   48.9445 H   0  0  0  0  0  0  0  0  0  0  0  0
   50.4982   32.5834   50.8268 H   0  0  0  0  0  0  0  0  0  0  0  0
   51.5826   30.5929   51.7917 H   0  0  0  0  0  0  0  0  0  0  0  0
   44.3527   35.5403   42.2781 H   0  0  0  0  0  0  0  0  0  0  0  0
   42.4567   31.8036   41.3201 H   0  0  0  0  0  0  0  0  0  0  0  0
   43.4450   34.6808   39.1872 H   0  0  0  0  0  0  0  0  0  0  0  0
   42.1104   33.4306   39.2619 H   0  0  0  0  0  0  0  0  0  0  0  0
   41.4398   35.0848   37.7619 H   0  0  0  0  0  0  0  0  0  0  0  0
   41.8784   36.3950   38.9516 H   0  0  0  0  0  0  0  0  0  0  0  0
   39.6890   36.2135   39.0710 H   0  0  0  0  0  0  0  0  0  0  0  0
   39.3431   36.0244   41.1205 H   0  0  0  0  0  0  0  0  0  0  0  0
   39.6908   34.2473   41.0195 H   0  0  0  0  0  0  0  0  0  0  0  0
   41.2694   35.2987   42.5403 H   0  0  0  0  0  0  0  0  0  0  0  0
   41.7261   36.4976   41.2698 H   0  0  0  0  0  0  0  0  0  0  0  0
  1  2  2  0
  1  6  1  0
  2  3  1  0
  3  4  2  0
  4  9  1  0
  5  4  1  0
  5  7  1  0
  6  5  2  0
  7  8  1  0
  8 12  1  0
  9  8  1  0
 10 11  1  0
 11 16  2  0
 12 13  2  0
 12 11  1  0
 13 14  1  0
 14 15  2  0
 16 15  1  0
 16 17  1  0
 18 23  2  0
 19 20  2  0
 19 18  1  0
 20 21  1  0
 21 22  2  0
 22  2  1  0
 23 22  1  0
 24 29  1  0
 24 19  1  0
 25 24  1  0
 26 27  1  0
 26 25  1  0
 27 28  1  0
 28 29  1  0
  1 30  1  0
  3 31  1  0
  6 32  1  0
  8 33  1  1
 13 34  1  0
 14 35  1  0
 15 36  1  0
 18 37  1  0
 20 38  1  0
 25 39  1  0
 25 40  1  0
 26 41  1  0
 26 42  1  0
 27 43  1  0
 28 44  1  0
 28 45  1  0
 29 46  1  0
 29 47  1  0
M  ISO  8  30  14  31  14  32  14  33  13  34  14  35  14  36  14  37  14
M  ISO  8  38  14  39  13  40  13  41  13  42  13  43   5  44  13  45  13
M  ISO  2  46  13  47  13
M  END
>  <minimizedAffinity>  (1) 
-5.9805274

>  <minimizedRMSD>  (1) 
1.40387928

$$$$
