
     RDKit          3D

 42 46  0  0  1  0  0  0  0  0999 V2000
   47.2130   34.3620   42.5110 C   0  0  1  0  0  0  0  0  0  0  0  0
   46.3550   35.5020   42.7660 C   0  0  0  0  0  0  0  0  0  0  0  0
   45.8410   34.1190   43.0740 C   0  0  2  0  0  0  0  0  0  0  0  0
   45.7980   33.7490   44.5140 C   0  0  0  0  0  0  0  0  0  0  0  0
   45.0450   34.4150   45.4670 C   0  0  0  0  0  0  0  0  0  0  0  0
   45.0330   34.0050   46.7940 C   0  0  0  0  0  0  0  0  0  0  0  0
   45.7790   32.9170   47.1880 C   0  0  0  0  0  0  0  0  0  0  0  0
   45.7950   32.4710   48.4720 N   0  0  0  0  0  0  0  0  0  0  0  0
   46.5290   31.3950   48.8320 C   0  0  0  0  0  0  0  0  0  0  0  0
   47.3190   30.6620   47.9290 C   0  0  0  0  0  0  0  0  0  0  0  0
   47.3160   31.1000   46.6200 C   0  0  0  0  0  0  0  0  0  0  0  0
   46.5550   32.2100   46.2650 C   0  0  0  0  0  0  0  0  0  0  0  0
   46.5330   32.6610   44.9530 C   0  0  0  0  0  0  0  0  0  0  0  0
   47.1790   32.5480   40.7590 C   0  0  0  0  0  0  0  0  0  0  0  0
   47.4910   33.8920   41.1300 C   0  0  0  0  0  0  0  0  0  0  0  0
   48.0590   34.7190   40.1800 C   0  0  0  0  0  0  0  0  0  0  0  0
   48.2870   34.1900   38.9430 N   0  0  0  0  0  0  0  0  0  0  0  0
   47.9890   32.9220   38.6070 C   0  0  0  0  0  0  0  0  0  0  0  0
   47.4310   32.0950   39.5230 N   0  0  0  0  0  0  0  0  0  0  0  0
   50.7040   31.6460   38.2520 Cl  0  0  0  0  0  0  0  0  0  0  0  0
   49.5000   31.8490   36.9980 C   0  0  0  0  0  0  0  0  0  0  0  0
   48.2750   32.4460   37.2400 C   0  0  0  0  0  0  0  0  0  0  0  0
   47.2860   32.6350   36.2960 C   0  0  0  0  0  0  0  0  0  0  0  0
   47.5420   32.1910   35.0040 C   0  0  0  0  0  0  0  0  0  0  0  0
   48.7640   31.5810   34.6980 C   0  0  0  0  0  0  0  0  0  0  0  0
   49.7140   31.4210   35.6960 C   0  0  0  0  0  0  0  0  0  0  0  0
   51.2830   30.6610   35.4010 Cl  0  0  0  0  0  0  0  0  0  0  0  0
   48.2443   34.1207   42.8079 H   0  0  0  0  0  0  0  0  0  0  0  0
   46.5931   36.1928   43.5883 H   0  0  0  0  0  0  0  0  0  0  0  0
   45.9895   36.3435   42.1592 H   0  0  0  0  0  0  0  0  0  0  0  0
   44.9604   33.5220   42.7943 H   0  0  0  0  0  0  0  0  0  0  0  0
   44.4444   35.2863   45.1668 H   0  0  0  0  0  0  0  0  0  0  0  0
   44.4262   34.5507   47.5316 H   0  0  0  0  0  0  0  0  0  0  0  0
   46.5073   31.0765   49.8847 H   0  0  0  0  0  0  0  0  0  0  0  0
   47.9065   29.7884   48.2478 H   0  0  0  0  0  0  0  0  0  0  0  0
   47.9127   30.5738   45.8604 H   0  0  0  0  0  0  0  0  0  0  0  0
   47.1395   32.1183   44.2129 H   0  0  0  0  0  0  0  0  0  0  0  0
   46.7245   31.8739   41.5000 H   0  0  0  0  0  0  0  0  0  0  0  0
   48.3173   35.7628   40.4118 H   0  0  0  0  0  0  0  0  0  0  0  0
   46.3326   33.1181   36.5560 H   0  0  0  0  0  0  0  0  0  0  0  0
   46.7817   32.3194   34.2195 H   0  0  0  0  0  0  0  0  0  0  0  0
   48.9692   31.2316   33.6753 H   0  0  0  0  0  0  0  0  0  0  0  0
  1  2  1  0
  1  3  1  0
  2  3  1  0
  3  4  1  0
  4 13  1  0
  4  5  2  0
  5  6  1  0
  6  7  2  0
  7  8  1  0
  8  9  2  0
 10  9  1  0
 11 10  2  0
 12 11  1  0
 12  7  1  0
 13 12  2  0
 14 15  2  0
 15  1  1  0
 16 15  1  0
 17 16  2  0
 18 17  1  0
 18 19  2  0
 19 14  1  0
 21 22  2  0
 21 20  1  0
 22 18  1  0
 23 22  1  0
 24 23  2  0
 25 24  1  0
 25 26  2  0
 26 21  1  0
 27 26  1  0
  1 28  1  1
  2 29  1  0
  2 30  1  0
  3 31  1  6
  5 32  1  0
  6 33  1  0
  9 34  1  0
 10 35  1  0
 11 36  1  0
 13 37  1  0
 14 38  1  0
 16 39  1  0
 23 40  1  0
 24 41  1  0
 25 42  1  0
M  ISO  8  28  13  29  13  30  13  31  13  32  14  33  14  34  14  35  14
M  ISO  7  36  14  37  14  38  14  39  14  40  14  41  14  42  14
M  END
>  <minimizedAffinity>  (1) 
-5.82255554

>  <minimizedRMSD>  (1) 
9.58445644

$$$$
