
     RDKit          3D

 45 49  0  0  1  0  0  0  0  0999 V2000
   47.2530   32.7620   44.2020 C   0  0  0  0  0  0  0  0  0  0  0  0
   47.2530   31.8960   45.2840 C   0  0  0  0  0  0  0  0  0  0  0  0
   46.4490   32.0730   46.4070 C   0  0  0  0  0  0  0  0  0  0  0  0
   45.5940   33.1630   46.4710 C   0  0  0  0  0  0  0  0  0  0  0  0
   45.5670   34.0300   45.4320 C   0  0  0  0  0  0  0  0  0  0  0  0
   44.7110   35.1070   45.4580 C   0  0  0  0  0  0  0  0  0  0  0  0
   44.6190   36.0120   44.4210 C   0  0  0  0  0  0  0  0  0  0  0  0
   45.4410   35.7920   43.3220 C   0  0  0  0  0  0  0  0  0  0  0  0
   46.2980   34.7050   43.3080 C   0  0  0  0  0  0  0  0  0  0  0  0
   46.3860   33.8130   44.3330 C   0  0  0  0  0  0  0  0  0  0  0  0
   44.9460   33.0670   41.2860 Cl  0  0  0  0  0  0  0  0  0  0  0  0
   46.4260   34.0210   41.0640 C   0  0  0  0  0  0  0  0  0  0  0  0
   47.0540   34.7720   42.0730 C   0  0  0  0  0  0  0  0  0  0  0  0
   48.2210   35.3830   41.6750 C   0  0  0  0  0  0  0  0  0  0  0  0
   48.7320   35.2760   40.4120 C   0  0  0  0  0  0  0  0  0  0  0  0
   48.1010   34.5360   39.4360 C   0  0  0  0  0  0  0  0  0  0  0  0
   46.9140   33.8940   39.7810 C   0  0  0  0  0  0  0  0  0  0  0  0
   46.1860   32.9860   38.4960 Cl  0  0  0  0  0  0  0  0  0  0  0  0
   48.1040   32.4850   43.1250 N   0  0  0  0  0  0  0  0  0  0  0  0
   49.9790   31.1330   42.0920 C   0  0  1  0  0  0  0  0  0  0  0  0
   48.7360   30.2730   42.0740 C   0  0  0  0  0  0  0  0  0  0  0  0
   48.9770   31.3470   43.1220 C   0  0  2  0  0  0  0  0  0  0  0  0
   53.3260   29.6060   41.6960 C   0  0  0  0  0  0  0  0  0  0  0  0
   53.6410   29.2560   43.0430 C   0  0  0  0  0  0  0  0  0  0  0  0
   52.6960   29.5670   44.0550 C   0  0  0  0  0  0  0  0  0  0  0  0
   51.5540   30.1710   43.7160 N   0  0  0  0  0  0  0  0  0  0  0  0
   51.2900   30.4900   42.4170 C   0  0  0  0  0  0  0  0  0  0  0  0
   52.1680   30.2130   41.3980 N   0  0  0  0  0  0  0  0  0  0  0  0
   47.9227   31.0239   45.2541 H   0  0  0  0  0  0  0  0  0  0  0  0
   46.4917   31.3532   47.2377 H   0  0  0  0  0  0  0  0  0  0  0  0
   44.9503   33.3199   47.3491 H   0  0  0  0  0  0  0  0  0  0  0  0
   44.0735   35.2524   46.3426 H   0  0  0  0  0  0  0  0  0  0  0  0
   43.9281   36.8670   44.4619 H   0  0  0  0  0  0  0  0  0  0  0  0
   45.4106   36.4806   42.4647 H   0  0  0  0  0  0  0  0  0  0  0  0
   48.7705   35.9884   42.4109 H   0  0  0  0  0  0  0  0  0  0  0  0
   49.6713   35.7940   40.1684 H   0  0  0  0  0  0  0  0  0  0  0  0
   48.5192   34.4552   38.4218 H   0  0  0  0  0  0  0  0  0  0  0  0
   48.1030   33.1167   42.3115 H   0  0  0  0  0  0  0  0  0  0  0  0
   50.4778   31.8012   41.3745 H   0  0  0  0  0  0  0  0  0  0  0  0
   47.9713   30.4148   41.2961 H   0  0  0  0  0  0  0  0  0  0  0  0
   48.5168   29.1951   42.0784 H   0  0  0  0  0  0  0  0  0  0  0  0
   49.0379   31.3946   44.2193 H   0  0  0  0  0  0  0  0  0  0  0  0
   54.0413   29.3752   40.8928 H   0  0  0  0  0  0  0  0  0  0  0  0
   54.5905   28.7587   43.2902 H   0  0  0  0  0  0  0  0  0  0  0  0
   52.9015   29.3138   45.1056 H   0  0  0  0  0  0  0  0  0  0  0  0
  1 10  1  0
  1  2  2  0
  2  3  1  0
  3  4  2  0
  5  6  2  0
  5  4  1  0
  7  6  1  0
  8  7  2  0
  9  8  1  0
  9 10  2  0
 10  5  1  0
 12 11  1  0
 12 13  2  0
 13  9  1  0
 14 13  1  0
 15 14  2  0
 16 17  2  0
 16 15  1  0
 17 12  1  0
 18 17  1  0
 19  1  1  0
 20 27  1  0
 20 22  1  0
 21 20  1  0
 21 22  1  0
 22 19  1  0
 23 24  2  0
 24 25  1  0
 26 25  2  0
 27 26  1  0
 28 23  1  0
 28 27  2  0
  2 29  1  0
  3 30  1  0
  4 31  1  0
  6 32  1  0
  7 33  1  0
  8 34  1  0
 14 35  1  0
 15 36  1  0
 16 37  1  0
 19 38  1  0
 20 39  1  6
 21 40  1  0
 21 41  1  0
 22 42  1  1
 23 43  1  0
 24 44  1  0
 25 45  1  0
M  ISO  8  29  14  30  14  31  14  32  14  33  14  34  14  35  14  36  14
M  ISO  8  37  14  39  13  40  13  41  13  42  13  43  14  44  14  45  14
M  END
>  <minimizedAffinity>  (1) 
-6.54007912

>  <minimizedRMSD>  (1) 
2.58391857

$$$$
