
     RDKit          3D

 47 51  0  0  0  0  0  0  0  0999 V2000
   45.4040   27.8290   48.4100 C   0  0  0  0  0  0  0  0  0  0  0  0
   44.9100   28.9940   47.8590 C   0  0  0  0  0  0  0  0  0  0  0  0
   44.1260   28.8550   46.7120 C   0  0  0  0  0  0  0  0  0  0  0  0
   43.8570   27.6240   46.1570 C   0  0  0  0  0  0  0  0  0  0  0  0
   43.1600   27.1830   45.0930 N   0  0  0  0  0  0  0  0  0  0  0  0
   43.2190   25.8490   44.9970 C   0  0  0  0  0  0  0  0  0  0  0  0
   43.9860   25.3510   46.0320 C   0  0  0  0  0  0  0  0  0  0  0  0
   44.3590   26.4770   46.7230 C   0  0  0  0  0  0  0  0  0  0  0  0
   45.1330   26.6060   47.8540 C   0  0  0  0  0  0  0  0  0  0  0  0
   43.9970   25.8080   50.5710 Cl  0  0  0  0  0  0  0  0  0  0  0  0
   45.3160   24.9900   49.7630 C   0  0  0  0  0  0  0  0  0  0  0  0
   45.7200   25.4610   48.5430 C   0  0  0  0  0  0  0  0  0  0  0  0
   46.7640   24.8770   47.8200 C   0  0  0  0  0  0  0  0  0  0  0  0
   47.4010   23.7760   48.3770 C   0  0  0  0  0  0  0  0  0  0  0  0
   46.9970   23.2920   49.6120 C   0  0  0  0  0  0  0  0  0  0  0  0
   45.9650   23.8810   50.3150 C   0  0  0  0  0  0  0  0  0  0  0  0
   45.4460   23.2850   51.8700 Cl  0  0  0  0  0  0  0  0  0  0  0  0
   45.0700   30.3850   48.2790 C   0  0  0  0  0  0  0  0  0  0  0  0
   46.4180   30.9810   48.1400 C   0  0  0  0  0  0  0  0  0  0  0  0
   46.2610   33.1150   45.2830 C   0  0  0  0  0  0  0  0  0  0  0  0
   47.1220   32.0970   44.8320 C   0  0  0  0  0  0  0  0  0  0  0  0
   47.2850   31.1900   45.8250 C   0  0  0  0  0  0  0  0  0  0  0  0
   46.5470   31.6370   46.8540 N   0  0  0  0  0  0  0  0  0  0  0  0
   45.9390   32.7820   46.5290 N   0  0  0  0  0  0  0  0  0  0  0  0
   44.5450   36.1540   44.2270 C   0  0  0  0  0  0  0  0  0  0  0  0
   45.0920   36.4240   42.9750 C   0  0  0  0  0  0  0  0  0  0  0  0
   46.0600   35.5410   42.5040 C   0  0  0  0  0  0  0  0  0  0  0  0
   46.4040   34.4920   43.2800 N   0  0  0  0  0  0  0  0  0  0  0  0
   45.8690   34.2540   44.4730 C   0  0  0  0  0  0  0  0  0  0  0  0
   44.9320   35.0950   44.9440 N   0  0  0  0  0  0  0  0  0  0  0  0
   46.0282   27.8832   49.3141 H   0  0  0  0  0  0  0  0  0  0  0  0
   43.7107   29.7563   46.2374 H   0  0  0  0  0  0  0  0  0  0  0  0
   42.6484   27.7921   44.4386 H   0  0  0  0  0  0  0  0  0  0  0  0
   42.7331   25.2447   44.2167 H   0  0  0  0  0  0  0  0  0  0  0  0
   44.2378   24.3027   46.2504 H   0  0  0  0  0  0  0  0  0  0  0  0
   47.0709   25.2764   46.8421 H   0  0  0  0  0  0  0  0  0  0  0  0
   48.2264   23.2876   47.8383 H   0  0  0  0  0  0  0  0  0  0  0  0
   47.5104   22.4190   50.0413 H   0  0  0  0  0  0  0  0  0  0  0  0
   44.3755   30.9935   47.6812 H   0  0  0  0  0  0  0  0  0  0  0  0
   44.8714   30.3800   49.3609 H   0  0  0  0  0  0  0  0  0  0  0  0
   46.5731   31.7188   48.9410 H   0  0  0  0  0  0  0  0  0  0  0  0
   47.1716   30.1830   48.2121 H   0  0  0  0  0  0  0  0  0  0  0  0
   47.5865   32.0462   43.8362 H   0  0  0  0  0  0  0  0  0  0  0  0
   47.8960   30.2758   45.7946 H   0  0  0  0  0  0  0  0  0  0  0  0
   43.7770   36.8278   44.6348 H   0  0  0  0  0  0  0  0  0  0  0  0
   44.7735   37.2958   42.3847 H   0  0  0  0  0  0  0  0  0  0  0  0
   46.5330   35.6948   41.5229 H   0  0  0  0  0  0  0  0  0  0  0  0
  2 18  1  0
  2  1  2  0
  3  2  1  0
  4  3  2  0
  4  8  1  0
  5  4  1  0
  6  5  1  0
  6  7  2  0
  7  8  1  0
  8  9  2  0
  9  1  1  0
  9 12  1  0
 11 16  2  0
 11 10  1  0
 12 11  1  0
 13 14  1  0
 13 12  2  0
 14 15  2  0
 15 16  1  0
 16 17  1  0
 19 18  1  0
 20 24  2  0
 21 20  1  0
 21 22  2  0
 22 23  1  0
 23 19  1  0
 24 23  1  0
 25 30  2  0
 26 25  1  0
 27 26  2  0
 27 28  1  0
 28 29  2  0
 29 30  1  0
 29 20  1  0
  1 31  1  0
  3 32  1  0
  5 33  1  0
  6 34  1  0
  7 35  1  0
 13 36  1  0
 14 37  1  0
 15 38  1  0
 18 39  1  0
 18 40  1  0
 19 41  1  0
 19 42  1  0
 21 43  1  0
 22 44  1  0
 25 45  1  0
 26 46  1  0
 27 47  1  0
M  ISO  8  31  14  32  14  33   9  34  14  35  14  36  14  37  14  38  14
M  ISO  8  39   8  40   8  41   8  42   8  43  14  44  14  45  14  46  14
M  ISO  1  47  14
M  END
>  <minimizedAffinity>  (1) 
-5.89408827

>  <minimizedRMSD>  (1) 
1.4824909

$$$$
