
     RDKit          3D

 37 40  0  0  1  0  0  0  0  0999 V2000
   44.9170   34.7030   42.5650 N   0  0  0  0  0  0  0  0  0  0  0  0
   45.5700   33.8050   41.6910 C   0  0  1  0  0  0  0  0  0  0  0  0
   45.2920   33.9860   40.2440 C   0  0  0  0  0  0  0  0  0  0  0  0
   44.0150   34.4440   39.8870 N   0  0  0  0  0  0  0  0  0  0  0  0
   43.3560   35.3180   40.7710 C   0  0  0  0  0  0  0  0  0  0  0  0
   44.2600   35.7840   41.8950 C   0  0  0  0  0  0  0  0  0  0  0  0
   47.7980   35.0030   41.8540 C   0  0  0  0  0  0  0  0  0  0  0  0
   47.0690   33.8350   41.8310 C   0  0  0  0  0  0  0  0  0  0  0  0
   47.8500   32.6790   41.9340 C   0  0  0  0  0  0  0  0  0  0  0  0
   49.2220   32.6900   42.0470 C   0  0  0  0  0  0  0  0  0  0  0  0
   49.8800   33.9000   42.0630 C   0  0  0  0  0  0  0  0  0  0  0  0
   49.1610   35.0740   41.9650 C   0  0  0  0  0  0  0  0  0  0  0  0
   51.2470   33.6050   42.1860 O   0  0  0  0  0  0  0  0  0  0  0  0
   51.4520   32.2250   41.9110 C   0  0  0  0  0  0  0  0  0  0  0  0
   50.1690   31.6860   42.1590 O   0  0  0  0  0  0  0  0  0  0  0  0
   44.4560   35.4770   44.7790 C   0  0  0  0  0  0  0  0  0  0  0  0
   44.9720   34.4670   43.9560 C   0  0  0  0  0  0  0  0  0  0  0  0
   45.4850   33.3410   44.5730 C   0  0  0  0  0  0  0  0  0  0  0  0
   45.4910   33.2160   45.9280 N   0  0  0  0  0  0  0  0  0  0  0  0
   44.9790   34.2250   46.6990 C   0  0  0  0  0  0  0  0  0  0  0  0
   44.4730   35.3300   46.1140 N   0  0  0  0  0  0  0  0  0  0  0  0
   45.1426   32.8450   42.0161 H   0  0  0  0  0  0  0  0  0  0  0  0
   46.0234   34.7097   39.8549 H   0  0  0  0  0  0  0  0  0  0  0  0
   45.3601   32.9756   39.8146 H   0  0  0  0  0  0  0  0  0  0  0  0
   44.1058   34.9321   38.9846 H   0  0  0  0  0  0  0  0  0  0  0  0
   43.0094   36.1969   40.2076 H   0  0  0  0  0  0  0  0  0  0  0  0
   42.5129   34.7723   41.2197 H   0  0  0  0  0  0  0  0  0  0  0  0
   45.0250   36.4539   41.4755 H   0  0  0  0  0  0  0  0  0  0  0  0
   43.6288   36.2970   42.6356 H   0  0  0  0  0  0  0  0  0  0  0  0
   47.2438   35.9501   41.7775 H   0  0  0  0  0  0  0  0  0  0  0  0
   47.3385   31.7052   41.9241 H   0  0  0  0  0  0  0  0  0  0  0  0
   49.6728   36.0476   41.9758 H   0  0  0  0  0  0  0  0  0  0  0  0
   52.2058   31.7903   42.5840 H   0  0  0  0  0  0  0  0  0  0  0  0
   51.8307   32.0246   40.8979 H   0  0  0  0  0  0  0  0  0  0  0  0
   44.0370   36.3904   44.3316 H   0  0  0  0  0  0  0  0  0  0  0  0
   45.8969   32.5292   43.9556 H   0  0  0  0  0  0  0  0  0  0  0  0
   44.9803   34.1345   47.7953 H   0  0  0  0  0  0  0  0  0  0  0  0
  1 17  1  0
  2  8  1  0
  2  1  1  0
  3  2  1  0
  4  3  1  0
  4  5  1  0
  5  6  1  0
  6  1  1  0
  7 12  2  0
  8  7  1  0
  8  9  2  0
  9 10  1  0
 10 11  2  0
 10 15  1  0
 11 13  1  0
 12 11  1  0
 14 15  1  0
 14 13  1  0
 16 21  2  0
 17 18  2  0
 17 16  1  0
 18 19  1  0
 19 20  2  0
 21 20  1  0
  2 22  1  1
  3 23  1  0
  3 24  1  0
  4 25  1  0
  5 26  1  0
  5 27  1  0
  6 28  1  0
  6 29  1  0
  7 30  1  0
  9 31  1  0
 12 32  1  0
 14 33  1  0
 14 34  1  0
 16 35  1  0
 18 36  1  0
 20 37  1  0
M  ISO  8  22  13  23  13  24  13  25   5  26  13  27  13  28  13  29  13
M  ISO  8  30  14  31  14  32  14  33  13  34  13  35  14  36  14  37  14
M  END
>  <minimizedAffinity>  (1) 
-5.23498726

>  <minimizedRMSD>  (1) 
1.75407076

$$$$
