
     RDKit          3D

 24 26  0  0  0  0  0  0  0  0999 V2000
   45.1320   33.2580   47.4640 C   0  0  0  0  0  0  0  0  0  0  0  0
   45.9530   33.2300   46.3630 C   0  0  0  0  0  0  0  0  0  0  0  0
   47.0720   32.3960   46.2540 C   0  0  0  0  0  0  0  0  0  0  0  0
   47.2860   31.5860   47.3660 C   0  0  0  0  0  0  0  0  0  0  0  0
   46.5060   31.5570   48.5040 C   0  0  0  0  0  0  0  0  0  0  0  0
   45.4250   32.4260   48.5040 C   0  0  0  0  0  0  0  0  0  0  0  0
   47.0740   30.6160   49.3490 O   0  0  0  0  0  0  0  0  0  0  0  0
   48.3060   30.2040   48.8190 C   0  0  0  0  0  0  0  0  0  0  0  0
   48.3400   30.6630   47.4970 O   0  0  0  0  0  0  0  0  0  0  0  0
   44.4810   35.9050   44.3100 C   0  0  0  0  0  0  0  0  0  0  0  0
   45.1570   35.7490   43.0750 C   0  0  0  0  0  0  0  0  0  0  0  0
   46.1130   34.7130   42.9810 C   0  0  0  0  0  0  0  0  0  0  0  0
   46.3290   33.9360   44.0650 N   0  0  0  0  0  0  0  0  0  0  0  0
   45.6650   34.1200   45.2200 C   0  0  0  0  0  0  0  0  0  0  0  0
   44.7550   35.0890   45.3410 N   0  0  0  0  0  0  0  0  0  0  0  0
   46.9940   34.4640   41.4590 S   0  0  0  0  0  0  0  0  0  0  0  0
   44.2636   33.9319   47.5055 H   0  0  0  0  0  0  0  0  0  0  0  0
   47.7243   32.3819   45.3684 H   0  0  0  0  0  0  0  0  0  0  0  0
   44.7706   32.4450   49.3880 H   0  0  0  0  0  0  0  0  0  0  0  0
   49.1340   30.6423   49.3955 H   0  0  0  0  0  0  0  0  0  0  0  0
   48.4144   29.1103   48.8647 H   0  0  0  0  0  0  0  0  0  0  0  0
   43.7279   36.6984   44.4252 H   0  0  0  0  0  0  0  0  0  0  0  0
   44.9456   36.4096   42.2213 H   0  0  0  0  0  0  0  0  0  0  0  0
   48.2856   34.0989   41.7335 H   0  0  0  0  0  0  0  0  0  0  0  0
  1  6  2  0
  2  1  1  0
  3  2  2  0
  3  4  1  0
  4  9  1  0
  4  5  2  0
  5  7  1  0
  6  5  1  0
  8  7  1  0
  9  8  1  0
 10 15  2  0
 11 10  1  0
 12 11  2  0
 12 13  1  0
 13 14  2  0
 14 15  1  0
 14  2  1  0
 16 12  1  0
  1 17  1  0
  3 18  1  0
  6 19  1  0
  8 20  1  0
  8 21  1  0
 10 22  1  0
 11 23  1  0
 16 24  1  0
M  ISO  8  17  14  18  14  19  14  20  13  21  13  22  14  23  14  24  11
M  END
>  <minimizedAffinity>  (1) 
-5.10073376

>  <minimizedRMSD>  (1) 
0.735355735

$$$$
