
     RDKit          3D

 45 49  0  0  1  0  0  0  0  0999 V2000
   48.9900   33.3520   40.9120 N   0  0  0  0  0  0  0  0  0  0  0  0
   50.1130   32.6050   41.4260 C   0  0  0  0  0  0  0  0  0  0  0  0
   50.3830   31.3590   40.6200 C   0  0  0  0  0  0  0  0  0  0  0  0
   49.2610   30.3940   40.9050 C   0  0  0  0  0  0  0  0  0  0  0  0
   47.9380   31.1230   40.9130 C   0  0  0  0  0  0  0  0  0  0  0  0
   48.0530   32.4580   40.2540 C   0  0  2  0  0  0  0  0  0  0  0  0
   48.4020   33.7650   38.3380 C   0  0  0  0  0  0  0  0  0  0  0  0
   48.1870   32.4580   38.7970 C   0  0  0  0  0  0  0  0  0  0  0  0
   48.1350   31.4670   37.8660 C   0  0  0  0  0  0  0  0  0  0  0  0
   48.2890   31.7370   36.5240 C   0  0  0  0  0  0  0  0  0  0  0  0
   48.5020   33.0020   36.0170 C   0  0  0  0  0  0  0  0  0  0  0  0
   48.5550   34.0140   36.9690 C   0  0  0  0  0  0  0  0  0  0  0  0
   48.6170   32.9600   34.6350 O   0  0  0  0  0  0  0  0  0  0  0  0
   48.1200   31.7070   34.2340 C   0  0  0  0  0  0  0  0  0  0  0  0
   48.2760   30.9120   35.4090 O   0  0  0  0  0  0  0  0  0  0  0  0
   47.1480   34.8900   41.8800 C   0  0  1  0  0  0  0  0  0  0  0  0
   48.4230   35.5730   41.8090 C   0  0  0  0  0  0  0  0  0  0  0  0
   48.4380   34.0890   42.0040 C   0  0  2  0  0  0  0  0  0  0  0  0
   45.3970   36.0720   43.2700 C   0  0  0  0  0  0  0  0  0  0  0  0
   46.2810   34.9770   43.0910 C   0  0  0  0  0  0  0  0  0  0  0  0
   46.3100   34.0050   44.0710 C   0  0  0  0  0  0  0  0  0  0  0  0
   45.4840   34.1650   45.1440 N   0  0  0  0  0  0  0  0  0  0  0  0
   44.6530   35.2130   45.2930 C   0  0  0  0  0  0  0  0  0  0  0  0
   44.6000   36.1820   44.3550 N   0  0  0  0  0  0  0  0  0  0  0  0
   51.0070   33.2453   41.3991 H   0  0  0  0  0  0  0  0  0  0  0  0
   49.8728   32.2975   42.4544 H   0  0  0  0  0  0  0  0  0  0  0  0
   51.3452   30.9176   40.9189 H   0  0  0  0  0  0  0  0  0  0  0  0
   50.4356   31.5915   39.5462 H   0  0  0  0  0  0  0  0  0  0  0  0
   49.2433   29.6167   40.1268 H   0  0  0  0  0  0  0  0  0  0  0  0
   49.4241   29.9336   41.8906 H   0  0  0  0  0  0  0  0  0  0  0  0
   47.1927   30.5198   40.3739 H   0  0  0  0  0  0  0  0  0  0  0  0
   47.6309   31.2758   41.9581 H   0  0  0  0  0  0  0  0  0  0  0  0
   47.0497   32.8818   40.4084 H   0  0  0  0  0  0  0  0  0  0  0  0
   48.4506   34.5973   39.0556 H   0  0  0  0  0  0  0  0  0  0  0  0
   47.9667   30.4298   38.1914 H   0  0  0  0  0  0  0  0  0  0  0  0
   48.7233   35.0482   36.6341 H   0  0  0  0  0  0  0  0  0  0  0  0
   47.0622   31.7762   33.9404 H   0  0  0  0  0  0  0  0  0  0  0  0
   48.6399   31.2935   33.3572 H   0  0  0  0  0  0  0  0  0  0  0  0
   46.2623   34.8868   41.2277 H   0  0  0  0  0  0  0  0  0  0  0  0
   48.7589   35.9989   40.8521 H   0  0  0  0  0  0  0  0  0  0  0  0
   48.8677   36.4197   42.3525 H   0  0  0  0  0  0  0  0  0  0  0  0
   48.7887   33.3425   42.7318 H   0  0  0  0  0  0  0  0  0  0  0  0
   45.3594   36.8569   42.5003 H   0  0  0  0  0  0  0  0  0  0  0  0
   46.9754   33.1329   43.9892 H   0  0  0  0  0  0  0  0  0  0  0  0
   44.0128   35.2803   46.1850 H   0  0  0  0  0  0  0  0  0  0  0  0
  1  2  1  0
  1 18  1  0
  3  4  1  0
  3  2  1  0
  4  5  1  0
  6  1  1  0
  6  5  1  0
  7  8  2  0
  8  6  1  0
  9  8  1  0
 10  9  2  0
 11 10  1  0
 11 12  2  0
 12  7  1  0
 13 11  1  0
 14 13  1  0
 14 15  1  0
 15 10  1  0
 16 18  1  0
 16 20  1  0
 17 16  1  0
 17 18  1  0
 19 24  2  0
 20 19  1  0
 20 21  2  0
 21 22  1  0
 22 23  2  0
 24 23  1  0
  2 25  1  0
  2 26  1  0
  3 27  1  0
  3 28  1  0
  4 29  1  0
  4 30  1  0
  5 31  1  0
  5 32  1  0
  6 33  1  6
  7 34  1  0
  9 35  1  0
 12 36  1  0
 14 37  1  0
 14 38  1  0
 16 39  1  6
 17 40  1  0
 17 41  1  0
 18 42  1  1
 19 43  1  0
 21 44  1  0
 23 45  1  0
M  ISO  8  25  13  26  13  27  13  28  13  29  13  30  13  31  13  32  13
M  ISO  8  33  13  34  14  35  14  36  14  37  13  38  13  39  13  40  13
M  ISO  5  41  13  42  13  43  14  44  14  45  14
M  END
>  <minimizedAffinity>  (1) 
-5.80470705

>  <minimizedRMSD>  (1) 
1.88025761

$$$$
