
     RDKit          3D

 50 54  0  0  1  0  0  0  0  0999 V2000
   46.2830   35.7910   42.6270 C   0  0  0  0  0  0  0  0  0  0  0  0
   46.8370   34.5140   42.4810 C   0  0  0  0  0  0  0  0  0  0  0  0
   46.4050   33.5080   43.3500 C   0  0  0  0  0  0  0  0  0  0  0  0
   45.4710   33.8220   44.2900 N   0  0  0  0  0  0  0  0  0  0  0  0
   44.9800   35.0600   44.3810 C   0  0  0  0  0  0  0  0  0  0  0  0
   45.3620   36.0280   43.5810 N   0  0  0  0  0  0  0  0  0  0  0  0
   43.9990   35.4130   45.3620 N   0  0  0  0  0  0  0  0  0  0  0  0
   47.8710   34.2580   41.4250 C   0  0  0  0  0  0  0  0  0  0  0  0
   48.7840   35.4370   41.1040 C   0  0  0  0  0  0  0  0  0  0  0  0
   49.2510   34.2540   41.8040 C   0  0  0  0  0  0  0  0  0  0  0  0
   47.4320   33.5300   40.2020 C   0  0  0  0  0  0  0  0  0  0  0  0
   47.9820   34.0620   38.8950 C   0  0  0  0  0  0  0  0  0  0  0  0
   47.4890   33.1040   37.8210 C   0  0  0  0  0  0  0  0  0  0  0  0
   46.1270   33.4120   37.6220 O   0  0  0  0  0  0  0  0  0  0  0  0
   45.5140   32.8660   38.7800 C   0  0  0  0  0  0  0  0  0  0  0  0
   45.9000   33.6830   40.0000 C   0  0  0  0  0  0  0  0  0  0  0  0
   46.9100   32.1760   43.3080 C   0  0  0  0  0  0  0  0  0  0  0  0
   46.4580   31.2160   42.5570 O   0  0  0  0  0  0  0  0  0  0  0  0
   48.9930   30.7450   43.2310 C   0  0  0  0  0  0  0  0  0  0  0  0
   47.8760   31.2520   43.8350 C   0  0  0  0  0  0  0  0  0  0  0  0
   47.6030   30.7120   45.0990 C   0  0  0  0  0  0  0  0  0  0  0  0
   48.3370   29.7590   45.7450 C   0  0  0  0  0  0  0  0  0  0  0  0
   49.4500   29.2780   45.1050 C   0  0  0  0  0  0  0  0  0  0  0  0
   49.7690   29.7660   43.8670 C   0  0  0  0  0  0  0  0  0  0  0  0
   50.0410   28.3220   45.9450 O   0  0  0  0  0  0  0  0  0  0  0  0
   49.0610   27.9150   46.8950 C   0  0  0  0  0  0  0  0  0  0  0  0
   48.2450   29.0940   46.9820 O   0  0  0  0  0  0  0  0  0  0  0  0
   46.6013   36.6052   41.9593 H   0  0  0  0  0  0  0  0  0  0  0  0
   43.6394   36.3771   45.4070 H   0  0  0  0  0  0  0  0  0  0  0  0
   43.6528   34.7028   46.0228 H   0  0  0  0  0  0  0  0  0  0  0  0
   49.0987   35.6320   40.0682 H   0  0  0  0  0  0  0  0  0  0  0  0
   48.7769   36.5202   41.2952 H   0  0  0  0  0  0  0  0  0  0  0  0
   49.5177   34.3279   42.8686 H   0  0  0  0  0  0  0  0  0  0  0  0
   50.0793   33.5517   41.6287 H   0  0  0  0  0  0  0  0  0  0  0  0
   47.7903   32.5070   40.3894 H   0  0  0  0  0  0  0  0  0  0  0  0
   47.6050   35.0778   38.7053 H   0  0  0  0  0  0  0  0  0  0  0  0
   49.0802   34.1233   38.9115 H   0  0  0  0  0  0  0  0  0  0  0  0
   48.0544   33.2508   36.8889 H   0  0  0  0  0  0  0  0  0  0  0  0
   47.6253   32.0550   38.1228 H   0  0  0  0  0  0  0  0  0  0  0  0
   44.4209   32.8857   38.6583 H   0  0  0  0  0  0  0  0  0  0  0  0
   45.8533   31.8284   38.9155 H   0  0  0  0  0  0  0  0  0  0  0  0
   45.6468   34.7412   39.8382 H   0  0  0  0  0  0  0  0  0  0  0  0
   45.3561   33.3306   40.8888 H   0  0  0  0  0  0  0  0  0  0  0  0
   47.6122   32.4673   42.5130 H   0  0  0  0  0  0  0  0  0  0  0  0
   46.1136   30.4845   43.1282 H   0  0  0  0  0  0  0  0  0  0  0  0
   49.2859   31.1093   42.2352 H   0  0  0  0  0  0  0  0  0  0  0  0
   46.7123   31.0922   45.6206 H   0  0  0  0  0  0  0  0  0  0  0  0
   50.6620   29.3781   43.3551 H   0  0  0  0  0  0  0  0  0  0  0  0
   48.4835   27.0517   46.5328 H   0  0  0  0  0  0  0  0  0  0  0  0
   49.4777   27.5840   47.8577 H   0  0  0  0  0  0  0  0  0  0  0  0
  1  6  2  0
  2  1  1  0
  2  3  2  0
  3  4  1  0
  4  5  2  0
  5  7  1  0
  6  5  1  0
  8 10  1  0
  8  2  1  0
  9  8  1  0
  9 10  1  0
 11  8  1  0
 12 11  1  0
 13 12  1  0
 14 13  1  0
 14 15  1  0
 15 16  1  0
 16 11  1  0
 17 18  1  0
 17  3  1  0
 17 20  1  0
 19 20  2  0
 19 24  1  0
 20 21  1  0
 21 22  2  0
 22 27  1  0
 23 22  1  0
 23 25  1  0
 24 23  2  0
 25 26  1  0
 26 27  1  0
  1 28  1  0
  7 29  1  0
  7 30  1  0
  9 31  1  0
  9 32  1  0
 10 33  1  0
 10 34  1  0
 11 35  1  0
 12 36  1  0
 12 37  1  0
 13 38  1  0
 13 39  1  0
 15 40  1  0
 15 41  1  0
 16 42  1  0
 16 43  1  0
 17 44  1  0
 18 45  1  0
 19 46  1  0
 21 47  1  0
 24 48  1  0
 26 49  1  0
 26 50  1  0
M  ISO  8  28  14  31  13  32  13  33  13  34  13  35  13  36  13  37  13
M  ISO  8  38  13  39  13  40  13  41  13  42  13  43  13  44   8  45   3
M  ISO  5  46  14  47  14  48  14  49  13  50  13
M  END
>  <minimizedAffinity>  (1) 
-5.50319958

>  <minimizedRMSD>  (1) 
1.84009731

$$$$
