
     RDKit          3D

 46 51  0  0  0  0  0  0  0  0999 V2000
   46.0170   33.1590   41.7450 C   0  0  0  0  0  0  0  0  0  0  0  0
   47.1690   33.8700   41.3900 C   0  0  0  0  0  0  0  0  0  0  0  0
   48.1590   33.9660   42.3450 C   0  0  0  0  0  0  0  0  0  0  0  0
   47.9440   33.3660   43.5520 N   0  0  0  0  0  0  0  0  0  0  0  0
   46.8480   32.6960   43.8760 C   0  0  0  0  0  0  0  0  0  0  0  0
   45.8660   32.5860   42.9650 N   0  0  0  0  0  0  0  0  0  0  0  0
   47.1500   30.8130   45.4220 C   0  0  0  0  0  0  0  0  0  0  0  0
   46.7110   32.0930   45.1850 C   0  0  0  0  0  0  0  0  0  0  0  0
   46.1160   32.8810   46.1790 C   0  0  0  0  0  0  0  0  0  0  0  0
   45.9460   32.3810   47.4630 C   0  0  0  0  0  0  0  0  0  0  0  0
   45.4330   32.8280   48.6360 N   0  0  0  0  0  0  0  0  0  0  0  0
   45.5600   31.8370   49.5610 C   0  0  0  0  0  0  0  0  0  0  0  0
   46.1510   30.7880   48.9440 N   0  0  0  0  0  0  0  0  0  0  0  0
   46.3990   31.0930   47.6600 C   0  0  0  0  0  0  0  0  0  0  0  0
   46.9910   30.2870   46.7040 C   0  0  0  0  0  0  0  0  0  0  0  0
   49.4050   34.7030   42.0340 C   0  0  0  0  0  0  0  0  0  0  0  0
   49.1460   35.7520   41.1400 F   0  0  0  0  0  0  0  0  0  0  0  0
   49.9150   35.2880   43.1680 F   0  0  0  0  0  0  0  0  0  0  0  0
   50.2980   33.8260   41.4660 F   0  0  0  0  0  0  0  0  0  0  0  0
   47.2540   34.4170   40.1520 O   0  0  0  0  0  0  0  0  0  0  0  0
   47.0650   33.6890   39.0030 C   0  0  0  0  0  0  0  0  0  0  0  0
   48.3610   33.4370   38.5690 C   0  0  0  0  0  0  0  0  0  0  0  0
   48.0970   32.4570   37.0240 S   0  0  0  0  0  0  0  0  0  0  0  0
   46.2420   32.5690   37.2490 C   0  0  0  0  0  0  0  0  0  0  0  0
   46.2150   33.1570   38.1820 N   0  0  0  0  0  0  0  0  0  0  0  0
   45.7220   31.8350   34.9300 C   0  0  0  0  0  0  0  0  0  0  0  0
   45.3740   31.9160   36.2400 C   0  0  0  0  0  0  0  0  0  0  0  0
   44.2200   31.4320   36.8090 C   0  0  0  0  0  0  0  0  0  0  0  0
   43.3090   30.7900   35.9620 C   0  0  0  0  0  0  0  0  0  0  0  0
   43.6550   30.7000   34.6180 C   0  0  0  0  0  0  0  0  0  0  0  0
   44.8380   31.2040   34.0690 C   0  0  0  0  0  0  0  0  0  0  0  0
   42.5960   30.0250   33.9840 O   0  0  0  0  0  0  0  0  0  0  0  0
   41.8400   29.3240   34.9750 C   0  0  0  0  0  0  0  0  0  0  0  0
   42.0570   30.1710   36.1140 O   0  0  0  0  0  0  0  0  0  0  0  0
   45.2056   33.0615   41.0088 H   0  0  0  0  0  0  0  0  0  0  0  0
   47.6147   30.2185   44.6217 H   0  0  0  0  0  0  0  0  0  0  0  0
   45.7817   33.9015   45.9408 H   0  0  0  0  0  0  0  0  0  0  0  0
   45.0188   33.7568   48.7991 H   0  0  0  0  0  0  0  0  0  0  0  0
   45.2417   31.8810   50.6130 H   0  0  0  0  0  0  0  0  0  0  0  0
   47.3246   29.2672   46.9464 H   0  0  0  0  0  0  0  0  0  0  0  0
   49.3105   33.7450   39.0312 H   0  0  0  0  0  0  0  0  0  0  0  0
   46.6710   32.2549   34.5654 H   0  0  0  0  0  0  0  0  0  0  0  0
   44.0208   31.5445   37.8849 H   0  0  0  0  0  0  0  0  0  0  0  0
   45.0584   31.1037   32.9960 H   0  0  0  0  0  0  0  0  0  0  0  0
   40.7744   29.2667   34.7082 H   0  0  0  0  0  0  0  0  0  0  0  0
   42.1350   28.2743   35.1203 H   0  0  0  0  0  0  0  0  0  0  0  0
  1  6  2  0
  2  1  1  0
  2  3  2  0
  3  4  1  0
  4  5  2  0
  5  8  1  0
  6  5  1  0
  7 15  2  0
  8  7  1  0
  8  9  2  0
  9 10  1  0
 10 14  2  0
 10 11  1  0
 11 12  1  0
 13 12  2  0
 14 13  1  0
 15 14  1  0
 16  3  1  0
 16 18  1  0
 17 16  1  0
 19 16  1  0
 20  2  1  0
 21 20  1  0
 22 21  2  0
 23 24  1  0
 23 22  1  0
 24 25  2  0
 25 21  1  0
 26 27  2  0
 27 28  1  0
 27 24  1  0
 29 34  1  0
 29 28  2  0
 30 29  1  0
 31 30  2  0
 31 26  1  0
 32 30  1  0
 32 33  1  0
 33 34  1  0
  1 35  1  0
  7 36  1  0
  9 37  1  0
 11 38  1  0
 12 39  1  0
 15 40  1  0
 22 41  1  0
 26 42  1  0
 28 43  1  0
 31 44  1  0
 33 45  1  0
 33 46  1  0
M  ISO  8  35  14  36  14  37  14  38   9  39  14  40  14  41  14  42  14
M  ISO  4  43  14  44  14  45  13  46  13
M  END
>  <minimizedAffinity>  (1) 
-6.95595074

>  <minimizedRMSD>  (1) 
2.0900898

$$$$
