
     RDKit          3D

 45 48  0  0  0  0  0  0  0  0999 V2000
   46.9840   31.7730   48.1990 C   0  0  0  0  0  0  0  0  0  0  0  0
   47.1410   31.1690   46.9220 C   0  0  0  0  0  0  0  0  0  0  0  0
   48.1680   30.2390   46.7720 C   0  0  0  0  0  0  0  0  0  0  0  0
   48.9590   29.9640   47.8550 N   0  0  0  0  0  0  0  0  0  0  0  0
   48.7710   30.5530   49.0240 C   0  0  0  0  0  0  0  0  0  0  0  0
   47.8020   31.4470   49.2030 N   0  0  0  0  0  0  0  0  0  0  0  0
   46.2340   31.5330   45.8320 C   0  0  0  0  0  0  0  0  0  0  0  0
   46.9420   32.5530   44.9660 C   0  0  0  0  0  0  0  0  0  0  0  0
   46.3640   34.4050   43.4650 C   0  0  0  0  0  0  0  0  0  0  0  0
   46.1800   33.7640   44.6780 C   0  0  0  0  0  0  0  0  0  0  0  0
   45.3110   34.2120   45.6250 C   0  0  0  0  0  0  0  0  0  0  0  0
   44.5820   35.3550   45.3670 C   0  0  0  0  0  0  0  0  0  0  0  0
   44.7090   36.0440   44.1930 C   0  0  0  0  0  0  0  0  0  0  0  0
   45.6100   35.5320   43.2730 C   0  0  0  0  0  0  0  0  0  0  0  0
   47.4650   33.8660   42.2280 S   0  0  0  0  0  0  0  0  0  0  0  0
   48.8800   34.3540   42.4510 O   0  0  0  0  0  0  0  0  0  0  0  0
   47.0630   34.5040   40.9060 O   0  0  0  0  0  0  0  0  0  0  0  0
   49.6810   30.1680   50.1600 C   0  0  0  0  0  0  0  0  0  0  0  0
   50.6980   32.4040   49.8010 C   0  0  0  0  0  0  0  0  0  0  0  0
   50.4500   31.3380   50.6400 C   0  0  0  0  0  0  0  0  0  0  0  0
   50.9030   31.3080   51.9610 C   0  0  0  0  0  0  0  0  0  0  0  0
   51.6160   32.4150   52.3730 C   0  0  0  0  0  0  0  0  0  0  0  0
   51.8880   33.5010   51.5680 C   0  0  0  0  0  0  0  0  0  0  0  0
   51.4170   33.4850   50.2650 C   0  0  0  0  0  0  0  0  0  0  0  0
   52.6160   34.4110   52.3090 O   0  0  0  0  0  0  0  0  0  0  0  0
   52.9370   33.8110   53.5490 C   0  0  0  0  0  0  0  0  0  0  0  0
   52.1710   32.6300   53.6280 O   0  0  0  0  0  0  0  0  0  0  0  0
   46.1855   32.5120   48.3610 H   0  0  0  0  0  0  0  0  0  0  0  0
   48.3388   29.7384   45.8075 H   0  0  0  0  0  0  0  0  0  0  0  0
   45.9877   30.6418   45.2360 H   0  0  0  0  0  0  0  0  0  0  0  0
   45.2982   31.9503   46.2323 H   0  0  0  0  0  0  0  0  0  0  0  0
   47.8691   32.8489   45.4787 H   0  0  0  0  0  0  0  0  0  0  0  0
   47.1115   32.0628   43.9960 H   0  0  0  0  0  0  0  0  0  0  0  0
   45.1922   33.6737   46.5769 H   0  0  0  0  0  0  0  0  0  0  0  0
   43.8781   35.7225   46.1282 H   0  0  0  0  0  0  0  0  0  0  0  0
   44.1275   36.9554   43.9897 H   0  0  0  0  0  0  0  0  0  0  0  0
   45.7280   36.0692   42.3204 H   0  0  0  0  0  0  0  0  0  0  0  0
   47.4146   32.4970   42.2423 H   0  0  0  0  0  0  0  0  0  0  0  0
   49.0754   29.7707   50.9879 H   0  0  0  0  0  0  0  0  0  0  0  0
   50.3881   29.4056   49.8012 H   0  0  0  0  0  0  0  0  0  0  0  0
   50.3240   32.3919   48.7666 H   0  0  0  0  0  0  0  0  0  0  0  0
   50.7042   30.4572   52.6293 H   0  0  0  0  0  0  0  0  0  0  0  0
   51.6173   34.3372   49.5989 H   0  0  0  0  0  0  0  0  0  0  0  0
   54.0100   33.5723   53.5901 H   0  0  0  0  0  0  0  0  0  0  0  0
   52.7170   34.4868   54.3886 H   0  0  0  0  0  0  0  0  0  0  0  0
  1  6  2  0
  2  1  1  0
  3  2  2  0
  3  4  1  0
  4  5  2  0
  5  6  1  0
  5 18  1  0
  7  2  1  0
  8  7  1  0
  9 10  2  0
 10  8  1  0
 10 11  1  0
 12 11  2  0
 13 12  1  0
 14  9  1  0
 14 13  2  0
 15 16  2  0
 15  9  1  0
 17 15  2  0
 18 20  1  0
 19 24  2  0
 19 20  1  0
 20 21  2  0
 21 22  1  0
 22 27  1  0
 23 25  1  0
 23 22  2  0
 24 23  1  0
 25 26  1  0
 26 27  1  0
  1 28  1  0
  3 29  1  0
  7 30  1  0
  7 31  1  0
  8 32  1  0
  8 33  1  0
 11 34  1  0
 12 35  1  0
 13 36  1  0
 14 37  1  0
 15 38  1  0
 18 39  1  0
 18 40  1  0
 19 41  1  0
 21 42  1  0
 24 43  1  0
 26 44  1  0
 26 45  1  0
M  ISO  8  28  14  29  14  30   8  31   8  32   8  33   8  34  14  35  14
M  ISO  8  36  14  37  14  38  11  39   8  40   8  41  14  42  14  43  14
M  ISO  2  44  13  45  13
M  END
>  <minimizedAffinity>  (1) 
-6.34863186

>  <minimizedRMSD>  (1) 
2.06573582

$$$$
