
     RDKit          3D

 31 34  0  0  1  0  0  0  0  0999 V2000
   47.6650   31.7620   39.5360 C   0  0  0  0  0  0  0  0  0  0  0  0
   48.6750   32.8180   39.5140 C   0  0  0  0  0  0  0  0  0  0  0  0
   48.2900   33.9540   40.2270 N   0  0  0  0  0  0  0  0  0  0  0  0
   48.4270   35.1440   40.9330 C   0  0  2  0  0  0  0  0  0  0  0  0
   49.1880   36.1390   41.0620 O   0  0  0  0  0  0  0  0  0  0  0  0
   47.1620   34.8770   41.6570 C   0  0  1  0  0  0  0  0  0  0  0  0
   46.8710   34.0920   40.4150 C   0  0  1  0  0  0  0  0  0  0  0  0
   46.4380   32.3370   40.7430 S   0  0  0  0  0  0  0  0  0  0  0  0
   47.4310   34.0440   42.8680 C   0  0  0  0  0  0  0  0  0  0  0  0
   48.4030   33.2270   42.9240 O   0  0  0  0  0  0  0  0  0  0  0  0
   46.4830   34.2820   43.9150 C   0  0  0  0  0  0  0  0  0  0  0  0
   45.5800   35.3280   43.6510 C   0  0  0  0  0  0  0  0  0  0  0  0
   44.6230   35.6140   44.6380 C   0  0  0  0  0  0  0  0  0  0  0  0
   44.6330   34.8640   45.7720 N   0  0  0  0  0  0  0  0  0  0  0  0
   45.5150   33.8710   45.9810 C   0  0  0  0  0  0  0  0  0  0  0  0
   46.4370   33.5860   45.0480 N   0  0  0  0  0  0  0  0  0  0  0  0
   46.9240   31.7600   38.1910 C   0  0  0  0  0  0  0  0  0  0  0  0
   48.1870   30.3830   39.8500 C   0  0  0  0  0  0  0  0  0  0  0  0
   49.6030   32.4250   39.9548 H   0  0  0  0  0  0  0  0  0  0  0  0
   48.8146   33.1188   38.4652 H   0  0  0  0  0  0  0  0  0  0  0  0
   49.3293   36.3238   42.0243 H   0  0  0  0  0  0  0  0  0  0  0  0
   46.4688   35.6213   42.0760 H   0  0  0  0  0  0  0  0  0  0  0  0
   45.6219   35.8978   42.7110 H   0  0  0  0  0  0  0  0  0  0  0  0
   43.8878   36.4201   44.4980 H   0  0  0  0  0  0  0  0  0  0  0  0
   45.4811   33.2925   46.9160 H   0  0  0  0  0  0  0  0  0  0  0  0
   45.8387   31.7571   38.3703 H   0  0  0  0  0  0  0  0  0  0  0  0
   47.1988   32.6589   37.6196 H   0  0  0  0  0  0  0  0  0  0  0  0
   47.2037   30.8626   37.6196 H   0  0  0  0  0  0  0  0  0  0  0  0
   48.2375   30.2496   40.9407 H   0  0  0  0  0  0  0  0  0  0  0  0
   47.5122   29.6286   39.4192 H   0  0  0  0  0  0  0  0  0  0  0  0
   49.1922   30.2645   39.4192 H   0  0  0  0  0  0  0  0  0  0  0  0
  1 18  1  0
  1  8  1  0
  2  1  1  0
  3  2  1  0
  3  7  1  0
  3  4  1  0
  4  5  1  6
  4  6  1  0
  6  9  1  0
  7  8  1  1
  7  4  1  0
  7  6  1  0
  9 10  2  0
  9 11  1  0
 11 16  1  0
 12 11  2  0
 12 13  1  0
 13 14  2  0
 14 15  1  0
 16 15  2  0
 17  1  1  0
  2 19  1  0
  2 20  1  0
  5 21  1  0
  6 22  1  1
 12 23  1  0
 13 24  1  0
 15 25  1  0
 17 26  1  0
 17 27  1  0
 17 28  1  0
 18 29  1  0
 18 30  1  0
 18 31  1  0
M  ISO  8  19  13  20  13  21   3  22  13  23  14  24  14  25  14  26   8
M  ISO  5  27   8  28   8  29   8  30   8  31   8
M  END
>  <minimizedAffinity>  (1) 
-4.79790449

>  <minimizedRMSD>  (1) 
2.41493678

$$$$
