
     RDKit          3D

 31 33  0  0  1  0  0  0  0  0999 V2000
   47.2560   32.9380   44.0970 C   0  0  0  0  0  0  0  0  0  0  0  0
   46.4750   31.6840   43.8040 C   0  0  2  0  0  0  0  0  0  0  0  0
   47.1400   30.7860   42.8030 C   0  0  0  0  0  0  0  0  0  0  0  0
   46.6780   31.1690   41.4940 N   0  0  0  0  0  0  0  0  0  0  0  0
   46.6430   31.5780   40.1210 C   0  0  0  0  0  0  0  0  0  0  0  0
   47.5340   31.5350   39.2300 O   0  0  0  0  0  0  0  0  0  0  0  0
   45.2110   32.0310   40.2170 C   0  0  0  0  0  0  0  0  0  0  0  0
   45.2250   31.1620   41.4490 C   0  0  2  0  0  0  0  0  0  0  0  0
   44.8860   32.0520   43.0010 S   0  0  0  0  0  0  0  0  0  0  0  0
   46.2050   30.9040   45.0470 C   0  0  0  0  0  0  0  0  0  0  0  0
   45.3200   36.0400   43.1960 C   0  0  0  0  0  0  0  0  0  0  0  0
   46.2300   34.9840   43.0940 C   0  0  0  0  0  0  0  0  0  0  0  0
   46.3090   34.0720   44.1570 C   0  0  0  0  0  0  0  0  0  0  0  0
   45.4960   34.2650   45.2270 N   0  0  0  0  0  0  0  0  0  0  0  0
   44.6270   35.2940   45.2990 C   0  0  0  0  0  0  0  0  0  0  0  0
   44.5520   36.1620   44.2870 N   0  0  0  0  0  0  0  0  0  0  0  0
   47.0750   34.8170   41.9370 C   0  0  0  0  0  0  0  0  0  0  0  0
   48.0770   35.5580   41.8350 O   0  0  0  0  0  0  0  0  0  0  0  0
   47.9938   33.1114   43.2997 H   0  0  0  0  0  0  0  0  0  0  0  0
   47.7881   32.8378   45.0545 H   0  0  0  0  0  0  0  0  0  0  0  0
   48.2322   30.9022   42.8633 H   0  0  0  0  0  0  0  0  0  0  0  0
   46.8918   29.7337   43.0058 H   0  0  0  0  0  0  0  0  0  0  0  0
   45.0613   33.1064   40.3930 H   0  0  0  0  0  0  0  0  0  0  0  0
   44.4763   31.9416   39.4032 H   0  0  0  0  0  0  0  0  0  0  0  0
   44.5650   30.2837   41.3947 H   0  0  0  0  0  0  0  0  0  0  0  0
   46.4213   31.5288   45.9262 H   0  0  0  0  0  0  0  0  0  0  0  0
   45.1486   30.5979   45.0656 H   0  0  0  0  0  0  0  0  0  0  0  0
   46.8461   30.0103   45.0656 H   0  0  0  0  0  0  0  0  0  0  0  0
   45.2343   36.7719   42.3794 H   0  0  0  0  0  0  0  0  0  0  0  0
   43.9854   35.4172   46.1840 H   0  0  0  0  0  0  0  0  0  0  0  0
   46.8455   34.0628   41.1698 H   0  0  0  0  0  0  0  0  0  0  0  0
  1 13  1  0
  2  1  1  1
  2 10  1  0
  3  2  1  0
  4  3  1  0
  5  7  1  0
  5  4  1  0
  6  5  2  0
  8  7  1  0
  8  4  1  0
  8  9  1  0
  9  2  1  0
 11 16  2  0
 12 11  1  0
 12 13  2  0
 13 14  1  0
 14 15  2  0
 16 15  1  0
 17 12  1  0
 18 17  2  0
  1 19  1  0
  1 20  1  0
  3 21  1  0
  3 22  1  0
  7 23  1  0
  7 24  1  0
  8 25  1  6
 10 26  1  0
 10 27  1  0
 10 28  1  0
 11 29  1  0
 15 30  1  0
 17 31  1  0
M  ISO  8  19   8  20   8  21  13  22  13  23  13  24  13  25  13  26   8
M  ISO  5  27   8  28   8  29  14  30  14  31   6
M  END
>  <minimizedAffinity>  (1) 
-3.90614748

>  <minimizedRMSD>  (1) 
1.17089021

$$$$
