
     RDKit          3D

 39 42  0  0  1  0  0  0  0  0999 V2000
   47.4110   31.9010   48.1890 O   0  0  0  0  0  0  0  0  0  0  0  0
   45.1950   30.7090   47.5650 O   0  0  0  0  0  0  0  0  0  0  0  0
   45.7660   31.9330   48.3010 P   0  0  1  0  0  0  0  0  0  0  0  0
   45.2230   31.8500   49.8920 O   0  0  0  0  0  0  0  0  0  0  0  0
   45.1400   33.3260   47.5810 O   0  0  0  0  0  0  0  0  0  0  0  0
   46.9120   33.3120   44.4080 C   0  0  0  0  0  0  0  0  0  0  0  0
   46.5140   32.9840   45.7170 C   0  0  0  0  0  0  0  0  0  0  0  0
   45.4880   33.6880   46.2960 C   0  0  0  0  0  0  0  0  0  0  0  0
   44.9100   34.6710   45.5650 N   0  0  0  0  0  0  0  0  0  0  0  0
   45.2800   34.9900   44.3200 C   0  0  0  0  0  0  0  0  0  0  0  0
   46.2860   34.3090   43.7400 N   0  0  0  0  0  0  0  0  0  0  0  0
   48.3520   31.1130   48.7460 C   0  0  0  0  0  0  0  0  0  0  0  0
   49.1290   31.7250   49.5600 O   0  0  0  0  0  0  0  0  0  0  0  0
   52.5040   31.2380   50.2510 C   0  0  0  0  0  0  0  0  0  0  0  0
   52.3840   29.7460   49.8970 C   0  0  0  0  0  0  0  0  0  0  0  0
   51.2000   29.6500   49.0270 N   0  0  0  0  0  0  0  0  0  0  0  0
   50.1710   29.5250   48.0570 C   0  0  0  0  0  0  0  0  0  0  0  0
   50.3960   29.2200   46.8520 O   0  0  0  0  0  0  0  0  0  0  0  0
   49.0730   29.8490   48.9830 C   0  0  1  0  0  0  0  0  0  0  0  0
   50.1260   29.9170   50.0110 C   0  0  2  0  0  0  0  0  0  0  0  0
   50.7080   31.5550   50.5340 S   0  0  2  0  0  0  0  0  0  0  0  0
   53.3060   31.4210   51.4940 C   0  0  0  0  0  0  0  0  0  0  0  0
   53.0120   31.9730   49.0510 C   0  0  0  0  0  0  0  0  0  0  0  0
   45.9887   31.9670   50.5085 H   0  0  0  0  0  0  0  0  0  0  0  0
   47.7319   32.7582   43.9274 H   0  0  0  0  0  0  0  0  0  0  0  0
   47.0174   32.1758   46.2678 H   0  0  0  0  0  0  0  0  0  0  0  0
   44.7688   35.7985   43.7769 H   0  0  0  0  0  0  0  0  0  0  0  0
   47.6647   30.8757   49.5714 H   0  0  0  0  0  0  0  0  0  0  0  0
   53.2830   29.4024   49.3644 H   0  0  0  0  0  0  0  0  0  0  0  0
   52.2872   29.1170   50.7942 H   0  0  0  0  0  0  0  0  0  0  0  0
   48.1760   29.2180   49.0678 H   0  0  0  0  0  0  0  0  0  0  0  0
   49.8483   29.3502   50.9119 H   0  0  0  0  0  0  0  0  0  0  0  0
   50.9001   32.5233   51.4840 H   0  0  0  0  0  0  0  0  0  0  0  0
   52.6601   31.2736   52.3721 H   0  0  0  0  0  0  0  0  0  0  0  0
   54.1247   30.6866   51.5136 H   0  0  0  0  0  0  0  0  0  0  0  0
   53.7251   32.4379   51.5136 H   0  0  0  0  0  0  0  0  0  0  0  0
   53.6095   32.8374   49.3763 H   0  0  0  0  0  0  0  0  0  0  0  0
   53.6389   31.3003   48.4472 H   0  0  0  0  0  0  0  0  0  0  0  0
   52.1612   32.3216   48.4472 H   0  0  0  0  0  0  0  0  0  0  0  0
  1  3  1  0
  3  2  2  0
  3  4  1  0
  5  3  1  0
  6  7  2  0
  7  8  1  0
  8  5  1  0
  9  8  2  0
 10  9  1  0
 11 10  2  0
 11  6  1  0
 12  1  1  0
 12 19  1  0
 12 13  1  0
 14 21  1  0
 14 22  1  0
 15 14  1  0
 16 15  1  0
 17 16  1  0
 18 17  2  0
 19 17  1  0
 19 20  1  0
 20 16  1  0
 20 21  1  0
 21 13  1  0
 23 14  1  0
  4 24  1  0
  6 25  1  0
  7 26  1  0
 10 27  1  0
 12 28  1  0
 15 29  1  0
 15 30  1  0
 19 31  1  1
 20 32  1  1
 21 33  1  1
 22 34  1  0
 22 35  1  0
 22 36  1  0
 23 37  1  0
 23 38  1  0
 23 39  1  0
M  ISO  8  24   3  25  14  26  14  27  14  28  13  29  13  30  13  31  13
M  ISO  8  32  13  33  11  34   8  35   8  36   8  37   8  38   8  39   8
M  END
>  <minimizedAffinity>  (1) 
-5.35742569

>  <minimizedRMSD>  (1) 
0.848511457

$$$$
