
     RDKit          3D

 47 50  0  0  1  0  0  0  0  0999 V2000
   44.8150   35.0530   45.1780 C   0  0  0  0  0  0  0  0  0  0  0  0
   45.7380   34.8230   44.1390 C   0  0  0  0  0  0  0  0  0  0  0  0
   46.6950   33.7980   44.3100 C   0  0  0  0  0  0  0  0  0  0  0  0
   46.6520   33.1070   45.4730 N   0  0  0  0  0  0  0  0  0  0  0  0
   45.7690   33.3490   46.4370 C   0  0  0  0  0  0  0  0  0  0  0  0
   44.8480   34.3170   46.3000 N   0  0  0  0  0  0  0  0  0  0  0  0
   45.6610   35.6220   42.8970 C   0  0  0  0  0  0  0  0  0  0  0  0
   45.1240   36.8280   43.3040 F   0  0  0  0  0  0  0  0  0  0  0  0
   44.6970   35.0050   42.0730 F   0  0  0  0  0  0  0  0  0  0  0  0
   46.8310   35.7480   42.3060 F   0  0  0  0  0  0  0  0  0  0  0  0
   45.7330   32.6390   47.6300 O   0  0  0  0  0  0  0  0  0  0  0  0
   45.2800   31.3230   47.6840 C   0  0  0  0  0  0  0  0  0  0  0  0
   46.4440   30.4470   47.7510 C   0  0  0  0  0  0  0  0  0  0  0  0
   46.6560   29.2130   47.1580 C   0  0  0  0  0  0  0  0  0  0  0  0
   47.8470   28.5940   47.3770 C   0  0  0  0  0  0  0  0  0  0  0  0
   48.8000   29.1340   48.1330 N   0  0  0  0  0  0  0  0  0  0  0  0
   48.5860   30.3270   48.7020 C   0  0  0  0  0  0  0  0  0  0  0  0
   47.4190   31.0000   48.5250 N   0  0  0  0  0  0  0  0  0  0  0  0
   49.7150   30.8410   49.5260 C   0  0  0  0  0  0  0  0  0  0  0  0
   49.7320   32.2130   49.5460 F   0  0  0  0  0  0  0  0  0  0  0  0
   50.9380   30.3830   49.0130 F   0  0  0  0  0  0  0  0  0  0  0  0
   49.6430   30.4140   50.8360 F   0  0  0  0  0  0  0  0  0  0  0  0
   47.7860   33.4860   43.4320 C   0  0  0  0  0  0  0  0  0  0  0  0
   47.5340   32.3080   42.5660 C   0  0  1  0  0  0  0  0  0  0  0  0
   46.6680   32.5700   41.3540 C   0  0  0  0  0  0  0  0  0  0  0  0
   47.4760   32.7710   40.1970 N   0  0  0  0  0  0  0  0  0  0  0  0
   48.0990   33.2710   39.0220 C   0  0  0  0  0  0  0  0  0  0  0  0
   48.0080   34.2150   38.1960 O   0  0  0  0  0  0  0  0  0  0  0  0
   49.1240   32.1970   38.9500 C   0  0  0  0  0  0  0  0  0  0  0  0
   48.3560   31.5960   40.0730 C   0  0  1  0  0  0  0  0  0  0  0  0
   49.1370   31.8220   41.7240 S   0  0  0  0  0  0  0  0  0  0  0  0
   46.9920   31.0620   43.2130 C   0  0  0  0  0  0  0  0  0  0  0  0
   44.0589   35.8444   45.0686 H   0  0  0  0  0  0  0  0  0  0  0  0
   44.6538   31.1803   48.5770 H   0  0  0  0  0  0  0  0  0  0  0  0
   44.6776   31.0899   46.7936 H   0  0  0  0  0  0  0  0  0  0  0  0
   45.8835   28.7474   46.5283 H   0  0  0  0  0  0  0  0  0  0  0  0
   48.0289   27.6132   46.9133 H   0  0  0  0  0  0  0  0  0  0  0  0
   47.9738   34.3574   42.7875 H   0  0  0  0  0  0  0  0  0  0  0  0
   48.6504   33.2406   44.0665 H   0  0  0  0  0  0  0  0  0  0  0  0
   46.0067   31.7067   41.1882 H   0  0  0  0  0  0  0  0  0  0  0  0
   46.0709   33.4764   41.5327 H   0  0  0  0  0  0  0  0  0  0  0  0
   49.1300   31.6132   38.0177 H   0  0  0  0  0  0  0  0  0  0  0  0
   50.2065   32.3884   38.9897 H   0  0  0  0  0  0  0  0  0  0  0  0
   48.0836   30.5455   39.8935 H   0  0  0  0  0  0  0  0  0  0  0  0
   47.0378   31.1673   44.3070 H   0  0  0  0  0  0  0  0  0  0  0  0
   45.9474   30.9123   42.9025 H   0  0  0  0  0  0  0  0  0  0  0  0
   47.5946   30.1957   42.9025 H   0  0  0  0  0  0  0  0  0  0  0  0
  1  6  2  0
  2  3  2  0
  2  1  1  0
  3  4  1  0
  4  5  2  0
  5 11  1  0
  6  5  1  0
  7  8  1  0
  7  2  1  0
  9  7  1  0
 10  7  1  0
 11 12  1  0
 12 13  1  0
 13 18  2  0
 14 15  2  0
 14 13  1  0
 15 16  1  0
 16 17  2  0
 17 19  1  0
 18 17  1  0
 19 20  1  0
 19 22  1  0
 21 19  1  0
 23  3  1  0
 24 32  1  1
 24 23  1  0
 25 24  1  0
 26 25  1  0
 27 26  1  0
 28 27  2  0
 29 27  1  0
 30 29  1  0
 30 26  1  0
 30 31  1  0
 31 24  1  0
  1 33  1  0
 12 34  1  0
 12 35  1  0
 14 36  1  0
 15 37  1  0
 23 38  1  0
 23 39  1  0
 25 40  1  0
 25 41  1  0
 29 42  1  0
 29 43  1  0
 30 44  1  6
 32 45  1  0
 32 46  1  0
 32 47  1  0
M  ISO  8  33  14  34   8  35   8  36  14  37  14  38   8  39   8  40  13
M  ISO  7  41  13  42  13  43  13  44  13  45   8  46   8  47   8
M  END
>  <minimizedAffinity>  (1) 
-6.21791935

>  <minimizedRMSD>  (1) 
1.52141917

$$$$
