
     RDKit          3D

 31 34  0  0  1  0  0  0  0  0999 V2000
   46.8810   32.8470   47.3020 C   0  0  0  0  0  0  0  0  0  0  0  0
   46.7130   31.3700   47.5550 C   0  0  2  0  0  0  0  0  0  0  0  0
   46.8360   31.0530   49.0100 C   0  0  0  0  0  0  0  0  0  0  0  0
   48.1270   30.5170   49.2770 N   0  0  0  0  0  0  0  0  0  0  0  0
   49.4080   30.2530   49.8320 C   0  0  2  0  0  0  0  0  0  0  0  0
   50.0590   30.4790   50.8820 O   0  0  0  0  0  0  0  0  0  0  0  0
   49.8830   29.5000   48.6410 C   0  0  0  0  0  0  0  0  0  0  0  0
   48.4080   29.4730   48.3280 C   0  0  1  0  0  0  0  0  0  0  0  0
   47.9900   30.3570   46.7710 S   0  0  0  0  0  0  0  0  0  0  0  0
   45.3720   30.8420   47.0940 C   0  0  0  0  0  0  0  0  0  0  0  0
   46.8590   33.0870   43.6480 C   0  0  0  0  0  0  0  0  0  0  0  0
   45.7760   33.9200   43.3640 C   0  0  0  0  0  0  0  0  0  0  0  0
   45.0450   34.4030   44.4630 C   0  0  0  0  0  0  0  0  0  0  0  0
   45.4350   34.0340   45.7140 N   0  0  0  0  0  0  0  0  0  0  0  0
   46.4980   33.2200   45.9330 C   0  0  0  0  0  0  0  0  0  0  0  0
   47.1940   32.7590   44.8940 N   0  0  0  0  0  0  0  0  0  0  0  0
   47.5680   32.6250   42.4910 C   0  0  0  0  0  0  0  0  0  0  0  0
   48.8160   32.6420   42.3090 O   0  0  0  0  0  0  0  0  0  0  0  0
   46.2494   33.4025   48.0109 H   0  0  0  0  0  0  0  0  0  0  0  0
   47.9443   33.0950   47.4360 H   0  0  0  0  0  0  0  0  0  0  0  0
   46.6929   31.9718   49.5977 H   0  0  0  0  0  0  0  0  0  0  0  0
   46.0702   30.3137   49.2876 H   0  0  0  0  0  0  0  0  0  0  0  0
   49.4929   30.2825   51.6700 H   0  0  0  0  0  0  0  0  0  0  0  0
   50.5117   30.0647   47.9368 H   0  0  0  0  0  0  0  0  0  0  0  0
   50.5280   28.6099   48.6825 H   0  0  0  0  0  0  0  0  0  0  0  0
   44.7531   30.5983   47.9701 H   0  0  0  0  0  0  0  0  0  0  0  0
   44.8650   31.6076   46.4884 H   0  0  0  0  0  0  0  0  0  0  0  0
   45.5231   29.9362   46.4884 H   0  0  0  0  0  0  0  0  0  0  0  0
   45.5076   34.1855   42.3308 H   0  0  0  0  0  0  0  0  0  0  0  0
   44.1780   35.0638   44.3157 H   0  0  0  0  0  0  0  0  0  0  0  0
   46.9583   32.2113   41.6743 H   0  0  0  0  0  0  0  0  0  0  0  0
  2  1  1  1
  2 10  1  0
  2  3  1  0
  4  3  1  0
  4  5  1  0
  5  6  1  1
  7  5  1  0
  8  9  1  1
  8  7  1  0
  8  4  1  0
  8  5  1  0
  9  2  1  0
 11 16  2  0
 12 11  1  0
 12 13  2  0
 13 14  1  0
 14 15  2  0
 15  1  1  0
 16 15  1  0
 17 11  1  0
 18 17  2  0
  1 19  1  0
  1 20  1  0
  3 21  1  0
  3 22  1  0
  6 23  1  0
  7 24  1  0
  7 25  1  0
 10 26  1  0
 10 27  1  0
 10 28  1  0
 12 29  1  0
 13 30  1  0
 17 31  1  0
M  ISO  8  19   8  20   8  21  13  22  13  23   3  24  13  25  13  26   8
M  ISO  5  27   8  28   8  29  14  30  14  31   6
M  END
>  <minimizedAffinity>  (1) 
-4.06646395

>  <minimizedRMSD>  (1) 
1.98165047

$$$$
