
     RDKit          3D

 46 50  0  0  0  0  0  0  0  0999 V2000
   47.5680   31.7820   39.0090 C   0  0  0  0  0  0  0  0  0  0  0  0
   47.1270   33.0670   38.8970 C   0  0  0  0  0  0  0  0  0  0  0  0
   47.7900   33.9530   38.0630 C   0  0  0  0  0  0  0  0  0  0  0  0
   48.8920   33.5450   37.3490 C   0  0  0  0  0  0  0  0  0  0  0  0
   49.3760   32.2410   37.4350 C   0  0  0  0  0  0  0  0  0  0  0  0
   48.6880   31.3680   38.2830 C   0  0  0  0  0  0  0  0  0  0  0  0
   45.1290   35.4480   43.0180 Cl  0  0  0  0  0  0  0  0  0  0  0  0
   45.0280   34.6610   41.4650 C   0  0  0  0  0  0  0  0  0  0  0  0
   46.1380   34.2010   40.8350 C   0  0  0  0  0  0  0  0  0  0  0  0
   45.9660   33.5930   39.6020 C   0  0  0  0  0  0  0  0  0  0  0  0
   44.7250   33.4590   39.0300 C   0  0  0  0  0  0  0  0  0  0  0  0
   43.6220   33.9230   39.6700 C   0  0  0  0  0  0  0  0  0  0  0  0
   43.7780   34.5310   40.9030 C   0  0  0  0  0  0  0  0  0  0  0  0
   49.4840   35.6350   41.8820 C   0  0  0  0  0  0  0  0  0  0  0  0
   48.2370   35.4820   41.2670 C   0  0  0  0  0  0  0  0  0  0  0  0
   47.4370   34.3690   41.4670 C   0  0  0  0  0  0  0  0  0  0  0  0
   47.9760   33.4690   42.2980 N   0  0  0  0  0  0  0  0  0  0  0  0
   49.1600   33.5940   42.8940 C   0  0  0  0  0  0  0  0  0  0  0  0
   49.9090   34.6690   42.6890 N   0  0  0  0  0  0  0  0  0  0  0  0
   46.8170   30.6650   40.0260 S   0  0  0  0  0  0  0  0  0  0  0  0
   47.1510   29.2310   39.5430 O   0  0  0  0  0  0  0  0  0  0  0  0
   47.5460   30.7570   41.3670 O   0  0  0  0  0  0  0  0  0  0  0  0
   44.1490   30.1080   39.3540 C   0  0  0  0  0  0  0  0  0  0  0  0
   45.1290   30.5080   40.2510 C   0  0  0  0  0  0  0  0  0  0  0  0
   44.4880   30.8500   41.4740 C   0  0  0  0  0  0  0  0  0  0  0  0
   43.1450   30.8120   41.7760 C   0  0  0  0  0  0  0  0  0  0  0  0
   42.4530   31.1100   42.8820 N   0  0  0  0  0  0  0  0  0  0  0  0
   41.1910   30.8840   42.5940 N   0  0  0  0  0  0  0  0  0  0  0  0
   41.0610   30.4480   41.3320 C   0  0  0  0  0  0  0  0  0  0  0  0
   42.3360   30.3940   40.7740 C   0  0  0  0  0  0  0  0  0  0  0  0
   42.7920   30.0250   39.5290 C   0  0  0  0  0  0  0  0  0  0  0  0
   47.4325   34.9892   37.9716 H   0  0  0  0  0  0  0  0  0  0  0  0
   49.4040   34.2654   36.6940 H   0  0  0  0  0  0  0  0  0  0  0  0
   50.2570   31.9143   36.8631 H   0  0  0  0  0  0  0  0  0  0  0  0
   49.0370   30.3294   38.3812 H   0  0  0  0  0  0  0  0  0  0  0  0
   44.6244   32.9732   38.0482 H   0  0  0  0  0  0  0  0  0  0  0  0
   42.6247   33.8179   39.2179 H   0  0  0  0  0  0  0  0  0  0  0  0
   42.8965   34.9135   41.4384 H   0  0  0  0  0  0  0  0  0  0  0  0
   50.0963   36.5310   41.7023 H   0  0  0  0  0  0  0  0  0  0  0  0
   47.8772   36.2774   40.5977 H   0  0  0  0  0  0  0  0  0  0  0  0
   49.5202   32.7983   43.5626 H   0  0  0  0  0  0  0  0  0  0  0  0
   44.5137   29.8151   38.3584 H   0  0  0  0  0  0  0  0  0  0  0  0
   45.1512   31.1888   42.2836 H   0  0  0  0  0  0  0  0  0  0  0  0
   42.8328   31.4481   43.7777 H   0  0  0  0  0  0  0  0  0  0  0  0
   40.1193   30.1817   40.8296 H   0  0  0  0  0  0  0  0  0  0  0  0
   42.1151   29.6872   38.7305 H   0  0  0  0  0  0  0  0  0  0  0  0
  1 20  1  0
  2  1  1  0
  2 10  1  0
  3  2  2  0
  4  5  2  0
  4  3  1  0
  5  6  1  0
  6  1  2  0
  8  7  1  0
  9  8  2  0
  9 16  1  0
 10  9  1  0
 11 10  2  0
 11 12  1  0
 12 13  2  0
 13  8  1  0
 14 19  2  0
 15 16  2  0
 15 14  1  0
 16 17  1  0
 17 18  2  0
 19 18  1  0
 20 24  1  0
 20 22  2  0
 21 20  2  0
 23 31  2  0
 23 24  1  0
 24 25  2  0
 25 26  1  0
 26 27  1  0
 28 27  1  0
 29 28  2  0
 30 29  1  0
 30 26  2  0
 31 30  1  0
  3 32  1  0
  4 33  1  0
  5 34  1  0
  6 35  1  0
 11 36  1  0
 12 37  1  0
 13 38  1  0
 14 39  1  0
 15 40  1  0
 18 41  1  0
 23 42  1  0
 25 43  1  0
 27 44  1  0
 29 45  1  0
 31 46  1  0
M  ISO  8  32  14  33  14  34  14  35  14  36  14  37  14  38  14  39  14
M  ISO  7  40  14  41  14  42  14  43  14  44   9  45  14  46  14
M  END
>  <minimizedAffinity>  (1) 
-5.32642698

>  <minimizedRMSD>  (1) 
1.34262371

$$$$
