
     RDKit          3D

 39 43  0  0  0  0  0  0  0  0999 V2000
   45.2610   33.3130   41.0280 Cl  0  0  0  0  0  0  0  0  0  0  0  0
   46.7430   34.2450   41.0210 C   0  0  0  0  0  0  0  0  0  0  0  0
   47.1210   34.9150   42.1480 C   0  0  0  0  0  0  0  0  0  0  0  0
   48.3050   35.6670   42.1660 C   0  0  0  0  0  0  0  0  0  0  0  0
   49.0360   35.6870   41.0140 C   0  0  0  0  0  0  0  0  0  0  0  0
   48.6390   35.0020   39.8800 C   0  0  0  0  0  0  0  0  0  0  0  0
   47.4910   34.2810   39.8850 C   0  0  0  0  0  0  0  0  0  0  0  0
   45.7580   33.8150   45.3900 C   0  0  0  0  0  0  0  0  0  0  0  0
   44.7440   34.7720   45.6220 C   0  0  0  0  0  0  0  0  0  0  0  0
   44.5470   35.7730   44.6710 C   0  0  0  0  0  0  0  0  0  0  0  0
   45.3380   35.7750   43.5700 N   0  0  0  0  0  0  0  0  0  0  0  0
   46.2930   34.8600   43.3650 C   0  0  0  0  0  0  0  0  0  0  0  0
   46.4990   33.8880   44.2710 N   0  0  0  0  0  0  0  0  0  0  0  0
   47.0470   33.5460   38.7000 C   0  0  0  0  0  0  0  0  0  0  0  0
   45.8330   32.9770   38.5100 N   0  0  0  0  0  0  0  0  0  0  0  0
   45.8320   32.4030   37.2960 C   0  0  0  0  0  0  0  0  0  0  0  0
   47.0480   32.6080   36.7120 N   0  0  0  0  0  0  0  0  0  0  0  0
   47.7680   33.3090   37.5960 N   0  0  0  0  0  0  0  0  0  0  0  0
   48.6340   32.6300   34.8800 C   0  0  0  0  0  0  0  0  0  0  0  0
   47.4530   32.1500   35.4070 C   0  0  0  0  0  0  0  0  0  0  0  0
   46.6210   31.2530   34.7670 C   0  0  0  0  0  0  0  0  0  0  0  0
   46.9770   30.7870   33.5030 C   0  0  0  0  0  0  0  0  0  0  0  0
   46.4600   29.9400   32.5820 N   0  0  0  0  0  0  0  0  0  0  0  0
   47.2700   29.8940   31.5430 N   0  0  0  0  0  0  0  0  0  0  0  0
   48.3380   30.6830   31.7080 C   0  0  0  0  0  0  0  0  0  0  0  0
   48.1580   31.2620   32.9690 C   0  0  0  0  0  0  0  0  0  0  0  0
   48.9990   32.1670   33.6110 C   0  0  0  0  0  0  0  0  0  0  0  0
   48.6282   36.2135   43.0643 H   0  0  0  0  0  0  0  0  0  0  0  0
   49.9707   36.2663   40.9864 H   0  0  0  0  0  0  0  0  0  0  0  0
   49.2569   35.0424   38.9708 H   0  0  0  0  0  0  0  0  0  0  0  0
   45.9399   33.0142   46.1219 H   0  0  0  0  0  0  0  0  0  0  0  0
   44.1253   34.7283   46.5305 H   0  0  0  0  0  0  0  0  0  0  0  0
   43.7709   36.5400   44.8105 H   0  0  0  0  0  0  0  0  0  0  0  0
   44.9894   31.8573   36.8463 H   0  0  0  0  0  0  0  0  0  0  0  0
   49.2610   33.3450   35.4328 H   0  0  0  0  0  0  0  0  0  0  0  0
   45.6921   30.9117   35.2472 H   0  0  0  0  0  0  0  0  0  0  0  0
   45.5778   29.4170   32.6775 H   0  0  0  0  0  0  0  0  0  0  0  0
   49.1718   30.8412   31.0082 H   0  0  0  0  0  0  0  0  0  0  0  0
   49.9281   32.5098   33.1321 H   0  0  0  0  0  0  0  0  0  0  0  0
  2  1  1  0
  2  3  2  0
  3  4  1  0
  3 12  1  0
  5  4  2  0
  6  7  2  0
  6  5  1  0
  7  2  1  0
  8  9  2  0
 10  9  1  0
 11 10  2  0
 12 11  1  0
 12 13  2  0
 13  8  1  0
 14  7  1  0
 15 14  1  0
 16 15  2  0
 17 16  1  0
 17 18  1  0
 18 14  2  0
 19 20  2  0
 20 17  1  0
 21 20  1  0
 22 21  2  0
 23 22  1  0
 24 25  2  0
 24 23  1  0
 25 26  1  0
 26 22  1  0
 26 27  2  0
 27 19  1  0
  4 28  1  0
  5 29  1  0
  6 30  1  0
  8 31  1  0
  9 32  1  0
 10 33  1  0
 16 34  1  0
 19 35  1  0
 21 36  1  0
 23 37  1  0
 25 38  1  0
 27 39  1  0
M  ISO  8  28  14  29  14  30  14  31  14  32  14  33  14  34  14  35  14
M  ISO  4  36  14  37   9  38  14  39  14
M  END
>  <minimizedAffinity>  (1) 
-7.01565504

>  <minimizedRMSD>  (1) 
2.7701993

$$$$
