
     RDKit          3D

 54 57  0  0  0  0  0  0  0  0999 V2000
   46.8410   32.6880   45.0790 O   0  0  0  0  0  0  0  0  0  0  0  0
   46.1620   34.5620   43.6170 C   0  0  0  0  0  0  0  0  0  0  0  0
   46.1620   33.7870   44.7520 C   0  0  0  0  0  0  0  0  0  0  0  0
   45.3280   34.1750   45.7670 C   0  0  0  0  0  0  0  0  0  0  0  0
   44.5550   35.2730   45.6210 N   0  0  0  0  0  0  0  0  0  0  0  0
   44.5550   36.0210   44.5230 C   0  0  0  0  0  0  0  0  0  0  0  0
   45.3610   35.6460   43.5460 N   0  0  0  0  0  0  0  0  0  0  0  0
   47.0040   34.1080   42.5030 C   0  0  0  0  0  0  0  0  0  0  0  0
   48.3900   34.6770   42.5940 C   0  0  0  0  0  0  0  0  0  0  0  0
   48.7090   35.5660   41.4790 C   0  0  0  0  0  0  0  0  0  0  0  0
   48.5020   34.9000   40.1380 C   0  0  0  0  0  0  0  0  0  0  0  0
   47.2620   34.0980   40.0520 C   0  0  0  0  0  0  0  0  0  0  0  0
   46.3320   34.3980   41.2080 C   0  0  0  0  0  0  0  0  0  0  0  0
   47.2900   32.1630   46.2610 C   0  0  0  0  0  0  0  0  0  0  0  0
   47.1710   30.6510   46.3340 C   0  0  0  0  0  0  0  0  0  0  0  0
   46.0420   30.1440   45.5820 N   0  0  0  0  0  0  0  0  0  0  0  0
   44.8160   29.7050   46.7440 S   0  0  0  0  0  0  0  0  0  0  0  0
   43.5970   29.1720   46.0520 O   0  0  0  0  0  0  0  0  0  0  0  0
   44.4720   30.9520   47.5060 O   0  0  0  0  0  0  0  0  0  0  0  0
   45.3870   28.6040   47.8490 O   0  0  0  0  0  0  0  0  0  0  0  0
   44.1690   26.4410   48.0050 C   0  0  0  0  0  0  0  0  0  0  0  0
   45.2730   27.2370   47.7790 C   0  0  0  0  0  0  0  0  0  0  0  0
   46.4740   26.6140   47.4270 C   0  0  0  0  0  0  0  0  0  0  0  0
   46.5030   25.2220   47.3180 C   0  0  0  0  0  0  0  0  0  0  0  0
   47.4870   24.3500   47.0030 N   0  0  0  0  0  0  0  0  0  0  0  0
   47.0370   23.1110   47.0290 N   0  0  0  0  0  0  0  0  0  0  0  0
   45.7350   23.0960   47.3620 C   0  0  0  0  0  0  0  0  0  0  0  0
   45.3870   24.4170   47.5460 C   0  0  0  0  0  0  0  0  0  0  0  0
   44.2240   25.0760   47.8920 C   0  0  0  0  0  0  0  0  0  0  0  0
   45.2878   33.5932   46.6997 H   0  0  0  0  0  0  0  0  0  0  0  0
   43.9142   36.9104   44.4318 H   0  0  0  0  0  0  0  0  0  0  0  0
   47.1298   33.0170   42.5663 H   0  0  0  0  0  0  0  0  0  0  0  0
   48.4765   35.2444   43.5324 H   0  0  0  0  0  0  0  0  0  0  0  0
   49.0975   33.8354   42.5608 H   0  0  0  0  0  0  0  0  0  0  0  0
   48.0613   36.4532   41.5373 H   0  0  0  0  0  0  0  0  0  0  0  0
   49.7716   35.8389   41.5591 H   0  0  0  0  0  0  0  0  0  0  0  0
   48.4630   35.6819   39.3653 H   0  0  0  0  0  0  0  0  0  0  0  0
   49.3423   34.2050   39.9936 H   0  0  0  0  0  0  0  0  0  0  0  0
   46.7480   34.3329   39.1083 H   0  0  0  0  0  0  0  0  0  0  0  0
   47.5338   33.0329   40.0923 H   0  0  0  0  0  0  0  0  0  0  0  0
   46.0468   35.4599   41.1775 H   0  0  0  0  0  0  0  0  0  0  0  0
   45.4376   33.7637   41.1203 H   0  0  0  0  0  0  0  0  0  0  0  0
   48.3486   32.4356   46.3837 H   0  0  0  0  0  0  0  0  0  0  0  0
   46.6582   32.5771   47.0606 H   0  0  0  0  0  0  0  0  0  0  0  0
   48.0920   30.2053   45.9301 H   0  0  0  0  0  0  0  0  0  0  0  0
   47.0174   30.3796   47.3889 H   0  0  0  0  0  0  0  0  0  0  0  0
   45.6839   30.8715   44.9468 H   0  0  0  0  0  0  0  0  0  0  0  0
   42.9341   28.8822   46.7278 H   0  0  0  0  0  0  0  0  0  0  0  0
   44.5224   30.7694   48.4777 H   0  0  0  0  0  0  0  0  0  0  0  0
   43.2167   26.9157   48.2841 H   0  0  0  0  0  0  0  0  0  0  0  0
   47.3797   27.2094   47.2393 H   0  0  0  0  0  0  0  0  0  0  0  0
   48.4551   24.6169   46.7742 H   0  0  0  0  0  0  0  0  0  0  0  0
   45.0843   22.2152   47.4658 H   0  0  0  0  0  0  0  0  0  0  0  0
   43.3142   24.4879   48.0827 H   0  0  0  0  0  0  0  0  0  0  0  0
  1 14  1  0
  2  3  1  0
  3  1  1  0
  3  4  2  0
  5  4  1  0
  6  5  2  0
  7  2  2  0
  7  6  1  0
  8  9  1  0
  8  2  1  0
 10  9  1  0
 11 10  1  0
 12 11  1  0
 12 13  1  0
 13  8  1  0
 14 15  1  0
 16 15  1  0
 16 17  1  0
 17 19  1  0
 17 20  1  0
 18 17  1  0
 22 20  1  0
 22 21  2  0
 23 22  1  0
 24 23  2  0
 24 28  1  0
 25 26  1  0
 25 24  1  0
 26 27  2  0
 27 28  1  0
 28 29  2  0
 29 21  1  0
  4 30  1  0
  6 31  1  0
  8 32  1  0
  9 33  1  0
  9 34  1  0
 10 35  1  0
 10 36  1  0
 11 37  1  0
 11 38  1  0
 12 39  1  0
 12 40  1  0
 13 41  1  0
 13 42  1  0
 14 43  1  0
 14 44  1  0
 15 45  1  0
 15 46  1  0
 16 47  1  0
 18 48  1  0
 19 49  1  0
 21 50  1  0
 23 51  1  0
 25 52  1  0
 27 53  1  0
 29 54  1  0
M  ISO  8  30  14  31  14  32  13  33  13  34  13  35  13  36  13  37  13
M  ISO  8  38  13  39  13  40  13  41  13  42  13  43   8  44   8  45   8
M  ISO  8  46   8  47   5  48   3  49   3  50  14  51  14  52   9  53  14
M  ISO  1  54  14
M  END
>  <minimizedAffinity>  (1) 
-6.02631092

>  <minimizedRMSD>  (1) 
1.12456012

$$$$
