
     RDKit          3D

 46 50  0  0  1  0  0  0  0  0999 V2000
   49.1250   32.7280   42.5010 O   0  0  0  0  0  0  0  0  0  0  0  0
   48.8100   34.2150   42.5460 P   0  0  2  0  0  0  0  0  0  0  0  0
   50.0930   35.1100   43.0730 O   0  0  0  0  0  0  0  0  0  0  0  0
   47.3880   34.3870   43.4450 O   0  0  0  0  0  0  0  0  0  0  0  0
   46.1200   32.3900   44.1350 C   0  0  1  0  0  0  0  0  0  0  0  0
   46.2890   33.4270   45.3180 C   0  0  0  0  0  0  0  0  0  0  0  0
   47.2880   33.2910   44.2840 C   0  0  2  0  0  0  0  0  0  0  0  0
   46.2060   30.9830   44.6270 C   0  0  0  0  0  0  0  0  0  0  0  0
   45.2040   30.2880   44.5210 O   0  0  0  0  0  0  0  0  0  0  0  0
   47.5930   30.2790   46.5230 C   0  0  0  0  0  0  0  0  0  0  0  0
   47.3590   30.3920   45.2050 C   0  0  0  0  0  0  0  0  0  0  0  0
   48.3720   29.8620   44.3380 C   0  0  0  0  0  0  0  0  0  0  0  0
   49.4890   29.2880   44.8410 N   0  0  0  0  0  0  0  0  0  0  0  0
   49.6680   29.2040   46.1830 C   0  0  0  0  0  0  0  0  0  0  0  0
   48.7390   29.6890   46.9920 N   0  0  0  0  0  0  0  0  0  0  0  0
   48.4150   34.5980   40.8970 O   0  0  0  0  0  0  0  0  0  0  0  0
   47.3100   34.1100   40.2400 C   0  0  0  0  0  0  0  0  0  0  0  0
   46.0110   33.9520   40.7100 C   0  0  0  0  0  0  0  0  0  0  0  0
   45.0300   33.4390   39.8820 C   0  0  0  0  0  0  0  0  0  0  0  0
   45.3610   33.0970   38.6140 N   0  0  0  0  0  0  0  0  0  0  0  0
   46.6110   33.2450   38.1520 C   0  0  0  0  0  0  0  0  0  0  0  0
   47.6060   33.7510   38.9500 N   0  0  0  0  0  0  0  0  0  0  0  0
   45.8970   32.3940   35.9210 C   0  0  0  0  0  0  0  0  0  0  0  0
   46.8840   32.8510   36.7710 C   0  0  0  0  0  0  0  0  0  0  0  0
   48.1660   32.9420   36.3200 C   0  0  0  0  0  0  0  0  0  0  0  0
   48.4390   32.5670   34.9990 C   0  0  0  0  0  0  0  0  0  0  0  0
   49.6280   32.5800   34.3560 N   0  0  0  0  0  0  0  0  0  0  0  0
   49.4330   32.1440   33.1190 N   0  0  0  0  0  0  0  0  0  0  0  0
   48.1260   31.8510   32.9590 C   0  0  0  0  0  0  0  0  0  0  0  0
   47.4610   32.1090   34.1400 C   0  0  0  0  0  0  0  0  0  0  0  0
   46.1710   32.0220   34.6120 C   0  0  0  0  0  0  0  0  0  0  0  0
   50.1051   35.1184   44.0629 H   0  0  0  0  0  0  0  0  0  0  0  0
   45.4434   32.1621   43.2982 H   0  0  0  0  0  0  0  0  0  0  0  0
   45.6558   34.3254   45.3622 H   0  0  0  0  0  0  0  0  0  0  0  0
   46.2818   33.3752   46.4168 H   0  0  0  0  0  0  0  0  0  0  0  0
   48.3671   33.0775   44.2769 H   0  0  0  0  0  0  0  0  0  0  0  0
   46.8527   30.6663   47.2385 H   0  0  0  0  0  0  0  0  0  0  0  0
   48.2383   29.9233   43.2479 H   0  0  0  0  0  0  0  0  0  0  0  0
   50.5753   28.7379   46.5947 H   0  0  0  0  0  0  0  0  0  0  0  0
   45.7632   34.2360   41.7434 H   0  0  0  0  0  0  0  0  0  0  0  0
   44.0000   33.3110   40.2462 H   0  0  0  0  0  0  0  0  0  0  0  0
   44.8638   32.3226   36.2916 H   0  0  0  0  0  0  0  0  0  0  0  0
   48.9694   33.3023   36.9793 H   0  0  0  0  0  0  0  0  0  0  0  0
   50.5289   32.8770   34.7572 H   0  0  0  0  0  0  0  0  0  0  0  0
   47.6651   31.4684   32.0364 H   0  0  0  0  0  0  0  0  0  0  0  0
   45.3641   31.6608   33.9575 H   0  0  0  0  0  0  0  0  0  0  0  0
  2  1  2  0
  2  3  1  0
  2  4  1  0
  4  7  1  0
  5  7  1  0
  5  8  1  0
  5  6  1  0
  7  6  1  0
  8 11  1  0
  9  8  2  0
 10 15  2  0
 11 10  1  0
 12 13  1  0
 12 11  2  0
 13 14  2  0
 14 15  1  0
 16  2  1  0
 17 18  2  0
 17 16  1  0
 19 18  1  0
 20 19  2  0
 21 20  1  0
 21 22  2  0
 22 17  1  0
 23 24  2  0
 24 21  1  0
 25 24  1  0
 26 25  2  0
 27 26  1  0
 28 27  1  0
 29 28  2  0
 29 30  1  0
 30 31  2  0
 30 26  1  0
 31 23  1  0
  3 32  1  0
  5 33  1  6
  6 34  1  0
  6 35  1  0
  7 36  1  1
 10 37  1  0
 12 38  1  0
 14 39  1  0
 18 40  1  0
 19 41  1  0
 23 42  1  0
 25 43  1  0
 27 44  1  0
 29 45  1  0
 31 46  1  0
M  ISO  8  32   3  33  13  34  13  35  13  36  13  37  14  38  14  39  14
M  ISO  7  40  14  41  14  42  14  43  14  44   9  45  14  46  14
M  END
>  <minimizedAffinity>  (1) 
-5.83399534

>  <minimizedRMSD>  (1) 
7.40216398

$$$$
