
     RDKit          3D

 53 56  0  0  1  0  0  0  0  0999 V2000
   46.7790   34.3670   43.4850 N   0  0  0  0  0  0  0  0  0  0  0  0
   46.4890   34.9600   42.2360 C   0  0  0  0  0  0  0  0  0  0  0  0
   45.0160   34.9600   41.8580 C   0  0  0  0  0  0  0  0  0  0  0  0
   44.0930   35.1360   43.0370 C   0  0  0  0  0  0  0  0  0  0  0  0
   44.8640   35.3500   44.3300 C   0  0  0  0  0  0  0  0  0  0  0  0
   45.7950   34.0720   44.3970 C   0  0  2  0  0  0  0  0  0  0  0  0
   47.9900   33.5820   43.5020 C   0  0  0  0  0  0  0  0  0  0  0  0
   47.7470   32.3350   42.7350 C   0  0  0  0  0  0  0  0  0  0  0  0
   51.2420   32.1050   41.3600 C   0  0  0  0  0  0  0  0  0  0  0  0
   50.1570   32.3260   42.2260 C   0  0  0  0  0  0  0  0  0  0  0  0
   48.8820   32.0940   41.8030 C   0  0  0  0  0  0  0  0  0  0  0  0
   48.7140   31.6530   40.5460 N   0  0  0  0  0  0  0  0  0  0  0  0
   49.7430   31.4390   39.7140 C   0  0  0  0  0  0  0  0  0  0  0  0
   51.0100   31.6600   40.1040 N   0  0  0  0  0  0  0  0  0  0  0  0
   46.2290   34.1390   45.7060 O   0  0  0  0  0  0  0  0  0  0  0  0
   45.5910   31.5570   45.6000 O   0  0  0  0  0  0  0  0  0  0  0  0
   46.0620   32.6900   46.5250 P   0  0  2  0  0  0  0  0  0  0  0  0
   44.7470   32.9180   47.6090 O   0  0  0  0  0  0  0  0  0  0  0  0
   47.3920   32.2630   47.4350 O   0  0  0  0  0  0  0  0  0  0  0  0
   47.6560   30.9200   47.2400 C   0  0  0  0  0  0  0  0  0  0  0  0
   49.0830   29.1310   48.3040 C   0  0  0  0  0  0  0  0  0  0  0  0
   48.6040   30.4370   48.2790 C   0  0  0  0  0  0  0  0  0  0  0  0
   48.9990   31.3700   49.2430 C   0  0  0  0  0  0  0  0  0  0  0  0
   49.8800   30.9620   50.2280 C   0  0  0  0  0  0  0  0  0  0  0  0
   50.4340   31.6250   51.2790 N   0  0  0  0  0  0  0  0  0  0  0  0
   51.2220   30.7910   51.9390 N   0  0  0  0  0  0  0  0  0  0  0  0
   51.2090   29.5740   51.3500 C   0  0  0  0  0  0  0  0  0  0  0  0
   50.3580   29.6570   50.2530 C   0  0  0  0  0  0  0  0  0  0  0  0
   49.9730   28.7340   49.3060 C   0  0  0  0  0  0  0  0  0  0  0  0
   46.8354   36.0037   42.2638 H   0  0  0  0  0  0  0  0  0  0  0  0
   47.0039   34.3525   41.4772 H   0  0  0  0  0  0  0  0  0  0  0  0
   44.8380   35.7832   41.1505 H   0  0  0  0  0  0  0  0  0  0  0  0
   44.7948   33.9766   41.4177 H   0  0  0  0  0  0  0  0  0  0  0  0
   43.4488   36.0094   42.8577 H   0  0  0  0  0  0  0  0  0  0  0  0
   43.4948   34.2190   43.1431 H   0  0  0  0  0  0  0  0  0  0  0  0
   45.4605   36.2733   44.2877 H   0  0  0  0  0  0  0  0  0  0  0  0
   44.2151   35.4634   45.2109 H   0  0  0  0  0  0  0  0  0  0  0  0
   45.3839   33.0768   44.1722 H   0  0  0  0  0  0  0  0  0  0  0  0
   48.8088   34.1510   43.0374 H   0  0  0  0  0  0  0  0  0  0  0  0
   48.2715   33.3414   44.5378 H   0  0  0  0  0  0  0  0  0  0  0  0
   47.6587   31.4880   43.4313 H   0  0  0  0  0  0  0  0  0  0  0  0
   46.8156   32.4359   42.1586 H   0  0  0  0  0  0  0  0  0  0  0  0
   52.2709   32.2924   41.7009 H   0  0  0  0  0  0  0  0  0  0  0  0
   50.3375   32.6876   43.2491 H   0  0  0  0  0  0  0  0  0  0  0  0
   49.5470   31.0762   38.6942 H   0  0  0  0  0  0  0  0  0  0  0  0
   45.0744   32.8612   48.5416 H   0  0  0  0  0  0  0  0  0  0  0  0
   46.7178   30.3497   47.3082 H   0  0  0  0  0  0  0  0  0  0  0  0
   48.1042   30.7786   46.2455 H   0  0  0  0  0  0  0  0  0  0  0  0
   48.7617   28.4118   47.5362 H   0  0  0  0  0  0  0  0  0  0  0  0
   48.6187   32.4019   49.2185 H   0  0  0  0  0  0  0  0  0  0  0  0
   50.2678   32.6123   51.5210 H   0  0  0  0  0  0  0  0  0  0  0  0
   51.7672   28.6844   51.6773 H   0  0  0  0  0  0  0  0  0  0  0  0
   50.3585   27.7042   49.3376 H   0  0  0  0  0  0  0  0  0  0  0  0
  1  7  1  0
  1  6  1  0
  2  1  1  0
  3  2  1  0
  3  4  1  0
  4  5  1  0
  5  6  1  0
  6 15  1  0
  8  7  1  0
  9 10  2  0
 11 10  1  0
 11  8  1  0
 12 11  2  0
 13 14  2  0
 13 12  1  0
 14  9  1  0
 15 17  1  0
 17 16  2  0
 17 19  1  0
 17 18  1  0
 20 19  1  0
 20 22  1  0
 21 29  2  0
 22 21  1  0
 22 23  2  0
 23 24  1  0
 24 28  2  0
 24 25  1  0
 25 26  1  0
 27 26  2  0
 28 27  1  0
 29 28  1  0
  2 30  1  0
  2 31  1  0
  3 32  1  0
  3 33  1  0
  4 34  1  0
  4 35  1  0
  5 36  1  0
  5 37  1  0
  6 38  1  6
  7 39  1  0
  7 40  1  0
  8 41  1  0
  8 42  1  0
  9 43  1  0
 10 44  1  0
 13 45  1  0
 18 46  1  0
 20 47  1  0
 20 48  1  0
 21 49  1  0
 23 50  1  0
 25 51  1  0
 27 52  1  0
 29 53  1  0
M  ISO  8  30  13  31  13  32  13  33  13  34  13  35  13  36  13  37  13
M  ISO  8  38  13  39   8  40   8  41   8  42   8  43  14  44  14  45  14
M  ISO  8  46   3  47   8  48   8  49  14  50  14  51   9  52  14  53  14
M  END
>  <minimizedAffinity>  (1) 
-5.75376177

>  <minimizedRMSD>  (1) 
3.27709222

$$$$
