
     RDKit          3D

 43 46  0  0  0  0  0  0  0  0999 V2000
   45.8050   29.9960   45.8560 C   0  0  0  0  0  0  0  0  0  0  0  0
   45.1660   29.7520   47.0450 C   0  0  0  0  0  0  0  0  0  0  0  0
   45.3060   28.6180   47.7760 C   0  0  0  0  0  0  0  0  0  0  0  0
   46.1320   27.6560   47.3060 C   0  0  0  0  0  0  0  0  0  0  0  0
   46.8110   27.8590   46.0930 C   0  0  0  0  0  0  0  0  0  0  0  0
   46.6390   29.0260   45.3840 C   0  0  0  0  0  0  0  0  0  0  0  0
   47.2330   25.5380   47.9290 C   0  0  0  0  0  0  0  0  0  0  0  0
   46.2480   26.4390   48.1440 C   0  0  0  0  0  0  0  0  0  0  0  0
   45.3270   26.2160   49.1650 C   0  0  0  0  0  0  0  0  0  0  0  0
   45.5060   25.0590   49.8910 C   0  0  0  0  0  0  0  0  0  0  0  0
   44.7300   24.6350   50.9300 N   0  0  0  0  0  0  0  0  0  0  0  0
   45.2370   23.4840   51.3480 N   0  0  0  0  0  0  0  0  0  0  0  0
   46.3190   23.1380   50.6200 C   0  0  0  0  0  0  0  0  0  0  0  0
   46.5070   24.1340   49.6810 C   0  0  0  0  0  0  0  0  0  0  0  0
   47.4210   24.3790   48.6500 C   0  0  0  0  0  0  0  0  0  0  0  0
   48.8700   29.1130   44.4390 C   0  0  0  0  0  0  0  0  0  0  0  0
   49.6770   29.4350   45.3790 O   0  0  0  0  0  0  0  0  0  0  0  0
   47.4710   28.8920   44.2290 N   0  0  0  0  0  0  0  0  0  0  0  0
   45.7280   31.1600   44.9660 C   0  0  0  0  0  0  0  0  0  0  0  0
   46.5500   32.3070   45.4980 C   0  0  0  0  0  0  0  0  0  0  0  0
   44.6100   35.4070   45.3750 C   0  0  0  0  0  0  0  0  0  0  0  0
   44.8690   35.8930   44.0760 C   0  0  0  0  0  0  0  0  0  0  0  0
   45.7120   35.1230   43.2890 C   0  0  0  0  0  0  0  0  0  0  0  0
   46.2350   33.9800   43.7760 N   0  0  0  0  0  0  0  0  0  0  0  0
   45.9500   33.5710   45.0250 C   0  0  0  0  0  0  0  0  0  0  0  0
   45.1540   34.2580   45.8260 N   0  0  0  0  0  0  0  0  0  0  0  0
   44.4928   30.5306   47.4329 H   0  0  0  0  0  0  0  0  0  0  0  0
   44.7634   28.4848   48.7236 H   0  0  0  0  0  0  0  0  0  0  0  0
   47.4848   27.0798   45.7072 H   0  0  0  0  0  0  0  0  0  0  0  0
   47.9408   25.7470   47.1133 H   0  0  0  0  0  0  0  0  0  0  0  0
   44.5085   26.9193   49.3781 H   0  0  0  0  0  0  0  0  0  0  0  0
   43.9063   25.1179   51.3163 H   0  0  0  0  0  0  0  0  0  0  0  0
   46.9341   22.2353   50.7494 H   0  0  0  0  0  0  0  0  0  0  0  0
   48.2444   23.6844   48.4274 H   0  0  0  0  0  0  0  0  0  0  0  0
   49.4233   28.9579   43.5010 H   0  0  0  0  0  0  0  0  0  0  0  0
   47.0879   28.6515   43.3036 H   0  0  0  0  0  0  0  0  0  0  0  0
   44.6786   31.4789   44.8820 H   0  0  0  0  0  0  0  0  0  0  0  0
   46.1255   30.8731   43.9813 H   0  0  0  0  0  0  0  0  0  0  0  0
   46.5503   32.2849   46.5978 H   0  0  0  0  0  0  0  0  0  0  0  0
   47.5874   32.2251   45.1415 H   0  0  0  0  0  0  0  0  0  0  0  0
   43.9461   35.9809   46.0383 H   0  0  0  0  0  0  0  0  0  0  0  0
   44.4268   36.8306   43.7080 H   0  0  0  0  0  0  0  0  0  0  0  0
   45.9543   35.4454   42.2656 H   0  0  0  0  0  0  0  0  0  0  0  0
  1  2  2  0
  2  3  1  0
  4  3  2  0
  4  8  1  0
  5  4  1  0
  6  1  1  0
  6  5  2  0
  7  8  2  0
  7 15  1  0
  8  9  1  0
  9 10  2  0
 10 11  1  0
 11 12  1  0
 13 12  2  0
 14 10  1  0
 14 13  1  0
 15 14  2  0
 16 17  2  0
 18 16  1  0
 18  6  1  0
 19 20  1  0
 19  1  1  0
 21 26  2  0
 22 21  1  0
 23 24  1  0
 23 22  2  0
 24 25  2  0
 25 20  1  0
 25 26  1  0
  2 27  1  0
  3 28  1  0
  5 29  1  0
  7 30  1  0
  9 31  1  0
 11 32  1  0
 13 33  1  0
 15 34  1  0
 16 35  1  0
 18 36  1  0
 19 37  1  0
 19 38  1  0
 20 39  1  0
 20 40  1  0
 21 41  1  0
 22 42  1  0
 23 43  1  0
M  ISO  8  27  14  28  14  29  14  30  14  31  14  32   9  33  14  34  14
M  ISO  8  35   6  37   8  38   8  39   8  40   8  41  14  42  14  43  14
M  END
>  <minimizedAffinity>  (1) 
-5.03605127

>  <minimizedRMSD>  (1) 
3.38199162

$$$$
