
     RDKit          3D

 56 61  0  0  1  0  0  0  0  0999 V2000
   48.2860   32.2290   38.5720 C   0  0  0  0  0  0  0  0  0  0  0  0
   48.3930   33.5970   38.5170 C   0  0  0  0  0  0  0  0  0  0  0  0
   48.5160   34.3290   37.3550 C   0  0  0  0  0  0  0  0  0  0  0  0
   48.5240   33.5430   36.1890 C   0  0  0  0  0  0  0  0  0  0  0  0
   48.4170   32.1430   36.2270 C   0  0  0  0  0  0  0  0  0  0  0  0
   48.2990   31.5050   37.4150 N   0  0  0  0  0  0  0  0  0  0  0  0
   48.4220   31.3790   34.9830 C   0  0  1  0  0  0  0  0  0  0  0  0
   47.1350   31.6610   34.1430 C   0  0  0  0  0  0  0  0  0  0  0  0
   47.1370   30.4870   33.1310 C   0  0  0  0  0  0  0  0  0  0  0  0
   48.2530   30.8420   32.1510 C   0  0  0  0  0  0  0  0  0  0  0  0
   49.5700   30.9510   32.8140 C   0  0  0  0  0  0  0  0  0  0  0  0
   49.6240   31.4890   34.1860 C   0  0  2  0  0  0  0  0  0  0  0  0
   50.9540   30.5860   35.0580 S   0  0  0  0  0  0  0  0  0  0  0  0
   48.9450   30.2570   41.5670 C   0  0  0  0  0  0  0  0  0  0  0  0
   47.7580   30.2650   42.2650 C   0  0  0  0  0  0  0  0  0  0  0  0
   46.7270   30.9680   41.6750 C   0  0  0  0  0  0  0  0  0  0  0  0
   46.9570   31.5860   40.4760 N   0  0  0  0  0  0  0  0  0  0  0  0
   48.1450   31.5440   39.8370 C   0  0  0  0  0  0  0  0  0  0  0  0
   49.1190   30.8830   40.3890 N   0  0  0  0  0  0  0  0  0  0  0  0
   45.3980   31.0090   42.3840 C   0  0  0  0  0  0  0  0  0  0  0  0
   44.9600   32.4050   42.5850 C   0  0  0  0  0  0  0  0  0  0  0  0
   45.2110   33.0830   43.6680 C   0  0  0  0  0  0  0  0  0  0  0  0
   44.7880   34.4250   43.8440 N   0  0  0  0  0  0  0  0  0  0  0  0
   44.6870   35.6100   44.6350 C   0  0  1  0  0  0  0  0  0  0  0  0
   44.4930   35.7690   45.8750 O   0  0  0  0  0  0  0  0  0  0  0  0
   44.9120   36.3590   43.3440 C   0  0  0  0  0  0  0  0  0  0  0  0
   44.0760   35.2190   42.8590 C   0  0  2  0  0  0  0  0  0  0  0  0
   44.5670   34.6570   41.1930 S   0  0  0  0  0  0  0  0  0  0  0  0
   44.2240   32.8640   41.4130 C   0  0  0  0  0  0  0  0  0  0  0  0
   45.9630   32.5470   44.8280 C   0  0  0  0  0  0  0  0  0  0  0  0
   47.1620   32.4360   45.1660 O   0  0  0  0  0  0  0  0  0  0  0  0
   45.3860   31.9760   45.9370 O   0  0  0  0  0  0  0  0  0  0  0  0
   48.3796   34.1486   39.4686 H   0  0  0  0  0  0  0  0  0  0  0  0
   48.6000   35.4257   37.3414 H   0  0  0  0  0  0  0  0  0  0  0  0
   48.6173   34.0419   35.2131 H   0  0  0  0  0  0  0  0  0  0  0  0
   48.4167   30.3263   35.3022 H   0  0  0  0  0  0  0  0  0  0  0  0
   46.2347   31.6408   34.7747 H   0  0  0  0  0  0  0  0  0  0  0  0
   47.1283   32.6527   33.6671 H   0  0  0  0  0  0  0  0  0  0  0  0
   47.3510   29.5346   33.6382 H   0  0  0  0  0  0  0  0  0  0  0  0
   46.1644   30.3564   32.6340 H   0  0  0  0  0  0  0  0  0  0  0  0
   48.0146   31.8060   31.6778 H   0  0  0  0  0  0  0  0  0  0  0  0
   48.3170   30.0338   31.4076 H   0  0  0  0  0  0  0  0  0  0  0  0
   50.0032   29.9403   32.8441 H   0  0  0  0  0  0  0  0  0  0  0  0
   50.1144   31.6933   32.2118 H   0  0  0  0  0  0  0  0  0  0  0  0
   49.7866   32.5711   34.0732 H   0  0  0  0  0  0  0  0  0  0  0  0
   50.7766   30.7065   36.4111 H   0  0  0  0  0  0  0  0  0  0  0  0
   49.7970   29.7091   41.9958 H   0  0  0  0  0  0  0  0  0  0  0  0
   47.6394   29.7462   43.2277 H   0  0  0  0  0  0  0  0  0  0  0  0
   44.6485   30.4784   41.7784 H   0  0  0  0  0  0  0  0  0  0  0  0
   45.5045   30.5254   43.3662 H   0  0  0  0  0  0  0  0  0  0  0  0
   45.1500   35.2306   46.3835 H   0  0  0  0  0  0  0  0  0  0  0  0
   44.4610   37.3599   43.2747 H   0  0  0  0  0  0  0  0  0  0  0  0
   45.8872   36.6634   42.9361 H   0  0  0  0  0  0  0  0  0  0  0  0
   43.1459   32.7059   41.5637 H   0  0  0  0  0  0  0  0  0  0  0  0
   44.5378   32.3026   40.5206 H   0  0  0  0  0  0  0  0  0  0  0  0
   45.9556   31.6398   46.6737 H   0  0  0  0  0  0  0  0  0  0  0  0
  1 18  1  0
  2  1  2  0
  3  2  1  0
  4  5  1  0
  4  3  2  0
  5  6  2  0
  6  1  1  0
  7  5  1  0
  8  7  1  0
  9  8  1  0
 10 11  1  0
 10  9  1  0
 11 12  1  0
 12  7  1  0
 12 13  1  0
 14 15  2  0
 16 15  1  0
 16 20  1  0
 17 16  2  0
 18 19  2  0
 18 17  1  0
 19 14  1  0
 20 21  1  0
 21 22  2  0
 22 23  1  0
 22 30  1  0
 23 24  1  0
 24 25  1  1
 26 24  1  0
 27 28  1  1
 27 26  1  0
 27 23  1  0
 27 24  1  0
 28 29  1  0
 29 21  1  0
 30 31  2  0
 30 32  1  0
  2 33  1  0
  3 34  1  0
  4 35  1  0
  7 36  1  1
  8 37  1  0
  8 38  1  0
  9 39  1  0
  9 40  1  0
 10 41  1  0
 10 42  1  0
 11 43  1  0
 11 44  1  0
 12 45  1  6
 13 46  1  0
 14 47  1  0
 15 48  1  0
 20 49  1  0
 20 50  1  0
 25 51  1  0
 26 52  1  0
 26 53  1  0
 29 54  1  0
 29 55  1  0
 32 56  1  0
M  ISO  8  33  14  34  14  35  14  36  13  37  13  38  13  39  13  40  13
M  ISO  8  41  13  42  13  43  13  44  13  45  13  46  11  47  14  48  14
M  ISO  8  49   8  50   8  51   3  52  13  53  13  54  13  55  13  56   3
M  END
>  <minimizedAffinity>  (1) 
-5.77997112

>  <minimizedRMSD>  (1) 
5.64935684

$$$$
