
     RDKit          3D

 49 53  0  0  1  0  0  0  0  0999 V2000
   44.9700   34.5370   42.2800 C   0  0  0  0  0  0  0  0  0  0  0  0
   46.2100   35.1070   42.5740 C   0  0  0  0  0  0  0  0  0  0  0  0
   47.1710   34.3120   43.2120 C   0  0  0  0  0  0  0  0  0  0  0  0
   46.8430   33.0210   43.5140 N   0  0  0  0  0  0  0  0  0  0  0  0
   45.6410   32.4950   43.2200 C   0  0  0  0  0  0  0  0  0  0  0  0
   44.7280   33.2590   42.6100 N   0  0  0  0  0  0  0  0  0  0  0  0
   45.3910   31.1140   43.5800 C   0  0  0  0  0  0  0  0  0  0  0  0
   45.3200   30.8310   44.8010 O   0  0  0  0  0  0  0  0  0  0  0  0
   41.6440   28.8200   44.2340 C   0  0  0  0  0  0  0  0  0  0  0  0
   42.8860   28.4540   44.3240 C   0  0  0  0  0  0  0  0  0  0  0  0
   43.9810   28.7690   43.4830 N   0  0  0  0  0  0  0  0  0  0  0  0
   45.3240   28.6990   43.1190 C   0  0  2  0  0  0  0  0  0  0  0  0
   46.2240   27.8140   43.2470 O   0  0  0  0  0  0  0  0  0  0  0  0
   45.2280   30.0630   42.5420 C   0  0  1  0  0  0  0  0  0  0  0  0
   43.8100   29.6000   42.3250 C   0  0  1  0  0  0  0  0  0  0  0  0
   42.5320   30.8120   42.6320 S   0  0  0  0  0  0  0  0  0  0  0  0
   41.1810   29.6830   43.1530 C   0  0  0  0  0  0  0  0  0  0  0  0
   40.7790   28.2980   45.2910 C   0  0  0  0  0  0  0  0  0  0  0  0
   43.2180   27.5940   45.4500 C   0  0  0  0  0  0  0  0  0  0  0  0
   43.7310   26.4390   45.3610 O   0  0  0  0  0  0  0  0  0  0  0  0
   43.4420   26.9700   46.6620 O   0  0  0  0  0  0  0  0  0  0  0  0
   43.7800   35.5970   41.4670 S   0  0  0  0  0  0  0  0  0  0  0  0
   42.1230   34.9200   41.4850 C   0  0  0  0  0  0  0  0  0  0  0  0
   41.0880   35.8400   40.9160 C   0  0  0  0  0  0  0  0  0  0  0  0
   42.0460   36.0380   38.0410 Cl  0  0  0  0  0  0  0  0  0  0  0  0
   40.6130   35.1810   38.5490 C   0  0  0  0  0  0  0  0  0  0  0  0
   40.2570   35.1500   39.9110 C   0  0  0  0  0  0  0  0  0  0  0  0
   39.1210   34.4570   40.2210 C   0  0  0  0  0  0  0  0  0  0  0  0
   38.2890   33.7850   39.3320 C   0  0  0  0  0  0  0  0  0  0  0  0
   38.6680   33.8340   37.9970 C   0  0  0  0  0  0  0  0  0  0  0  0
   37.6770   33.0120   36.7940 Cl  0  0  0  0  0  0  0  0  0  0  0  0
   39.8070   34.5190   37.6250 C   0  0  0  0  0  0  0  0  0  0  0  0
   46.4268   36.1530   42.3116 H   0  0  0  0  0  0  0  0  0  0  0  0
   48.1627   34.7165   43.4629 H   0  0  0  0  0  0  0  0  0  0  0  0
   46.3909   27.6498   44.2089 H   0  0  0  0  0  0  0  0  0  0  0  0
   45.8659   30.4950   41.7568 H   0  0  0  0  0  0  0  0  0  0  0  0
   40.3237   30.2771   43.5024 H   0  0  0  0  0  0  0  0  0  0  0  0
   40.8787   29.0611   42.2975 H   0  0  0  0  0  0  0  0  0  0  0  0
   41.2040   28.5545   46.2726 H   0  0  0  0  0  0  0  0  0  0  0  0
   39.7771   28.7424   45.1978 H   0  0  0  0  0  0  0  0  0  0  0  0
   40.7052   27.2044   45.1978 H   0  0  0  0  0  0  0  0  0  0  0  0
   43.8413   26.0644   46.6862 H   0  0  0  0  0  0  0  0  0  0  0  0
   42.1218   33.9905   40.8968 H   0  0  0  0  0  0  0  0  0  0  0  0
   41.8572   34.7517   42.5390 H   0  0  0  0  0  0  0  0  0  0  0  0
   40.4417   36.2005   41.7299 H   0  0  0  0  0  0  0  0  0  0  0  0
   41.6004   36.6814   40.4267 H   0  0  0  0  0  0  0  0  0  0  0  0
   38.8351   34.4276   41.2828 H   0  0  0  0  0  0  0  0  0  0  0  0
   37.3881   33.2488   39.6651 H   0  0  0  0  0  0  0  0  0  0  0  0
   40.0884   34.5432   36.5619 H   0  0  0  0  0  0  0  0  0  0  0  0
  1  2  2  0
  1  6  1  0
  2  3  1  0
  3  4  2  0
  5  4  1  0
  5  7  1  0
  6  5  2  0
  7  8  2  0
  9 10  2  0
  9 18  1  0
 10 19  1  0
 11 10  1  0
 12 13  1  6
 12 11  1  0
 14 12  1  0
 14  7  1  0
 15 14  1  0
 15 16  1  1
 15 12  1  0
 15 11  1  0
 16 17  1  0
 17  9  1  0
 19 21  1  0
 20 19  2  0
 22 23  1  0
 22  1  1  0
 24 23  1  0
 25 26  1  0
 26 27  2  0
 27 28  1  0
 27 24  1  0
 29 28  2  0
 30 29  1  0
 31 30  1  0
 32 30  2  0
 32 26  1  0
  2 33  1  0
  3 34  1  0
 13 35  1  0
 14 36  1  6
 17 37  1  0
 17 38  1  0
 18 39  1  0
 18 40  1  0
 18 41  1  0
 21 42  1  0
 23 43  1  0
 23 44  1  0
 24 45  1  0
 24 46  1  0
 28 47  1  0
 29 48  1  0
 32 49  1  0
M  ISO  8  33  14  34  14  35   3  36  13  37  13  38  13  39   8  40   8
M  ISO  8  41   8  42   3  43   8  44   8  45   8  46   8  47  14  48  14
M  ISO  1  49  14
M  END
>  <minimizedAffinity>  (1) 
-5.87025595

>  <minimizedRMSD>  (1) 
4.14981556

$$$$
