
     RDKit          3D

 51 55  0  0  1  0  0  0  0  0999 V2000
   44.5600   35.4700   44.6440 C   0  0  0  0  0  0  0  0  0  0  0  0
   45.2640   35.4470   43.4020 C   0  0  0  0  0  0  0  0  0  0  0  0
   46.3740   34.5850   43.3220 C   0  0  0  0  0  0  0  0  0  0  0  0
   46.6930   33.8450   44.4160 N   0  0  0  0  0  0  0  0  0  0  0  0
   46.0000   33.9010   45.5610 C   0  0  0  0  0  0  0  0  0  0  0  0
   44.9320   34.7140   45.6760 N   0  0  0  0  0  0  0  0  0  0  0  0
   47.3010   34.5060   41.8020 S   0  0  0  0  0  0  0  0  0  0  0  0
   48.0660   32.8290   41.7280 C   0  0  0  0  0  0  0  0  0  0  0  0
   48.3900   32.4790   40.3570 C   0  0  0  0  0  0  0  0  0  0  0  0
   49.6040   32.2210   40.0200 C   0  0  0  0  0  0  0  0  0  0  0  0
   49.9340   31.8770   38.6920 N   0  0  0  0  0  0  0  0  0  0  0  0
   50.6500   30.9810   37.8060 C   0  0  0  0  0  0  0  0  0  0  0  0
   51.6880   30.2730   37.8910 O   0  0  0  0  0  0  0  0  0  0  0  0
   49.5720   31.3210   36.8010 C   0  0  0  0  0  0  0  0  0  0  0  0
   49.4320   32.6360   37.5230 C   0  0  1  0  0  0  0  0  0  0  0  0
   47.7680   33.1980   37.8610 S   0  0  0  0  0  0  0  0  0  0  0  0
   47.2390   32.4470   39.4310 C   0  0  0  0  0  0  0  0  0  0  0  0
   50.6830   32.2830   41.0190 C   0  0  0  0  0  0  0  0  0  0  0  0
   51.8310   31.7560   40.8850 O   0  0  0  0  0  0  0  0  0  0  0  0
   51.4440   32.5210   42.1170 O   0  0  0  0  0  0  0  0  0  0  0  0
   46.5910   32.9700   46.5890 C   0  0  0  0  0  0  0  0  0  0  0  0
   46.2100   31.5790   46.3340 C   0  0  0  0  0  0  0  0  0  0  0  0
   46.1060   30.5730   47.1610 C   0  0  0  0  0  0  0  0  0  0  0  0
   45.7270   29.2320   46.7800 N   0  0  0  0  0  0  0  0  0  0  0  0
   44.9700   28.0460   46.9520 C   0  0  0  0  0  0  0  0  0  0  0  0
   44.5130   27.5010   48.0020 O   0  0  0  0  0  0  0  0  0  0  0  0
   45.0290   27.8730   45.4780 C   0  0  0  0  0  0  0  0  0  0  0  0
   46.3490   28.5950   45.6320 C   0  0  1  0  0  0  0  0  0  0  0  0
   46.5730   29.7750   44.2780 S   0  0  0  0  0  0  0  0  0  0  0  0
   45.8940   31.3220   44.9250 C   0  0  0  0  0  0  0  0  0  0  0  0
   46.3970   30.7870   48.5770 C   0  0  0  0  0  0  0  0  0  0  0  0
   45.7410   31.1140   49.5720 O   0  0  0  0  0  0  0  0  0  0  0  0
   47.3020   30.8030   49.6020 O   0  0  0  0  0  0  0  0  0  0  0  0
   43.6866   36.1300   44.7517 H   0  0  0  0  0  0  0  0  0  0  0  0
   44.9546   36.0713   42.5508 H   0  0  0  0  0  0  0  0  0  0  0  0
   48.9865   32.8239   42.3303 H   0  0  0  0  0  0  0  0  0  0  0  0
   47.3504   32.0933   42.1238 H   0  0  0  0  0  0  0  0  0  0  0  0
   48.6826   30.6751   36.8420 H   0  0  0  0  0  0  0  0  0  0  0  0
   49.7454   31.2652   35.7162 H   0  0  0  0  0  0  0  0  0  0  0  0
   49.8597   33.5547   37.0950 H   0  0  0  0  0  0  0  0  0  0  0  0
   46.4009   33.0189   39.8558 H   0  0  0  0  0  0  0  0  0  0  0  0
   46.9050   31.4116   39.2685 H   0  0  0  0  0  0  0  0  0  0  0  0
   52.3698   32.1733   42.1624 H   0  0  0  0  0  0  0  0  0  0  0  0
   47.6875   33.0520   46.5574 H   0  0  0  0  0  0  0  0  0  0  0  0
   46.2057   33.2581   47.5782 H   0  0  0  0  0  0  0  0  0  0  0  0
   44.2579   28.4087   44.9049 H   0  0  0  0  0  0  0  0  0  0  0  0
   44.9110   26.9068   44.9656 H   0  0  0  0  0  0  0  0  0  0  0  0
   47.3236   28.0874   45.6814 H   0  0  0  0  0  0  0  0  0  0  0  0
   46.2960   32.1518   44.3252 H   0  0  0  0  0  0  0  0  0  0  0  0
   44.7993   31.2367   44.8589 H   0  0  0  0  0  0  0  0  0  0  0  0
   47.0085   31.0378   50.5179 H   0  0  0  0  0  0  0  0  0  0  0  0
  1  6  2  0
  2  1  1  0
  3  2  2  0
  3  4  1  0
  4  5  2  0
  5  6  1  0
  5 21  1  0
  7  3  1  0
  8  7  1  0
  9  8  1  0
 10  9  2  0
 10 18  1  0
 11 10  1  0
 12 13  2  0
 12 11  1  0
 14 15  1  0
 14 12  1  0
 15 16  1  0
 15 11  1  0
 16 17  1  0
 17  9  1  0
 18 20  1  0
 19 18  2  0
 22 21  1  0
 22 23  2  0
 23 31  1  0
 24 25  1  0
 24 23  1  0
 25 26  2  0
 27 28  1  0
 27 25  1  0
 28 29  1  0
 28 24  1  0
 29 30  1  0
 30 22  1  0
 31 32  2  0
 31 33  1  0
  1 34  1  0
  2 35  1  0
  8 36  1  0
  8 37  1  0
 14 38  1  0
 14 39  1  0
 15 40  1  6
 17 41  1  0
 17 42  1  0
 20 43  1  0
 21 44  1  0
 21 45  1  0
 27 46  1  0
 27 47  1  0
 28 48  1  1
 30 49  1  0
 30 50  1  0
 33 51  1  0
M  ISO  8  34  14  35  14  36   8  37   8  38  13  39  13  40  13  41  13
M  ISO  8  42  13  43   3  44   8  45   8  46  13  47  13  48  13  49  13
M  ISO  2  50  13  51   3
M  END
>  <minimizedAffinity>  (1) 
-6.19403028

>  <minimizedRMSD>  (1) 
1.90235615

$$$$
