
     RDKit          3D

 35 37  0  0  1  0  0  0  0  0999 V2000
   47.6110   31.5170   47.1690 C   0  0  0  0  0  0  0  0  0  0  0  0
   47.3500   30.0800   47.0410 C   0  0  0  0  0  0  0  0  0  0  0  0
   46.1960   29.6610   47.5280 C   0  0  0  0  0  0  0  0  0  0  0  0
   45.8390   28.2990   47.4560 N   0  0  0  0  0  0  0  0  0  0  0  0
   45.2310   27.1240   48.0330 C   0  0  0  0  0  0  0  0  0  0  0  0
   44.2320   27.0100   48.7680 O   0  0  0  0  0  0  0  0  0  0  0  0
   46.3260   26.3620   47.3310 C   0  0  0  0  0  0  0  0  0  0  0  0
   46.1380   27.4630   46.3080 C   0  0  2  0  0  0  0  0  0  0  0  0
   47.5960   27.9760   45.4220 S   0  0  0  0  0  0  0  0  0  0  0  0
   48.3840   29.2560   46.3940 C   0  0  0  0  0  0  0  0  0  0  0  0
   45.2360   30.5640   48.1580 C   0  0  0  0  0  0  0  0  0  0  0  0
   44.8910   30.4950   49.3720 O   0  0  0  0  0  0  0  0  0  0  0  0
   44.3330   31.5860   48.3160 O   0  0  0  0  0  0  0  0  0  0  0  0
   45.6600   34.0280   45.2970 C   0  0  0  0  0  0  0  0  0  0  0  0
   46.0050   33.7720   43.9620 C   0  0  0  0  0  0  0  0  0  0  0  0
   46.9120   32.7320   43.7020 C   0  0  0  0  0  0  0  0  0  0  0  0
   47.3980   32.0390   44.7750 N   0  0  0  0  0  0  0  0  0  0  0  0
   47.0410   32.3180   46.0310 C   0  0  0  0  0  0  0  0  0  0  0  0
   46.1850   33.2980   46.2810 N   0  0  0  0  0  0  0  0  0  0  0  0
   44.7830   35.0390   45.5070 O   0  0  0  0  0  0  0  0  0  0  0  0
   44.3710   35.9390   44.5290 C   0  0  0  0  0  0  0  0  0  0  0  0
   44.9670   37.0380   44.2420 O   0  0  0  0  0  0  0  0  0  0  0  0
   43.2190   35.7650   43.7030 N   0  0  0  0  0  0  0  0  0  0  0  0
   47.1626   31.8731   48.1082 H   0  0  0  0  0  0  0  0  0  0  0  0
   48.7020   31.6570   47.1579 H   0  0  0  0  0  0  0  0  0  0  0  0
   47.3003   26.3420   47.8413 H   0  0  0  0  0  0  0  0  0  0  0  0
   46.2948   25.2858   47.1057 H   0  0  0  0  0  0  0  0  0  0  0  0
   45.4766   27.3399   45.4377 H   0  0  0  0  0  0  0  0  0  0  0  0
   49.0206   28.7942   47.1631 H   0  0  0  0  0  0  0  0  0  0  0  0
   49.0032   29.8875   45.7399 H   0  0  0  0  0  0  0  0  0  0  0  0
   43.9114   31.7421   49.1980 H   0  0  0  0  0  0  0  0  0  0  0  0
   45.5776   34.3685   43.1425 H   0  0  0  0  0  0  0  0  0  0  0  0
   47.2192   32.4848   42.6751 H   0  0  0  0  0  0  0  0  0  0  0  0
   42.9778   36.4771   42.9990 H   0  0  0  0  0  0  0  0  0  0  0  0
   42.6294   34.9274   43.8113 H   0  0  0  0  0  0  0  0  0  0  0  0
  2  1  1  0
  2  3  2  0
  3 11  1  0
  4  3  1  0
  4  5  1  0
  5  6  2  0
  7  5  1  0
  8  9  1  0
  8  7  1  0
  8  4  1  0
  9 10  1  0
 10  2  1  0
 11 13  1  0
 11 12  2  0
 14 20  1  0
 14 19  2  0
 15 14  1  0
 16 15  2  0
 16 17  1  0
 17 18  2  0
 18 19  1  0
 18  1  1  0
 21 20  1  0
 22 21  2  0
 23 21  1  0
  1 24  1  0
  1 25  1  0
  7 26  1  0
  7 27  1  0
  8 28  1  6
 10 29  1  0
 10 30  1  0
 13 31  1  0
 15 32  1  0
 16 33  1  0
 23 34  1  0
 23 35  1  0
M  ISO  8  24   8  25   8  26  13  27  13  28  13  29  13  30  13  31   3
M  ISO  2  32  14  33  14
M  END
>  <minimizedAffinity>  (1) 
-5.3138237

>  <minimizedRMSD>  (1) 
1.07994819

$$$$
