
     RDKit          3D

 38 41  0  0  1  0  0  0  0  0999 V2000
   48.0010   33.7820   39.8150 C   0  0  0  0  0  0  0  0  0  0  0  0
   46.7230   33.9080   39.9030 O   0  0  0  0  0  0  0  0  0  0  0  0
   50.8560   31.3050   37.4890 C   0  0  0  0  0  0  0  0  0  0  0  0
   49.7310   31.5200   36.8300 C   0  0  0  0  0  0  0  0  0  0  0  0
   48.5840   32.0230   37.5050 N   0  0  0  0  0  0  0  0  0  0  0  0
   47.5340   33.0190   37.4640 C   0  0  0  0  0  0  0  0  0  0  0  0
   46.9920   33.7590   36.5720 O   0  0  0  0  0  0  0  0  0  0  0  0
   47.3750   32.7990   38.8990 C   0  0  1  0  0  0  0  0  0  0  0  0
   48.0710   31.4780   38.7470 C   0  0  2  0  0  0  0  0  0  0  0  0
   49.4500   31.1740   39.8440 S   0  0  0  0  0  0  0  0  0  0  0  0
   50.9640   31.5970   38.9420 C   0  0  0  0  0  0  0  0  0  0  0  0
   51.9940   30.7790   36.7470 C   0  0  0  0  0  0  0  0  0  0  0  0
   49.6550   31.2310   35.3890 C   0  0  0  0  0  0  0  0  0  0  0  0
   49.2730   30.1470   34.8860 O   0  0  0  0  0  0  0  0  0  0  0  0
   49.9800   32.0610   34.3580 O   0  0  0  0  0  0  0  0  0  0  0  0
   48.6360   34.6590   40.6340 O   0  0  0  0  0  0  0  0  0  0  0  0
   49.4470   35.5960   42.8820 O   0  0  0  0  0  0  0  0  0  0  0  0
   49.1980   34.3020   42.1650 P   0  0  2  0  0  0  0  0  0  0  0  0
   50.6750   33.5110   42.0500 O   0  0  0  0  0  0  0  0  0  0  0  0
   48.0580   33.3500   43.0140 O   0  0  0  0  0  0  0  0  0  0  0  0
   46.3140   35.0030   43.0070 C   0  0  0  0  0  0  0  0  0  0  0  0
   46.9680   33.9440   43.6600 C   0  0  0  0  0  0  0  0  0  0  0  0
   46.4990   33.5430   44.9050 C   0  0  0  0  0  0  0  0  0  0  0  0
   45.4320   34.1840   45.4450 N   0  0  0  0  0  0  0  0  0  0  0  0
   44.8250   35.2000   44.7910 C   0  0  0  0  0  0  0  0  0  0  0  0
   45.2700   35.5940   43.5910 N   0  0  0  0  0  0  0  0  0  0  0  0
   48.0186   34.5259   39.0048 H   0  0  0  0  0  0  0  0  0  0  0  0
   47.5025   30.5442   38.8689 H   0  0  0  0  0  0  0  0  0  0  0  0
   51.7985   31.0139   39.3588 H   0  0  0  0  0  0  0  0  0  0  0  0
   51.1323   32.6781   39.0560 H   0  0  0  0  0  0  0  0  0  0  0  0
   52.7599   30.4250   37.4527 H   0  0  0  0  0  0  0  0  0  0  0  0
   51.6639   29.9422   36.1140 H   0  0  0  0  0  0  0  0  0  0  0  0
   52.4175   31.5727   36.1140 H   0  0  0  0  0  0  0  0  0  0  0  0
   49.8853   31.7495   33.4231 H   0  0  0  0  0  0  0  0  0  0  0  0
   51.0216   33.3254   42.9586 H   0  0  0  0  0  0  0  0  0  0  0  0
   46.6610   35.3427   42.0200 H   0  0  0  0  0  0  0  0  0  0  0  0
   46.9858   32.7176   45.4451 H   0  0  0  0  0  0  0  0  0  0  0  0
   43.9611   35.7056   45.2471 H   0  0  0  0  0  0  0  0  0  0  0  0
  1  2  1  0
  1 16  1  0
  3 11  1  0
  4  3  2  0
  4  5  1  0
  5  9  1  0
  6  5  1  0
  7  6  2  0
  8  6  1  0
  8  1  1  0
  8  2  1  6
  9  8  1  0
  9 10  1  0
 11 10  1  0
 12  3  1  0
 13  4  1  0
 14 13  2  0
 15 13  1  0
 16 18  1  0
 18 17  2  0
 18 20  1  0
 19 18  1  0
 20 22  1  0
 21 26  2  0
 21 22  1  0
 22 23  2  0
 23 24  1  0
 25 24  2  0
 26 25  1  0
  1 27  1  0
  9 28  1  6
 11 29  1  0
 11 30  1  0
 12 31  1  0
 12 32  1  0
 12 33  1  0
 15 34  1  0
 19 35  1  0
 21 36  1  0
 23 37  1  0
 25 38  1  0
M  ISO  8  27  13  28  13  29  13  30  13  31   8  32   8  33   8  34   3
M  ISO  4  35   3  36  14  37  14  38  14
M  END
>  <minimizedAffinity>  (1) 
-4.74737358

>  <minimizedRMSD>  (1) 
1.11277235

$$$$
