
     RDKit          3D

 39 43  0  0  1  0  0  0  0  0999 V2000
   48.3420   32.9860   41.5260 C   0  0  1  0  0  0  0  0  0  0  0  0
   49.5880   33.3670   42.3910 C   0  0  0  0  0  0  0  0  0  0  0  0
   48.3690   32.7260   42.9450 C   0  0  2  0  0  0  0  0  0  0  0  0
   47.6350   34.1930   40.9890 C   0  0  0  0  0  0  0  0  0  0  0  0
   48.2200   34.8170   40.0920 O   0  0  0  0  0  0  0  0  0  0  0  0
   46.2180   35.4530   42.5220 C   0  0  0  0  0  0  0  0  0  0  0  0
   46.3620   34.6380   41.4360 C   0  0  0  0  0  0  0  0  0  0  0  0
   45.2050   34.2460   40.7370 C   0  0  0  0  0  0  0  0  0  0  0  0
   43.9950   34.6760   41.1490 N   0  0  0  0  0  0  0  0  0  0  0  0
   43.8790   35.4950   42.2450 C   0  0  0  0  0  0  0  0  0  0  0  0
   44.9750   35.8580   42.8950 N   0  0  0  0  0  0  0  0  0  0  0  0
   48.3730   31.3880   43.6110 C   0  0  0  0  0  0  0  0  0  0  0  0
   47.4360   31.2480   44.7500 C   0  0  0  0  0  0  0  0  0  0  0  0
   47.4530   30.2590   45.6220 C   0  0  0  0  0  0  0  0  0  0  0  0
   46.5520   30.1570   46.7170 N   0  0  0  0  0  0  0  0  0  0  0  0
   45.9350   29.4360   47.7850 C   0  0  1  0  0  0  0  0  0  0  0  0
   45.5330   28.2240   47.7780 O   0  0  0  0  0  0  0  0  0  0  0  0
   46.1020   30.7400   48.5430 C   0  0  0  0  0  0  0  0  0  0  0  0
   45.7000   31.2310   47.1990 C   0  0  2  0  0  0  0  0  0  0  0  0
   46.3770   32.7860   46.6030 S   0  0  0  0  0  0  0  0  0  0  0  0
   46.4840   32.3790   44.7980 C   0  0  0  0  0  0  0  0  0  0  0  0
   48.4320   29.1530   45.5600 C   0  0  0  0  0  0  0  0  0  0  0  0
   48.4440   28.0030   45.0640 O   0  0  0  0  0  0  0  0  0  0  0  0
   49.6870   29.1920   46.1180 O   0  0  0  0  0  0  0  0  0  0  0  0
   48.0907   32.3503   40.6642 H   0  0  0  0  0  0  0  0  0  0  0  0
   50.5265   32.8003   42.3006 H   0  0  0  0  0  0  0  0  0  0  0  0
   50.1725   34.2771   42.5913 H   0  0  0  0  0  0  0  0  0  0  0  0
   47.6596   32.9756   43.7478 H   0  0  0  0  0  0  0  0  0  0  0  0
   47.1011   35.7794   43.0908 H   0  0  0  0  0  0  0  0  0  0  0  0
   45.2874   33.5908   39.8572 H   0  0  0  0  0  0  0  0  0  0  0  0
   42.8908   35.8446   42.5784 H   0  0  0  0  0  0  0  0  0  0  0  0
   48.1080   30.6318   42.8573 H   0  0  0  0  0  0  0  0  0  0  0  0
   49.3825   31.2574   44.0281 H   0  0  0  0  0  0  0  0  0  0  0  0
   45.4275   27.9059   48.7096 H   0  0  0  0  0  0  0  0  0  0  0  0
   45.3950   30.9245   49.3653 H   0  0  0  0  0  0  0  0  0  0  0  0
   46.9896   31.0534   49.1122 H   0  0  0  0  0  0  0  0  0  0  0  0
   46.8646   33.2369   44.2243 H   0  0  0  0  0  0  0  0  0  0  0  0
   45.5065   32.1327   44.3576 H   0  0  0  0  0  0  0  0  0  0  0  0
   50.2897   28.4109   46.0360 H   0  0  0  0  0  0  0  0  0  0  0  0
  1  2  1  0
  1  3  1  0
  2  3  1  0
  3 12  1  0
  4  7  1  0
  4  1  1  0
  5  4  2  0
  6 11  2  0
  7  6  1  0
  8  9  1  0
  8  7  2  0
  9 10  2  0
 10 11  1  0
 12 13  1  0
 13 21  1  0
 13 14  2  0
 14 15  1  0
 15 19  1  0
 15 16  1  0
 16 17  1  1
 16 18  1  0
 19 20  1  1
 19 16  1  0
 19 18  1  0
 21 20  1  0
 22 14  1  0
 22 24  1  0
 23 22  2  0
  1 25  1  6
  2 26  1  0
  2 27  1  0
  3 28  1  1
  6 29  1  0
  8 30  1  0
 10 31  1  0
 12 32  1  0
 12 33  1  0
 17 34  1  0
 18 35  1  0
 18 36  1  0
 21 37  1  0
 21 38  1  0
 24 39  1  0
M  ISO  8  25  13  26  13  27  13  28  13  29  14  30  14  31  14  32   8
M  ISO  7  33   8  34   3  35  13  36  13  37  13  38  13  39   3
M  END
>  <minimizedAffinity>  (1) 
-4.64860058

>  <minimizedRMSD>  (1) 
6.8921442

$$$$
