
     RDKit          3D

 51 55  0  0  1  0  0  0  0  0999 V2000
   46.1920   31.4930   42.9530 C   0  0  0  0  0  0  0  0  0  0  0  0
   47.4200   31.1870   42.3510 C   0  0  0  0  0  0  0  0  0  0  0  0
   48.4100   30.6380   43.1830 C   0  0  0  0  0  0  0  0  0  0  0  0
   48.1010   30.4430   44.5020 N   0  0  0  0  0  0  0  0  0  0  0  0
   46.8780   30.7610   45.0330 C   0  0  0  0  0  0  0  0  0  0  0  0
   45.9020   31.2950   44.2540 N   0  0  0  0  0  0  0  0  0  0  0  0
   45.1610   32.0670   42.0920 C   0  0  1  0  0  0  0  0  0  0  0  0
   44.5250   33.3730   42.4730 C   0  0  0  0  0  0  0  0  0  0  0  0
   45.3520   33.3730   41.3590 C   0  0  1  0  0  0  0  0  0  0  0  0
   46.6250   34.1400   41.3780 C   0  0  0  0  0  0  0  0  0  0  0  0
   47.1200   34.7400   42.5120 C   0  0  0  0  0  0  0  0  0  0  0  0
   48.2610   35.4900   42.5680 C   0  0  0  0  0  0  0  0  0  0  0  0
   48.9710   35.6600   41.4020 C   0  0  0  0  0  0  0  0  0  0  0  0
   48.5040   35.0690   40.2300 C   0  0  0  0  0  0  0  0  0  0  0  0
   47.3530   34.3310   40.2470 C   0  0  0  0  0  0  0  0  0  0  0  0
   47.9860   32.7720   38.5380 C   0  0  0  0  0  0  0  0  0  0  0  0
   48.6730   32.4910   39.5220 O   0  0  0  0  0  0  0  0  0  0  0  0
   47.1330   33.8740   38.8990 N   0  0  0  0  0  0  0  0  0  0  0  0
   46.6270   30.5100   46.5000 C   0  0  0  0  0  0  0  0  0  0  0  0
   47.6750   29.6660   47.0890 C   0  0  0  0  0  0  0  0  0  0  0  0
   48.5430   30.0970   47.9880 C   0  0  0  0  0  0  0  0  0  0  0  0
   49.5120   29.1900   48.4940 N   0  0  0  0  0  0  0  0  0  0  0  0
   50.8350   29.0090   48.9490 C   0  0  0  0  0  0  0  0  0  0  0  0
   51.8620   29.6890   49.2230 O   0  0  0  0  0  0  0  0  0  0  0  0
   50.7060   27.5370   49.0480 C   0  0  0  0  0  0  0  0  0  0  0  0
   49.2710   27.7800   48.7350 C   0  0  2  0  0  0  0  0  0  0  0  0
   48.7250   27.1140   47.1230 S   0  0  0  0  0  0  0  0  0  0  0  0
   47.5440   28.3250   46.4750 C   0  0  0  0  0  0  0  0  0  0  0  0
   48.5600   31.4610   48.5000 C   0  0  0  0  0  0  0  0  0  0  0  0
   47.9120   32.5190   48.3570 O   0  0  0  0  0  0  0  0  0  0  0  0
   49.4810   31.9140   49.4170 O   0  0  0  0  0  0  0  0  0  0  0  0
   47.5997   31.3676   41.2809 H   0  0  0  0  0  0  0  0  0  0  0  0
   49.4016   30.3734   42.7871 H   0  0  0  0  0  0  0  0  0  0  0  0
   44.8503   31.0474   41.8202 H   0  0  0  0  0  0  0  0  0  0  0  0
   43.4408   33.5061   42.3431 H   0  0  0  0  0  0  0  0  0  0  0  0
   44.4982   33.9640   43.4004 H   0  0  0  0  0  0  0  0  0  0  0  0
   45.2432   33.6566   40.3018 H   0  0  0  0  0  0  0  0  0  0  0  0
   46.5541   34.6060   43.4457 H   0  0  0  0  0  0  0  0  0  0  0  0
   48.5997   35.9418   43.5120 H   0  0  0  0  0  0  0  0  0  0  0  0
   49.8960   36.2552   41.3951 H   0  0  0  0  0  0  0  0  0  0  0  0
   49.0616   35.1961   39.2903 H   0  0  0  0  0  0  0  0  0  0  0  0
   48.0188   32.2706   37.5595 H   0  0  0  0  0  0  0  0  0  0  0  0
   46.4397   34.2910   38.2616 H   0  0  0  0  0  0  0  0  0  0  0  0
   46.6053   31.4742   47.0290 H   0  0  0  0  0  0  0  0  0  0  0  0
   45.6650   29.9862   46.6008 H   0  0  0  0  0  0  0  0  0  0  0  0
   51.2614   26.9651   48.2900 H   0  0  0  0  0  0  0  0  0  0  0  0
   51.0425   26.9603   49.9222 H   0  0  0  0  0  0  0  0  0  0  0  0
   48.5459   27.3924   49.4658 H   0  0  0  0  0  0  0  0  0  0  0  0
   46.5259   27.9537   46.6638 H   0  0  0  0  0  0  0  0  0  0  0  0
   47.7545   28.4392   45.4014 H   0  0  0  0  0  0  0  0  0  0  0  0
   49.4463   32.8521   49.7313 H   0  0  0  0  0  0  0  0  0  0  0  0
  1  6  1  0
  2  1  2  0
  2  3  1  0
  3  4  2  0
  4  5  1  0
  5 19  1  0
  6  5  2  0
  7  8  1  0
  7  1  1  0
  9 10  1  0
  9  7  1  0
  9  8  1  0
 10 11  2  0
 11 12  1  0
 13 12  2  0
 14 15  2  0
 14 13  1  0
 15 10  1  0
 16 18  1  0
 16 17  2  0
 18 15  1  0
 19 20  1  0
 20 21  2  0
 21 22  1  0
 21 29  1  0
 22 26  1  0
 22 23  1  0
 23 25  1  0
 23 24  2  0
 26 27  1  0
 26 25  1  0
 28 20  1  0
 28 27  1  0
 29 31  1  0
 30 29  2  0
  2 32  1  0
  3 33  1  0
  7 34  1  6
  8 35  1  0
  8 36  1  0
  9 37  1  6
 11 38  1  0
 12 39  1  0
 13 40  1  0
 14 41  1  0
 16 42  1  0
 18 43  1  0
 19 44  1  0
 19 45  1  0
 25 46  1  0
 25 47  1  0
 26 48  1  1
 28 49  1  0
 28 50  1  0
 31 51  1  0
M  ISO  8  32  14  33  14  34  13  35  13  36  13  37  13  38  14  39  14
M  ISO  8  40  14  41  14  42   6  44   8  45   8  46  13  47  13  48  13
M  ISO  3  49  13  50  13  51   3
M  END
>  <minimizedAffinity>  (1) 
-5.12235308

>  <minimizedRMSD>  (1) 
2.82307148

$$$$
