
     RDKit          3D

 44 47  0  0  1  0  0  0  0  0999 V2000
   43.4990   33.9410   40.8120 C   0  0  0  0  0  0  0  0  0  0  0  0
   43.1860   34.9760   40.2190 O   0  0  0  0  0  0  0  0  0  0  0  0
   44.8260   33.5300   41.1520 N   0  0  0  0  0  0  0  0  0  0  0  0
   46.6270   34.7580   42.0070 C   0  0  0  0  0  0  0  0  0  0  0  0
   47.9000   35.3160   41.9090 C   0  0  0  0  0  0  0  0  0  0  0  0
   48.6230   35.1410   40.7400 C   0  0  0  0  0  0  0  0  0  0  0  0
   48.0660   34.4230   39.7090 C   0  0  0  0  0  0  0  0  0  0  0  0
   46.8270   33.8600   39.7590 C   0  0  0  0  0  0  0  0  0  0  0  0
   46.1260   34.0580   40.9580 C   0  0  0  0  0  0  0  0  0  0  0  0
   44.5010   36.1710   44.7830 C   0  0  0  0  0  0  0  0  0  0  0  0
   45.1400   36.0740   43.5320 C   0  0  0  0  0  0  0  0  0  0  0  0
   45.9170   34.9750   43.2560 C   0  0  0  0  0  0  0  0  0  0  0  0
   46.0280   34.0200   44.2320 N   0  0  0  0  0  0  0  0  0  0  0  0
   45.4160   34.1140   45.4280 C   0  0  0  0  0  0  0  0  0  0  0  0
   44.6380   35.2090   45.7090 N   0  0  0  0  0  0  0  0  0  0  0  0
   38.9650   31.2060   39.9280 C   0  0  0  0  0  0  0  0  0  0  0  0
   40.1790   30.8580   39.6140 C   0  0  0  0  0  0  0  0  0  0  0  0
   41.2740   31.6010   40.1200 N   0  0  0  0  0  0  0  0  0  0  0  0
   42.6190   31.6500   40.6090 C   0  0  0  0  0  0  0  0  0  0  0  0
   43.6140   30.8690   40.5420 O   0  0  0  0  0  0  0  0  0  0  0  0
   42.4370   32.9840   41.2430 C   0  0  2  0  0  0  0  0  0  0  0  0
   41.2380   33.0380   40.3320 C   0  0  2  0  0  0  0  0  0  0  0  0
   39.7790   33.4330   41.3360 S   0  0  0  0  0  0  0  0  0  0  0  0
   38.5170   32.3080   40.7770 C   0  0  0  0  0  0  0  0  0  0  0  0
   37.8830   30.3820   39.3600 C   0  0  0  0  0  0  0  0  0  0  0  0
   40.4800   29.7220   38.7500 C   0  0  0  0  0  0  0  0  0  0  0  0
   40.5900   29.6770   37.4990 O   0  0  0  0  0  0  0  0  0  0  0  0
   40.7060   28.4360   39.2120 O   0  0  0  0  0  0  0  0  0  0  0  0
   44.8397   32.6343   41.6604 H   0  0  0  0  0  0  0  0  0  0  0  0
   48.3249   35.8872   42.7476 H   0  0  0  0  0  0  0  0  0  0  0  0
   49.6302   35.5714   40.6384 H   0  0  0  0  0  0  0  0  0  0  0  0
   48.6557   34.2956   38.7892 H   0  0  0  0  0  0  0  0  0  0  0  0
   46.4053   33.2899   38.9181 H   0  0  0  0  0  0  0  0  0  0  0  0
   43.8787   37.0504   45.0053 H   0  0  0  0  0  0  0  0  0  0  0  0
   45.0183   36.8703   42.7830 H   0  0  0  0  0  0  0  0  0  0  0  0
   45.5392   33.3169   46.1760 H   0  0  0  0  0  0  0  0  0  0  0  0
   42.4059   33.1646   42.3276 H   0  0  0  0  0  0  0  0  0  0  0  0
   41.2240   33.7238   39.4721 H   0  0  0  0  0  0  0  0  0  0  0  0
   37.7765   32.8899   40.2086 H   0  0  0  0  0  0  0  0  0  0  0  0
   38.1196   31.8355   41.6874 H   0  0  0  0  0  0  0  0  0  0  0  0
   37.2959   29.9349   40.1757 H   0  0  0  0  0  0  0  0  0  0  0  0
   37.2286   31.0126   38.7402 H   0  0  0  0  0  0  0  0  0  0  0  0
   38.3170   29.5835   38.7402 H   0  0  0  0  0  0  0  0  0  0  0  0
   40.9058   27.7079   38.5716 H   0  0  0  0  0  0  0  0  0  0  0  0
  1  3  1  0
  2  1  2  0
  4 12  1  0
  5  4  2  0
  6  5  1  0
  7  8  1  0
  7  6  2  0
  8  9  2  0
  9  3  1  0
  9  4  1  0
 10 15  2  0
 11 10  1  0
 12 11  2  0
 12 13  1  0
 13 14  2  0
 14 15  1  0
 16 24  1  0
 17 16  2  0
 17 18  1  0
 18 22  1  0
 18 19  1  0
 19 21  1  0
 20 19  2  0
 21  1  1  0
 22 21  1  0
 22 23  1  0
 24 23  1  0
 25 16  1  0
 26 28  1  0
 26 17  1  0
 27 26  2  0
  3 29  1  0
  5 30  1  0
  6 31  1  0
  7 32  1  0
  8 33  1  0
 10 34  1  0
 11 35  1  0
 14 36  1  0
 21 37  1  1
 22 38  1  6
 24 39  1  0
 24 40  1  0
 25 41  1  0
 25 42  1  0
 25 43  1  0
 28 44  1  0
M  ISO  8  30  14  31  14  32  14  33  14  34  14  35  14  36  14  37  13
M  ISO  7  38  13  39  13  40  13  41   8  42   8  43   8  44   3
M  END
>  <minimizedAffinity>  (1) 
-6.73497725

>  <minimizedRMSD>  (1) 
1.38593495

$$$$
