
     RDKit          3D

 62 67  0  0  1  0  0  0  0  0999 V2000
   50.5590   31.3420   42.4900 C   0  0  0  0  0  0  0  0  0  0  0  0
   51.4850   31.2050   41.5320 N   0  0  0  0  0  0  0  0  0  0  0  0
   52.0870   29.9960   41.6610 C   0  0  0  0  0  0  0  0  0  0  0  0
   51.5120   29.3910   42.7210 N   0  0  0  0  0  0  0  0  0  0  0  0
   50.5820   30.2000   43.2320 N   0  0  0  0  0  0  0  0  0  0  0  0
   47.8410   33.7880   42.8960 C   0  0  0  0  0  0  0  0  0  0  0  0
   48.5540   34.9920   42.6200 C   0  0  0  0  0  0  0  0  0  0  0  0
   49.9210   34.9400   42.3050 C   0  0  0  0  0  0  0  0  0  0  0  0
   50.4950   33.7000   42.2830 N   0  0  0  0  0  0  0  0  0  0  0  0
   49.7720   32.5680   42.5550 C   0  0  0  0  0  0  0  0  0  0  0  0
   48.4810   32.6290   42.8510 N   0  0  0  0  0  0  0  0  0  0  0  0
   46.4270   33.9840   43.2130 C   0  0  0  0  0  0  0  0  0  0  0  0
   45.7710   35.0270   42.4660 C   0  0  0  0  0  0  0  0  0  0  0  0
   45.3480   36.1930   43.2520 C   0  0  0  0  0  0  0  0  0  0  0  0
   44.4720   35.7790   44.4380 C   0  0  0  0  0  0  0  0  0  0  0  0
   44.9480   34.5510   45.1430 C   0  0  0  0  0  0  0  0  0  0  0  0
   46.3810   34.2160   44.7600 C   0  0  0  0  0  0  0  0  0  0  0  0
   51.8200   28.0950   43.2710 C   0  0  0  0  0  0  0  0  0  0  0  0
   51.8660   28.1660   44.7310 C   0  0  0  0  0  0  0  0  0  0  0  0
   51.0260   27.8350   45.6980 C   0  0  0  0  0  0  0  0  0  0  0  0
   51.2800   27.9090   47.2150 C   0  0  0  0  0  0  0  0  0  0  0  0
   51.2670   32.4460   49.8660 C   0  0  0  0  0  0  0  0  0  0  0  0
   52.3790   31.9060   49.4440 C   0  0  0  0  0  0  0  0  0  0  0  0
   52.4120   30.6960   48.7470 N   0  0  0  0  0  0  0  0  0  0  0  0
   52.8720   29.7940   47.7420 C   0  0  2  0  0  0  0  0  0  0  0  0
   54.0290   29.6430   47.2780 O   0  0  0  0  0  0  0  0  0  0  0  0
   51.4800   29.3100   47.6510 C   0  0  2  0  0  0  0  0  0  0  0  0
   51.5360   29.5820   49.1140 C   0  0  1  0  0  0  0  0  0  0  0  0
   50.0360   30.0780   49.9420 S   0  0  0  0  0  0  0  0  0  0  0  0
   49.9500   31.8440   49.6510 C   0  0  0  0  0  0  0  0  0  0  0  0
   51.3780   33.7170   50.5850 C   0  0  0  0  0  0  0  0  0  0  0  0
   53.6480   32.5790   49.7010 C   0  0  0  0  0  0  0  0  0  0  0  0
   54.7100   32.0290   50.1380 O   0  0  0  0  0  0  0  0  0  0  0  0
   54.6910   33.4700   49.8450 O   0  0  0  0  0  0  0  0  0  0  0  0
   52.8873   29.5887   41.0257 H   0  0  0  0  0  0  0  0  0  0  0  0
   48.0333   35.9603   42.6539 H   0  0  0  0  0  0  0  0  0  0  0  0
   50.4998   35.8497   42.0873 H   0  0  0  0  0  0  0  0  0  0  0  0
   45.8487   33.0990   42.9093 H   0  0  0  0  0  0  0  0  0  0  0  0
   46.4660   35.3760   41.6880 H   0  0  0  0  0  0  0  0  0  0  0  0
   44.8489   34.5799   42.0662 H   0  0  0  0  0  0  0  0  0  0  0  0
   46.2407   36.7125   43.6305 H   0  0  0  0  0  0  0  0  0  0  0  0
   44.7585   36.8546   42.6003 H   0  0  0  0  0  0  0  0  0  0  0  0
   44.4534   36.6080   45.1608 H   0  0  0  0  0  0  0  0  0  0  0  0
   43.4753   35.5487   44.0335 H   0  0  0  0  0  0  0  0  0  0  0  0
   44.8969   34.7185   46.2290 H   0  0  0  0  0  0  0  0  0  0  0  0
   44.3036   33.7094   44.8489 H   0  0  0  0  0  0  0  0  0  0  0  0
   46.7039   33.3043   45.2839 H   0  0  0  0  0  0  0  0  0  0  0  0
   47.0542   35.0386   45.0430 H   0  0  0  0  0  0  0  0  0  0  0  0
   51.0446   27.3769   42.9660 H   0  0  0  0  0  0  0  0  0  0  0  0
   52.8012   27.7688   42.8956 H   0  0  0  0  0  0  0  0  0  0  0  0
   52.8086   28.5885   45.1092 H   0  0  0  0  0  0  0  0  0  0  0  0
   50.0382   27.4667   45.3841 H   0  0  0  0  0  0  0  0  0  0  0  0
   50.4139   27.4870   47.7459 H   0  0  0  0  0  0  0  0  0  0  0  0
   52.1900   27.3362   47.4467 H   0  0  0  0  0  0  0  0  0  0  0  0
   54.6751   29.5587   48.0234 H   0  0  0  0  0  0  0  0  0  0  0  0
   50.7121   29.7057   46.9700 H   0  0  0  0  0  0  0  0  0  0  0  0
   49.2250   32.2938   50.3453 H   0  0  0  0  0  0  0  0  0  0  0  0
   49.6318   32.0265   48.6139 H   0  0  0  0  0  0  0  0  0  0  0  0
   51.3615   33.5280   51.6685 H   0  0  0  0  0  0  0  0  0  0  0  0
   52.3227   34.2107   50.3133 H   0  0  0  0  0  0  0  0  0  0  0  0
   50.5332   34.3670   50.3133 H   0  0  0  0  0  0  0  0  0  0  0  0
   55.5686   33.1552   50.1780 H   0  0  0  0  0  0  0  0  0  0  0  0
  1 10  1  0
  1  5  2  0
  2  3  2  0
  2  1  1  0
  3  4  1  0
  4  5  1  0
  4 18  1  0
  6 12  1  0
  7  6  2  0
  8  7  1  0
  9  8  2  0
  9 10  1  0
 10 11  2  0
 11  6  1  0
 12 17  1  0
 13 12  1  0
 13 14  1  0
 14 15  1  0
 15 16  1  0
 17 16  1  0
 18 19  1  0
 19 20  2  0
 20 21  1  0
 22 31  1  0
 23 32  1  0
 23 22  2  0
 24 28  1  0
 24 23  1  0
 25 26  1  1
 25 24  1  0
 25 28  1  0
 27 21  1  0
 27 25  1  0
 27 28  1  0
 28 29  1  1
 30 22  1  0
 30 29  1  0
 32 34  1  0
 32 33  2  0
  3 35  1  0
  7 36  1  0
  8 37  1  0
 12 38  1  0
 13 39  1  0
 13 40  1  0
 14 41  1  0
 14 42  1  0
 15 43  1  0
 15 44  1  0
 16 45  1  0
 16 46  1  0
 17 47  1  0
 17 48  1  0
 18 49  1  0
 18 50  1  0
 19 51  1  0
 20 52  1  0
 21 53  1  0
 21 54  1  0
 26 55  1  0
 27 56  1  6
 30 57  1  0
 30 58  1  0
 31 59  1  0
 31 60  1  0
 31 61  1  0
 34 62  1  0
M  ISO  8  35  14  36  14  37  14  38  13  39  13  40  13  41  13  42  13
M  ISO  8  43  13  44  13  45  13  46  13  47  13  48  13  49   8  50   8
M  ISO  8  53   8  54   8  55   3  56  13  57  13  58  13  59   8  60   8
M  ISO  2  61   8  62   3
M  END
>  <minimizedAffinity>  (1) 
-5.42674589

>  <minimizedRMSD>  (1) 
4.38056803

$$$$
