
     RDKit          3D

 53 56  0  0  1  0  0  0  0  0999 V2000
   46.1430   34.5690   43.5650 C   0  0  0  0  0  0  0  0  0  0  0  0
   46.2010   33.7930   44.7160 C   0  0  0  0  0  0  0  0  0  0  0  0
   45.3750   34.1950   45.7550 C   0  0  0  0  0  0  0  0  0  0  0  0
   44.5750   35.2980   45.5920 N   0  0  0  0  0  0  0  0  0  0  0  0
   44.5430   36.0180   44.4770 C   0  0  0  0  0  0  0  0  0  0  0  0
   45.3290   35.6370   43.4870 N   0  0  0  0  0  0  0  0  0  0  0  0
   47.0560   34.1560   42.4990 C   0  0  0  0  0  0  0  0  0  0  0  0
   48.4010   34.7040   42.5540 C   0  0  0  0  0  0  0  0  0  0  0  0
   48.7120   35.6040   41.4360 C   0  0  0  0  0  0  0  0  0  0  0  0
   48.5270   34.9070   40.0940 C   0  0  0  0  0  0  0  0  0  0  0  0
   47.2840   34.1040   40.0220 C   0  0  0  0  0  0  0  0  0  0  0  0
   46.3500   34.4040   41.1740 C   0  0  0  0  0  0  0  0  0  0  0  0
   46.8730   32.7370   45.0680 O   0  0  0  0  0  0  0  0  0  0  0  0
   46.9090   31.8890   46.1450 C   0  0  0  0  0  0  0  0  0  0  0  0
   46.4470   30.4940   45.8490 C   0  0  0  0  0  0  0  0  0  0  0  0
   47.7430   26.8000   45.4440 C   0  0  0  0  0  0  0  0  0  0  0  0
   46.4420   26.8830   45.5290 C   0  0  0  0  0  0  0  0  0  0  0  0
   45.7850   27.9250   46.1900 N   0  0  0  0  0  0  0  0  0  0  0  0
   44.7150   28.8620   46.3060 C   0  0  0  0  0  0  0  0  0  0  0  0
   43.4900   28.7590   45.9570 O   0  0  0  0  0  0  0  0  0  0  0  0
   45.7110   29.8030   46.9420 C   0  0  1  0  0  0  0  0  0  0  0  0
   46.2980   28.4940   47.4200 C   0  0  2  0  0  0  0  0  0  0  0  0
   48.0900   28.5830   47.4850 S   0  0  0  0  0  0  0  0  0  0  0  0
   48.7060   27.7540   46.0070 C   0  0  0  0  0  0  0  0  0  0  0  0
   48.2810   25.6430   44.7180 C   0  0  0  0  0  0  0  0  0  0  0  0
   45.6640   25.8250   44.8960 C   0  0  0  0  0  0  0  0  0  0  0  0
   44.6050   25.3310   45.3950 O   0  0  0  0  0  0  0  0  0  0  0  0
   45.0920   24.8410   44.1360 O   0  0  0  0  0  0  0  0  0  0  0  0
   45.3612   33.6346   46.7015 H   0  0  0  0  0  0  0  0  0  0  0  0
   43.8880   36.8966   44.3819 H   0  0  0  0  0  0  0  0  0  0  0  0
   47.2677   33.0851   42.6348 H   0  0  0  0  0  0  0  0  0  0  0  0
   48.5104   35.2652   43.4938 H   0  0  0  0  0  0  0  0  0  0  0  0
   49.0991   33.8562   42.4913 H   0  0  0  0  0  0  0  0  0  0  0  0
   48.0431   36.4761   41.4817 H   0  0  0  0  0  0  0  0  0  0  0  0
   49.7638   35.9142   41.5232 H   0  0  0  0  0  0  0  0  0  0  0  0
   48.4959   35.6716   39.3038 H   0  0  0  0  0  0  0  0  0  0  0  0
   49.3722   34.2149   39.9649 H   0  0  0  0  0  0  0  0  0  0  0  0
   46.7680   34.3315   39.0775 H   0  0  0  0  0  0  0  0  0  0  0  0
   47.5616   33.0410   40.0766 H   0  0  0  0  0  0  0  0  0  0  0  0
   46.0342   35.4564   41.1216 H   0  0  0  0  0  0  0  0  0  0  0  0
   45.4716   33.7454   41.1057 H   0  0  0  0  0  0  0  0  0  0  0  0
   47.9459   31.8384   46.5088 H   0  0  0  0  0  0  0  0  0  0  0  0
   46.2129   32.2991   46.8915 H   0  0  0  0  0  0  0  0  0  0  0  0
   45.7836   30.5384   44.9727 H   0  0  0  0  0  0  0  0  0  0  0  0
   47.3633   29.9061   45.6918 H   0  0  0  0  0  0  0  0  0  0  0  0
   45.5279   30.6419   47.6296 H   0  0  0  0  0  0  0  0  0  0  0  0
   46.0763   28.0413   48.3977 H   0  0  0  0  0  0  0  0  0  0  0  0
   49.6267   27.2112   46.2670 H   0  0  0  0  0  0  0  0  0  0  0  0
   48.8878   28.5274   45.2462 H   0  0  0  0  0  0  0  0  0  0  0  0
   48.6316   24.8890   45.4381 H   0  0  0  0  0  0  0  0  0  0  0  0
   47.4928   25.2079   44.0860 H   0  0  0  0  0  0  0  0  0  0  0  0
   49.1217   25.9652   44.0860 H   0  0  0  0  0  0  0  0  0  0  0  0
   45.5075   24.5736   43.2781 H   0  0  0  0  0  0  0  0  0  0  0  0
  1  2  1  0
  2 13  1  0
  2  3  2  0
  4  3  1  0
  5  4  2  0
  6  1  2  0
  6  5  1  0
  7  8  1  0
  7  1  1  0
  9  8  1  0
 10  9  1  0
 11 10  1  0
 11 12  1  0
 12  7  1  0
 13 14  1  0
 15 14  1  0
 16 17  2  0
 16 24  1  0
 17 18  1  0
 18 19  1  0
 18 22  1  0
 19 21  1  0
 20 19  2  0
 21 15  1  0
 21 22  1  0
 22 23  1  0
 24 23  1  0
 25 16  1  0
 26 27  2  0
 26 17  1  0
 28 26  1  0
  3 29  1  0
  5 30  1  0
  7 31  1  0
  8 32  1  0
  8 33  1  0
  9 34  1  0
  9 35  1  0
 10 36  1  0
 10 37  1  0
 11 38  1  0
 11 39  1  0
 12 40  1  0
 12 41  1  0
 14 42  1  0
 14 43  1  0
 15 44  1  0
 15 45  1  0
 21 46  1  1
 22 47  1  1
 24 48  1  0
 24 49  1  0
 25 50  1  0
 25 51  1  0
 25 52  1  0
 28 53  1  0
M  ISO  8  29  14  30  14  31  13  32  13  33  13  34  13  35  13  36  13
M  ISO  8  37  13  38  13  39  13  40  13  41  13  42   8  43   8  44   8
M  ISO  8  45   8  46  13  47  13  48  13  49  13  50   8  51   8  52   8
M  ISO  1  53   3
M  END
>  <minimizedAffinity>  (1) 
-5.50965405

>  <minimizedRMSD>  (1) 
2.58945584

$$$$
