
     RDKit          3D

 43 47  0  0  1  0  0  0  0  0999 V2000
   45.6170   30.4240   47.6650 C   0  0  1  0  0  0  0  0  0  0  0  0
   45.4000   31.9090   47.3610 C   0  0  1  0  0  0  0  0  0  0  0  0
   45.7630   32.5170   48.6940 C   0  0  0  0  0  0  0  0  0  0  0  0
   45.4980   31.6020   49.6790 O   0  0  0  0  0  0  0  0  0  0  0  0
   45.2380   30.3630   49.0980 C   0  0  0  0  0  0  0  0  0  0  0  0
   46.5980   32.5400   46.1670 S   0  0  0  0  0  0  0  0  0  0  0  0
   44.5720   35.7070   44.7190 C   0  0  0  0  0  0  0  0  0  0  0  0
   45.1780   35.8120   43.4230 C   0  0  0  0  0  0  0  0  0  0  0  0
   46.1670   34.9100   43.0710 C   0  0  0  0  0  0  0  0  0  0  0  0
   46.5170   33.9650   43.9710 N   0  0  0  0  0  0  0  0  0  0  0  0
   45.9380   33.8770   45.1930 C   0  0  0  0  0  0  0  0  0  0  0  0
   44.9650   34.7410   45.5780 N   0  0  0  0  0  0  0  0  0  0  0  0
   44.7410   29.6990   46.9170 O   0  0  0  0  0  0  0  0  0  0  0  0
   45.4080   28.6720   46.2590 C   0  0  0  0  0  0  0  0  0  0  0  0
   45.3420   27.3970   46.9640 C   0  0  0  0  0  0  0  0  0  0  0  0
   46.3540   26.7810   47.5150 C   0  0  0  0  0  0  0  0  0  0  0  0
   46.2160   25.5330   48.1810 N   0  0  0  0  0  0  0  0  0  0  0  0
   46.7560   24.4450   48.9240 C   0  0  2  0  0  0  0  0  0  0  0  0
   47.6340   24.3600   49.8180 O   0  0  0  0  0  0  0  0  0  0  0  0
   45.8310   23.5470   48.1680 C   0  0  0  0  0  0  0  0  0  0  0  0
   44.9740   24.7860   48.2840 C   0  0  1  0  0  0  0  0  0  0  0  0
   43.9200   25.1270   46.8440 S   0  0  0  0  0  0  0  0  0  0  0  0
   43.9470   26.9600   46.9290 C   0  0  0  0  0  0  0  0  0  0  0  0
   47.7460   27.2940   47.5050 C   0  0  0  0  0  0  0  0  0  0  0  0
   48.4930   27.8170   46.6450 O   0  0  0  0  0  0  0  0  0  0  0  0
   48.5770   27.2820   48.5950 O   0  0  0  0  0  0  0  0  0  0  0  0
   46.6260   30.0401   47.4538 H   0  0  0  0  0  0  0  0  0  0  0  0
   44.3978   32.1174   46.9583 H   0  0  0  0  0  0  0  0  0  0  0  0
   46.8325   32.7740   48.7051 H   0  0  0  0  0  0  0  0  0  0  0  0
   45.1749   33.4312   48.8625 H   0  0  0  0  0  0  0  0  0  0  0  0
   44.1671   30.1285   49.1885 H   0  0  0  0  0  0  0  0  0  0  0  0
   45.8183   29.5796   49.6074 H   0  0  0  0  0  0  0  0  0  0  0  0
   43.7843   36.4157   45.0146 H   0  0  0  0  0  0  0  0  0  0  0  0
   44.8617   36.5969   42.7202 H   0  0  0  0  0  0  0  0  0  0  0  0
   46.6544   34.9611   42.0862 H   0  0  0  0  0  0  0  0  0  0  0  0
   44.9574   28.5444   45.2637 H   0  0  0  0  0  0  0  0  0  0  0  0
   46.4687   28.9574   46.2001 H   0  0  0  0  0  0  0  0  0  0  0  0
   47.2034   24.4017   50.7085 H   0  0  0  0  0  0  0  0  0  0  0  0
   45.4730   22.6543   48.7018 H   0  0  0  0  0  0  0  0  0  0  0  0
   46.0700   23.0149   47.2354 H   0  0  0  0  0  0  0  0  0  0  0  0
   43.4474   27.3809   46.0440 H   0  0  0  0  0  0  0  0  0  0  0  0
   43.4186   27.3057   47.8297 H   0  0  0  0  0  0  0  0  0  0  0  0
   49.4967   27.6407   48.5203 H   0  0  0  0  0  0  0  0  0  0  0  0
  1  5  1  0
  2  1  1  0
  2  3  1  0
  3  4  1  0
  5  4  1  0
  6  2  1  0
  7 12  2  0
  8  7  1  0
  9  8  2  0
  9 10  1  0
 10 11  2  0
 11 12  1  0
 11  6  1  0
 13  1  1  0
 14 13  1  0
 14 15  1  0
 15 16  2  0
 16 17  1  0
 17 21  1  0
 17 18  1  0
 18 19  1  1
 20 21  1  0
 20 18  1  0
 21 22  1  1
 21 18  1  0
 22 23  1  0
 23 15  1  0
 24 16  1  0
 24 26  1  0
 25 24  2  0
  1 27  1  1
  2 28  1  6
  3 29  1  0
  3 30  1  0
  5 31  1  0
  5 32  1  0
  7 33  1  0
  8 34  1  0
  9 35  1  0
 14 36  1  0
 14 37  1  0
 19 38  1  0
 20 39  1  0
 20 40  1  0
 23 41  1  0
 23 42  1  0
 26 43  1  0
M  ISO  8  27  13  28  13  29  13  30  13  31  13  32  13  33  14  34  14
M  ISO  8  35  14  36   8  37   8  38   3  39  13  40  13  41  13  42  13
M  ISO  1  43   3
M  END
>  <minimizedAffinity>  (1) 
-5.368958

>  <minimizedRMSD>  (1) 
4.32676601

$$$$
