
     RDKit          3D

 60 65  0  0  1  0  0  0  0  0999 V2000
   44.8820   30.4100   42.8860 C   0  0  0  0  0  0  0  0  0  0  0  0
   46.2600   30.7530   43.1730 C   0  0  0  0  0  0  0  0  0  0  0  0
   47.0030   30.6480   42.0740 C   0  0  0  0  0  0  0  0  0  0  0  0
   46.5560   30.2650   40.8270 C   0  0  0  0  0  0  0  0  0  0  0  0
   45.2510   29.9430   40.5840 C   0  0  0  0  0  0  0  0  0  0  0  0
   44.3950   30.0200   41.6540 C   0  0  0  0  0  0  0  0  0  0  0  0
   45.8240   33.0890   45.1080 C   0  0  0  0  0  0  0  0  0  0  0  0
   45.3800   33.9350   46.1240 C   0  0  0  0  0  0  0  0  0  0  0  0
   45.1960   33.5110   47.4440 C   0  0  0  0  0  0  0  0  0  0  0  0
   45.4520   32.2150   47.7970 C   0  0  0  0  0  0  0  0  0  0  0  0
   45.8940   31.3370   46.7900 C   0  0  0  0  0  0  0  0  0  0  0  0
   46.0840   30.0450   47.1710 C   0  0  0  0  0  0  0  0  0  0  0  0
   46.4510   29.1320   46.1800 C   0  0  0  0  0  0  0  0  0  0  0  0
   46.5970   29.6040   44.8250 C   0  0  0  0  0  0  0  0  0  0  0  0
   46.3680   30.9420   44.6050 C   0  0  0  0  0  0  0  0  0  0  0  0
   46.0390   31.8580   45.5030 C   0  0  0  0  0  0  0  0  0  0  0  0
   46.2210   34.4920   41.6720 C   0  0  0  0  0  0  0  0  0  0  0  0
   47.6040   34.7910   41.6920 C   0  0  0  0  0  0  0  0  0  0  0  0
   48.2790   34.4700   42.8480 C   0  0  0  0  0  0  0  0  0  0  0  0
   47.5390   33.9180   43.8060 N   0  0  0  0  0  0  0  0  0  0  0  0
   46.2430   33.6250   43.8220 C   0  0  0  0  0  0  0  0  0  0  0  0
   45.6190   33.9290   42.7240 N   0  0  0  0  0  0  0  0  0  0  0  0
   49.6770   34.6560   42.9860 N   0  0  0  0  0  0  0  0  0  0  0  0
   43.8010   30.4160   43.8110 O   0  0  0  0  0  0  0  0  0  0  0  0
   43.0970   29.6800   41.3480 O   0  0  0  0  0  0  0  0  0  0  0  0
   42.5530   30.1370   40.1270 C   0  0  0  0  0  0  0  0  0  0  0  0
   41.8310   31.4250   40.2950 C   0  0  0  0  0  0  0  0  0  0  0  0
   41.7360   32.3760   39.3900 C   0  0  0  0  0  0  0  0  0  0  0  0
   41.0330   33.5970   39.5910 N   0  0  0  0  0  0  0  0  0  0  0  0
   41.0840   35.0310   39.4320 C   0  0  0  0  0  0  0  0  0  0  0  0
   41.7120   35.7830   38.6420 O   0  0  0  0  0  0  0  0  0  0  0  0
   40.1060   35.1350   40.5750 C   0  0  0  0  0  0  0  0  0  0  0  0
   39.6910   33.7410   40.1830 C   0  0  2  0  0  0  0  0  0  0  0  0
   39.6280   32.5300   41.5260 S   0  0  0  0  0  0  0  0  0  0  0  0
   41.1790   31.6010   41.6180 C   0  0  0  0  0  0  0  0  0  0  0  0
   42.3730   32.2430   38.0580 C   0  0  0  0  0  0  0  0  0  0  0  0
   42.4050   31.4990   37.0740 O   0  0  0  0  0  0  0  0  0  0  0  0
   43.2600   33.1310   37.5360 O   0  0  0  0  0  0  0  0  0  0  0  0
   48.0721   30.8889   42.1690 H   0  0  0  0  0  0  0  0  0  0  0  0
   47.2768   30.2170   39.9975 H   0  0  0  0  0  0  0  0  0  0  0  0
   44.9050   29.6386   39.5852 H   0  0  0  0  0  0  0  0  0  0  0  0
   45.1645   34.9847   45.8756 H   0  0  0  0  0  0  0  0  0  0  0  0
   44.8431   34.2246   48.2031 H   0  0  0  0  0  0  0  0  0  0  0  0
   45.3170   31.8705   48.8329 H   0  0  0  0  0  0  0  0  0  0  0  0
   45.9538   29.7320   48.2175 H   0  0  0  0  0  0  0  0  0  0  0  0
   46.6252   28.0745   46.4278 H   0  0  0  0  0  0  0  0  0  0  0  0
   46.8783   28.9256   44.0061 H   0  0  0  0  0  0  0  0  0  0  0  0
   45.6306   34.7273   40.7742 H   0  0  0  0  0  0  0  0  0  0  0  0
   48.1110   35.2537   40.8324 H   0  0  0  0  0  0  0  0  0  0  0  0
   50.1456   34.4033   43.8677 H   0  0  0  0  0  0  0  0  0  0  0  0
   50.2245   35.0439   42.2046 H   0  0  0  0  0  0  0  0  0  0  0  0
   42.8918   30.1634   43.5115 H   0  0  0  0  0  0  0  0  0  0  0  0
   41.8505   29.3817   39.7448 H   0  0  0  0  0  0  0  0  0  0  0  0
   43.3813   30.2977   39.4213 H   0  0  0  0  0  0  0  0  0  0  0  0
   40.5610   35.2239   41.5726 H   0  0  0  0  0  0  0  0  0  0  0  0
   39.3913   35.9650   40.6762 H   0  0  0  0  0  0  0  0  0  0  0  0
   38.7230   33.6078   39.6778 H   0  0  0  0  0  0  0  0  0  0  0  0
   40.9675   30.6071   42.0393 H   0  0  0  0  0  0  0  0  0  0  0  0
   41.8701   32.1774   42.2506 H   0  0  0  0  0  0  0  0  0  0  0  0
   43.6453   32.9757   36.6374 H   0  0  0  0  0  0  0  0  0  0  0  0
  1  2  2  0
  1 24  1  0
  2 15  1  0
  3  2  1  0
  4  3  2  0
  5  4  1  0
  5  6  2  0
  6  1  1  0
  7 16  1  0
  7  8  2  0
  8  9  1  0
  9 10  2  0
 11 12  2  0
 11 10  1  0
 13 12  1  0
 14 13  2  0
 15 14  1  0
 15 16  2  0
 16 11  1  0
 17 18  2  0
 17 22  1  0
 18 19  1  0
 19 23  1  0
 19 20  2  0
 20 21  1  0
 21  7  1  0
 22 21  2  0
 25  6  1  0
 26 27  1  0
 26 25  1  0
 27 35  1  0
 28 29  1  0
 28 27  2  0
 29 33  1  0
 30 29  1  0
 30 32  1  0
 31 30  2  0
 33 32  1  0
 33 34  1  0
 34 35  1  0
 36 28  1  0
 37 36  2  0
 38 36  1  0
  3 39  1  0
  4 40  1  0
  5 41  1  0
  8 42  1  0
  9 43  1  0
 10 44  1  0
 12 45  1  0
 13 46  1  0
 14 47  1  0
 17 48  1  0
 18 49  1  0
 23 50  1  0
 23 51  1  0
 24 52  1  0
 26 53  1  0
 26 54  1  0
 32 55  1  0
 32 56  1  0
 33 57  1  6
 35 58  1  0
 35 59  1  0
 38 60  1  0
M  ISO  8  39  14  40  14  41  14  42  14  43  14  44  14  45  14  46  14
M  ISO  8  47  14  48  14  49  14  52   3  53   8  54   8  55  13  56  13
M  ISO  4  57  13  58  13  59  13  60   3
M  END
>  <minimizedAffinity>  (1) 
-6.62255573

>  <minimizedRMSD>  (1) 
3.09652138

$$$$
