
     RDKit          3D

 53 56  0  0  1  0  0  0  0  0999 V2000
   48.5050   32.2410   36.9040 C   0  0  0  0  0  0  0  0  0  0  0  0
   47.8710   32.9600   37.9410 C   0  0  0  0  0  0  0  0  0  0  0  0
   46.5580   33.2650   37.6560 C   0  0  0  0  0  0  0  0  0  0  0  0
   45.8770   32.9410   36.5140 C   0  0  0  0  0  0  0  0  0  0  0  0
   46.5370   32.2430   35.5370 C   0  0  0  0  0  0  0  0  0  0  0  0
   47.8550   31.9000   35.7500 C   0  0  0  0  0  0  0  0  0  0  0  0
   49.0600   31.8870   33.6250 C   0  0  0  0  0  0  0  0  0  0  0  0
   48.9930   33.1690   33.5820 O   0  0  0  0  0  0  0  0  0  0  0  0
   48.5130   31.1740   34.7150 N   0  0  0  0  0  0  0  0  0  0  0  0
   49.7080   31.1460   32.5360 C   0  0  0  0  0  0  0  0  0  0  0  0
   49.0480   29.8330   32.2380 C   0  0  0  0  0  0  0  0  0  0  0  0
   47.9360   29.9470   31.2180 C   0  0  0  0  0  0  0  0  0  0  0  0
   48.2610   30.7140   30.1210 O   0  0  0  0  0  0  0  0  0  0  0  0
   48.5610   32.0320   30.5290 C   0  0  0  0  0  0  0  0  0  0  0  0
   49.8640   31.9440   31.2790 C   0  0  0  0  0  0  0  0  0  0  0  0
   48.4920   33.3360   39.1490 N   0  0  0  0  0  0  0  0  0  0  0  0
   47.4630   34.4580   42.3650 N   0  0  0  0  0  0  0  0  0  0  0  0
   47.4100   34.6440   40.9210 C   0  0  0  0  0  0  0  0  0  0  0  0
   48.0340   33.3470   40.5010 C   0  0  2  0  0  0  0  0  0  0  0  0
   49.2740   33.2940   41.3880 C   0  0  0  0  0  0  0  0  0  0  0  0
   48.7820   33.9420   42.6570 C   0  0  0  0  0  0  0  0  0  0  0  0
   44.6300   35.8530   44.3430 C   0  0  0  0  0  0  0  0  0  0  0  0
   45.5400   35.7170   43.2930 C   0  0  0  0  0  0  0  0  0  0  0  0
   46.4980   34.6950   43.3530 C   0  0  0  0  0  0  0  0  0  0  0  0
   46.4640   33.9040   44.4460 N   0  0  0  0  0  0  0  0  0  0  0  0
   45.5970   34.0280   45.4530 C   0  0  0  0  0  0  0  0  0  0  0  0
   44.6680   35.0220   45.3900 N   0  0  0  0  0  0  0  0  0  0  0  0
   50.9980   31.5940   37.2910 N   0  0  0  0  0  0  0  0  0  0  0  0
   49.8950   31.8790   37.1270 C   0  0  0  0  0  0  0  0  0  0  0  0
   46.0018   33.8245   38.4225 H   0  0  0  0  0  0  0  0  0  0  0  0
   44.8248   33.2340   36.3836 H   0  0  0  0  0  0  0  0  0  0  0  0
   46.0266   31.9627   34.6038 H   0  0  0  0  0  0  0  0  0  0  0  0
   48.5884   30.1478   34.7609 H   0  0  0  0  0  0  0  0  0  0  0  0
   50.7168   30.9355   32.9208 H   0  0  0  0  0  0  0  0  0  0  0  0
   49.8083   29.1385   31.8512 H   0  0  0  0  0  0  0  0  0  0  0  0
   48.5989   29.4710   33.1746 H   0  0  0  0  0  0  0  0  0  0  0  0
   47.6805   28.9353   30.8698 H   0  0  0  0  0  0  0  0  0  0  0  0
   47.0937   30.4468   31.7187 H   0  0  0  0  0  0  0  0  0  0  0  0
   48.6670   32.6891   29.6532 H   0  0  0  0  0  0  0  0  0  0  0  0
   47.7612   32.4532   31.1558 H   0  0  0  0  0  0  0  0  0  0  0  0
   50.6161   31.4612   30.6377 H   0  0  0  0  0  0  0  0  0  0  0  0
   50.1824   32.9620   31.5480 H   0  0  0  0  0  0  0  0  0  0  0  0
   49.4611   33.6657   39.0345 H   0  0  0  0  0  0  0  0  0  0  0  0
   46.3777   34.7440   40.5546 H   0  0  0  0  0  0  0  0  0  0  0  0
   47.8995   35.5525   40.5403 H   0  0  0  0  0  0  0  0  0  0  0  0
   47.3132   32.5206   40.5869 H   0  0  0  0  0  0  0  0  0  0  0  0
   49.5929   32.2566   41.5670 H   0  0  0  0  0  0  0  0  0  0  0  0
   50.1531   33.7893   40.9500 H   0  0  0  0  0  0  0  0  0  0  0  0
   49.4546   34.7610   42.9519 H   0  0  0  0  0  0  0  0  0  0  0  0
   48.7544   33.2223   43.4884 H   0  0  0  0  0  0  0  0  0  0  0  0
   43.8743   36.6516   44.3087 H   0  0  0  0  0  0  0  0  0  0  0  0
   45.5059   36.4009   42.4321 H   0  0  0  0  0  0  0  0  0  0  0  0
   45.6319   33.3436   46.3135 H   0  0  0  0  0  0  0  0  0  0  0  0
  1 29  1  0
  1  2  2  0
  2 16  1  0
  3  2  1  0
  4  3  2  0
  5  6  2  0
  5  4  1  0
  6  1  1  0
  7  9  1  0
  8  7  2  0
  9  6  1  0
 10  7  1  0
 11 10  1  0
 12 11  1  0
 13 14  1  0
 13 12  1  0
 14 15  1  0
 15 10  1  0
 16 19  1  0
 17 21  1  0
 17 24  1  0
 18 17  1  0
 19 18  1  0
 19 20  1  0
 20 21  1  0
 22 27  2  0
 23 24  2  0
 23 22  1  0
 24 25  1  0
 25 26  2  0
 27 26  1  0
 29 28  3  0
  3 30  1  0
  4 31  1  0
  5 32  1  0
  9 33  1  0
 10 34  1  0
 11 35  1  0
 11 36  1  0
 12 37  1  0
 12 38  1  0
 14 39  1  0
 14 40  1  0
 15 41  1  0
 15 42  1  0
 16 43  1  0
 18 44  1  0
 18 45  1  0
 19 46  1  6
 20 47  1  0
 20 48  1  0
 21 49  1  0
 21 50  1  0
 22 51  1  0
 23 52  1  0
 26 53  1  0
M  ISO  8  30  14  31  14  32  14  34  13  35  13  36  13  37  13  38  13
M  ISO  8  39  13  40  13  41  13  42  13  44  13  45  13  46  13  47  13
M  ISO  6  48  13  49  13  50  13  51  14  52  14  53  14
M  END
>  <minimizedAffinity>  (1) 
-6.02134323

>  <minimizedRMSD>  (1) 
1.22263503

$$$$
