
     RDKit          3D

 43 45  0  0  0  0  0  0  0  0999 V2000
   47.1830   34.4800   40.9860 C   0  0  0  0  0  0  0  0  0  0  0  0
   48.4830   33.9690   41.4660 C   0  0  0  0  0  0  0  0  0  0  0  0
   48.7270   32.6120   41.2720 C   0  0  0  0  0  0  0  0  0  0  0  0
   49.9240   32.0640   41.6920 C   0  0  0  0  0  0  0  0  0  0  0  0
   50.8350   32.8830   42.2880 N   0  0  0  0  0  0  0  0  0  0  0  0
   50.5640   34.2000   42.4600 C   0  0  0  0  0  0  0  0  0  0  0  0
   49.4150   34.7040   42.0520 N   0  0  0  0  0  0  0  0  0  0  0  0
   47.4870   31.5750   40.4750 S   0  0  0  0  0  0  0  0  0  0  0  0
   46.4440   30.7360   41.7090 C   0  0  0  0  0  0  0  0  0  0  0  0
   45.0050   31.0240   41.3670 C   0  0  0  0  0  0  0  0  0  0  0  0
   44.2600   31.4220   42.6040 C   0  0  0  0  0  0  0  0  0  0  0  0
   44.5980   30.4980   43.5930 O   0  0  0  0  0  0  0  0  0  0  0  0
   45.8580   30.7630   44.0970 C   0  0  0  0  0  0  0  0  0  0  0  0
   46.7800   31.3400   43.0540 C   0  0  0  0  0  0  0  0  0  0  0  0
   46.3420   35.0530   42.0710 C   0  0  0  0  0  0  0  0  0  0  0  0
   44.8740   34.9810   41.8040 C   0  0  0  0  0  0  0  0  0  0  0  0
   43.9440   35.4540   42.7760 C   0  0  0  0  0  0  0  0  0  0  0  0
   42.3220   35.1440   41.9800 S   0  0  0  0  0  0  0  0  0  0  0  0
   43.1820   34.4190   40.4460 C   0  0  0  0  0  0  0  0  0  0  0  0
   44.2840   34.5120   40.7310 N   0  0  0  0  0  0  0  0  0  0  0  0
   42.4800   33.9410   39.3450 O   0  0  0  0  0  0  0  0  0  0  0  0
   40.4990   34.3340   37.6430 O   0  0  0  0  0  0  0  0  0  0  0  0
   41.5690   35.0580   38.4500 P   0  0  0  0  0  0  0  0  0  0  0  0
   40.8330   36.1220   39.5440 O   0  0  0  0  0  0  0  0  0  0  0  0
   42.5800   35.9560   37.4400 O   0  0  0  0  0  0  0  0  0  0  0  0
   47.3703   35.2642   40.2377 H   0  0  0  0  0  0  0  0  0  0  0  0
   46.6329   33.6271   40.5618 H   0  0  0  0  0  0  0  0  0  0  0  0
   50.1358   30.9941   41.5488 H   0  0  0  0  0  0  0  0  0  0  0  0
   51.3065   34.8524   42.9427 H   0  0  0  0  0  0  0  0  0  0  0  0
   46.6094   29.6486   41.7249 H   0  0  0  0  0  0  0  0  0  0  0  0
   44.9606   31.8433   40.6343 H   0  0  0  0  0  0  0  0  0  0  0  0
   44.5449   30.1204   40.9405 H   0  0  0  0  0  0  0  0  0  0  0  0
   44.5560   32.4348   42.9149 H   0  0  0  0  0  0  0  0  0  0  0  0
   43.1746   31.4299   42.4256 H   0  0  0  0  0  0  0  0  0  0  0  0
   45.7644   31.4825   44.9238 H   0  0  0  0  0  0  0  0  0  0  0  0
   46.2907   29.8117   44.4403 H   0  0  0  0  0  0  0  0  0  0  0  0
   47.8228   31.1049   43.3134 H   0  0  0  0  0  0  0  0  0  0  0  0
   46.6550   32.4321   43.0118 H   0  0  0  0  0  0  0  0  0  0  0  0
   46.5522   34.5017   42.9994 H   0  0  0  0  0  0  0  0  0  0  0  0
   46.6003   36.1197   42.1442 H   0  0  0  0  0  0  0  0  0  0  0  0
   44.1495   35.8965   43.7619 H   0  0  0  0  0  0  0  0  0  0  0  0
   41.0325   35.8336   40.4698 H   0  0  0  0  0  0  0  0  0  0  0  0
   43.1953   36.5025   37.9903 H   0  0  0  0  0  0  0  0  0  0  0  0
  1  2  1  0
  1 15  1  0
  2  7  2  0
  3  2  1  0
  3  4  2  0
  4  5  1  0
  5  6  2  0
  7  6  1  0
  8  3  1  0
  8  9  1  0
  9 14  1  0
 10  9  1  0
 10 11  1  0
 11 12  1  0
 12 13  1  0
 14 13  1  0
 16 15  1  0
 16 17  2  0
 18 17  1  0
 19 20  2  0
 19 18  1  0
 20 16  1  0
 21 19  1  0
 22 23  2  0
 23 21  1  0
 23 24  1  0
 25 23  1  0
  1 26  1  0
  1 27  1  0
  4 28  1  0
  6 29  1  0
  9 30  1  0
 10 31  1  0
 10 32  1  0
 11 33  1  0
 11 34  1  0
 13 35  1  0
 13 36  1  0
 14 37  1  0
 14 38  1  0
 15 39  1  0
 15 40  1  0
 17 41  1  0
 24 42  1  0
 25 43  1  0
M  ISO  8  26   8  27   8  28  14  29  14  30  13  31  13  32  13  33  13
M  ISO  8  34  13  35  13  36  13  37  13  38  13  39   8  40   8  41  14
M  ISO  2  42   3  43   3
M  END
>  <minimizedAffinity>  (1) 
-4.45606995

>  <minimizedRMSD>  (1) 
0.968601167

$$$$
