
     RDKit          3D

 53 57  0  0  0  0  0  0  0  0999 V2000
   46.4650   32.8610   45.8200 C   0  0  0  0  0  0  0  0  0  0  0  0
   47.3910   31.8390   45.5710 C   0  0  0  0  0  0  0  0  0  0  0  0
   47.4970   31.0630   46.6670 C   0  0  0  0  0  0  0  0  0  0  0  0
   46.6690   31.5790   47.5670 N   0  0  0  0  0  0  0  0  0  0  0  0
   46.0390   32.6570   47.0860 N   0  0  0  0  0  0  0  0  0  0  0  0
   44.6850   35.6780   44.3080 C   0  0  0  0  0  0  0  0  0  0  0  0
   45.3650   35.8610   43.0940 C   0  0  0  0  0  0  0  0  0  0  0  0
   46.4440   34.9910   42.8160 C   0  0  0  0  0  0  0  0  0  0  0  0
   46.7140   34.0720   43.7460 N   0  0  0  0  0  0  0  0  0  0  0  0
   46.0720   33.9040   44.8870 C   0  0  0  0  0  0  0  0  0  0  0  0
   45.0520   34.7190   45.1590 N   0  0  0  0  0  0  0  0  0  0  0  0
   47.1750   35.1690   41.5280 C   0  0  0  0  0  0  0  0  0  0  0  0
   47.0790   33.9620   40.6340 C   0  0  0  0  0  0  0  0  0  0  0  0
   48.0870   32.8950   40.9110 C   0  0  0  0  0  0  0  0  0  0  0  0
   49.3770   33.4050   41.0370 O   0  0  0  0  0  0  0  0  0  0  0  0
   49.3710   34.2860   42.1420 C   0  0  0  0  0  0  0  0  0  0  0  0
   48.6250   35.5230   41.7080 C   0  0  0  0  0  0  0  0  0  0  0  0
   46.4480   31.0700   48.9160 C   0  0  0  0  0  0  0  0  0  0  0  0
   45.0870   30.4840   49.0360 C   0  0  0  0  0  0  0  0  0  0  0  0
   44.9070   27.9420   48.7960 C   0  0  0  0  0  0  0  0  0  0  0  0
   44.8300   29.2400   48.3410 C   0  0  0  0  0  0  0  0  0  0  0  0
   44.4480   29.3930   47.0070 C   0  0  0  0  0  0  0  0  0  0  0  0
   44.1670   28.3270   46.2010 C   0  0  0  0  0  0  0  0  0  0  0  0
   43.7860   28.1700   44.9210 N   0  0  0  0  0  0  0  0  0  0  0  0
   43.6370   26.8850   44.5960 C   0  0  0  0  0  0  0  0  0  0  0  0
   43.9300   26.1140   45.7150 C   0  0  0  0  0  0  0  0  0  0  0  0
   44.2490   27.0440   46.6730 C   0  0  0  0  0  0  0  0  0  0  0  0
   44.6280   26.8720   47.9940 C   0  0  0  0  0  0  0  0  0  0  0  0
   44.7290   25.5220   48.5390 C   0  0  0  0  0  0  0  0  0  0  0  0
   45.1110   25.3360   49.7220 O   0  0  0  0  0  0  0  0  0  0  0  0
   47.9431   31.6937   44.6308 H   0  0  0  0  0  0  0  0  0  0  0  0
   48.1403   30.1794   46.7912 H   0  0  0  0  0  0  0  0  0  0  0  0
   43.8388   36.3337   44.5607 H   0  0  0  0  0  0  0  0  0  0  0  0
   45.0700   36.6502   42.3868 H   0  0  0  0  0  0  0  0  0  0  0  0
   46.6669   36.0175   41.0464 H   0  0  0  0  0  0  0  0  0  0  0  0
   47.2106   34.2953   39.5940 H   0  0  0  0  0  0  0  0  0  0  0  0
   46.0930   33.5132   40.8248 H   0  0  0  0  0  0  0  0  0  0  0  0
   47.8150   32.3862   41.8475 H   0  0  0  0  0  0  0  0  0  0  0  0
   48.0825   32.1991   40.0591 H   0  0  0  0  0  0  0  0  0  0  0  0
   48.8623   33.8174   42.9974 H   0  0  0  0  0  0  0  0  0  0  0  0
   50.3959   34.5326   42.4561 H   0  0  0  0  0  0  0  0  0  0  0  0
   49.0378   35.8903   40.7569 H   0  0  0  0  0  0  0  0  0  0  0  0
   48.7283   36.3109   42.4686 H   0  0  0  0  0  0  0  0  0  0  0  0
   47.1965   30.2949   49.1374 H   0  0  0  0  0  0  0  0  0  0  0  0
   46.5407   31.9022   49.6294 H   0  0  0  0  0  0  0  0  0  0  0  0
   44.8969   30.3092   50.1052 H   0  0  0  0  0  0  0  0  0  0  0  0
   44.4235   31.2165   48.5531 H   0  0  0  0  0  0  0  0  0  0  0  0
   45.2030   27.7612   49.8399 H   0  0  0  0  0  0  0  0  0  0  0  0
   44.3706   30.4081   46.5904 H   0  0  0  0  0  0  0  0  0  0  0  0
   43.6278   28.9507   44.2680 H   0  0  0  0  0  0  0  0  0  0  0  0
   43.3340   26.5009   43.6108 H   0  0  0  0  0  0  0  0  0  0  0  0
   43.9108   25.0183   45.8102 H   0  0  0  0  0  0  0  0  0  0  0  0
   44.4684   24.6591   47.9086 H   0  0  0  0  0  0  0  0  0  0  0  0
  1  5  2  0
  2  1  1  0
  2  3  2  0
  3  4  1  0
  4 18  1  0
  5  4  1  0
  6 11  2  0
  7  6  1  0
  8  7  2  0
  8  9  1  0
  9 10  2  0
 10 11  1  0
 10  1  1  0
 12 17  1  0
 12  8  1  0
 13 14  1  0
 13 12  1  0
 14 15  1  0
 15 16  1  0
 17 16  1  0
 18 19  1  0
 21 20  2  0
 21 19  1  0
 22 21  1  0
 23 27  1  0
 23 22  2  0
 24 23  1  0
 25 24  1  0
 25 26  2  0
 26 27  1  0
 27 28  2  0
 28 29  1  0
 28 20  1  0
 29 30  2  0
  2 31  1  0
  3 32  1  0
  6 33  1  0
  7 34  1  0
 12 35  1  0
 13 36  1  0
 13 37  1  0
 14 38  1  0
 14 39  1  0
 16 40  1  0
 16 41  1  0
 17 42  1  0
 17 43  1  0
 18 44  1  0
 18 45  1  0
 19 46  1  0
 19 47  1  0
 20 48  1  0
 22 49  1  0
 24 50  1  0
 25 51  1  0
 26 52  1  0
 29 53  1  0
M  ISO  8  31  14  32  14  33  14  34  14  35  13  36  13  37  13  38  13
M  ISO  8  39  13  40  13  41  13  42  13  43  13  44   8  45   8  46   8
M  ISO  7  47   8  48  14  49  14  50   9  51  14  52  14  53   6
M  END
>  <minimizedAffinity>  (1) 
-6.24482346

>  <minimizedRMSD>  (1) 
1.30680656

$$$$
