
     RDKit          3D

 52 55  0  0  1  0  0  0  0  0999 V2000
   42.9920   33.8710   40.5060 C   0  0  1  0  0  0  0  0  0  0  0  0
   41.7240   34.3810   40.0580 N   0  0  0  0  0  0  0  0  0  0  0  0
   40.7240   33.3840   39.9690 C   0  0  0  0  0  0  0  0  0  0  0  0
   39.6080   34.0110   39.1110 C   0  0  0  0  0  0  0  0  0  0  0  0
   39.0170   34.9770   40.0010 N   0  0  0  0  0  0  0  0  0  0  0  0
   39.9180   35.9770   40.4150 C   0  0  0  0  0  0  0  0  0  0  0  0
   41.3090   35.4970   40.7990 C   0  0  0  0  0  0  0  0  0  0  0  0
   44.2430   31.8210   39.8440 C   0  0  0  0  0  0  0  0  0  0  0  0
   43.7290   33.0720   39.5780 C   0  0  0  0  0  0  0  0  0  0  0  0
   43.9670   33.5640   38.2790 C   0  0  0  0  0  0  0  0  0  0  0  0
   44.6690   32.8040   37.3830 N   0  0  0  0  0  0  0  0  0  0  0  0
   45.1450   31.5780   37.7240 C   0  0  0  0  0  0  0  0  0  0  0  0
   44.9290   31.0890   38.9590 N   0  0  0  0  0  0  0  0  0  0  0  0
   43.8780   35.0490   40.9320 C   0  0  0  0  0  0  0  0  0  0  0  0
   44.8050   34.7960   41.9860 C   0  0  0  0  0  0  0  0  0  0  0  0
   44.7980   34.7220   43.3380 C   0  0  0  0  0  0  0  0  0  0  0  0
   45.8530   34.4630   44.1920 C   0  0  0  0  0  0  0  0  0  0  0  0
   47.0280   34.2640   43.5900 N   0  0  0  0  0  0  0  0  0  0  0  0
   47.1280   34.3170   42.2820 C   0  0  0  0  0  0  0  0  0  0  0  0
   46.0610   34.5710   41.5390 N   0  0  0  0  0  0  0  0  0  0  0  0
   48.4930   34.0780   41.6860 C   0  0  0  0  0  0  0  0  0  0  0  0
   48.3070   33.7520   40.2440 C   0  0  0  0  0  0  0  0  0  0  0  0
   49.0990   32.6050   39.7220 C   0  0  0  0  0  0  0  0  0  0  0  0
   49.3870   31.6030   40.6100 O   0  0  0  0  0  0  0  0  0  0  0  0
   48.6260   31.6550   41.7640 C   0  0  0  0  0  0  0  0  0  0  0  0
   49.0600   32.9070   42.4970 C   0  0  0  0  0  0  0  0  0  0  0  0
   42.7364   33.1903   41.3314 H   0  0  0  0  0  0  0  0  0  0  0  0
   41.1218   32.4800   39.4847 H   0  0  0  0  0  0  0  0  0  0  0  0
   40.3588   33.0766   40.9600 H   0  0  0  0  0  0  0  0  0  0  0  0
   40.0239   34.4996   38.2175 H   0  0  0  0  0  0  0  0  0  0  0  0
   38.8860   33.2723   38.7328 H   0  0  0  0  0  0  0  0  0  0  0  0
   38.2279   35.4281   39.5165 H   0  0  0  0  0  0  0  0  0  0  0  0
   40.0252   36.6971   39.5904 H   0  0  0  0  0  0  0  0  0  0  0  0
   39.4868   36.4068   41.3312 H   0  0  0  0  0  0  0  0  0  0  0  0
   41.3059   35.2288   41.8658 H   0  0  0  0  0  0  0  0  0  0  0  0
   42.0119   36.3157   40.5853 H   0  0  0  0  0  0  0  0  0  0  0  0
   44.0789   31.3983   40.8462 H   0  0  0  0  0  0  0  0  0  0  0  0
   43.5900   34.5551   37.9863 H   0  0  0  0  0  0  0  0  0  0  0  0
   45.7081   30.9839   36.9891 H   0  0  0  0  0  0  0  0  0  0  0  0
   44.4525   35.3715   40.0511 H   0  0  0  0  0  0  0  0  0  0  0  0
   43.1861   35.8075   41.3269 H   0  0  0  0  0  0  0  0  0  0  0  0
   43.8238   34.8903   43.8202 H   0  0  0  0  0  0  0  0  0  0  0  0
   45.7338   34.4238   45.2848 H   0  0  0  0  0  0  0  0  0  0  0  0
   49.1799   34.9359   41.7315 H   0  0  0  0  0  0  0  0  0  0  0  0
   47.2425   33.5243   40.0860 H   0  0  0  0  0  0  0  0  0  0  0  0
   48.6681   34.6335   39.6940 H   0  0  0  0  0  0  0  0  0  0  0  0
   48.5337   32.1607   38.8896 H   0  0  0  0  0  0  0  0  0  0  0  0
   50.0732   33.0305   39.4395 H   0  0  0  0  0  0  0  0  0  0  0  0
   47.5563   31.7106   41.5137 H   0  0  0  0  0  0  0  0  0  0  0  0
   48.7712   30.7567   42.3820 H   0  0  0  0  0  0  0  0  0  0  0  0
   50.1576   32.9657   42.5399 H   0  0  0  0  0  0  0  0  0  0  0  0
   48.6962   32.9173   43.5350 H   0  0  0  0  0  0  0  0  0  0  0  0
  1 14  1  0
  2  1  1  0
  2  7  1  0
  3  2  1  0
  4  3  1  0
  4  5  1  0
  5  6  1  0
  6  7  1  0
  9  8  2  0
  9  1  1  0
 10  9  1  0
 11 12  1  0
 11 10  2  0
 12 13  2  0
 13  8  1  0
 14 15  1  0
 15 16  2  0
 16 17  1  0
 18 17  2  0
 19 18  1  0
 20 15  1  0
 20 19  2  0
 21 19  1  0
 21 26  1  0
 22 21  1  0
 23 22  1  0
 23 24  1  0
 24 25  1  0
 25 26  1  0
  1 27  1  1
  3 28  1  0
  3 29  1  0
  4 30  1  0
  4 31  1  0
  5 32  1  0
  6 33  1  0
  6 34  1  0
  7 35  1  0
  7 36  1  0
  8 37  1  0
 10 38  1  0
 12 39  1  0
 14 40  1  0
 14 41  1  0
 16 42  1  0
 17 43  1  0
 21 44  1  0
 22 45  1  0
 22 46  1  0
 23 47  1  0
 23 48  1  0
 25 49  1  0
 25 50  1  0
 26 51  1  0
 26 52  1  0
M  ISO  8  27   8  28  13  29  13  30  13  31  13  32   5  33  13  34  13
M  ISO  8  35  13  36  13  37  14  38  14  39  14  40   8  41   8  42  14
M  ISO  8  43  14  44  13  45  13  46  13  47  13  48  13  49  13  50  13
M  ISO  2  51  13  52  13
M  END
>  <minimizedAffinity>  (1) 
-4.92284727

>  <minimizedRMSD>  (1) 
3.60084939

$$$$
