
     RDKit          3D

 31 33  0  0  1  0  0  0  0  0999 V2000
   46.7210   35.1060   41.6740 C   0  0  1  0  0  0  0  0  0  0  0  0
   48.2270   35.2270   41.7500 C   0  0  0  0  0  0  0  0  0  0  0  0
   47.5180   33.9500   41.2730 C   0  0  2  0  0  0  0  0  0  0  0  0
   47.5300   33.5960   39.8280 C   0  0  0  0  0  0  0  0  0  0  0  0
   46.2030   33.3280   39.2080 C   0  0  0  0  0  0  0  0  0  0  0  0
   46.4530   32.7790   37.8140 C   0  0  0  0  0  0  0  0  0  0  0  0
   47.2110   33.6700   37.0590 O   0  0  0  0  0  0  0  0  0  0  0  0
   48.4640   33.8410   37.6230 C   0  0  0  0  0  0  0  0  0  0  0  0
   48.2620   34.5890   38.9460 C   0  0  0  0  0  0  0  0  0  0  0  0
   44.5300   35.8830   44.6410 C   0  0  0  0  0  0  0  0  0  0  0  0
   45.1190   36.0220   43.3640 C   0  0  0  0  0  0  0  0  0  0  0  0
   46.0560   35.0600   43.0200 C   0  0  0  0  0  0  0  0  0  0  0  0
   46.3620   34.0480   43.9000 N   0  0  0  0  0  0  0  0  0  0  0  0
   45.7720   33.9510   45.1180 C   0  0  0  0  0  0  0  0  0  0  0  0
   44.8610   34.8740   45.4690 N   0  0  0  0  0  0  0  0  0  0  0  0
   45.9080   35.6554   41.1768 H   0  0  0  0  0  0  0  0  0  0  0  0
   48.7721   35.8619   41.0360 H   0  0  0  0  0  0  0  0  0  0  0  0
   48.9647   35.4832   42.5247 H   0  0  0  0  0  0  0  0  0  0  0  0
   47.5763   32.8919   41.5681 H   0  0  0  0  0  0  0  0  0  0  0  0
   48.0848   32.6468   39.8636 H   0  0  0  0  0  0  0  0  0  0  0  0
   45.6499   32.5907   39.8084 H   0  0  0  0  0  0  0  0  0  0  0  0
   45.6046   34.2497   39.1599 H   0  0  0  0  0  0  0  0  0  0  0  0
   46.9933   31.8242   37.8942 H   0  0  0  0  0  0  0  0  0  0  0  0
   45.4839   32.6306   37.3151 H   0  0  0  0  0  0  0  0  0  0  0  0
   48.9309   32.8627   37.8097 H   0  0  0  0  0  0  0  0  0  0  0  0
   49.1239   34.4069   36.9490 H   0  0  0  0  0  0  0  0  0  0  0  0
   49.2300   34.8650   39.3896 H   0  0  0  0  0  0  0  0  0  0  0  0
   47.7046   35.5286   38.8175 H   0  0  0  0  0  0  0  0  0  0  0  0
   43.7807   36.6191   44.9675 H   0  0  0  0  0  0  0  0  0  0  0  0
   44.8502   36.8438   42.6841 H   0  0  0  0  0  0  0  0  0  0  0  0
   46.0344   33.1327   45.8046 H   0  0  0  0  0  0  0  0  0  0  0  0
  1  2  1  0
  1 12  1  0
  3  1  1  0
  3  2  1  0
  4  3  1  0
  5  4  1  0
  6  5  1  0
  7  8  1  0
  7  6  1  0
  8  9  1  0
  9  4  1  0
 10 15  2  0
 11 10  1  0
 12 11  2  0
 12 13  1  0
 13 14  2  0
 14 15  1  0
  1 16  1  6
  2 17  1  0
  2 18  1  0
  3 19  1  1
  4 20  1  0
  5 21  1  0
  5 22  1  0
  6 23  1  0
  6 24  1  0
  8 25  1  0
  8 26  1  0
  9 27  1  0
  9 28  1  0
 10 29  1  0
 11 30  1  0
 14 31  1  0
M  ISO  8  16  13  17  13  18  13  19  13  20  13  21  13  22  13  23  13
M  ISO  8  24  13  25  13  26  13  27  13  28  13  29  14  30  14  31  14
M  END
>  <minimizedAffinity>  (1) 
-4.79248095

>  <minimizedRMSD>  (1) 
1.27722299

$$$$
