
     RDKit          3D

 37 39  0  0  1  0  0  0  0  0999 V2000
   47.7050   33.5160   42.8480 C   0  0  2  0  0  0  0  0  0  0  0  0
   49.0670   34.0910   43.0890 C   0  0  0  0  0  0  0  0  0  0  0  0
   49.2640   34.9040   41.8270 C   0  0  0  0  0  0  0  0  0  0  0  0
   47.8650   35.3400   41.4130 C   0  0  0  0  0  0  0  0  0  0  0  0
   46.9600   34.8070   42.4890 C   0  0  1  0  0  0  0  0  0  0  0  0
   45.5900   34.4570   42.0430 C   0  0  0  0  0  0  0  0  0  0  0  0
   44.6430   35.6050   42.3780 C   0  0  0  0  0  0  0  0  0  0  0  0
   43.2860   35.3860   41.7480 C   0  0  0  0  0  0  0  0  0  0  0  0
   43.3260   35.0640   40.4130 O   0  0  0  0  0  0  0  0  0  0  0  0
   44.0000   33.8540   40.2670 C   0  0  0  0  0  0  0  0  0  0  0  0
   45.4640   34.1020   40.5880 C   0  0  0  0  0  0  0  0  0  0  0  0
   46.3750   30.9340   45.2640 C   0  0  0  0  0  0  0  0  0  0  0  0
   46.9500   31.4740   44.1190 C   0  0  0  0  0  0  0  0  0  0  0  0
   47.1040   32.8500   44.0160 C   0  0  0  0  0  0  0  0  0  0  0  0
   46.6710   33.6200   45.0780 N   0  0  0  0  0  0  0  0  0  0  0  0
   46.1210   33.0570   46.1670 C   0  0  0  0  0  0  0  0  0  0  0  0
   45.9710   31.7300   46.2660 N   0  0  0  0  0  0  0  0  0  0  0  0
   47.6891   32.7107   42.0988 H   0  0  0  0  0  0  0  0  0  0  0  0
   49.0841   34.7271   43.9863 H   0  0  0  0  0  0  0  0  0  0  0  0
   49.8503   33.3408   43.2723 H   0  0  0  0  0  0  0  0  0  0  0  0
   49.8981   35.7803   42.0273 H   0  0  0  0  0  0  0  0  0  0  0  0
   49.7654   34.3246   41.0378 H   0  0  0  0  0  0  0  0  0  0  0  0
   47.8008   36.4369   41.3614 H   0  0  0  0  0  0  0  0  0  0  0  0
   47.5912   34.9625   40.4167 H   0  0  0  0  0  0  0  0  0  0  0  0
   46.7929   35.5453   43.2871 H   0  0  0  0  0  0  0  0  0  0  0  0
   45.3227   33.5400   42.5886 H   0  0  0  0  0  0  0  0  0  0  0  0
   44.5270   35.6693   43.4700 H   0  0  0  0  0  0  0  0  0  0  0  0
   45.0682   36.5387   41.9813 H   0  0  0  0  0  0  0  0  0  0  0  0
   42.7855   34.5666   42.2848 H   0  0  0  0  0  0  0  0  0  0  0  0
   42.7461   36.3413   41.8248 H   0  0  0  0  0  0  0  0  0  0  0  0
   43.5852   33.1076   40.9604 H   0  0  0  0  0  0  0  0  0  0  0  0
   43.8888   33.4711   39.2418 H   0  0  0  0  0  0  0  0  0  0  0  0
   46.0472   33.1933   40.3778 H   0  0  0  0  0  0  0  0  0  0  0  0
   45.8469   34.9265   39.9687 H   0  0  0  0  0  0  0  0  0  0  0  0
   46.2501   29.8444   45.3493 H   0  0  0  0  0  0  0  0  0  0  0  0
   47.2802   30.8164   43.3014 H   0  0  0  0  0  0  0  0  0  0  0  0
   45.7869   33.6998   46.9948 H   0  0  0  0  0  0  0  0  0  0  0  0
  1  2  1  0
  1 14  1  0
  3  2  1  0
  4  3  1  0
  4  5  1  0
  5  1  1  0
  6  7  1  0
  6  5  1  0
  8  7  1  0
  9  8  1  0
 10  9  1  0
 10 11  1  0
 11  6  1  0
 12 17  2  0
 13 12  1  0
 14 13  2  0
 14 15  1  0
 15 16  2  0
 16 17  1  0
  1 18  1  6
  2 19  1  0
  2 20  1  0
  3 21  1  0
  3 22  1  0
  4 23  1  0
  4 24  1  0
  5 25  1  1
  6 26  1  0
  7 27  1  0
  7 28  1  0
  8 29  1  0
  8 30  1  0
 10 31  1  0
 10 32  1  0
 11 33  1  0
 11 34  1  0
 12 35  1  0
 13 36  1  0
 16 37  1  0
M  ISO  8  18  13  19  13  20  13  21  13  22  13  23  13  24  13  25  13
M  ISO  8  26  13  27  13  28  13  29  13  30  13  31  13  32  13  33  13
M  ISO  4  34  13  35  14  36  14  37  14
M  END
>  <minimizedAffinity>  (1) 
-4.71349764

>  <minimizedRMSD>  (1) 
4.5122633

$$$$
