
     RDKit          3D

 36 37  0  0  0  0  0  0  0  0999 V2000
   44.7590   31.3060   43.1180 S   0  0  0  0  0  0  0  0  0  0  0  0
   43.0770   31.5990   42.8140 N   0  0  0  0  0  0  0  0  0  0  0  0
   42.7410   31.3360   41.4060 C   0  0  0  0  0  0  0  0  0  0  0  0
   40.9760   31.5010   41.2310 S   0  0  0  0  0  0  0  0  0  0  0  0
   39.5650   33.7510   40.4690 C   0  0  0  0  0  0  0  0  0  0  0  0
   40.5820   32.8780   40.1310 C   0  0  0  0  0  0  0  0  0  0  0  0
   41.3090   33.0440   38.9570 C   0  0  0  0  0  0  0  0  0  0  0  0
   40.9700   34.1060   38.1570 N   0  0  0  0  0  0  0  0  0  0  0  0
   39.9730   34.9200   38.5370 C   0  0  0  0  0  0  0  0  0  0  0  0
   39.2660   34.7900   39.6420 N   0  0  0  0  0  0  0  0  0  0  0  0
   44.9500   30.3830   44.2720 O   0  0  0  0  0  0  0  0  0  0  0  0
   45.3000   30.6770   41.8540 O   0  0  0  0  0  0  0  0  0  0  0  0
   45.5590   32.7620   43.2960 O   0  0  0  0  0  0  0  0  0  0  0  0
   44.7090   33.8590   43.3330 C   0  0  0  0  0  0  0  0  0  0  0  0
   44.9980   34.6720   42.0830 C   0  0  0  0  0  0  0  0  0  0  0  0
   46.0530   35.6880   42.5330 C   0  0  0  0  0  0  0  0  0  0  0  0
   45.3710   36.6700   43.2330 O   0  0  0  0  0  0  0  0  0  0  0  0
   44.7460   36.1720   44.3460 C   0  0  0  0  0  0  0  0  0  0  0  0
   44.9100   34.6970   44.5710 C   0  0  0  0  0  0  0  0  0  0  0  0
   42.5136   30.9813   43.4156 H   0  0  0  0  0  0  0  0  0  0  0  0
   43.2515   32.0627   40.7569 H   0  0  0  0  0  0  0  0  0  0  0  0
   43.0644   30.3258   41.1148 H   0  0  0  0  0  0  0  0  0  0  0  0
   39.0000   33.6068   41.4018 H   0  0  0  0  0  0  0  0  0  0  0  0
   42.1203   32.3540   38.6818 H   0  0  0  0  0  0  0  0  0  0  0  0
   39.7262   35.7623   37.8740 H   0  0  0  0  0  0  0  0  0  0  0  0
   44.8458   30.8865   45.1180 H   0  0  0  0  0  0  0  0  0  0  0  0
   45.9269   29.9481   42.0903 H   0  0  0  0  0  0  0  0  0  0  0  0
   43.6622   33.5227   43.3653 H   0  0  0  0  0  0  0  0  0  0  0  0
   44.0896   35.1826   41.7307 H   0  0  0  0  0  0  0  0  0  0  0  0
   45.3428   34.0489   41.2447 H   0  0  0  0  0  0  0  0  0  0  0  0
   46.7963   35.2032   43.1829 H   0  0  0  0  0  0  0  0  0  0  0  0
   46.5939   36.1111   41.6737 H   0  0  0  0  0  0  0  0  0  0  0  0
   45.1495   36.6962   45.2249 H   0  0  0  0  0  0  0  0  0  0  0  0
   43.6699   36.3366   44.1884 H   0  0  0  0  0  0  0  0  0  0  0  0
   44.1761   34.3791   45.3262 H   0  0  0  0  0  0  0  0  0  0  0  0
   45.9491   34.5393   44.8955 H   0  0  0  0  0  0  0  0  0  0  0  0
  1 13  1  0
  1 11  1  0
  2  1  1  0
  3  2  1  0
  4  3  1  0
  6  5  2  0
  6  4  1  0
  7  6  1  0
  8  9  1  0
  8  7  2  0
  9 10  2  0
 10  5  1  0
 12  1  1  0
 13 14  1  0
 14 19  1  0
 15 16  1  0
 15 14  1  0
 16 17  1  0
 17 18  1  0
 18 19  1  0
  2 20  1  0
  3 21  1  0
  3 22  1  0
  5 23  1  0
  7 24  1  0
  9 25  1  0
 11 26  1  0
 12 27  1  0
 14 28  1  0
 15 29  1  0
 15 30  1  0
 16 31  1  0
 16 32  1  0
 18 33  1  0
 18 34  1  0
 19 35  1  0
 19 36  1  0
M  ISO  8  20   5  21   8  22   8  23  14  24  14  25  14  26   3  27   3
M  ISO  8  28  13  29  13  30  13  31  13  32  13  33  13  34  13  35  13
M  ISO  1  36  13
M  END
>  <minimizedAffinity>  (1) 
-3.89128375

>  <minimizedRMSD>  (1) 
3.44156766

$$$$
