
     RDKit          3D

 44 48  0  0  0  0  0  0  0  0999 V2000
   47.3410   31.3370   45.2080 C   0  0  0  0  0  0  0  0  0  0  0  0
   46.9190   32.6500   45.1110 C   0  0  0  0  0  0  0  0  0  0  0  0
   46.2530   33.3100   46.1380 C   0  0  0  0  0  0  0  0  0  0  0  0
   45.9850   32.6490   47.3280 C   0  0  0  0  0  0  0  0  0  0  0  0
   45.3830   32.9570   48.5020 N   0  0  0  0  0  0  0  0  0  0  0  0
   45.4290   31.8650   49.3090 C   0  0  0  0  0  0  0  0  0  0  0  0
   46.0640   30.8860   48.6220 N   0  0  0  0  0  0  0  0  0  0  0  0
   46.4180   31.3360   47.4010 C   0  0  0  0  0  0  0  0  0  0  0  0
   47.0770   30.6600   46.4020 C   0  0  0  0  0  0  0  0  0  0  0  0
   46.6190   35.0990   42.3780 C   0  0  0  0  0  0  0  0  0  0  0  0
   47.6910   34.7680   41.5560 C   0  0  0  0  0  0  0  0  0  0  0  0
   48.5200   33.6980   41.9420 C   0  0  0  0  0  0  0  0  0  0  0  0
   48.2330   33.0390   43.1040 N   0  0  0  0  0  0  0  0  0  0  0  0
   47.1730   33.3940   43.8800 C   0  0  0  0  0  0  0  0  0  0  0  0
   46.3780   34.4110   43.5240 N   0  0  0  0  0  0  0  0  0  0  0  0
   47.4890   29.2650   46.5940 C   0  0  0  0  0  0  0  0  0  0  0  0
   48.7930   28.8130   46.3910 C   0  0  0  0  0  0  0  0  0  0  0  0
   48.7000   27.4460   46.6900 C   0  0  0  0  0  0  0  0  0  0  0  0
   47.3830   27.1620   47.0470 C   0  0  0  0  0  0  0  0  0  0  0  0
   46.7060   28.3000   46.9670 O   0  0  0  0  0  0  0  0  0  0  0  0
   46.7720   25.8840   47.4460 C   0  0  0  0  0  0  0  0  0  0  0  0
   47.3550   25.3410   48.7090 C   0  0  0  0  0  0  0  0  0  0  0  0
   46.2750   24.4630   49.3500 C   0  0  0  0  0  0  0  0  0  0  0  0
   45.6920   23.7660   48.2880 O   0  0  0  0  0  0  0  0  0  0  0  0
   44.7350   24.5980   47.6710 C   0  0  0  0  0  0  0  0  0  0  0  0
   45.2690   26.0130   47.6550 C   0  0  0  0  0  0  0  0  0  0  0  0
   47.8651   30.8434   44.3763 H   0  0  0  0  0  0  0  0  0  0  0  0
   45.9387   34.3560   46.0069 H   0  0  0  0  0  0  0  0  0  0  0  0
   44.9616   33.8656   48.7422 H   0  0  0  0  0  0  0  0  0  0  0  0
   45.0258   31.7901   50.3297 H   0  0  0  0  0  0  0  0  0  0  0  0
   45.9564   35.9305   42.0957 H   0  0  0  0  0  0  0  0  0  0  0  0
   47.8857   35.3274   40.6291 H   0  0  0  0  0  0  0  0  0  0  0  0
   49.3787   33.3994   41.3228 H   0  0  0  0  0  0  0  0  0  0  0  0
   49.6763   29.3871   46.0745 H   0  0  0  0  0  0  0  0  0  0  0  0
   49.5262   26.7210   46.6496 H   0  0  0  0  0  0  0  0  0  0  0  0
   46.9838   25.1956   46.6146 H   0  0  0  0  0  0  0  0  0  0  0  0
   48.2492   24.7403   48.4863 H   0  0  0  0  0  0  0  0  0  0  0  0
   47.6585   26.1530   49.3861 H   0  0  0  0  0  0  0  0  0  0  0  0
   46.7239   23.7634   50.0705 H   0  0  0  0  0  0  0  0  0  0  0  0
   45.5362   25.0594   49.9055 H   0  0  0  0  0  0  0  0  0  0  0  0
   44.5561   24.2571   46.6406 H   0  0  0  0  0  0  0  0  0  0  0  0
   43.7868   24.5590   48.2273 H   0  0  0  0  0  0  0  0  0  0  0  0
   45.0563   26.5140   48.6109 H   0  0  0  0  0  0  0  0  0  0  0  0
   44.7993   26.6153   46.8634 H   0  0  0  0  0  0  0  0  0  0  0  0
  1  9  2  0
  2  1  1  0
  2  3  2  0
  3  4  1  0
  4  8  2  0
  4  5  1  0
  5  6  1  0
  7  6  2  0
  8  7  1  0
  9 16  1  0
  9  8  1  0
 10 15  2  0
 11 12  2  0
 11 10  1  0
 12 13  1  0
 13 14  2  0
 14  2  1  0
 15 14  1  0
 16 20  1  0
 17 16  2  0
 17 18  1  0
 18 19  2  0
 19 21  1  0
 20 19  1  0
 21 26  1  0
 21 22  1  0
 22 23  1  0
 24 23  1  0
 25 24  1  0
 26 25  1  0
  1 27  1  0
  3 28  1  0
  5 29  1  0
  6 30  1  0
 10 31  1  0
 11 32  1  0
 12 33  1  0
 17 34  1  0
 18 35  1  0
 21 36  1  0
 22 37  1  0
 22 38  1  0
 23 39  1  0
 23 40  1  0
 25 41  1  0
 25 42  1  0
 26 43  1  0
 26 44  1  0
M  ISO  8  27  14  28  14  29   9  30  14  31  14  32  14  33  14  34  14
M  ISO  8  35  14  36  13  37  13  38  13  39  13  40  13  41  13  42  13
M  ISO  2  43  13  44  13
M  END
>  <minimizedAffinity>  (1) 
-5.88110304

>  <minimizedRMSD>  (1) 
1.13336468

$$$$
