
     RDKit          3D

 27 28  0  0  0  0  0  0  0  0999 V2000
   44.8740   34.8430   45.2170 C   0  0  0  0  0  0  0  0  0  0  0  0
   45.4950   34.7800   43.9630 C   0  0  0  0  0  0  0  0  0  0  0  0
   46.5450   33.8760   43.8130 C   0  0  0  0  0  0  0  0  0  0  0  0
   46.9200   33.1080   44.8630 N   0  0  0  0  0  0  0  0  0  0  0  0
   46.2900   33.2050   46.0560 C   0  0  0  0  0  0  0  0  0  0  0  0
   45.2770   34.0600   46.2420 N   0  0  0  0  0  0  0  0  0  0  0  0
   46.6840   32.3690   47.2310 C   0  0  0  0  0  0  0  0  0  0  0  0
   46.9820   30.9880   46.7670 C   0  0  0  0  0  0  0  0  0  0  0  0
   46.4040   29.9090   47.6650 C   0  0  0  0  0  0  0  0  0  0  0  0
   45.0490   30.2040   47.8020 O   0  0  0  0  0  0  0  0  0  0  0  0
   44.9370   31.2540   48.6920 C   0  0  0  0  0  0  0  0  0  0  0  0
   45.6440   32.5040   48.2890 C   0  0  0  0  0  0  0  0  0  0  0  0
   44.9720   35.6860   42.9110 C   0  0  0  0  0  0  0  0  0  0  0  0
   45.3220   36.9750   43.2900 F   0  0  0  0  0  0  0  0  0  0  0  0
   43.6100   35.5470   42.8470 F   0  0  0  0  0  0  0  0  0  0  0  0
   45.5810   35.3190   41.6990 F   0  0  0  0  0  0  0  0  0  0  0  0
   44.0408   35.5446   45.3706 H   0  0  0  0  0  0  0  0  0  0  0  0
   47.0655   33.7871   42.8481 H   0  0  0  0  0  0  0  0  0  0  0  0
   47.6158   32.7103   47.7057 H   0  0  0  0  0  0  0  0  0  0  0  0
   46.5633   30.8620   45.7576 H   0  0  0  0  0  0  0  0  0  0  0  0
   48.0756   30.8704   46.7830 H   0  0  0  0  0  0  0  0  0  0  0  0
   46.5343   28.9187   47.2041 H   0  0  0  0  0  0  0  0  0  0  0  0
   46.9104   29.8852   48.6412 H   0  0  0  0  0  0  0  0  0  0  0  0
   43.8688   31.4893   48.8086 H   0  0  0  0  0  0  0  0  0  0  0  0
   45.4161   30.9181   49.6235 H   0  0  0  0  0  0  0  0  0  0  0  0
   46.1308   32.9161   49.1852 H   0  0  0  0  0  0  0  0  0  0  0  0
   44.8674   33.1493   47.8525 H   0  0  0  0  0  0  0  0  0  0  0  0
  1  6  2  0
  2  1  1  0
  3  2  2  0
  3  4  1  0
  4  5  2  0
  5  6  1  0
  5  7  1  0
  7 12  1  0
  8  7  1  0
  8  9  1  0
  9 10  1  0
 10 11  1  0
 12 11  1  0
 13 14  1  0
 13  2  1  0
 15 13  1  0
 16 13  1  0
  1 17  1  0
  3 18  1  0
  7 19  1  0
  8 20  1  0
  8 21  1  0
  9 22  1  0
  9 23  1  0
 11 24  1  0
 11 25  1  0
 12 26  1  0
 12 27  1  0
M  ISO  8  17  14  18  14  19  13  20  13  21  13  22  13  23  13  24  13
M  ISO  3  25  13  26  13  27  13
M  END
>  <minimizedAffinity>  (1) 
-5.20512152

>  <minimizedRMSD>  (1) 
1.21232224

$$$$
