
     RDKit          3D

 51 53  0  0  0  0  0  0  0  0999 V2000
   45.3620   30.2880   47.1320 C   0  0  0  0  0  0  0  0  0  0  0  0
   46.2010   31.2700   46.7240 C   0  0  0  0  0  0  0  0  0  0  0  0
   46.5430   32.2650   47.6190 C   0  0  0  0  0  0  0  0  0  0  0  0
   46.0680   32.3000   48.9080 C   0  0  0  0  0  0  0  0  0  0  0  0
   45.2150   31.2960   49.3210 C   0  0  0  0  0  0  0  0  0  0  0  0
   44.8740   30.3010   48.4210 C   0  0  0  0  0  0  0  0  0  0  0  0
   44.8810   29.1280   45.9370 S   0  0  0  0  0  0  0  0  0  0  0  0
   44.8280   29.6390   44.5610 O   0  0  0  0  0  0  0  0  0  0  0  0
   43.4060   28.7990   46.2850 O   0  0  0  0  0  0  0  0  0  0  0  0
   45.5680   27.5220   46.1050 C   0  0  0  0  0  0  0  0  0  0  0  0
   44.5000   26.5590   45.5860 C   0  0  0  0  0  0  0  0  0  0  0  0
   43.3720   26.3750   46.5610 C   0  0  0  0  0  0  0  0  0  0  0  0
   43.7990   25.9570   47.7980 O   0  0  0  0  0  0  0  0  0  0  0  0
   44.7520   26.7540   48.3740 C   0  0  0  0  0  0  0  0  0  0  0  0
   45.9030   27.1270   47.5020 C   0  0  0  0  0  0  0  0  0  0  0  0
   46.7910   31.4160   45.4770 O   0  0  0  0  0  0  0  0  0  0  0  0
   45.4390   34.2130   43.8140 C   0  0  0  0  0  0  0  0  0  0  0  0
   46.5590   34.7190   43.1160 C   0  0  0  0  0  0  0  0  0  0  0  0
   47.7680   34.0840   43.2320 C   0  0  0  0  0  0  0  0  0  0  0  0
   47.7960   33.0010   44.0210 N   0  0  0  0  0  0  0  0  0  0  0  0
   46.7500   32.5260   44.6740 C   0  0  0  0  0  0  0  0  0  0  0  0
   45.5680   33.1310   44.5710 N   0  0  0  0  0  0  0  0  0  0  0  0
   48.9870   34.5150   42.5390 C   0  0  0  0  0  0  0  0  0  0  0  0
   48.7520   35.6780   41.6210 C   0  0  0  0  0  0  0  0  0  0  0  0
   48.6130   35.2990   40.2160 C   0  0  0  0  0  0  0  0  0  0  0  0
   48.0900   34.3580   39.4400 C   0  0  0  0  0  0  0  0  0  0  0  0
   48.2430   34.2310   37.9380 C   0  0  0  0  0  0  0  0  0  0  0  0
   47.2238   33.0624   47.2861 H   0  0  0  0  0  0  0  0  0  0  0  0
   46.3603   33.1085   49.5942 H   0  0  0  0  0  0  0  0  0  0  0  0
   44.8141   31.2869   50.3453 H   0  0  0  0  0  0  0  0  0  0  0  0
   44.1946   29.4983   48.7436 H   0  0  0  0  0  0  0  0  0  0  0  0
   46.5191   27.4998   45.5527 H   0  0  0  0  0  0  0  0  0  0  0  0
   44.0923   26.9574   44.6452 H   0  0  0  0  0  0  0  0  0  0  0  0
   44.9766   25.5791   45.4358 H   0  0  0  0  0  0  0  0  0  0  0  0
   42.8474   27.3349   46.6764 H   0  0  0  0  0  0  0  0  0  0  0  0
   42.7107   25.5937   46.1580 H   0  0  0  0  0  0  0  0  0  0  0  0
   44.2619   27.6829   48.7009 H   0  0  0  0  0  0  0  0  0  0  0  0
   45.1805   26.1600   49.1947 H   0  0  0  0  0  0  0  0  0  0  0  0
   46.5811   26.2623   47.4530 H   0  0  0  0  0  0  0  0  0  0  0  0
   46.3445   28.0225   47.9637 H   0  0  0  0  0  0  0  0  0  0  0  0
   44.4636   34.7146   43.7299 H   0  0  0  0  0  0  0  0  0  0  0  0
   46.4612   35.6148   42.4851 H   0  0  0  0  0  0  0  0  0  0  0  0
   49.7349   34.8062   43.2912 H   0  0  0  0  0  0  0  0  0  0  0  0
   49.3347   33.6719   41.9240 H   0  0  0  0  0  0  0  0  0  0  0  0
   47.8298   36.1882   41.9359 H   0  0  0  0  0  0  0  0  0  0  0  0
   49.6366   36.3279   41.6926 H   0  0  0  0  0  0  0  0  0  0  0  0
   49.1126   36.0506   39.5871 H   0  0  0  0  0  0  0  0  0  0  0  0
   47.4817   33.5897   39.9396 H   0  0  0  0  0  0  0  0  0  0  0  0
   49.0711   33.5436   37.7106 H   0  0  0  0  0  0  0  0  0  0  0  0
   47.3108   33.8375   37.5064 H   0  0  0  0  0  0  0  0  0  0  0  0
   48.4581   35.2197   37.5064 H   0  0  0  0  0  0  0  0  0  0  0  0
  1  6  2  0
  2  1  1  0
  2  3  2  0
  3  4  1  0
  4  5  2  0
  6  5  1  0
  7 10  1  0
  7  9  2  0
  7  1  1  0
  8  7  2  0
 10 15  1  0
 11 10  1  0
 11 12  1  0
 12 13  1  0
 13 14  1  0
 15 14  1  0
 16  2  1  0
 17 22  2  0
 18 19  2  0
 18 17  1  0
 19 20  1  0
 20 21  2  0
 21 16  1  0
 22 21  1  0
 23 19  1  0
 24 23  1  0
 25 24  1  0
 26 25  2  0
 27 26  1  0
  3 28  1  0
  4 29  1  0
  5 30  1  0
  6 31  1  0
 10 32  1  0
 11 33  1  0
 11 34  1  0
 12 35  1  0
 12 36  1  0
 14 37  1  0
 14 38  1  0
 15 39  1  0
 15 40  1  0
 17 41  1  0
 18 42  1  0
 23 43  1  0
 23 44  1  0
 24 45  1  0
 24 46  1  0
 25 47  1  0
 26 48  1  0
 27 49  1  0
 27 50  1  0
 27 51  1  0
M  ISO  8  28  14  29  14  30  14  31  14  32  13  33  13  34  13  35  13
M  ISO  8  36  13  37  13  38  13  39  13  40  13  41  14  42  14  43   8
M  ISO  6  44   8  45   8  46   8  49   8  50   8  51   8
M  END
>  <minimizedAffinity>  (1) 
-5.89497662

>  <minimizedRMSD>  (1) 
2.33059049

$$$$
