
     RDKit          3D

 31 32  0  0  0  0  0  0  0  0999 V2000
   46.8560   33.4940   43.8030 C   0  0  0  0  0  0  0  0  0  0  0  0
   45.9080   34.5260   43.8070 C   0  0  0  0  0  0  0  0  0  0  0  0
   45.1710   34.7450   44.9720 C   0  0  0  0  0  0  0  0  0  0  0  0
   45.4050   33.9520   46.0440 N   0  0  0  0  0  0  0  0  0  0  0  0
   46.3280   32.9670   46.0000 C   0  0  0  0  0  0  0  0  0  0  0  0
   47.0510   32.7310   44.8980 N   0  0  0  0  0  0  0  0  0  0  0  0
   46.5980   32.0890   47.1690 C   0  0  0  0  0  0  0  0  0  0  0  0
   46.6570   30.6360   46.8420 C   0  0  0  0  0  0  0  0  0  0  0  0
   46.2040   29.7330   47.9610 C   0  0  0  0  0  0  0  0  0  0  0  0
   44.9630   30.1990   48.3960 O   0  0  0  0  0  0  0  0  0  0  0  0
   45.2390   31.3560   49.1470 C   0  0  0  0  0  0  0  0  0  0  0  0
   45.5610   32.4600   48.1940 C   0  0  0  0  0  0  0  0  0  0  0  0
   45.7300   35.3440   42.5750 C   0  0  0  0  0  0  0  0  0  0  0  0
   46.9630   35.8930   42.2080 F   0  0  0  0  0  0  0  0  0  0  0  0
   45.3480   34.5210   41.5460 F   0  0  0  0  0  0  0  0  0  0  0  0
   44.8540   36.3720   42.7120 F   0  0  0  0  0  0  0  0  0  0  0  0
   47.5530   33.2990   42.6740 O   0  0  0  0  0  0  0  0  0  0  0  0
   48.9530   33.4100   42.4990 C   0  0  0  0  0  0  0  0  0  0  0  0
   49.3750   34.4980   43.2630 F   0  0  0  0  0  0  0  0  0  0  0  0
   49.5540   32.2410   42.8880 F   0  0  0  0  0  0  0  0  0  0  0  0
   49.2420   33.7490   41.1940 F   0  0  0  0  0  0  0  0  0  0  0  0
   44.4167   35.5443   45.0180 H   0  0  0  0  0  0  0  0  0  0  0  0
   47.6107   32.2567   47.5642 H   0  0  0  0  0  0  0  0  0  0  0  0
   46.0141   30.4524   45.9685 H   0  0  0  0  0  0  0  0  0  0  0  0
   47.7136   30.3972   46.6505 H   0  0  0  0  0  0  0  0  0  0  0  0
   46.1108   28.6995   47.5960 H   0  0  0  0  0  0  0  0  0  0  0  0
   46.9325   29.7401   48.7852 H   0  0  0  0  0  0  0  0  0  0  0  0
   44.3601   31.6280   49.7499 H   0  0  0  0  0  0  0  0  0  0  0  0
   46.0865   31.1778   49.8252 H   0  0  0  0  0  0  0  0  0  0  0  0
   45.9342   33.3192   48.7707 H   0  0  0  0  0  0  0  0  0  0  0  0
   44.6358   32.6930   47.6465 H   0  0  0  0  0  0  0  0  0  0  0  0
  1  2  2  0
  1  6  1  0
  2  3  1  0
  3  4  2  0
  5  4  1  0
  5  7  1  0
  6  5  2  0
  7 12  1  0
  8  7  1  0
  8  9  1  0
  9 10  1  0
 10 11  1  0
 12 11  1  0
 13 16  1  0
 13  2  1  0
 14 13  1  0
 15 13  1  0
 17  1  1  0
 18 17  1  0
 18 20  1  0
 18 19  1  0
 21 18  1  0
  3 22  1  0
  7 23  1  0
  8 24  1  0
  8 25  1  0
  9 26  1  0
  9 27  1  0
 11 28  1  0
 11 29  1  0
 12 30  1  0
 12 31  1  0
M  ISO  8  22  14  23  13  24  13  25  13  26  13  27  13  28  13  29  13
M  ISO  2  30  13  31  13
M  END
>  <minimizedAffinity>  (1) 
-5.61157846

>  <minimizedRMSD>  (1) 
2.21688724

$$$$
