
     RDKit          3D

 50 53  0  0  1  0  0  0  0  0999 V2000
   46.8530   32.3730   44.1150 C   0  0  0  0  0  0  0  0  0  0  0  0
   48.0660   32.3070   44.5250 O   0  0  0  0  0  0  0  0  0  0  0  0
   46.2950   31.3880   43.2460 N   0  0  0  0  0  0  0  0  0  0  0  0
   44.9930   30.7100   43.3140 C   0  0  0  0  0  0  0  0  0  0  0  0
   44.2770   30.8520   41.9740 C   0  0  0  0  0  0  0  0  0  0  0  0
   45.0680   30.1020   40.9160 C   0  0  0  0  0  0  0  0  0  0  0  0
   46.4260   29.7960   41.4290 C   0  0  0  0  0  0  0  0  0  0  0  0
   47.0830   30.9560   42.1330 C   0  0  1  0  0  0  0  0  0  0  0  0
   47.5300   32.0130   41.1740 C   0  0  0  0  0  0  0  0  0  0  0  0
   48.3900   31.5670   40.0290 C   0  0  0  0  0  0  0  0  0  0  0  0
   48.3370   32.5920   38.8860 C   0  0  0  0  0  0  0  0  0  0  0  0
   48.3760   33.8480   39.4490 O   0  0  0  0  0  0  0  0  0  0  0  0
   47.1850   34.1680   40.0930 C   0  0  0  0  0  0  0  0  0  0  0  0
   46.4760   32.9160   40.6380 C   0  0  0  0  0  0  0  0  0  0  0  0
   45.6450   34.4200   43.5960 C   0  0  0  0  0  0  0  0  0  0  0  0
   46.0340   33.4700   44.5450 C   0  0  0  0  0  0  0  0  0  0  0  0
   45.6330   33.6140   45.8530 C   0  0  0  0  0  0  0  0  0  0  0  0
   44.8720   34.6740   46.1760 N   0  0  0  0  0  0  0  0  0  0  0  0
   44.4880   35.6050   45.2600 C   0  0  0  0  0  0  0  0  0  0  0  0
   44.8820   35.4560   43.9940 N   0  0  0  0  0  0  0  0  0  0  0  0
   46.0420   32.6220   46.8250 C   0  0  0  0  0  0  0  0  0  0  0  0
   45.2820   31.4970   47.0260 C   0  0  0  0  0  0  0  0  0  0  0  0
   45.6930   30.5670   47.9550 C   0  0  0  0  0  0  0  0  0  0  0  0
   46.8450   30.7060   48.7050 C   0  0  0  0  0  0  0  0  0  0  0  0
   47.5660   31.8560   48.4590 C   0  0  0  0  0  0  0  0  0  0  0  0
   47.1540   32.7460   47.5570 N   0  0  0  0  0  0  0  0  0  0  0  0
   45.1457   29.6438   43.5373 H   0  0  0  0  0  0  0  0  0  0  0  0
   44.3822   31.1661   44.1071 H   0  0  0  0  0  0  0  0  0  0  0  0
   43.2647   30.4282   42.0487 H   0  0  0  0  0  0  0  0  0  0  0  0
   44.2009   31.9149   41.7011 H   0  0  0  0  0  0  0  0  0  0  0  0
   45.1502   30.7235   40.0121 H   0  0  0  0  0  0  0  0  0  0  0  0
   44.5506   29.1623   40.6728 H   0  0  0  0  0  0  0  0  0  0  0  0
   46.3490   28.9581   42.1375 H   0  0  0  0  0  0  0  0  0  0  0  0
   47.0517   29.5524   40.5577 H   0  0  0  0  0  0  0  0  0  0  0  0
   48.0292   30.6268   42.5872 H   0  0  0  0  0  0  0  0  0  0  0  0
   48.1574   32.5873   41.8716 H   0  0  0  0  0  0  0  0  0  0  0  0
   49.4290   31.4641   40.3752 H   0  0  0  0  0  0  0  0  0  0  0  0
   48.0166   30.6009   39.6585 H   0  0  0  0  0  0  0  0  0  0  0  0
   47.4063   32.4668   38.3131 H   0  0  0  0  0  0  0  0  0  0  0  0
   49.1858   32.4499   38.2009 H   0  0  0  0  0  0  0  0  0  0  0  0
   47.4043   34.8461   40.9309 H   0  0  0  0  0  0  0  0  0  0  0  0
   46.5183   34.6470   39.3608 H   0  0  0  0  0  0  0  0  0  0  0  0
   45.7772   33.1973   41.4395 H   0  0  0  0  0  0  0  0  0  0  0  0
   45.8998   32.4168   39.8451 H   0  0  0  0  0  0  0  0  0  0  0  0
   45.9559   34.3233   42.5453 H   0  0  0  0  0  0  0  0  0  0  0  0
   43.8660   36.4621   45.5573 H   0  0  0  0  0  0  0  0  0  0  0  0
   44.3565   31.3401   46.4525 H   0  0  0  0  0  0  0  0  0  0  0  0
   45.0743   29.6703   48.1072 H   0  0  0  0  0  0  0  0  0  0  0  0
   47.1635   29.9554   49.4434 H   0  0  0  0  0  0  0  0  0  0  0  0
   48.4960   32.0413   49.0164 H   0  0  0  0  0  0  0  0  0  0  0  0
  1  2  2  0
  1 16  1  0
  3  4  1  0
  3  1  1  0
  5  4  1  0
  6  7  1  0
  6  5  1  0
  7  8  1  0
  8  3  1  0
  9  8  1  0
 10  9  1  0
 11 12  1  0
 11 10  1  0
 12 13  1  0
 13 14  1  0
 14  9  1  0
 15 20  2  0
 15 16  1  0
 16 17  2  0
 17 18  1  0
 17 21  1  0
 19 18  2  0
 20 19  1  0
 21 22  2  0
 21 26  1  0
 22 23  1  0
 23 24  2  0
 25 24  1  0
 26 25  2  0
  4 27  1  0
  4 28  1  0
  5 29  1  0
  5 30  1  0
  6 31  1  0
  6 32  1  0
  7 33  1  0
  7 34  1  0
  8 35  1  1
  9 36  1  0
 10 37  1  0
 10 38  1  0
 11 39  1  0
 11 40  1  0
 13 41  1  0
 13 42  1  0
 14 43  1  0
 14 44  1  0
 15 45  1  0
 19 46  1  0
 22 47  1  0
 23 48  1  0
 24 49  1  0
 25 50  1  0
M  ISO  8  27  13  28  13  29  13  30  13  31  13  32  13  33  13  34  13
M  ISO  8  35  13  36  13  37  13  38  13  39  13  40  13  41  13  42  13
M  ISO  8  43  13  44  13  45  14  46  14  47  14  48  14  49  14  50  14
M  END
>  <minimizedAffinity>  (1) 
-4.82369852

>  <minimizedRMSD>  (1) 
2.70764732

$$$$
