
     RDKit          3D

 42 45  0  0  0  0  0  0  0  0999 V2000
   44.0490   34.8180   41.0720 C   0  0  0  0  0  0  0  0  0  0  0  0
   43.9840   34.0000   39.9770 C   0  0  0  0  0  0  0  0  0  0  0  0
   45.1970   33.4350   39.5390 C   0  0  0  0  0  0  0  0  0  0  0  0
   46.3300   33.7230   40.2060 N   0  0  0  0  0  0  0  0  0  0  0  0
   46.3520   34.5310   41.2780 C   0  0  0  0  0  0  0  0  0  0  0  0
   45.2020   35.0610   41.6860 N   0  0  0  0  0  0  0  0  0  0  0  0
   45.1410   32.5510   38.3600 C   0  0  0  0  0  0  0  0  0  0  0  0
   43.7000   32.2990   37.9200 C   0  0  0  0  0  0  0  0  0  0  0  0
   43.7610   31.0320   37.0680 C   0  0  0  0  0  0  0  0  0  0  0  0
   45.0370   30.8720   36.5170 O   0  0  0  0  0  0  0  0  0  0  0  0
   45.5600   32.0730   36.0320 C   0  0  0  0  0  0  0  0  0  0  0  0
   45.8510   33.0690   37.1420 C   0  0  0  0  0  0  0  0  0  0  0  0
   42.4740   35.5280   41.6090 S   0  0  0  0  0  0  0  0  0  0  0  0
   40.3290   35.0220   40.0780 C   0  0  0  0  0  0  0  0  0  0  0  0
   41.1170   34.4990   41.0950 C   0  0  0  0  0  0  0  0  0  0  0  0
   40.8300   33.2700   41.6320 C   0  0  0  0  0  0  0  0  0  0  0  0
   39.7650   32.5060   41.2010 C   0  0  0  0  0  0  0  0  0  0  0  0
   38.9660   33.0390   40.1680 C   0  0  0  0  0  0  0  0  0  0  0  0
   39.2380   34.2750   39.6110 C   0  0  0  0  0  0  0  0  0  0  0  0
   37.9640   32.0910   39.9080 O   0  0  0  0  0  0  0  0  0  0  0  0
   37.9670   31.1940   40.9810 C   0  0  0  0  0  0  0  0  0  0  0  0
   39.2520   31.2610   41.5540 O   0  0  0  0  0  0  0  0  0  0  0  0
   47.4670   34.8620   41.9990 O   0  0  0  0  0  0  0  0  0  0  0  0
   48.6520   35.1680   41.3180 C   0  0  0  0  0  0  0  0  0  0  0  0
   49.6440   34.2530   41.5110 F   0  0  0  0  0  0  0  0  0  0  0  0
   48.2800   35.2980   39.9680 F   0  0  0  0  0  0  0  0  0  0  0  0
   49.0970   36.4020   41.8090 F   0  0  0  0  0  0  0  0  0  0  0  0
   43.0324   33.7943   39.4649 H   0  0  0  0  0  0  0  0  0  0  0  0
   45.6471   31.6393   38.7103 H   0  0  0  0  0  0  0  0  0  0  0  0
   43.0502   32.1458   38.7943 H   0  0  0  0  0  0  0  0  0  0  0  0
   43.2837   33.1512   37.3629 H   0  0  0  0  0  0  0  0  0  0  0  0
   43.5270   30.1609   37.6977 H   0  0  0  0  0  0  0  0  0  0  0  0
   43.0293   31.1175   36.2511 H   0  0  0  0  0  0  0  0  0  0  0  0
   46.4959   31.8593   35.4950 H   0  0  0  0  0  0  0  0  0  0  0  0
   44.8072   32.5222   35.3676 H   0  0  0  0  0  0  0  0  0  0  0  0
   46.9336   33.1291   37.3274 H   0  0  0  0  0  0  0  0  0  0  0  0
   45.5089   34.0800   36.8759 H   0  0  0  0  0  0  0  0  0  0  0  0
   40.5572   36.0073   39.6454 H   0  0  0  0  0  0  0  0  0  0  0  0
   41.4720   32.8794   42.4352 H   0  0  0  0  0  0  0  0  0  0  0  0
   38.6017   34.6704   38.8055 H   0  0  0  0  0  0  0  0  0  0  0  0
   37.2056   31.4832   41.7203 H   0  0  0  0  0  0  0  0  0  0  0  0
   37.7331   30.1725   40.6465 H   0  0  0  0  0  0  0  0  0  0  0  0
  1 13  1  0
  1  6  1  0
  2  1  2  0
  3  2  1  0
  3  4  2  0
  4  5  1  0
  5  6  2  0
  5 23  1  0
  7  3  1  0
  8  7  1  0
  9  8  1  0
 10  9  1  0
 11 10  1  0
 11 12  1  0
 12  7  1  0
 14 15  2  0
 15 13  1  0
 15 16  1  0
 17 22  1  0
 17 16  2  0
 18 17  1  0
 19 14  1  0
 19 18  2  0
 20 18  1  0
 20 21  1  0
 21 22  1  0
 24 25  1  0
 24 27  1  0
 24 23  1  0
 26 24  1  0
  2 28  1  0
  7 29  1  0
  8 30  1  0
  8 31  1  0
  9 32  1  0
  9 33  1  0
 11 34  1  0
 11 35  1  0
 12 36  1  0
 12 37  1  0
 14 38  1  0
 16 39  1  0
 19 40  1  0
 21 41  1  0
 21 42  1  0
M  ISO  8  28  14  29  13  30  13  31  13  32  13  33  13  34  13  35  13
M  ISO  7  36  13  37  13  38  14  39  14  40  14  41  13  42  13
M  END
>  <minimizedAffinity>  (1) 
-6.0737009

>  <minimizedRMSD>  (1) 
0.564705312

$$$$
