
     RDKit          3D

 27 28  0  0  0  0  0  0  0  0999 V2000
   44.5480   35.6030   44.8090 C   0  0  0  0  0  0  0  0  0  0  0  0
   45.1720   35.5900   43.5470 C   0  0  0  0  0  0  0  0  0  0  0  0
   46.1970   34.6400   43.3390 C   0  0  0  0  0  0  0  0  0  0  0  0
   46.5160   33.8030   44.3590 N   0  0  0  0  0  0  0  0  0  0  0  0
   45.8780   33.8590   45.5630 C   0  0  0  0  0  0  0  0  0  0  0  0
   44.9090   34.7490   45.7790 N   0  0  0  0  0  0  0  0  0  0  0  0
   46.3040   32.9080   46.5920 C   0  0  0  0  0  0  0  0  0  0  0  0
   46.4770   31.4980   46.1310 C   0  0  0  0  0  0  0  0  0  0  0  0
   45.5950   30.5080   46.8470 C   0  0  0  0  0  0  0  0  0  0  0  0
   45.6300   30.5940   48.2240 O   0  0  0  0  0  0  0  0  0  0  0  0
   45.7570   31.8840   48.7200 C   0  0  0  0  0  0  0  0  0  0  0  0
   45.2300   32.8700   47.6810 C   0  0  0  0  0  0  0  0  0  0  0  0
   46.8150   34.6650   42.0120 C   0  0  0  0  0  0  0  0  0  0  0  0
   47.5750   33.5100   41.8590 F   0  0  0  0  0  0  0  0  0  0  0  0
   47.6970   35.7180   42.0000 F   0  0  0  0  0  0  0  0  0  0  0  0
   45.8990   34.7000   40.9890 F   0  0  0  0  0  0  0  0  0  0  0  0
   43.7460   36.3301   45.0043 H   0  0  0  0  0  0  0  0  0  0  0  0
   44.8734   36.2917   42.7543 H   0  0  0  0  0  0  0  0  0  0  0  0
   47.2881   33.2666   46.9281 H   0  0  0  0  0  0  0  0  0  0  0  0
   46.2454   31.4542   45.0566 H   0  0  0  0  0  0  0  0  0  0  0  0
   47.5172   31.2159   46.3511 H   0  0  0  0  0  0  0  0  0  0  0  0
   44.5580   30.6738   46.5197 H   0  0  0  0  0  0  0  0  0  0  0  0
   45.9762   29.5091   46.5886 H   0  0  0  0  0  0  0  0  0  0  0  0
   45.1755   31.9809   49.6487 H   0  0  0  0  0  0  0  0  0  0  0  0
   46.8149   32.0980   48.9324 H   0  0  0  0  0  0  0  0  0  0  0  0
   45.0957   33.8666   48.1267 H   0  0  0  0  0  0  0  0  0  0  0  0
   44.2494   32.5681   47.2844 H   0  0  0  0  0  0  0  0  0  0  0  0
  1  6  2  0
  2  1  1  0
  3  2  2  0
  3  4  1  0
  4  5  2  0
  5  6  1  0
  5  7  1  0
  7 12  1  0
  8  7  1  0
  8  9  1  0
  9 10  1  0
 10 11  1  0
 12 11  1  0
 13  3  1  0
 14 13  1  0
 15 13  1  0
 16 13  1  0
  1 17  1  0
  2 18  1  0
  7 19  1  0
  8 20  1  0
  8 21  1  0
  9 22  1  0
  9 23  1  0
 11 24  1  0
 11 25  1  0
 12 26  1  0
 12 27  1  0
M  ISO  8  17  14  18  14  19  13  20  13  21  13  22  13  23  13  24  13
M  ISO  3  25  13  26  13  27  13
M  END
>  <minimizedAffinity>  (1) 
-5.25158691

>  <minimizedRMSD>  (1) 
0.662899613

$$$$
