
     RDKit          3D

 37 39  0  0  0  0  0  0  0  0999 V2000
   49.0880   33.0350   41.7980 C   0  0  0  0  0  0  0  0  0  0  0  0
   48.9890   32.2690   40.5920 C   0  0  0  0  0  0  0  0  0  0  0  0
   50.1090   31.6910   40.0570 C   0  0  0  0  0  0  0  0  0  0  0  0
   51.3570   31.8970   40.7680 C   0  0  0  0  0  0  0  0  0  0  0  0
   50.9300   32.9200   42.2020 S   0  0  0  0  0  0  0  0  0  0  0  0
   52.6320   31.3970   40.4020 C   0  0  0  0  0  0  0  0  0  0  0  0
   52.7310   31.3480   38.8750 C   0  0  0  0  0  0  0  0  0  0  0  0
   53.8910   30.5210   38.4130 C   0  0  0  0  0  0  0  0  0  0  0  0
   53.8750   29.2590   39.0140 O   0  0  0  0  0  0  0  0  0  0  0  0
   54.1320   29.4530   40.3610 C   0  0  0  0  0  0  0  0  0  0  0  0
   52.9260   30.0770   41.0360 C   0  0  0  0  0  0  0  0  0  0  0  0
   48.1960   33.7600   42.6270 C   0  0  0  0  0  0  0  0  0  0  0  0
   47.6850   35.0710   42.1090 C   0  0  0  0  0  0  0  0  0  0  0  0
   46.2350   35.0440   42.0700 C   0  0  0  0  0  0  0  0  0  0  0  0
   45.4500   35.6230   43.0550 C   0  0  0  0  0  0  0  0  0  0  0  0
   44.0700   35.5700   42.9710 C   0  0  0  0  0  0  0  0  0  0  0  0
   43.5490   34.9330   41.8940 N   0  0  0  0  0  0  0  0  0  0  0  0
   44.3180   34.3740   40.9410 C   0  0  0  0  0  0  0  0  0  0  0  0
   45.6360   34.4300   41.0320 N   0  0  0  0  0  0  0  0  0  0  0  0
   48.0148   32.1452   40.0963 H   0  0  0  0  0  0  0  0  0  0  0  0
   50.0648   31.0982   39.1315 H   0  0  0  0  0  0  0  0  0  0  0  0
   53.4055   32.0797   40.7836 H   0  0  0  0  0  0  0  0  0  0  0  0
   51.8035   30.9143   38.4730 H   0  0  0  0  0  0  0  0  0  0  0  0
   52.8808   32.3754   38.5116 H   0  0  0  0  0  0  0  0  0  0  0  0
   53.8351   30.4006   37.3210 H   0  0  0  0  0  0  0  0  0  0  0  0
   54.8224   31.0331   38.6960 H   0  0  0  0  0  0  0  0  0  0  0  0
   54.3524   28.4840   40.8328 H   0  0  0  0  0  0  0  0  0  0  0  0
   54.9947   30.1266   40.4700 H   0  0  0  0  0  0  0  0  0  0  0  0
   53.1381   30.2224   42.1055 H   0  0  0  0  0  0  0  0  0  0  0  0
   52.0565   29.4128   40.9232 H   0  0  0  0  0  0  0  0  0  0  0  0
   47.3237   33.1168   42.8152 H   0  0  0  0  0  0  0  0  0  0  0  0
   48.7874   34.0202   43.5173 H   0  0  0  0  0  0  0  0  0  0  0  0
   48.0188   35.8825   42.7724 H   0  0  0  0  0  0  0  0  0  0  0  0
   48.0758   35.2418   41.0950 H   0  0  0  0  0  0  0  0  0  0  0  0
   45.9270   36.1274   43.9082 H   0  0  0  0  0  0  0  0  0  0  0  0
   43.4273   36.0226   43.7404 H   0  0  0  0  0  0  0  0  0  0  0  0
   43.8485   33.8691   40.0839 H   0  0  0  0  0  0  0  0  0  0  0  0
  1  5  1  0
  1 12  1  0
  2  1  2  0
  3  2  1  0
  3  4  2  0
  4  5  1  0
  6  4  1  0
  6 11  1  0
  7  6  1  0
  8  7  1  0
  8  9  1  0
  9 10  1  0
 10 11  1  0
 13 12  1  0
 14 13  1  0
 14 15  2  0
 16 15  1  0
 17 16  2  0
 18 19  2  0
 18 17  1  0
 19 14  1  0
  2 20  1  0
  3 21  1  0
  6 22  1  0
  7 23  1  0
  7 24  1  0
  8 25  1  0
  8 26  1  0
 10 27  1  0
 10 28  1  0
 11 29  1  0
 11 30  1  0
 12 31  1  0
 12 32  1  0
 13 33  1  0
 13 34  1  0
 15 35  1  0
 16 36  1  0
 18 37  1  0
M  ISO  8  20  14  21  14  22  13  23  13  24  13  25  13  26  13  27  13
M  ISO  8  28  13  29  13  30  13  31   8  32   8  33   8  34   8  35  14
M  ISO  2  36  14  37  14
M  END
>  <minimizedAffinity>  (1) 
-4.00929022

>  <minimizedRMSD>  (1) 
1.3876977

$$$$
