
     RDKit          3D

 42 44  0  0  0  0  0  0  0  0999 V2000
   44.8260   35.1370   44.9340 C   0  0  0  0  0  0  0  0  0  0  0  0
   45.7790   34.7050   43.9880 C   0  0  0  0  0  0  0  0  0  0  0  0
   46.6410   33.6660   44.3700 C   0  0  0  0  0  0  0  0  0  0  0  0
   46.5010   33.1550   45.6020 N   0  0  0  0  0  0  0  0  0  0  0  0
   45.5850   33.5900   46.4760 C   0  0  0  0  0  0  0  0  0  0  0  0
   44.7490   34.5750   46.1510 N   0  0  0  0  0  0  0  0  0  0  0  0
   47.6530   33.1610   43.4710 C   0  0  0  0  0  0  0  0  0  0  0  0
   48.4360   34.3040   42.8770 C   0  0  0  0  0  0  0  0  0  0  0  0
   49.2770   33.8790   41.6910 C   0  0  0  0  0  0  0  0  0  0  0  0
   49.2860   32.4820   41.6700 O   0  0  0  0  0  0  0  0  0  0  0  0
   47.9920   32.0600   41.2840 C   0  0  0  0  0  0  0  0  0  0  0  0
   46.9290   32.6500   42.1870 C   0  0  0  0  0  0  0  0  0  0  0  0
   45.8120   35.3360   42.6550 C   0  0  0  0  0  0  0  0  0  0  0  0
   44.8440   36.3070   42.6940 F   0  0  0  0  0  0  0  0  0  0  0  0
   45.3730   34.3600   41.7400 F   0  0  0  0  0  0  0  0  0  0  0  0
   46.9980   35.8080   42.3450 F   0  0  0  0  0  0  0  0  0  0  0  0
   45.4530   33.0530   47.7500 O   0  0  0  0  0  0  0  0  0  0  0  0
   44.9090   31.7870   47.9630 C   0  0  0  0  0  0  0  0  0  0  0  0
   45.9980   30.8030   47.8820 C   0  0  0  0  0  0  0  0  0  0  0  0
   46.0270   29.6010   47.2120 C   0  0  0  0  0  0  0  0  0  0  0  0
   47.1780   28.8680   47.3000 C   0  0  0  0  0  0  0  0  0  0  0  0
   48.2320   29.2710   47.9930 N   0  0  0  0  0  0  0  0  0  0  0  0
   48.1860   30.4390   48.6360 C   0  0  0  0  0  0  0  0  0  0  0  0
   47.0740   31.2250   48.5940 N   0  0  0  0  0  0  0  0  0  0  0  0
   49.4220   30.8150   49.3910 C   0  0  0  0  0  0  0  0  0  0  0  0
   49.5680   32.1730   49.4660 F   0  0  0  0  0  0  0  0  0  0  0  0
   50.5410   30.2460   48.7630 F   0  0  0  0  0  0  0  0  0  0  0  0
   49.3980   30.3330   50.6840 F   0  0  0  0  0  0  0  0  0  0  0  0
   44.1330   35.9494   44.6698 H   0  0  0  0  0  0  0  0  0  0  0  0
   48.2573   32.4301   44.0282 H   0  0  0  0  0  0  0  0  0  0  0  0
   47.7305   35.0813   42.5483 H   0  0  0  0  0  0  0  0  0  0  0  0
   49.1194   34.6789   43.6531 H   0  0  0  0  0  0  0  0  0  0  0  0
   48.8386   34.2671   40.7598 H   0  0  0  0  0  0  0  0  0  0  0  0
   50.2998   34.2747   41.7759 H   0  0  0  0  0  0  0  0  0  0  0  0
   47.8033   32.3832   40.2496 H   0  0  0  0  0  0  0  0  0  0  0  0
   47.9460   30.9638   41.3635 H   0  0  0  0  0  0  0  0  0  0  0  0
   46.4242   33.4856   41.6802 H   0  0  0  0  0  0  0  0  0  0  0  0
   46.1668   31.8980   42.4392 H   0  0  0  0  0  0  0  0  0  0  0  0
   44.4413   31.7446   48.9577 H   0  0  0  0  0  0  0  0  0  0  0  0
   44.1414   31.5695   47.2057 H   0  0  0  0  0  0  0  0  0  0  0  0
   45.1627   29.2458   46.6316 H   0  0  0  0  0  0  0  0  0  0  0  0
   47.2305   27.9037   46.7733 H   0  0  0  0  0  0  0  0  0  0  0  0
  1  6  2  0
  2  3  2  0
  2  1  1  0
  3  4  1  0
  4  5  2  0
  5 17  1  0
  6  5  1  0
  7  3  1  0
  8  7  1  0
  9  8  1  0
 10  9  1  0
 11 10  1  0
 11 12  1  0
 12  7  1  0
 13 14  1  0
 13  2  1  0
 15 13  1  0
 16 13  1  0
 17 18  1  0
 19 18  1  0
 19 24  2  0
 20 21  2  0
 20 19  1  0
 21 22  1  0
 22 23  2  0
 23 25  1  0
 24 23  1  0
 25 26  1  0
 25 28  1  0
 27 25  1  0
  1 29  1  0
  7 30  1  0
  8 31  1  0
  8 32  1  0
  9 33  1  0
  9 34  1  0
 11 35  1  0
 11 36  1  0
 12 37  1  0
 12 38  1  0
 18 39  1  0
 18 40  1  0
 20 41  1  0
 21 42  1  0
M  ISO  8  29  14  30  13  31  13  32  13  33  13  34  13  35  13  36  13
M  ISO  6  37  13  38  13  39   8  40   8  41  14  42  14
M  END
>  <minimizedAffinity>  (1) 
-6.17931414

>  <minimizedRMSD>  (1) 
0.661209702

$$$$
