
     RDKit          3D

 50 53  0  0  1  0  0  0  0  0999 V2000
   44.5500   35.5480   44.5850 C   0  0  0  0  0  0  0  0  0  0  0  0
   45.2460   35.5880   43.3560 C   0  0  0  0  0  0  0  0  0  0  0  0
   46.3700   34.7100   43.1960 C   0  0  0  0  0  0  0  0  0  0  0  0
   46.7040   33.8960   44.2220 N   0  0  0  0  0  0  0  0  0  0  0  0
   46.0190   33.8870   45.3750 C   0  0  0  0  0  0  0  0  0  0  0  0
   44.9410   34.7090   45.5660 N   0  0  0  0  0  0  0  0  0  0  0  0
   46.4370   32.9680   46.4700 C   0  0  2  0  0  0  0  0  0  0  0  0
   46.9540   31.7310   45.7680 C   0  0  0  0  0  0  0  0  0  0  0  0
   46.0770   30.5530   45.7880 C   0  0  0  0  0  0  0  0  0  0  0  0
   45.7710   30.2860   47.2560 C   0  0  0  0  0  0  0  0  0  0  0  0
   44.9930   31.3680   47.8550 C   0  0  0  0  0  0  0  0  0  0  0  0
   45.3800   32.7320   47.4120 C   0  0  0  0  0  0  0  0  0  0  0  0
   44.6930   33.8680   47.9260 N   0  0  0  0  0  0  0  0  0  0  0  0
   47.0950   34.7300   41.9410 C   0  0  0  0  0  0  0  0  0  0  0  0
   48.2250   35.4990   41.8600 C   0  0  0  0  0  0  0  0  0  0  0  0
   48.8800   35.4730   40.6130 C   0  0  0  0  0  0  0  0  0  0  0  0
   48.3280   34.6930   39.6230 C   0  0  0  0  0  0  0  0  0  0  0  0
   47.2110   33.9330   39.7040 C   0  0  0  0  0  0  0  0  0  0  0  0
   46.5970   33.9790   40.9260 N   0  0  0  0  0  0  0  0  0  0  0  0
   46.7090   33.1740   38.6780 O   0  0  0  0  0  0  0  0  0  0  0  0
   46.7860   33.4090   37.3190 C   0  0  0  0  0  0  0  0  0  0  0  0
   45.4060   33.2050   36.7280 C   0  0  0  0  0  0  0  0  0  0  0  0
   45.1770   31.7610   36.3860 C   0  0  0  0  0  0  0  0  0  0  0  0
   46.1940   31.3080   35.5260 O   0  0  0  0  0  0  0  0  0  0  0  0
   47.3190   31.1740   36.3720 C   0  0  0  0  0  0  0  0  0  0  0  0
   47.8220   32.5590   36.6160 C   0  0  0  0  0  0  0  0  0  0  0  0
   43.6828   36.2060   44.7429 H   0  0  0  0  0  0  0  0  0  0  0  0
   44.9369   36.2689   42.5493 H   0  0  0  0  0  0  0  0  0  0  0  0
   47.2273   33.3948   47.1051 H   0  0  0  0  0  0  0  0  0  0  0  0
   47.9044   31.4486   46.2445 H   0  0  0  0  0  0  0  0  0  0  0  0
   47.0410   32.0120   44.7081 H   0  0  0  0  0  0  0  0  0  0  0  0
   45.1486   30.7576   45.2346 H   0  0  0  0  0  0  0  0  0  0  0  0
   46.5552   29.6850   45.3105 H   0  0  0  0  0  0  0  0  0  0  0  0
   45.1987   29.3500   47.3356 H   0  0  0  0  0  0  0  0  0  0  0  0
   46.7265   30.2132   47.7961 H   0  0  0  0  0  0  0  0  0  0  0  0
   44.1838   31.1867   48.5777 H   0  0  0  0  0  0  0  0  0  0  0  0
   43.9279   33.7438   48.6043 H   0  0  0  0  0  0  0  0  0  0  0  0
   44.9610   34.8141   47.6196 H   0  0  0  0  0  0  0  0  0  0  0  0
   48.5948   36.0944   42.7078 H   0  0  0  0  0  0  0  0  0  0  0  0
   49.7975   36.0539   40.4375 H   0  0  0  0  0  0  0  0  0  0  0  0
   48.8538   34.6864   38.6568 H   0  0  0  0  0  0  0  0  0  0  0  0
   47.1231   34.4446   37.1646 H   0  0  0  0  0  0  0  0  0  0  0  0
   44.6499   33.5260   37.4597 H   0  0  0  0  0  0  0  0  0  0  0  0
   45.3269   33.8009   35.8068 H   0  0  0  0  0  0  0  0  0  0  0  0
   45.1847   31.1616   37.3083 H   0  0  0  0  0  0  0  0  0  0  0  0
   44.2037   31.6565   35.8843 H   0  0  0  0  0  0  0  0  0  0  0  0
   47.0283   30.7008   37.3215 H   0  0  0  0  0  0  0  0  0  0  0  0
   48.0929   30.5406   35.9138 H   0  0  0  0  0  0  0  0  0  0  0  0
   48.7254   32.5063   37.2414 H   0  0  0  0  0  0  0  0  0  0  0  0
   48.0458   33.0215   35.6434 H   0  0  0  0  0  0  0  0  0  0  0  0
  1  6  2  0
  2  1  1  0
  3  2  2  0
  3  4  1  0
  4  5  2  0
  5  6  1  0
  5  7  1  0
  7 12  1  0
  8  9  1  0
  8  7  1  0
  9 10  1  0
 10 11  1  0
 12 11  2  0
 12 13  1  0
 14  3  1  0
 15 14  2  0
 16 15  1  0
 17 18  1  0
 17 16  2  0
 18 19  2  0
 19 14  1  0
 20 18  1  0
 21 20  1  0
 22 21  1  0
 23 22  1  0
 24 25  1  0
 24 23  1  0
 25 26  1  0
 26 21  1  0
  1 27  1  0
  2 28  1  0
  7 29  1  1
  8 30  1  0
  8 31  1  0
  9 32  1  0
  9 33  1  0
 10 34  1  0
 10 35  1  0
 11 36  1  0
 13 37  1  0
 13 38  1  0
 15 39  1  0
 16 40  1  0
 17 41  1  0
 21 42  1  0
 22 43  1  0
 22 44  1  0
 23 45  1  0
 23 46  1  0
 25 47  1  0
 25 48  1  0
 26 49  1  0
 26 50  1  0
M  ISO  8  27  14  28  14  29  13  30  13  31  13  32  13  33  13  34  13
M  ISO  8  35  13  36  13  39  14  40  14  41  14  42  13  43  13  44  13
M  ISO  6  45  13  46  13  47  13  48  13  49  13  50  13
M  END
>  <minimizedAffinity>  (1) 
-7.24061823

>  <minimizedRMSD>  (1) 
1.25501311

$$$$
