
     RDKit          3D

 37 39  0  0  0  0  0  0  0  0999 V2000
   46.4930   32.0830   48.4260 C   0  0  0  0  0  0  0  0  0  0  0  0
   44.6760   34.4140   46.1930 C   0  0  0  0  0  0  0  0  0  0  0  0
   45.3920   34.2350   44.9660 C   0  0  0  0  0  0  0  0  0  0  0  0
   46.4250   33.3460   44.9840 C   0  0  0  0  0  0  0  0  0  0  0  0
   46.6660   32.7280   46.1500 N   0  0  0  0  0  0  0  0  0  0  0  0
   46.0090   32.8890   47.2850 C   0  0  0  0  0  0  0  0  0  0  0  0
   45.0110   33.7390   47.2930 N   0  0  0  0  0  0  0  0  0  0  0  0
   44.9220   35.0710   43.8400 C   0  0  0  0  0  0  0  0  0  0  0  0
   44.2460   34.8250   42.7160 N   0  0  0  0  0  0  0  0  0  0  0  0
   44.0550   35.9310   42.0000 C   0  0  0  0  0  0  0  0  0  0  0  0
   44.6270   36.9230   42.6840 N   0  0  0  0  0  0  0  0  0  0  0  0
   45.1240   36.3930   43.7520 N   0  0  0  0  0  0  0  0  0  0  0  0
   47.1600   33.1590   43.7470 C   0  0  0  0  0  0  0  0  0  0  0  0
   48.2450   32.2900   43.9730 F   0  0  0  0  0  0  0  0  0  0  0  0
   47.8010   34.3790   43.4740 F   0  0  0  0  0  0  0  0  0  0  0  0
   46.4160   32.6880   42.7260 F   0  0  0  0  0  0  0  0  0  0  0  0
   45.4160   31.2480   49.0560 C   0  0  0  0  0  0  0  0  0  0  0  0
   45.3400   29.9060   48.4560 C   0  0  0  0  0  0  0  0  0  0  0  0
   45.7870   29.4740   47.2480 C   0  0  0  0  0  0  0  0  0  0  0  0
   45.4720   28.1400   47.1620 C   0  0  0  0  0  0  0  0  0  0  0  0
   44.8560   27.7870   48.2830 N   0  0  0  0  0  0  0  0  0  0  0  0
   44.7830   28.8620   49.0540 N   0  0  0  0  0  0  0  0  0  0  0  0
   44.3310   26.4650   48.6530 C   0  0  0  0  0  0  0  0  0  0  0  0
   43.7740   26.5130   49.9420 F   0  0  0  0  0  0  0  0  0  0  0  0
   45.3150   25.5260   48.5380 F   0  0  0  0  0  0  0  0  0  0  0  0
   43.2950   26.1590   47.7820 F   0  0  0  0  0  0  0  0  0  0  0  0
   45.7660   27.2710   46.0290 C   0  0  0  0  0  0  0  0  0  0  0  0
   44.9120   26.9480   45.1520 O   0  0  0  0  0  0  0  0  0  0  0  0
   46.8991   32.7640   49.1885 H   0  0  0  0  0  0  0  0  0  0  0  0
   47.2585   31.3940   48.0396 H   0  0  0  0  0  0  0  0  0  0  0  0
   43.8343   35.1212   46.2288 H   0  0  0  0  0  0  0  0  0  0  0  0
   43.5302   36.0108   41.0366 H   0  0  0  0  0  0  0  0  0  0  0  0
   44.6649   37.9162   42.4138 H   0  0  0  0  0  0  0  0  0  0  0  0
   45.6282   31.1456   50.1305 H   0  0  0  0  0  0  0  0  0  0  0  0
   44.4525   31.7514   48.8882 H   0  0  0  0  0  0  0  0  0  0  0  0
   46.3021   30.0767   46.4855 H   0  0  0  0  0  0  0  0  0  0  0  0
   46.7870   26.8737   45.9306 H   0  0  0  0  0  0  0  0  0  0  0  0
  1 17  1  0
  2  7  2  0
  3  4  2  0
  3  2  1  0
  4  5  1  0
  5  6  2  0
  6  7  1  0
  6  1  1  0
  8  3  1  0
  9  8  1  0
 10 11  1  0
 10  9  2  0
 11 12  1  0
 12  8  2  0
 13 14  1  0
 13  4  1  0
 15 13  1  0
 16 13  1  0
 18 22  2  0
 18 17  1  0
 19 18  1  0
 20 19  2  0
 20 21  1  0
 21 23  1  0
 21 22  1  0
 23 24  1  0
 25 23  1  0
 26 23  1  0
 27 20  1  0
 28 27  2  0
  1 29  1  0
  1 30  1  0
  2 31  1  0
 10 32  1  0
 11 33  1  0
 17 34  1  0
 17 35  1  0
 19 36  1  0
 27 37  1  0
M  ISO  8  29   8  30   8  31  14  32  14  33   9  34   8  35   8  36  14
M  ISO  1  37   6
M  END
>  <minimizedAffinity>  (1) 
-5.1014576

>  <minimizedRMSD>  (1) 
1.75165093

$$$$
