
     RDKit          3D

 20 21  0  0  0  0  0  0  0  0999 V2000
   46.4780   34.0610   40.9320 C   0  0  0  0  0  0  0  0  0  0  0  0
   45.4400   33.3810   41.1410 O   0  0  0  0  0  0  0  0  0  0  0  0
   46.8960   34.8700   42.0200 N   0  0  0  0  0  0  0  0  0  0  0  0
   44.5030   35.8750   44.6990 C   0  0  0  0  0  0  0  0  0  0  0  0
   45.1860   35.9070   43.4760 C   0  0  0  0  0  0  0  0  0  0  0  0
   46.1520   34.9150   43.2370 C   0  0  0  0  0  0  0  0  0  0  0  0
   46.3890   33.9680   44.1860 N   0  0  0  0  0  0  0  0  0  0  0  0
   45.6980   33.9790   45.3600 C   0  0  0  0  0  0  0  0  0  0  0  0
   44.7680   34.9220   45.6070 N   0  0  0  0  0  0  0  0  0  0  0  0
   47.2190   34.0450   39.6800 C   0  0  0  0  0  0  0  0  0  0  0  0
   46.9390   33.3340   38.5740 N   0  0  0  0  0  0  0  0  0  0  0  0
   47.8790   33.6030   37.6210 C   0  0  0  0  0  0  0  0  0  0  0  0
   48.7280   34.4880   38.1720 N   0  0  0  0  0  0  0  0  0  0  0  0
   48.3180   34.7500   39.4240 N   0  0  0  0  0  0  0  0  0  0  0  0
   47.7523   35.4353   41.9298 H   0  0  0  0  0  0  0  0  0  0  0  0
   43.7419   36.6385   44.9175 H   0  0  0  0  0  0  0  0  0  0  0  0
   44.9728   36.6838   42.7270 H   0  0  0  0  0  0  0  0  0  0  0  0
   45.9022   33.2073   46.1168 H   0  0  0  0  0  0  0  0  0  0  0  0
   47.9312   33.1807   36.6066 H   0  0  0  0  0  0  0  0  0  0  0  0
   49.5539   34.8964   37.7115 H   0  0  0  0  0  0  0  0  0  0  0  0
  1  2  2  0
  1  3  1  0
  3  6  1  0
  4  9  2  0
  5  4  1  0
  6  5  2  0
  6  7  1  0
  7  8  2  0
  8  9  1  0
 10  1  1  0
 11 10  1  0
 12 13  1  0
 12 11  2  0
 13 14  1  0
 14 10  2  0
  3 15  1  0
  4 16  1  0
  5 17  1  0
  8 18  1  0
 12 19  1  0
 13 20  1  0
M  ISO  5  16  14  17  14  18  14  19  14  20   9
M  END
>  <minimizedAffinity>  (1) 
-4.37161064

>  <minimizedRMSD>  (1) 
0.390781194

$$$$
