
     RDKit          3D

 35 37  0  0  1  0  0  0  0  0999 V2000
   45.3840   34.6640   42.3520 C   0  0  0  0  0  0  0  0  0  0  0  0
   46.5040   35.2740   41.7220 C   0  0  0  0  0  0  0  0  0  0  0  0
   47.7670   34.9150   42.1900 C   0  0  0  0  0  0  0  0  0  0  0  0
   47.8310   34.0190   43.2010 N   0  0  0  0  0  0  0  0  0  0  0  0
   46.7510   33.4600   43.7760 C   0  0  0  0  0  0  0  0  0  0  0  0
   45.5170   33.7910   43.3400 N   0  0  0  0  0  0  0  0  0  0  0  0
   43.7480   34.3340   40.7060 C   0  0  0  0  0  0  0  0  0  0  0  0
   44.6230   33.6350   40.1510 O   0  0  0  0  0  0  0  0  0  0  0  0
   44.0590   34.9720   41.9360 N   0  0  0  0  0  0  0  0  0  0  0  0
   42.4870   34.4290   40.0410 N   0  0  0  0  0  0  0  0  0  0  0  0
   42.3280   34.0060   38.6680 C   0  0  0  0  0  0  0  0  0  0  0  0
   41.2820   34.9900   38.1670 C   0  0  0  0  0  0  0  0  0  0  0  0
   40.7870   35.7730   39.3550 C   0  0  0  0  0  0  0  0  0  0  0  0
   41.2060   34.9200   40.5310 C   0  0  1  0  0  0  0  0  0  0  0  0
   40.2520   33.8660   40.8690 C   0  0  0  0  0  0  0  0  0  0  0  0
   40.4740   32.7070   41.4860 N   0  0  0  0  0  0  0  0  0  0  0  0
   39.2640   32.0800   41.5640 C   0  0  0  0  0  0  0  0  0  0  0  0
   38.3210   32.8440   41.0060 N   0  0  0  0  0  0  0  0  0  0  0  0
   38.9210   33.9500   40.5740 N   0  0  0  0  0  0  0  0  0  0  0  0
   48.8860   35.5580   41.5250 C   0  0  0  0  0  0  0  0  0  0  0  0
   50.0650   34.8980   41.8480 F   0  0  0  0  0  0  0  0  0  0  0  0
   49.0280   36.8290   42.0910 F   0  0  0  0  0  0  0  0  0  0  0  0
   48.7730   35.5720   40.1600 F   0  0  0  0  0  0  0  0  0  0  0  0
   46.3790   35.9967   40.9022 H   0  0  0  0  0  0  0  0  0  0  0  0
   46.8726   32.7375   44.5965 H   0  0  0  0  0  0  0  0  0  0  0  0
   43.4104   35.5781   42.4583 H   0  0  0  0  0  0  0  0  0  0  0  0
   43.2695   34.1000   38.1069 H   0  0  0  0  0  0  0  0  0  0  0  0
   42.0414   32.9501   38.5542 H   0  0  0  0  0  0  0  0  0  0  0  0
   41.7310   35.6714   37.4294 H   0  0  0  0  0  0  0  0  0  0  0  0
   40.4509   34.4568   37.6824 H   0  0  0  0  0  0  0  0  0  0  0  0
   41.2607   36.7648   39.3987 H   0  0  0  0  0  0  0  0  0  0  0  0
   39.7040   35.9635   39.3248 H   0  0  0  0  0  0  0  0  0  0  0  0
   41.2610   35.4566   41.4896 H   0  0  0  0  0  0  0  0  0  0  0  0
   39.0913   31.0932   42.0184 H   0  0  0  0  0  0  0  0  0  0  0  0
   37.3190   32.6193   40.9255 H   0  0  0  0  0  0  0  0  0  0  0  0
  1  6  2  0
  2  3  2  0
  2  1  1  0
  3  4  1  0
  4  5  2  0
  6  5  1  0
  7  9  1  0
  8  7  2  0
  9  1  1  0
 10 14  1  0
 10  7  1  0
 11 10  1  0
 12 11  1  0
 12 13  1  0
 13 14  1  0
 14 15  1  0
 15 16  1  0
 16 17  2  0
 18 17  1  0
 19 15  2  0
 19 18  1  0
 20 21  1  0
 20 22  1  0
 20  3  1  0
 23 20  1  0
  2 24  1  0
  5 25  1  0
  9 26  1  0
 11 27  1  0
 11 28  1  0
 12 29  1  0
 12 30  1  0
 13 31  1  0
 13 32  1  0
 14 33  1  1
 17 34  1  0
 18 35  1  0
M  ISO  8  24  14  25  14  27  13  28  13  29  13  30  13  31  13  32  13
M  ISO  3  33  13  34  14  35   9
M  END
>  <minimizedAffinity>  (1) 
-7.14723873

>  <minimizedRMSD>  (1) 
1.31490052

$$$$
