
     RDKit          3D

 41 44  0  0  1  0  0  0  0  0999 V2000
   46.7980   30.9230   47.0630 C   0  0  1  0  0  0  0  0  0  0  0  0
   46.9720   32.0610   48.0290 C   0  0  0  0  0  0  0  0  0  0  0  0
   45.8090   32.2630   48.9670 C   0  0  0  0  0  0  0  0  0  0  0  0
   45.2730   30.9640   49.5340 C   0  0  0  0  0  0  0  0  0  0  0  0
   45.1650   29.8710   48.4990 C   0  0  0  0  0  0  0  0  0  0  0  0
   45.3430   30.5030   47.1030 C   0  0  2  0  0  0  0  0  0  0  0  0
   47.7250   32.5120   43.3920 C   0  0  0  0  0  0  0  0  0  0  0  0
   48.1980   31.2020   43.5630 C   0  0  0  0  0  0  0  0  0  0  0  0
   47.9440   30.5980   44.7270 C   0  0  0  0  0  0  0  0  0  0  0  0
   47.2290   31.2500   45.7380 C   0  0  0  0  0  0  0  0  0  0  0  0
   46.8750   32.8760   44.9940 S   0  0  0  0  0  0  0  0  0  0  0  0
   47.7970   33.8690   39.9300 C   0  0  0  0  0  0  0  0  0  0  0  0
   48.4060   35.1010   40.1570 C   0  0  0  0  0  0  0  0  0  0  0  0
   48.7720   35.4340   41.4880 C   0  0  0  0  0  0  0  0  0  0  0  0
   48.5020   34.5160   42.4740 N   0  0  0  0  0  0  0  0  0  0  0  0
   47.9130   33.3450   42.1840 C   0  0  0  0  0  0  0  0  0  0  0  0
   47.5570   33.0120   40.9200 N   0  0  0  0  0  0  0  0  0  0  0  0
   45.0270   29.5140   46.0810 C   0  0  0  0  0  0  0  0  0  0  0  0
   45.3500   28.3650   46.1390 O   0  0  0  0  0  0  0  0  0  0  0  0
   44.3560   29.2750   44.8100 C   0  0  0  0  0  0  0  0  0  0  0  0
   43.2690   28.5030   44.7190 N   0  0  0  0  0  0  0  0  0  0  0  0
   42.8460   28.5340   43.4150 C   0  0  0  0  0  0  0  0  0  0  0  0
   43.6660   29.3130   42.7300 N   0  0  0  0  0  0  0  0  0  0  0  0
   44.5220   29.7170   43.5850 N   0  0  0  0  0  0  0  0  0  0  0  0
   47.4415   30.0842   47.3668 H   0  0  0  0  0  0  0  0  0  0  0  0
   47.8710   31.8663   48.6322 H   0  0  0  0  0  0  0  0  0  0  0  0
   47.0519   32.9769   47.4251 H   0  0  0  0  0  0  0  0  0  0  0  0
   46.1380   32.9002   49.8011 H   0  0  0  0  0  0  0  0  0  0  0  0
   44.9975   32.7294   48.3892 H   0  0  0  0  0  0  0  0  0  0  0  0
   45.9484   30.6249   50.3333 H   0  0  0  0  0  0  0  0  0  0  0  0
   44.2589   31.1624   49.9113 H   0  0  0  0  0  0  0  0  0  0  0  0
   45.9498   29.1193   48.6693 H   0  0  0  0  0  0  0  0  0  0  0  0
   44.1833   29.3798   48.5691 H   0  0  0  0  0  0  0  0  0  0  0  0
   44.6794   31.3601   46.9160 H   0  0  0  0  0  0  0  0  0  0  0  0
   48.7583   30.6905   42.7665 H   0  0  0  0  0  0  0  0  0  0  0  0
   48.3026   29.5715   44.8936 H   0  0  0  0  0  0  0  0  0  0  0  0
   47.5064   33.5968   38.9046 H   0  0  0  0  0  0  0  0  0  0  0  0
   48.5983   35.7973   39.3274 H   0  0  0  0  0  0  0  0  0  0  0  0
   49.2552   36.3942   41.7217 H   0  0  0  0  0  0  0  0  0  0  0  0
   41.9735   28.0017   43.0082 H   0  0  0  0  0  0  0  0  0  0  0  0
   43.6230   29.5429   41.7269 H   0  0  0  0  0  0  0  0  0  0  0  0
  1  6  1  0
  1  2  1  0
  2  3  1  0
  3  4  1  0
  5  4  1  0
  6  5  1  0
  7  8  2  0
  7 11  1  0
  8  9  1  0
  9 10  2  0
 10  1  1  0
 11 10  1  0
 12 13  2  0
 12 17  1  0
 13 14  1  0
 14 15  2  0
 16 15  1  0
 16  7  1  0
 17 16  2  0
 18 19  2  0
 18  6  1  0
 20 18  1  0
 21 20  1  0
 22 21  2  0
 23 22  1  0
 23 24  1  0
 24 20  2  0
  1 25  1  1
  2 26  1  0
  2 27  1  0
  3 28  1  0
  3 29  1  0
  4 30  1  0
  4 31  1  0
  5 32  1  0
  5 33  1  0
  6 34  1  1
  8 35  1  0
  9 36  1  0
 12 37  1  0
 13 38  1  0
 14 39  1  0
 22 40  1  0
 23 41  1  0
M  ISO  8  25  13  26  13  27  13  28  13  29  13  30  13  31  13  32  13
M  ISO  8  33  13  34  13  35  14  36  14  37  14  38  14  39  14  40  14
M  ISO  1  41   9
M  END
>  <minimizedAffinity>  (1) 
-5.017138

>  <minimizedRMSD>  (1) 
5.7652669

$$$$
