
     RDKit          3D

 30 32  0  0  0  0  0  0  0  0999 V2000
   46.1800   34.5090   41.7130 C   0  0  0  0  0  0  0  0  0  0  0  0
   47.5230   34.7380   41.5160 C   0  0  0  0  0  0  0  0  0  0  0  0
   48.0910   34.3840   40.3020 C   0  0  0  0  0  0  0  0  0  0  0  0
   47.2990   33.8130   39.3260 C   0  0  0  0  0  0  0  0  0  0  0  0
   45.9610   33.5720   39.4890 C   0  0  0  0  0  0  0  0  0  0  0  0
   45.4330   33.9470   40.7320 C   0  0  0  0  0  0  0  0  0  0  0  0
   44.6140   36.3890   44.5930 C   0  0  0  0  0  0  0  0  0  0  0  0
   45.0990   36.1300   43.3000 C   0  0  0  0  0  0  0  0  0  0  0  0
   45.6420   34.9040   43.0130 C   0  0  0  0  0  0  0  0  0  0  0  0
   45.6760   33.9910   44.0280 N   0  0  0  0  0  0  0  0  0  0  0  0
   45.2110   34.2370   45.2710 C   0  0  0  0  0  0  0  0  0  0  0  0
   44.6740   35.4460   45.5600 N   0  0  0  0  0  0  0  0  0  0  0  0
   42.8260   34.2760   40.5760 C   0  0  0  0  0  0  0  0  0  0  0  0
   42.6910   35.1520   39.7170 O   0  0  0  0  0  0  0  0  0  0  0  0
   44.0610   33.7540   41.0380 N   0  0  0  0  0  0  0  0  0  0  0  0
   41.6210   33.7140   41.1830 C   0  0  0  0  0  0  0  0  0  0  0  0
   41.4630   32.4080   41.3770 N   0  0  0  0  0  0  0  0  0  0  0  0
   40.2580   32.1420   41.9570 C   0  0  0  0  0  0  0  0  0  0  0  0
   39.6740   33.3450   42.1140 N   0  0  0  0  0  0  0  0  0  0  0  0
   40.4960   34.2840   41.6490 N   0  0  0  0  0  0  0  0  0  0  0  0
   48.1349   35.1940   42.3082 H   0  0  0  0  0  0  0  0  0  0  0  0
   49.1618   34.5563   40.1182 H   0  0  0  0  0  0  0  0  0  0  0  0
   47.7664   33.5377   38.3691 H   0  0  0  0  0  0  0  0  0  0  0  0
   45.3442   33.1164   38.7003 H   0  0  0  0  0  0  0  0  0  0  0  0
   44.1792   37.3732   44.8218 H   0  0  0  0  0  0  0  0  0  0  0  0
   45.0434   36.9062   42.5225 H   0  0  0  0  0  0  0  0  0  0  0  0
   45.2680   33.4585   46.0461 H   0  0  0  0  0  0  0  0  0  0  0  0
   43.9283   33.0580   41.7856 H   0  0  0  0  0  0  0  0  0  0  0  0
   39.8515   31.1587   42.2359 H   0  0  0  0  0  0  0  0  0  0  0  0
   38.7447   33.5116   42.5258 H   0  0  0  0  0  0  0  0  0  0  0  0
  1  9  1  0
  2  1  2  0
  3  2  1  0
  4  5  1  0
  4  3  2  0
  5  6  2  0
  6 15  1  0
  6  1  1  0
  7 12  2  0
  8  7  1  0
  9  8  2  0
  9 10  1  0
 10 11  2  0
 11 12  1  0
 13 15  1  0
 13 16  1  0
 14 13  2  0
 16 17  1  0
 16 20  2  0
 17 18  2  0
 18 19  1  0
 20 19  1  0
  2 21  1  0
  3 22  1  0
  4 23  1  0
  5 24  1  0
  7 25  1  0
  8 26  1  0
 11 27  1  0
 15 28  1  0
 18 29  1  0
 19 30  1  0
M  ISO  8  21  14  22  14  23  14  24  14  25  14  26  14  27  14  29  14
M  ISO  1  30   9
M  END
>  <minimizedAffinity>  (1) 
-6.02928495

>  <minimizedRMSD>  (1) 
1.08530772

$$$$
