
     RDKit          3D

 40 42  0  0  1  0  0  0  0  0999 V2000
   48.4500   32.3900   38.2100 O   0  0  0  0  0  0  0  0  0  0  0  0
   48.0470   33.8640   38.2610 P   0  0  2  0  0  0  0  0  0  0  0  0
   49.3310   34.7070   37.5510 O   0  0  0  0  0  0  0  0  0  0  0  0
   47.6550   34.3510   39.7720 O   0  0  0  0  0  0  0  0  0  0  0  0
   48.2590   35.3990   41.8710 C   0  0  1  0  0  0  0  0  0  0  0  0
   49.2840   34.3660   41.6730 C   0  0  0  0  0  0  0  0  0  0  0  0
   48.5700   35.0400   40.4880 C   0  0  1  0  0  0  0  0  0  0  0  0
   45.5510   33.0890   43.1640 C   0  0  0  0  0  0  0  0  0  0  0  0
   46.7770   33.5310   42.6790 C   0  0  0  0  0  0  0  0  0  0  0  0
   46.9470   34.9020   42.4100 C   0  0  0  0  0  0  0  0  0  0  0  0
   45.9140   35.7540   42.6310 N   0  0  0  0  0  0  0  0  0  0  0  0
   44.7270   35.2930   43.1060 C   0  0  0  0  0  0  0  0  0  0  0  0
   44.5470   33.9610   43.3710 N   0  0  0  0  0  0  0  0  0  0  0  0
   46.7360   33.9890   37.2210 O   0  0  0  0  0  0  0  0  0  0  0  0
   45.6780   33.0840   37.1810 C   0  0  0  0  0  0  0  0  0  0  0  0
   45.4360   32.0940   36.2500 C   0  0  0  0  0  0  0  0  0  0  0  0
   44.3560   31.2770   36.3330 C   0  0  0  0  0  0  0  0  0  0  0  0
   43.4740   31.4270   37.3680 C   0  0  0  0  0  0  0  0  0  0  0  0
   43.7420   32.4280   38.2870 C   0  0  0  0  0  0  0  0  0  0  0  0
   44.8240   33.2320   38.1860 N   0  0  0  0  0  0  0  0  0  0  0  0
   42.8880   32.6620   39.3920 N   0  0  0  0  0  0  0  0  0  0  0  0
   42.2040   34.0430   40.1370 S   0  0  0  0  0  0  0  0  0  0  0  0
   40.9120   34.4840   39.4710 O   0  0  0  0  0  0  0  0  0  0  0  0
   43.1610   35.1900   40.0110 O   0  0  0  0  0  0  0  0  0  0  0  0
   41.9100   33.7120   41.7760 O   0  0  0  0  0  0  0  0  0  0  0  0
   49.9088   35.0863   38.2598 H   0  0  0  0  0  0  0  0  0  0  0  0
   48.2308   36.3567   42.4114 H   0  0  0  0  0  0  0  0  0  0  0  0
   50.3414   34.5859   41.8819 H   0  0  0  0  0  0  0  0  0  0  0  0
   49.4386   33.3324   42.0162 H   0  0  0  0  0  0  0  0  0  0  0  0
   48.8949   35.5757   39.5839 H   0  0  0  0  0  0  0  0  0  0  0  0
   45.4010   32.0208   43.3796 H   0  0  0  0  0  0  0  0  0  0  0  0
   47.5999   32.8212   42.5085 H   0  0  0  0  0  0  0  0  0  0  0  0
   43.9007   35.9980   43.2798 H   0  0  0  0  0  0  0  0  0  0  0  0
   46.1404   31.9635   35.4152 H   0  0  0  0  0  0  0  0  0  0  0  0
   44.1906   30.4991   35.5731 H   0  0  0  0  0  0  0  0  0  0  0  0
   42.5897   30.7802   37.4661 H   0  0  0  0  0  0  0  0  0  0  0  0
   42.6109   31.7884   39.8620 H   0  0  0  0  0  0  0  0  0  0  0  0
   40.2440   34.7120   40.1652 H   0  0  0  0  0  0  0  0  0  0  0  0
   43.4219   35.5027   40.9133 H   0  0  0  0  0  0  0  0  0  0  0  0
   42.4513   34.3214   42.3380 H   0  0  0  0  0  0  0  0  0  0  0  0
  2  1  2  0
  2  4  1  0
  3  2  1  0
  4  7  1  0
  5 10  1  0
  6  5  1  0
  7  6  1  0
  7  5  1  0
  8 13  2  0
  9  8  1  0
 10 11  1  0
 10  9  2  0
 11 12  2  0
 12 13  1  0
 14  2  1  0
 15 14  1  0
 15 20  2  0
 16 17  2  0
 16 15  1  0
 17 18  1  0
 18 19  2  0
 19 21  1  0
 20 19  1  0
 21 22  1  0
 22 25  1  0
 23 22  1  0
 24 22  1  0
  3 26  1  0
  5 27  1  6
  6 28  1  0
  6 29  1  0
  7 30  1  6
  8 31  1  0
  9 32  1  0
 12 33  1  0
 16 34  1  0
 17 35  1  0
 18 36  1  0
 21 37  1  0
 23 38  1  0
 24 39  1  0
 25 40  1  0
M  ISO  8  26   3  27  13  28  13  29  13  30  13  31  14  32  14  33  14
M  ISO  6  34  14  35  14  36  14  38   3  39   3  40   3
M  END
>  <minimizedAffinity>  (1) 
-5.14032364

>  <minimizedRMSD>  (1) 
0.701992273

$$$$
