
     RDKit          3D

 45 48  0  0  0  0  0  0  0  0999 V2000
   45.5930   30.4800   48.8160 C   0  0  0  0  0  0  0  0  0  0  0  0
   45.1860   27.9700   48.3850 C   0  0  0  0  0  0  0  0  0  0  0  0
   45.0810   29.3090   48.1030 C   0  0  0  0  0  0  0  0  0  0  0  0
   44.3710   29.6400   46.9450 C   0  0  0  0  0  0  0  0  0  0  0  0
   43.8170   28.6670   46.1480 C   0  0  0  0  0  0  0  0  0  0  0  0
   43.0950   28.6900   45.0000 N   0  0  0  0  0  0  0  0  0  0  0  0
   42.7740   27.4450   44.5960 C   0  0  0  0  0  0  0  0  0  0  0  0
   43.2950   26.5470   45.4990 C   0  0  0  0  0  0  0  0  0  0  0  0
   43.9240   27.3380   46.4320 C   0  0  0  0  0  0  0  0  0  0  0  0
   44.6290   27.0210   47.5810 C   0  0  0  0  0  0  0  0  0  0  0  0
   44.7570   25.6440   47.9010 N   0  0  0  0  0  0  0  0  0  0  0  0
   45.6690   24.7870   49.0680 S   0  0  0  0  0  0  0  0  0  0  0  0
   45.1770   25.0860   50.4650 O   0  0  0  0  0  0  0  0  0  0  0  0
   47.1220   25.1580   49.0580 O   0  0  0  0  0  0  0  0  0  0  0  0
   45.4800   23.1120   48.8840 O   0  0  0  0  0  0  0  0  0  0  0  0
   46.9490   30.9510   48.4340 C   0  0  0  0  0  0  0  0  0  0  0  0
   46.4330   32.9770   45.5250 C   0  0  0  0  0  0  0  0  0  0  0  0
   47.2190   31.9290   45.0150 C   0  0  0  0  0  0  0  0  0  0  0  0
   47.5050   31.0560   46.0220 C   0  0  0  0  0  0  0  0  0  0  0  0
   46.9100   31.5560   47.1180 N   0  0  0  0  0  0  0  0  0  0  0  0
   46.2750   32.6960   46.8190 N   0  0  0  0  0  0  0  0  0  0  0  0
   44.5010   35.9010   44.5190 C   0  0  0  0  0  0  0  0  0  0  0  0
   44.9850   36.2000   43.2560 C   0  0  0  0  0  0  0  0  0  0  0  0
   46.0000   35.3680   42.7490 C   0  0  0  0  0  0  0  0  0  0  0  0
   46.4350   34.3420   43.5150 N   0  0  0  0  0  0  0  0  0  0  0  0
   45.9480   34.0800   44.7290 C   0  0  0  0  0  0  0  0  0  0  0  0
   44.9750   34.8700   45.2270 N   0  0  0  0  0  0  0  0  0  0  0  0
   44.8909   31.3090   48.6436 H   0  0  0  0  0  0  0  0  0  0  0  0
   45.6807   30.1646   49.8662 H   0  0  0  0  0  0  0  0  0  0  0  0
   45.7347   27.6541   49.2845 H   0  0  0  0  0  0  0  0  0  0  0  0
   44.2537   30.6978   46.6669 H   0  0  0  0  0  0  0  0  0  0  0  0
   42.8262   29.5497   44.5005 H   0  0  0  0  0  0  0  0  0  0  0  0
   42.1939   27.1900   43.6969 H   0  0  0  0  0  0  0  0  0  0  0  0
   43.2247   25.4494   45.4793 H   0  0  0  0  0  0  0  0  0  0  0  0
   44.1800   25.0325   47.3060 H   0  0  0  0  0  0  0  0  0  0  0  0
   45.8070   24.7031   51.1257 H   0  0  0  0  0  0  0  0  0  0  0  0
   47.4478   25.2412   49.9892 H   0  0  0  0  0  0  0  0  0  0  0  0
   45.4319   22.6854   49.7761 H   0  0  0  0  0  0  0  0  0  0  0  0
   47.2965   31.6943   49.1667 H   0  0  0  0  0  0  0  0  0  0  0  0
   47.6381   30.0937   48.4175 H   0  0  0  0  0  0  0  0  0  0  0  0
   47.5501   31.8294   43.9708 H   0  0  0  0  0  0  0  0  0  0  0  0
   48.0997   30.1333   45.9519 H   0  0  0  0  0  0  0  0  0  0  0  0
   43.7065   36.5275   44.9507 H   0  0  0  0  0  0  0  0  0  0  0  0
   44.5938   37.0489   42.6761 H   0  0  0  0  0  0  0  0  0  0  0  0
   46.4298   35.5479   41.7526 H   0  0  0  0  0  0  0  0  0  0  0  0
  3  2  2  0
  3  1  1  0
  4  3  1  0
  5  9  1  0
  5  4  2  0
  6  5  1  0
  7  6  1  0
  7  8  2  0
  8  9  1  0
  9 10  2  0
 10 11  1  0
 10  2  1  0
 11 12  1  0
 12 13  1  0
 14 12  1  0
 15 12  1  0
 16  1  1  0
 17 21  2  0
 18 17  1  0
 18 19  2  0
 19 20  1  0
 20 16  1  0
 21 20  1  0
 22 27  2  0
 23 22  1  0
 24 23  2  0
 24 25  1  0
 25 26  2  0
 26 27  1  0
 26 17  1  0
  1 28  1  0
  1 29  1  0
  2 30  1  0
  4 31  1  0
  6 32  1  0
  7 33  1  0
  8 34  1  0
 11 35  1  0
 13 36  1  0
 14 37  1  0
 15 38  1  0
 16 39  1  0
 16 40  1  0
 18 41  1  0
 19 42  1  0
 22 43  1  0
 23 44  1  0
 24 45  1  0
M  ISO  8  28   8  29   8  30  14  31  14  32   9  33  14  34  14  36   3
M  ISO  8  37   3  38   3  39   8  40   8  41  14  42  14  43  14  44  14
M  ISO  1  45  14
M  END
>  <minimizedAffinity>  (1) 
-5.79424953

>  <minimizedRMSD>  (1) 
1.38461351

$$$$
