
     RDKit          3D

 34 35  0  0  0  0  0  0  0  0999 V2000
   46.2780   34.2120   43.3310 C   0  0  0  0  0  0  0  0  0  0  0  0
   46.1680   34.2680   44.7600 C   0  0  0  0  0  0  0  0  0  0  0  0
   44.8420   34.7630   45.2580 C   0  0  0  0  0  0  0  0  0  0  0  0
   44.6050   36.1850   44.7450 C   0  0  0  0  0  0  0  0  0  0  0  0
   45.0010   36.3750   43.3120 C   0  0  0  0  0  0  0  0  0  0  0  0
   45.1570   35.0320   42.6390 C   0  0  0  0  0  0  0  0  0  0  0  0
   46.3130   32.8960   42.7060 C   0  0  0  0  0  0  0  0  0  0  0  0
   47.5370   32.2550   42.7770 C   0  0  0  0  0  0  0  0  0  0  0  0
   47.6510   30.9610   42.2880 C   0  0  0  0  0  0  0  0  0  0  0  0
   46.5130   30.4020   41.7550 N   0  0  0  0  0  0  0  0  0  0  0  0
   45.3430   31.0290   41.6880 C   0  0  0  0  0  0  0  0  0  0  0  0
   45.2660   32.2660   42.1660 N   0  0  0  0  0  0  0  0  0  0  0  0
   48.8520   32.5530   43.1610 N   0  0  0  0  0  0  0  0  0  0  0  0
   49.8730   33.6660   42.2590 S   0  0  0  0  0  0  0  0  0  0  0  0
   51.1900   33.0570   41.9140 O   0  0  0  0  0  0  0  0  0  0  0  0
   49.1580   34.1480   41.0340 O   0  0  0  0  0  0  0  0  0  0  0  0
   50.1350   34.9940   43.2420 O   0  0  0  0  0  0  0  0  0  0  0  0
   47.2772   34.6446   43.1744 H   0  0  0  0  0  0  0  0  0  0  0  0
   46.3293   33.2553   45.1579 H   0  0  0  0  0  0  0  0  0  0  0  0
   46.9236   34.9886   45.1062 H   0  0  0  0  0  0  0  0  0  0  0  0
   44.0424   34.1025   44.8913 H   0  0  0  0  0  0  0  0  0  0  0  0
   44.8398   34.7641   46.3580 H   0  0  0  0  0  0  0  0  0  0  0  0
   43.5345   36.4176   44.8446 H   0  0  0  0  0  0  0  0  0  0  0  0
   45.2345   36.8565   45.3474 H   0  0  0  0  0  0  0  0  0  0  0  0
   44.2239   36.9550   42.7927 H   0  0  0  0  0  0  0  0  0  0  0  0
   45.9586   36.9146   43.2696 H   0  0  0  0  0  0  0  0  0  0  0  0
   44.2083   34.4794   42.7066 H   0  0  0  0  0  0  0  0  0  0  0  0
   45.4264   35.1886   41.5841 H   0  0  0  0  0  0  0  0  0  0  0  0
   48.6028   30.4108   42.3249 H   0  0  0  0  0  0  0  0  0  0  0  0
   44.4626   30.5371   41.2488 H   0  0  0  0  0  0  0  0  0  0  0  0
   49.2353   32.1026   44.0043 H   0  0  0  0  0  0  0  0  0  0  0  0
   51.6774   32.8316   42.7457 H   0  0  0  0  0  0  0  0  0  0  0  0
   48.3676   34.6808   41.3014 H   0  0  0  0  0  0  0  0  0  0  0  0
   50.0805   34.7179   44.1911 H   0  0  0  0  0  0  0  0  0  0  0  0
  1  2  1  0
  2  3  1  0
  4  3  1  0
  5  4  1  0
  6  5  1  0
  6  1  1  0
  7  8  2  0
  7  1  1  0
  8 13  1  0
  9  8  1  0
 10  9  2  0
 11 10  1  0
 11 12  2  0
 12  7  1  0
 14 13  1  0
 14 17  1  0
 15 14  1  0
 16 14  1  0
  1 18  1  0
  2 19  1  0
  2 20  1  0
  3 21  1  0
  3 22  1  0
  4 23  1  0
  4 24  1  0
  5 25  1  0
  5 26  1  0
  6 27  1  0
  6 28  1  0
  9 29  1  0
 11 30  1  0
 13 31  1  0
 15 32  1  0
 16 33  1  0
 17 34  1  0
M  ISO  8  18  13  19  13  20  13  21  13  22  13  23  13  24  13  25  13
M  ISO  8  26  13  27  13  28  13  29  14  30  14  32   3  33   3  34   3
M  END
>  <minimizedAffinity>  (1) 
-4.26818609

>  <minimizedRMSD>  (1) 
3.55475903

$$$$
