
     RDKit          3D

 34 35  0  0  1  0  0  0  0  0999 V2000
   46.1740   32.9950   43.3930 C   0  0  2  0  0  0  0  0  0  0  0  0
   44.9320   33.7750   43.2300 C   0  0  0  0  0  0  0  0  0  0  0  0
   44.8530   34.9830   44.1220 C   0  0  0  0  0  0  0  0  0  0  0  0
   45.0500   34.6400   45.5760 C   0  0  0  0  0  0  0  0  0  0  0  0
   46.1040   33.5840   45.8040 C   0  0  2  0  0  0  0  0  0  0  0  0
   46.9780   33.4040   44.5960 C   0  0  0  0  0  0  0  0  0  0  0  0
   47.0570   33.1110   42.1980 C   0  0  0  0  0  0  0  0  0  0  0  0
   46.7200   34.1040   41.2590 C   0  0  0  0  0  0  0  0  0  0  0  0
   47.5040   34.2730   40.1240 C   0  0  0  0  0  0  0  0  0  0  0  0
   48.5910   33.4310   39.9920 N   0  0  0  0  0  0  0  0  0  0  0  0
   48.8910   32.4870   40.9080 C   0  0  0  0  0  0  0  0  0  0  0  0
   48.1290   32.3260   42.0070 N   0  0  0  0  0  0  0  0  0  0  0  0
   45.4350   32.3490   46.0450 N   0  0  0  0  0  0  0  0  0  0  0  0
   45.7950   31.5270   47.4660 S   0  0  0  0  0  0  0  0  0  0  0  0
   46.9000   32.2410   48.1910 O   0  0  0  0  0  0  0  0  0  0  0  0
   44.5850   31.5730   48.3900 O   0  0  0  0  0  0  0  0  0  0  0  0
   46.1600   29.9040   47.2600 O   0  0  0  0  0  0  0  0  0  0  0  0
   45.8365   31.9565   43.5257 H   0  0  0  0  0  0  0  0  0  0  0  0
   44.8681   34.1110   42.1845 H   0  0  0  0  0  0  0  0  0  0  0  0
   44.0990   33.1139   43.5112 H   0  0  0  0  0  0  0  0  0  0  0  0
   45.6331   35.6969   43.8191 H   0  0  0  0  0  0  0  0  0  0  0  0
   43.8467   35.4137   44.0134 H   0  0  0  0  0  0  0  0  0  0  0  0
   45.3487   35.5527   46.1124 H   0  0  0  0  0  0  0  0  0  0  0  0
   44.0972   34.2339   45.9464 H   0  0  0  0  0  0  0  0  0  0  0  0
   46.7348   33.8928   46.6506 H   0  0  0  0  0  0  0  0  0  0  0  0
   47.7258   32.6257   44.8081 H   0  0  0  0  0  0  0  0  0  0  0  0
   47.4662   34.3648   44.3757 H   0  0  0  0  0  0  0  0  0  0  0  0
   45.8400   34.7434   41.4228 H   0  0  0  0  0  0  0  0  0  0  0  0
   47.2708   35.0384   39.3692 H   0  0  0  0  0  0  0  0  0  0  0  0
   49.7683   31.8411   40.7555 H   0  0  0  0  0  0  0  0  0  0  0  0
   44.4235   32.5435   46.0504 H   0  0  0  0  0  0  0  0  0  0  0  0
   46.7644   32.1534   49.1677 H   0  0  0  0  0  0  0  0  0  0  0  0
   44.8887   31.5615   49.3322 H   0  0  0  0  0  0  0  0  0  0  0  0
   46.2570   29.4726   48.1458 H   0  0  0  0  0  0  0  0  0  0  0  0
  1  6  1  0
  2  1  1  0
  2  3  1  0
  3  4  1  0
  4  5  1  0
  5 13  1  0
  6  5  1  0
  7  1  1  0
  8  7  2  0
  9  8  1  0
 10  9  2  0
 10 11  1  0
 11 12  2  0
 12  7  1  0
 13 14  1  0
 14 15  1  0
 14 16  1  0
 17 14  1  0
  1 18  1  1
  2 19  1  0
  2 20  1  0
  3 21  1  0
  3 22  1  0
  4 23  1  0
  4 24  1  0
  5 25  1  1
  6 26  1  0
  6 27  1  0
  8 28  1  0
  9 29  1  0
 11 30  1  0
 13 31  1  0
 15 32  1  0
 16 33  1  0
 17 34  1  0
M  ISO  8  18  13  19  13  20  13  21  13  22  13  23  13  24  13  25  13
M  ISO  8  26  13  27  13  28  14  29  14  30  14  31   5  32   3  33   3
M  ISO  1  34   3
M  END
>  <minimizedAffinity>  (1) 
-4.3971653

>  <minimizedRMSD>  (1) 
2.54711986

$$$$
