
     RDKit          3D

 28 29  0  0  0  0  0  0  0  0999 V2000
   44.4140   33.3000   41.2770 Br  0  0  0  0  0  0  0  0  0  0  0  0
   46.1420   34.0810   41.1140 C   0  0  0  0  0  0  0  0  0  0  0  0
   46.7520   34.7680   42.1280 C   0  0  0  0  0  0  0  0  0  0  0  0
   48.0040   35.3100   41.9180 C   0  0  0  0  0  0  0  0  0  0  0  0
   48.6690   35.1850   40.7170 C   0  0  0  0  0  0  0  0  0  0  0  0
   48.0760   34.4980   39.6790 C   0  0  0  0  0  0  0  0  0  0  0  0
   46.8320   33.9690   39.9150 C   0  0  0  0  0  0  0  0  0  0  0  0
   44.4420   36.0030   44.8810 C   0  0  0  0  0  0  0  0  0  0  0  0
   45.1420   35.9020   43.6760 C   0  0  0  0  0  0  0  0  0  0  0  0
   46.0240   34.8750   43.3940 C   0  0  0  0  0  0  0  0  0  0  0  0
   46.1650   33.9520   44.3930 N   0  0  0  0  0  0  0  0  0  0  0  0
   45.4960   34.0380   45.5570 C   0  0  0  0  0  0  0  0  0  0  0  0
   44.6520   35.0390   45.7980 N   0  0  0  0  0  0  0  0  0  0  0  0
   46.1870   33.2540   38.8720 N   0  0  0  0  0  0  0  0  0  0  0  0
   46.3280   33.1210   37.1910 S   0  0  0  0  0  0  0  0  0  0  0  0
   46.2700   31.6660   36.7500 O   0  0  0  0  0  0  0  0  0  0  0  0
   47.6370   33.7270   36.7350 O   0  0  0  0  0  0  0  0  0  0  0  0
   45.0660   34.0060   36.4740 O   0  0  0  0  0  0  0  0  0  0  0  0
   48.4881   35.8610   42.7378 H   0  0  0  0  0  0  0  0  0  0  0  0
   49.6664   35.6305   40.5876 H   0  0  0  0  0  0  0  0  0  0  0  0
   48.5768   34.3795   38.7068 H   0  0  0  0  0  0  0  0  0  0  0  0
   43.7484   36.8350   45.0728 H   0  0  0  0  0  0  0  0  0  0  0  0
   44.9835   36.6786   42.9132 H   0  0  0  0  0  0  0  0  0  0  0  0
   45.6494   33.2657   46.3251 H   0  0  0  0  0  0  0  0  0  0  0  0
   45.4310   32.6564   39.2357 H   0  0  0  0  0  0  0  0  0  0  0  0
   46.2466   31.0801   37.5477 H   0  0  0  0  0  0  0  0  0  0  0  0
   48.1778   33.9774   37.5255 H   0  0  0  0  0  0  0  0  0  0  0  0
   44.4987   34.4038   37.1811 H   0  0  0  0  0  0  0  0  0  0  0  0
  2  1  1  0
  2  3  2  0
  3 10  1  0
  4  3  1  0
  5  4  2  0
  6  7  2  0
  6  5  1  0
  7  2  1  0
  8 13  2  0
  9  8  1  0
 10  9  2  0
 10 11  1  0
 11 12  2  0
 12 13  1  0
 14  7  1  0
 15 14  1  0
 16 15  1  0
 17 15  1  0
 18 15  1  0
  4 19  1  0
  5 20  1  0
  6 21  1  0
  8 22  1  0
  9 23  1  0
 12 24  1  0
 14 25  1  0
 16 26  1  0
 17 27  1  0
 18 28  1  0
M  ISO  8  19  14  20  14  21  14  22  14  23  14  24  14  26   3  27   3
M  ISO  1  28   3
M  END
>  <minimizedAffinity>  (1) 
-5.90849686

>  <minimizedRMSD>  (1) 
0.255866557

$$$$
