
     RDKit          3D

 47 49  0  0  1  0  0  0  0  0999 V2000
   47.2190   33.6600   42.8100 C   0  0  0  0  0  0  0  0  0  0  0  0
   48.3650   33.4780   43.3400 O   0  0  0  0  0  0  0  0  0  0  0  0
   46.8520   33.1170   41.5510 N   0  0  0  0  0  0  0  0  0  0  0  0
   45.6100   32.4500   41.1320 C   0  0  0  0  0  0  0  0  0  0  0  0
   45.0900   33.1030   39.8590 C   0  0  0  0  0  0  0  0  0  0  0  0
   46.0640   32.9280   38.7350 C   0  0  0  0  0  0  0  0  0  0  0  0
   47.3870   32.4160   39.2910 C   0  0  0  0  0  0  0  0  0  0  0  0
   47.8130   33.2040   40.4810 C   0  0  2  0  0  0  0  0  0  0  0  0
   45.8790   35.6950   42.9690 C   0  0  0  0  0  0  0  0  0  0  0  0
   46.2610   34.4550   43.5340 C   0  0  0  0  0  0  0  0  0  0  0  0
   45.7200   34.0390   44.7430 C   0  0  0  0  0  0  0  0  0  0  0  0
   44.8290   34.8620   45.3390 N   0  0  0  0  0  0  0  0  0  0  0  0
   44.4480   36.0580   44.8130 C   0  0  0  0  0  0  0  0  0  0  0  0
   44.9830   36.4510   43.6330 N   0  0  0  0  0  0  0  0  0  0  0  0
   46.1360   32.7730   45.2850 C   0  0  0  0  0  0  0  0  0  0  0  0
   45.7440   31.6080   44.7180 C   0  0  0  0  0  0  0  0  0  0  0  0
   46.1640   30.4140   45.2680 C   0  0  0  0  0  0  0  0  0  0  0  0
   46.9810   30.3480   46.3910 C   0  0  0  0  0  0  0  0  0  0  0  0
   47.3540   31.5640   46.9350 C   0  0  0  0  0  0  0  0  0  0  0  0
   46.9300   32.7050   46.3780 N   0  0  0  0  0  0  0  0  0  0  0  0
   49.2050   32.8250   40.8800 C   0  0  0  0  0  0  0  0  0  0  0  0
   49.8920   32.3100   39.7270 N   0  0  0  0  0  0  0  0  0  0  0  0
   51.3920   31.5640   40.1420 S   0  0  0  0  0  0  0  0  0  0  0  0
   51.1920   30.2180   40.7590 O   0  0  0  0  0  0  0  0  0  0  0  0
   52.2400   31.5000   38.9030 O   0  0  0  0  0  0  0  0  0  0  0  0
   52.2250   32.5070   41.2650 O   0  0  0  0  0  0  0  0  0  0  0  0
   45.8111   31.3853   40.9425 H   0  0  0  0  0  0  0  0  0  0  0  0
   44.8561   32.5439   41.9275 H   0  0  0  0  0  0  0  0  0  0  0  0
   44.1319   32.6393   39.5814 H   0  0  0  0  0  0  0  0  0  0  0  0
   44.9554   34.1789   40.0444 H   0  0  0  0  0  0  0  0  0  0  0  0
   46.2250   33.8942   38.2344 H   0  0  0  0  0  0  0  0  0  0  0  0
   45.6640   32.2041   38.0098 H   0  0  0  0  0  0  0  0  0  0  0  0
   47.2697   31.3617   39.5822 H   0  0  0  0  0  0  0  0  0  0  0  0
   48.1558   32.5202   38.5112 H   0  0  0  0  0  0  0  0  0  0  0  0
   47.8421   34.2709   40.2148 H   0  0  0  0  0  0  0  0  0  0  0  0
   46.3029   36.0331   42.0119 H   0  0  0  0  0  0  0  0  0  0  0  0
   43.7189   36.6936   45.3369 H   0  0  0  0  0  0  0  0  0  0  0  0
   45.0974   31.6130   43.8281 H   0  0  0  0  0  0  0  0  0  0  0  0
   45.8385   29.4744   44.7978 H   0  0  0  0  0  0  0  0  0  0  0  0
   47.3099   29.3898   46.8197 H   0  0  0  0  0  0  0  0  0  0  0  0
   47.9991   31.5933   47.8255 H   0  0  0  0  0  0  0  0  0  0  0  0
   49.7346   33.7105   41.2613 H   0  0  0  0  0  0  0  0  0  0  0  0
   49.1729   32.0596   41.6694 H   0  0  0  0  0  0  0  0  0  0  0  0
   50.0766   33.0868   39.0763 H   0  0  0  0  0  0  0  0  0  0  0  0
   51.2045   30.3020   41.7454 H   0  0  0  0  0  0  0  0  0  0  0  0
   53.1936   31.4280   39.1591 H   0  0  0  0  0  0  0  0  0  0  0  0
   51.9765   32.2257   42.1811 H   0  0  0  0  0  0  0  0  0  0  0  0
  1  2  2  0
  1 10  1  0
  3  1  1  0
  4  3  1  0
  5  4  1  0
  6  7  1  0
  6  5  1  0
  7  8  1  0
  8 21  1  0
  8  3  1  0
  9 10  2  0
  9 14  1  0
 10 11  1  0
 11 15  1  0
 11 12  2  0
 13 12  1  0
 14 13  2  0
 15 20  2  0
 16 17  2  0
 16 15  1  0
 17 18  1  0
 18 19  2  0
 20 19  1  0
 22 23  1  0
 22 21  1  0
 23 24  1  0
 23 26  1  0
 25 23  1  0
  4 27  1  0
  4 28  1  0
  5 29  1  0
  5 30  1  0
  6 31  1  0
  6 32  1  0
  7 33  1  0
  7 34  1  0
  8 35  1  6
  9 36  1  0
 13 37  1  0
 16 38  1  0
 17 39  1  0
 18 40  1  0
 19 41  1  0
 21 42  1  0
 21 43  1  0
 22 44  1  0
 24 45  1  0
 25 46  1  0
 26 47  1  0
M  ISO  8  27  13  28  13  29  13  30  13  31  13  32  13  33  13  34  13
M  ISO  8  35  13  36  14  37  14  38  14  39  14  40  14  41  14  42   8
M  ISO  5  43   8  44   5  45   3  46   3  47   3
M  END
>  <minimizedAffinity>  (1) 
-5.49490786

>  <minimizedRMSD>  (1) 
1.85664737

$$$$
