
     RDKit          3D

 41 43  0  0  0  0  0  0  0  0999 V2000
   44.9640   34.0220   40.8020 C   0  0  0  0  0  0  0  0  0  0  0  0
   43.9280   33.6290   39.9920 C   0  0  0  0  0  0  0  0  0  0  0  0
   44.2360   33.0290   38.8110 C   0  0  0  0  0  0  0  0  0  0  0  0
   45.5210   32.7960   38.3830 C   0  0  0  0  0  0  0  0  0  0  0  0
   46.5430   33.1970   39.2050 C   0  0  0  0  0  0  0  0  0  0  0  0
   46.2810   33.8130   40.4210 C   0  0  0  0  0  0  0  0  0  0  0  0
   40.6830   35.3910   40.8120 C   0  0  0  0  0  0  0  0  0  0  0  0
   41.9860   35.1640   40.3270 C   0  0  0  0  0  0  0  0  0  0  0  0
   42.5880   33.8940   40.4820 C   0  0  0  0  0  0  0  0  0  0  0  0
   41.8280   32.9760   41.1060 N   0  0  0  0  0  0  0  0  0  0  0  0
   40.5990   33.1980   41.5610 C   0  0  0  0  0  0  0  0  0  0  0  0
   40.0240   34.4000   41.4170 N   0  0  0  0  0  0  0  0  0  0  0  0
   40.1270   36.6700   40.6340 N   0  0  0  0  0  0  0  0  0  0  0  0
   47.4320   34.2000   41.2090 C   0  0  0  0  0  0  0  0  0  0  0  0
   48.1110   35.3130   40.8160 C   0  0  0  0  0  0  0  0  0  0  0  0
   49.2300   35.8360   41.4410 C   0  0  0  0  0  0  0  0  0  0  0  0
   49.6890   35.1740   42.5500 C   0  0  0  0  0  0  0  0  0  0  0  0
   49.0340   34.0460   42.9800 C   0  0  0  0  0  0  0  0  0  0  0  0
   47.9230   33.5680   42.3210 C   0  0  0  0  0  0  0  0  0  0  0  0
   47.2420   32.3990   42.7670 N   0  0  0  0  0  0  0  0  0  0  0  0
   46.4160   31.9850   44.1890 S   0  0  0  0  0  0  0  0  0  0  0  0
   46.9890   30.7080   44.7870 O   0  0  0  0  0  0  0  0  0  0  0  0
   46.4430   33.0710   45.2030 O   0  0  0  0  0  0  0  0  0  0  0  0
   44.8170   31.6020   43.7500 O   0  0  0  0  0  0  0  0  0  0  0  0
   44.5400   35.1900   43.0940 N   0  0  0  0  0  0  0  0  0  0  0  0
   44.7330   34.6650   42.0680 C   0  0  0  0  0  0  0  0  0  0  0  0
   43.4080   32.7116   38.1601 H   0  0  0  0  0  0  0  0  0  0  0  0
   45.7220   32.3068   37.4185 H   0  0  0  0  0  0  0  0  0  0  0  0
   47.5852   33.0281   38.8962 H   0  0  0  0  0  0  0  0  0  0  0  0
   42.5355   35.9754   39.8273 H   0  0  0  0  0  0  0  0  0  0  0  0
   40.0485   32.3872   42.0606 H   0  0  0  0  0  0  0  0  0  0  0  0
   40.6703   37.4065   40.1614 H   0  0  0  0  0  0  0  0  0  0  0  0
   39.1764   36.8705   40.9762 H   0  0  0  0  0  0  0  0  0  0  0  0
   47.7386   35.8415   39.9261 H   0  0  0  0  0  0  0  0  0  0  0  0
   49.7282   36.7417   41.0648 H   0  0  0  0  0  0  0  0  0  0  0  0
   50.5734   35.5426   43.0904 H   0  0  0  0  0  0  0  0  0  0  0  0
   49.4041   33.5136   43.8686 H   0  0  0  0  0  0  0  0  0  0  0  0
   47.2539   31.6378   42.0732 H   0  0  0  0  0  0  0  0  0  0  0  0
   46.9631   30.7657   45.7750 H   0  0  0  0  0  0  0  0  0  0  0  0
   46.4332   32.6755   46.1105 H   0  0  0  0  0  0  0  0  0  0  0  0
   44.2728   31.4716   44.5667 H   0  0  0  0  0  0  0  0  0  0  0  0
  1 26  1  0
  2  9  1  0
  2  1  2  0
  3  2  1  0
  4  3  2  0
  4  5  1  0
  5  6  2  0
  6  1  1  0
  6 14  1  0
  7 12  2  0
  8  9  2  0
  8  7  1  0
  9 10  1  0
 10 11  2  0
 12 11  1  0
 13  7  1  0
 14 19  1  0
 15 14  2  0
 15 16  1  0
 16 17  2  0
 17 18  1  0
 19 20  1  0
 19 18  2  0
 20 21  1  0
 21 22  1  0
 21 23  1  0
 24 21  1  0
 26 25  3  0
  3 27  1  0
  4 28  1  0
  5 29  1  0
  8 30  1  0
 11 31  1  0
 13 32  1  0
 13 33  1  0
 15 34  1  0
 16 35  1  0
 17 36  1  0
 18 37  1  0
 20 38  1  0
 22 39  1  0
 23 40  1  0
 24 41  1  0
M  ISO  8  27  14  28  14  29  14  30  14  31  14  34  14  35  14  36  14
M  ISO  4  37  14  39   3  40   3  41   3
M  END
>  <minimizedAffinity>  (1) 
-6.05369902

>  <minimizedRMSD>  (1) 
0.724019289

$$$$
