
     RDKit          3D

 39 41  0  0  1  0  0  0  0  0999 V2000
   47.5310   33.6240   39.4540 C   0  0  0  0  0  0  0  0  0  0  0  0
   48.3620   34.4520   38.6820 C   0  0  0  0  0  0  0  0  0  0  0  0
   48.0390   34.2850   37.3520 C   0  0  0  0  0  0  0  0  0  0  0  0
   47.0350   33.3720   37.3690 C   0  0  0  0  0  0  0  0  0  0  0  0
   46.7310   32.9800   38.6010 O   0  0  0  0  0  0  0  0  0  0  0  0
   46.3520   32.8700   36.1580 C   0  0  2  0  0  0  0  0  0  0  0  0
   46.2020   31.4340   35.9320 C   0  0  0  0  0  0  0  0  0  0  0  0
   47.2940   32.1110   35.1880 C   0  0  1  0  0  0  0  0  0  0  0  0
   48.1070   32.7300   32.9270 C   0  0  0  0  0  0  0  0  0  0  0  0
   49.3010   32.8540   33.3260 O   0  0  0  0  0  0  0  0  0  0  0  0
   47.0200   32.4140   33.7840 N   0  0  0  0  0  0  0  0  0  0  0  0
   47.4370   33.4080   40.8540 O   0  0  0  0  0  0  0  0  0  0  0  0
   47.5380   34.5250   41.7130 C   0  0  0  0  0  0  0  0  0  0  0  0
   48.3130   35.4530   41.3410 O   0  0  0  0  0  0  0  0  0  0  0  0
   46.7600   34.4900   42.9000 C   0  0  0  0  0  0  0  0  0  0  0  0
   45.5530   35.1100   42.8450 C   0  0  0  0  0  0  0  0  0  0  0  0
   44.7400   35.1130   43.9760 C   0  0  0  0  0  0  0  0  0  0  0  0
   45.1840   34.5020   45.0760 N   0  0  0  0  0  0  0  0  0  0  0  0
   46.3820   33.8950   45.1110 C   0  0  0  0  0  0  0  0  0  0  0  0
   47.1280   33.9120   44.0120 N   0  0  0  0  0  0  0  0  0  0  0  0
   46.8600   33.2450   46.2750 N   0  0  0  0  0  0  0  0  0  0  0  0
   45.8100   32.5040   47.4350 S   0  0  0  0  0  0  0  0  0  0  0  0
   46.5530   32.3280   48.7150 O   0  0  0  0  0  0  0  0  0  0  0  0
   45.3200   31.1740   46.9690 O   0  0  0  0  0  0  0  0  0  0  0  0
   44.5460   33.5740   47.7210 O   0  0  0  0  0  0  0  0  0  0  0  0
   49.1413   35.1225   39.0734 H   0  0  0  0  0  0  0  0  0  0  0  0
   48.4908   34.7780   36.4786 H   0  0  0  0  0  0  0  0  0  0  0  0
   45.6380   33.7063   36.1292 H   0  0  0  0  0  0  0  0  0  0  0  0
   46.4539   30.7310   36.7397 H   0  0  0  0  0  0  0  0  0  0  0  0
   45.3567   30.8007   35.6248 H   0  0  0  0  0  0  0  0  0  0  0  0
   48.3744   31.9411   35.0705 H   0  0  0  0  0  0  0  0  0  0  0  0
   47.8993   32.8751   31.8566 H   0  0  0  0  0  0  0  0  0  0  0  0
   46.0554   32.3985   33.4231 H   0  0  0  0  0  0  0  0  0  0  0  0
   45.2217   35.6034   41.9194 H   0  0  0  0  0  0  0  0  0  0  0  0
   43.7570   35.6065   43.9627 H   0  0  0  0  0  0  0  0  0  0  0  0
   47.8764   33.2117   46.4385 H   0  0  0  0  0  0  0  0  0  0  0  0
   45.9375   32.4738   49.4766 H   0  0  0  0  0  0  0  0  0  0  0  0
   45.1108   30.6063   47.7526 H   0  0  0  0  0  0  0  0  0  0  0  0
   44.4190   33.6815   48.6969 H   0  0  0  0  0  0  0  0  0  0  0  0
  1 12  1  0
  2  1  2  0
  3  4  2  0
  3  2  1  0
  4  5  1  0
  5  1  1  0
  6  4  1  0
  7  6  1  0
  8  7  1  0
  8  6  1  0
  9 10  2  0
  9 11  1  0
 11  8  1  0
 12 13  1  0
 13 15  1  0
 14 13  2  0
 15 20  1  0
 16 15  2  0
 16 17  1  0
 17 18  2  0
 18 19  1  0
 19 21  1  0
 20 19  2  0
 21 22  1  0
 22 25  1  0
 22 23  1  0
 24 22  1  0
  2 26  1  0
  3 27  1  0
  6 28  1  6
  7 29  1  0
  7 30  1  0
  8 31  1  1
  9 32  1  0
 11 33  1  0
 16 34  1  0
 17 35  1  0
 21 36  1  0
 23 37  1  0
 24 38  1  0
 25 39  1  0
M  ISO  8  26  14  27  14  28  13  29  13  30  13  31  13  32   6  34  14
M  ISO  4  35  14  37   3  38   3  39   3
M  END
>  <minimizedAffinity>  (1) 
-6.35779524

>  <minimizedRMSD>  (1) 
1.10244286

$$$$
