
     RDKit          3D

 49 51  0  0  0  0  0  0  0  0999 V2000
   44.6440   35.2750   45.2290 C   0  0  0  0  0  0  0  0  0  0  0  0
   45.2250   35.4180   43.9720 C   0  0  0  0  0  0  0  0  0  0  0  0
   46.2370   34.5410   43.5860 C   0  0  0  0  0  0  0  0  0  0  0  0
   46.5550   33.6110   44.5150 N   0  0  0  0  0  0  0  0  0  0  0  0
   46.0040   33.4800   45.6970 C   0  0  0  0  0  0  0  0  0  0  0  0
   45.0510   34.3190   46.0390 N   0  0  0  0  0  0  0  0  0  0  0  0
   46.9270   34.5550   42.3450 C   0  0  0  0  0  0  0  0  0  0  0  0
   47.9670   35.4710   42.2210 C   0  0  0  0  0  0  0  0  0  0  0  0
   48.7440   35.6260   41.0920 C   0  0  0  0  0  0  0  0  0  0  0  0
   48.5190   34.8580   40.0070 C   0  0  0  0  0  0  0  0  0  0  0  0
   47.5020   33.9270   40.0580 C   0  0  0  0  0  0  0  0  0  0  0  0
   47.2220   33.1210   39.0000 C   0  0  0  0  0  0  0  0  0  0  0  0
   46.2140   32.1820   39.0170 C   0  0  0  0  0  0  0  0  0  0  0  0
   45.4610   32.0730   40.1910 C   0  0  0  0  0  0  0  0  0  0  0  0
   45.7870   32.9170   41.2420 C   0  0  0  0  0  0  0  0  0  0  0  0
   46.7580   33.8200   41.2200 C   0  0  0  0  0  0  0  0  0  0  0  0
   44.8980   32.6680   42.3430 N   0  0  0  0  0  0  0  0  0  0  0  0
   46.5550   32.3520   46.5210 C   0  0  0  0  0  0  0  0  0  0  0  0
   45.5530   31.5960   47.0730 F   0  0  0  0  0  0  0  0  0  0  0  0
   47.3900   32.8240   47.4980 F   0  0  0  0  0  0  0  0  0  0  0  0
   47.3890   31.5570   45.7050 F   0  0  0  0  0  0  0  0  0  0  0  0
   44.8550   36.4330   42.9930 C   0  0  0  0  0  0  0  0  0  0  0  0
   44.0700   35.9780   41.8350 C   0  0  0  0  0  0  0  0  0  0  0  0
   41.7390   35.0900   41.4880 C   0  0  0  0  0  0  0  0  0  0  0  0
   41.8880   35.2900   40.2280 O   0  0  0  0  0  0  0  0  0  0  0  0
   42.8160   35.3780   42.3770 N   0  0  0  0  0  0  0  0  0  0  0  0
   40.5050   34.5920   41.9310 N   0  0  0  0  0  0  0  0  0  0  0  0
   39.7070   33.2770   41.1200 S   0  0  0  0  0  0  0  0  0  0  0  0
   38.4420   33.7290   40.4550 O   0  0  0  0  0  0  0  0  0  0  0  0
   39.4950   32.1020   42.0200 O   0  0  0  0  0  0  0  0  0  0  0  0
   40.7520   32.7660   39.8890 O   0  0  0  0  0  0  0  0  0  0  0  0
   43.8445   35.9607   45.5462 H   0  0  0  0  0  0  0  0  0  0  0  0
   48.1849   36.1171   43.0842 H   0  0  0  0  0  0  0  0  0  0  0  0
   49.5478   36.3768   41.0768 H   0  0  0  0  0  0  0  0  0  0  0  0
   49.1327   34.9711   39.1011 H   0  0  0  0  0  0  0  0  0  0  0  0
   47.8283   33.2232   38.0879 H   0  0  0  0  0  0  0  0  0  0  0  0
   46.0098   31.5447   38.1440 H   0  0  0  0  0  0  0  0  0  0  0  0
   44.6409   31.3450   40.2772 H   0  0  0  0  0  0  0  0  0  0  0  0
   44.9943   33.2078   43.2149 H   0  0  0  0  0  0  0  0  0  0  0  0
   44.1644   31.9497   42.2603 H   0  0  0  0  0  0  0  0  0  0  0  0
   44.2648   37.2005   43.5152 H   0  0  0  0  0  0  0  0  0  0  0  0
   45.8068   36.7919   42.5744 H   0  0  0  0  0  0  0  0  0  0  0  0
   44.6353   35.2254   41.2658 H   0  0  0  0  0  0  0  0  0  0  0  0
   43.8474   36.8132   41.1547 H   0  0  0  0  0  0  0  0  0  0  0  0
   42.7292   35.1740   43.3829 H   0  0  0  0  0  0  0  0  0  0  0  0
   40.0602   35.0159   42.7576 H   0  0  0  0  0  0  0  0  0  0  0  0
   37.7735   33.9678   41.1451 H   0  0  0  0  0  0  0  0  0  0  0  0
   39.5480   32.3956   42.9640 H   0  0  0  0  0  0  0  0  0  0  0  0
   41.5651   32.3684   40.2902 H   0  0  0  0  0  0  0  0  0  0  0  0
  1  6  2  0
  2  1  1  0
  3  2  2  0
  3  4  1  0
  4  5  2  0
  5  6  1  0
  5 18  1  0
  7  3  1  0
  8  7  2  0
  9  8  1  0
 10 11  1  0
 10  9  2  0
 11 16  2  0
 12 13  2  0
 12 11  1  0
 13 14  1  0
 14 15  2  0
 15 17  1  0
 16 15  1  0
 16  7  1  0
 18 19  1  0
 18 20  1  0
 21 18  1  0
 22  2  1  0
 23 26  1  0
 23 22  1  0
 24 27  1  0
 24 26  1  0
 25 24  2  0
 28 27  1  0
 28 30  1  0
 29 28  1  0
 31 28  1  0
  1 32  1  0
  8 33  1  0
  9 34  1  0
 10 35  1  0
 12 36  1  0
 13 37  1  0
 14 38  1  0
 17 39  1  0
 17 40  1  0
 22 41  1  0
 22 42  1  0
 23 43  1  0
 23 44  1  0
 26 45  1  0
 27 46  1  0
 29 47  1  0
 30 48  1  0
 31 49  1  0
M  ISO  8  32  14  33  14  34  14  35  14  36  14  37  14  38  14  41   8
M  ISO  6  42   8  43   8  44   8  47   3  48   3  49   3
M  END
>  <minimizedAffinity>  (1) 
-7.75135088

>  <minimizedRMSD>  (1) 
0.571933389

$$$$
