
     RDKit          3D

 25 26  0  0  0  0  0  0  0  0999 V2000
   44.6760   36.0800   44.3040 C   0  0  0  0  0  0  0  0  0  0  0  0
   45.6020   35.5780   43.3750 C   0  0  0  0  0  0  0  0  0  0  0  0
   46.2780   34.4150   43.7340 C   0  0  0  0  0  0  0  0  0  0  0  0
   46.0270   33.8160   44.9440 N   0  0  0  0  0  0  0  0  0  0  0  0
   45.1170   34.3380   45.8160 C   0  0  0  0  0  0  0  0  0  0  0  0
   44.4580   35.4580   45.4820 N   0  0  0  0  0  0  0  0  0  0  0  0
   44.8580   33.7140   47.0700 N   0  0  0  0  0  0  0  0  0  0  0  0
   47.2590   33.7820   42.8030 C   0  0  0  0  0  0  0  0  0  0  0  0
   47.6350   34.6560   41.6310 C   0  0  0  0  0  0  0  0  0  0  0  0
   48.6190   34.3100   42.7680 C   0  0  0  0  0  0  0  0  0  0  0  0
   45.9420   32.5200   47.6880 S   0  0  0  0  0  0  0  0  0  0  0  0
   45.7330   32.3020   49.1780 O   0  0  0  0  0  0  0  0  0  0  0  0
   45.7390   31.2030   46.9920 O   0  0  0  0  0  0  0  0  0  0  0  0
   47.5420   33.0650   47.5520 O   0  0  0  0  0  0  0  0  0  0  0  0
   44.1177   36.9977   44.0671 H   0  0  0  0  0  0  0  0  0  0  0  0
   45.7840   36.0784   42.4124 H   0  0  0  0  0  0  0  0  0  0  0  0
   44.0211   33.9759   47.6102 H   0  0  0  0  0  0  0  0  0  0  0  0
   46.8675   32.7626   42.9351 H   0  0  0  0  0  0  0  0  0  0  0  0
   47.2244   35.6723   41.5386 H   0  0  0  0  0  0  0  0  0  0  0  0
   47.6232   34.5635   40.5350 H   0  0  0  0  0  0  0  0  0  0  0  0
   49.4655   33.6346   42.5751 H   0  0  0  0  0  0  0  0  0  0  0  0
   49.2423   34.8955   43.4599 H   0  0  0  0  0  0  0  0  0  0  0  0
   46.3207   32.9150   49.6868 H   0  0  0  0  0  0  0  0  0  0  0  0
   45.6286   30.4868   47.6666 H   0  0  0  0  0  0  0  0  0  0  0  0
   47.9242   33.1952   48.4559 H   0  0  0  0  0  0  0  0  0  0  0  0
  1  6  2  0
  2  3  2  0
  2  1  1  0
  3  4  1  0
  4  5  2  0
  5  7  1  0
  6  5  1  0
  7 11  1  0
  8  3  1  0
  9 10  1  0
  9  8  1  0
 10  8  1  0
 11 12  1  0
 13 11  1  0
 14 11  1  0
  1 15  1  0
  2 16  1  0
  7 17  1  0
  8 18  1  0
  9 19  1  0
  9 20  1  0
 10 21  1  0
 10 22  1  0
 12 23  1  0
 13 24  1  0
 14 25  1  0
M  ISO  8  15  14  16  14  18  13  19  13  20  13  21  13  22  13  23   3
M  ISO  2  24   3  25   3
M  END
>  <minimizedAffinity>  (1) 
-5.5003376

>  <minimizedRMSD>  (1) 
1.64620697

$$$$
