
     RDKit          3D

 25 26  0  0  1  0  0  0  0  0999 V2000
   46.3830   32.7470   43.4950 C   0  0  1  0  0  0  0  0  0  0  0  0
   47.9160   32.8150   43.3630 C   0  0  2  0  0  0  0  0  0  0  0  0
   47.2290   32.0740   44.4560 C   0  0  0  0  0  0  0  0  0  0  0  0
   45.7550   34.0570   43.7800 C   0  0  0  0  0  0  0  0  0  0  0  0
   45.2020   34.2710   45.0790 C   0  0  0  0  0  0  0  0  0  0  0  0
   44.6260   35.5050   45.3560 C   0  0  0  0  0  0  0  0  0  0  0  0
   44.6320   36.4440   44.3460 N   0  0  0  0  0  0  0  0  0  0  0  0
   45.1650   36.1950   43.1350 C   0  0  0  0  0  0  0  0  0  0  0  0
   45.7220   35.0210   42.8480 N   0  0  0  0  0  0  0  0  0  0  0  0
   48.6140   34.0230   43.5800 N   0  0  0  0  0  0  0  0  0  0  0  0
   49.6290   34.3880   42.2630 S   0  0  0  0  0  0  0  0  0  0  0  0
   49.5870   35.8390   41.8840 O   0  0  0  0  0  0  0  0  0  0  0  0
   49.1940   33.5130   41.1090 O   0  0  0  0  0  0  0  0  0  0  0  0
   51.2000   33.9280   42.6030 O   0  0  0  0  0  0  0  0  0  0  0  0
   45.5150   32.3988   42.9159 H   0  0  0  0  0  0  0  0  0  0  0  0
   48.6698   32.5694   42.6005 H   0  0  0  0  0  0  0  0  0  0  0  0
   47.2860   32.4549   45.4864 H   0  0  0  0  0  0  0  0  0  0  0  0
   47.2856   31.0380   44.8215 H   0  0  0  0  0  0  0  0  0  0  0  0
   45.2312   33.4787   45.8415 H   0  0  0  0  0  0  0  0  0  0  0  0
   44.1840   35.7235   46.3393 H   0  0  0  0  0  0  0  0  0  0  0  0
   45.1395   36.9801   42.3650 H   0  0  0  0  0  0  0  0  0  0  0  0
   47.9343   34.7871   43.7030 H   0  0  0  0  0  0  0  0  0  0  0  0
   49.5709   36.3939   42.7037 H   0  0  0  0  0  0  0  0  0  0  0  0
   48.7820   32.6842   41.4603 H   0  0  0  0  0  0  0  0  0  0  0  0
   51.3279   33.8905   43.5840 H   0  0  0  0  0  0  0  0  0  0  0  0
  1  4  1  0
  1  3  1  0
  2  1  1  0
  2 10  1  0
  2  3  1  0
  4  5  2  0
  5  6  1  0
  7  6  2  0
  8  7  1  0
  9  8  2  0
  9  4  1  0
 11 14  1  0
 11 10  1  0
 12 11  1  0
 13 11  1  0
  1 15  1  6
  2 16  1  6
  3 17  1  0
  3 18  1  0
  5 19  1  0
  6 20  1  0
  8 21  1  0
 10 22  1  0
 12 23  1  0
 13 24  1  0
 14 25  1  0
M  ISO  8  15  13  16  13  17  13  18  13  19  14  20  14  21  14  22   5
M  ISO  3  23   3  24   3  25   3
M  END
>  <minimizedAffinity>  (1) 
-4.58716393

>  <minimizedRMSD>  (1) 
5.47713327

$$$$
