
     RDKit          3D

 32 34  0  0  1  0  0  0  0  0999 V2000
   46.7360   31.1420   41.2700 C   0  0  1  0  0  0  0  0  0  0  0  0
   45.5350   30.6200   42.0690 C   0  0  0  0  0  0  0  0  0  0  0  0
   45.3630   31.1590   40.7350 C   0  0  1  0  0  0  0  0  0  0  0  0
   47.3940   32.3500   41.8380 C   0  0  0  0  0  0  0  0  0  0  0  0
   48.4250   32.9500   41.0920 C   0  0  0  0  0  0  0  0  0  0  0  0
   49.0440   34.0730   41.6320 C   0  0  0  0  0  0  0  0  0  0  0  0
   48.6140   34.5280   42.8560 N   0  0  0  0  0  0  0  0  0  0  0  0
   47.6080   33.9060   43.5360 C   0  0  0  0  0  0  0  0  0  0  0  0
   47.0000   32.8220   43.0310 N   0  0  0  0  0  0  0  0  0  0  0  0
   44.7010   32.4980   40.6180 C   0  0  0  0  0  0  0  0  0  0  0  0
   44.9450   33.5730   39.7790 C   0  0  0  0  0  0  0  0  0  0  0  0
   44.0600   34.5450   40.0420 N   0  0  0  0  0  0  0  0  0  0  0  0
   43.2840   34.0970   41.0150 C   0  0  0  0  0  0  0  0  0  0  0  0
   43.6350   32.8540   41.3980 N   0  0  0  0  0  0  0  0  0  0  0  0
   42.2000   34.7780   41.6270 N   0  0  0  0  0  0  0  0  0  0  0  0
   40.5240   34.4740   41.3800 S   0  0  0  0  0  0  0  0  0  0  0  0
   40.3400   33.3420   40.3780 O   0  0  0  0  0  0  0  0  0  0  0  0
   39.8480   35.6650   40.7910 O   0  0  0  0  0  0  0  0  0  0  0  0
   39.7980   33.9280   42.7930 O   0  0  0  0  0  0  0  0  0  0  0  0
   47.6921   30.7791   40.8647 H   0  0  0  0  0  0  0  0  0  0  0  0
   45.4176   29.5411   42.2482 H   0  0  0  0  0  0  0  0  0  0  0  0
   45.1033   30.8280   43.0591 H   0  0  0  0  0  0  0  0  0  0  0  0
   44.8993   30.7703   39.8164 H   0  0  0  0  0  0  0  0  0  0  0  0
   48.7310   32.5454   40.1160 H   0  0  0  0  0  0  0  0  0  0  0  0
   49.8562   34.5834   41.0937 H   0  0  0  0  0  0  0  0  0  0  0  0
   47.2906   34.2992   44.5131 H   0  0  0  0  0  0  0  0  0  0  0  0
   45.7382   33.6213   39.0185 H   0  0  0  0  0  0  0  0  0  0  0  0
   43.9967   35.4619   39.5770 H   0  0  0  0  0  0  0  0  0  0  0  0
   42.4408   35.5315   42.2867 H   0  0  0  0  0  0  0  0  0  0  0  0
   40.2016   32.4906   40.8638 H   0  0  0  0  0  0  0  0  0  0  0  0
   39.5163   36.2494   41.5181 H   0  0  0  0  0  0  0  0  0  0  0  0
   40.2829   34.2926   43.5753 H   0  0  0  0  0  0  0  0  0  0  0  0
  1  4  1  0
  1  2  1  0
  3  1  1  0
  3  2  1  0
  4  9  2  0
  5  6  2  0
  5  4  1  0
  6  7  1  0
  7  8  2  0
  9  8  1  0
 10  3  1  0
 10 14  1  0
 11 12  1  0
 11 10  2  0
 12 13  1  0
 13 14  2  0
 13 15  1  0
 16 15  1  0
 16 19  1  0
 17 16  1  0
 18 16  1  0
  1 20  1  6
  2 21  1  0
  2 22  1  0
  3 23  1  6
  5 24  1  0
  6 25  1  0
  8 26  1  0
 11 27  1  0
 12 28  1  0
 15 29  1  0
 17 30  1  0
 18 31  1  0
 19 32  1  0
M  ISO  8  20  13  21  13  22  13  23  13  24  14  25  14  26  14  27  14
M  ISO  4  28   9  30   3  31   3  32   3
M  END
>  <minimizedAffinity>  (1) 
-4.26528072

>  <minimizedRMSD>  (1) 
4.33635855

$$$$
