
     RDKit          3D

 36 37  0  0  0  0  0  0  0  0999 V2000
   44.7930   35.0740   44.9680 C   0  0  0  0  0  0  0  0  0  0  0  0
   45.7960   34.7290   44.0700 C   0  0  0  0  0  0  0  0  0  0  0  0
   46.7030   33.7680   44.5070 C   0  0  0  0  0  0  0  0  0  0  0  0
   46.6160   33.2130   45.7110 N   0  0  0  0  0  0  0  0  0  0  0  0
   45.6160   33.5810   46.5560 C   0  0  0  0  0  0  0  0  0  0  0  0
   44.7300   34.4940   46.1790 N   0  0  0  0  0  0  0  0  0  0  0  0
   45.8610   35.3750   42.7340 C   0  0  0  0  0  0  0  0  0  0  0  0
   45.0360   36.4870   42.8650 F   0  0  0  0  0  0  0  0  0  0  0  0
   45.2630   34.4930   41.8370 F   0  0  0  0  0  0  0  0  0  0  0  0
   47.1280   35.7020   42.4270 F   0  0  0  0  0  0  0  0  0  0  0  0
   47.7640   33.3230   43.6910 N   0  0  0  0  0  0  0  0  0  0  0  0
   47.5160   31.9940   42.6220 S   0  0  0  0  0  0  0  0  0  0  0  0
   46.1050   31.4670   42.7420 O   0  0  0  0  0  0  0  0  0  0  0  0
   48.4580   30.8530   42.8760 O   0  0  0  0  0  0  0  0  0  0  0  0
   47.7800   32.5610   41.0450 O   0  0  0  0  0  0  0  0  0  0  0  0
   45.4620   33.0460   47.8250 O   0  0  0  0  0  0  0  0  0  0  0  0
   44.8970   31.7760   48.0110 C   0  0  0  0  0  0  0  0  0  0  0  0
   45.9770   30.7940   47.8980 C   0  0  0  0  0  0  0  0  0  0  0  0
   46.0340   29.5950   47.1800 C   0  0  0  0  0  0  0  0  0  0  0  0
   47.1780   28.8650   47.2530 C   0  0  0  0  0  0  0  0  0  0  0  0
   48.2280   29.2440   47.9730 N   0  0  0  0  0  0  0  0  0  0  0  0
   48.1720   30.3930   48.6600 C   0  0  0  0  0  0  0  0  0  0  0  0
   47.0510   31.1780   48.6310 N   0  0  0  0  0  0  0  0  0  0  0  0
   49.3970   30.7320   49.4380 C   0  0  0  0  0  0  0  0  0  0  0  0
   49.5330   32.0900   49.5700 F   0  0  0  0  0  0  0  0  0  0  0  0
   50.5200   30.1970   48.8090 F   0  0  0  0  0  0  0  0  0  0  0  0
   49.3380   30.1930   50.7170 F   0  0  0  0  0  0  0  0  0  0  0  0
   44.0440   35.8284   44.6853 H   0  0  0  0  0  0  0  0  0  0  0  0
   48.6813   33.7894   43.7337 H   0  0  0  0  0  0  0  0  0  0  0  0
   45.8663   31.3778   43.6986 H   0  0  0  0  0  0  0  0  0  0  0  0
   48.5645   30.7240   43.8518 H   0  0  0  0  0  0  0  0  0  0  0  0
   48.1976   33.4578   41.0824 H   0  0  0  0  0  0  0  0  0  0  0  0
   44.4344   31.7128   49.0070 H   0  0  0  0  0  0  0  0  0  0  0  0
   44.1180   31.5841   47.2584 H   0  0  0  0  0  0  0  0  0  0  0  0
   45.1804   29.2539   46.5758 H   0  0  0  0  0  0  0  0  0  0  0  0
   47.2369   27.9205   46.6922 H   0  0  0  0  0  0  0  0  0  0  0  0
  1  6  2  0
  2  3  2  0
  2  1  1  0
  3  4  1  0
  4  5  2  0
  5 16  1  0
  6  5  1  0
  7  8  1  0
  7  2  1  0
  9  7  1  0
 10  7  1  0
 11  3  1  0
 12 13  1  0
 12 14  1  0
 12 11  1  0
 15 12  1  0
 16 17  1  0
 18 17  1  0
 18 23  2  0
 19 20  2  0
 19 18  1  0
 20 21  1  0
 21 22  2  0
 22 24  1  0
 23 22  1  0
 24 25  1  0
 24 27  1  0
 26 24  1  0
  1 28  1  0
 11 29  1  0
 13 30  1  0
 14 31  1  0
 15 32  1  0
 17 33  1  0
 17 34  1  0
 19 35  1  0
 20 36  1  0
M  ISO  8  28  14  30   3  31   3  32   3  33   8  34   8  35  14  36  14
M  END
>  <minimizedAffinity>  (1) 
-5.47416162

>  <minimizedRMSD>  (1) 
1.08549118

$$$$
