
     RDKit          3D

 42 44  0  0  0  0  0  0  0  0999 V2000
   48.1180   33.9370   40.1720 O   0  0  0  0  0  0  0  0  0  0  0  0
   47.4600   33.5220   39.0850 C   0  0  0  0  0  0  0  0  0  0  0  0
   46.1770   33.4840   39.2890 O   0  0  0  0  0  0  0  0  0  0  0  0
   47.6550   33.0730   37.6880 C   0  0  0  0  0  0  0  0  0  0  0  0
   48.5910   33.5720   36.7580 C   0  0  0  0  0  0  0  0  0  0  0  0
   48.5410   32.9660   35.5380 C   0  0  0  0  0  0  0  0  0  0  0  0
   47.6830   31.9850   35.2490 C   0  0  0  0  0  0  0  0  0  0  0  0
   46.7530   31.8120   36.8760 S   0  0  0  0  0  0  0  0  0  0  0  0
   47.3330   31.1350   34.1420 C   0  0  0  0  0  0  0  0  0  0  0  0
   46.1530   30.4480   34.1070 C   0  0  0  0  0  0  0  0  0  0  0  0
   45.9900   29.6760   32.9580 C   0  0  0  0  0  0  0  0  0  0  0  0
   46.9460   29.6400   31.9800 C   0  0  0  0  0  0  0  0  0  0  0  0
   48.1160   30.3500   32.0630 C   0  0  0  0  0  0  0  0  0  0  0  0
   48.2760   31.1030   33.1870 N   0  0  0  0  0  0  0  0  0  0  0  0
   49.5200   33.8780   42.3330 O   0  0  0  0  0  0  0  0  0  0  0  0
   49.0860   33.0250   41.1780 P   0  0  2  0  0  0  0  0  0  0  0  0
   50.4470   32.5680   40.3350 O   0  0  0  0  0  0  0  0  0  0  0  0
   48.1990   31.6540   41.7400 O   0  0  0  0  0  0  0  0  0  0  0  0
   46.4710   32.5210   43.1380 C   0  0  0  0  0  0  0  0  0  0  0  0
   47.5570   31.6810   42.9780 C   0  0  0  0  0  0  0  0  0  0  0  0
   47.9530   30.9040   44.0710 C   0  0  0  0  0  0  0  0  0  0  0  0
   47.2450   31.0180   45.2340 N   0  0  0  0  0  0  0  0  0  0  0  0
   46.2030   31.8370   45.3520 C   0  0  0  0  0  0  0  0  0  0  0  0
   45.8230   32.5800   44.3140 N   0  0  0  0  0  0  0  0  0  0  0  0
   45.4860   31.9330   46.5810 N   0  0  0  0  0  0  0  0  0  0  0  0
   46.3010   32.0520   48.0970 S   0  0  0  0  0  0  0  0  0  0  0  0
   47.6950   32.5360   47.9420 O   0  0  0  0  0  0  0  0  0  0  0  0
   46.3600   30.6960   48.7690 O   0  0  0  0  0  0  0  0  0  0  0  0
   45.4500   33.1290   49.0650 O   0  0  0  0  0  0  0  0  0  0  0  0
   49.2991   34.3793   36.9964 H   0  0  0  0  0  0  0  0  0  0  0  0
   49.2391   33.3004   34.7564 H   0  0  0  0  0  0  0  0  0  0  0  0
   45.4025   30.4991   34.9095 H   0  0  0  0  0  0  0  0  0  0  0  0
   45.0721   29.0824   32.8348 H   0  0  0  0  0  0  0  0  0  0  0  0
   46.7689   29.0164   31.0913 H   0  0  0  0  0  0  0  0  0  0  0  0
   48.8784   30.3139   31.2709 H   0  0  0  0  0  0  0  0  0  0  0  0
   51.1648   32.3270   40.9728 H   0  0  0  0  0  0  0  0  0  0  0  0
   46.1348   33.1454   42.2971 H   0  0  0  0  0  0  0  0  0  0  0  0
   48.8110   30.2197   43.9966 H   0  0  0  0  0  0  0  0  0  0  0  0
   44.4562   31.9313   46.5632 H   0  0  0  0  0  0  0  0  0  0  0  0
   48.0971   32.6756   48.8358 H   0  0  0  0  0  0  0  0  0  0  0  0
   46.3549   30.8143   49.7519 H   0  0  0  0  0  0  0  0  0  0  0  0
   45.6163   32.9185   50.0180 H   0  0  0  0  0  0  0  0  0  0  0  0
  1 16  1  0
  2  3  2  0
  2  1  1  0
  4  2  1  0
  5  4  2  0
  6  5  1  0
  7  6  2  0
  7  8  1  0
  8  4  1  0
  9  7  1  0
 10  9  2  0
 11 10  1  0
 12 13  1  0
 12 11  2  0
 13 14  2  0
 14  9  1  0
 16 18  1  0
 16 15  2  0
 17 16  1  0
 18 20  1  0
 19 24  2  0
 20 19  1  0
 20 21  2  0
 21 22  1  0
 22 23  2  0
 23 25  1  0
 24 23  1  0
 25 26  1  0
 26 28  1  0
 26 29  1  0
 27 26  1  0
  5 30  1  0
  6 31  1  0
 10 32  1  0
 11 33  1  0
 12 34  1  0
 13 35  1  0
 17 36  1  0
 19 37  1  0
 21 38  1  0
 25 39  1  0
 27 40  1  0
 28 41  1  0
 29 42  1  0
M  ISO  8  30  14  31  14  32  14  33  14  34  14  35  14  36   3  37  14
M  ISO  4  38  14  40   3  41   3  42   3
M  END
>  <minimizedAffinity>  (1) 
-5.29366446

>  <minimizedRMSD>  (1) 
3.00144553

$$$$
