
     RDKit          3D

 51 54  0  0  1  0  0  0  0  0999 V2000
   48.6450   32.2830   40.2460 N   0  0  0  0  0  0  0  0  0  0  0  0
   47.2350   33.3500   43.3360 N   0  0  0  0  0  0  0  0  0  0  0  0
   47.9060   33.7070   42.0970 C   0  0  0  0  0  0  0  0  0  0  0  0
   47.7800   32.4000   41.3760 C   0  0  2  0  0  0  0  0  0  0  0  0
   48.2530   31.4160   42.4340 C   0  0  0  0  0  0  0  0  0  0  0  0
   47.7350   32.0320   43.7080 C   0  0  0  0  0  0  0  0  0  0  0  0
   44.6620   35.7750   44.4940 C   0  0  0  0  0  0  0  0  0  0  0  0
   45.5790   35.1560   43.6510 C   0  0  0  0  0  0  0  0  0  0  0  0
   46.2910   34.0470   44.0980 C   0  0  0  0  0  0  0  0  0  0  0  0
   46.0300   33.6350   45.3670 N   0  0  0  0  0  0  0  0  0  0  0  0
   45.1490   34.2230   46.1890 C   0  0  0  0  0  0  0  0  0  0  0  0
   44.4580   35.3080   45.7410 N   0  0  0  0  0  0  0  0  0  0  0  0
   48.5170   31.7930   37.8210 C   0  0  0  0  0  0  0  0  0  0  0  0
   48.5160   32.6690   38.8990 C   0  0  0  0  0  0  0  0  0  0  0  0
   48.3730   33.9790   38.5300 C   0  0  0  0  0  0  0  0  0  0  0  0
   48.2400   34.4510   37.2450 C   0  0  0  0  0  0  0  0  0  0  0  0
   48.2480   33.5420   36.2100 C   0  0  0  0  0  0  0  0  0  0  0  0
   48.3870   32.2050   36.5120 C   0  0  0  0  0  0  0  0  0  0  0  0
   49.4970   31.5520   34.4870 C   0  0  2  0  0  0  0  0  0  0  0  0
   48.4060   31.1540   35.4570 C   0  0  2  0  0  0  0  0  0  0  0  0
   47.1290   31.0790   34.6660 C   0  0  0  0  0  0  0  0  0  0  0  0
   47.2510   31.7100   33.4320 O   0  0  0  0  0  0  0  0  0  0  0  0
   48.0900   30.9600   32.6090 C   0  0  0  0  0  0  0  0  0  0  0  0
   49.4590   30.7320   33.2170 C   0  0  1  0  0  0  0  0  0  0  0  0
   50.7710   31.4720   35.0120 O   0  0  0  0  0  0  0  0  0  0  0  0
   50.4570   31.2480   32.3840 O   0  0  0  0  0  0  0  0  0  0  0  0
   48.7740   29.2390   38.3590 N   0  0  0  0  0  0  0  0  0  0  0  0
   48.6640   30.3670   38.1140 C   0  0  0  0  0  0  0  0  0  0  0  0
   49.5424   31.8246   40.4594 H   0  0  0  0  0  0  0  0  0  0  0  0
   47.3891   34.5212   41.5680 H   0  0  0  0  0  0  0  0  0  0  0  0
   48.9317   34.0887   42.2079 H   0  0  0  0  0  0  0  0  0  0  0  0
   46.7626   32.2543   40.9839 H   0  0  0  0  0  0  0  0  0  0  0  0
   47.8202   30.4181   42.2704 H   0  0  0  0  0  0  0  0  0  0  0  0
   49.3421   31.2614   42.4331 H   0  0  0  0  0  0  0  0  0  0  0  0
   48.5452   32.1238   44.4463 H   0  0  0  0  0  0  0  0  0  0  0  0
   46.9483   31.4145   44.1661 H   0  0  0  0  0  0  0  0  0  0  0  0
   44.0997   36.6517   44.1401 H   0  0  0  0  0  0  0  0  0  0  0  0
   45.7410   35.5420   42.6338 H   0  0  0  0  0  0  0  0  0  0  0  0
   44.9873   33.8365   47.2061 H   0  0  0  0  0  0  0  0  0  0  0  0
   48.3635   34.7255   39.3379 H   0  0  0  0  0  0  0  0  0  0  0  0
   48.1300   35.5277   37.0486 H   0  0  0  0  0  0  0  0  0  0  0  0
   48.1458   33.8758   35.1669 H   0  0  0  0  0  0  0  0  0  0  0  0
   49.2808   32.6074   34.2650 H   0  0  0  0  0  0  0  0  0  0  0  0
   48.5554   30.1789   35.9437 H   0  0  0  0  0  0  0  0  0  0  0  0
   46.8725   30.0219   34.5022 H   0  0  0  0  0  0  0  0  0  0  0  0
   46.3409   31.5915   35.2371 H   0  0  0  0  0  0  0  0  0  0  0  0
   48.2137   31.4926   31.6545 H   0  0  0  0  0  0  0  0  0  0  0  0
   47.6217   29.9745   32.4690 H   0  0  0  0  0  0  0  0  0  0  0  0
   49.6260   29.6564   33.3761 H   0  0  0  0  0  0  0  0  0  0  0  0
   50.7213   31.4751   36.0007 H   0  0  0  0  0  0  0  0  0  0  0  0
   51.1863   31.6251   32.9372 H   0  0  0  0  0  0  0  0  0  0  0  0
  1  4  1  0
  2  6  1  0
  2  9  1  0
  3  2  1  0
  4  3  1  0
  4  5  1  0
  5  6  1  0
  7 12  2  0
  8  9  2  0
  8  7  1  0
  9 10  1  0
 10 11  2  0
 12 11  1  0
 13 28  1  0
 13 14  2  0
 14  1  1  0
 15 14  1  0
 16 15  2  0
 17 18  2  0
 17 16  1  0
 18 13  1  0
 19 25  1  0
 19 20  1  0
 20 18  1  0
 21 20  1  0
 22 21  1  0
 23 24  1  0
 23 22  1  0
 24 26  1  0
 24 19  1  0
 28 27  3  0
  1 29  1  0
  3 30  1  0
  3 31  1  0
  4 32  1  6
  5 33  1  0
  5 34  1  0
  6 35  1  0
  6 36  1  0
  7 37  1  0
  8 38  1  0
 11 39  1  0
 15 40  1  0
 16 41  1  0
 17 42  1  0
 19 43  1  6
 20 44  1  1
 21 45  1  0
 21 46  1  0
 23 47  1  0
 23 48  1  0
 24 49  1  1
 25 50  1  0
 26 51  1  0
M  ISO  8  30  13  31  13  32  13  33  13  34  13  35  13  36  13  37  14
M  ISO  8  38  14  39  14  40  14  41  14  42  14  43  13  44  13  45  13
M  ISO  6  46  13  47  13  48  13  49  13  50   3  51   3
M  END
>  <minimizedAffinity>  (1) 
-5.39355803

>  <minimizedRMSD>  (1) 
1.63791811

$$$$
