
     RDKit          3D

 27 28  0  0  1  0  0  0  0  0999 V2000
   45.3610   31.3760   47.8590 C   0  0  1  0  0  0  0  0  0  0  0  0
   46.4400   32.1790   47.1310 C   0  0  1  0  0  0  0  0  0  0  0  0
   47.6290   31.2450   47.0600 C   0  0  0  0  0  0  0  0  0  0  0  0
   48.1440   31.1660   48.3270 O   0  0  0  0  0  0  0  0  0  0  0  0
   47.3130   30.6570   49.2800 C   0  0  0  0  0  0  0  0  0  0  0  0
   45.8900   31.0840   49.2330 C   0  0  1  0  0  0  0  0  0  0  0  0
   45.1710   34.4000   44.5030 C   0  0  0  0  0  0  0  0  0  0  0  0
   45.1060   33.5370   43.3920 C   0  0  0  0  0  0  0  0  0  0  0  0
   45.5010   32.2000   43.5630 C   0  0  0  0  0  0  0  0  0  0  0  0
   45.9240   31.8160   44.7960 N   0  0  0  0  0  0  0  0  0  0  0  0
   45.9710   32.6710   45.8320 C   0  0  0  0  0  0  0  0  0  0  0  0
   45.6030   33.9550   45.7070 N   0  0  0  0  0  0  0  0  0  0  0  0
   44.6460   36.0880   44.1840 S   0  0  0  0  0  0  0  0  0  0  0  0
   44.2320   32.1950   47.9470 O   0  0  0  0  0  0  0  0  0  0  0  0
   45.6420   32.2030   50.0360 O   0  0  0  0  0  0  0  0  0  0  0  0
   45.1050   30.4379   47.3448 H   0  0  0  0  0  0  0  0  0  0  0  0
   46.7156   33.1055   47.6559 H   0  0  0  0  0  0  0  0  0  0  0  0
   47.3092   30.2496   46.7181 H   0  0  0  0  0  0  0  0  0  0  0  0
   48.3820   31.6165   46.3494 H   0  0  0  0  0  0  0  0  0  0  0  0
   47.3338   29.5611   49.1873 H   0  0  0  0  0  0  0  0  0  0  0  0
   47.6974   31.0493   50.2330 H   0  0  0  0  0  0  0  0  0  0  0  0
   45.3569   30.2028   49.6194 H   0  0  0  0  0  0  0  0  0  0  0  0
   44.7548   33.9008   42.4151 H   0  0  0  0  0  0  0  0  0  0  0  0
   45.4690   31.4869   42.7260 H   0  0  0  0  0  0  0  0  0  0  0  0
   44.4444   36.7362   45.3740 H   0  0  0  0  0  0  0  0  0  0  0  0
   44.0130   32.3539   48.8993 H   0  0  0  0  0  0  0  0  0  0  0  0
   45.6994   31.9440   50.9898 H   0  0  0  0  0  0  0  0  0  0  0  0
  1 14  1  0
  1  6  1  0
  2 11  1  0
  2  1  1  0
  3  2  1  0
  3  4  1  0
  4  5  1  0
  6  5  1  0
  6 15  1  0
  7 12  2  0
  8  9  2  0
  8  7  1  0
  9 10  1  0
 10 11  2  0
 12 11  1  0
 13  7  1  0
  1 16  1  6
  2 17  1  1
  3 18  1  0
  3 19  1  0
  5 20  1  0
  5 21  1  0
  6 22  1  1
  8 23  1  0
  9 24  1  0
 13 25  1  0
 14 26  1  0
 15 27  1  0
M  ISO  8  16  13  17  13  18  13  19  13  20  13  21  13  22  13  23  14
M  ISO  4  24  14  25  11  26   3  27   3
M  END
>  <minimizedAffinity>  (1) 
-4.91917801

>  <minimizedRMSD>  (1) 
2.22234416

$$$$
