
     RDKit          3D

 27 28  0  0  1  0  0  0  0  0999 V2000
   46.9230   32.0520   47.4430 C   0  0  2  0  0  0  0  0  0  0  0  0
   46.8350   31.6130   46.0030 C   0  0  1  0  0  0  0  0  0  0  0  0
   45.8280   30.5100   45.8870 C   0  0  0  0  0  0  0  0  0  0  0  0
   45.8090   29.8370   47.1240 O   0  0  0  0  0  0  0  0  0  0  0  0
   44.9810   30.5840   47.9810 C   0  0  0  0  0  0  0  0  0  0  0  0
   45.5990   31.9410   48.1820 C   0  0  1  0  0  0  0  0  0  0  0  0
   45.1900   34.4600   44.2700 C   0  0  0  0  0  0  0  0  0  0  0  0
   46.1930   34.8550   43.3410 C   0  0  0  0  0  0  0  0  0  0  0  0
   47.3960   34.1380   43.3370 C   0  0  0  0  0  0  0  0  0  0  0  0
   47.5400   33.1070   44.2160 N   0  0  0  0  0  0  0  0  0  0  0  0
   46.5560   32.7610   45.0890 C   0  0  0  0  0  0  0  0  0  0  0  0
   45.3990   33.4250   45.1170 N   0  0  0  0  0  0  0  0  0  0  0  0
   48.6920   34.5850   42.1950 S   0  0  0  0  0  0  0  0  0  0  0  0
   47.4300   33.3220   47.5800 O   0  0  0  0  0  0  0  0  0  0  0  0
   45.9060   32.0710   49.5470 O   0  0  0  0  0  0  0  0  0  0  0  0
   47.6282   31.3472   47.9076 H   0  0  0  0  0  0  0  0  0  0  0  0
   47.8099   31.2192   45.6796 H   0  0  0  0  0  0  0  0  0  0  0  0
   44.8340   30.9276   45.6690 H   0  0  0  0  0  0  0  0  0  0  0  0
   46.0921   29.8221   45.0703 H   0  0  0  0  0  0  0  0  0  0  0  0
   43.9838   30.6940   47.5300 H   0  0  0  0  0  0  0  0  0  0  0  0
   44.8796   30.0700   48.9482 H   0  0  0  0  0  0  0  0  0  0  0  0
   44.8957   32.7042   47.8174 H   0  0  0  0  0  0  0  0  0  0  0  0
   44.2334   35.0022   44.3002 H   0  0  0  0  0  0  0  0  0  0  0  0
   46.0290   35.6948   42.6497 H   0  0  0  0  0  0  0  0  0  0  0  0
   49.8052   34.9690   42.8951 H   0  0  0  0  0  0  0  0  0  0  0  0
   47.5172   33.5405   48.5416 H   0  0  0  0  0  0  0  0  0  0  0  0
   45.1431   31.7480   50.0890 H   0  0  0  0  0  0  0  0  0  0  0  0
  1 14  1  0
  1  6  1  0
  2 11  1  0
  2  1  1  0
  3  2  1  0
  3  4  1  0
  4  5  1  0
  5  6  1  0
  6 15  1  0
  7 12  2  0
  8  7  1  0
  9  8  2  0
  9 10  1  0
 10 11  2  0
 11 12  1  0
 13  9  1  0
  1 16  1  1
  2 17  1  6
  3 18  1  0
  3 19  1  0
  5 20  1  0
  5 21  1  0
  6 22  1  6
  7 23  1  0
  8 24  1  0
 13 25  1  0
 14 26  1  0
 15 27  1  0
M  ISO  8  16  13  17  13  18  13  19  13  20  13  21  13  22  13  23  14
M  ISO  4  24  14  25  11  26   3  27   3
M  END
>  <minimizedAffinity>  (1) 
-5.03837347

>  <minimizedRMSD>  (1) 
2.06319046

$$$$
