
     RDKit          3D

 55 59  0  0  1  0  0  0  0  0999 V2000
   46.2690   32.8980   45.9710 C   0  0  0  0  0  0  0  0  0  0  0  0
   47.2830   31.9840   45.6350 C   0  0  0  0  0  0  0  0  0  0  0  0
   47.4500   31.1240   46.6630 C   0  0  0  0  0  0  0  0  0  0  0  0
   46.5790   31.4880   47.5990 N   0  0  0  0  0  0  0  0  0  0  0  0
   45.8690   32.5410   47.2040 N   0  0  0  0  0  0  0  0  0  0  0  0
   44.4910   35.8740   44.8220 C   0  0  0  0  0  0  0  0  0  0  0  0
   44.9230   36.0200   43.5160 C   0  0  0  0  0  0  0  0  0  0  0  0
   45.8350   35.0880   43.0240 C   0  0  0  0  0  0  0  0  0  0  0  0
   46.2270   34.1080   43.8680 N   0  0  0  0  0  0  0  0  0  0  0  0
   45.8130   33.9680   45.1170 C   0  0  0  0  0  0  0  0  0  0  0  0
   44.9360   34.8660   45.5890 N   0  0  0  0  0  0  0  0  0  0  0  0
   46.0460   33.8370   40.9000 C   0  0  2  0  0  0  0  0  0  0  0  0
   46.4100   35.0880   41.6400 C   0  0  2  0  0  0  0  0  0  0  0  0
   47.8920   35.3090   41.7750 C   0  0  0  0  0  0  0  0  0  0  0  0
   48.6050   35.0600   40.6230 O   0  0  0  0  0  0  0  0  0  0  0  0
   48.3280   33.8480   40.0430 C   0  0  0  0  0  0  0  0  0  0  0  0
   47.3120   33.0200   40.7580 C   0  0  2  0  0  0  0  0  0  0  0  0
   45.5670   34.1230   39.6310 O   0  0  0  0  0  0  0  0  0  0  0  0
   47.0850   31.8660   40.0150 O   0  0  0  0  0  0  0  0  0  0  0  0
   46.4010   30.8400   48.8920 C   0  0  0  0  0  0  0  0  0  0  0  0
   45.0550   30.2290   48.9970 C   0  0  0  0  0  0  0  0  0  0  0  0
   44.9240   27.7060   48.6400 C   0  0  0  0  0  0  0  0  0  0  0  0
   44.8140   29.0200   48.2390 C   0  0  0  0  0  0  0  0  0  0  0  0
   44.4160   29.2280   46.9220 C   0  0  0  0  0  0  0  0  0  0  0  0
   44.1480   28.1870   46.0720 C   0  0  0  0  0  0  0  0  0  0  0  0
   43.7560   28.0910   44.7800 N   0  0  0  0  0  0  0  0  0  0  0  0
   43.6280   26.8150   44.4000 C   0  0  0  0  0  0  0  0  0  0  0  0
   43.9500   25.9980   45.4840 C   0  0  0  0  0  0  0  0  0  0  0  0
   44.2580   26.8880   46.4690 C   0  0  0  0  0  0  0  0  0  0  0  0
   44.6520   26.6680   47.7740 C   0  0  0  0  0  0  0  0  0  0  0  0
   44.7880   25.2930   48.2660 C   0  0  0  0  0  0  0  0  0  0  0  0
   45.2500   25.0520   49.4080 O   0  0  0  0  0  0  0  0  0  0  0  0
   47.8472   31.9713   44.6908 H   0  0  0  0  0  0  0  0  0  0  0  0
   48.1642   30.2890   46.7153 H   0  0  0  0  0  0  0  0  0  0  0  0
   43.7719   36.5948   45.2384 H   0  0  0  0  0  0  0  0  0  0  0  0
   44.5585   36.8449   42.8862 H   0  0  0  0  0  0  0  0  0  0  0  0
   45.2603   33.3002   41.4518 H   0  0  0  0  0  0  0  0  0  0  0  0
   45.9876   35.8987   41.0281 H   0  0  0  0  0  0  0  0  0  0  0  0
   48.0600   36.3565   42.0656 H   0  0  0  0  0  0  0  0  0  0  0  0
   48.2515   34.5955   42.5310 H   0  0  0  0  0  0  0  0  0  0  0  0
   47.9590   34.0346   39.0237 H   0  0  0  0  0  0  0  0  0  0  0  0
   49.2657   33.2737   40.0718 H   0  0  0  0  0  0  0  0  0  0  0  0
   47.6602   32.7310   41.7606 H   0  0  0  0  0  0  0  0  0  0  0  0
   44.7193   34.6291   39.7045 H   0  0  0  0  0  0  0  0  0  0  0  0
   46.9349   31.1031   40.6279 H   0  0  0  0  0  0  0  0  0  0  0  0
   47.1628   30.0552   49.0094 H   0  0  0  0  0  0  0  0  0  0  0  0
   46.5052   31.5982   49.6821 H   0  0  0  0  0  0  0  0  0  0  0  0
   44.8804   29.9945   50.0574 H   0  0  0  0  0  0  0  0  0  0  0  0
   44.3718   30.9746   48.5642 H   0  0  0  0  0  0  0  0  0  0  0  0
   45.2348   27.4809   49.6709 H   0  0  0  0  0  0  0  0  0  0  0  0
   44.3134   30.2588   46.5521 H   0  0  0  0  0  0  0  0  0  0  0  0
   43.5786   28.8991   44.1665 H   0  0  0  0  0  0  0  0  0  0  0  0
   43.3210   26.4686   43.4021 H   0  0  0  0  0  0  0  0  0  0  0  0
   43.9543   24.8991   45.5321 H   0  0  0  0  0  0  0  0  0  0  0  0
   44.4791   24.4567   47.6217 H   0  0  0  0  0  0  0  0  0  0  0  0
  1  5  2  0
  2  1  1  0
  2  3  2  0
  3  4  1  0
  4 20  1  0
  5  4  1  0
  6 11  2  0
  7  6  1  0
  8  7  2  0
  8  9  1  0
  9 10  2  0
 10 11  1  0
 10  1  1  0
 12 18  1  0
 12 13  1  0
 13 14  1  0
 13  8  1  0
 15 14  1  0
 16 15  1  0
 16 17  1  0
 17 19  1  0
 17 12  1  0
 20 21  1  0
 23 22  2  0
 23 21  1  0
 24 23  1  0
 25 29  1  0
 25 24  2  0
 26 25  1  0
 27 26  1  0
 27 28  2  0
 28 29  1  0
 29 30  2  0
 30 31  1  0
 30 22  1  0
 31 32  2  0
  2 33  1  0
  3 34  1  0
  6 35  1  0
  7 36  1  0
 12 37  1  1
 13 38  1  6
 14 39  1  0
 14 40  1  0
 16 41  1  0
 16 42  1  0
 17 43  1  1
 18 44  1  0
 19 45  1  0
 20 46  1  0
 20 47  1  0
 21 48  1  0
 21 49  1  0
 22 50  1  0
 24 51  1  0
 26 52  1  0
 27 53  1  0
 28 54  1  0
 31 55  1  0
M  ISO  8  33  14  34  14  35  14  36  14  37  13  38  13  39  13  40  13
M  ISO  8  41  13  42  13  43  13  44   3  45   3  46   8  47   8  48   8
M  ISO  7  49   8  50  14  51  14  52   9  53  14  54  14  55   6
M  END
>  <minimizedAffinity>  (1) 
-6.37742424

>  <minimizedRMSD>  (1) 
0.94029671

$$$$
