
     RDKit          3D

 53 56  0  0  1  0  0  0  0  0999 V2000
   42.3890   34.3950   39.8560 C   0  0  0  0  0  0  0  0  0  0  0  0
   42.2530   33.9190   38.5860 C   0  0  0  0  0  0  0  0  0  0  0  0
   41.2830   33.0530   38.1340 C   0  0  0  0  0  0  0  0  0  0  0  0
   40.3830   32.6530   39.0710 C   0  0  0  0  0  0  0  0  0  0  0  0
   40.4980   33.1180   40.3540 C   0  0  0  0  0  0  0  0  0  0  0  0
   41.4600   33.9660   40.7670 N   0  0  0  0  0  0  0  0  0  0  0  0
   39.4670   32.6260   41.3170 C   0  0  0  0  0  0  0  0  0  0  0  0
   38.1900   32.9180   40.7870 F   0  0  0  0  0  0  0  0  0  0  0  0
   39.6230   33.1060   42.5880 F   0  0  0  0  0  0  0  0  0  0  0  0
   39.5300   31.2450   41.3900 F   0  0  0  0  0  0  0  0  0  0  0  0
   43.3700   35.3020   40.4210 C   0  0  0  0  0  0  0  0  0  0  0  0
   43.4110   35.4220   41.8980 C   0  0  0  0  0  0  0  0  0  0  0  0
   46.5600   33.6160   42.6210 C   0  0  0  0  0  0  0  0  0  0  0  0
   46.6540   33.8640   43.9480 C   0  0  0  0  0  0  0  0  0  0  0  0
   45.1430   34.8760   44.2390 S   0  0  0  0  0  0  0  0  0  0  0  0
   44.6420   34.7800   42.4580 C   0  0  0  0  0  0  0  0  0  0  0  0
   45.5100   34.1500   42.0840 N   0  0  0  0  0  0  0  0  0  0  0  0
   49.1440   32.5050   40.1240 C   0  0  0  0  0  0  0  0  0  0  0  0
   48.2220   33.3340   40.7820 C   0  0  0  0  0  0  0  0  0  0  0  0
   47.5480   32.8230   41.8640 C   0  0  0  0  0  0  0  0  0  0  0  0
   47.8320   31.5090   42.2290 N   0  0  0  0  0  0  0  0  0  0  0  0
   48.7210   30.7690   41.5620 C   0  0  0  0  0  0  0  0  0  0  0  0
   49.3820   31.2570   40.5100 N   0  0  0  0  0  0  0  0  0  0  0  0
   48.0450   34.6510   40.2860 N   0  0  0  0  0  0  0  0  0  0  0  0
   39.0590   31.5160   38.6080 S   0  0  0  0  0  0  0  0  0  0  0  0
   39.7200   28.9590   38.2010 C   0  0  2  0  0  0  0  0  0  0  0  0
   39.6360   30.2890   37.4430 C   0  0  1  0  0  0  0  0  0  0  0  0
   38.6610   30.0600   36.3130 C   0  0  0  0  0  0  0  0  0  0  0  0
   38.1400   28.7870   36.2880 O   0  0  0  0  0  0  0  0  0  0  0  0
   37.4820   28.3960   37.4270 C   0  0  0  0  0  0  0  0  0  0  0  0
   38.3260   28.5830   38.6580 C   0  0  2  0  0  0  0  0  0  0  0  0
   40.5220   29.1390   39.3060 O   0  0  0  0  0  0  0  0  0  0  0  0
   37.7930   29.5540   39.5060 O   0  0  0  0  0  0  0  0  0  0  0  0
   42.9931   34.2614   37.8477 H   0  0  0  0  0  0  0  0  0  0  0  0
   41.2393   32.7095   37.0899 H   0  0  0  0  0  0  0  0  0  0  0  0
   44.3628   34.9642   40.0889 H   0  0  0  0  0  0  0  0  0  0  0  0
   43.0727   36.2990   40.0639 H   0  0  0  0  0  0  0  0  0  0  0  0
   43.4053   36.4873   42.1720 H   0  0  0  0  0  0  0  0  0  0  0  0
   42.5306   34.9105   42.3142 H   0  0  0  0  0  0  0  0  0  0  0  0
   47.4272   33.5458   44.6628 H   0  0  0  0  0  0  0  0  0  0  0  0
   49.6897   32.9041   39.2563 H   0  0  0  0  0  0  0  0  0  0  0  0
   48.9127   29.7355   41.8862 H   0  0  0  0  0  0  0  0  0  0  0  0
   47.3771   35.2880   40.7431 H   0  0  0  0  0  0  0  0  0  0  0  0
   48.5844   34.9703   39.4687 H   0  0  0  0  0  0  0  0  0  0  0  0
   40.1343   28.1683   37.5582 H   0  0  0  0  0  0  0  0  0  0  0  0
   40.5926   30.6374   37.0266 H   0  0  0  0  0  0  0  0  0  0  0  0
   37.8310   30.7740   36.4191 H   0  0  0  0  0  0  0  0  0  0  0  0
   39.2152   30.2016   35.3734 H   0  0  0  0  0  0  0  0  0  0  0  0
   36.5652   28.9949   37.5307 H   0  0  0  0  0  0  0  0  0  0  0  0
   37.2494   27.3249   37.3342 H   0  0  0  0  0  0  0  0  0  0  0  0
   38.3518   27.6503   39.2406 H   0  0  0  0  0  0  0  0  0  0  0  0
   39.9834   29.0181   40.1279 H   0  0  0  0  0  0  0  0  0  0  0  0
   37.9399   29.2863   40.4477 H   0  0  0  0  0  0  0  0  0  0  0  0
  1 11  1  0
  1  6  1  0
  2  1  2  0
  3  2  1  0
  3  4  2  0
  4  5  1  0
  5  6  2  0
  5  7  1  0
  7 10  1  0
  7  9  1  0
  8  7  1  0
 11 12  1  0
 12 16  1  0
 13 14  2  0
 14 15  1  0
 16 15  1  0
 17 16  2  0
 17 13  1  0
 18 23  2  0
 18 19  1  0
 19 20  2  0
 20 21  1  0
 20 13  1  0
 22 21  2  0
 23 22  1  0
 24 19  1  0
 25  4  1  0
 26 31  1  0
 26 32  1  0
 27 26  1  0
 27 25  1  0
 28 27  1  0
 29 28  1  0
 29 30  1  0
 30 31  1  0
 31 33  1  0
  2 34  1  0
  3 35  1  0
 11 36  1  0
 11 37  1  0
 12 38  1  0
 12 39  1  0
 14 40  1  0
 18 41  1  0
 22 42  1  0
 24 43  1  0
 24 44  1  0
 26 45  1  6
 27 46  1  6
 28 47  1  0
 28 48  1  0
 30 49  1  0
 30 50  1  0
 31 51  1  1
 32 52  1  0
 33 53  1  0
M  ISO  8  34  14  35  14  36   8  37   8  38   8  39   8  40  14  41  14
M  ISO  8  42  14  45  13  46  13  47  13  48  13  49  13  50  13  51  13
M  ISO  2  52   3  53   3
M  END
>  <minimizedAffinity>  (1) 
-5.3947463

>  <minimizedRMSD>  (1) 
2.42089963

$$$$
