
     RDKit          3D

 53 55  0  0  1  0  0  0  0  0999 V2000
   45.5250   30.1210   47.2840 C   0  0  0  0  0  0  0  0  0  0  0  0
   46.0540   31.2110   46.6810 C   0  0  0  0  0  0  0  0  0  0  0  0
   46.2070   32.3690   47.4200 C   0  0  0  0  0  0  0  0  0  0  0  0
   45.8450   32.4620   48.7430 C   0  0  0  0  0  0  0  0  0  0  0  0
   45.3060   31.3440   49.3520 C   0  0  0  0  0  0  0  0  0  0  0  0
   45.1520   30.1820   48.6110 C   0  0  0  0  0  0  0  0  0  0  0  0
   45.2450   28.7350   46.2880 S   0  0  0  0  0  0  0  0  0  0  0  0
   46.3920   28.3310   45.4520 O   0  0  0  0  0  0  0  0  0  0  0  0
   44.1440   29.1560   45.2860 O   0  0  0  0  0  0  0  0  0  0  0  0
   44.0200   26.3040   46.1080 C   0  0  2  0  0  0  0  0  0  0  0  0
   44.5040   27.3590   47.0840 C   0  0  1  0  0  0  0  0  0  0  0  0
   45.6200   26.7020   47.8840 C   0  0  0  0  0  0  0  0  0  0  0  0
   45.1260   25.6450   48.6060 O   0  0  0  0  0  0  0  0  0  0  0  0
   44.8520   24.5940   47.7690 C   0  0  0  0  0  0  0  0  0  0  0  0
   44.6770   24.9570   46.3220 C   0  0  2  0  0  0  0  0  0  0  0  0
   44.3800   26.7200   44.8250 O   0  0  0  0  0  0  0  0  0  0  0  0
   45.8580   24.8400   45.5900 O   0  0  0  0  0  0  0  0  0  0  0  0
   46.4850   31.3260   45.3660 O   0  0  0  0  0  0  0  0  0  0  0  0
   45.2930   34.2290   43.7560 C   0  0  0  0  0  0  0  0  0  0  0  0
   46.4580   34.7320   43.1420 C   0  0  0  0  0  0  0  0  0  0  0  0
   47.6430   34.0600   43.2920 C   0  0  0  0  0  0  0  0  0  0  0  0
   47.5980   32.9450   44.0350 N   0  0  0  0  0  0  0  0  0  0  0  0
   46.5050   32.4710   44.6110 C   0  0  0  0  0  0  0  0  0  0  0  0
   45.3510   33.1150   44.4720 N   0  0  0  0  0  0  0  0  0  0  0  0
   48.9060   34.4830   42.6790 C   0  0  0  0  0  0  0  0  0  0  0  0
   48.7420   35.6420   41.7450 C   0  0  0  0  0  0  0  0  0  0  0  0
   48.6150   35.2570   40.3400 C   0  0  0  0  0  0  0  0  0  0  0  0
   48.0400   34.3520   39.5590 C   0  0  0  0  0  0  0  0  0  0  0  0
   48.2260   34.1930   38.0620 C   0  0  0  0  0  0  0  0  0  0  0  0
   46.6369   33.2542   46.9284 H   0  0  0  0  0  0  0  0  0  0  0  0
   45.9805   33.3999   49.3015 H   0  0  0  0  0  0  0  0  0  0  0  0
   45.0036   31.3757   50.4092 H   0  0  0  0  0  0  0  0  0  0  0  0
   44.7234   29.2900   49.0913 H   0  0  0  0  0  0  0  0  0  0  0  0
   42.9352   26.1925   46.2519 H   0  0  0  0  0  0  0  0  0  0  0  0
   43.6438   27.7114   47.6721 H   0  0  0  0  0  0  0  0  0  0  0  0
   46.3967   26.3397   47.1945 H   0  0  0  0  0  0  0  0  0  0  0  0
   46.0483   27.4412   48.5769 H   0  0  0  0  0  0  0  0  0  0  0  0
   45.6821   23.8759   47.8416 H   0  0  0  0  0  0  0  0  0  0  0  0
   43.8861   24.1844   48.0997 H   0  0  0  0  0  0  0  0  0  0  0  0
   43.9742   24.2082   45.9278 H   0  0  0  0  0  0  0  0  0  0  0  0
   45.0265   27.4670   44.8895 H   0  0  0  0  0  0  0  0  0  0  0  0
   46.6251   24.7640   46.2112 H   0  0  0  0  0  0  0  0  0  0  0  0
   44.3368   34.7604   43.6410 H   0  0  0  0  0  0  0  0  0  0  0  0
   46.4163   35.6564   42.5473 H   0  0  0  0  0  0  0  0  0  0  0  0
   49.6042   34.7725   43.4782 H   0  0  0  0  0  0  0  0  0  0  0  0
   49.2864   33.6358   42.0895 H   0  0  0  0  0  0  0  0  0  0  0  0
   47.8370   36.1957   42.0356 H   0  0  0  0  0  0  0  0  0  0  0  0
   49.6544   36.2508   41.8282 H   0  0  0  0  0  0  0  0  0  0  0  0
   49.1937   35.9565   39.7189 H   0  0  0  0  0  0  0  0  0  0  0  0
   47.3566   33.6424   40.0483 H   0  0  0  0  0  0  0  0  0  0  0  0
   49.0490   33.4895   37.8674 H   0  0  0  0  0  0  0  0  0  0  0  0
   47.2984   33.8044   37.6165 H   0  0  0  0  0  0  0  0  0  0  0  0
   48.4656   35.1698   37.6165 H   0  0  0  0  0  0  0  0  0  0  0  0
  1  6  2  0
  2  1  1  0
  2  3  2  0
  3  4  1  0
  4  5  2  0
  6  5  1  0
  7  1  1  0
  8  7  2  0
  9  7  2  0
 10 16  1  0
 10 15  1  0
 10 11  1  0
 11  7  1  0
 11 12  1  0
 12 13  1  0
 14 13  1  0
 15 17  1  0
 15 14  1  0
 18  2  1  0
 19 24  2  0
 20 21  2  0
 20 19  1  0
 21 22  1  0
 22 23  2  0
 23 18  1  0
 24 23  1  0
 25 21  1  0
 26 25  1  0
 27 26  1  0
 28 27  2  0
 29 28  1  0
  3 30  1  0
  4 31  1  0
  5 32  1  0
  6 33  1  0
 10 34  1  6
 11 35  1  1
 12 36  1  0
 12 37  1  0
 14 38  1  0
 14 39  1  0
 15 40  1  6
 16 41  1  0
 17 42  1  0
 19 43  1  0
 20 44  1  0
 25 45  1  0
 25 46  1  0
 26 47  1  0
 26 48  1  0
 27 49  1  0
 28 50  1  0
 29 51  1  0
 29 52  1  0
 29 53  1  0
M  ISO  8  30  14  31  14  32  14  33  14  34  13  35  13  36  13  37  13
M  ISO  8  38  13  39  13  40  13  41   3  42   3  43  14  44  14  45   8
M  ISO  6  46   8  47   8  48   8  51   8  52   8  53   8
M  END
>  <minimizedAffinity>  (1) 
-5.9838047

>  <minimizedRMSD>  (1) 
2.66023159

$$$$
