
     RDKit          3D

 47 49  0  0  1  0  0  0  0  0999 V2000
   47.3410   32.3250   40.2660 C   0  0  1  0  0  0  0  0  0  0  0  0
   48.7170   31.8820   39.9690 C   0  0  2  0  0  0  0  0  0  0  0  0
   49.5190   31.8440   41.1540 O   0  0  0  0  0  0  0  0  0  0  0  0
   49.7200   33.1830   41.5000 C   0  0  0  0  0  0  0  0  0  0  0  0
   48.4330   33.7790   42.0310 C   0  0  1  0  0  0  0  0  0  0  0  0
   47.2260   32.9840   41.6360 C   0  0  1  0  0  0  0  0  0  0  0  0
   46.8580   33.1970   39.2720 O   0  0  0  0  0  0  0  0  0  0  0  0
   48.5490   33.7390   43.4330 O   0  0  0  0  0  0  0  0  0  0  0  0
   49.4380   32.6750   39.0330 O   0  0  0  0  0  0  0  0  0  0  0  0
   52.1410   31.0670   37.3180 C   0  0  0  0  0  0  0  0  0  0  0  0
   51.5530   30.6020   36.1320 C   0  0  0  0  0  0  0  0  0  0  0  0
   50.1970   30.8590   35.9360 C   0  0  0  0  0  0  0  0  0  0  0  0
   49.5200   31.5390   36.8960 N   0  0  0  0  0  0  0  0  0  0  0  0
   50.0910   31.9740   38.0160 C   0  0  0  0  0  0  0  0  0  0  0  0
   51.4070   31.7340   38.2210 N   0  0  0  0  0  0  0  0  0  0  0  0
   53.5990   30.7830   37.5220 C   0  0  0  0  0  0  0  0  0  0  0  0
   54.2660   31.8880   37.9550 F   0  0  0  0  0  0  0  0  0  0  0  0
   53.7070   29.7190   38.4070 F   0  0  0  0  0  0  0  0  0  0  0  0
   54.1350   30.2990   36.3010 F   0  0  0  0  0  0  0  0  0  0  0  0
   46.1340   33.8640   41.5890 O   0  0  0  0  0  0  0  0  0  0  0  0
   43.8570   33.4780   41.3700 C   0  0  2  0  0  0  0  0  0  0  0  0
   45.0520   33.4310   42.3200 C   0  0  2  0  0  0  0  0  0  0  0  0
   44.7720   34.4890   43.3790 C   0  0  0  0  0  0  0  0  0  0  0  0
   44.8150   35.7210   42.7260 O   0  0  0  0  0  0  0  0  0  0  0  0
   43.7460   35.8750   41.8450 C   0  0  0  0  0  0  0  0  0  0  0  0
   43.9190   34.8530   40.7280 C   0  0  2  0  0  0  0  0  0  0  0  0
   42.6580   33.4140   42.1080 O   0  0  0  0  0  0  0  0  0  0  0  0
   43.0440   35.0250   39.6880 O   0  0  0  0  0  0  0  0  0  0  0  0
   46.7201   31.4170   40.2766 H   0  0  0  0  0  0  0  0  0  0  0  0
   48.5561   30.8885   39.5250 H   0  0  0  0  0  0  0  0  0  0  0  0
   50.4979   33.2462   42.2752 H   0  0  0  0  0  0  0  0  0  0  0  0
   50.0364   33.7432   40.6078 H   0  0  0  0  0  0  0  0  0  0  0  0
   48.2983   34.7923   41.6247 H   0  0  0  0  0  0  0  0  0  0  0  0
   47.1120   32.1794   42.3774 H   0  0  0  0  0  0  0  0  0  0  0  0
   46.4254   33.9779   39.6999 H   0  0  0  0  0  0  0  0  0  0  0  0
   47.6972   34.0327   43.8431 H   0  0  0  0  0  0  0  0  0  0  0  0
   52.1420   30.0533   35.3823 H   0  0  0  0  0  0  0  0  0  0  0  0
   49.6867   30.5181   35.0231 H   0  0  0  0  0  0  0  0  0  0  0  0
   43.8845   32.6491   40.6473 H   0  0  0  0  0  0  0  0  0  0  0  0
   45.2238   32.4366   42.7578 H   0  0  0  0  0  0  0  0  0  0  0  0
   43.7788   34.3286   43.8237 H   0  0  0  0  0  0  0  0  0  0  0  0
   45.5102   34.4433   44.1933 H   0  0  0  0  0  0  0  0  0  0  0  0
   42.7969   35.6976   42.3721 H   0  0  0  0  0  0  0  0  0  0  0  0
   43.7268   36.8957   41.4353 H   0  0  0  0  0  0  0  0  0  0  0  0
   44.8955   34.9874   40.2397 H   0  0  0  0  0  0  0  0  0  0  0  0
   42.8653   33.4251   43.0760 H   0  0  0  0  0  0  0  0  0  0  0  0
   42.1380   35.2031   40.0450 H   0  0  0  0  0  0  0  0  0  0  0  0
  1  6  1  0
  2  1  1  0
  2  3  1  0
  3  4  1  0
  4  5  1  0
  5  8  1  0
  6  5  1  0
  7  1  1  0
  9  2  1  0
 10 16  1  0
 10 15  2  0
 11 10  1  0
 12 11  2  0
 12 13  1  0
 13 14  2  0
 14 15  1  0
 14  9  1  0
 16 17  1  0
 16 18  1  0
 19 16  1  0
 20  6  1  0
 21 27  1  0
 21 22  1  0
 22 20  1  0
 22 23  1  0
 24 23  1  0
 25 24  1  0
 26 28  1  0
 26 21  1  0
 26 25  1  0
  1 29  1  1
  2 30  1  6
  4 31  1  0
  4 32  1  0
  5 33  1  6
  6 34  1  1
  7 35  1  0
  8 36  1  0
 11 37  1  0
 12 38  1  0
 21 39  1  6
 22 40  1  1
 23 41  1  0
 23 42  1  0
 25 43  1  0
 25 44  1  0
 26 45  1  6
 27 46  1  0
 28 47  1  0
M  ISO  8  29  13  30  13  31  13  32  13  33  13  34  13  35   3  36   3
M  ISO  8  37  14  38  14  39  13  40  13  41  13  42  13  43  13  44  13
M  ISO  3  45  13  46   3  47   3
M  END
>  <minimizedAffinity>  (1) 
-4.87592268

>  <minimizedRMSD>  (1) 
3.85986114

$$$$
