
     RDKit          3D

 22 23  0  0  0  0  0  0  0  0999 V2000
   46.7380   34.7740   41.8640 C   0  0  0  0  0  0  0  0  0  0  0  0
   44.5270   36.0740   44.5600 C   0  0  0  0  0  0  0  0  0  0  0  0
   45.1990   35.9760   43.3280 C   0  0  0  0  0  0  0  0  0  0  0  0
   46.0340   34.8880   43.1380 C   0  0  0  0  0  0  0  0  0  0  0  0
   46.1710   33.9650   44.1480 N   0  0  0  0  0  0  0  0  0  0  0  0
   45.4910   34.1160   45.3220 C   0  0  0  0  0  0  0  0  0  0  0  0
   44.6800   35.1570   45.5260 N   0  0  0  0  0  0  0  0  0  0  0  0
   48.1180   34.2610   41.9810 C   0  0  0  0  0  0  0  0  0  0  0  0
   49.2080   34.9370   42.4860 C   0  0  0  0  0  0  0  0  0  0  0  0
   50.4630   34.3790   42.5560 C   0  0  0  0  0  0  0  0  0  0  0  0
   50.6960   33.0880   42.1160 C   0  0  0  0  0  0  0  0  0  0  0  0
   49.5840   32.4340   41.6140 C   0  0  0  0  0  0  0  0  0  0  0  0
   48.3730   32.9990   41.5560 N   0  0  0  0  0  0  0  0  0  0  0  0
   46.7783   35.7711   41.4012 H   0  0  0  0  0  0  0  0  0  0  0  0
   46.1795   34.0460   41.2572 H   0  0  0  0  0  0  0  0  0  0  0  0
   43.8564   36.9280   44.7359 H   0  0  0  0  0  0  0  0  0  0  0  0
   45.0659   36.7361   42.5441 H   0  0  0  0  0  0  0  0  0  0  0  0
   45.6136   33.3648   46.1161 H   0  0  0  0  0  0  0  0  0  0  0  0
   49.0681   35.9662   42.8483 H   0  0  0  0  0  0  0  0  0  0  0  0
   51.2951   34.9685   42.9685 H   0  0  0  0  0  0  0  0  0  0  0  0
   51.6891   32.6173   42.1616 H   0  0  0  0  0  0  0  0  0  0  0  0
   49.7015   31.4039   41.2465 H   0  0  0  0  0  0  0  0  0  0  0  0
  1  8  1  0
  1  4  1  0
  2  7  2  0
  3  2  1  0
  4  3  2  0
  4  5  1  0
  5  6  2  0
  6  7  1  0
  8  9  2  0
  9 10  1  0
 11 10  2  0
 12 11  1  0
 13 12  2  0
 13  8  1  0
  1 14  1  0
  1 15  1  0
  2 16  1  0
  3 17  1  0
  6 18  1  0
  9 19  1  0
 10 20  1  0
 11 21  1  0
 12 22  1  0
M  ISO  8  14   8  15   8  16  14  17  14  18  14  19  14  20  14  21  14
M  ISO  1  22  14
M  END
>  <minimizedAffinity>  (1) 
-4.62954426

>  <minimizedRMSD>  (1) 
1.84905255

$$$$
