
     RDKit          3D

 36 38  0  0  0  0  0  0  0  0999 V2000
   44.8450   35.0200   44.7360 C   0  0  0  0  0  0  0  0  0  0  0  0
   44.9490   34.3380   43.5470 C   0  0  0  0  0  0  0  0  0  0  0  0
   45.4320   33.0070   43.4990 C   0  0  0  0  0  0  0  0  0  0  0  0
   45.7900   32.4400   44.7020 N   0  0  0  0  0  0  0  0  0  0  0  0
   45.6790   33.1250   45.8460 C   0  0  0  0  0  0  0  0  0  0  0  0
   45.2170   34.3850   45.8560 N   0  0  0  0  0  0  0  0  0  0  0  0
   46.0640   32.4990   47.1030 C   0  0  0  0  0  0  0  0  0  0  0  0
   47.3440   32.2240   47.4250 C   0  0  0  0  0  0  0  0  0  0  0  0
   47.7290   31.6350   48.6020 C   0  0  0  0  0  0  0  0  0  0  0  0
   46.7300   31.3240   49.4770 N   0  0  0  0  0  0  0  0  0  0  0  0
   45.4750   31.5940   49.1610 C   0  0  0  0  0  0  0  0  0  0  0  0
   45.0750   32.1710   48.0140 N   0  0  0  0  0  0  0  0  0  0  0  0
   44.5530   34.9970   42.3090 C   0  0  0  0  0  0  0  0  0  0  0  0
   45.3470   34.9640   41.3450 O   0  0  0  0  0  0  0  0  0  0  0  0
   43.4320   35.6900   41.9420 O   0  0  0  0  0  0  0  0  0  0  0  0
   42.6450   35.3520   40.8650 C   0  0  0  0  0  0  0  0  0  0  0  0
   41.1590   35.6200   41.0810 C   0  0  0  0  0  0  0  0  0  0  0  0
   40.3670   35.0950   39.9180 C   0  0  0  0  0  0  0  0  0  0  0  0
   39.2280   34.3900   40.1910 C   0  0  0  0  0  0  0  0  0  0  0  0
   38.5170   33.9180   39.1250 C   0  0  0  0  0  0  0  0  0  0  0  0
   38.9350   34.1470   37.8170 C   0  0  0  0  0  0  0  0  0  0  0  0
   40.1110   34.8780   37.6240 C   0  0  0  0  0  0  0  0  0  0  0  0
   40.8250   35.3510   38.6690 N   0  0  0  0  0  0  0  0  0  0  0  0
   44.4687   36.0532   44.7671 H   0  0  0  0  0  0  0  0  0  0  0  0
   45.5166   32.4555   42.5510 H   0  0  0  0  0  0  0  0  0  0  0  0
   48.1273   32.4882   46.6993 H   0  0  0  0  0  0  0  0  0  0  0  0
   48.7849   31.4250   48.8279 H   0  0  0  0  0  0  0  0  0  0  0  0
   44.6983   31.3261   49.8924 H   0  0  0  0  0  0  0  0  0  0  0  0
   42.7780   34.2793   40.6612 H   0  0  0  0  0  0  0  0  0  0  0  0
   42.9656   35.9831   40.0230 H   0  0  0  0  0  0  0  0  0  0  0  0
   40.8287   35.1183   42.0025 H   0  0  0  0  0  0  0  0  0  0  0  0
   40.9970   36.7046   41.1675 H   0  0  0  0  0  0  0  0  0  0  0  0
   38.8984   34.2106   41.2250 H   0  0  0  0  0  0  0  0  0  0  0  0
   37.5951   33.3451   39.3035 H   0  0  0  0  0  0  0  0  0  0  0  0
   38.3580   33.7647   36.9620 H   0  0  0  0  0  0  0  0  0  0  0  0
   40.4624   35.0721   36.5999 H   0  0  0  0  0  0  0  0  0  0  0  0
  1  6  2  0
  2  1  1  0
  3  2  2  0
  3  4  1  0
  4  5  2  0
  5  6  1  0
  5  7  1  0
  7  8  2  0
  7 12  1  0
  8  9  1  0
  9 10  2  0
 11 10  1  0
 12 11  2  0
 13  2  1  0
 14 13  2  0
 15 13  1  0
 16 17  1  0
 16 15  1  0
 18 19  2  0
 18 17  1  0
 20 19  1  0
 21 20  2  0
 22 21  1  0
 22 23  2  0
 23 18  1  0
  1 24  1  0
  3 25  1  0
  8 26  1  0
  9 27  1  0
 11 28  1  0
 16 29  1  0
 16 30  1  0
 17 31  1  0
 17 32  1  0
 19 33  1  0
 20 34  1  0
 21 35  1  0
 22 36  1  0
M  ISO  8  24  14  25  14  26  14  27  14  28  14  29   8  30   8  31   8
M  ISO  5  32   8  33  14  34  14  35  14  36  14
M  END
>  <minimizedAffinity>  (1) 
-6.12366772

>  <minimizedRMSD>  (1) 
0.735498488

$$$$
