
     RDKit          3D

 25 26  0  0  0  0  0  0  0  0999 V2000
   46.5820   34.6830   41.7540 C   0  0  0  0  0  0  0  0  0  0  0  0
   45.1910   35.9830   43.2750 C   0  0  0  0  0  0  0  0  0  0  0  0
   45.9520   34.8380   43.0450 C   0  0  0  0  0  0  0  0  0  0  0  0
   46.0480   33.9130   44.0890 C   0  0  0  0  0  0  0  0  0  0  0  0
   45.4090   34.1730   45.2490 N   0  0  0  0  0  0  0  0  0  0  0  0
   44.6750   35.2980   45.4430 C   0  0  0  0  0  0  0  0  0  0  0  0
   44.5630   36.2140   44.4460 N   0  0  0  0  0  0  0  0  0  0  0  0
   47.9380   35.3870   41.8000 C   0  0  0  0  0  0  0  0  0  0  0  0
   48.9540   34.2980   41.7180 C   0  0  0  0  0  0  0  0  0  0  0  0
   50.0950   34.3490   42.5150 C   0  0  0  0  0  0  0  0  0  0  0  0
   50.9690   33.2720   42.3470 C   0  0  0  0  0  0  0  0  0  0  0  0
   50.6550   32.2910   41.4530 C   0  0  0  0  0  0  0  0  0  0  0  0
   49.5070   32.2850   40.6830 C   0  0  0  0  0  0  0  0  0  0  0  0
   48.6510   33.3220   40.8360 N   0  0  0  0  0  0  0  0  0  0  0  0
   45.9523   35.1372   40.9748 H   0  0  0  0  0  0  0  0  0  0  0  0
   46.7140   33.6163   41.5199 H   0  0  0  0  0  0  0  0  0  0  0  0
   45.0991   36.7271   42.4701 H   0  0  0  0  0  0  0  0  0  0  0  0
   46.6338   32.9900   43.9671 H   0  0  0  0  0  0  0  0  0  0  0  0
   44.1715   35.4679   46.4061 H   0  0  0  0  0  0  0  0  0  0  0  0
   48.0429   36.0758   40.9488 H   0  0  0  0  0  0  0  0  0  0  0  0
   48.0557   35.9877   42.7140 H   0  0  0  0  0  0  0  0  0  0  0  0
   50.2921   35.1705   43.2195 H   0  0  0  0  0  0  0  0  0  0  0  0
   51.9004   33.2159   42.9295 H   0  0  0  0  0  0  0  0  0  0  0  0
   51.3584   31.4532   41.3376 H   0  0  0  0  0  0  0  0  0  0  0  0
   49.2977   31.4701   39.9744 H   0  0  0  0  0  0  0  0  0  0  0  0
  1  8  1  0
  1  3  1  0
  2  7  2  0
  3  2  1  0
  3  4  2  0
  4  5  1  0
  5  6  2  0
  7  6  1  0
  9  8  1  0
  9 10  2  0
 11 10  1  0
 12 11  2  0
 13 14  2  0
 13 12  1  0
 14  9  1  0
  1 15  1  0
  1 16  1  0
  2 17  1  0
  4 18  1  0
  6 19  1  0
  8 20  1  0
  8 21  1  0
 10 22  1  0
 11 23  1  0
 12 24  1  0
 13 25  1  0
M  ISO  8  15   8  16   8  17  14  18  14  19  14  20   8  21   8  22  14
M  ISO  3  23  14  24  14  25  14
M  END
>  <minimizedAffinity>  (1) 
-4.75951481

>  <minimizedRMSD>  (1) 
2.7812202

$$$$
