
     RDKit          3D

 32 34  0  0  1  0  0  0  0  0999 V2000
   46.2050   33.4270   39.6420 C   0  0  2  0  0  0  0  0  0  0  0  0
   44.9210   33.3250   41.7290 C   0  0  0  0  0  0  0  0  0  0  0  0
   45.6780   32.6270   40.7620 C   0  0  0  0  0  0  0  0  0  0  0  0
   45.8960   31.2460   40.9170 C   0  0  0  0  0  0  0  0  0  0  0  0
   45.3470   30.6910   42.0080 N   0  0  0  0  0  0  0  0  0  0  0  0
   44.6320   31.3570   42.9190 C   0  0  0  0  0  0  0  0  0  0  0  0
   44.4130   32.6730   42.7910 N   0  0  0  0  0  0  0  0  0  0  0  0
   45.5520   32.9550   38.3800 C   0  0  0  0  0  0  0  0  0  0  0  0
   44.2120   32.9600   38.0300 C   0  0  0  0  0  0  0  0  0  0  0  0
   44.0740   32.4460   36.7910 N   0  0  0  0  0  0  0  0  0  0  0  0
   45.3270   32.1180   36.3580 C   0  0  0  0  0  0  0  0  0  0  0  0
   46.2220   32.4320   37.3370 N   0  0  0  0  0  0  0  0  0  0  0  0
   47.6750   33.2020   39.5550 C   0  0  0  0  0  0  0  0  0  0  0  0
   48.4400   33.9640   40.5720 C   0  0  0  0  0  0  0  0  0  0  0  0
   49.2480   33.1490   41.3660 C   0  0  0  0  0  0  0  0  0  0  0  0
   50.0280   33.6860   42.3630 C   0  0  0  0  0  0  0  0  0  0  0  0
   49.9700   35.0690   42.5350 C   0  0  0  0  0  0  0  0  0  0  0  0
   49.1610   35.8700   41.7360 C   0  0  0  0  0  0  0  0  0  0  0  0
   48.4230   35.3080   40.7840 N   0  0  0  0  0  0  0  0  0  0  0  0
   46.0002   34.4973   39.7919 H   0  0  0  0  0  0  0  0  0  0  0  0
   44.7462   34.4049   41.6136 H   0  0  0  0  0  0  0  0  0  0  0  0
   46.4785   30.6596   40.1912 H   0  0  0  0  0  0  0  0  0  0  0  0
   44.2181   30.8189   43.7845 H   0  0  0  0  0  0  0  0  0  0  0  0
   43.3899   33.3256   38.6629 H   0  0  0  0  0  0  0  0  0  0  0  0
   43.1931   32.3242   36.2712 H   0  0  0  0  0  0  0  0  0  0  0  0
   45.5730   31.6744   35.3819 H   0  0  0  0  0  0  0  0  0  0  0  0
   47.8743   32.1296   39.6975 H   0  0  0  0  0  0  0  0  0  0  0  0
   48.0032   33.5532   38.5656 H   0  0  0  0  0  0  0  0  0  0  0  0
   49.2611   32.0629   41.1920 H   0  0  0  0  0  0  0  0  0  0  0  0
   50.6683   33.0540   42.9959 H   0  0  0  0  0  0  0  0  0  0  0  0
   50.5791   35.5377   43.3220 H   0  0  0  0  0  0  0  0  0  0  0  0
   49.1322   36.9587   41.8905 H   0  0  0  0  0  0  0  0  0  0  0  0
  1  3  1  0
  2  7  2  0
  3  4  2  0
  3  2  1  0
  4  5  1  0
  5  6  2  0
  7  6  1  0
  8  1  1  0
  9  8  2  0
 10  9  1  0
 11 10  1  0
 11 12  2  0
 12  8  1  0
 13  1  1  0
 13 14  1  0
 14 19  1  0
 14 15  2  0
 15 16  1  0
 16 17  2  0
 18 17  1  0
 19 18  2  0
  1 20  1  1
  2 21  1  0
  4 22  1  0
  6 23  1  0
  9 24  1  0
 10 25  1  0
 11 26  1  0
 13 27  1  0
 13 28  1  0
 15 29  1  0
 16 30  1  0
 17 31  1  0
 18 32  1  0
M  ISO  8  20   8  21  14  22  14  23  14  24  14  25   9  26  14  27   8
M  ISO  5  28   8  29  14  30  14  31  14  32  14
M  END
>  <minimizedAffinity>  (1) 
-3.88114858

>  <minimizedRMSD>  (1) 
3.39583278

$$$$
