
     RDKit          3D

 21 22  0  0  0  0  0  0  0  0999 V2000
   44.8920   35.0760   44.5270 C   0  0  0  0  0  0  0  0  0  0  0  0
   45.5140   35.1990   43.2700 C   0  0  0  0  0  0  0  0  0  0  0  0
   46.6320   34.3940   43.0060 C   0  0  0  0  0  0  0  0  0  0  0  0
   47.0470   33.5440   43.9760 N   0  0  0  0  0  0  0  0  0  0  0  0
   46.4340   33.4480   45.1660 C   0  0  0  0  0  0  0  0  0  0  0  0
   45.3660   34.2060   45.4420 N   0  0  0  0  0  0  0  0  0  0  0  0
   43.7510   35.8930   44.8060 N   0  0  0  0  0  0  0  0  0  0  0  0
   47.2880   34.5110   41.7060 C   0  0  0  0  0  0  0  0  0  0  0  0
   48.3280   35.4070   41.5730 C   0  0  0  0  0  0  0  0  0  0  0  0
   48.9100   35.4710   40.3080 C   0  0  0  0  0  0  0  0  0  0  0  0
   48.4190   34.6550   39.3090 C   0  0  0  0  0  0  0  0  0  0  0  0
   47.3840   33.7720   39.4650 C   0  0  0  0  0  0  0  0  0  0  0  0
   46.8440   33.7440   40.7200 N   0  0  0  0  0  0  0  0  0  0  0  0
   45.1345   35.9055   42.5171 H   0  0  0  0  0  0  0  0  0  0  0  0
   46.8119   32.7415   45.9197 H   0  0  0  0  0  0  0  0  0  0  0  0
   43.4031   36.5519   44.0949 H   0  0  0  0  0  0  0  0  0  0  0  0
   43.2775   35.8222   45.7180 H   0  0  0  0  0  0  0  0  0  0  0  0
   48.6754   36.0302   42.4102 H   0  0  0  0  0  0  0  0  0  0  0  0
   49.7450   36.1590   40.1096 H   0  0  0  0  0  0  0  0  0  0  0  0
   48.8922   34.7184   38.3180 H   0  0  0  0  0  0  0  0  0  0  0  0
   47.0168   33.1363   38.6458 H   0  0  0  0  0  0  0  0  0  0  0  0
  1  7  1  0
  1  6  2  0
  2  1  1  0
  3  2  2  0
  3  4  1  0
  4  5  2  0
  5  6  1  0
  8  3  1  0
  9  8  2  0
 10  9  1  0
 11 12  1  0
 11 10  2  0
 12 13  2  0
 13  8  1  0
  2 14  1  0
  5 15  1  0
  7 16  1  0
  7 17  1  0
  9 18  1  0
 10 19  1  0
 11 20  1  0
 12 21  1  0
M  ISO  6  14  14  15  14  18  14  19  14  20  14  21  14
M  END
>  <minimizedAffinity>  (1) 
-4.66207695

>  <minimizedRMSD>  (1) 
2.18500781

$$$$
