
     RDKit          3D

 23 24  0  0  0  0  0  0  0  0999 V2000
   43.4260   34.0500   40.8360 C   0  0  0  0  0  0  0  0  0  0  0  0
   42.0330   34.4860   40.5260 C   0  0  0  0  0  0  0  0  0  0  0  0
   41.5180   35.6810   40.9840 C   0  0  0  0  0  0  0  0  0  0  0  0
   40.2150   35.9800   40.6340 C   0  0  0  0  0  0  0  0  0  0  0  0
   39.4990   35.0870   39.8590 C   0  0  0  0  0  0  0  0  0  0  0  0
   40.0310   33.8850   39.4050 C   0  0  0  0  0  0  0  0  0  0  0  0
   41.3070   33.6200   39.7620 N   0  0  0  0  0  0  0  0  0  0  0  0
   44.2550   35.3940   41.6830 S   0  0  0  0  0  0  0  0  0  0  0  0
   44.3620   35.6920   44.4480 C   0  0  0  0  0  0  0  0  0  0  0  0
   44.6800   34.8650   43.3550 C   0  0  0  0  0  0  0  0  0  0  0  0
   45.3150   33.6570   43.5550 C   0  0  0  0  0  0  0  0  0  0  0  0
   45.6050   33.3230   44.8490 N   0  0  0  0  0  0  0  0  0  0  0  0
   45.2960   34.1190   45.8710 C   0  0  0  0  0  0  0  0  0  0  0  0
   44.6870   35.2840   45.7000 N   0  0  0  0  0  0  0  0  0  0  0  0
   43.9585   33.8123   39.9033 H   0  0  0  0  0  0  0  0  0  0  0  0
   43.4116   33.1513   41.4702 H   0  0  0  0  0  0  0  0  0  0  0  0
   42.1183   36.3659   41.6008 H   0  0  0  0  0  0  0  0  0  0  0  0
   39.7519   36.9199   40.9690 H   0  0  0  0  0  0  0  0  0  0  0  0
   38.4626   35.3383   39.5895 H   0  0  0  0  0  0  0  0  0  0  0  0
   39.4447   33.1876   38.7886 H   0  0  0  0  0  0  0  0  0  0  0  0
   43.8568   36.6561   44.2893 H   0  0  0  0  0  0  0  0  0  0  0  0
   45.5751   32.9954   42.7156 H   0  0  0  0  0  0  0  0  0  0  0  0
   45.5548   33.7991   46.8911 H   0  0  0  0  0  0  0  0  0  0  0  0
  1  8  1  0
  2  1  1  0
  2  3  2  0
  4  3  1  0
  5  4  2  0
  6  7  2  0
  6  5  1  0
  7  2  1  0
  8 10  1  0
  9 14  2  0
 10 11  2  0
 10  9  1  0
 11 12  1  0
 12 13  2  0
 14 13  1  0
  1 15  1  0
  1 16  1  0
  3 17  1  0
  4 18  1  0
  5 19  1  0
  6 20  1  0
  9 21  1  0
 11 22  1  0
 13 23  1  0
M  ISO  8  15   8  16   8  17  14  18  14  19  14  20  14  21  14  22  14
M  ISO  1  23  14
M  END
>  <minimizedAffinity>  (1) 
-4.33320999

>  <minimizedRMSD>  (1) 
2.24073863

$$$$
