
     RDKit          3D

 21 22  0  0  0  0  0  0  0  0999 V2000
   44.4830   35.6140   44.9310 C   0  0  0  0  0  0  0  0  0  0  0  0
   45.1540   35.5590   43.7010 C   0  0  0  0  0  0  0  0  0  0  0  0
   46.1420   34.6120   43.4860 C   0  0  0  0  0  0  0  0  0  0  0  0
   46.4050   33.7730   44.5070 N   0  0  0  0  0  0  0  0  0  0  0  0
   45.7690   33.8150   45.6900 C   0  0  0  0  0  0  0  0  0  0  0  0
   44.8080   34.7370   45.8980 N   0  0  0  0  0  0  0  0  0  0  0  0
   46.7980   34.5970   42.2130 C   0  0  0  0  0  0  0  0  0  0  0  0
   47.9960   35.2700   42.0900 C   0  0  0  0  0  0  0  0  0  0  0  0
   48.6720   35.2830   40.8670 C   0  0  0  0  0  0  0  0  0  0  0  0
   48.0470   34.5890   39.8510 C   0  0  0  0  0  0  0  0  0  0  0  0
   46.8490   33.9240   39.9970 C   0  0  0  0  0  0  0  0  0  0  0  0
   46.2180   33.9330   41.2060 N   0  0  0  0  0  0  0  0  0  0  0  0
   44.7350   36.5400   42.7300 N   0  0  0  0  0  0  0  0  0  0  0  0
   43.6992   36.3663   45.1034 H   0  0  0  0  0  0  0  0  0  0  0  0
   46.0312   33.1008   46.4844 H   0  0  0  0  0  0  0  0  0  0  0  0
   48.4202   35.7978   42.9569 H   0  0  0  0  0  0  0  0  0  0  0  0
   49.6290   35.8064   40.7250 H   0  0  0  0  0  0  0  0  0  0  0  0
   48.5345   34.5653   38.8652 H   0  0  0  0  0  0  0  0  0  0  0  0
   46.4047   33.3896   39.1443 H   0  0  0  0  0  0  0  0  0  0  0  0
   45.1785   36.5669   41.8008 H   0  0  0  0  0  0  0  0  0  0  0  0
   43.9923   37.2135   42.9659 H   0  0  0  0  0  0  0  0  0  0  0  0
  1  6  2  0
  2  1  1  0
  3  2  2  0
  3  4  1  0
  4  5  2  0
  5  6  1  0
  7  3  1  0
  8  7  2  0
  9  8  1  0
 10 11  1  0
 10  9  2  0
 11 12  2  0
 12  7  1  0
 13  2  1  0
  1 14  1  0
  5 15  1  0
  8 16  1  0
  9 17  1  0
 10 18  1  0
 11 19  1  0
 13 20  1  0
 13 21  1  0
M  ISO  6  14  14  15  14  16  14  17  14  18  14  19  14
M  END
>  <minimizedAffinity>  (1) 
-4.97657585

>  <minimizedRMSD>  (1) 
1.78988039

$$$$
