
     RDKit          3D

 35 38  0  0  0  0  0  0  0  0999 V2000
   47.3760   30.8440   45.6540 C   0  0  0  0  0  0  0  0  0  0  0  0
   47.0160   32.1380   45.3350 C   0  0  0  0  0  0  0  0  0  0  0  0
   46.3780   32.8860   46.2990 C   0  0  0  0  0  0  0  0  0  0  0  0
   46.0900   32.3930   47.5540 C   0  0  0  0  0  0  0  0  0  0  0  0
   45.5050   32.8350   48.6790 N   0  0  0  0  0  0  0  0  0  0  0  0
   45.5010   31.8820   49.6310 C   0  0  0  0  0  0  0  0  0  0  0  0
   46.1020   30.8140   49.0820 N   0  0  0  0  0  0  0  0  0  0  0  0
   46.4760   31.0910   47.8110 C   0  0  0  0  0  0  0  0  0  0  0  0
   47.1120   30.3020   46.8960 C   0  0  0  0  0  0  0  0  0  0  0  0
   47.3170   34.4450   42.5140 C   0  0  0  0  0  0  0  0  0  0  0  0
   47.8870   33.6410   41.5160 C   0  0  0  0  0  0  0  0  0  0  0  0
   48.1520   32.3230   41.8420 C   0  0  0  0  0  0  0  0  0  0  0  0
   47.8580   31.8680   43.0880 N   0  0  0  0  0  0  0  0  0  0  0  0
   47.3120   32.6720   44.0170 C   0  0  0  0  0  0  0  0  0  0  0  0
   47.0350   33.9590   43.7500 N   0  0  0  0  0  0  0  0  0  0  0  0
   48.1430   34.3010   40.2090 C   0  0  0  0  0  0  0  0  0  0  0  0
   48.6410   35.5520   40.4880 F   0  0  0  0  0  0  0  0  0  0  0  0
   46.9540   34.3990   39.5300 F   0  0  0  0  0  0  0  0  0  0  0  0
   49.0470   33.4910   39.5210 F   0  0  0  0  0  0  0  0  0  0  0  0
   47.4780   28.9400   47.2630 C   0  0  0  0  0  0  0  0  0  0  0  0
   48.7180   28.5740   47.7370 C   0  0  0  0  0  0  0  0  0  0  0  0
   49.0530   27.2790   48.0830 C   0  0  0  0  0  0  0  0  0  0  0  0
   48.0970   26.2920   47.9480 C   0  0  0  0  0  0  0  0  0  0  0  0
   46.8390   26.6620   47.4680 C   0  0  0  0  0  0  0  0  0  0  0  0
   46.5980   27.9340   47.1580 N   0  0  0  0  0  0  0  0  0  0  0  0
   47.8866   30.2286   44.8987 H   0  0  0  0  0  0  0  0  0  0  0  0
   46.0862   33.9189   46.0581 H   0  0  0  0  0  0  0  0  0  0  0  0
   45.1109   33.7791   48.7984 H   0  0  0  0  0  0  0  0  0  0  0  0
   45.0902   31.9621   50.6483 H   0  0  0  0  0  0  0  0  0  0  0  0
   47.0923   35.4981   42.2892 H   0  0  0  0  0  0  0  0  0  0  0  0
   48.5980   31.6475   41.0971 H   0  0  0  0  0  0  0  0  0  0  0  0
   49.4841   29.3558   47.8462 H   0  0  0  0  0  0  0  0  0  0  0  0
   50.0591   27.0396   48.4577 H   0  0  0  0  0  0  0  0  0  0  0  0
   48.3193   25.2471   48.2103 H   0  0  0  0  0  0  0  0  0  0  0  0
   46.0500   25.9052   47.3465 H   0  0  0  0  0  0  0  0  0  0  0  0
  1  9  2  0
  2  1  1  0
  2  3  2  0
  3  4  1  0
  4  8  2  0
  4  5  1  0
  5  6  1  0
  7  6  2  0
  8  7  1  0
  9 20  1  0
  9  8  1  0
 10 15  2  0
 11 12  2  0
 11 10  1  0
 12 13  1  0
 13 14  2  0
 14  2  1  0
 15 14  1  0
 16 17  1  0
 16 11  1  0
 18 16  1  0
 19 16  1  0
 20 21  2  0
 21 22  1  0
 23 22  2  0
 24 23  1  0
 25 20  1  0
 25 24  2  0
  1 26  1  0
  3 27  1  0
  5 28  1  0
  6 29  1  0
 10 30  1  0
 12 31  1  0
 21 32  1  0
 22 33  1  0
 23 34  1  0
 24 35  1  0
M  ISO  8  26  14  27  14  28   9  29  14  30  14  31  14  32  14  33  14
M  ISO  2  34  14  35  14
M  END
>  <minimizedAffinity>  (1) 
-5.8105197

>  <minimizedRMSD>  (1) 
0.795690715

$$$$
