
     RDKit          3D

 50 54  0  0  1  0  0  0  0  0999 V2000
   47.2580   31.0630   46.9200 C   0  0  0  0  0  0  0  0  0  0  0  0
   47.3450   31.6720   48.2700 C   0  0  1  0  0  0  0  0  0  0  0  0
   46.9730   30.7830   49.4090 C   0  0  0  0  0  0  0  0  0  0  0  0
   48.3650   31.2020   49.2370 C   0  0  1  0  0  0  0  0  0  0  0  0
   49.4040   30.2680   48.7540 C   0  0  2  0  0  0  0  0  0  0  0  0
   49.8980   29.2450   49.8030 C   0  0  0  0  0  0  0  0  0  0  0  0
   50.7950   30.3160   49.3970 C   0  0  2  0  0  0  0  0  0  0  0  0
   51.1320   31.4670   50.2300 C   0  0  0  0  0  0  0  0  0  0  0  0
   51.5170   32.7150   49.8150 C   0  0  0  0  0  0  0  0  0  0  0  0
   51.8400   33.7740   50.6170 C   0  0  0  0  0  0  0  0  0  0  0  0
   51.7820   33.5960   51.9840 C   0  0  0  0  0  0  0  0  0  0  0  0
   51.3980   32.3520   52.4240 C   0  0  0  0  0  0  0  0  0  0  0  0
   51.0910   31.3440   51.5880 N   0  0  0  0  0  0  0  0  0  0  0  0
   46.1050   32.9930   46.2010 C   0  0  0  0  0  0  0  0  0  0  0  0
   46.9640   32.1210   45.8790 C   0  0  0  0  0  0  0  0  0  0  0  0
   44.5430   35.8680   44.5050 C   0  0  0  0  0  0  0  0  0  0  0  0
   45.1960   35.9050   43.2830 C   0  0  0  0  0  0  0  0  0  0  0  0
   46.1460   34.9460   43.0720 C   0  0  0  0  0  0  0  0  0  0  0  0
   46.4110   34.0200   44.0320 N   0  0  0  0  0  0  0  0  0  0  0  0
   45.7490   34.0170   45.2160 C   0  0  0  0  0  0  0  0  0  0  0  0
   44.8320   34.9440   45.4190 N   0  0  0  0  0  0  0  0  0  0  0  0
   46.9150   34.8600   41.8380 C   0  0  0  0  0  0  0  0  0  0  0  0
   48.1230   35.4910   41.6370 C   0  0  0  0  0  0  0  0  0  0  0  0
   48.8500   35.4080   40.4660 C   0  0  0  0  0  0  0  0  0  0  0  0
   48.3650   34.6620   39.4250 C   0  0  0  0  0  0  0  0  0  0  0  0
   47.1650   34.0120   39.5730 C   0  0  0  0  0  0  0  0  0  0  0  0
   46.4740   34.1270   40.7660 C   0  0  0  0  0  0  0  0  0  0  0  0
   48.2146   30.5755   46.6805 H   0  0  0  0  0  0  0  0  0  0  0  0
   46.4437   30.3235   46.9153 H   0  0  0  0  0  0  0  0  0  0  0  0
   47.0599   32.6644   47.8907 H   0  0  0  0  0  0  0  0  0  0  0  0
   46.3788   31.1805   50.2450 H   0  0  0  0  0  0  0  0  0  0  0  0
   46.4591   29.8150   49.5031 H   0  0  0  0  0  0  0  0  0  0  0  0
   49.0969   31.6717   49.9106 H   0  0  0  0  0  0  0  0  0  0  0  0
   49.0243   30.2669   47.7216 H   0  0  0  0  0  0  0  0  0  0  0  0
   49.4661   29.2482   50.8147 H   0  0  0  0  0  0  0  0  0  0  0  0
   49.9728   28.1479   49.8326 H   0  0  0  0  0  0  0  0  0  0  0  0
   51.8386   30.2993   49.0498 H   0  0  0  0  0  0  0  0  0  0  0  0
   51.5716   32.8811   48.7290 H   0  0  0  0  0  0  0  0  0  0  0  0
   52.1377   34.7407   50.1847 H   0  0  0  0  0  0  0  0  0  0  0  0
   52.0300   34.4070   52.6846 H   0  0  0  0  0  0  0  0  0  0  0  0
   51.3391   32.1727   53.5077 H   0  0  0  0  0  0  0  0  0  0  0  0
   45.6371   32.9821   47.1965 H   0  0  0  0  0  0  0  0  0  0  0  0
   47.4668   32.1317   44.9007 H   0  0  0  0  0  0  0  0  0  0  0  0
   43.7692   36.6183   44.7245 H   0  0  0  0  0  0  0  0  0  0  0  0
   44.9619   36.6657   42.5237 H   0  0  0  0  0  0  0  0  0  0  0  0
   48.5329   36.0971   42.4584 H   0  0  0  0  0  0  0  0  0  0  0  0
   49.8100   35.9363   40.3702 H   0  0  0  0  0  0  0  0  0  0  0  0
   48.9289   34.5848   38.4837 H   0  0  0  0  0  0  0  0  0  0  0  0
   46.7568   33.4056   38.7510 H   0  0  0  0  0  0  0  0  0  0  0  0
   45.5136   33.5991   40.8604 H   0  0  0  0  0  0  0  0  0  0  0  0
  1  2  1  0
  2  4  1  0
  2  3  1  0
  4  3  1  0
  5  4  1  0
  5  7  1  0
  5  6  1  0
  7  6  1  0
  7  8  1  0
  8 13  1  0
  9  8  2  0
  9 10  1  0
 10 11  2  0
 11 12  1  0
 13 12  2  0
 15 14  2  0
 15  1  1  0
 16 21  2  0
 17 16  1  0
 18 17  2  0
 18 19  1  0
 19 20  2  0
 20 21  1  0
 20 14  1  0
 22 18  1  0
 23 22  2  0
 24 23  1  0
 25 26  1  0
 25 24  2  0
 26 27  2  0
 27 22  1  0
  1 28  1  0
  1 29  1  0
  2 30  1  6
  3 31  1  0
  3 32  1  0
  4 33  1  1
  5 34  1  6
  6 35  1  0
  6 36  1  0
  7 37  1  6
  9 38  1  0
 10 39  1  0
 11 40  1  0
 12 41  1  0
 14 42  1  0
 15 43  1  0
 16 44  1  0
 17 45  1  0
 23 46  1  0
 24 47  1  0
 25 48  1  0
 26 49  1  0
 27 50  1  0
M  ISO  8  28   8  29   8  30  13  31  13  32  13  33  13  34  13  35  13
M  ISO  8  36  13  37  13  38  14  39  14  40  14  41  14  44  14  45  14
M  ISO  5  46  14  47  14  48  14  49  14  50  14
M  END
>  <minimizedAffinity>  (1) 
-7.02633238

>  <minimizedRMSD>  (1) 
1.72247207

$$$$
