
     RDKit          3D

 46 49  0  0  0  0  0  0  0  0999 V2000
   43.8420   34.6660   40.7530 O   0  0  0  0  0  0  0  0  0  0  0  0
   42.9660   32.1350   39.4640 Cl  0  0  0  0  0  0  0  0  0  0  0  0
   41.9430   33.4670   39.9650 C   0  0  0  0  0  0  0  0  0  0  0  0
   42.4490   34.6250   40.5670 C   0  0  0  0  0  0  0  0  0  0  0  0
   41.6110   35.6370   40.9390 C   0  0  0  0  0  0  0  0  0  0  0  0
   40.2450   35.5900   40.7540 C   0  0  0  0  0  0  0  0  0  0  0  0
   39.7060   34.4320   40.1480 C   0  0  0  0  0  0  0  0  0  0  0  0
   37.9800   34.2830   39.8720 Cl  0  0  0  0  0  0  0  0  0  0  0  0
   40.5840   33.4400   39.7890 C   0  0  0  0  0  0  0  0  0  0  0  0
   39.8260   31.3200   41.3310 F   0  0  0  0  0  0  0  0  0  0  0  0
   39.6630   31.1750   39.9740 C   0  0  0  0  0  0  0  0  0  0  0  0
   40.0380   32.2330   39.1600 C   0  0  0  0  0  0  0  0  0  0  0  0
   39.8560   32.0460   37.7860 C   0  0  0  0  0  0  0  0  0  0  0  0
   39.3290   30.8530   37.3240 C   0  0  0  0  0  0  0  0  0  0  0  0
   38.9700   29.8220   38.2010 C   0  0  0  0  0  0  0  0  0  0  0  0
   39.1360   29.9730   39.5730 C   0  0  0  0  0  0  0  0  0  0  0  0
   44.3500   34.1670   41.9540 C   0  0  0  0  0  0  0  0  0  0  0  0
   44.0400   33.0640   42.5320 O   0  0  0  0  0  0  0  0  0  0  0  0
   45.3280   34.9040   42.6870 N   0  0  0  0  0  0  0  0  0  0  0  0
   45.6410   34.1950   43.9120 C   0  0  0  0  0  0  0  0  0  0  0  0
   45.1650   34.4840   45.1520 C   0  0  0  0  0  0  0  0  0  0  0  0
   45.5860   33.6860   46.1840 C   0  0  0  0  0  0  0  0  0  0  0  0
   46.4470   32.6650   45.8930 N   0  0  0  0  0  0  0  0  0  0  0  0
   46.8960   32.4110   44.6610 C   0  0  0  0  0  0  0  0  0  0  0  0
   46.4900   33.1870   43.6310 N   0  0  0  0  0  0  0  0  0  0  0  0
   47.8160   31.2870   44.4780 C   0  0  0  0  0  0  0  0  0  0  0  0
   48.5850   31.1390   43.3410 C   0  0  0  0  0  0  0  0  0  0  0  0
   49.4180   30.0300   43.2880 C   0  0  0  0  0  0  0  0  0  0  0  0
   49.5210   29.0790   44.2940 C   0  0  0  0  0  0  0  0  0  0  0  0
   48.7170   29.3070   45.3930 C   0  0  0  0  0  0  0  0  0  0  0  0
   47.8850   30.3870   45.4760 N   0  0  0  0  0  0  0  0  0  0  0  0
   44.2840   35.5730   45.2690 N   0  0  0  0  0  0  0  0  0  0  0  0
   42.0459   36.5318   41.4083 H   0  0  0  0  0  0  0  0  0  0  0  0
   39.5985   36.4232   41.0666 H   0  0  0  0  0  0  0  0  0  0  0  0
   40.1299   32.8417   37.0776 H   0  0  0  0  0  0  0  0  0  0  0  0
   39.1887   30.7111   36.2423 H   0  0  0  0  0  0  0  0  0  0  0  0
   38.5535   28.8856   37.8013 H   0  0  0  0  0  0  0  0  0  0  0  0
   38.8635   29.1830   40.2883 H   0  0  0  0  0  0  0  0  0  0  0  0
   45.7454   35.7983   42.3922 H   0  0  0  0  0  0  0  0  0  0  0  0
   45.2418   33.8617   47.2139 H   0  0  0  0  0  0  0  0  0  0  0  0
   48.5397   31.8655   42.5163 H   0  0  0  0  0  0  0  0  0  0  0  0
   50.0377   29.8958   42.3891 H   0  0  0  0  0  0  0  0  0  0  0  0
   50.1918   28.2103   44.2211 H   0  0  0  0  0  0  0  0  0  0  0  0
   48.7475   28.5944   46.2305 H   0  0  0  0  0  0  0  0  0  0  0  0
   43.8991   35.8274   46.1899 H   0  0  0  0  0  0  0  0  0  0  0  0
   44.0233   36.1165   44.4338 H   0  0  0  0  0  0  0  0  0  0  0  0
  1 17  1  0
  2  3  1  0
  3  4  2  0
  4  1  1  0
  4  5  1  0
  6  5  2  0
  7  6  1  0
  8  7  1  0
  9  3  1  0
  9  7  2  0
 11 10  1  0
 12  9  1  0
 12 11  2  0
 13 12  1  0
 14 13  2  0
 14 15  1  0
 15 16  2  0
 16 11  1  0
 17 18  2  0
 17 19  1  0
 19 20  1  0
 20 21  2  0
 21 32  1  0
 21 22  1  0
 23 22  2  0
 24 23  1  0
 25 20  1  0
 25 24  2  0
 26 24  1  0
 26 31  1  0
 27 26  2  0
 28 27  1  0
 28 29  2  0
 29 30  1  0
 30 31  2  0
  5 33  1  0
  6 34  1  0
 13 35  1  0
 14 36  1  0
 15 37  1  0
 16 38  1  0
 19 39  1  0
 22 40  1  0
 27 41  1  0
 28 42  1  0
 29 43  1  0
 30 44  1  0
 32 45  1  0
 32 46  1  0
M  ISO  8  33  14  34  14  35  14  36  14  37  14  38  14  40  14  41  14
M  ISO  3  42  14  43  14  44  14
M  END
>  <minimizedAffinity>  (1) 
-6.37639809

>  <minimizedRMSD>  (1) 
0.613786578

$$$$
