
     RDKit          3D

 28 30  0  0  0  0  0  0  0  0999 V2000
   45.7340   33.8620   45.5880 C   0  0  0  0  0  0  0  0  0  0  0  0
   44.7650   34.8330   45.8490 C   0  0  0  0  0  0  0  0  0  0  0  0
   44.4880   35.7520   44.8150 C   0  0  0  0  0  0  0  0  0  0  0  0
   45.1680   35.6510   43.6270 N   0  0  0  0  0  0  0  0  0  0  0  0
   46.0880   34.6900   43.4450 C   0  0  0  0  0  0  0  0  0  0  0  0
   46.3830   33.7960   44.4000 N   0  0  0  0  0  0  0  0  0  0  0  0
   46.7890   34.6200   42.1610 C   0  0  0  0  0  0  0  0  0  0  0  0
   47.9670   35.3080   41.9640 C   0  0  0  0  0  0  0  0  0  0  0  0
   48.6960   35.3030   40.7920 C   0  0  0  0  0  0  0  0  0  0  0  0
   48.1430   34.5270   39.7800 C   0  0  0  0  0  0  0  0  0  0  0  0
   46.9590   33.8240   39.9530 C   0  0  0  0  0  0  0  0  0  0  0  0
   46.2990   33.8860   41.1470 N   0  0  0  0  0  0  0  0  0  0  0  0
   46.0400   32.9050   46.6300 C   0  0  0  0  0  0  0  0  0  0  0  0
   45.2250   32.7780   47.7350 C   0  0  0  0  0  0  0  0  0  0  0  0
   45.4590   31.8960   48.7500 C   0  0  0  0  0  0  0  0  0  0  0  0
   46.6020   31.1250   48.5770 C   0  0  0  0  0  0  0  0  0  0  0  0
   47.4620   31.2130   47.4750 C   0  0  0  0  0  0  0  0  0  0  0  0
   47.1260   32.1220   46.5370 N   0  0  0  0  0  0  0  0  0  0  0  0
   44.2421   34.8792   46.8156 H   0  0  0  0  0  0  0  0  0  0  0  0
   43.7352   36.5410   44.9593 H   0  0  0  0  0  0  0  0  0  0  0  0
   48.3547   35.9050   42.8026 H   0  0  0  0  0  0  0  0  0  0  0  0
   49.6338   35.8647   40.6694 H   0  0  0  0  0  0  0  0  0  0  0  0
   48.6604   34.4682   38.8110 H   0  0  0  0  0  0  0  0  0  0  0  0
   46.5528   33.2179   39.1298 H   0  0  0  0  0  0  0  0  0  0  0  0
   44.3368   33.4235   47.8022 H   0  0  0  0  0  0  0  0  0  0  0  0
   44.8013   31.8037   49.6269 H   0  0  0  0  0  0  0  0  0  0  0  0
   46.8489   30.3939   49.3609 H   0  0  0  0  0  0  0  0  0  0  0  0
   48.3564   30.5797   47.3804 H   0  0  0  0  0  0  0  0  0  0  0  0
  1  2  2  0
  1 13  1  0
  3  2  1  0
  4  3  2  0
  5  4  1  0
  5  6  2  0
  6  1  1  0
  7  5  1  0
  8  7  2  0
  9  8  1  0
 10 11  1  0
 10  9  2  0
 11 12  2  0
 12  7  1  0
 13 14  2  0
 14 15  1  0
 16 15  2  0
 17 16  1  0
 18 13  1  0
 18 17  2  0
  2 19  1  0
  3 20  1  0
  8 21  1  0
  9 22  1  0
 10 23  1  0
 11 24  1  0
 14 25  1  0
 15 26  1  0
 16 27  1  0
 17 28  1  0
M  ISO  8  19  14  20  14  21  14  22  14  23  14  24  14  25  14  26  14
M  ISO  2  27  14  28  14
M  END
>  <minimizedAffinity>  (1) 
-6.25784206

>  <minimizedRMSD>  (1) 
0.372396916

$$$$
