
     RDKit          3D

 42 45  0  0  0  0  0  0  0  0999 V2000
   45.1110   33.9630   40.7250 C   0  0  0  0  0  0  0  0  0  0  0  0
   44.0690   33.6330   39.9100 C   0  0  0  0  0  0  0  0  0  0  0  0
   44.3620   33.1130   38.6800 C   0  0  0  0  0  0  0  0  0  0  0  0
   45.6400   32.9120   38.2330 C   0  0  0  0  0  0  0  0  0  0  0  0
   46.6770   33.2550   39.0750 C   0  0  0  0  0  0  0  0  0  0  0  0
   46.4310   33.7780   40.3160 C   0  0  0  0  0  0  0  0  0  0  0  0
   40.7950   35.3000   40.8020 C   0  0  0  0  0  0  0  0  0  0  0  0
   42.0910   35.1140   40.2900 C   0  0  0  0  0  0  0  0  0  0  0  0
   42.7330   33.8630   40.4240 C   0  0  0  0  0  0  0  0  0  0  0  0
   42.0110   32.9050   41.0640 N   0  0  0  0  0  0  0  0  0  0  0  0
   40.7780   33.1070   41.5420 C   0  0  0  0  0  0  0  0  0  0  0  0
   40.1780   34.2970   41.4100 N   0  0  0  0  0  0  0  0  0  0  0  0
   40.2040   36.5720   40.6390 N   0  0  0  0  0  0  0  0  0  0  0  0
   47.5830   34.1090   41.1350 C   0  0  0  0  0  0  0  0  0  0  0  0
   48.1240   35.3630   40.9210 C   0  0  0  0  0  0  0  0  0  0  0  0
   49.2320   35.8450   41.6190 C   0  0  0  0  0  0  0  0  0  0  0  0
   49.8100   35.0360   42.5600 C   0  0  0  0  0  0  0  0  0  0  0  0
   49.2870   33.7780   42.7930 C   0  0  0  0  0  0  0  0  0  0  0  0
   48.1840   33.3200   42.0860 C   0  0  0  0  0  0  0  0  0  0  0  0
   47.5780   31.9920   42.2860 C   0  0  0  0  0  0  0  0  0  0  0  0
   46.6740   31.7860   43.3310 C   0  0  0  0  0  0  0  0  0  0  0  0
   46.0970   30.5450   43.5330 C   0  0  0  0  0  0  0  0  0  0  0  0
   46.4270   29.4890   42.6780 C   0  0  0  0  0  0  0  0  0  0  0  0
   47.3250   29.7510   41.6650 C   0  0  0  0  0  0  0  0  0  0  0  0
   47.8900   30.9740   41.4710 N   0  0  0  0  0  0  0  0  0  0  0  0
   44.7090   34.9700   43.1030 N   0  0  0  0  0  0  0  0  0  0  0  0
   44.8830   34.5150   42.0330 C   0  0  0  0  0  0  0  0  0  0  0  0
   43.5281   32.8423   38.0157 H   0  0  0  0  0  0  0  0  0  0  0  0
   45.8335   32.4909   37.2354 H   0  0  0  0  0  0  0  0  0  0  0  0
   47.7157   33.1063   38.7450 H   0  0  0  0  0  0  0  0  0  0  0  0
   42.6059   35.9441   39.7842 H   0  0  0  0  0  0  0  0  0  0  0  0
   40.2506   32.2858   42.0495 H   0  0  0  0  0  0  0  0  0  0  0  0
   40.7213   37.3226   40.1594 H   0  0  0  0  0  0  0  0  0  0  0  0
   39.2556   36.7493   40.9997 H   0  0  0  0  0  0  0  0  0  0  0  0
   47.6588   36.0119   40.1643 H   0  0  0  0  0  0  0  0  0  0  0  0
   49.6311   36.8502   41.4181 H   0  0  0  0  0  0  0  0  0  0  0  0
   50.6854   35.3850   43.1273 H   0  0  0  0  0  0  0  0  0  0  0  0
   49.7521   33.1299   43.5504 H   0  0  0  0  0  0  0  0  0  0  0  0
   46.4181   32.6201   44.0009 H   0  0  0  0  0  0  0  0  0  0  0  0
   45.3858   30.3906   44.3579 H   0  0  0  0  0  0  0  0  0  0  0  0
   45.9877   28.4890   42.8083 H   0  0  0  0  0  0  0  0  0  0  0  0
   47.5976   28.9333   40.9816 H   0  0  0  0  0  0  0  0  0  0  0  0
  1 27  1  0
  2  9  1  0
  2  1  2  0
  3  2  1  0
  4  3  2  0
  4  5  1  0
  5  6  2  0
  6  1  1  0
  6 14  1  0
  7 12  2  0
  8  9  2  0
  8  7  1  0
  9 10  1  0
 10 11  2  0
 12 11  1  0
 13  7  1  0
 14 19  1  0
 15 14  2  0
 15 16  1  0
 16 17  2  0
 17 18  1  0
 19 20  1  0
 19 18  2  0
 20 21  2  0
 21 22  1  0
 23 22  2  0
 24 23  1  0
 25 24  2  0
 25 20  1  0
 27 26  3  0
  3 28  1  0
  4 29  1  0
  5 30  1  0
  8 31  1  0
 11 32  1  0
 13 33  1  0
 13 34  1  0
 15 35  1  0
 16 36  1  0
 17 37  1  0
 18 38  1  0
 21 39  1  0
 22 40  1  0
 23 41  1  0
 24 42  1  0
M  ISO  8  28  14  29  14  30  14  31  14  32  14  35  14  36  14  37  14
M  ISO  5  38  14  39  14  40  14  41  14  42  14
M  END
>  <minimizedAffinity>  (1) 
-5.97599602

>  <minimizedRMSD>  (1) 
0.513140976

$$$$
