
     RDKit          3D

 44 47  0  0  1  0  0  0  0  0999 V2000
   44.5580   35.4580   45.6030 C   0  0  0  0  0  0  0  0  0  0  0  0
   44.4560   35.9710   44.2890 C   0  0  0  0  0  0  0  0  0  0  0  0
   44.9810   35.2160   43.2240 C   0  0  0  0  0  0  0  0  0  0  0  0
   45.5570   34.0320   43.5310 N   0  0  0  0  0  0  0  0  0  0  0  0
   45.6420   33.5630   44.8030 C   0  0  0  0  0  0  0  0  0  0  0  0
   45.1380   34.2800   45.8460 N   0  0  0  0  0  0  0  0  0  0  0  0
   46.2760   32.2910   45.0110 N   0  0  0  0  0  0  0  0  0  0  0  0
   46.0720   31.7040   46.3340 C   0  0  0  0  0  0  0  0  0  0  0  0
   47.0130   30.6280   46.6810 C   0  0  0  0  0  0  0  0  0  0  0  0
   47.3700   29.8290   45.4760 C   0  0  0  0  0  0  0  0  0  0  0  0
   48.0700   30.7600   44.5320 C   0  0  0  0  0  0  0  0  0  0  0  0
   47.0470   31.6760   43.9600 C   0  0  2  0  0  0  0  0  0  0  0  0
   46.6260   31.5770   41.1410 F   0  0  0  0  0  0  0  0  0  0  0  0
   47.4110   32.5790   41.6000 C   0  0  0  0  0  0  0  0  0  0  0  0
   47.6240   32.6400   42.9860 C   0  0  0  0  0  0  0  0  0  0  0  0
   48.4330   33.6820   43.4100 C   0  0  0  0  0  0  0  0  0  0  0  0
   48.9990   34.6000   42.5720 C   0  0  0  0  0  0  0  0  0  0  0  0
   48.7690   34.5100   41.2220 C   0  0  0  0  0  0  0  0  0  0  0  0
   47.9680   33.4860   40.7450 C   0  0  0  0  0  0  0  0  0  0  0  0
   47.8000   33.4940   39.3070 C   0  0  0  0  0  0  0  0  0  0  0  0
   48.3160   34.3740   38.3900 C   0  0  0  0  0  0  0  0  0  0  0  0
   48.1280   34.3410   37.0290 C   0  0  0  0  0  0  0  0  0  0  0  0
   47.3550   33.3470   36.4930 C   0  0  0  0  0  0  0  0  0  0  0  0
   46.8330   32.4610   37.3900 C   0  0  0  0  0  0  0  0  0  0  0  0
   47.0570   32.5560   38.6910 N   0  0  0  0  0  0  0  0  0  0  0  0
   44.1512   36.0414   46.4421 H   0  0  0  0  0  0  0  0  0  0  0  0
   43.9750   36.9426   44.1029 H   0  0  0  0  0  0  0  0  0  0  0  0
   44.9251   35.5740   42.1854 H   0  0  0  0  0  0  0  0  0  0  0  0
   46.1742   32.5032   47.0829 H   0  0  0  0  0  0  0  0  0  0  0  0
   45.0708   31.2487   46.3207 H   0  0  0  0  0  0  0  0  0  0  0  0
   47.9269   31.0706   47.1040 H   0  0  0  0  0  0  0  0  0  0  0  0
   46.5340   29.9638   47.4154 H   0  0  0  0  0  0  0  0  0  0  0  0
   48.0372   29.0001   45.7550 H   0  0  0  0  0  0  0  0  0  0  0  0
   46.4733   29.3945   45.0101 H   0  0  0  0  0  0  0  0  0  0  0  0
   48.8316   31.3401   45.0736 H   0  0  0  0  0  0  0  0  0  0  0  0
   48.5709   30.1940   43.7328 H   0  0  0  0  0  0  0  0  0  0  0  0
   46.3429   31.0781   43.3628 H   0  0  0  0  0  0  0  0  0  0  0  0
   48.6316   33.7756   44.4879 H   0  0  0  0  0  0  0  0  0  0  0  0
   49.6329   35.4035   42.9751 H   0  0  0  0  0  0  0  0  0  0  0  0
   49.2140   35.2399   40.5297 H   0  0  0  0  0  0  0  0  0  0  0  0
   48.9431   35.1876   38.7834 H   0  0  0  0  0  0  0  0  0  0  0  0
   48.5909   35.1004   36.3817 H   0  0  0  0  0  0  0  0  0  0  0  0
   47.1671   33.2676   35.4121 H   0  0  0  0  0  0  0  0  0  0  0  0
   46.2038   31.6387   37.0187 H   0  0  0  0  0  0  0  0  0  0  0  0
  1  6  2  0
  2  1  1  0
  3  4  1  0
  3  2  2  0
  4  5  2  0
  5  7  1  0
  5  6  1  0
  7  8  1  0
  8  9  1  0
 10  9  1  0
 11 10  1  0
 12 11  1  0
 12  7  1  0
 13 14  1  0
 14 15  2  0
 15 16  1  0
 15 12  1  0
 17 16  2  0
 18 17  1  0
 19 18  2  0
 19 14  1  0
 20 19  1  0
 21 20  2  0
 22 21  1  0
 23 22  2  0
 23 24  1  0
 24 25  2  0
 25 20  1  0
  1 26  1  0
  2 27  1  0
  3 28  1  0
  8 29  1  0
  8 30  1  0
  9 31  1  0
  9 32  1  0
 10 33  1  0
 10 34  1  0
 11 35  1  0
 11 36  1  0
 12 37  1  6
 16 38  1  0
 17 39  1  0
 18 40  1  0
 21 41  1  0
 22 42  1  0
 23 43  1  0
 24 44  1  0
M  ISO  8  26  14  27  14  28  14  29  13  30  13  31  13  32  13  33  13
M  ISO  8  34  13  35  13  36  13  37  13  38  14  39  14  40  14  41  14
M  ISO  3  42  14  43  14  44  14
M  END
>  <minimizedAffinity>  (1) 
-5.9721489

>  <minimizedRMSD>  (1) 
1.41369569

$$$$
