
     RDKit          3D

 35 37  0  0  1  0  0  0  0  0999 V2000
   47.8830   32.9590   41.9290 C   0  0  1  0  0  0  0  0  0  0  0  0
   47.5940   32.2850   40.6250 C   0  0  0  0  0  0  0  0  0  0  0  0
   48.6590   32.8250   39.6580 C   0  0  0  0  0  0  0  0  0  0  0  0
   48.2970   34.2750   39.4050 C   0  0  0  0  0  0  0  0  0  0  0  0
   48.1790   35.0930   40.6450 C   0  0  0  0  0  0  0  0  0  0  0  0
   47.6650   34.4380   41.8600 C   0  0  1  0  0  0  0  0  0  0  0  0
   45.4230   30.9570   43.9850 C   0  0  0  0  0  0  0  0  0  0  0  0
   46.1120   31.5200   42.9140 C   0  0  0  0  0  0  0  0  0  0  0  0
   47.1820   32.3730   43.0780 C   0  0  0  0  0  0  0  0  0  0  0  0
   47.5430   32.6460   44.3550 N   0  0  0  0  0  0  0  0  0  0  0  0
   46.8830   32.1060   45.4060 C   0  0  0  0  0  0  0  0  0  0  0  0
   45.8470   31.2810   45.2400 N   0  0  0  0  0  0  0  0  0  0  0  0
   46.2520   34.7830   42.1530 C   0  0  0  0  0  0  0  0  0  0  0  0
   45.7350   35.3340   43.3310 C   0  0  0  0  0  0  0  0  0  0  0  0
   44.3600   35.5950   43.3230 C   0  0  0  0  0  0  0  0  0  0  0  0
   43.6330   35.2990   42.1910 C   0  0  0  0  0  0  0  0  0  0  0  0
   44.1610   34.7620   41.0560 C   0  0  0  0  0  0  0  0  0  0  0  0
   45.4850   34.5070   41.0520 N   0  0  0  0  0  0  0  0  0  0  0  0
   48.9534   32.7773   42.1060 H   0  0  0  0  0  0  0  0  0  0  0  0
   47.6805   31.1931   40.7259 H   0  0  0  0  0  0  0  0  0  0  0  0
   46.5722   32.4869   40.2713 H   0  0  0  0  0  0  0  0  0  0  0  0
   49.6585   32.7542   40.1119 H   0  0  0  0  0  0  0  0  0  0  0  0
   48.6840   32.2469   38.7225 H   0  0  0  0  0  0  0  0  0  0  0  0
   49.0760   34.7206   38.7690 H   0  0  0  0  0  0  0  0  0  0  0  0
   47.3072   34.2780   38.9251 H   0  0  0  0  0  0  0  0  0  0  0  0
   49.1827   35.4769   40.8802 H   0  0  0  0  0  0  0  0  0  0  0  0
   47.4217   35.8527   40.4015 H   0  0  0  0  0  0  0  0  0  0  0  0
   48.2923   34.8643   42.6567 H   0  0  0  0  0  0  0  0  0  0  0  0
   44.5718   30.2788   43.8254 H   0  0  0  0  0  0  0  0  0  0  0  0
   45.7881   31.2731   41.8922 H   0  0  0  0  0  0  0  0  0  0  0  0
   47.2099   32.3542   46.4266 H   0  0  0  0  0  0  0  0  0  0  0  0
   46.3674   35.5478   44.2053 H   0  0  0  0  0  0  0  0  0  0  0  0
   43.8681   36.0292   44.2059 H   0  0  0  0  0  0  0  0  0  0  0  0
   42.5536   35.5105   42.2046 H   0  0  0  0  0  0  0  0  0  0  0  0
   43.5333   34.5454   40.1791 H   0  0  0  0  0  0  0  0  0  0  0  0
  1  9  1  0
  2  1  1  0
  3  2  1  0
  4  3  1  0
  4  5  1  0
  5  6  1  0
  6  1  1  0
  6 13  1  0
  7 12  2  0
  8  9  2  0
  8  7  1  0
  9 10  1  0
 10 11  2  0
 12 11  1  0
 13 14  2  0
 15 14  1  0
 16 15  2  0
 17 16  1  0
 18 17  2  0
 18 13  1  0
  1 19  1  1
  2 20  1  0
  2 21  1  0
  3 22  1  0
  3 23  1  0
  4 24  1  0
  4 25  1  0
  5 26  1  0
  5 27  1  0
  6 28  1  1
  7 29  1  0
  8 30  1  0
 11 31  1  0
 14 32  1  0
 15 33  1  0
 16 34  1  0
 17 35  1  0
M  ISO  8  19  13  20  13  21  13  22  13  23  13  24  13  25  13  26  13
M  ISO  8  27  13  28  13  29  14  30  14  31  14  32  14  33  14  34  14
M  ISO  1  35  14
M  END
>  <minimizedAffinity>  (1) 
-4.53957272

>  <minimizedRMSD>  (1) 
3.19509196

$$$$
