
     RDKit          3D

 26 28  0  0  0  0  0  0  0  0999 V2000
   45.3000   36.1130   43.1620 C   0  0  0  0  0  0  0  0  0  0  0  0
   45.8290   34.8280   42.9510 C   0  0  0  0  0  0  0  0  0  0  0  0
   45.6870   33.9550   44.0060 C   0  0  0  0  0  0  0  0  0  0  0  0
   45.0600   34.3780   45.1630 N   0  0  0  0  0  0  0  0  0  0  0  0
   44.5710   35.6200   45.3130 C   0  0  0  0  0  0  0  0  0  0  0  0
   44.7020   36.4810   44.2900 N   0  0  0  0  0  0  0  0  0  0  0  0
   46.1020   32.5120   43.8480 C   0  0  0  0  0  0  0  0  0  0  0  0
   47.4460   32.2640   44.5480 C   0  0  0  0  0  0  0  0  0  0  0  0
   46.0860   31.6660   45.0200 C   0  0  0  0  0  0  0  0  0  0  0  0
   46.4700   34.5300   41.6870 C   0  0  0  0  0  0  0  0  0  0  0  0
   45.7710   33.8570   40.7130 C   0  0  0  0  0  0  0  0  0  0  0  0
   46.2730   33.5130   39.4770 C   0  0  0  0  0  0  0  0  0  0  0  0
   47.5700   33.8470   39.1460 C   0  0  0  0  0  0  0  0  0  0  0  0
   48.2650   34.5190   40.1240 C   0  0  0  0  0  0  0  0  0  0  0  0
   47.7080   34.8120   41.2880 N   0  0  0  0  0  0  0  0  0  0  0  0
   45.3855   36.8519   42.3517 H   0  0  0  0  0  0  0  0  0  0  0  0
   44.0769   35.9238   46.2477 H   0  0  0  0  0  0  0  0  0  0  0  0
   45.6719   32.3595   42.8471 H   0  0  0  0  0  0  0  0  0  0  0  0
   48.2106   31.6232   44.0847 H   0  0  0  0  0  0  0  0  0  0  0  0
   48.2478   32.8770   44.9855 H   0  0  0  0  0  0  0  0  0  0  0  0
   45.6229   32.0289   45.9494 H   0  0  0  0  0  0  0  0  0  0  0  0
   45.7238   30.6489   45.2304 H   0  0  0  0  0  0  0  0  0  0  0  0
   44.7326   33.5717   40.9375 H   0  0  0  0  0  0  0  0  0  0  0  0
   45.6414   32.9735   38.7560 H   0  0  0  0  0  0  0  0  0  0  0  0
   48.0151   33.5946   38.1723 H   0  0  0  0  0  0  0  0  0  0  0  0
   49.3061   34.8194   39.9347 H   0  0  0  0  0  0  0  0  0  0  0  0
  1  6  2  0
  2  1  1  0
  2  3  2  0
  3  4  1  0
  4  5  2  0
  6  5  1  0
  7  3  1  0
  7  8  1  0
  7  9  1  0
  8  9  1  0
 10  2  1  0
 11 10  2  0
 12 11  1  0
 13 12  2  0
 13 14  1  0
 14 15  2  0
 15 10  1  0
  1 16  1  0
  5 17  1  0
  7 18  1  0
  8 19  1  0
  8 20  1  0
  9 21  1  0
  9 22  1  0
 11 23  1  0
 12 24  1  0
 13 25  1  0
 14 26  1  0
M  ISO  8  16  14  17  14  18  13  19  13  20  13  21  13  22  13  23  14
M  ISO  3  24  14  25  14  26  14
M  END
>  <minimizedAffinity>  (1) 
-4.32910252

>  <minimizedRMSD>  (1) 
3.5562849

$$$$
