
     RDKit          3D

 32 34  0  0  0  0  0  0  0  0999 V2000
   46.2600   29.6290   44.8370 Br  0  0  0  0  0  0  0  0  0  0  0  0
   45.9080   30.5260   46.5170 C   0  0  0  0  0  0  0  0  0  0  0  0
   46.3340   31.8240   46.5850 C   0  0  0  0  0  0  0  0  0  0  0  0
   46.0670   32.4440   47.8090 C   0  0  0  0  0  0  0  0  0  0  0  0
   45.4330   31.8180   48.8620 C   0  0  0  0  0  0  0  0  0  0  0  0
   45.0430   30.5070   48.6910 C   0  0  0  0  0  0  0  0  0  0  0  0
   45.2700   29.8260   47.5180 C   0  0  0  0  0  0  0  0  0  0  0  0
   44.8900   28.4370   47.2560 C   0  0  0  0  0  0  0  0  0  0  0  0
   43.7760   28.1020   46.5270 C   0  0  0  0  0  0  0  0  0  0  0  0
   43.3780   26.8090   46.2540 C   0  0  0  0  0  0  0  0  0  0  0  0
   44.1540   25.7620   46.7490 C   0  0  0  0  0  0  0  0  0  0  0  0
   45.2650   26.1330   47.4780 C   0  0  0  0  0  0  0  0  0  0  0  0
   45.6170   27.4090   47.7210 N   0  0  0  0  0  0  0  0  0  0  0  0
   47.0150   32.6020   45.5440 C   0  0  0  0  0  0  0  0  0  0  0  0
   44.5550   35.3840   45.2190 C   0  0  0  0  0  0  0  0  0  0  0  0
   44.7790   35.8340   43.9190 C   0  0  0  0  0  0  0  0  0  0  0  0
   45.7670   35.1740   43.1810 C   0  0  0  0  0  0  0  0  0  0  0  0
   46.4470   34.1530   43.7460 N   0  0  0  0  0  0  0  0  0  0  0  0
   46.2000   33.7390   45.0290 C   0  0  0  0  0  0  0  0  0  0  0  0
   45.2510   34.3750   45.7350 N   0  0  0  0  0  0  0  0  0  0  0  0
   46.3802   33.4903   47.9399 H   0  0  0  0  0  0  0  0  0  0  0  0
   45.2447   32.3478   49.8075 H   0  0  0  0  0  0  0  0  0  0  0  0
   44.5347   29.9897   49.5181 H   0  0  0  0  0  0  0  0  0  0  0  0
   43.1572   28.9216   46.1328 H   0  0  0  0  0  0  0  0  0  0  0  0
   42.4727   26.6099   45.6617 H   0  0  0  0  0  0  0  0  0  0  0  0
   43.8970   24.7076   46.5698 H   0  0  0  0  0  0  0  0  0  0  0  0
   45.9033   25.3356   47.8863 H   0  0  0  0  0  0  0  0  0  0  0  0
   47.9491   33.0039   45.9634 H   0  0  0  0  0  0  0  0  0  0  0  0
   47.1985   31.9234   44.6979 H   0  0  0  0  0  0  0  0  0  0  0  0
   43.7849   35.8747   45.8323 H   0  0  0  0  0  0  0  0  0  0  0  0
   44.2050   36.6700   43.4929 H   0  0  0  0  0  0  0  0  0  0  0  0
   45.9883   35.4839   42.1490 H   0  0  0  0  0  0  0  0  0  0  0  0
  1  2  1  0
  2  3  2  0
  2  7  1  0
  3  4  1  0
  4  5  2  0
  6  5  1  0
  7  6  2  0
  8  7  1  0
  8 13  1  0
  9  8  2  0
 10  9  1  0
 10 11  2  0
 11 12  1  0
 12 13  2  0
 14  3  1  0
 15 20  2  0
 16 15  1  0
 17 18  1  0
 17 16  2  0
 18 19  2  0
 19 14  1  0
 19 20  1  0
  4 21  1  0
  5 22  1  0
  6 23  1  0
  9 24  1  0
 10 25  1  0
 11 26  1  0
 12 27  1  0
 14 28  1  0
 14 29  1  0
 15 30  1  0
 16 31  1  0
 17 32  1  0
M  ISO  8  21  14  22  14  23  14  24  14  25  14  26  14  27  14  28   8
M  ISO  4  29   8  30  14  31  14  32  14
M  END
>  <minimizedAffinity>  (1) 
-5.25765705

>  <minimizedRMSD>  (1) 
1.01849794

$$$$
