
     RDKit          3D

 29 31  0  0  0  0  0  0  0  0999 V2000
   44.7420   32.9330   41.2110 Br  0  0  0  0  0  0  0  0  0  0  0  0
   46.3740   33.9200   40.9870 C   0  0  0  0  0  0  0  0  0  0  0  0
   46.8900   34.7300   41.9740 C   0  0  0  0  0  0  0  0  0  0  0  0
   48.0630   35.3920   41.7130 C   0  0  0  0  0  0  0  0  0  0  0  0
   48.7320   35.2740   40.5140 C   0  0  0  0  0  0  0  0  0  0  0  0
   48.2140   34.4600   39.5230 C   0  0  0  0  0  0  0  0  0  0  0  0
   47.0390   33.8020   39.7930 C   0  0  0  0  0  0  0  0  0  0  0  0
   44.4930   35.9190   44.6700 C   0  0  0  0  0  0  0  0  0  0  0  0
   45.2060   35.8430   43.4680 C   0  0  0  0  0  0  0  0  0  0  0  0
   46.1380   34.8210   43.2280 C   0  0  0  0  0  0  0  0  0  0  0  0
   46.2870   33.9370   44.2310 N   0  0  0  0  0  0  0  0  0  0  0  0
   45.6080   33.9990   45.3910 C   0  0  0  0  0  0  0  0  0  0  0  0
   44.7170   34.9920   45.5980 N   0  0  0  0  0  0  0  0  0  0  0  0
   46.4840   32.9400   38.7540 C   0  0  0  0  0  0  0  0  0  0  0  0
   45.5990   33.3240   37.7950 C   0  0  0  0  0  0  0  0  0  0  0  0
   45.0820   32.5110   36.8240 C   0  0  0  0  0  0  0  0  0  0  0  0
   45.4800   31.1700   36.7890 C   0  0  0  0  0  0  0  0  0  0  0  0
   46.3750   30.7940   37.7620 C   0  0  0  0  0  0  0  0  0  0  0  0
   46.8380   31.6320   38.6770 N   0  0  0  0  0  0  0  0  0  0  0  0
   48.4864   36.0430   42.4920 H   0  0  0  0  0  0  0  0  0  0  0  0
   49.6705   35.8228   40.3464 H   0  0  0  0  0  0  0  0  0  0  0  0
   48.7238   34.3440   38.5552 H   0  0  0  0  0  0  0  0  0  0  0  0
   43.7652   36.7254   44.8433 H   0  0  0  0  0  0  0  0  0  0  0  0
   45.0317   36.6030   42.6921 H   0  0  0  0  0  0  0  0  0  0  0  0
   45.7787   33.2413   46.1700 H   0  0  0  0  0  0  0  0  0  0  0  0
   45.2723   34.3744   37.8008 H   0  0  0  0  0  0  0  0  0  0  0  0
   44.3676   32.9036   36.0854 H   0  0  0  0  0  0  0  0  0  0  0  0
   45.1023   30.4647   36.0341 H   0  0  0  0  0  0  0  0  0  0  0  0
   46.7222   29.7504   37.7816 H   0  0  0  0  0  0  0  0  0  0  0  0
  2  1  1  0
  2  3  2  0
  3 10  1  0
  4  3  1  0
  5  4  2  0
  6  7  2  0
  6  5  1  0
  7  2  1  0
  8 13  2  0
  9  8  1  0
 10  9  2  0
 10 11  1  0
 11 12  2  0
 12 13  1  0
 14  7  1  0
 15 14  2  0
 16 15  1  0
 17 16  2  0
 17 18  1  0
 18 19  2  0
 19 14  1  0
  4 20  1  0
  5 21  1  0
  6 22  1  0
  8 23  1  0
  9 24  1  0
 12 25  1  0
 15 26  1  0
 16 27  1  0
 17 28  1  0
 18 29  1  0
M  ISO  8  20  14  21  14  22  14  23  14  24  14  25  14  26  14  27  14
M  ISO  2  28  14  29  14
M  END
>  <minimizedAffinity>  (1) 
-5.45558977

>  <minimizedRMSD>  (1) 
0.272505224

$$$$
