
     RDKit          3D

 30 32  0  0  1  0  0  0  0  0999 V2000
   46.6200   34.7680   43.0950 C   0  0  0  0  0  0  0  0  0  0  0  0
   45.5710   35.7170   43.2790 C   0  0  0  0  0  0  0  0  0  0  0  0
   44.7510   35.5140   44.3870 C   0  0  0  0  0  0  0  0  0  0  0  0
   44.9920   34.4580   45.2000 N   0  0  0  0  0  0  0  0  0  0  0  0
   46.0250   33.5820   44.9590 C   0  0  0  0  0  0  0  0  0  0  0  0
   46.8330   33.7230   43.9270 N   0  0  0  0  0  0  0  0  0  0  0  0
   46.2350   32.4540   45.9140 C   0  0  1  0  0  0  0  0  0  0  0  0
   46.9740   32.7170   47.2060 C   0  0  0  0  0  0  0  0  0  0  0  0
   45.4780   32.5680   47.1770 C   0  0  1  0  0  0  0  0  0  0  0  0
   44.8140   33.8380   47.5050 N   0  0  0  0  0  0  0  0  0  0  0  0
   47.4670   35.0080   41.9440 C   0  0  0  0  0  0  0  0  0  0  0  0
   48.4890   35.7830   41.9790 O   0  0  0  0  0  0  0  0  0  0  0  0
   47.1810   34.3590   40.6650 C   0  0  0  0  0  0  0  0  0  0  0  0
   48.0930   34.4460   39.6310 C   0  0  0  0  0  0  0  0  0  0  0  0
   47.9160   33.8710   38.3920 C   0  0  0  0  0  0  0  0  0  0  0  0
   46.7230   33.1700   38.2270 C   0  0  0  0  0  0  0  0  0  0  0  0
   45.8280   33.0990   39.2750 C   0  0  0  0  0  0  0  0  0  0  0  0
   46.0410   33.6800   40.4800 N   0  0  0  0  0  0  0  0  0  0  0  0
   45.4186   36.5588   42.5875 H   0  0  0  0  0  0  0  0  0  0  0  0
   43.9192   36.2020   44.5985 H   0  0  0  0  0  0  0  0  0  0  0  0
   46.3572   31.7050   45.1178 H   0  0  0  0  0  0  0  0  0  0  0  0
   47.6000   31.9321   47.6555 H   0  0  0  0  0  0  0  0  0  0  0  0
   47.6808   33.4793   47.5656 H   0  0  0  0  0  0  0  0  0  0  0  0
   44.7080   31.9220   47.6239 H   0  0  0  0  0  0  0  0  0  0  0  0
   44.7593   33.9426   48.5282 H   0  0  0  0  0  0  0  0  0  0  0  0
   45.3540   34.6202   47.1083 H   0  0  0  0  0  0  0  0  0  0  0  0
   49.0201   35.0108   39.8086 H   0  0  0  0  0  0  0  0  0  0  0  0
   48.6633   33.9589   37.5897 H   0  0  0  0  0  0  0  0  0  0  0  0
   46.4967   32.6776   37.2698 H   0  0  0  0  0  0  0  0  0  0  0  0
   44.8921   32.5411   39.1239 H   0  0  0  0  0  0  0  0  0  0  0  0
  1  2  2  0
  1  6  1  0
  2  3  1  0
  3  4  2  0
  5  4  1  0
  5  7  1  0
  6  5  2  0
  7  9  1  0
  7  8  1  0
  9  8  1  0
  9 10  1  0
 11 12  2  0
 11  1  1  0
 13 11  1  0
 14 13  2  0
 15 14  1  0
 16 15  2  0
 16 17  1  0
 17 18  2  0
 18 13  1  0
  2 19  1  0
  3 20  1  0
  7 21  1  6
  8 22  1  0
  8 23  1  0
  9 24  1  1
 10 25  1  0
 10 26  1  0
 14 27  1  0
 15 28  1  0
 16 29  1  0
 17 30  1  0
M  ISO  8  19  14  20  14  21  13  22  13  23  13  24  13  25   5  26   5
M  ISO  4  27  14  28  14  29  14  30  14
M  END
>  <minimizedAffinity>  (1) 
-5.69534492

>  <minimizedRMSD>  (1) 
0.919894516

$$$$
