
     RDKit          3D

 29 31  0  0  0  0  0  0  0  0999 V2000
   44.8180   32.9910   41.1800 Br  0  0  0  0  0  0  0  0  0  0  0  0
   46.4630   33.9630   40.9400 C   0  0  0  0  0  0  0  0  0  0  0  0
   46.9280   34.7700   41.9480 C   0  0  0  0  0  0  0  0  0  0  0  0
   48.1180   35.4820   41.7920 C   0  0  0  0  0  0  0  0  0  0  0  0
   48.7990   35.3480   40.6090 C   0  0  0  0  0  0  0  0  0  0  0  0
   48.2900   34.5300   39.6320 C   0  0  0  0  0  0  0  0  0  0  0  0
   47.1460   33.8270   39.7460 C   0  0  0  0  0  0  0  0  0  0  0  0
   45.6500   34.0290   45.2910 C   0  0  0  0  0  0  0  0  0  0  0  0
   44.7090   35.0700   45.5150 C   0  0  0  0  0  0  0  0  0  0  0  0
   44.5370   36.0110   44.4970 C   0  0  0  0  0  0  0  0  0  0  0  0
   45.2670   35.8860   43.3630 N   0  0  0  0  0  0  0  0  0  0  0  0
   46.1630   34.8710   43.1810 C   0  0  0  0  0  0  0  0  0  0  0  0
   46.3420   33.9530   44.1530 N   0  0  0  0  0  0  0  0  0  0  0  0
   46.5930   32.9590   38.7300 C   0  0  0  0  0  0  0  0  0  0  0  0
   46.9570   31.6410   38.5920 C   0  0  0  0  0  0  0  0  0  0  0  0
   46.4290   30.7960   37.6150 C   0  0  0  0  0  0  0  0  0  0  0  0
   45.4910   31.3040   36.7370 C   0  0  0  0  0  0  0  0  0  0  0  0
   45.1330   32.6250   36.8820 C   0  0  0  0  0  0  0  0  0  0  0  0
   45.6860   33.3790   37.8480 N   0  0  0  0  0  0  0  0  0  0  0  0
   48.4986   36.1315   42.5941 H   0  0  0  0  0  0  0  0  0  0  0  0
   49.7421   35.8899   40.4454 H   0  0  0  0  0  0  0  0  0  0  0  0
   48.8541   34.4421   38.6918 H   0  0  0  0  0  0  0  0  0  0  0  0
   45.8110   33.2708   46.0715 H   0  0  0  0  0  0  0  0  0  0  0  0
   44.1383   35.1324   46.4533 H   0  0  0  0  0  0  0  0  0  0  0  0
   43.8217   36.8384   44.6142 H   0  0  0  0  0  0  0  0  0  0  0  0
   47.7035   31.2307   39.2880 H   0  0  0  0  0  0  0  0  0  0  0  0
   46.7529   29.7471   37.5454 H   0  0  0  0  0  0  0  0  0  0  0  0
   45.0466   30.6758   35.9510 H   0  0  0  0  0  0  0  0  0  0  0  0
   44.3892   33.0670   36.2027 H   0  0  0  0  0  0  0  0  0  0  0  0
  2  1  1  0
  2  3  2  0
  3 12  1  0
  4  3  1  0
  5  4  2  0
  6  7  2  0
  6  5  1  0
  7  2  1  0
  8  9  2  0
 10  9  1  0
 11 10  2  0
 12 11  1  0
 12 13  2  0
 13  8  1  0
 14  7  1  0
 15 14  2  0
 16 15  1  0
 17 18  1  0
 17 16  2  0
 18 19  2  0
 19 14  1  0
  4 20  1  0
  5 21  1  0
  6 22  1  0
  8 23  1  0
  9 24  1  0
 10 25  1  0
 15 26  1  0
 16 27  1  0
 17 28  1  0
 18 29  1  0
M  ISO  8  20  14  21  14  22  14  23  14  24  14  25  14  26  14  27  14
M  ISO  2  28  14  29  14
M  END
>  <minimizedAffinity>  (1) 
-5.40490341

>  <minimizedRMSD>  (1) 
0.266192973

$$$$
