
     RDKit          3D

 29 31  0  0  0  0  0  0  0  0999 V2000
   45.7720   34.2420   41.0500 C   0  0  0  0  0  0  0  0  0  0  0  0
   46.4170   34.7690   42.1640 C   0  0  0  0  0  0  0  0  0  0  0  0
   47.7890   35.0020   42.0300 C   0  0  0  0  0  0  0  0  0  0  0  0
   48.4070   34.7140   40.8580 N   0  0  0  0  0  0  0  0  0  0  0  0
   47.7290   34.2030   39.8100 C   0  0  0  0  0  0  0  0  0  0  0  0
   46.4080   33.9660   39.9030 N   0  0  0  0  0  0  0  0  0  0  0  0
   45.6720   35.0490   43.3740 C   0  0  0  0  0  0  0  0  0  0  0  0
   45.1220   36.3020   43.6410 C   0  0  0  0  0  0  0  0  0  0  0  0
   44.5170   36.1300   44.8650 C   0  0  0  0  0  0  0  0  0  0  0  0
   44.6870   34.8570   45.3150 N   0  0  0  0  0  0  0  0  0  0  0  0
   45.3880   34.2420   44.3850 N   0  0  0  0  0  0  0  0  0  0  0  0
   44.4130   33.9950   41.1400 O   0  0  0  0  0  0  0  0  0  0  0  0
   43.3940   34.8070   40.7400 C   0  0  0  0  0  0  0  0  0  0  0  0
   43.1870   36.0250   41.0780 O   0  0  0  0  0  0  0  0  0  0  0  0
   42.3180   34.3640   39.8040 C   0  0  0  0  0  0  0  0  0  0  0  0
   41.1750   35.1090   39.6250 C   0  0  0  0  0  0  0  0  0  0  0  0
   40.1380   34.7470   38.7710 C   0  0  0  0  0  0  0  0  0  0  0  0
   40.2580   33.5740   38.0600 C   0  0  0  0  0  0  0  0  0  0  0  0
   41.4120   32.8530   38.2620 C   0  0  0  0  0  0  0  0  0  0  0  0
   42.3670   33.2520   39.0930 N   0  0  0  0  0  0  0  0  0  0  0  0
   48.3641   35.4168   42.8710 H   0  0  0  0  0  0  0  0  0  0  0  0
   48.2597   33.9785   38.8730 H   0  0  0  0  0  0  0  0  0  0  0  0
   45.1621   37.2103   43.0218 H   0  0  0  0  0  0  0  0  0  0  0  0
   43.9698   36.9156   45.4066 H   0  0  0  0  0  0  0  0  0  0  0  0
   44.3398   34.4577   46.1987 H   0  0  0  0  0  0  0  0  0  0  0  0
   41.0752   36.0469   40.1910 H   0  0  0  0  0  0  0  0  0  0  0  0
   39.2455   35.3814   38.6665 H   0  0  0  0  0  0  0  0  0  0  0  0
   39.4740   33.2321   37.3683 H   0  0  0  0  0  0  0  0  0  0  0  0
   41.5486   31.9093   37.7136 H   0  0  0  0  0  0  0  0  0  0  0  0
  1 12  1  0
  1  2  1  0
  2  7  1  0
  3  2  2  0
  4  3  1  0
  5  6  1  0
  5  4  2  0
  6  1  2  0
  7  8  1  0
  7 11  2  0
  8  9  2  0
  9 10  1  0
 11 10  1  0
 13 14  2  0
 13 12  1  0
 15 13  1  0
 16 15  2  0
 17 16  1  0
 18 19  1  0
 18 17  2  0
 19 20  2  0
 20 15  1  0
  3 21  1  0
  5 22  1  0
  8 23  1  0
  9 24  1  0
 10 25  1  0
 16 26  1  0
 17 27  1  0
 18 28  1  0
 19 29  1  0
M  ISO  8  21  14  22  14  23  14  24  14  25   9  26  14  27  14  28  14
M  ISO  1  29  14
M  END
>  <minimizedAffinity>  (1) 
-5.47524452

>  <minimizedRMSD>  (1) 
1.03568709

$$$$
