
     RDKit          3D

 23 24  0  0  0  0  0  0  0  0999 V2000
   46.2480   33.8730   40.9190 C   0  0  0  0  0  0  0  0  0  0  0  0
   45.2920   33.1240   41.2560 O   0  0  0  0  0  0  0  0  0  0  0  0
   46.6940   34.7550   41.9370 N   0  0  0  0  0  0  0  0  0  0  0  0
   44.5360   35.7070   44.8280 C   0  0  0  0  0  0  0  0  0  0  0  0
   45.0870   35.7650   43.5360 C   0  0  0  0  0  0  0  0  0  0  0  0
   46.0560   34.8090   43.2130 C   0  0  0  0  0  0  0  0  0  0  0  0
   46.4200   33.8800   44.1430 N   0  0  0  0  0  0  0  0  0  0  0  0
   45.8620   33.8630   45.3780 C   0  0  0  0  0  0  0  0  0  0  0  0
   44.9350   34.7710   45.6990 N   0  0  0  0  0  0  0  0  0  0  0  0
   46.8540   33.8480   39.5920 C   0  0  0  0  0  0  0  0  0  0  0  0
   48.0470   34.5170   39.4080 C   0  0  0  0  0  0  0  0  0  0  0  0
   48.6010   34.4790   38.1480 C   0  0  0  0  0  0  0  0  0  0  0  0
   47.9380   33.7830   37.1570 C   0  0  0  0  0  0  0  0  0  0  0  0
   46.7330   33.1080   37.3460 C   0  0  0  0  0  0  0  0  0  0  0  0
   46.2490   33.1840   38.5910 N   0  0  0  0  0  0  0  0  0  0  0  0
   47.4979   35.3715   41.7508 H   0  0  0  0  0  0  0  0  0  0  0  0
   43.7697   36.4375   45.1266 H   0  0  0  0  0  0  0  0  0  0  0  0
   44.7701   36.5288   42.8106 H   0  0  0  0  0  0  0  0  0  0  0  0
   46.1707   33.1052   46.1131 H   0  0  0  0  0  0  0  0  0  0  0  0
   48.5345   35.0575   40.2327 H   0  0  0  0  0  0  0  0  0  0  0  0
   49.5507   34.9918   37.9357 H   0  0  0  0  0  0  0  0  0  0  0  0
   48.3894   33.7596   36.1542 H   0  0  0  0  0  0  0  0  0  0  0  0
   46.2234   32.5595   36.5401 H   0  0  0  0  0  0  0  0  0  0  0  0
  1  2  2  0
  1  3  1  0
  3  6  1  0
  4  9  2  0
  5  4  1  0
  6  5  2  0
  6  7  1  0
  7  8  2  0
  8  9  1  0
 10  1  1  0
 11 10  2  0
 12 11  1  0
 13 14  1  0
 13 12  2  0
 14 15  2  0
 15 10  1  0
  3 16  1  0
  4 17  1  0
  5 18  1  0
  8 19  1  0
 11 20  1  0
 12 21  1  0
 13 22  1  0
 14 23  1  0
M  ISO  7  17  14  18  14  19  14  20  14  21  14  22  14  23  14
M  END
>  <minimizedAffinity>  (1) 
-4.42876673

>  <minimizedRMSD>  (1) 
0.608237922

$$$$
