
     RDKit          3D

 39 42  0  0  1  0  0  0  0  0999 V2000
   48.0670   33.2130   43.2050 N   0  0  0  0  0  0  0  0  0  0  0  0
   49.2230   33.2450   42.4260 C   0  0  0  0  0  0  0  0  0  0  0  0
   50.3670   32.7690   42.6390 O   0  0  0  0  0  0  0  0  0  0  0  0
   46.2580   32.0650   44.4320 C   0  0  1  0  0  0  0  0  0  0  0  0
   46.4200   31.3540   43.2370 C   0  0  0  0  0  0  0  0  0  0  0  0
   47.6420   32.0520   43.9070 C   0  0  1  0  0  0  0  0  0  0  0  0
   45.0470   33.9790   43.1450 C   0  0  0  0  0  0  0  0  0  0  0  0
   45.5350   33.4180   44.3720 C   0  0  0  0  0  0  0  0  0  0  0  0
   45.3540   34.1550   45.5230 C   0  0  0  0  0  0  0  0  0  0  0  0
   44.7350   35.3530   45.4470 N   0  0  0  0  0  0  0  0  0  0  0  0
   44.2790   35.8720   44.2770 C   0  0  0  0  0  0  0  0  0  0  0  0
   44.4460   35.1510   43.0900 N   0  0  0  0  0  0  0  0  0  0  0  0
   49.1890   33.9460   41.0810 C   0  0  2  0  0  0  0  0  0  0  0  0
   48.6420   35.4190   41.0730 C   0  0  0  0  0  0  0  0  0  0  0  0
   47.9200   34.2920   40.4290 C   0  0  1  0  0  0  0  0  0  0  0  0
   47.8860   34.2290   38.9200 C   0  0  0  0  0  0  0  0  0  0  0  0
   48.7080   34.8630   38.2710 O   0  0  0  0  0  0  0  0  0  0  0  0
   46.8820   33.4210   38.2290 C   0  0  0  0  0  0  0  0  0  0  0  0
   47.0720   33.0590   36.9130 C   0  0  0  0  0  0  0  0  0  0  0  0
   46.1710   32.2970   36.1940 C   0  0  0  0  0  0  0  0  0  0  0  0
   45.0320   31.9150   36.9140 C   0  0  0  0  0  0  0  0  0  0  0  0
   44.8040   32.2560   38.2290 C   0  0  0  0  0  0  0  0  0  0  0  0
   45.7530   32.9990   38.8230 N   0  0  0  0  0  0  0  0  0  0  0  0
   47.4962   34.0675   43.2749 H   0  0  0  0  0  0  0  0  0  0  0  0
   45.8099   31.7831   45.3962 H   0  0  0  0  0  0  0  0  0  0  0  0
   46.0048   31.7515   42.2991 H   0  0  0  0  0  0  0  0  0  0  0  0
   46.1941   30.3308   42.9023 H   0  0  0  0  0  0  0  0  0  0  0  0
   48.6333   31.7884   44.3042 H   0  0  0  0  0  0  0  0  0  0  0  0
   45.1795   33.4088   42.2137 H   0  0  0  0  0  0  0  0  0  0  0  0
   45.7093   33.7721   46.4911 H   0  0  0  0  0  0  0  0  0  0  0  0
   43.7816   36.8530   44.2633 H   0  0  0  0  0  0  0  0  0  0  0  0
   50.0895   33.4080   40.7501 H   0  0  0  0  0  0  0  0  0  0  0  0
   48.2541   35.8744   41.9961 H   0  0  0  0  0  0  0  0  0  0  0  0
   49.0186   36.4033   40.7577 H   0  0  0  0  0  0  0  0  0  0  0  0
   46.8896   33.9185   40.5230 H   0  0  0  0  0  0  0  0  0  0  0  0
   47.9898   33.3945   36.4080 H   0  0  0  0  0  0  0  0  0  0  0  0
   46.3347   32.0140   35.1437 H   0  0  0  0  0  0  0  0  0  0  0  0
   44.2744   31.3064   36.3987 H   0  0  0  0  0  0  0  0  0  0  0  0
   43.8962   31.9380   38.7627 H   0  0  0  0  0  0  0  0  0  0  0  0
  1  6  1  0
  2  3  2  0
  2  1  1  0
  5  6  1  0
  5  4  1  0
  6  4  1  0
  7  8  2  0
  8  4  1  0
  8  9  1  0
 10  9  2  0
 11 10  1  0
 12  7  1  0
 12 11  2  0
 13  2  1  0
 14 13  1  0
 15 14  1  0
 15 13  1  0
 16 15  1  0
 17 16  2  0
 18 23  1  0
 18 16  1  0
 19 18  2  0
 20 19  1  0
 20 21  2  0
 21 22  1  0
 22 23  2  0
  1 24  1  0
  4 25  1  1
  5 26  1  0
  5 27  1  0
  6 28  1  1
  7 29  1  0
  9 30  1  0
 11 31  1  0
 13 32  1  6
 14 33  1  0
 14 34  1  0
 15 35  1  1
 19 36  1  0
 20 37  1  0
 21 38  1  0
 22 39  1  0
M  ISO  8  25  13  26  13  27  13  28  13  29  14  30  14  31  14  32  13
M  ISO  7  33  13  34  13  35  13  36  14  37  14  38  14  39  14
M  END
>  <minimizedAffinity>  (1) 
-4.88149214

>  <minimizedRMSD>  (1) 
0.286703467

$$$$
