
     RDKit          3D

 28 29  0  0  0  0  0  0  0  0999 V2000
   48.0490   32.8530   41.7230 O   0  0  0  0  0  0  0  0  0  0  0  0
   47.1730   34.0190   41.2570 P   0  0  2  0  0  0  0  0  0  0  0  0
   45.5890   33.8020   41.9040 O   0  0  0  0  0  0  0  0  0  0  0  0
   44.3950   35.9100   44.6580 C   0  0  0  0  0  0  0  0  0  0  0  0
   44.6740   35.4670   43.3440 C   0  0  0  0  0  0  0  0  0  0  0  0
   45.3170   34.2310   43.1980 C   0  0  0  0  0  0  0  0  0  0  0  0
   45.6430   33.5190   44.3000 N   0  0  0  0  0  0  0  0  0  0  0  0
   45.3590   33.9760   45.5440 C   0  0  0  0  0  0  0  0  0  0  0  0
   44.7450   35.1520   45.7300 N   0  0  0  0  0  0  0  0  0  0  0  0
   47.0820   34.1410   39.6050 O   0  0  0  0  0  0  0  0  0  0  0  0
   46.5790   33.0860   38.8560 C   0  0  0  0  0  0  0  0  0  0  0  0
   46.0520   31.8940   39.3110 C   0  0  0  0  0  0  0  0  0  0  0  0
   45.5950   30.9480   38.4180 C   0  0  0  0  0  0  0  0  0  0  0  0
   45.6860   31.2430   37.0570 C   0  0  0  0  0  0  0  0  0  0  0  0
   46.2200   32.4530   36.6060 C   0  0  0  0  0  0  0  0  0  0  0  0
   46.6520   33.3400   37.5220 N   0  0  0  0  0  0  0  0  0  0  0  0
   47.8030   35.4330   41.9440 O   0  0  0  0  0  0  0  0  0  0  0  0
   49.0390   35.7680   41.4300 C   0  0  0  0  0  0  0  0  0  0  0  0
   49.4560   37.0380   41.7720 F   0  0  0  0  0  0  0  0  0  0  0  0
   49.9680   34.7960   41.7520 F   0  0  0  0  0  0  0  0  0  0  0  0
   48.9080   35.7500   40.0420 F   0  0  0  0  0  0  0  0  0  0  0  0
   43.8909   36.8753   44.8132 H   0  0  0  0  0  0  0  0  0  0  0  0
   44.3960   36.0715   42.4680 H   0  0  0  0  0  0  0  0  0  0  0  0
   45.6382   33.3693   46.4181 H   0  0  0  0  0  0  0  0  0  0  0  0
   45.9963   31.6978   40.3919 H   0  0  0  0  0  0  0  0  0  0  0  0
   45.1732   29.9937   38.7663 H   0  0  0  0  0  0  0  0  0  0  0  0
   45.3292   30.5061   36.3224 H   0  0  0  0  0  0  0  0  0  0  0  0
   46.2857   32.6750   35.5306 H   0  0  0  0  0  0  0  0  0  0  0  0
  2  1  2  0
  2  3  1  0
  2 17  1  0
  3  6  1  0
  4  9  2  0
  5  4  1  0
  6  5  2  0
  6  7  1  0
  7  8  2  0
  8  9  1  0
 10  2  1  0
 11 12  2  0
 11 10  1  0
 13 12  1  0
 14 13  2  0
 15 14  1  0
 15 16  2  0
 16 11  1  0
 18 20  1  0
 18 19  1  0
 18 17  1  0
 21 18  1  0
  4 22  1  0
  5 23  1  0
  8 24  1  0
 12 25  1  0
 13 26  1  0
 14 27  1  0
 15 28  1  0
M  ISO  7  22  14  23  14  24  14  25  14  26  14  27  14  28  14
M  END
>  <minimizedAffinity>  (1) 
-5.06039476

>  <minimizedRMSD>  (1) 
0.404297411

$$$$
