
     RDKit          3D

 41 44  0  0  0  0  0  0  0  0999 V2000
   47.9260   33.7820   42.8930 C   0  0  0  0  0  0  0  0  0  0  0  0
   48.5880   35.0010   42.6590 C   0  0  0  0  0  0  0  0  0  0  0  0
   49.9560   35.0110   42.3380 C   0  0  0  0  0  0  0  0  0  0  0  0
   50.5700   33.7890   42.2730 N   0  0  0  0  0  0  0  0  0  0  0  0
   49.8910   32.6230   42.5090 C   0  0  0  0  0  0  0  0  0  0  0  0
   48.6020   32.6370   42.8090 N   0  0  0  0  0  0  0  0  0  0  0  0
   46.4970   33.9040   43.2240 C   0  0  0  0  0  0  0  0  0  0  0  0
   45.7830   34.8970   42.4210 C   0  0  0  0  0  0  0  0  0  0  0  0
   45.3220   36.0870   43.1840 C   0  0  0  0  0  0  0  0  0  0  0  0
   44.5310   35.7380   44.4310 C   0  0  0  0  0  0  0  0  0  0  0  0
   44.9790   34.4690   45.1120 C   0  0  0  0  0  0  0  0  0  0  0  0
   46.4260   34.1790   44.7380 C   0  0  0  0  0  0  0  0  0  0  0  0
   50.7030   31.4090   42.4060 C   0  0  0  0  0  0  0  0  0  0  0  0
   51.4650   31.2620   41.2930 N   0  0  0  0  0  0  0  0  0  0  0  0
   52.1360   30.0960   41.3830 C   0  0  0  0  0  0  0  0  0  0  0  0
   51.7830   29.5240   42.5580 N   0  0  0  0  0  0  0  0  0  0  0  0
   50.9090   30.3230   43.1850 N   0  0  0  0  0  0  0  0  0  0  0  0
   52.1610   28.3060   43.1890 C   0  0  0  0  0  0  0  0  0  0  0  0
   51.9120   28.0790   44.5270 C   0  0  0  0  0  0  0  0  0  0  0  0
   52.3230   26.8490   45.0510 C   0  0  0  0  0  0  0  0  0  0  0  0
   52.9470   25.9360   44.2230 C   0  0  0  0  0  0  0  0  0  0  0  0
   53.1880   26.1850   42.8760 C   0  0  0  0  0  0  0  0  0  0  0  0
   52.7770   27.3810   42.4140 N   0  0  0  0  0  0  0  0  0  0  0  0
   48.0335   35.9485   42.7275 H   0  0  0  0  0  0  0  0  0  0  0  0
   50.5023   35.9470   42.1497 H   0  0  0  0  0  0  0  0  0  0  0  0
   45.9710   32.9714   42.9721 H   0  0  0  0  0  0  0  0  0  0  0  0
   44.9021   34.4110   41.9762 H   0  0  0  0  0  0  0  0  0  0  0  0
   46.4961   35.2636   41.6680 H   0  0  0  0  0  0  0  0  0  0  0  0
   46.2043   36.6715   43.4837 H   0  0  0  0  0  0  0  0  0  0  0  0
   44.6501   36.6544   42.5232 H   0  0  0  0  0  0  0  0  0  0  0  0
   44.6312   36.5674   45.1465 H   0  0  0  0  0  0  0  0  0  0  0  0
   43.4914   35.5749   44.1107 H   0  0  0  0  0  0  0  0  0  0  0  0
   44.8987   34.5895   46.2024 H   0  0  0  0  0  0  0  0  0  0  0  0
   44.3410   33.6332   44.7887 H   0  0  0  0  0  0  0  0  0  0  0  0
   46.7824   33.2979   45.2917 H   0  0  0  0  0  0  0  0  0  0  0  0
   47.0600   35.0409   44.9934 H   0  0  0  0  0  0  0  0  0  0  0  0
   52.8379   29.6867   40.6415 H   0  0  0  0  0  0  0  0  0  0  0  0
   51.4123   28.8321   45.1540 H   0  0  0  0  0  0  0  0  0  0  0  0
   52.1512   26.6112   46.1111 H   0  0  0  0  0  0  0  0  0  0  0  0
   53.2664   24.9724   44.6465 H   0  0  0  0  0  0  0  0  0  0  0  0
   53.6847   25.4488   42.2269 H   0  0  0  0  0  0  0  0  0  0  0  0
  1  7  1  0
  2  1  2  0
  3  2  1  0
  4  3  2  0
  4  5  1  0
  5  6  2  0
  6  1  1  0
  7 12  1  0
  8  9  1  0
  8  7  1  0
  9 10  1  0
 10 11  1  0
 12 11  1  0
 13  5  1  0
 13 17  2  0
 14 15  2  0
 14 13  1  0
 15 16  1  0
 16 17  1  0
 16 18  1  0
 18 19  2  0
 19 20  1  0
 21 20  2  0
 22 21  1  0
 23 22  2  0
 23 18  1  0
  2 24  1  0
  3 25  1  0
  7 26  1  0
  8 27  1  0
  8 28  1  0
  9 29  1  0
  9 30  1  0
 10 31  1  0
 10 32  1  0
 11 33  1  0
 11 34  1  0
 12 35  1  0
 12 36  1  0
 15 37  1  0
 19 38  1  0
 20 39  1  0
 21 40  1  0
 22 41  1  0
M  ISO  8  24  14  25  14  26  13  27  13  28  13  29  13  30  13  31  13
M  ISO  8  32  13  33  13  34  13  35  13  36  13  37  14  38  14  39  14
M  ISO  2  40  14  41  14
M  END
>  <minimizedAffinity>  (1) 
-4.19787502

>  <minimizedRMSD>  (1) 
0.823792458

$$$$
