
     RDKit          3D

 45 48  0  0  1  0  0  0  0  0999 V2000
   47.1150   34.7950   42.0890 C   0  0  2  0  0  0  0  0  0  0  0  0
   46.3480   34.3210   40.8570 C   0  0  0  0  0  0  0  0  0  0  0  0
   47.5540   34.1660   39.9040 C   0  0  0  0  0  0  0  0  0  0  0  0
   48.6670   33.6660   40.7720 C   0  0  1  0  0  0  0  0  0  0  0  0
   48.1470   33.7070   42.1770 C   0  0  0  0  0  0  0  0  0  0  0  0
   44.5420   35.8040   44.6450 C   0  0  0  0  0  0  0  0  0  0  0  0
   45.2730   35.8400   43.4470 C   0  0  0  0  0  0  0  0  0  0  0  0
   46.2450   34.8620   43.2870 C   0  0  0  0  0  0  0  0  0  0  0  0
   46.4660   33.9000   44.2820 N   0  0  0  0  0  0  0  0  0  0  0  0
   45.7230   33.9220   45.4180 C   0  0  0  0  0  0  0  0  0  0  0  0
   44.7710   34.8650   45.5960 N   0  0  0  0  0  0  0  0  0  0  0  0
   49.0870   32.2430   40.4870 C   0  0  2  0  0  0  0  0  0  0  0  0
   49.8640   31.5860   41.5320 C   0  0  0  0  0  0  0  0  0  0  0  0
   50.4800   31.8910   40.2070 C   0  0  1  0  0  0  0  0  0  0  0  0
   50.7100   30.8060   39.3260 O   0  0  0  0  0  0  0  0  0  0  0  0
   51.4030   30.3400   36.8560 O   0  0  0  0  0  0  0  0  0  0  0  0
   51.4030   31.4120   37.9180 P   0  0  1  0  0  0  0  0  0  0  0  0
   50.4740   32.7230   37.3230 O   0  0  0  0  0  0  0  0  0  0  0  0
   52.9590   31.9610   38.1030 O   0  0  0  0  0  0  0  0  0  0  0  0
   54.0320   31.0830   38.1440 C   0  0  0  0  0  0  0  0  0  0  0  0
   55.0310   30.8650   37.2200 C   0  0  0  0  0  0  0  0  0  0  0  0
   56.0000   29.9240   37.4940 C   0  0  0  0  0  0  0  0  0  0  0  0
   55.9870   29.1990   38.6710 C   0  0  0  0  0  0  0  0  0  0  0  0
   54.9710   29.4450   39.5720 C   0  0  0  0  0  0  0  0  0  0  0  0
   54.0180   30.3760   39.2950 N   0  0  0  0  0  0  0  0  0  0  0  0
   47.5287   35.8124   42.0274 H   0  0  0  0  0  0  0  0  0  0  0  0
   45.8281   33.3673   41.0306 H   0  0  0  0  0  0  0  0  0  0  0  0
   45.5374   34.9781   40.5090 H   0  0  0  0  0  0  0  0  0  0  0  0
   47.8189   35.1341   39.4539 H   0  0  0  0  0  0  0  0  0  0  0  0
   47.3386   33.4815   39.0703 H   0  0  0  0  0  0  0  0  0  0  0  0
   49.5493   34.2967   40.5882 H   0  0  0  0  0  0  0  0  0  0  0  0
   48.9424   33.9658   42.8914 H   0  0  0  0  0  0  0  0  0  0  0  0
   47.7517   32.7449   42.5347 H   0  0  0  0  0  0  0  0  0  0  0  0
   43.7610   36.5593   44.8171 H   0  0  0  0  0  0  0  0  0  0  0  0
   45.0856   36.6023   42.6764 H   0  0  0  0  0  0  0  0  0  0  0  0
   45.8969   33.1672   46.1990 H   0  0  0  0  0  0  0  0  0  0  0  0
   48.1551   32.0491   39.9356 H   0  0  0  0  0  0  0  0  0  0  0  0
   50.1722   32.1480   42.4259 H   0  0  0  0  0  0  0  0  0  0  0  0
   49.7398   30.6818   42.1459 H   0  0  0  0  0  0  0  0  0  0  0  0
   51.3742   32.4340   39.8670 H   0  0  0  0  0  0  0  0  0  0  0  0
   50.1077   33.2400   38.0837 H   0  0  0  0  0  0  0  0  0  0  0  0
   55.0546   31.4332   36.2784 H   0  0  0  0  0  0  0  0  0  0  0  0
   56.8005   29.7461   36.7608 H   0  0  0  0  0  0  0  0  0  0  0  0
   56.7630   28.4487   38.8830 H   0  0  0  0  0  0  0  0  0  0  0  0
   54.9314   28.8859   40.5185 H   0  0  0  0  0  0  0  0  0  0  0  0
  1  5  1  0
  1  8  1  0
  2  1  1  0
  3  4  1  0
  3  2  1  0
  4  5  1  0
  6 11  2  0
  7  6  1  0
  8  7  2  0
  8  9  1  0
  9 10  2  0
 10 11  1  0
 12  4  1  0
 12 13  1  0
 14 12  1  0
 14 13  1  0
 15 14  1  0
 17 16  2  0
 17 19  1  0
 17 15  1  0
 18 17  1  0
 19 20  1  0
 20 25  2  0
 21 22  2  0
 21 20  1  0
 22 23  1  0
 23 24  2  0
 25 24  1  0
  1 26  1  6
  2 27  1  0
  2 28  1  0
  3 29  1  0
  3 30  1  0
  4 31  1  1
  5 32  1  0
  5 33  1  0
  6 34  1  0
  7 35  1  0
 10 36  1  0
 12 37  1  6
 13 38  1  0
 13 39  1  0
 14 40  1  1
 18 41  1  0
 21 42  1  0
 22 43  1  0
 23 44  1  0
 24 45  1  0
M  ISO  8  26  13  27  13  28  13  29  13  30  13  31  13  32  13  33  13
M  ISO  8  34  14  35  14  36  14  37  13  38  13  39  13  40  13  41   3
M  ISO  4  42  14  43  14  44  14  45  14
M  END
>  <minimizedAffinity>  (1) 
-5.59716558

>  <minimizedRMSD>  (1) 
1.39585125

$$$$
