
     RDKit          3D

 34 36  0  0  0  0  0  0  0  0999 V2000
   48.4990   33.1530   41.3400 C   0  0  0  0  0  0  0  0  0  0  0  0
   48.0410   34.3470   41.8580 C   0  0  0  0  0  0  0  0  0  0  0  0
   48.9190   35.1700   42.5380 C   0  0  0  0  0  0  0  0  0  0  0  0
   50.2380   34.7540   42.6720 C   0  0  0  0  0  0  0  0  0  0  0  0
   50.6390   33.5680   42.1420 C   0  0  0  0  0  0  0  0  0  0  0  0
   49.7940   32.7110   41.4510 C   0  0  0  0  0  0  0  0  0  0  0  0
   46.6020   34.6390   41.6220 C   0  0  0  0  0  0  0  0  0  0  0  0
   45.9160   34.8910   42.9360 C   0  0  0  0  0  0  0  0  0  0  0  0
   45.9840   33.8750   43.8980 C   0  0  0  0  0  0  0  0  0  0  0  0
   45.3620   34.0900   45.1210 C   0  0  0  0  0  0  0  0  0  0  0  0
   44.7240   35.2710   45.3110 N   0  0  0  0  0  0  0  0  0  0  0  0
   44.6750   36.2470   44.3470 C   0  0  0  0  0  0  0  0  0  0  0  0
   45.2730   36.0520   43.1590 N   0  0  0  0  0  0  0  0  0  0  0  0
   47.6620   32.2590   40.6310 O   0  0  0  0  0  0  0  0  0  0  0  0
   50.2670   31.5290   40.9390 O   0  0  0  0  0  0  0  0  0  0  0  0
   51.3150   31.4290   40.0820 C   0  0  0  0  0  0  0  0  0  0  0  0
   50.7730   31.5350   38.7910 C   0  0  0  0  0  0  0  0  0  0  0  0
   51.5670   31.4760   37.6360 C   0  0  0  0  0  0  0  0  0  0  0  0
   52.9410   31.3050   37.7910 C   0  0  0  0  0  0  0  0  0  0  0  0
   53.4540   31.2040   39.0640 C   0  0  0  0  0  0  0  0  0  0  0  0
   52.6390   31.2690   40.1210 N   0  0  0  0  0  0  0  0  0  0  0  0
   48.5828   36.1279   42.9614 H   0  0  0  0  0  0  0  0  0  0  0  0
   50.9603   35.3865   43.2088 H   0  0  0  0  0  0  0  0  0  0  0  0
   51.6908   33.2715   42.2678 H   0  0  0  0  0  0  0  0  0  0  0  0
   46.5092   35.5301   40.9838 H   0  0  0  0  0  0  0  0  0  0  0  0
   46.1317   33.7785   41.1237 H   0  0  0  0  0  0  0  0  0  0  0  0
   46.5147   32.9341   43.6907 H   0  0  0  0  0  0  0  0  0  0  0  0
   45.3863   33.3254   45.9114 H   0  0  0  0  0  0  0  0  0  0  0  0
   44.1455   37.1902   44.5470 H   0  0  0  0  0  0  0  0  0  0  0  0
   46.7069   32.4797   40.4923 H   0  0  0  0  0  0  0  0  0  0  0  0
   49.6867   31.6691   38.6814 H   0  0  0  0  0  0  0  0  0  0  0  0
   51.1173   31.5623   36.6358 H   0  0  0  0  0  0  0  0  0  0  0  0
   53.6024   31.2518   36.9136 H   0  0  0  0  0  0  0  0  0  0  0  0
   54.5358   31.0697   39.2115 H   0  0  0  0  0  0  0  0  0  0  0  0
  1  6  2  0
  1  2  1  0
  2  3  2  0
  3  4  1  0
  5  4  2  0
  6  5  1  0
  7  2  1  0
  7  8  1  0
  8 13  1  0
  8  9  2  0
  9 10  1  0
 10 11  2  0
 12 11  1  0
 13 12  2  0
 14  1  1  0
 15  6  1  0
 16 21  1  0
 16 15  1  0
 17 16  2  0
 18 19  2  0
 18 17  1  0
 19 20  1  0
 20 21  2  0
  3 22  1  0
  4 23  1  0
  5 24  1  0
  7 25  1  0
  7 26  1  0
  9 27  1  0
 10 28  1  0
 12 29  1  0
 14 30  1  0
 17 31  1  0
 18 32  1  0
 19 33  1  0
 20 34  1  0
M  ISO  8  22  14  23  14  24  14  25   8  26   8  27  14  28  14  29  14
M  ISO  5  30   3  31  14  32  14  33  14  34  14
M  END
>  <minimizedAffinity>  (1) 
-5.41867971

>  <minimizedRMSD>  (1) 
1.61120987

$$$$
