
     RDKit          3D

 33 36  0  0  0  0  0  0  0  0999 V2000
   47.6130   32.4980   44.0400 C   0  0  0  0  0  0  0  0  0  0  0  0
   46.9390   33.5140   43.3530 C   0  0  0  0  0  0  0  0  0  0  0  0
   45.9380   34.2540   43.9290 C   0  0  0  0  0  0  0  0  0  0  0  0
   45.5570   34.0020   45.2580 C   0  0  0  0  0  0  0  0  0  0  0  0
   44.6510   34.5070   46.1230 N   0  0  0  0  0  0  0  0  0  0  0  0
   44.7360   33.8560   47.2980 C   0  0  0  0  0  0  0  0  0  0  0  0
   45.7200   32.9360   47.1340 N   0  0  0  0  0  0  0  0  0  0  0  0
   46.2330   33.0040   45.9030 C   0  0  0  0  0  0  0  0  0  0  0  0
   47.2450   32.2360   45.3580 C   0  0  0  0  0  0  0  0  0  0  0  0
   47.1730   33.2940   39.7000 C   0  0  0  0  0  0  0  0  0  0  0  0
   48.0410   34.3500   39.3900 C   0  0  0  0  0  0  0  0  0  0  0  0
   48.5350   35.1240   40.4360 C   0  0  0  0  0  0  0  0  0  0  0  0
   48.1510   34.8180   41.7170 N   0  0  0  0  0  0  0  0  0  0  0  0
   47.3140   33.7960   41.9730 C   0  0  0  0  0  0  0  0  0  0  0  0
   46.8100   33.0150   40.9790 N   0  0  0  0  0  0  0  0  0  0  0  0
   45.0890   35.5470   43.0580 S   0  0  0  0  0  0  0  0  0  0  0  0
   43.7440   34.9450   42.0480 C   0  0  0  0  0  0  0  0  0  0  0  0
   43.4910   33.5920   41.8680 C   0  0  0  0  0  0  0  0  0  0  0  0
   42.4430   33.1500   41.0810 C   0  0  0  0  0  0  0  0  0  0  0  0
   41.6020   34.0560   40.4400 C   0  0  0  0  0  0  0  0  0  0  0  0
   41.8840   35.3880   40.6420 C   0  0  0  0  0  0  0  0  0  0  0  0
   42.8960   35.7900   41.4010 N   0  0  0  0  0  0  0  0  0  0  0  0
   48.4126   31.9212   43.5521 H   0  0  0  0  0  0  0  0  0  0  0  0
   43.9950   35.2734   45.9152 H   0  0  0  0  0  0  0  0  0  0  0  0
   44.1341   34.0327   48.2016 H   0  0  0  0  0  0  0  0  0  0  0  0
   47.7411   31.4476   45.9430 H   0  0  0  0  0  0  0  0  0  0  0  0
   46.7742   32.6733   38.8841 H   0  0  0  0  0  0  0  0  0  0  0  0
   48.3241   34.5613   38.3483 H   0  0  0  0  0  0  0  0  0  0  0  0
   49.2187   35.9631   40.2397 H   0  0  0  0  0  0  0  0  0  0  0  0
   44.1393   32.8540   42.3630 H   0  0  0  0  0  0  0  0  0  0  0  0
   42.2719   32.0701   40.9600 H   0  0  0  0  0  0  0  0  0  0  0  0
   40.7625   33.7269   39.8099 H   0  0  0  0  0  0  0  0  0  0  0  0
   41.2493   36.1449   40.1581 H   0  0  0  0  0  0  0  0  0  0  0  0
  1  9  2  0
  2  3  2  0
  2  1  1  0
  3  4  1  0
  4  8  2  0
  4  5  1  0
  5  6  1  0
  7  6  2  0
  8  7  1  0
  9  8  1  0
 10 15  2  0
 11 10  1  0
 11 12  2  0
 12 13  1  0
 13 14  2  0
 14  2  1  0
 15 14  1  0
 16  3  1  0
 17 16  1  0
 18 17  2  0
 19 18  1  0
 20 21  1  0
 20 19  2  0
 21 22  2  0
 22 17  1  0
  1 23  1  0
  5 24  1  0
  6 25  1  0
  9 26  1  0
 10 27  1  0
 11 28  1  0
 12 29  1  0
 18 30  1  0
 19 31  1  0
 20 32  1  0
 21 33  1  0
M  ISO  8  23  14  24   9  25  14  26  14  27  14  28  14  29  14  30  14
M  ISO  3  31  14  32  14  33  14
M  END
>  <minimizedAffinity>  (1) 
-5.26095915

>  <minimizedRMSD>  (1) 
1.91637063

$$$$
