
     RDKit          3D

 43 46  0  0  1  0  0  0  0  0999 V2000
   42.7010   34.8950   40.2590 C   0  0  0  0  0  0  0  0  0  0  0  0
   42.5860   35.1830   38.9150 C   0  0  0  0  0  0  0  0  0  0  0  0
   41.3940   35.0820   38.2340 C   0  0  0  0  0  0  0  0  0  0  0  0
   40.2960   34.6820   38.9350 N   0  0  0  0  0  0  0  0  0  0  0  0
   40.4000   34.3970   40.2550 C   0  0  0  0  0  0  0  0  0  0  0  0
   41.5710   34.4970   40.9170 N   0  0  0  0  0  0  0  0  0  0  0  0
   43.9780   34.6570   42.3600 C   0  0  1  0  0  0  0  0  0  0  0  0
   44.1900   36.1510   41.9400 C   0  0  0  0  0  0  0  0  0  0  0  0
   44.0200   34.9890   40.9670 C   0  0  2  0  0  0  0  0  0  0  0  0
   45.1110   34.0850   43.1230 C   0  0  0  0  0  0  0  0  0  0  0  0
   46.3420   33.9540   42.4570 C   0  0  0  0  0  0  0  0  0  0  0  0
   47.4200   33.4200   43.1520 C   0  0  0  0  0  0  0  0  0  0  0  0
   47.2260   33.0530   44.4430 N   0  0  0  0  0  0  0  0  0  0  0  0
   46.0450   33.1900   45.0470 C   0  0  0  0  0  0  0  0  0  0  0  0
   45.0220   33.7050   44.3610 N   0  0  0  0  0  0  0  0  0  0  0  0
   46.0320   32.7300   46.4740 C   0  0  0  0  0  0  0  0  0  0  0  0
   45.0560   33.3850   47.2090 F   0  0  0  0  0  0  0  0  0  0  0  0
   47.2670   33.0830   47.0710 F   0  0  0  0  0  0  0  0  0  0  0  0
   45.9540   31.3660   46.5280 F   0  0  0  0  0  0  0  0  0  0  0  0
   39.2340   33.9430   41.0590 C   0  0  0  0  0  0  0  0  0  0  0  0
   38.5290   32.8000   40.3590 C   0  0  0  0  0  0  0  0  0  0  0  0
   38.6730   31.5290   41.1030 C   0  0  0  0  0  0  0  0  0  0  0  0
   37.5820   30.6630   41.1470 C   0  0  0  0  0  0  0  0  0  0  0  0
   37.6030   29.4550   41.8100 C   0  0  0  0  0  0  0  0  0  0  0  0
   38.7550   29.0730   42.4670 C   0  0  0  0  0  0  0  0  0  0  0  0
   39.8100   29.9530   42.4020 C   0  0  0  0  0  0  0  0  0  0  0  0
   39.7950   31.1430   41.7510 N   0  0  0  0  0  0  0  0  0  0  0  0
   43.4824   35.5062   38.3655 H   0  0  0  0  0  0  0  0  0  0  0  0
   41.3300   35.3161   37.1611 H   0  0  0  0  0  0  0  0  0  0  0  0
   43.2601   34.0398   42.9200 H   0  0  0  0  0  0  0  0  0  0  0  0
   43.3893   36.8929   42.0760 H   0  0  0  0  0  0  0  0  0  0  0  0
   44.9308   36.9424   42.1271 H   0  0  0  0  0  0  0  0  0  0  0  0
   44.6181   34.6383   40.1130 H   0  0  0  0  0  0  0  0  0  0  0  0
   46.4495   34.2675   41.4081 H   0  0  0  0  0  0  0  0  0  0  0  0
   48.4011   33.2986   42.6697 H   0  0  0  0  0  0  0  0  0  0  0  0
   39.5828   33.6048   42.0459 H   0  0  0  0  0  0  0  0  0  0  0  0
   38.5307   34.7807   41.1759 H   0  0  0  0  0  0  0  0  0  0  0  0
   37.4596   33.0418   40.2704 H   0  0  0  0  0  0  0  0  0  0  0  0
   38.9878   32.6704   39.3677 H   0  0  0  0  0  0  0  0  0  0  0  0
   36.6587   30.9582   40.6270 H   0  0  0  0  0  0  0  0  0  0  0  0
   36.7153   28.8054   41.8154 H   0  0  0  0  0  0  0  0  0  0  0  0
   38.8254   28.1197   43.0113 H   0  0  0  0  0  0  0  0  0  0  0  0
   40.7389   29.6696   42.9185 H   0  0  0  0  0  0  0  0  0  0  0  0
  1  6  1  0
  1  9  1  0
  2  1  2  0
  3  2  1  0
  3  4  2  0
  4  5  1  0
  5  6  2  0
  5 20  1  0
  7 10  1  0
  8  7  1  0
  9  8  1  0
  9  7  1  0
 10 15  1  0
 11 10  2  0
 11 12  1  0
 12 13  2  0
 13 14  1  0
 14 16  1  0
 15 14  2  0
 16 19  1  0
 16 18  1  0
 16 17  1  0
 21 20  1  0
 21 22  1  0
 22 23  2  0
 22 27  1  0
 23 24  1  0
 24 25  2  0
 26 25  1  0
 27 26  2  0
  2 28  1  0
  3 29  1  0
  7 30  1  1
  8 31  1  0
  8 32  1  0
  9 33  1  6
 11 34  1  0
 12 35  1  0
 20 36  1  0
 20 37  1  0
 21 38  1  0
 21 39  1  0
 23 40  1  0
 24 41  1  0
 25 42  1  0
 26 43  1  0
M  ISO  8  28  14  29  14  30  13  31  13  32  13  33  13  34  14  35  14
M  ISO  8  36   8  37   8  38   8  39   8  40  14  41  14  42  14  43  14
M  END
>  <minimizedAffinity>  (1) 
-6.01327467

>  <minimizedRMSD>  (1) 
1.63315308

$$$$
