
     RDKit          3D

 39 42  0  0  0  0  0  0  0  0999 V2000
   47.4430   33.6640   38.5800 C   0  0  0  0  0  0  0  0  0  0  0  0
   48.4070   34.4380   38.0490 C   0  0  0  0  0  0  0  0  0  0  0  0
   48.7810   34.1330   36.7340 C   0  0  0  0  0  0  0  0  0  0  0  0
   48.2430   33.1270   35.9790 C   0  0  0  0  0  0  0  0  0  0  0  0
   47.2630   32.3600   36.5570 C   0  0  0  0  0  0  0  0  0  0  0  0
   46.8840   32.6300   37.8180 C   0  0  0  0  0  0  0  0  0  0  0  0
   46.5340   31.0380   35.6080 S   0  0  0  0  0  0  0  0  0  0  0  0
   47.3410   31.0670   34.0320 C   0  0  0  0  0  0  0  0  0  0  0  0
   46.9240   30.1260   33.1500 C   0  0  0  0  0  0  0  0  0  0  0  0
   47.5000   30.0660   31.8780 C   0  0  0  0  0  0  0  0  0  0  0  0
   48.4780   30.9710   31.5570 C   0  0  0  0  0  0  0  0  0  0  0  0
   48.8380   31.8890   32.5120 C   0  0  0  0  0  0  0  0  0  0  0  0
   48.3070   31.9970   33.7820 C   0  0  0  0  0  0  0  0  0  0  0  0
   48.7540   32.9750   34.6680 N   0  0  0  0  0  0  0  0  0  0  0  0
   46.9330   33.8540   39.9690 C   0  0  0  0  0  0  0  0  0  0  0  0
   45.7580   33.3110   40.0350 O   0  0  0  0  0  0  0  0  0  0  0  0
   47.2880   34.4010   41.1480 O   0  0  0  0  0  0  0  0  0  0  0  0
   49.1910   34.8410   42.8320 O   0  0  0  0  0  0  0  0  0  0  0  0
   48.3120   33.7530   42.2960 P   0  0  2  0  0  0  0  0  0  0  0  0
   49.3040   32.6110   41.5680 O   0  0  0  0  0  0  0  0  0  0  0  0
   47.4050   33.0500   43.5650 O   0  0  0  0  0  0  0  0  0  0  0  0
   45.8380   34.8470   43.6070 C   0  0  0  0  0  0  0  0  0  0  0  0
   46.4480   33.7880   44.2580 C   0  0  0  0  0  0  0  0  0  0  0  0
   46.0750   33.5080   45.5780 C   0  0  0  0  0  0  0  0  0  0  0  0
   45.1260   34.2990   46.1570 N   0  0  0  0  0  0  0  0  0  0  0  0
   44.5590   35.3130   45.4990 C   0  0  0  0  0  0  0  0  0  0  0  0
   44.9140   35.5780   44.2420 N   0  0  0  0  0  0  0  0  0  0  0  0
   48.8727   35.2597   38.6128 H   0  0  0  0  0  0  0  0  0  0  0  0
   49.5671   34.7493   36.2734 H   0  0  0  0  0  0  0  0  0  0  0  0
   46.0978   32.0097   38.2731 H   0  0  0  0  0  0  0  0  0  0  0  0
   46.1360   29.4130   33.4340 H   0  0  0  0  0  0  0  0  0  0  0  0
   47.1752   29.3083   31.1497 H   0  0  0  0  0  0  0  0  0  0  0  0
   48.9583   30.9620   30.5674 H   0  0  0  0  0  0  0  0  0  0  0  0
   49.6250   32.6075   32.2394 H   0  0  0  0  0  0  0  0  0  0  0  0
   49.4932   33.6195   34.3532 H   0  0  0  0  0  0  0  0  0  0  0  0
   49.7644   32.0809   42.2659 H   0  0  0  0  0  0  0  0  0  0  0  0
   46.1125   35.0872   42.5692 H   0  0  0  0  0  0  0  0  0  0  0  0
   46.5333   32.6753   46.1317 H   0  0  0  0  0  0  0  0  0  0  0  0
   43.7968   35.9314   45.9957 H   0  0  0  0  0  0  0  0  0  0  0  0
  1 15  1  0
  2  1  2  0
  3  2  1  0
  4  5  1  0
  4  3  2  0
  5  6  2  0
  6  1  1  0
  7  5  1  0
  8  7  1  0
  9  8  2  0
 10  9  1  0
 11 10  2  0
 11 12  1  0
 12 13  2  0
 13  8  1  0
 13 14  1  0
 14  4  1  0
 15 16  2  0
 15 17  1  0
 17 19  1  0
 19 18  2  0
 19 21  1  0
 20 19  1  0
 21 23  1  0
 22 27  2  0
 22 23  1  0
 23 24  2  0
 24 25  1  0
 26 25  2  0
 27 26  1  0
  2 28  1  0
  3 29  1  0
  6 30  1  0
  9 31  1  0
 10 32  1  0
 11 33  1  0
 12 34  1  0
 14 35  1  0
 20 36  1  0
 22 37  1  0
 24 38  1  0
 26 39  1  0
M  ISO  8  28  14  29  14  30  14  31  14  32  14  33  14  34  14  36   3
M  ISO  3  37  14  38  14  39  14
M  END
>  <minimizedAffinity>  (1) 
-5.95029831

>  <minimizedRMSD>  (1) 
1.75349784

$$$$
