
     RDKit          3D

 58 64  0  0  1  0  0  0  0  0999 V2000
   46.6220   32.1450   45.6350 C   0  0  0  0  0  0  0  0  0  0  0  0
   46.7810   32.7870   44.3840 C   0  0  0  0  0  0  0  0  0  0  0  0
   47.6220   32.0530   43.5610 C   0  0  0  0  0  0  0  0  0  0  0  0
   48.2360   30.8730   43.8560 C   0  0  0  0  0  0  0  0  0  0  0  0
   48.0230   30.3190   45.0910 C   0  0  0  0  0  0  0  0  0  0  0  0
   47.2140   30.9550   45.9890 C   0  0  0  0  0  0  0  0  0  0  0  0
   48.7570   29.1500   45.0930 O   0  0  0  0  0  0  0  0  0  0  0  0
   49.5270   29.0650   43.9240 C   0  0  1  0  0  0  0  0  0  0  0  0
   49.0790   30.1080   43.0840 O   0  0  0  0  0  0  0  0  0  0  0  0
   50.9680   29.1880   44.2790 C   0  0  0  0  0  0  0  0  0  0  0  0
   51.3890   29.2920   45.5970 C   0  0  0  0  0  0  0  0  0  0  0  0
   52.7580   29.4060   45.8140 C   0  0  0  0  0  0  0  0  0  0  0  0
   53.7140   29.4230   44.8160 C   0  0  0  0  0  0  0  0  0  0  0  0
   53.2050   29.3170   43.5500 C   0  0  0  0  0  0  0  0  0  0  0  0
   51.8970   29.2010   43.2300 C   0  0  0  0  0  0  0  0  0  0  0  0
   54.3630   29.3320   42.1950 S   0  0  0  0  0  0  0  0  0  0  0  0
   55.9820   29.5010   42.9100 C   0  0  0  0  0  0  0  0  0  0  0  0
   56.9960   29.5340   41.9890 C   0  0  0  0  0  0  0  0  0  0  0  0
   58.2970   29.6660   42.4980 C   0  0  0  0  0  0  0  0  0  0  0  0
   58.4910   29.7530   43.8590 C   0  0  0  0  0  0  0  0  0  0  0  0
   57.3940   29.7110   44.7260 C   0  0  0  0  0  0  0  0  0  0  0  0
   56.0990   29.5830   44.2780 C   0  0  0  0  0  0  0  0  0  0  0  0
   55.0630   29.5500   45.2070 N   0  0  0  0  0  0  0  0  0  0  0  0
   45.1450   36.0360   43.5010 C   0  0  0  0  0  0  0  0  0  0  0  0
   45.9480   34.9170   43.2720 C   0  0  0  0  0  0  0  0  0  0  0  0
   46.0500   33.9890   44.2660 C   0  0  0  0  0  0  0  0  0  0  0  0
   45.3660   34.2030   45.4080 N   0  0  0  0  0  0  0  0  0  0  0  0
   44.5940   35.2770   45.6280 C   0  0  0  0  0  0  0  0  0  0  0  0
   44.4890   36.1850   44.6750 N   0  0  0  0  0  0  0  0  0  0  0  0
   46.5640   34.7960   42.0190 N   0  0  0  0  0  0  0  0  0  0  0  0
   47.8560   35.1900   41.7420 C   0  0  0  0  0  0  0  0  0  0  0  0
   48.3560   34.8180   40.3630 C   0  0  0  0  0  0  0  0  0  0  0  0
   47.9860   33.5560   39.9000 N   0  0  0  0  0  0  0  0  0  0  0  0
   46.6590   33.1500   40.1640 C   0  0  0  0  0  0  0  0  0  0  0  0
   45.8800   34.2380   40.8670 C   0  0  0  0  0  0  0  0  0  0  0  0
   45.9769   32.6340   46.3798 H   0  0  0  0  0  0  0  0  0  0  0  0
   47.8143   32.4688   42.5610 H   0  0  0  0  0  0  0  0  0  0  0  0
   47.0379   30.5205   46.9841 H   0  0  0  0  0  0  0  0  0  0  0  0
   49.4164   28.1024   43.4032 H   0  0  0  0  0  0  0  0  0  0  0  0
   50.6729   29.2846   46.4319 H   0  0  0  0  0  0  0  0  0  0  0  0
   53.1048   29.4886   46.8546 H   0  0  0  0  0  0  0  0  0  0  0  0
   51.5728   29.1196   42.1820 H   0  0  0  0  0  0  0  0  0  0  0  0
   56.8007   29.4610   40.9089 H   0  0  0  0  0  0  0  0  0  0  0  0
   59.1575   29.6998   41.8137 H   0  0  0  0  0  0  0  0  0  0  0  0
   59.5086   29.8555   44.2641 H   0  0  0  0  0  0  0  0  0  0  0  0
   57.5736   29.7831   45.8088 H   0  0  0  0  0  0  0  0  0  0  0  0
   55.2883   29.6204   46.2096 H   0  0  0  0  0  0  0  0  0  0  0  0
   45.0447   36.8037   42.7196 H   0  0  0  0  0  0  0  0  0  0  0  0
   44.0597   35.3991   46.5817 H   0  0  0  0  0  0  0  0  0  0  0  0
   47.9075   36.2844   41.8400 H   0  0  0  0  0  0  0  0  0  0  0  0
   48.5001   34.6569   42.4568 H   0  0  0  0  0  0  0  0  0  0  0  0
   47.9704   35.5639   39.6524 H   0  0  0  0  0  0  0  0  0  0  0  0
   49.4531   34.7963   40.4405 H   0  0  0  0  0  0  0  0  0  0  0  0
   48.6161   32.8666   40.3343 H   0  0  0  0  0  0  0  0  0  0  0  0
   46.1616   32.9112   39.2124 H   0  0  0  0  0  0  0  0  0  0  0  0
   46.6905   32.2673   40.8196 H   0  0  0  0  0  0  0  0  0  0  0  0
   45.6918   35.0495   40.1486 H   0  0  0  0  0  0  0  0  0  0  0  0
   44.9509   33.7796   41.2366 H   0  0  0  0  0  0  0  0  0  0  0  0
  1  6  2  0
  2  1  1  0
  3  4  1  0
  3  2  2  0
  4  5  2  0
  5  7  1  0
  5  6  1  0
  8 10  1  0
  8  7  1  0
  9  4  1  0
  9  8  1  0
 10 11  2  0
 11 12  1  0
 13 23  1  0
 13 12  2  0
 14 13  1  0
 15 14  2  0
 15 10  1  0
 16 17  1  0
 16 14  1  0
 17 22  2  0
 18 19  2  0
 18 17  1  0
 19 20  1  0
 20 21  2  0
 22 21  1  0
 22 23  1  0
 24 29  2  0
 25 24  1  0
 25 26  2  0
 26  2  1  0
 26 27  1  0
 27 28  2  0
 29 28  1  0
 30 25  1  0
 31 30  1  0
 32 31  1  0
 33 34  1  0
 33 32  1  0
 34 35  1  0
 35 30  1  0
  1 36  1  0
  3 37  1  0
  6 38  1  0
  8 39  1  6
 11 40  1  0
 12 41  1  0
 15 42  1  0
 18 43  1  0
 19 44  1  0
 20 45  1  0
 21 46  1  0
 23 47  1  0
 24 48  1  0
 28 49  1  0
 31 50  1  0
 31 51  1  0
 32 52  1  0
 32 53  1  0
 33 54  1  0
 34 55  1  0
 34 56  1  0
 35 57  1  0
 35 58  1  0
M  ISO  8  36  14  37  14  38  14  39  13  40  14  41  14  42  14  43  14
M  ISO  8  44  14  45  14  46  14  48  14  49  14  50  13  51  13  52  13
M  ISO  6  53  13  54   5  55  13  56  13  57  13  58  13
M  END
>  <minimizedAffinity>  (1) 
-5.98933268

>  <minimizedRMSD>  (1) 
0.817028999

$$$$
