
     RDKit          3D

 52 56  0  0  0  0  0  0  0  0999 V2000
   44.7690   34.7900   42.0730 C   0  0  0  0  0  0  0  0  0  0  0  0
   45.9750   34.3420   41.5320 C   0  0  0  0  0  0  0  0  0  0  0  0
   46.9740   33.9030   42.3890 C   0  0  0  0  0  0  0  0  0  0  0  0
   46.7280   33.9300   43.7100 N   0  0  0  0  0  0  0  0  0  0  0  0
   45.5490   34.3680   44.2310 C   0  0  0  0  0  0  0  0  0  0  0  0
   44.6080   34.7830   43.3990 N   0  0  0  0  0  0  0  0  0  0  0  0
   48.2670   33.4150   41.9440 C   0  0  0  0  0  0  0  0  0  0  0  0
   49.3690   33.7280   42.7110 C   0  0  0  0  0  0  0  0  0  0  0  0
   50.6110   33.2530   42.2740 C   0  0  0  0  0  0  0  0  0  0  0  0
   50.7920   32.4980   41.1340 C   0  0  0  0  0  0  0  0  0  0  0  0
   49.6720   32.2200   40.4180 C   0  0  0  0  0  0  0  0  0  0  0  0
   48.4590   32.6610   40.8070 C   0  0  0  0  0  0  0  0  0  0  0  0
   49.8420   31.2500   38.9350 S   0  0  0  0  0  0  0  0  0  0  0  0
   51.5750   30.8750   38.7770 C   0  0  0  0  0  0  0  0  0  0  0  0
   51.9850   30.1270   37.7050 C   0  0  0  0  0  0  0  0  0  0  0  0
   53.2920   29.7950   37.5070 C   0  0  0  0  0  0  0  0  0  0  0  0
   54.2140   30.2370   38.4320 C   0  0  0  0  0  0  0  0  0  0  0  0
   53.7580   30.9860   39.4960 C   0  0  0  0  0  0  0  0  0  0  0  0
   52.4480   31.3420   39.7280 C   0  0  0  0  0  0  0  0  0  0  0  0
   52.1240   32.1160   40.8650 N   0  0  0  0  0  0  0  0  0  0  0  0
   45.4170   34.3450   45.6670 C   0  0  0  0  0  0  0  0  0  0  0  0
   44.4770   35.0170   46.1750 O   0  0  0  0  0  0  0  0  0  0  0  0
   46.3570   33.5650   46.4140 N   0  0  0  0  0  0  0  0  0  0  0  0
   43.5290   35.3410   40.9150 S   0  0  0  0  0  0  0  0  0  0  0  0
   41.8580   35.2390   41.5700 C   0  0  0  0  0  0  0  0  0  0  0  0
   40.8570   36.0650   40.8460 C   0  0  0  0  0  0  0  0  0  0  0  0
   41.7130   36.3040   37.9380 Cl  0  0  0  0  0  0  0  0  0  0  0  0
   40.4250   35.2820   38.4880 C   0  0  0  0  0  0  0  0  0  0  0  0
   40.1150   35.2500   39.8540 C   0  0  0  0  0  0  0  0  0  0  0  0
   39.0840   34.4170   40.2090 C   0  0  0  0  0  0  0  0  0  0  0  0
   38.3260   33.6140   39.3660 C   0  0  0  0  0  0  0  0  0  0  0  0
   38.6580   33.6710   38.0300 C   0  0  0  0  0  0  0  0  0  0  0  0
   37.7630   32.6940   36.8750 Cl  0  0  0  0  0  0  0  0  0  0  0  0
   39.6880   34.4900   37.6040 C   0  0  0  0  0  0  0  0  0  0  0  0
   46.1311   34.3370   40.4431 H   0  0  0  0  0  0  0  0  0  0  0  0
   49.2760   34.3267   43.6291 H   0  0  0  0  0  0  0  0  0  0  0  0
   51.4979   33.4970   42.8773 H   0  0  0  0  0  0  0  0  0  0  0  0
   47.5844   32.4078   40.1898 H   0  0  0  0  0  0  0  0  0  0  0  0
   51.2336   29.7825   36.9792 H   0  0  0  0  0  0  0  0  0  0  0  0
   53.6008   29.1947   36.6385 H   0  0  0  0  0  0  0  0  0  0  0  0
   55.2825   29.9989   38.3242 H   0  0  0  0  0  0  0  0  0  0  0  0
   54.5072   31.3298   40.2244 H   0  0  0  0  0  0  0  0  0  0  0  0
   52.8733   32.4067   41.5091 H   0  0  0  0  0  0  0  0  0  0  0  0
   46.2925   33.5257   47.4412 H   0  0  0  0  0  0  0  0  0  0  0  0
   47.0977   33.0431   45.9241 H   0  0  0  0  0  0  0  0  0  0  0  0
   41.5346   34.1887   41.5225 H   0  0  0  0  0  0  0  0  0  0  0  0
   41.9016   35.6317   42.5966 H   0  0  0  0  0  0  0  0  0  0  0  0
   40.1449   36.4854   41.5714 H   0  0  0  0  0  0  0  0  0  0  0  0
   41.3850   36.8703   40.3142 H   0  0  0  0  0  0  0  0  0  0  0  0
   38.8297   34.3811   41.2786 H   0  0  0  0  0  0  0  0  0  0  0  0
   37.5135   32.9742   39.7408 H   0  0  0  0  0  0  0  0  0  0  0  0
   39.9353   34.5187   36.5326 H   0  0  0  0  0  0  0  0  0  0  0  0
  1  6  1  0
  2  1  2  0
  2  3  1  0
  3  4  2  0
  4  5  1  0
  5 21  1  0
  6  5  2  0
  7  3  1  0
  7  8  2  0
  9  8  1  0
 10  9  2  0
 11 12  2  0
 11 10  1  0
 12  7  1  0
 13 11  1  0
 14 13  1  0
 14 19  2  0
 15 14  1  0
 16 15  2  0
 16 17  1  0
 17 18  2  0
 18 19  1  0
 19 20  1  0
 20 10  1  0
 21 22  2  0
 21 23  1  0
 24 25  1  0
 24  1  1  0
 26 25  1  0
 27 28  1  0
 28 29  2  0
 29 30  1  0
 29 26  1  0
 31 30  2  0
 32 31  1  0
 33 32  1  0
 34 32  2  0
 34 28  1  0
  2 35  1  0
  8 36  1  0
  9 37  1  0
 12 38  1  0
 15 39  1  0
 16 40  1  0
 17 41  1  0
 18 42  1  0
 20 43  1  0
 23 44  1  0
 23 45  1  0
 25 46  1  0
 25 47  1  0
 26 48  1  0
 26 49  1  0
 30 50  1  0
 31 51  1  0
 34 52  1  0
M  ISO  8  35  14  36  14  37  14  38  14  39  14  40  14  41  14  42  14
M  ISO  7  46   8  47   8  48   8  49   8  50  14  51  14  52  14
M  END
>  <minimizedAffinity>  (1) 
-8.42938042

>  <minimizedRMSD>  (1) 
1.42686641

$$$$
