
     RDKit          3D

 34 37  0  0  0  0  0  0  0  0999 V2000
   46.7380   31.3440   45.2130 C   0  0  0  0  0  0  0  0  0  0  0  0
   47.0370   30.0710   44.7780 C   0  0  0  0  0  0  0  0  0  0  0  0
   47.7720   29.2610   45.6200 C   0  0  0  0  0  0  0  0  0  0  0  0
   48.2410   29.6120   46.8680 C   0  0  0  0  0  0  0  0  0  0  0  0
   47.9080   30.8930   47.2380 C   0  0  0  0  0  0  0  0  0  0  0  0
   47.1910   31.7180   46.4470 C   0  0  0  0  0  0  0  0  0  0  0  0
   48.4540   31.4720   48.8340 S   0  0  0  0  0  0  0  0  0  0  0  0
   49.3470   30.1470   49.5730 C   0  0  0  0  0  0  0  0  0  0  0  0
   49.9060   30.2680   50.8160 C   0  0  0  0  0  0  0  0  0  0  0  0
   50.6180   29.2780   51.4620 C   0  0  0  0  0  0  0  0  0  0  0  0
   50.7560   28.0800   50.7620 C   0  0  0  0  0  0  0  0  0  0  0  0
   50.1940   27.9690   49.5180 C   0  0  0  0  0  0  0  0  0  0  0  0
   49.4840   28.9680   48.8860 C   0  0  0  0  0  0  0  0  0  0  0  0
   48.9820   28.6650   47.6090 N   0  0  0  0  0  0  0  0  0  0  0  0
   44.8330   32.6000   42.3650 C   0  0  0  0  0  0  0  0  0  0  0  0
   44.4970   33.9240   42.7460 C   0  0  0  0  0  0  0  0  0  0  0  0
   44.9450   34.3530   43.9980 C   0  0  0  0  0  0  0  0  0  0  0  0
   45.6640   33.4920   44.7620 N   0  0  0  0  0  0  0  0  0  0  0  0
   45.9620   32.2390   44.3600 C   0  0  0  0  0  0  0  0  0  0  0  0
   45.5500   31.7950   43.1670 N   0  0  0  0  0  0  0  0  0  0  0  0
   44.5820   35.7180   44.3580 C   0  0  0  0  0  0  0  0  0  0  0  0
   44.6340   35.8520   45.7350 F   0  0  0  0  0  0  0  0  0  0  0  0
   43.2570   35.8900   44.0060 F   0  0  0  0  0  0  0  0  0  0  0  0
   45.3940   36.6700   43.7990 F   0  0  0  0  0  0  0  0  0  0  0  0
   46.7015   29.7127   43.7936 H   0  0  0  0  0  0  0  0  0  0  0  0
   48.0039   28.2464   45.2640 H   0  0  0  0  0  0  0  0  0  0  0  0
   46.9621   32.7311   46.8094 H   0  0  0  0  0  0  0  0  0  0  0  0
   49.7782   31.2268   51.3399 H   0  0  0  0  0  0  0  0  0  0  0  0
   51.0485   29.4244   52.4636 H   0  0  0  0  0  0  0  0  0  0  0  0
   51.3080   27.2366   51.2024 H   0  0  0  0  0  0  0  0  0  0  0  0
   50.3178   27.0148   48.9849 H   0  0  0  0  0  0  0  0  0  0  0  0
   49.1579   27.7339   47.2053 H   0  0  0  0  0  0  0  0  0  0  0  0
   44.4980   32.2223   41.3877 H   0  0  0  0  0  0  0  0  0  0  0  0
   43.9115   34.5820   42.0871 H   0  0  0  0  0  0  0  0  0  0  0  0
  1  6  1  0
  2  1  2  0
  2  3  1  0
  3  4  2  0
  4  5  1  0
  4 14  1  0
  5  7  1  0
  6  5  2  0
  7  8  1  0
  8  9  2  0
  9 10  1  0
 11 10  2  0
 12 11  1  0
 13 12  2  0
 13  8  1  0
 14 13  1  0
 15 16  2  0
 15 20  1  0
 16 17  1  0
 17 21  1  0
 17 18  2  0
 19 18  1  0
 19  1  1  0
 20 19  2  0
 21 22  1  0
 23 21  1  0
 24 21  1  0
  2 25  1  0
  3 26  1  0
  6 27  1  0
  9 28  1  0
 10 29  1  0
 11 30  1  0
 12 31  1  0
 14 32  1  0
 15 33  1  0
 16 34  1  0
M  ISO  8  25  14  26  14  27  14  28  14  29  14  30  14  31  14  33  14
M  ISO  1  34  14
M  END
>  <minimizedAffinity>  (1) 
-5.57267046

>  <minimizedRMSD>  (1) 
4.32879353

$$$$
