
     RDKit          3D

 49 52  0  0  1  0  0  0  0  0999 V2000
   46.8120   33.9950   42.5690 C   0  0  2  0  0  0  0  0  0  0  0  0
   48.2810   34.2450   42.7380 C   0  0  0  0  0  0  0  0  0  0  0  0
   48.8010   35.2470   41.7810 C   0  0  0  0  0  0  0  0  0  0  0  0
   48.5180   34.8750   40.3440 C   0  0  0  0  0  0  0  0  0  0  0  0
   47.1430   34.3020   40.1270 C   0  0  0  0  0  0  0  0  0  0  0  0
   46.2260   34.5140   41.3080 C   0  0  1  0  0  0  0  0  0  0  0  0
   46.0160   34.4420   43.7270 C   0  0  0  0  0  0  0  0  0  0  0  0
   45.3800   35.6540   43.5210 C   0  0  0  0  0  0  0  0  0  0  0  0
   44.5800   36.2040   44.5370 C   0  0  0  0  0  0  0  0  0  0  0  0
   44.4930   35.4490   45.7130 N   0  0  0  0  0  0  0  0  0  0  0  0
   45.1360   34.2700   45.8620 C   0  0  0  0  0  0  0  0  0  0  0  0
   45.8910   33.7830   44.8620 N   0  0  0  0  0  0  0  0  0  0  0  0
   44.9540   33.7530   41.0390 C   0  0  2  0  0  0  0  0  0  0  0  0
   44.6250   33.4190   39.5990 C   0  0  0  0  0  0  0  0  0  0  0  0
   43.8150   34.4140   40.3420 C   0  0  1  0  0  0  0  0  0  0  0  0
   42.4920   34.0890   40.9790 C   0  0  0  0  0  0  0  0  0  0  0  0
   41.4670   35.1740   40.8220 C   0  0  0  0  0  0  0  0  0  0  0  0
   41.6760   35.8640   37.8840 Cl  0  0  0  0  0  0  0  0  0  0  0  0
   40.4150   34.9070   38.6600 C   0  0  0  0  0  0  0  0  0  0  0  0
   40.3530   34.6130   40.0100 C   0  0  0  0  0  0  0  0  0  0  0  0
   39.2980   33.8510   40.4650 C   0  0  0  0  0  0  0  0  0  0  0  0
   38.3550   33.4150   39.5640 C   0  0  0  0  0  0  0  0  0  0  0  0
   38.3920   33.6950   38.2130 C   0  0  0  0  0  0  0  0  0  0  0  0
   39.4660   34.4680   37.7670 C   0  0  0  0  0  0  0  0  0  0  0  0
   46.7519   32.8986   42.5043 H   0  0  0  0  0  0  0  0  0  0  0  0
   48.4614   34.6077   43.7607 H   0  0  0  0  0  0  0  0  0  0  0  0
   48.8048   33.2970   42.5457 H   0  0  0  0  0  0  0  0  0  0  0  0
   48.3282   36.2171   41.9941 H   0  0  0  0  0  0  0  0  0  0  0  0
   49.8929   35.2936   41.9057 H   0  0  0  0  0  0  0  0  0  0  0  0
   48.6194   35.7786   39.7249 H   0  0  0  0  0  0  0  0  0  0  0  0
   49.2398   34.0928   40.0662 H   0  0  0  0  0  0  0  0  0  0  0  0
   46.6967   34.7844   39.2449 H   0  0  0  0  0  0  0  0  0  0  0  0
   47.2555   33.2168   39.9865 H   0  0  0  0  0  0  0  0  0  0  0  0
   46.0549   35.5939   41.4284 H   0  0  0  0  0  0  0  0  0  0  0  0
   45.5004   36.1849   42.5652 H   0  0  0  0  0  0  0  0  0  0  0  0
   44.0568   37.1641   44.4164 H   0  0  0  0  0  0  0  0  0  0  0  0
   45.0416   33.7079   46.8028 H   0  0  0  0  0  0  0  0  0  0  0  0
   45.0586   33.1985   41.9832 H   0  0  0  0  0  0  0  0  0  0  0  0
   44.1961   32.4385   39.3449 H   0  0  0  0  0  0  0  0  0  0  0  0
   45.1832   33.4188   38.6511 H   0  0  0  0  0  0  0  0  0  0  0  0
   43.4885   35.4220   40.0464 H   0  0  0  0  0  0  0  0  0  0  0  0
   42.1000   33.1708   40.5173 H   0  0  0  0  0  0  0  0  0  0  0  0
   42.6736   33.9704   42.0574 H   0  0  0  0  0  0  0  0  0  0  0  0
   41.0942   35.4859   41.8088 H   0  0  0  0  0  0  0  0  0  0  0  0
   41.9037   36.0554   40.3296 H   0  0  0  0  0  0  0  0  0  0  0  0
   39.2119   33.5959   41.5315 H   0  0  0  0  0  0  0  0  0  0  0  0
   37.5208   32.8063   39.9429 H   0  0  0  0  0  0  0  0  0  0  0  0
   37.6166   33.3287   37.5241 H   0  0  0  0  0  0  0  0  0  0  0  0
   39.5529   34.7258   36.7012 H   0  0  0  0  0  0  0  0  0  0  0  0
  1  2  1  0
  1  7  1  0
  3  2  1  0
  4  3  1  0
  5  4  1  0
  5  6  1  0
  6  1  1  0
  7 12  1  0
  8  7  2  0
  8  9  1  0
  9 10  2  0
 10 11  1  0
 12 11  2  0
 13  6  1  0
 14 15  1  0
 14 13  1  0
 15 16  1  0
 15 13  1  0
 17 16  1  0
 18 19  1  0
 19 20  2  0
 20 21  1  0
 20 17  1  0
 22 21  2  0
 23 22  1  0
 24 23  2  0
 24 19  1  0
  1 25  1  6
  2 26  1  0
  2 27  1  0
  3 28  1  0
  3 29  1  0
  4 30  1  0
  4 31  1  0
  5 32  1  0
  5 33  1  0
  6 34  1  1
  8 35  1  0
  9 36  1  0
 11 37  1  0
 13 38  1  1
 14 39  1  0
 14 40  1  0
 15 41  1  6
 16 42  1  0
 16 43  1  0
 17 44  1  0
 17 45  1  0
 21 46  1  0
 22 47  1  0
 23 48  1  0
 24 49  1  0
M  ISO  8  25  13  26  13  27  13  28  13  29  13  30  13  31  13  32  13
M  ISO  8  33  13  34  13  35  14  36  14  37  14  38  13  39  13  40  13
M  ISO  8  41  13  42   8  43   8  44   8  45   8  46  14  47  14  48  14
M  ISO  1  49  14
M  END
>  <minimizedAffinity>  (1) 
-7.43391705

>  <minimizedRMSD>  (1) 
2.82885981

$$$$
