
     RDKit          3D

 51 53  0  0  0  0  0  0  0  0999 V2000
   46.1600   34.5610   43.6180 C   0  0  0  0  0  0  0  0  0  0  0  0
   46.1630   33.7860   44.7520 C   0  0  0  0  0  0  0  0  0  0  0  0
   45.3300   34.1750   45.7680 C   0  0  0  0  0  0  0  0  0  0  0  0
   44.5570   35.2730   45.6230 N   0  0  0  0  0  0  0  0  0  0  0  0
   44.5570   36.0180   44.5250 C   0  0  0  0  0  0  0  0  0  0  0  0
   45.3600   35.6440   43.5460 N   0  0  0  0  0  0  0  0  0  0  0  0
   47.0020   34.1070   42.5030 C   0  0  0  0  0  0  0  0  0  0  0  0
   48.3860   34.6810   42.5930 C   0  0  0  0  0  0  0  0  0  0  0  0
   48.7030   35.5690   41.4760 C   0  0  0  0  0  0  0  0  0  0  0  0
   48.5080   34.8880   40.1380 C   0  0  0  0  0  0  0  0  0  0  0  0
   47.2560   34.1030   40.0490 C   0  0  0  0  0  0  0  0  0  0  0  0
   46.3280   34.3900   41.2080 C   0  0  0  0  0  0  0  0  0  0  0  0
   46.8420   32.6860   45.0790 O   0  0  0  0  0  0  0  0  0  0  0  0
   47.2450   32.1380   46.2670 C   0  0  0  0  0  0  0  0  0  0  0  0
   47.1240   30.6240   46.3020 C   0  0  0  0  0  0  0  0  0  0  0  0
   45.9600   30.1470   45.5810 N   0  0  0  0  0  0  0  0  0  0  0  0
   44.8200   29.5820   46.7710 S   0  0  0  0  0  0  0  0  0  0  0  0
   43.5720   29.0770   46.1150 O   0  0  0  0  0  0  0  0  0  0  0  0
   44.5090   30.7430   47.6710 O   0  0  0  0  0  0  0  0  0  0  0  0
   45.4920   28.3800   47.7220 O   0  0  0  0  0  0  0  0  0  0  0  0
   44.1260   26.7330   49.6890 Cl  0  0  0  0  0  0  0  0  0  0  0  0
   44.8320   26.1410   48.1930 C   0  0  0  0  0  0  0  0  0  0  0  0
   45.4490   27.0510   47.3600 C   0  0  0  0  0  0  0  0  0  0  0  0
   46.0100   26.5860   46.1750 C   0  0  0  0  0  0  0  0  0  0  0  0
   45.9440   25.2520   45.8550 C   0  0  0  0  0  0  0  0  0  0  0  0
   45.3110   24.3560   46.7220 C   0  0  0  0  0  0  0  0  0  0  0  0
   44.7490   24.7950   47.9000 C   0  0  0  0  0  0  0  0  0  0  0  0
   45.2909   33.5935   46.7009 H   0  0  0  0  0  0  0  0  0  0  0  0
   43.9165   36.9077   44.4344 H   0  0  0  0  0  0  0  0  0  0  0  0
   47.1310   33.0165   42.5672 H   0  0  0  0  0  0  0  0  0  0  0  0
   48.4703   35.2507   43.5302 H   0  0  0  0  0  0  0  0  0  0  0  0
   49.0962   33.8415   42.5615 H   0  0  0  0  0  0  0  0  0  0  0  0
   48.0463   36.4501   41.5252 H   0  0  0  0  0  0  0  0  0  0  0  0
   49.7614   35.8567   41.5601 H   0  0  0  0  0  0  0  0  0  0  0  0
   48.4910   35.6597   39.3543 H   0  0  0  0  0  0  0  0  0  0  0  0
   49.3414   34.1812   40.0115 H   0  0  0  0  0  0  0  0  0  0  0  0
   46.7423   34.3578   39.1103 H   0  0  0  0  0  0  0  0  0  0  0  0
   47.5196   33.0355   40.0791 H   0  0  0  0  0  0  0  0  0  0  0  0
   46.0310   35.4487   41.1792 H   0  0  0  0  0  0  0  0  0  0  0  0
   45.4427   33.7430   41.1210 H   0  0  0  0  0  0  0  0  0  0  0  0
   48.2977   32.4082   46.4369 H   0  0  0  0  0  0  0  0  0  0  0  0
   46.5834   32.5360   47.0505 H   0  0  0  0  0  0  0  0  0  0  0  0
   48.0252   30.1867   45.8473 H   0  0  0  0  0  0  0  0  0  0  0  0
   47.0158   30.3198   47.3536 H   0  0  0  0  0  0  0  0  0  0  0  0
   45.5464   30.9131   45.0306 H   0  0  0  0  0  0  0  0  0  0  0  0
   42.9180   28.8124   46.8095 H   0  0  0  0  0  0  0  0  0  0  0  0
   44.5854   30.4578   48.6159 H   0  0  0  0  0  0  0  0  0  0  0  0
   46.5083   27.2894   45.4917 H   0  0  0  0  0  0  0  0  0  0  0  0
   46.3890   24.8886   44.9170 H   0  0  0  0  0  0  0  0  0  0  0  0
   45.2614   23.2888   46.4602 H   0  0  0  0  0  0  0  0  0  0  0  0
   44.2496   24.0948   48.5859 H   0  0  0  0  0  0  0  0  0  0  0  0
  1  2  1  0
  2 13  1  0
  2  3  2  0
  4  3  1  0
  5  4  2  0
  6  1  2  0
  6  5  1  0
  7  8  1  0
  7  1  1  0
  9  8  1  0
 10  9  1  0
 11 10  1  0
 11 12  1  0
 12  7  1  0
 13 14  1  0
 14 15  1  0
 16 15  1  0
 16 17  1  0
 17 19  1  0
 17 20  1  0
 18 17  1  0
 22 21  1  0
 23 20  1  0
 23 22  2  0
 24 23  1  0
 25 24  2  0
 25 26  1  0
 26 27  2  0
 27 22  1  0
  3 28  1  0
  5 29  1  0
  7 30  1  0
  8 31  1  0
  8 32  1  0
  9 33  1  0
  9 34  1  0
 10 35  1  0
 10 36  1  0
 11 37  1  0
 11 38  1  0
 12 39  1  0
 12 40  1  0
 14 41  1  0
 14 42  1  0
 15 43  1  0
 15 44  1  0
 16 45  1  0
 18 46  1  0
 19 47  1  0
 24 48  1  0
 25 49  1  0
 26 50  1  0
 27 51  1  0
M  ISO  8  28  14  29  14  30  13  31  13  32  13  33  13  34  13  35  13
M  ISO  8  36  13  37  13  38  13  39  13  40  13  41   8  42   8  43   8
M  ISO  8  44   8  45   5  46   3  47   3  48  14  49  14  50  14  51  14
M  END
>  <minimizedAffinity>  (1) 
-5.85254717

>  <minimizedRMSD>  (1) 
1.11597669

$$$$
