
     RDKit          3D

 23 24  0  0  0  0  0  0  0  0999 V2000
   46.9940   34.7560   41.9760 C   0  0  0  0  0  0  0  0  0  0  0  0
   48.1670   35.1720   41.7840 O   0  0  0  0  0  0  0  0  0  0  0  0
   46.2490   34.8060   43.1930 C   0  0  0  0  0  0  0  0  0  0  0  0
   45.3490   35.8720   43.2610 C   0  0  0  0  0  0  0  0  0  0  0  0
   44.5800   35.9850   44.4300 C   0  0  0  0  0  0  0  0  0  0  0  0
   44.7430   35.0770   45.4200 N   0  0  0  0  0  0  0  0  0  0  0  0
   45.6350   34.0590   45.3000 C   0  0  0  0  0  0  0  0  0  0  0  0
   46.3900   33.9200   44.1900 N   0  0  0  0  0  0  0  0  0  0  0  0
   46.3250   34.1830   40.9050 O   0  0  0  0  0  0  0  0  0  0  0  0
   44.9720   31.9960   39.4690 Cl  0  0  0  0  0  0  0  0  0  0  0  0
   46.3990   32.8520   38.8930 C   0  0  0  0  0  0  0  0  0  0  0  0
   46.9180   33.8680   39.7000 C   0  0  0  0  0  0  0  0  0  0  0  0
   48.0470   34.5490   39.2480 C   0  0  0  0  0  0  0  0  0  0  0  0
   48.6240   34.2100   38.0300 C   0  0  0  0  0  0  0  0  0  0  0  0
   48.0950   33.2000   37.2450 C   0  0  0  0  0  0  0  0  0  0  0  0
   46.9760   32.5190   37.6820 C   0  0  0  0  0  0  0  0  0  0  0  0
   45.2473   36.5913   42.4350 H   0  0  0  0  0  0  0  0  0  0  0  0
   43.8527   36.8029   44.5401 H   0  0  0  0  0  0  0  0  0  0  0  0
   45.7436   33.3358   46.1217 H   0  0  0  0  0  0  0  0  0  0  0  0
   48.4819   35.3559   39.8562 H   0  0  0  0  0  0  0  0  0  0  0  0
   49.5158   34.7532   37.6840 H   0  0  0  0  0  0  0  0  0  0  0  0
   48.5614   32.9424   36.2826 H   0  0  0  0  0  0  0  0  0  0  0  0
   46.5452   31.7141   37.0683 H   0  0  0  0  0  0  0  0  0  0  0  0
  1  3  1  0
  2  1  2  0
  3  4  2  0
  3  8  1  0
  4  5  1  0
  5  6  2  0
  7  6  1  0
  8  7  2  0
  9  1  1  0
 11 10  1  0
 11 12  2  0
 12  9  1  0
 13 12  1  0
 14 13  2  0
 15 16  2  0
 15 14  1  0
 16 11  1  0
  4 17  1  0
  5 18  1  0
  7 19  1  0
 13 20  1  0
 14 21  1  0
 15 22  1  0
 16 23  1  0
M  ISO  7  17  14  18  14  19  14  20  14  21  14  22  14  23  14
M  END
>  <minimizedAffinity>  (1) 
-4.27966976

>  <minimizedRMSD>  (1) 
0.457068026

$$$$
