
     RDKit          3D

 32 34  0  0  1  0  0  0  0  0999 V2000
   46.5520   35.0620   42.0070 C   0  0  1  0  0  0  0  0  0  0  0  0
   48.0790   35.3430   41.9810 C   0  0  0  0  0  0  0  0  0  0  0  0
   47.3510   34.1150   41.3460 C   0  0  2  0  0  0  0  0  0  0  0  0
   44.7060   35.2300   45.2710 C   0  0  0  0  0  0  0  0  0  0  0  0
   45.1250   35.5920   43.9630 C   0  0  0  0  0  0  0  0  0  0  0  0
   46.0880   34.8050   43.4240 C   0  0  0  0  0  0  0  0  0  0  0  0
   46.6310   33.7260   44.1010 N   0  0  0  0  0  0  0  0  0  0  0  0
   46.1950   33.4260   45.3490 C   0  0  0  0  0  0  0  0  0  0  0  0
   45.2340   34.1770   45.9320 N   0  0  0  0  0  0  0  0  0  0  0  0
   44.6030   36.7060   43.2880 N   0  0  0  0  0  0  0  0  0  0  0  0
   47.3580   33.9930   39.8410 C   0  0  0  0  0  0  0  0  0  0  0  0
   47.9760   34.3750   36.9860 Cl  0  0  0  0  0  0  0  0  0  0  0  0
   48.7300   33.2240   38.0680 C   0  0  0  0  0  0  0  0  0  0  0  0
   48.4190   33.0620   39.4190 C   0  0  0  0  0  0  0  0  0  0  0  0
   49.0940   32.1140   40.1530 C   0  0  0  0  0  0  0  0  0  0  0  0
   50.0660   31.3340   39.5610 C   0  0  0  0  0  0  0  0  0  0  0  0
   50.3780   31.4960   38.2100 C   0  0  0  0  0  0  0  0  0  0  0  0
   49.7090   32.4410   37.4610 C   0  0  0  0  0  0  0  0  0  0  0  0
   45.6268   35.5546   41.6734 H   0  0  0  0  0  0  0  0  0  0  0  0
   48.4978   36.1417   41.3512 H   0  0  0  0  0  0  0  0  0  0  0  0
   48.8852   35.5247   42.7070 H   0  0  0  0  0  0  0  0  0  0  0  0
   47.4290   33.0219   41.4408 H   0  0  0  0  0  0  0  0  0  0  0  0
   43.9245   35.8279   45.7627 H   0  0  0  0  0  0  0  0  0  0  0  0
   46.6244   32.5691   45.8888 H   0  0  0  0  0  0  0  0  0  0  0  0
   44.9334   36.9350   42.3397 H   0  0  0  0  0  0  0  0  0  0  0  0
   43.8894   37.2947   43.7408 H   0  0  0  0  0  0  0  0  0  0  0  0
   46.3831   33.6134   39.5012 H   0  0  0  0  0  0  0  0  0  0  0  0
   47.5464   34.9821   39.3981 H   0  0  0  0  0  0  0  0  0  0  0  0
   48.8572   31.9771   41.2185 H   0  0  0  0  0  0  0  0  0  0  0  0
   50.5989   30.5791   40.1578 H   0  0  0  0  0  0  0  0  0  0  0  0
   51.1550   30.8719   37.7444 H   0  0  0  0  0  0  0  0  0  0  0  0
   49.9461   32.5750   36.3952 H   0  0  0  0  0  0  0  0  0  0  0  0
  1  6  1  0
  2  1  1  0
  3  2  1  0
  3  1  1  0
  4  9  2  0
  5  4  1  0
  6  5  2  0
  6  7  1  0
  7  8  2  0
  8  9  1  0
 10  5  1  0
 11  3  1  0
 12 13  1  0
 13 14  2  0
 14 11  1  0
 14 15  1  0
 16 15  2  0
 17 16  1  0
 18 13  1  0
 18 17  2  0
  1 19  1  6
  2 20  1  0
  2 21  1  0
  3 22  1  1
  4 23  1  0
  8 24  1  0
 10 25  1  0
 10 26  1  0
 11 27  1  0
 11 28  1  0
 15 29  1  0
 16 30  1  0
 17 31  1  0
 18 32  1  0
M  ISO  8  19  13  20  13  21  13  22  13  23  14  24  14  27   8  28   8
M  ISO  4  29  14  30  14  31  14  32  14
M  END
>  <minimizedAffinity>  (1) 
-5.19855022

>  <minimizedRMSD>  (1) 
0.802158177

$$$$
