
     RDKit          3D

 36 38  0  0  0  0  0  0  0  0999 V2000
   44.6070   35.4040   44.9640 C   0  0  0  0  0  0  0  0  0  0  0  0
   45.1830   35.4350   43.6690 C   0  0  0  0  0  0  0  0  0  0  0  0
   46.2210   34.5570   43.4100 C   0  0  0  0  0  0  0  0  0  0  0  0
   46.6350   33.7050   44.4180 N   0  0  0  0  0  0  0  0  0  0  0  0
   46.0590   33.7140   45.6220 C   0  0  0  0  0  0  0  0  0  0  0  0
   45.0360   34.5620   45.9160 N   0  0  0  0  0  0  0  0  0  0  0  0
   46.8060   34.5720   42.1300 N   0  0  0  0  0  0  0  0  0  0  0  0
   47.9720   35.2030   41.9550 C   0  0  0  0  0  0  0  0  0  0  0  0
   48.5580   35.2190   40.6910 C   0  0  0  0  0  0  0  0  0  0  0  0
   47.9040   34.5790   39.6730 C   0  0  0  0  0  0  0  0  0  0  0  0
   48.4420   34.5940   38.5230 O   0  0  0  0  0  0  0  0  0  0  0  0
   46.7250   33.9320   39.8150 N   0  0  0  0  0  0  0  0  0  0  0  0
   46.2240   33.9620   41.0650 C   0  0  0  0  0  0  0  0  0  0  0  0
   45.1320   33.3930   41.3160 O   0  0  0  0  0  0  0  0  0  0  0  0
   46.6970   32.7000   46.5140 C   0  0  0  0  0  0  0  0  0  0  0  0
   45.6600   32.0440   47.4100 C   0  0  0  0  0  0  0  0  0  0  0  0
   48.0530   30.5170   48.5450 Cl  0  0  0  0  0  0  0  0  0  0  0  0
   46.6870   29.7880   47.7750 C   0  0  0  0  0  0  0  0  0  0  0  0
   45.6520   30.5680   47.2940 C   0  0  0  0  0  0  0  0  0  0  0  0
   44.5850   29.9100   46.6850 C   0  0  0  0  0  0  0  0  0  0  0  0
   44.4830   28.5550   46.5290 C   0  0  0  0  0  0  0  0  0  0  0  0
   45.5100   27.7760   47.0070 C   0  0  0  0  0  0  0  0  0  0  0  0
   46.5760   28.4180   47.6130 C   0  0  0  0  0  0  0  0  0  0  0  0
   43.7813   36.0929   45.1957 H   0  0  0  0  0  0  0  0  0  0  0  0
   44.8186   36.1308   42.8989 H   0  0  0  0  0  0  0  0  0  0  0  0
   48.4640   35.7048   42.8012 H   0  0  0  0  0  0  0  0  0  0  0  0
   49.5164   35.7300   40.5166 H   0  0  0  0  0  0  0  0  0  0  0  0
   46.2506   33.4568   39.0340 H   0  0  0  0  0  0  0  0  0  0  0  0
   47.1801   31.9287   45.8962 H   0  0  0  0  0  0  0  0  0  0  0  0
   47.4422   33.2046   47.1465 H   0  0  0  0  0  0  0  0  0  0  0  0
   45.8772   32.3132   48.4542 H   0  0  0  0  0  0  0  0  0  0  0  0
   44.6712   32.4063   47.0920 H   0  0  0  0  0  0  0  0  0  0  0  0
   43.7609   30.5284   46.2999 H   0  0  0  0  0  0  0  0  0  0  0  0
   43.6085   28.1037   46.0375 H   0  0  0  0  0  0  0  0  0  0  0  0
   45.4854   26.6805   46.9112 H   0  0  0  0  0  0  0  0  0  0  0  0
   47.3965   27.7925   47.9945 H   0  0  0  0  0  0  0  0  0  0  0  0
  1  6  2  0
  2  1  1  0
  3  2  2  0
  3  4  1  0
  4  5  2  0
  5  6  1  0
  5 15  1  0
  7  3  1  0
  8  7  1  0
  9  8  2  0
 10 12  1  0
 10  9  1  0
 11 10  2  0
 12 13  1  0
 13 14  2  0
 13  7  1  0
 15 16  1  0
 18 17  1  0
 19 16  1  0
 19 18  2  0
 20 19  1  0
 21 20  2  0
 21 22  1  0
 22 23  2  0
 23 18  1  0
  1 24  1  0
  2 25  1  0
  8 26  1  0
  9 27  1  0
 12 28  1  0
 15 29  1  0
 15 30  1  0
 16 31  1  0
 16 32  1  0
 20 33  1  0
 21 34  1  0
 22 35  1  0
 23 36  1  0
M  ISO  8  24  14  25  14  26  14  27  14  28   9  29   8  30   8  31   8
M  ISO  5  32   8  33  14  34  14  35  14  36  14
M  END
>  <minimizedAffinity>  (1) 
-5.95572996

>  <minimizedRMSD>  (1) 
1.64669418

$$$$
