
     RDKit          3D

 37 39  0  0  0  0  0  0  0  0999 V2000
   44.3460   34.9660   41.9930 C   0  0  0  0  0  0  0  0  0  0  0  0
   45.0720   34.8360   40.9810 O   0  0  0  0  0  0  0  0  0  0  0  0
   44.7890   35.1040   44.3920 C   0  0  0  0  0  0  0  0  0  0  0  0
   44.7900   34.3590   43.2420 C   0  0  0  0  0  0  0  0  0  0  0  0
   45.2110   33.0120   43.2460 C   0  0  0  0  0  0  0  0  0  0  0  0
   45.6160   32.4970   44.4540 N   0  0  0  0  0  0  0  0  0  0  0  0
   45.6100   33.2380   45.5650 C   0  0  0  0  0  0  0  0  0  0  0  0
   45.2020   34.5160   45.5280 N   0  0  0  0  0  0  0  0  0  0  0  0
   46.0440   32.6670   46.8280 C   0  0  0  0  0  0  0  0  0  0  0  0
   47.3060   32.1870   47.0190 C   0  0  0  0  0  0  0  0  0  0  0  0
   47.7370   31.6440   48.1950 C   0  0  0  0  0  0  0  0  0  0  0  0
   46.8350   31.5970   49.2080 N   0  0  0  0  0  0  0  0  0  0  0  0
   45.6180   32.0630   49.0150 C   0  0  0  0  0  0  0  0  0  0  0  0
   45.1600   32.6040   47.8690 N   0  0  0  0  0  0  0  0  0  0  0  0
   43.2490   35.6950   41.6440 O   0  0  0  0  0  0  0  0  0  0  0  0
   41.9750   35.1820   41.5810 C   0  0  0  0  0  0  0  0  0  0  0  0
   41.0110   36.0110   40.7400 C   0  0  0  0  0  0  0  0  0  0  0  0
   41.6130   36.1060   37.7450 Cl  0  0  0  0  0  0  0  0  0  0  0  0
   40.3410   35.1450   38.4740 C   0  0  0  0  0  0  0  0  0  0  0  0
   40.1620   35.1830   39.8540 C   0  0  0  0  0  0  0  0  0  0  0  0
   39.1340   34.3990   40.3910 C   0  0  0  0  0  0  0  0  0  0  0  0
   38.3110   33.6060   39.5930 C   0  0  0  0  0  0  0  0  0  0  0  0
   38.5130   33.5890   38.2260 C   0  0  0  0  0  0  0  0  0  0  0  0
   39.5330   34.3660   37.6830 C   0  0  0  0  0  0  0  0  0  0  0  0
   44.4596   36.1535   44.3857 H   0  0  0  0  0  0  0  0  0  0  0  0
   45.2148   32.4050   42.3286 H   0  0  0  0  0  0  0  0  0  0  0  0
   48.0153   32.2402   46.1799 H   0  0  0  0  0  0  0  0  0  0  0  0
   48.7623   31.2642   48.3153 H   0  0  0  0  0  0  0  0  0  0  0  0
   44.9167   32.0056   49.8605 H   0  0  0  0  0  0  0  0  0  0  0  0
   42.0303   34.1722   41.1484 H   0  0  0  0  0  0  0  0  0  0  0  0
   41.5815   35.1832   42.6082 H   0  0  0  0  0  0  0  0  0  0  0  0
   40.3591   36.5841   41.4157 H   0  0  0  0  0  0  0  0  0  0  0  0
   41.6147   36.6695   40.0982 H   0  0  0  0  0  0  0  0  0  0  0  0
   38.9703   34.4091   41.4787 H   0  0  0  0  0  0  0  0  0  0  0  0
   37.5111   33.0015   40.0455 H   0  0  0  0  0  0  0  0  0  0  0  0
   37.8769   32.9703   37.5759 H   0  0  0  0  0  0  0  0  0  0  0  0
   39.6952   34.3555   36.5951 H   0  0  0  0  0  0  0  0  0  0  0  0
  1  4  1  0
  2  1  2  0
  3  8  2  0
  4  5  2  0
  4  3  1  0
  5  6  1  0
  6  7  2  0
  7  9  1  0
  8  7  1  0
  9 10  2  0
  9 14  1  0
 10 11  1  0
 11 12  2  0
 13 12  1  0
 14 13  2  0
 15  1  1  0
 16 15  1  0
 17 16  1  0
 18 19  1  0
 19 20  2  0
 20 21  1  0
 20 17  1  0
 22 21  2  0
 23 22  1  0
 24 23  2  0
 24 19  1  0
  3 25  1  0
  5 26  1  0
 10 27  1  0
 11 28  1  0
 13 29  1  0
 16 30  1  0
 16 31  1  0
 17 32  1  0
 17 33  1  0
 21 34  1  0
 22 35  1  0
 23 36  1  0
 24 37  1  0
M  ISO  8  25  14  26  14  27  14  28  14  29  14  30   8  31   8  32   8
M  ISO  5  33   8  34  14  35  14  36  14  37  14
M  END
>  <minimizedAffinity>  (1) 
-6.71456861

>  <minimizedRMSD>  (1) 
0.887139201

$$$$
