
     RDKit          3D

 23 24  0  0  0  0  0  0  0  0999 V2000
   46.0310   31.2530   45.6480 C   0  0  0  0  0  0  0  0  0  0  0  0
   45.9250   34.4990   43.8330 C   0  0  0  0  0  0  0  0  0  0  0  0
   47.1170   34.4740   43.1110 C   0  0  0  0  0  0  0  0  0  0  0  0
   47.9430   33.3470   43.2530 C   0  0  0  0  0  0  0  0  0  0  0  0
   47.5490   32.3390   44.0810 N   0  0  0  0  0  0  0  0  0  0  0  0
   46.3780   32.4080   44.7640 C   0  0  0  0  0  0  0  0  0  0  0  0
   45.5940   33.4850   44.6250 N   0  0  0  0  0  0  0  0  0  0  0  0
   47.7210   28.6950   45.6570 Cl  0  0  0  0  0  0  0  0  0  0  0  0
   47.8660   29.9810   46.8210 C   0  0  0  0  0  0  0  0  0  0  0  0
   47.0580   31.0940   46.7320 C   0  0  0  0  0  0  0  0  0  0  0  0
   47.1680   32.1160   47.6530 C   0  0  0  0  0  0  0  0  0  0  0  0
   48.0690   32.0950   48.6960 C   0  0  0  0  0  0  0  0  0  0  0  0
   48.8910   30.9670   48.7920 C   0  0  0  0  0  0  0  0  0  0  0  0
   48.7820   29.9400   47.8680 C   0  0  0  0  0  0  0  0  0  0  0  0
   45.9954   30.3336   45.0452 H   0  0  0  0  0  0  0  0  0  0  0  0
   45.0510   31.4408   46.1109 H   0  0  0  0  0  0  0  0  0  0  0  0
   45.2528   35.3654   43.7463 H   0  0  0  0  0  0  0  0  0  0  0  0
   47.4010   35.3082   42.4527 H   0  0  0  0  0  0  0  0  0  0  0  0
   48.8938   33.2790   42.7040 H   0  0  0  0  0  0  0  0  0  0  0  0
   46.5056   32.9882   47.5499 H   0  0  0  0  0  0  0  0  0  0  0  0
   48.1382   32.9233   49.4165 H   0  0  0  0  0  0  0  0  0  0  0  0
   49.6279   30.8949   49.6055 H   0  0  0  0  0  0  0  0  0  0  0  0
   49.4406   29.0643   47.9652 H   0  0  0  0  0  0  0  0  0  0  0  0
  1 10  1  0
  2  7  2  0
  3  4  2  0
  3  2  1  0
  4  5  1  0
  5  6  2  0
  6  1  1  0
  7  6  1  0
  8  9  1  0
  9 14  2  0
 10  9  1  0
 10 11  2  0
 11 12  1  0
 12 13  2  0
 14 13  1  0
  1 15  1  0
  1 16  1  0
  2 17  1  0
  3 18  1  0
  4 19  1  0
 11 20  1  0
 12 21  1  0
 13 22  1  0
 14 23  1  0
M  ISO  8  15   8  16   8  17  14  18  14  19  14  20  14  21  14  22  14
M  ISO  1  23  14
M  END
>  <minimizedAffinity>  (1) 
-3.46022224

>  <minimizedRMSD>  (1) 
2.62460637

$$$$
