
     RDKit          3D

 48 52  0  0  0  0  0  0  0  0999 V2000
   49.8270   30.2130   49.5580 C   0  0  0  0  0  0  0  0  0  0  0  0
   50.0540   31.4370   50.1380 N   0  0  0  0  0  0  0  0  0  0  0  0
   50.7400   31.6020   51.2660 C   0  0  0  0  0  0  0  0  0  0  0  0
   51.2300   30.5010   51.8570 N   0  0  0  0  0  0  0  0  0  0  0  0
   51.0520   29.2780   51.3560 C   0  0  0  0  0  0  0  0  0  0  0  0
   51.5680   28.1420   51.9580 C   0  0  0  0  0  0  0  0  0  0  0  0
   51.3820   26.9040   51.4200 C   0  0  0  0  0  0  0  0  0  0  0  0
   50.6760   26.7510   50.2650 C   0  0  0  0  0  0  0  0  0  0  0  0
   50.1320   27.8680   49.6190 C   0  0  0  0  0  0  0  0  0  0  0  0
   50.3300   29.1110   50.1720 C   0  0  0  0  0  0  0  0  0  0  0  0
   49.3570   27.5870   48.3930 C   0  0  0  0  0  0  0  0  0  0  0  0
   46.5440   27.5360   47.5340 Cl  0  0  0  0  0  0  0  0  0  0  0  0
   47.3620   26.0830   48.1330 C   0  0  0  0  0  0  0  0  0  0  0  0
   48.6780   26.2290   48.5120 C   0  0  0  0  0  0  0  0  0  0  0  0
   49.2880   25.0550   48.9820 C   0  0  0  0  0  0  0  0  0  0  0  0
   48.5550   23.8900   49.0260 C   0  0  0  0  0  0  0  0  0  0  0  0
   47.2390   23.8170   48.6290 C   0  0  0  0  0  0  0  0  0  0  0  0
   46.5870   24.9470   48.1570 C   0  0  0  0  0  0  0  0  0  0  0  0
   48.9670   30.0710   48.0750 S   0  0  0  0  0  0  0  0  0  0  0  0
   46.1360   32.6480   46.9280 C   0  0  0  0  0  0  0  0  0  0  0  0
   47.2700   31.8680   46.9820 C   0  0  0  0  0  0  0  0  0  0  0  0
   47.4940   31.0210   48.0380 C   0  0  0  0  0  0  0  0  0  0  0  0
   46.5830   30.9340   49.0710 C   0  0  0  0  0  0  0  0  0  0  0  0
   45.4470   31.6880   49.0580 C   0  0  0  0  0  0  0  0  0  0  0  0
   45.2420   32.5340   47.9850 C   0  0  0  0  0  0  0  0  0  0  0  0
   44.6900   35.3570   44.9450 C   0  0  0  0  0  0  0  0  0  0  0  0
   45.4140   35.2910   43.7280 C   0  0  0  0  0  0  0  0  0  0  0  0
   46.3930   34.3190   43.5950 C   0  0  0  0  0  0  0  0  0  0  0  0
   46.6480   33.4460   44.6260 N   0  0  0  0  0  0  0  0  0  0  0  0
   45.9140   33.5510   45.7930 C   0  0  0  0  0  0  0  0  0  0  0  0
   44.9450   34.4980   45.9450 N   0  0  0  0  0  0  0  0  0  0  0  0
   50.8993   32.6013   51.6972 H   0  0  0  0  0  0  0  0  0  0  0  0
   52.1410   28.2417   52.8917 H   0  0  0  0  0  0  0  0  0  0  0  0
   51.8051   26.0215   51.9221 H   0  0  0  0  0  0  0  0  0  0  0  0
   50.5329   25.7472   49.8386 H   0  0  0  0  0  0  0  0  0  0  0  0
   50.0340   27.5821   47.5261 H   0  0  0  0  0  0  0  0  0  0  0  0
   48.5913   28.3656   48.2608 H   0  0  0  0  0  0  0  0  0  0  0  0
   50.3377   25.0656   49.3108 H   0  0  0  0  0  0  0  0  0  0  0  0
   49.0434   22.9761   49.3952 H   0  0  0  0  0  0  0  0  0  0  0  0
   46.7020   22.8587   48.6862 H   0  0  0  0  0  0  0  0  0  0  0  0
   45.5371   24.9354   47.8291 H   0  0  0  0  0  0  0  0  0  0  0  0
   48.0065   31.9249   46.1670 H   0  0  0  0  0  0  0  0  0  0  0  0
   46.7749   30.2509   49.9116 H   0  0  0  0  0  0  0  0  0  0  0  0
   44.7157   31.6247   49.8772 H   0  0  0  0  0  0  0  0  0  0  0  0
   44.3281   33.1459   47.9670 H   0  0  0  0  0  0  0  0  0  0  0  0
   43.9094   36.1216   45.0717 H   0  0  0  0  0  0  0  0  0  0  0  0
   45.2038   35.9944   42.9088 H   0  0  0  0  0  0  0  0  0  0  0  0
   46.9685   34.2457   42.6604 H   0  0  0  0  0  0  0  0  0  0  0  0
  1  2  2  0
  1 10  1  0
  2  3  1  0
  3  4  2  0
  5  4  1  0
  5  6  2  0
  7  6  1  0
  8  7  2  0
  9 10  2  0
  9  8  1  0
 10  5  1  0
 11 14  1  0
 11  9  1  0
 12 13  1  0
 13 18  2  0
 13 14  1  0
 14 15  2  0
 15 16  1  0
 17 16  2  0
 18 17  1  0
 19  1  1  0
 20 21  2  0
 20 25  1  0
 21 22  1  0
 22 19  1  0
 22 23  2  0
 24 23  1  0
 25 24  2  0
 26 31  2  0
 27 26  1  0
 28 27  2  0
 28 29  1  0
 29 30  2  0
 30 31  1  0
 30 20  1  0
  3 32  1  0
  6 33  1  0
  7 34  1  0
  8 35  1  0
 11 36  1  0
 11 37  1  0
 15 38  1  0
 16 39  1  0
 17 40  1  0
 18 41  1  0
 21 42  1  0
 23 43  1  0
 24 44  1  0
 25 45  1  0
 26 46  1  0
 27 47  1  0
 28 48  1  0
M  ISO  8  32  14  33  14  34  14  35  14  36   8  37   8  38  14  39  14
M  ISO  8  40  14  41  14  42  14  43  14  44  14  45  14  46  14  47  14
M  ISO  1  48  14
M  END
>  <minimizedAffinity>  (1) 
-6.82356834

>  <minimizedRMSD>  (1) 
0.848012507

$$$$
