
     RDKit          3D

 37 39  0  0  1  0  0  0  0  0999 V2000
   45.5520   33.8710   41.4810 N   0  0  0  0  0  0  0  0  0  0  0  0
   46.2790   32.9460   40.6510 C   0  0  0  0  0  0  0  0  0  0  0  0
   47.4770   33.5960   40.0880 C   0  0  0  0  0  0  0  0  0  0  0  0
   47.9710   34.8350   40.7320 C   0  0  0  0  0  0  0  0  0  0  0  0
   47.5600   35.0700   42.1290 C   0  0  0  0  0  0  0  0  0  0  0  0
   46.1940   34.5800   42.5270 C   0  0  2  0  0  0  0  0  0  0  0  0
   43.2170   33.2110   41.7860 C   0  0  0  0  0  0  0  0  0  0  0  0
   44.1620   34.0740   41.2200 C   0  0  0  0  0  0  0  0  0  0  0  0
   43.6880   35.1360   40.4010 C   0  0  0  0  0  0  0  0  0  0  0  0
   42.3580   35.2410   40.2230 N   0  0  0  0  0  0  0  0  0  0  0  0
   41.4770   34.3910   40.7840 C   0  0  0  0  0  0  0  0  0  0  0  0
   41.9040   33.3700   41.5700 N   0  0  0  0  0  0  0  0  0  0  0  0
   43.6770   32.1600   42.6010 N   0  0  0  0  0  0  0  0  0  0  0  0
   44.3140   35.8410   44.5100 Cl  0  0  0  0  0  0  0  0  0  0  0  0
   45.3630   34.4710   44.9080 C   0  0  0  0  0  0  0  0  0  0  0  0
   46.1790   33.9820   43.8730 C   0  0  0  0  0  0  0  0  0  0  0  0
   46.9460   32.9190   44.3050 C   0  0  0  0  0  0  0  0  0  0  0  0
   46.9520   32.3700   45.5670 C   0  0  0  0  0  0  0  0  0  0  0  0
   46.1150   32.9220   46.5120 C   0  0  0  0  0  0  0  0  0  0  0  0
   45.3010   33.9880   46.1960 C   0  0  0  0  0  0  0  0  0  0  0  0
   46.5864   32.0801   41.2558 H   0  0  0  0  0  0  0  0  0  0  0  0
   45.6290   32.6181   39.8264 H   0  0  0  0  0  0  0  0  0  0  0  0
   48.2945   32.8610   40.1256 H   0  0  0  0  0  0  0  0  0  0  0  0
   47.1649   33.9177   39.0835 H   0  0  0  0  0  0  0  0  0  0  0  0
   49.0704   34.8058   40.7094 H   0  0  0  0  0  0  0  0  0  0  0  0
   47.5187   35.6569   40.1577 H   0  0  0  0  0  0  0  0  0  0  0  0
   48.2943   34.5728   42.7798 H   0  0  0  0  0  0  0  0  0  0  0  0
   47.5151   36.1639   42.2352 H   0  0  0  0  0  0  0  0  0  0  0  0
   45.5301   35.4470   42.6594 H   0  0  0  0  0  0  0  0  0  0  0  0
   44.3836   35.8461   39.9299 H   0  0  0  0  0  0  0  0  0  0  0  0
   40.4003   34.5254   40.6035 H   0  0  0  0  0  0  0  0  0  0  0  0
   43.0042   31.5093   43.0309 H   0  0  0  0  0  0  0  0  0  0  0  0
   44.6865   32.0415   42.7676 H   0  0  0  0  0  0  0  0  0  0  0  0
   47.6213   32.4643   43.5653 H   0  0  0  0  0  0  0  0  0  0  0  0
   47.6036   31.5186   45.8131 H   0  0  0  0  0  0  0  0  0  0  0  0
   46.0963   32.5069   47.5305 H   0  0  0  0  0  0  0  0  0  0  0  0
   44.6285   34.4353   46.9428 H   0  0  0  0  0  0  0  0  0  0  0  0
  1  6  1  0
  2  1  1  0
  3  2  1  0
  3  4  1  0
  4  5  1  0
  5  6  1  0
  6 16  1  0
  7 13  1  0
  8  1  1  0
  8  7  2  0
  9  8  1  0
 10  9  2  0
 10 11  1  0
 11 12  2  0
 12  7  1  0
 14 15  1  0
 15 20  2  0
 16 17  2  0
 16 15  1  0
 17 18  1  0
 18 19  2  0
 20 19  1  0
  2 21  1  0
  2 22  1  0
  3 23  1  0
  3 24  1  0
  4 25  1  0
  4 26  1  0
  5 27  1  0
  5 28  1  0
  6 29  1  1
  9 30  1  0
 11 31  1  0
 13 32  1  0
 13 33  1  0
 17 34  1  0
 18 35  1  0
 19 36  1  0
 20 37  1  0
M  ISO  8  21  13  22  13  23  13  24  13  25  13  26  13  27  13  28  13
M  ISO  7  29  13  30  14  31  14  34  14  35  14  36  14  37  14
M  END
>  <minimizedAffinity>  (1) 
-5.63082743

>  <minimizedRMSD>  (1) 
5.20364332

$$$$
