
     RDKit          3D

 38 41  0  0  0  0  0  0  0  0999 V2000
   46.1930   32.1840   46.1630 C   0  0  0  0  0  0  0  0  0  0  0  0
   45.6060   32.7880   47.2590 C   0  0  0  0  0  0  0  0  0  0  0  0
   45.8700   32.4100   48.5810 C   0  0  0  0  0  0  0  0  0  0  0  0
   46.7600   31.3850   48.8500 C   0  0  0  0  0  0  0  0  0  0  0  0
   47.3650   30.7480   47.7600 C   0  0  0  0  0  0  0  0  0  0  0  0
   48.1870   29.6900   48.0380 C   0  0  0  0  0  0  0  0  0  0  0  0
   48.7270   28.9700   46.9590 C   0  0  0  0  0  0  0  0  0  0  0  0
   48.3830   29.3690   45.6390 C   0  0  0  0  0  0  0  0  0  0  0  0
   47.5550   30.4430   45.4900 C   0  0  0  0  0  0  0  0  0  0  0  0
   47.0340   31.1840   46.4990 C   0  0  0  0  0  0  0  0  0  0  0  0
   44.7970   29.1780   44.6370 Cl  0  0  0  0  0  0  0  0  0  0  0  0
   46.1310   29.5790   43.5250 C   0  0  0  0  0  0  0  0  0  0  0  0
   47.2470   30.1430   44.0980 C   0  0  0  0  0  0  0  0  0  0  0  0
   48.2300   30.5070   43.1200 C   0  0  0  0  0  0  0  0  0  0  0  0
   48.1580   30.3460   41.7550 C   0  0  0  0  0  0  0  0  0  0  0  0
   47.0040   29.7690   41.2770 C   0  0  0  0  0  0  0  0  0  0  0  0
   46.0180   29.3980   42.1630 C   0  0  0  0  0  0  0  0  0  0  0  0
   45.2970   33.5440   42.8130 C   0  0  0  0  0  0  0  0  0  0  0  0
   46.5020   34.1880   42.4790 C   0  0  0  0  0  0  0  0  0  0  0  0
   47.5560   34.0900   43.3950 C   0  0  0  0  0  0  0  0  0  0  0  0
   47.2780   33.3880   44.4930 N   0  0  0  0  0  0  0  0  0  0  0  0
   46.1710   32.7730   44.8380 C   0  0  0  0  0  0  0  0  0  0  0  0
   45.1810   32.8720   43.9590 N   0  0  0  0  0  0  0  0  0  0  0  0
   48.8510   34.6060   43.1450 N   0  0  0  0  0  0  0  0  0  0  0  0
   44.8945   33.6083   47.0834 H   0  0  0  0  0  0  0  0  0  0  0  0
   45.3676   32.9303   49.4098 H   0  0  0  0  0  0  0  0  0  0  0  0
   46.9841   31.0816   49.8833 H   0  0  0  0  0  0  0  0  0  0  0  0
   48.4184   29.4111   49.0766 H   0  0  0  0  0  0  0  0  0  0  0  0
   49.4003   28.1175   47.1319 H   0  0  0  0  0  0  0  0  0  0  0  0
   48.7726   28.8282   44.7639 H   0  0  0  0  0  0  0  0  0  0  0  0
   49.1503   30.9695   43.5061 H   0  0  0  0  0  0  0  0  0  0  0  0
   48.9736   30.6596   41.0868 H   0  0  0  0  0  0  0  0  0  0  0  0
   46.8706   29.6058   40.1974 H   0  0  0  0  0  0  0  0  0  0  0  0
   45.1007   28.9374   41.7674 H   0  0  0  0  0  0  0  0  0  0  0  0
   44.4423   33.5951   42.1225 H   0  0  0  0  0  0  0  0  0  0  0  0
   46.6116   34.7455   41.5371 H   0  0  0  0  0  0  0  0  0  0  0  0
   49.5909   34.5064   43.8546 H   0  0  0  0  0  0  0  0  0  0  0  0
   49.0529   35.0809   42.2536 H   0  0  0  0  0  0  0  0  0  0  0  0
  1 10  1  0
  1  2  2  0
  2  3  1  0
  3  4  2  0
  5  6  2  0
  5  4  1  0
  7  6  1  0
  8  7  2  0
  9  8  1  0
  9 10  2  0
 10  5  1  0
 12 13  2  0
 12 11  1  0
 13  9  1  0
 14 13  1  0
 15 14  2  0
 16 15  1  0
 16 17  2  0
 17 12  1  0
 18 23  2  0
 19 18  1  0
 19 20  2  0
 20 21  1  0
 21 22  2  0
 22  1  1  0
 23 22  1  0
 24 20  1  0
  2 25  1  0
  3 26  1  0
  4 27  1  0
  6 28  1  0
  7 29  1  0
  8 30  1  0
 14 31  1  0
 15 32  1  0
 16 33  1  0
 17 34  1  0
 18 35  1  0
 19 36  1  0
 24 37  1  0
 24 38  1  0
M  ISO  8  25  14  26  14  27  14  28  14  29  14  30  14  31  14  32  14
M  ISO  4  33  14  34  14  35  14  36  14
M  END
>  <minimizedAffinity>  (1) 
-4.9824605

>  <minimizedRMSD>  (1) 
1.88631415

$$$$
