
     RDKit          3D

 22 23  0  0  0  0  0  0  0  0999 V2000
   44.4120   36.1650   44.7610 C   0  0  0  0  0  0  0  0  0  0  0  0
   45.0990   36.0710   43.5310 C   0  0  0  0  0  0  0  0  0  0  0  0
   45.9460   34.9850   43.3550 C   0  0  0  0  0  0  0  0  0  0  0  0
   46.0600   34.0870   44.3720 N   0  0  0  0  0  0  0  0  0  0  0  0
   45.3910   34.2120   45.5250 C   0  0  0  0  0  0  0  0  0  0  0  0
   44.5600   35.2530   45.7340 N   0  0  0  0  0  0  0  0  0  0  0  0
   45.5500   33.2420   46.5540 N   0  0  0  0  0  0  0  0  0  0  0  0
   44.5770   33.3240   41.2950 Cl  0  0  0  0  0  0  0  0  0  0  0  0
   46.1610   34.0490   41.1100 C   0  0  0  0  0  0  0  0  0  0  0  0
   46.6890   34.7980   42.1400 C   0  0  0  0  0  0  0  0  0  0  0  0
   47.9400   35.3170   41.8810 C   0  0  0  0  0  0  0  0  0  0  0  0
   48.6300   35.1170   40.6930 C   0  0  0  0  0  0  0  0  0  0  0  0
   48.0390   34.3510   39.6990 C   0  0  0  0  0  0  0  0  0  0  0  0
   46.7880   33.8070   39.9050 C   0  0  0  0  0  0  0  0  0  0  0  0
   43.7328   37.0142   44.9271 H   0  0  0  0  0  0  0  0  0  0  0  0
   44.9684   36.8280   42.7436 H   0  0  0  0  0  0  0  0  0  0  0  0
   45.0337   33.3414   47.4397 H   0  0  0  0  0  0  0  0  0  0  0  0
   46.1814   32.4405   46.4131 H   0  0  0  0  0  0  0  0  0  0  0  0
   48.4196   35.9255   42.6619 H   0  0  0  0  0  0  0  0  0  0  0  0
   49.6266   35.5577   40.5428 H   0  0  0  0  0  0  0  0  0  0  0  0
   48.5662   34.1778   38.7493 H   0  0  0  0  0  0  0  0  0  0  0  0
   46.3032   33.1964   39.1290 H   0  0  0  0  0  0  0  0  0  0  0  0
  1  6  2  0
  2  1  1  0
  3  2  2  0
  3  4  1  0
  4  5  2  0
  5  6  1  0
  5  7  1  0
  9  8  1  0
  9 10  2  0
 10  3  1  0
 11 10  1  0
 12 11  2  0
 13 14  2  0
 13 12  1  0
 14  9  1  0
  1 15  1  0
  2 16  1  0
  7 17  1  0
  7 18  1  0
 11 19  1  0
 12 20  1  0
 13 21  1  0
 14 22  1  0
M  ISO  6  15  14  16  14  19  14  20  14  21  14  22  14
M  END
>  <minimizedAffinity>  (1) 
-5.52365828

>  <minimizedRMSD>  (1) 
1.49219608

$$$$
