
     RDKit          3D

 37 39  0  0  0  0  0  0  0  0999 V2000
   42.5050   33.2110   38.1220 Cl  0  0  0  0  0  0  0  0  0  0  0  0
   41.5510   33.5360   39.5590 C   0  0  0  0  0  0  0  0  0  0  0  0
   41.9270   34.4780   40.5170 C   0  0  0  0  0  0  0  0  0  0  0  0
   41.1370   34.6820   41.6160 C   0  0  0  0  0  0  0  0  0  0  0  0
   39.9640   34.0080   41.8520 C   0  0  0  0  0  0  0  0  0  0  0  0
   39.5650   33.0630   40.9130 C   0  0  0  0  0  0  0  0  0  0  0  0
   38.0790   32.1350   41.1090 Cl  0  0  0  0  0  0  0  0  0  0  0  0
   40.3650   32.8650   39.8160 C   0  0  0  0  0  0  0  0  0  0  0  0
   38.4420   33.6360   37.5800 Cl  0  0  0  0  0  0  0  0  0  0  0  0
   39.1310   32.0380   37.7200 C   0  0  0  0  0  0  0  0  0  0  0  0
   39.9800   31.8730   38.7960 C   0  0  0  0  0  0  0  0  0  0  0  0
   40.5990   30.6640   39.0350 C   0  0  0  0  0  0  0  0  0  0  0  0
   40.3860   29.5710   38.1980 C   0  0  0  0  0  0  0  0  0  0  0  0
   39.5310   29.7500   37.1220 C   0  0  0  0  0  0  0  0  0  0  0  0
   38.9150   30.9600   36.8860 C   0  0  0  0  0  0  0  0  0  0  0  0
   43.1200   35.1570   40.2660 O   0  0  0  0  0  0  0  0  0  0  0  0
   44.2810   34.7370   40.9360 C   0  0  0  0  0  0  0  0  0  0  0  0
   45.0020   33.7340   40.6190 O   0  0  0  0  0  0  0  0  0  0  0  0
   44.7590   35.4460   42.0830 N   0  0  0  0  0  0  0  0  0  0  0  0
   45.9560   34.7770   42.5560 C   0  0  0  0  0  0  0  0  0  0  0  0
   45.9570   33.7360   43.4420 C   0  0  0  0  0  0  0  0  0  0  0  0
   47.2010   33.2180   43.7810 C   0  0  0  0  0  0  0  0  0  0  0  0
   48.2960   33.7620   43.2290 N   0  0  0  0  0  0  0  0  0  0  0  0
   48.2430   34.7980   42.3530 C   0  0  0  0  0  0  0  0  0  0  0  0
   47.0540   35.3260   41.9990 N   0  0  0  0  0  0  0  0  0  0  0  0
   44.7150   33.2860   43.9260 N   0  0  0  0  0  0  0  0  0  0  0  0
   41.4610   35.4304   42.3542 H   0  0  0  0  0  0  0  0  0  0  0  0
   39.3622   34.2082   42.7507 H   0  0  0  0  0  0  0  0  0  0  0  0
   41.2711   30.5612   39.8997 H   0  0  0  0  0  0  0  0  0  0  0  0
   40.8769   28.6043   38.3837 H   0  0  0  0  0  0  0  0  0  0  0  0
   39.3398   28.9074   36.4412 H   0  0  0  0  0  0  0  0  0  0  0  0
   38.2427   31.0678   36.0220 H   0  0  0  0  0  0  0  0  0  0  0  0
   44.3289   36.2840   42.4996 H   0  0  0  0  0  0  0  0  0  0  0  0
   47.2862   32.3791   44.4874 H   0  0  0  0  0  0  0  0  0  0  0  0
   49.1726   35.2076   41.9310 H   0  0  0  0  0  0  0  0  0  0  0  0
   44.6757   32.5038   44.5950 H   0  0  0  0  0  0  0  0  0  0  0  0
   43.8450   33.7387   43.6114 H   0  0  0  0  0  0  0  0  0  0  0  0
  1  2  1  0
  2  8  2  0
  2  3  1  0
  3  4  2  0
  4  5  1  0
  6  7  1  0
  6  5  2  0
  8  6  1  0
  9 10  1  0
 10 11  2  0
 11 12  1  0
 11  8  1  0
 13 12  2  0
 14 13  1  0
 15 14  2  0
 15 10  1  0
 16  3  1  0
 16 17  1  0
 17 19  1  0
 18 17  2  0
 19 20  1  0
 20 21  2  0
 21 22  1  0
 21 26  1  0
 23 22  2  0
 24 23  1  0
 25 24  2  0
 25 20  1  0
  4 27  1  0
  5 28  1  0
 12 29  1  0
 13 30  1  0
 14 31  1  0
 15 32  1  0
 19 33  1  0
 22 34  1  0
 24 35  1  0
 26 36  1  0
 26 37  1  0
M  ISO  8  27  14  28  14  29  14  30  14  31  14  32  14  34  14  35  14
M  END
>  <minimizedAffinity>  (1) 
-5.7894702

>  <minimizedRMSD>  (1) 
1.89660597

$$$$
