
     RDKit          3D

 30 32  0  0  0  0  0  0  0  0999 V2000
   47.6740   32.7340   44.1360 F   0  0  0  0  0  0  0  0  0  0  0  0
   46.6820   33.6260   44.3660 C   0  0  0  0  0  0  0  0  0  0  0  0
   45.9970   33.5530   45.5570 C   0  0  0  0  0  0  0  0  0  0  0  0
   45.0050   34.4620   45.7620 C   0  0  0  0  0  0  0  0  0  0  0  0
   44.6990   35.4180   44.8150 C   0  0  0  0  0  0  0  0  0  0  0  0
   45.3760   35.5010   43.6260 C   0  0  0  0  0  0  0  0  0  0  0  0
   46.4040   34.5630   43.4030 C   0  0  0  0  0  0  0  0  0  0  0  0
   46.0670   30.3880   47.3760 C   0  0  0  0  0  0  0  0  0  0  0  0
   47.0040   30.6430   48.4000 C   0  0  0  0  0  0  0  0  0  0  0  0
   47.5930   31.9040   48.4410 C   0  0  0  0  0  0  0  0  0  0  0  0
   47.2390   32.8230   47.4990 N   0  0  0  0  0  0  0  0  0  0  0  0
   46.3380   32.5380   46.5360 C   0  0  0  0  0  0  0  0  0  0  0  0
   45.7520   31.3270   46.4710 N   0  0  0  0  0  0  0  0  0  0  0  0
   45.1290   32.9080   41.3450 Cl  0  0  0  0  0  0  0  0  0  0  0  0
   46.5670   33.9190   41.1130 C   0  0  0  0  0  0  0  0  0  0  0  0
   47.1070   34.6720   42.1360 C   0  0  0  0  0  0  0  0  0  0  0  0
   48.2340   35.4400   41.8800 C   0  0  0  0  0  0  0  0  0  0  0  0
   48.7620   35.4120   40.6020 C   0  0  0  0  0  0  0  0  0  0  0  0
   48.2050   34.6560   39.6050 C   0  0  0  0  0  0  0  0  0  0  0  0
   47.0740   33.8740   39.8320 C   0  0  0  0  0  0  0  0  0  0  0  0
   44.4351   34.4340   46.7024 H   0  0  0  0  0  0  0  0  0  0  0  0
   43.8891   36.1335   45.0201 H   0  0  0  0  0  0  0  0  0  0  0  0
   45.1274   36.2676   42.8773 H   0  0  0  0  0  0  0  0  0  0  0  0
   45.5857   29.4005   47.3187 H   0  0  0  0  0  0  0  0  0  0  0  0
   47.2604   29.8714   49.1409 H   0  0  0  0  0  0  0  0  0  0  0  0
   48.3298   32.1536   49.2187 H   0  0  0  0  0  0  0  0  0  0  0  0
   48.6936   36.0526   42.6696 H   0  0  0  0  0  0  0  0  0  0  0  0
   49.6552   36.0144   40.3799 H   0  0  0  0  0  0  0  0  0  0  0  0
   48.6601   34.6663   38.6036 H   0  0  0  0  0  0  0  0  0  0  0  0
   46.6162   33.2614   39.0413 H   0  0  0  0  0  0  0  0  0  0  0  0
  1  2  1  0
  2  3  2  0
  3  4  1  0
  3 12  1  0
  5  4  2  0
  6  5  1  0
  7  6  2  0
  7  2  1  0
  8  9  2  0
  9 10  1  0
 11 10  2  0
 12 11  1  0
 13 12  2  0
 13  8  1  0
 15 14  1  0
 15 16  2  0
 16  7  1  0
 17 16  1  0
 18 17  2  0
 19 20  2  0
 19 18  1  0
 20 15  1  0
  4 21  1  0
  5 22  1  0
  6 23  1  0
  8 24  1  0
  9 25  1  0
 10 26  1  0
 17 27  1  0
 18 28  1  0
 19 29  1  0
 20 30  1  0
M  ISO  8  21  14  22  14  23  14  24  14  25  14  26  14  27  14  28  14
M  ISO  2  29  14  30  14
M  END
>  <minimizedAffinity>  (1) 
-6.52028656

>  <minimizedRMSD>  (1) 
7.49839878

$$$$
