
     RDKit          3D

 41 44  0  0  1  0  0  0  0  0999 V2000
   45.7500   33.0930   46.1850 C   0  0  0  0  0  0  0  0  0  0  0  0
   46.0700   31.9420   45.7340 C   0  0  0  0  0  0  0  0  0  0  0  0
   44.5010   36.1710   44.5990 C   0  0  0  0  0  0  0  0  0  0  0  0
   45.1120   36.1390   43.3300 C   0  0  0  0  0  0  0  0  0  0  0  0
   45.9360   35.0840   43.0720 C   0  0  0  0  0  0  0  0  0  0  0  0
   46.0830   34.1730   44.0560 N   0  0  0  0  0  0  0  0  0  0  0  0
   45.5180   34.1860   45.2490 C   0  0  0  0  0  0  0  0  0  0  0  0
   44.7250   35.2040   45.5020 N   0  0  0  0  0  0  0  0  0  0  0  0
   44.7500   33.3050   40.7690 Cl  0  0  0  0  0  0  0  0  0  0  0  0
   46.3140   34.0630   40.7690 C   0  0  0  0  0  0  0  0  0  0  0  0
   46.6580   34.8080   41.8620 C   0  0  0  0  0  0  0  0  0  0  0  0
   47.9240   35.3770   41.6870 C   0  0  0  0  0  0  0  0  0  0  0  0
   48.7190   35.2150   40.5770 C   0  0  0  0  0  0  0  0  0  0  0  0
   48.2810   34.4430   39.5270 C   0  0  0  0  0  0  0  0  0  0  0  0
   47.0440   33.8570   39.6370 C   0  0  0  0  0  0  0  0  0  0  0  0
   46.2740   30.8660   46.7940 C   0  0  0  0  0  0  0  0  0  0  0  0
   46.0030   31.4430   48.1600 C   0  0  1  0  0  0  0  0  0  0  0  0
   45.7480   30.4670   49.2560 C   0  0  0  0  0  0  0  0  0  0  0  0
   46.9840   31.2250   49.2490 C   0  0  1  0  0  0  0  0  0  0  0  0
   48.3110   30.6800   48.8960 C   0  0  0  0  0  0  0  0  0  0  0  0
   49.2360   30.4390   50.1230 C   0  0  0  0  0  0  0  0  0  0  0  0
   49.5230   31.5920   49.2200 C   0  0  0  0  0  0  0  0  0  0  0  0
   45.6505   33.2578   47.2680 H   0  0  0  0  0  0  0  0  0  0  0  0
   46.1897   31.7417   44.6590 H   0  0  0  0  0  0  0  0  0  0  0  0
   43.8285   37.0033   44.8541 H   0  0  0  0  0  0  0  0  0  0  0  0
   44.9329   36.9269   42.5836 H   0  0  0  0  0  0  0  0  0  0  0  0
   48.3144   36.0038   42.5023 H   0  0  0  0  0  0  0  0  0  0  0  0
   49.7040   35.7023   40.5291 H   0  0  0  0  0  0  0  0  0  0  0  0
   48.9004   34.2996   38.6293 H   0  0  0  0  0  0  0  0  0  0  0  0
   46.6484   33.2308   38.8237 H   0  0  0  0  0  0  0  0  0  0  0  0
   45.5830   30.0311   46.6057 H   0  0  0  0  0  0  0  0  0  0  0  0
   47.3114   30.5028   46.7505 H   0  0  0  0  0  0  0  0  0  0  0  0
   45.5026   32.3274   47.7387 H   0  0  0  0  0  0  0  0  0  0  0  0
   44.9781   30.6801   50.0122 H   0  0  0  0  0  0  0  0  0  0  0  0
   45.4955   29.3972   49.2975 H   0  0  0  0  0  0  0  0  0  0  0  0
   47.4793   31.8234   50.0278 H   0  0  0  0  0  0  0  0  0  0  0  0
   47.9717   30.1107   48.0181 H   0  0  0  0  0  0  0  0  0  0  0  0
   48.8555   30.6215   51.1388 H   0  0  0  0  0  0  0  0  0  0  0  0
   49.8214   29.5835   50.4911 H   0  0  0  0  0  0  0  0  0  0  0  0
   50.4115   31.5700   48.5719 H   0  0  0  0  0  0  0  0  0  0  0  0
   49.6530   32.6738   49.3712 H   0  0  0  0  0  0  0  0  0  0  0  0
  2  1  2  0
  2 16  1  0
  3  8  2  0
  4  3  1  0
  5  4  2  0
  5  6  1  0
  6  7  2  0
  7  8  1  0
  7  1  1  0
  9 10  1  0
 10 11  2  0
 11  5  1  0
 12 11  1  0
 13 12  2  0
 14 15  2  0
 14 13  1  0
 15 10  1  0
 16 17  1  0
 17 19  1  0
 17 18  1  0
 19 18  1  0
 20 22  1  0
 20 19  1  0
 20 21  1  0
 22 21  1  0
  1 23  1  0
  2 24  1  0
  3 25  1  0
  4 26  1  0
 12 27  1  0
 13 28  1  0
 14 29  1  0
 15 30  1  0
 16 31  1  0
 16 32  1  0
 17 33  1  6
 18 34  1  0
 18 35  1  0
 19 36  1  1
 20 37  1  0
 21 38  1  0
 21 39  1  0
 22 40  1  0
 22 41  1  0
M  ISO  8  25  14  26  14  27  14  28  14  29  14  30  14  31   8  32   8
M  ISO  8  33  13  34  13  35  13  36  13  37  13  38  13  39  13  40  13
M  ISO  1  41  13
M  END
>  <minimizedAffinity>  (1) 
-6.33660698

>  <minimizedRMSD>  (1) 
0.542851508

$$$$
