
     RDKit          3D

 36 39  0  0  0  0  0  0  0  0999 V2000
   47.7220   32.3000   48.2980 C   0  0  0  0  0  0  0  0  0  0  0  0
   47.4120   30.9340   48.3440 C   0  0  0  0  0  0  0  0  0  0  0  0
   46.5580   30.4580   47.3940 C   0  0  0  0  0  0  0  0  0  0  0  0
   46.0540   31.3000   46.4640 N   0  0  0  0  0  0  0  0  0  0  0  0
   46.3540   32.6010   46.4240 C   0  0  0  0  0  0  0  0  0  0  0  0
   47.1840   33.0570   47.3500 N   0  0  0  0  0  0  0  0  0  0  0  0
   45.9260   33.6660   45.5110 C   0  0  0  0  0  0  0  0  0  0  0  0
   44.9420   34.5530   45.7770 N   0  0  0  0  0  0  0  0  0  0  0  0
   44.5300   35.5230   44.9840 C   0  0  0  0  0  0  0  0  0  0  0  0
   45.1260   35.6850   43.7680 N   0  0  0  0  0  0  0  0  0  0  0  0
   46.1200   34.8700   43.3760 C   0  0  0  0  0  0  0  0  0  0  0  0
   46.7110   35.0500   42.1420 C   0  0  0  0  0  0  0  0  0  0  0  0
   47.7250   34.2280   41.7320 C   0  0  0  0  0  0  0  0  0  0  0  0
   48.1300   33.2220   42.5910 C   0  0  0  0  0  0  0  0  0  0  0  0
   47.5080   33.0860   43.8100 C   0  0  0  0  0  0  0  0  0  0  0  0
   46.4850   33.8840   44.2690 C   0  0  0  0  0  0  0  0  0  0  0  0
   48.3020   28.7050   45.6410 Cl  0  0  0  0  0  0  0  0  0  0  0  0
   46.8390   28.1990   46.5000 C   0  0  0  0  0  0  0  0  0  0  0  0
   46.1170   29.0820   47.2750 C   0  0  0  0  0  0  0  0  0  0  0  0
   45.0330   28.4720   47.8380 C   0  0  0  0  0  0  0  0  0  0  0  0
   44.6460   27.1610   47.7010 C   0  0  0  0  0  0  0  0  0  0  0  0
   45.4180   26.3430   46.9110 C   0  0  0  0  0  0  0  0  0  0  0  0
   46.5170   26.8680   46.3110 C   0  0  0  0  0  0  0  0  0  0  0  0
   47.9850   30.1270   49.3350 N   0  0  0  0  0  0  0  0  0  0  0  0
   48.4043   32.7402   49.0401 H   0  0  0  0  0  0  0  0  0  0  0  0
   43.7163   36.1927   45.2993 H   0  0  0  0  0  0  0  0  0  0  0  0
   46.3644   35.8600   41.4834 H   0  0  0  0  0  0  0  0  0  0  0  0
   48.2030   34.3627   40.7505 H   0  0  0  0  0  0  0  0  0  0  0  0
   48.9413   32.5378   42.3019 H   0  0  0  0  0  0  0  0  0  0  0  0
   47.8551   32.2767   44.4692 H   0  0  0  0  0  0  0  0  0  0  0  0
   44.3959   29.1032   48.4749 H   0  0  0  0  0  0  0  0  0  0  0  0
   43.7474   26.7783   48.2071 H   0  0  0  0  0  0  0  0  0  0  0  0
   45.1511   25.2855   46.7679 H   0  0  0  0  0  0  0  0  0  0  0  0
   47.1514   26.2340   45.6742 H   0  0  0  0  0  0  0  0  0  0  0  0
   47.7612   29.1224   49.3742 H   0  0  0  0  0  0  0  0  0  0  0  0
   48.6302   30.5382   50.0246 H   0  0  0  0  0  0  0  0  0  0  0  0
  1  2  2  0
  2 24  1  0
  3  2  1  0
  4  3  2  0
  5  4  1  0
  5  6  2  0
  6  1  1  0
  7  8  2  0
  7  5  1  0
  9  8  1  0
 10  9  2  0
 11 10  1  0
 11 16  2  0
 12 11  1  0
 13 12  2  0
 13 14  1  0
 14 15  2  0
 15 16  1  0
 16  7  1  0
 17 18  1  0
 18 19  2  0
 19  3  1  0
 19 20  1  0
 21 20  2  0
 22 21  1  0
 23 18  1  0
 23 22  2  0
  1 25  1  0
  9 26  1  0
 12 27  1  0
 13 28  1  0
 14 29  1  0
 15 30  1  0
 20 31  1  0
 21 32  1  0
 22 33  1  0
 23 34  1  0
 24 35  1  0
 24 36  1  0
M  ISO  8  25  14  26  14  27  14  28  14  29  14  30  14  31  14  32  14
M  ISO  2  33  14  34  14
M  END
>  <minimizedAffinity>  (1) 
-6.39896584

>  <minimizedRMSD>  (1) 
0.756956279

$$$$
