
     RDKit          3D

 49 52  0  0  1  0  0  0  0  0999 V2000
   46.3220   30.2060   47.5370 C   0  0  2  0  0  0  0  0  0  0  0  0
   44.9820   30.6730   48.0810 C   0  0  0  0  0  0  0  0  0  0  0  0
   45.4880   31.1600   49.4430 C   0  0  0  0  0  0  0  0  0  0  0  0
   46.6760   31.7870   49.1770 O   0  0  0  0  0  0  0  0  0  0  0  0
   47.1920   31.3180   47.9970 C   0  0  1  0  0  0  0  0  0  0  0  0
   48.5980   30.8530   48.2330 C   0  0  1  0  0  0  0  0  0  0  0  0
   49.1640   31.4160   49.5260 C   0  0  0  0  0  0  0  0  0  0  0  0
   49.8790   30.2120   50.1020 C   0  0  0  0  0  0  0  0  0  0  0  0
   49.9380   29.2640   49.0790 O   0  0  0  0  0  0  0  0  0  0  0  0
   48.6490   29.3590   48.5480 C   0  0  0  0  0  0  0  0  0  0  0  0
   46.2960   30.0060   46.0660 C   0  0  0  0  0  0  0  0  0  0  0  0
   46.1060   31.3040   43.9880 C   0  0  0  0  0  0  0  0  0  0  0  0
   46.0750   31.2490   45.2960 C   0  0  0  0  0  0  0  0  0  0  0  0
   44.9960   34.6750   43.1480 C   0  0  0  0  0  0  0  0  0  0  0  0
   45.5260   34.8410   41.8240 C   0  0  0  0  0  0  0  0  0  0  0  0
   46.2410   33.7760   41.2920 C   0  0  0  0  0  0  0  0  0  0  0  0
   46.3960   32.6540   42.0460 N   0  0  0  0  0  0  0  0  0  0  0  0
   45.8850   32.5290   43.2840 C   0  0  0  0  0  0  0  0  0  0  0  0
   45.1940   33.5180   43.8400 N   0  0  0  0  0  0  0  0  0  0  0  0
   48.7210   35.3470   41.1420 Cl  0  0  0  0  0  0  0  0  0  0  0  0
   47.9830   34.5470   39.7580 C   0  0  0  0  0  0  0  0  0  0  0  0
   46.8200   33.8410   39.9620 C   0  0  0  0  0  0  0  0  0  0  0  0
   46.2870   33.2400   38.8560 C   0  0  0  0  0  0  0  0  0  0  0  0
   46.9070   33.3540   37.6140 C   0  0  0  0  0  0  0  0  0  0  0  0
   48.0620   34.0580   37.4260 C   0  0  0  0  0  0  0  0  0  0  0  0
   48.5910   34.6560   38.5290 C   0  0  0  0  0  0  0  0  0  0  0  0
   46.6581   29.2176   47.8835 H   0  0  0  0  0  0  0  0  0  0  0  0
   44.5445   31.4843   47.4807 H   0  0  0  0  0  0  0  0  0  0  0  0
   44.1721   29.9288   48.0958 H   0  0  0  0  0  0  0  0  0  0  0  0
   44.7718   31.8636   49.8923 H   0  0  0  0  0  0  0  0  0  0  0  0
   45.6087   30.3331   50.1583 H   0  0  0  0  0  0  0  0  0  0  0  0
   47.2190   32.1001   47.2239 H   0  0  0  0  0  0  0  0  0  0  0  0
   49.1363   31.1540   47.3222 H   0  0  0  0  0  0  0  0  0  0  0  0
   49.8640   32.2418   49.3306 H   0  0  0  0  0  0  0  0  0  0  0  0
   48.4037   31.8446   50.1954 H   0  0  0  0  0  0  0  0  0  0  0  0
   50.8939   30.4894   50.4230 H   0  0  0  0  0  0  0  0  0  0  0  0
   49.3509   29.8172   50.9825 H   0  0  0  0  0  0  0  0  0  0  0  0
   47.8830   29.0709   49.2830 H   0  0  0  0  0  0  0  0  0  0  0  0
   48.4527   28.6989   47.6903 H   0  0  0  0  0  0  0  0  0  0  0  0
   47.2599   29.5746   45.7581 H   0  0  0  0  0  0  0  0  0  0  0  0
   45.4471   29.3410   45.8492 H   0  0  0  0  0  0  0  0  0  0  0  0
   46.3069   30.3856   43.4169 H   0  0  0  0  0  0  0  0  0  0  0  0
   45.8739   32.1768   45.8516 H   0  0  0  0  0  0  0  0  0  0  0  0
   44.4227   35.4924   43.6097 H   0  0  0  0  0  0  0  0  0  0  0  0
   45.3725   35.7705   41.2562 H   0  0  0  0  0  0  0  0  0  0  0  0
   45.3573   32.6594   38.9480 H   0  0  0  0  0  0  0  0  0  0  0  0
   46.4468   32.8559   36.7479 H   0  0  0  0  0  0  0  0  0  0  0  0
   48.5387   34.1376   36.4379 H   0  0  0  0  0  0  0  0  0  0  0  0
   49.5208   35.2364   38.4356 H   0  0  0  0  0  0  0  0  0  0  0  0
  1  5  1  0
  1  2  1  0
  2  3  1  0
  4  3  1  0
  5  6  1  0
  5  4  1  0
  6 10  1  0
  6  7  1  0
  7  8  1  0
  9  8  1  0
 10  9  1  0
 11  1  1  0
 12 13  2  0
 13 11  1  0
 14 19  2  0
 15 14  1  0
 16 15  2  0
 16 17  1  0
 17 18  2  0
 18 19  1  0
 18 12  1  0
 21 22  2  0
 21 20  1  0
 22 16  1  0
 23 22  1  0
 24 23  2  0
 25 24  1  0
 25 26  2  0
 26 21  1  0
  1 27  1  1
  2 28  1  0
  2 29  1  0
  3 30  1  0
  3 31  1  0
  5 32  1  6
  6 33  1  6
  7 34  1  0
  7 35  1  0
  8 36  1  0
  8 37  1  0
 10 38  1  0
 10 39  1  0
 11 40  1  0
 11 41  1  0
 12 42  1  0
 13 43  1  0
 14 44  1  0
 15 45  1  0
 23 46  1  0
 24 47  1  0
 25 48  1  0
 26 49  1  0
M  ISO  8  27  13  28  13  29  13  30  13  31  13  32  13  33  13  34  13
M  ISO  8  35  13  36  13  37  13  38  13  39  13  40   8  41   8  44  14
M  ISO  5  45  14  46  14  47  14  48  14  49  14
M  END
>  <minimizedAffinity>  (1) 
-5.72528028

>  <minimizedRMSD>  (1) 
2.95425844

$$$$
