
     RDKit          3D

 36 39  0  0  1  0  0  0  0  0999 V2000
   46.7820   34.4720   42.1410 C   0  0  0  0  0  0  0  0  0  0  0  0
   47.7710   35.3150   41.6730 C   0  0  0  0  0  0  0  0  0  0  0  0
   48.5030   35.1280   40.5280 C   0  0  0  0  0  0  0  0  0  0  0  0
   48.2490   34.0110   39.7640 C   0  0  0  0  0  0  0  0  0  0  0  0
   47.2650   33.1740   40.2340 C   0  0  0  0  0  0  0  0  0  0  0  0
   46.5800   33.4000   41.3550 N   0  0  0  0  0  0  0  0  0  0  0  0
   44.4990   35.8940   44.7740 C   0  0  0  0  0  0  0  0  0  0  0  0
   45.1570   35.7860   43.5360 C   0  0  0  0  0  0  0  0  0  0  0  0
   46.0350   34.7130   43.3600 C   0  0  0  0  0  0  0  0  0  0  0  0
   46.2070   33.8470   44.3700 N   0  0  0  0  0  0  0  0  0  0  0  0
   45.5590   33.9760   45.5540 C   0  0  0  0  0  0  0  0  0  0  0  0
   44.7140   35.0010   45.7360 N   0  0  0  0  0  0  0  0  0  0  0  0
   46.9720   31.9610   39.4260 C   0  0  2  0  0  0  0  0  0  0  0  0
   48.1250   31.0440   39.1880 C   0  0  0  0  0  0  0  0  0  0  0  0
   47.5180   31.8540   38.0760 C   0  0  1  0  0  0  0  0  0  0  0  0
   45.4550   33.5870   36.8820 Cl  0  0  0  0  0  0  0  0  0  0  0  0
   45.7050   31.9020   36.4680 C   0  0  0  0  0  0  0  0  0  0  0  0
   46.6910   31.1460   37.0650 C   0  0  0  0  0  0  0  0  0  0  0  0
   46.8550   29.8110   36.7070 C   0  0  0  0  0  0  0  0  0  0  0  0
   46.0240   29.2610   35.7520 C   0  0  0  0  0  0  0  0  0  0  0  0
   45.0550   30.0520   35.1830 C   0  0  0  0  0  0  0  0  0  0  0  0
   44.8370   31.3950   35.4960 C   0  0  0  0  0  0  0  0  0  0  0  0
   47.9904   36.2129   42.2693 H   0  0  0  0  0  0  0  0  0  0  0  0
   49.2741   35.8527   40.2275 H   0  0  0  0  0  0  0  0  0  0  0  0
   48.7994   33.8014   38.8350 H   0  0  0  0  0  0  0  0  0  0  0  0
   43.7997   36.7250   44.9485 H   0  0  0  0  0  0  0  0  0  0  0  0
   44.9867   36.5200   42.7346 H   0  0  0  0  0  0  0  0  0  0  0  0
   45.7253   33.2452   46.3592 H   0  0  0  0  0  0  0  0  0  0  0  0
   45.9555   31.8640   39.8349 H   0  0  0  0  0  0  0  0  0  0  0  0
   49.1230   31.2955   39.5764 H   0  0  0  0  0  0  0  0  0  0  0  0
   48.3326   29.9780   39.3631 H   0  0  0  0  0  0  0  0  0  0  0  0
   47.9149   32.5636   37.3351 H   0  0  0  0  0  0  0  0  0  0  0  0
   47.6385   29.2008   37.1801 H   0  0  0  0  0  0  0  0  0  0  0  0
   46.1354   28.2086   35.4518 H   0  0  0  0  0  0  0  0  0  0  0  0
   44.4031   29.5932   34.4251 H   0  0  0  0  0  0  0  0  0  0  0  0
   44.0518   32.0008   35.0200 H   0  0  0  0  0  0  0  0  0  0  0  0
  1  9  1  0
  2  1  2  0
  3  2  1  0
  4  5  1  0
  4  3  2  0
  5  6  2  0
  6  1  1  0
  7 12  2  0
  8  7  1  0
  9  8  2  0
  9 10  1  0
 10 11  2  0
 11 12  1  0
 13  5  1  0
 14 13  1  0
 15 14  1  0
 15 13  1  0
 17 16  1  0
 17 18  2  0
 18 15  1  0
 19 18  1  0
 20 19  2  0
 21 22  2  0
 21 20  1  0
 22 17  1  0
  2 23  1  0
  3 24  1  0
  4 25  1  0
  7 26  1  0
  8 27  1  0
 11 28  1  0
 13 29  1  6
 14 30  1  0
 14 31  1  0
 15 32  1  6
 19 33  1  0
 20 34  1  0
 21 35  1  0
 22 36  1  0
M  ISO  8  23  14  24  14  25  14  26  14  27  14  28  14  29  13  30  13
M  ISO  6  31  13  32  13  33  14  34  14  35  14  36  14
M  END
>  <minimizedAffinity>  (1) 
-5.03540993

>  <minimizedRMSD>  (1) 
1.89155078

$$$$
