
     RDKit          3D

 43 46  0  0  0  0  0  0  0  0999 V2000
   45.1180   33.9760   40.7430 C   0  0  0  0  0  0  0  0  0  0  0  0
   44.0590   33.6260   39.9420 C   0  0  0  0  0  0  0  0  0  0  0  0
   44.3620   33.0770   38.7200 C   0  0  0  0  0  0  0  0  0  0  0  0
   45.6410   32.8680   38.2720 C   0  0  0  0  0  0  0  0  0  0  0  0
   46.6650   33.2320   39.1020 C   0  0  0  0  0  0  0  0  0  0  0  0
   46.4320   33.7870   40.3420 C   0  0  0  0  0  0  0  0  0  0  0  0
   40.7990   35.3150   40.8050 C   0  0  0  0  0  0  0  0  0  0  0  0
   42.0960   35.1090   40.3040 C   0  0  0  0  0  0  0  0  0  0  0  0
   42.7260   33.8620   40.4490 C   0  0  0  0  0  0  0  0  0  0  0  0
   41.9940   32.9200   41.0890 N   0  0  0  0  0  0  0  0  0  0  0  0
   40.7660   33.1280   41.5590 C   0  0  0  0  0  0  0  0  0  0  0  0
   40.1710   34.3220   41.4160 N   0  0  0  0  0  0  0  0  0  0  0  0
   40.2140   36.5800   40.6340 N   0  0  0  0  0  0  0  0  0  0  0  0
   47.5830   34.1400   41.1480 C   0  0  0  0  0  0  0  0  0  0  0  0
   48.1370   35.3780   40.8860 C   0  0  0  0  0  0  0  0  0  0  0  0
   49.2390   35.8970   41.5530 C   0  0  0  0  0  0  0  0  0  0  0  0
   49.8060   35.1180   42.5330 C   0  0  0  0  0  0  0  0  0  0  0  0
   49.2760   33.8870   42.8140 C   0  0  0  0  0  0  0  0  0  0  0  0
   48.1690   33.3890   42.1300 C   0  0  0  0  0  0  0  0  0  0  0  0
   46.7990   33.1700   44.8280 Cl  0  0  0  0  0  0  0  0  0  0  0  0
   46.9580   31.9010   43.6250 C   0  0  0  0  0  0  0  0  0  0  0  0
   47.6020   32.0940   42.4130 C   0  0  0  0  0  0  0  0  0  0  0  0
   47.6320   30.9900   41.5900 C   0  0  0  0  0  0  0  0  0  0  0  0
   47.0800   29.7640   41.8960 C   0  0  0  0  0  0  0  0  0  0  0  0
   46.4460   29.6100   43.1120 C   0  0  0  0  0  0  0  0  0  0  0  0
   46.3870   30.6830   43.9760 C   0  0  0  0  0  0  0  0  0  0  0  0
   44.7000   35.0290   43.1040 N   0  0  0  0  0  0  0  0  0  0  0  0
   44.8810   34.5600   42.0420 C   0  0  0  0  0  0  0  0  0  0  0  0
   43.5294   32.7879   38.0618 H   0  0  0  0  0  0  0  0  0  0  0  0
   45.8356   32.4251   37.2841 H   0  0  0  0  0  0  0  0  0  0  0  0
   47.7027   33.0777   38.7712 H   0  0  0  0  0  0  0  0  0  0  0  0
   42.6214   35.9303   39.7947 H   0  0  0  0  0  0  0  0  0  0  0  0
   40.2335   32.3123   42.0700 H   0  0  0  0  0  0  0  0  0  0  0  0
   40.7346   37.3274   40.1531 H   0  0  0  0  0  0  0  0  0  0  0  0
   39.2643   36.7605   40.9895 H   0  0  0  0  0  0  0  0  0  0  0  0
   47.6757   35.9921   40.0986 H   0  0  0  0  0  0  0  0  0  0  0  0
   49.6415   36.8907   41.3070 H   0  0  0  0  0  0  0  0  0  0  0  0
   50.6822   35.4819   43.0896 H   0  0  0  0  0  0  0  0  0  0  0  0
   49.7374   33.2739   43.6022 H   0  0  0  0  0  0  0  0  0  0  0  0
   48.1335   31.0940   40.6165 H   0  0  0  0  0  0  0  0  0  0  0  0
   47.1437   28.9264   41.1858 H   0  0  0  0  0  0  0  0  0  0  0  0
   45.9944   28.6457   43.3879 H   0  0  0  0  0  0  0  0  0  0  0  0
   45.8851   30.5746   44.9488 H   0  0  0  0  0  0  0  0  0  0  0  0
  1 28  1  0
  2  9  1  0
  2  1  2  0
  3  2  1  0
  4  3  2  0
  4  5  1  0
  5  6  2  0
  6  1  1  0
  6 14  1  0
  7 12  2  0
  8  9  2  0
  8  7  1  0
  9 10  1  0
 10 11  2  0
 12 11  1  0
 13  7  1  0
 14 19  1  0
 15 14  2  0
 15 16  1  0
 16 17  2  0
 17 18  1  0
 19 22  1  0
 19 18  2  0
 21 26  2  0
 21 20  1  0
 22 21  1  0
 23 24  1  0
 23 22  2  0
 24 25  2  0
 25 26  1  0
 28 27  3  0
  3 29  1  0
  4 30  1  0
  5 31  1  0
  8 32  1  0
 11 33  1  0
 13 34  1  0
 13 35  1  0
 15 36  1  0
 16 37  1  0
 17 38  1  0
 18 39  1  0
 23 40  1  0
 24 41  1  0
 25 42  1  0
 26 43  1  0
M  ISO  8  29  14  30  14  31  14  32  14  33  14  36  14  37  14  38  14
M  ISO  5  39  14  40  14  41  14  42  14  43  14
M  END
>  <minimizedAffinity>  (1) 
-6.32123041

>  <minimizedRMSD>  (1) 
0.638575971

$$$$
