
     RDKit          3D

 27 29  0  0  1  0  0  0  0  0999 V2000
   47.2440   34.6100   41.9550 C   0  0  1  0  0  0  0  0  0  0  0  0
   48.3870   35.6000   41.8750 C   0  0  0  0  0  0  0  0  0  0  0  0
   48.5970   34.1390   42.2490 C   0  0  2  0  0  0  0  0  0  0  0  0
   44.6220   36.0670   44.2350 C   0  0  0  0  0  0  0  0  0  0  0  0
   45.4480   35.9470   43.1040 C   0  0  0  0  0  0  0  0  0  0  0  0
   46.3260   34.8660   43.1180 C   0  0  0  0  0  0  0  0  0  0  0  0
   46.3380   34.0080   44.1920 N   0  0  0  0  0  0  0  0  0  0  0  0
   45.5190   34.1700   45.2570 C   0  0  0  0  0  0  0  0  0  0  0  0
   44.6660   35.2060   45.2620 N   0  0  0  0  0  0  0  0  0  0  0  0
   47.4120   33.0360   39.5640 Cl  0  0  0  0  0  0  0  0  0  0  0  0
   48.9780   32.5990   40.2040 C   0  0  0  0  0  0  0  0  0  0  0  0
   49.3070   33.2030   41.3850 C   0  0  0  0  0  0  0  0  0  0  0  0
   50.5650   32.8760   41.9090 C   0  0  0  0  0  0  0  0  0  0  0  0
   51.4170   31.9880   41.2580 C   0  0  0  0  0  0  0  0  0  0  0  0
   51.0510   31.3960   40.0670 C   0  0  0  0  0  0  0  0  0  0  0  0
   49.8140   31.7230   39.5590 C   0  0  0  0  0  0  0  0  0  0  0  0
   46.4589   34.2415   41.2784 H   0  0  0  0  0  0  0  0  0  0  0  0
   48.7275   35.9795   40.9003 H   0  0  0  0  0  0  0  0  0  0  0  0
   48.6233   36.5748   42.3267 H   0  0  0  0  0  0  0  0  0  0  0  0
   49.0667   33.6175   43.0960 H   0  0  0  0  0  0  0  0  0  0  0  0
   43.9088   36.9033   44.2795 H   0  0  0  0  0  0  0  0  0  0  0  0
   45.4040   36.6579   42.2657 H   0  0  0  0  0  0  0  0  0  0  0  0
   45.5518   33.4664   46.1019 H   0  0  0  0  0  0  0  0  0  0  0  0
   50.8868   33.3317   42.8570 H   0  0  0  0  0  0  0  0  0  0  0  0
   52.3969   31.7549   41.7001 H   0  0  0  0  0  0  0  0  0  0  0  0
   51.7182   30.6935   39.5461 H   0  0  0  0  0  0  0  0  0  0  0  0
   49.4874   31.2701   38.6113 H   0  0  0  0  0  0  0  0  0  0  0  0
  1  3  1  0
  1  6  1  0
  2  1  1  0
  2  3  1  0
  4  9  2  0
  5  6  2  0
  5  4  1  0
  6  7  1  0
  7  8  2  0
  8  9  1  0
 10 11  1  0
 11 12  2  0
 12 13  1  0
 12  3  1  0
 14 13  2  0
 15 14  1  0
 16 15  2  0
 16 11  1  0
  1 17  1  6
  2 18  1  0
  2 19  1  0
  3 20  1  1
  4 21  1  0
  5 22  1  0
  8 23  1  0
 13 24  1  0
 14 25  1  0
 15 26  1  0
 16 27  1  0
M  ISO  8  17  13  18  13  19  13  20  13  21  14  22  14  23  14  24  14
M  ISO  3  25  14  26  14  27  14
M  END
>  <minimizedAffinity>  (1) 
-5.05268145

>  <minimizedRMSD>  (1) 
1.10218501

$$$$
