
     RDKit          3D

 40 43  0  0  0  0  0  0  0  0999 V2000
   45.4640   33.1500   41.2400 F   0  0  0  0  0  0  0  0  0  0  0  0
   46.5390   33.9840   41.0630 C   0  0  0  0  0  0  0  0  0  0  0  0
   46.9350   34.8090   42.0620 C   0  0  0  0  0  0  0  0  0  0  0  0
   48.0720   35.5550   41.8180 C   0  0  0  0  0  0  0  0  0  0  0  0
   48.7790   35.4740   40.6390 C   0  0  0  0  0  0  0  0  0  0  0  0
   48.2960   34.6090   39.6950 C   0  0  0  0  0  0  0  0  0  0  0  0
   47.1760   33.8490   39.8660 C   0  0  0  0  0  0  0  0  0  0  0  0
   46.7570   33.0210   38.7680 C   0  0  0  0  0  0  0  0  0  0  0  0
   45.5630   33.2950   38.1290 C   0  0  0  0  0  0  0  0  0  0  0  0
   45.1480   32.4540   37.1230 C   0  0  0  0  0  0  0  0  0  0  0  0
   45.8950   31.3540   36.7460 C   0  0  0  0  0  0  0  0  0  0  0  0
   47.1060   31.1200   37.4270 C   0  0  0  0  0  0  0  0  0  0  0  0
   47.5290   31.9560   38.4280 C   0  0  0  0  0  0  0  0  0  0  0  0
   47.3830   30.2950   40.8550 Cl  0  0  0  0  0  0  0  0  0  0  0  0
   48.8060   30.7010   39.9570 C   0  0  0  0  0  0  0  0  0  0  0  0
   48.8280   31.4770   38.7750 C   0  0  0  0  0  0  0  0  0  0  0  0
   50.0670   31.7390   38.1430 C   0  0  0  0  0  0  0  0  0  0  0  0
   51.2090   31.2210   38.7140 C   0  0  0  0  0  0  0  0  0  0  0  0
   51.2060   30.4640   39.8640 C   0  0  0  0  0  0  0  0  0  0  0  0
   49.9870   30.2000   40.4950 C   0  0  0  0  0  0  0  0  0  0  0  0
   44.5290   35.6750   44.8390 C   0  0  0  0  0  0  0  0  0  0  0  0
   45.2070   35.7310   43.6130 C   0  0  0  0  0  0  0  0  0  0  0  0
   46.1880   34.8150   43.3090 C   0  0  0  0  0  0  0  0  0  0  0  0
   46.4360   33.8760   44.2730 N   0  0  0  0  0  0  0  0  0  0  0  0
   45.7800   33.8370   45.4390 C   0  0  0  0  0  0  0  0  0  0  0  0
   44.8350   34.7330   45.7160 N   0  0  0  0  0  0  0  0  0  0  0  0
   48.4278   36.2431   42.5990 H   0  0  0  0  0  0  0  0  0  0  0  0
   49.6848   36.0734   40.4651 H   0  0  0  0  0  0  0  0  0  0  0  0
   48.8419   34.5215   38.7441 H   0  0  0  0  0  0  0  0  0  0  0  0
   44.9576   34.1666   38.4185 H   0  0  0  0  0  0  0  0  0  0  0  0
   44.1993   32.6617   36.6064 H   0  0  0  0  0  0  0  0  0  0  0  0
   45.5558   30.6843   35.9420 H   0  0  0  0  0  0  0  0  0  0  0  0
   47.7226   30.2519   37.1509 H   0  0  0  0  0  0  0  0  0  0  0  0
   50.1168   32.3390   37.2224 H   0  0  0  0  0  0  0  0  0  0  0  0
   52.1737   31.4229   38.2254 H   0  0  0  0  0  0  0  0  0  0  0  0
   52.1469   30.0736   40.2792 H   0  0  0  0  0  0  0  0  0  0  0  0
   49.9616   29.5974   41.4149 H   0  0  0  0  0  0  0  0  0  0  0  0
   43.7456   36.4116   45.0708 H   0  0  0  0  0  0  0  0  0  0  0  0
   44.9519   36.5160   42.8859 H   0  0  0  0  0  0  0  0  0  0  0  0
   46.0240   33.0572   46.1755 H   0  0  0  0  0  0  0  0  0  0  0  0
  2  1  1  0
  2  3  2  0
  3 23  1  0
  4  3  1  0
  5  4  2  0
  6  7  2  0
  6  5  1  0
  7  2  1  0
  8  7  1  0
  9  8  2  0
 10  9  1  0
 11 10  2  0
 11 12  1  0
 12 13  2  0
 13  8  1  0
 13 16  1  0
 15 20  2  0
 15 14  1  0
 16 15  1  0
 17 18  1  0
 17 16  2  0
 18 19  2  0
 19 20  1  0
 21 26  2  0
 22 21  1  0
 23 22  2  0
 23 24  1  0
 24 25  2  0
 25 26  1  0
  4 27  1  0
  5 28  1  0
  6 29  1  0
  9 30  1  0
 10 31  1  0
 11 32  1  0
 12 33  1  0
 17 34  1  0
 18 35  1  0
 19 36  1  0
 20 37  1  0
 21 38  1  0
 22 39  1  0
 25 40  1  0
M  ISO  8  27  14  28  14  29  14  30  14  31  14  32  14  33  14  34  14
M  ISO  6  35  14  36  14  37  14  38  14  39  14  40  14
M  END
>  <minimizedAffinity>  (1) 
-5.86941528

>  <minimizedRMSD>  (1) 
2.80724072

$$$$
