
     RDKit          3D

 39 41  0  0  0  0  0  0  0  0999 V2000
   45.0950   34.5900   42.0000 C   0  0  0  0  0  0  0  0  0  0  0  0
   46.4140   34.6820   41.5420 C   0  0  0  0  0  0  0  0  0  0  0  0
   47.4420   34.4600   42.4540 C   0  0  0  0  0  0  0  0  0  0  0  0
   47.1080   34.1640   43.7490 N   0  0  0  0  0  0  0  0  0  0  0  0
   45.8320   34.0820   44.1620 C   0  0  0  0  0  0  0  0  0  0  0  0
   44.8420   34.2970   43.2790 N   0  0  0  0  0  0  0  0  0  0  0  0
   45.5780   33.7620   45.5520 C   0  0  0  0  0  0  0  0  0  0  0  0
   44.8070   34.5070   46.2050 O   0  0  0  0  0  0  0  0  0  0  0  0
   45.2910   31.1020   44.0820 Cl  0  0  0  0  0  0  0  0  0  0  0  0
   46.1970   31.3170   45.5730 C   0  0  0  0  0  0  0  0  0  0  0  0
   46.2350   32.5820   46.1220 C   0  0  0  0  0  0  0  0  0  0  0  0
   46.9340   32.8290   47.3040 C   0  0  0  0  0  0  0  0  0  0  0  0
   47.6090   31.8140   47.9620 C   0  0  0  0  0  0  0  0  0  0  0  0
   47.5470   30.5590   47.3810 C   0  0  0  0  0  0  0  0  0  0  0  0
   46.8600   30.2700   46.2020 C   0  0  0  0  0  0  0  0  0  0  0  0
   43.8130   34.8860   40.7780 S   0  0  0  0  0  0  0  0  0  0  0  0
   42.1770   34.9590   41.5000 C   0  0  0  0  0  0  0  0  0  0  0  0
   41.2610   35.9270   40.8150 C   0  0  0  0  0  0  0  0  0  0  0  0
   42.0250   36.1390   37.8820 Cl  0  0  0  0  0  0  0  0  0  0  0  0
   40.6360   35.2610   38.4710 C   0  0  0  0  0  0  0  0  0  0  0  0
   40.3770   35.2300   39.8450 C   0  0  0  0  0  0  0  0  0  0  0  0
   39.2620   34.5160   40.2380 C   0  0  0  0  0  0  0  0  0  0  0  0
   38.3950   33.8430   39.4010 C   0  0  0  0  0  0  0  0  0  0  0  0
   38.6800   33.8960   38.0540 C   0  0  0  0  0  0  0  0  0  0  0  0
   37.6140   33.0600   36.9140 Cl  0  0  0  0  0  0  0  0  0  0  0  0
   39.7790   34.5930   37.6060 C   0  0  0  0  0  0  0  0  0  0  0  0
   46.6324   34.9229   40.4912 H   0  0  0  0  0  0  0  0  0  0  0  0
   48.4953   34.5207   42.1427 H   0  0  0  0  0  0  0  0  0  0  0  0
   46.9493   33.8470   47.7204 H   0  0  0  0  0  0  0  0  0  0  0  0
   48.1636   31.9952   48.8945 H   0  0  0  0  0  0  0  0  0  0  0  0
   48.0748   29.7346   47.8827 H   0  0  0  0  0  0  0  0  0  0  0  0
   46.8436   29.2519   45.7858 H   0  0  0  0  0  0  0  0  0  0  0  0
   41.7276   33.9565   41.4448 H   0  0  0  0  0  0  0  0  0  0  0  0
   42.2973   35.3074   42.5364 H   0  0  0  0  0  0  0  0  0  0  0  0
   40.6397   36.4302   41.5705 H   0  0  0  0  0  0  0  0  0  0  0  0
   41.8721   36.6598   40.2677 H   0  0  0  0  0  0  0  0  0  0  0  0
   39.0452   34.4804   41.3158 H   0  0  0  0  0  0  0  0  0  0  0  0
   37.5239   33.2942   39.7883 H   0  0  0  0  0  0  0  0  0  0  0  0
   39.9856   34.6220   36.5260 H   0  0  0  0  0  0  0  0  0  0  0  0
  1  6  1  0
  2  1  2  0
  2  3  1  0
  3  4  2  0
  4  5  1  0
  5  7  1  0
  6  5  2  0
  7 11  1  0
  7  8  2  0
  9 10  1  0
 10 11  2  0
 10 15  1  0
 11 12  1  0
 12 13  2  0
 14 13  1  0
 15 14  2  0
 16 17  1  0
 16  1  1  0
 18 17  1  0
 19 20  1  0
 20 21  2  0
 21 22  1  0
 21 18  1  0
 23 22  2  0
 24 23  1  0
 25 24  1  0
 26 24  2  0
 26 20  1  0
  2 27  1  0
  3 28  1  0
 12 29  1  0
 13 30  1  0
 14 31  1  0
 15 32  1  0
 17 33  1  0
 17 34  1  0
 18 35  1  0
 18 36  1  0
 22 37  1  0
 23 38  1  0
 26 39  1  0
M  ISO  8  27  14  28  14  29  14  30  14  31  14  32  14  33   8  34   8
M  ISO  5  35   8  36   8  37  14  38  14  39  14
M  END
>  <minimizedAffinity>  (1) 
-6.79513311

>  <minimizedRMSD>  (1) 
0.81441021

$$$$
