
     RDKit          3D

 45 48  0  0  1  0  0  0  0  0999 V2000
   47.6190   32.6150   41.3620 C   0  0  1  0  0  0  0  0  0  0  0  0
   47.0200   31.9570   40.1800 C   0  0  0  0  0  0  0  0  0  0  0  0
   47.9350   32.2770   38.9930 C   0  0  0  0  0  0  0  0  0  0  0  0
   47.7830   33.7730   38.7290 C   0  0  0  0  0  0  0  0  0  0  0  0
   48.0060   34.6330   39.9110 C   0  0  0  0  0  0  0  0  0  0  0  0
   47.6210   34.1230   41.2340 C   0  0  1  0  0  0  0  0  0  0  0  0
   45.3550   31.0570   43.9470 C   0  0  0  0  0  0  0  0  0  0  0  0
   45.9250   31.4630   42.7430 C   0  0  0  0  0  0  0  0  0  0  0  0
   47.0780   32.2120   42.6530 C   0  0  0  0  0  0  0  0  0  0  0  0
   47.6480   32.5460   43.8220 N   0  0  0  0  0  0  0  0  0  0  0  0
   47.1120   32.1610   45.0060 C   0  0  0  0  0  0  0  0  0  0  0  0
   46.0030   31.4400   45.0850 N   0  0  0  0  0  0  0  0  0  0  0  0
   46.3510   34.6990   41.7250 C   0  0  0  0  0  0  0  0  0  0  0  0
   46.1880   35.5070   42.8560 C   0  0  0  0  0  0  0  0  0  0  0  0
   44.8850   35.9480   43.0900 C   0  0  0  0  0  0  0  0  0  0  0  0
   43.8990   35.5670   42.2200 C   0  0  0  0  0  0  0  0  0  0  0  0
   44.0650   34.7840   41.1250 C   0  0  0  0  0  0  0  0  0  0  0  0
   45.3270   34.3570   40.8990 N   0  0  0  0  0  0  0  0  0  0  0  0
   41.1470   35.9850   41.1010 Cl  0  0  0  0  0  0  0  0  0  0  0  0
   41.7490   34.7610   40.0240 C   0  0  0  0  0  0  0  0  0  0  0  0
   43.0430   34.3610   40.1810 C   0  0  0  0  0  0  0  0  0  0  0  0
   43.3990   33.3870   39.2660 C   0  0  0  0  0  0  0  0  0  0  0  0
   42.5420   32.8850   38.3110 C   0  0  0  0  0  0  0  0  0  0  0  0
   41.2450   33.3400   38.2130 C   0  0  0  0  0  0  0  0  0  0  0  0
   40.8630   34.3090   39.1090 C   0  0  0  0  0  0  0  0  0  0  0  0
   48.6557   32.2471   41.3583 H   0  0  0  0  0  0  0  0  0  0  0  0
   46.9672   30.8695   40.3366 H   0  0  0  0  0  0  0  0  0  0  0  0
   45.9960   32.3167   40.0010 H   0  0  0  0  0  0  0  0  0  0  0  0
   48.9796   32.0379   39.2414 H   0  0  0  0  0  0  0  0  0  0  0  0
   47.6641   31.6841   38.1069 H   0  0  0  0  0  0  0  0  0  0  0  0
   48.5090   34.0600   37.9541 H   0  0  0  0  0  0  0  0  0  0  0  0
   46.7386   33.9305   38.4217 H   0  0  0  0  0  0  0  0  0  0  0  0
   49.0822   34.8573   39.9505 H   0  0  0  0  0  0  0  0  0  0  0  0
   47.3367   35.4908   39.7489 H   0  0  0  0  0  0  0  0  0  0  0  0
   48.4314   34.4748   41.8893 H   0  0  0  0  0  0  0  0  0  0  0  0
   44.4319   30.4596   43.9789 H   0  0  0  0  0  0  0  0  0  0  0  0
   45.4252   31.1683   41.8085 H   0  0  0  0  0  0  0  0  0  0  0  0
   47.6170   32.4585   45.9369 H   0  0  0  0  0  0  0  0  0  0  0  0
   47.0277   35.7754   43.5139 H   0  0  0  0  0  0  0  0  0  0  0  0
   44.6551   36.5879   43.9547 H   0  0  0  0  0  0  0  0  0  0  0  0
   42.8810   35.9282   42.4276 H   0  0  0  0  0  0  0  0  0  0  0  0
   44.4244   32.9906   39.3027 H   0  0  0  0  0  0  0  0  0  0  0  0
   42.8983   32.1098   37.6167 H   0  0  0  0  0  0  0  0  0  0  0  0
   40.5506   32.9473   37.4557 H   0  0  0  0  0  0  0  0  0  0  0  0
   39.8410   34.7149   39.0818 H   0  0  0  0  0  0  0  0  0  0  0  0
  1  9  1  0
  2  1  1  0
  3  2  1  0
  4  3  1  0
  4  5  1  0
  5  6  1  0
  6  1  1  0
  6 13  1  0
  7 12  2  0
  8  7  1  0
  9  8  2  0
  9 10  1  0
 10 11  2  0
 11 12  1  0
 13 14  2  0
 14 15  1  0
 16 15  2  0
 17 16  1  0
 18 17  2  0
 18 13  1  0
 20 21  2  0
 20 19  1  0
 21 17  1  0
 22 21  1  0
 23 22  2  0
 24 23  1  0
 24 25  2  0
 25 20  1  0
  1 26  1  1
  2 27  1  0
  2 28  1  0
  3 29  1  0
  3 30  1  0
  4 31  1  0
  4 32  1  0
  5 33  1  0
  5 34  1  0
  6 35  1  1
  7 36  1  0
  8 37  1  0
 11 38  1  0
 14 39  1  0
 15 40  1  0
 16 41  1  0
 22 42  1  0
 23 43  1  0
 24 44  1  0
 25 45  1  0
M  ISO  8  26  13  27  13  28  13  29  13  30  13  31  13  32  13  33  13
M  ISO  8  34  13  35  13  36  14  37  14  38  14  39  14  40  14  41  14
M  ISO  4  42  14  43  14  44  14  45  14
M  END
>  <minimizedAffinity>  (1) 
-5.84789515

>  <minimizedRMSD>  (1) 
1.033167

$$$$
