
     RDKit          3D

 21 22  0  0  0  0  0  0  0  0999 V2000
   44.5170   35.7660   44.8700 C   0  0  0  0  0  0  0  0  0  0  0  0
   45.1990   35.7640   43.6350 C   0  0  0  0  0  0  0  0  0  0  0  0
   46.1310   34.7350   43.4170 C   0  0  0  0  0  0  0  0  0  0  0  0
   46.3260   33.8080   44.3950 N   0  0  0  0  0  0  0  0  0  0  0  0
   45.6480   33.8470   45.5730 C   0  0  0  0  0  0  0  0  0  0  0  0
   44.7590   34.8120   45.8020 N   0  0  0  0  0  0  0  0  0  0  0  0
   47.4550   31.5720   44.6910 Cl  0  0  0  0  0  0  0  0  0  0  0  0
   46.7180   31.7410   46.2780 C   0  0  0  0  0  0  0  0  0  0  0  0
   45.9110   32.8170   46.5740 C   0  0  0  0  0  0  0  0  0  0  0  0
   45.3380   32.9320   47.8310 C   0  0  0  0  0  0  0  0  0  0  0  0
   45.5730   31.9780   48.7820 C   0  0  0  0  0  0  0  0  0  0  0  0
   46.3910   30.8850   48.4860 C   0  0  0  0  0  0  0  0  0  0  0  0
   46.9520   30.7830   47.2350 C   0  0  0  0  0  0  0  0  0  0  0  0
   47.0420   34.6530   41.8800 S   0  0  0  0  0  0  0  0  0  0  0  0
   43.7780   36.5533   45.0797 H   0  0  0  0  0  0  0  0  0  0  0  0
   45.0092   36.5357   42.8744 H   0  0  0  0  0  0  0  0  0  0  0  0
   44.6931   33.7922   48.0638 H   0  0  0  0  0  0  0  0  0  0  0  0
   45.1183   32.0711   49.7793 H   0  0  0  0  0  0  0  0  0  0  0  0
   46.5843   30.1138   49.2461 H   0  0  0  0  0  0  0  0  0  0  0  0
   47.5963   29.9237   46.9971 H   0  0  0  0  0  0  0  0  0  0  0  0
   48.3801   34.5326   42.1481 H   0  0  0  0  0  0  0  0  0  0  0  0
  1  6  2  0
  2  1  1  0
  3  2  2  0
  3  4  1  0
  4  5  2  0
  5  6  1  0
  5  9  1  0
  7  8  1  0
  8  9  2  0
  8 13  1  0
  9 10  1  0
 10 11  2  0
 12 11  1  0
 13 12  2  0
 14  3  1  0
  1 15  1  0
  2 16  1  0
 10 17  1  0
 11 18  1  0
 12 19  1  0
 13 20  1  0
 14 21  1  0
M  ISO  7  15  14  16  14  17  14  18  14  19  14  20  14  21  11
M  END
>  <minimizedAffinity>  (1) 
-4.8822093

>  <minimizedRMSD>  (1) 
0.528258562

$$$$
