
     RDKit          3D

 31 32  0  0  0  0  0  0  0  0999 V2000
   47.9470   32.8250   41.7730 O   0  0  0  0  0  0  0  0  0  0  0  0
   47.0620   34.0140   41.3290 P   0  0  2  0  0  0  0  0  0  0  0  0
   45.4890   33.8080   41.9790 O   0  0  0  0  0  0  0  0  0  0  0  0
   44.3980   35.9510   44.7170 C   0  0  0  0  0  0  0  0  0  0  0  0
   44.6490   35.4850   43.4040 C   0  0  0  0  0  0  0  0  0  0  0  0
   45.2550   34.2310   43.2710 C   0  0  0  0  0  0  0  0  0  0  0  0
   45.5620   33.5440   44.3860 N   0  0  0  0  0  0  0  0  0  0  0  0
   45.3100   34.0170   45.6280 C   0  0  0  0  0  0  0  0  0  0  0  0
   44.7330   35.2100   45.7980 N   0  0  0  0  0  0  0  0  0  0  0  0
   46.9640   34.0460   39.6750 O   0  0  0  0  0  0  0  0  0  0  0  0
   46.7510   33.0180   38.8010 C   0  0  0  0  0  0  0  0  0  0  0  0
   45.8600   32.0630   39.1430 O   0  0  0  0  0  0  0  0  0  0  0  0
   48.4630   34.6620   37.0790 Cl  0  0  0  0  0  0  0  0  0  0  0  0
   47.9480   33.0570   36.5900 C   0  0  0  0  0  0  0  0  0  0  0  0
   47.1010   32.4070   37.4720 C   0  0  0  0  0  0  0  0  0  0  0  0
   46.6810   31.1620   37.1200 C   0  0  0  0  0  0  0  0  0  0  0  0
   47.1070   30.6130   35.9320 C   0  0  0  0  0  0  0  0  0  0  0  0
   47.9500   31.3260   35.1150 C   0  0  0  0  0  0  0  0  0  0  0  0
   48.4230   32.5880   35.3900 C   0  0  0  0  0  0  0  0  0  0  0  0
   47.7320   35.3800   41.9950 O   0  0  0  0  0  0  0  0  0  0  0  0
   48.9680   35.6910   41.4560 C   0  0  0  0  0  0  0  0  0  0  0  0
   49.3960   36.9640   41.7990 F   0  0  0  0  0  0  0  0  0  0  0  0
   49.8780   34.7310   41.7660 F   0  0  0  0  0  0  0  0  0  0  0  0
   48.7950   35.6880   40.0700 F   0  0  0  0  0  0  0  0  0  0  0  0
   43.9224   36.9324   44.8606 H   0  0  0  0  0  0  0  0  0  0  0  0
   44.3782   36.0853   42.5229 H   0  0  0  0  0  0  0  0  0  0  0  0
   45.5827   33.4137   46.5064 H   0  0  0  0  0  0  0  0  0  0  0  0
   46.0057   30.5980   37.7802 H   0  0  0  0  0  0  0  0  0  0  0  0
   46.7736   29.6069   35.6379 H   0  0  0  0  0  0  0  0  0  0  0  0
   48.2695   30.8543   34.1740 H   0  0  0  0  0  0  0  0  0  0  0  0
   49.0985   33.1520   34.7300 H   0  0  0  0  0  0  0  0  0  0  0  0
  2  1  2  0
  2  3  1  0
  2 20  1  0
  3  6  1  0
  4  9  2  0
  5  4  1  0
  6  5  2  0
  6  7  1  0
  7  8  2  0
  8  9  1  0
 10  2  1  0
 11 12  2  0
 11 10  1  0
 14 13  1  0
 14 15  2  0
 15 11  1  0
 16 15  1  0
 17 16  2  0
 18 19  2  0
 18 17  1  0
 19 14  1  0
 21 23  1  0
 21 22  1  0
 21 20  1  0
 24 21  1  0
  4 25  1  0
  5 26  1  0
  8 27  1  0
 16 28  1  0
 17 29  1  0
 18 30  1  0
 19 31  1  0
M  ISO  7  25  14  26  14  27  14  28  14  29  14  30  14  31  14
M  END
>  <minimizedAffinity>  (1) 
-5.55312538

>  <minimizedRMSD>  (1) 
2.24248815

$$$$
