
     RDKit          3D

 28 29  0  0  0  0  0  0  0  0999 V2000
   45.6720   30.5970   47.7860 O   0  0  0  0  0  0  0  0  0  0  0  0
   45.9980   31.9810   48.4060 P   0  0  2  0  0  0  0  0  0  0  0  0
   45.4240   31.8930   49.9860 O   0  0  0  0  0  0  0  0  0  0  0  0
   45.1390   33.1450   47.5360 O   0  0  0  0  0  0  0  0  0  0  0  0
   47.0230   33.1800   44.4280 C   0  0  0  0  0  0  0  0  0  0  0  0
   46.5750   32.8180   45.7130 C   0  0  0  0  0  0  0  0  0  0  0  0
   45.5460   33.5280   46.2800 C   0  0  0  0  0  0  0  0  0  0  0  0
   45.0130   34.5480   45.5620 N   0  0  0  0  0  0  0  0  0  0  0  0
   45.4360   34.8960   44.3420 C   0  0  0  0  0  0  0  0  0  0  0  0
   46.4550   34.1990   43.7720 N   0  0  0  0  0  0  0  0  0  0  0  0
   47.6310   32.2270   48.3340 O   0  0  0  0  0  0  0  0  0  0  0  0
   48.6820   31.6270   48.9220 C   0  0  0  0  0  0  0  0  0  0  0  0
   49.5730   32.4940   49.3600 O   0  0  0  0  0  0  0  0  0  0  0  0
   48.6270   29.3220   46.7920 Cl  0  0  0  0  0  0  0  0  0  0  0  0
   49.2840   29.2870   48.4110 C   0  0  0  0  0  0  0  0  0  0  0  0
   49.2960   30.3140   49.3020 C   0  0  0  0  0  0  0  0  0  0  0  0
   49.8780   30.0840   50.5570 C   0  0  0  0  0  0  0  0  0  0  0  0
   50.4460   28.9240   50.9990 C   0  0  0  0  0  0  0  0  0  0  0  0
   50.4070   27.9230   50.0640 C   0  0  0  0  0  0  0  0  0  0  0  0
   49.8560   28.0680   48.8160 C   0  0  0  0  0  0  0  0  0  0  0  0
   46.1774   32.0085   50.6177 H   0  0  0  0  0  0  0  0  0  0  0  0
   47.8464   32.6208   43.9596 H   0  0  0  0  0  0  0  0  0  0  0  0
   47.0415   31.9809   46.2530 H   0  0  0  0  0  0  0  0  0  0  0  0
   44.9661   35.7345   43.8070 H   0  0  0  0  0  0  0  0  0  0  0  0
   49.8767   30.9292   51.2610 H   0  0  0  0  0  0  0  0  0  0  0  0
   50.8880   28.8054   51.9993 H   0  0  0  0  0  0  0  0  0  0  0  0
   50.8421   26.9481   50.3291 H   0  0  0  0  0  0  0  0  0  0  0  0
   49.8618   27.2160   48.1202 H   0  0  0  0  0  0  0  0  0  0  0  0
  2  1  2  0
  2  3  1  0
  4  2  1  0
  5  6  2  0
  6  7  1  0
  7  4  1  0
  8  7  2  0
  9  8  1  0
 10  9  2  0
 10  5  1  0
 11  2  1  0
 11 12  1  0
 12 16  1  0
 12 13  2  0
 14 15  1  0
 15 20  2  0
 15 16  1  0
 16 17  2  0
 17 18  1  0
 19 18  2  0
 20 19  1  0
  3 21  1  0
  5 22  1  0
  6 23  1  0
  9 24  1  0
 17 25  1  0
 18 26  1  0
 19 27  1  0
 20 28  1  0
M  ISO  8  21   3  22  14  23  14  24  14  25  14  26  14  27  14  28  14
M  END
>  <minimizedAffinity>  (1) 
-5.06729889

>  <minimizedRMSD>  (1) 
1.04872167

$$$$
