
     RDKit          3D

 28 29  0  0  0  0  0  0  0  0999 V2000
   48.6470   35.7950   41.8090 O   0  0  0  0  0  0  0  0  0  0  0  0
   48.3330   34.3760   41.4420 P   0  0  1  0  0  0  0  0  0  0  0  0
   49.7890   33.5870   41.1620 O   0  0  0  0  0  0  0  0  0  0  0  0
   47.4780   33.6340   42.7240 O   0  0  0  0  0  0  0  0  0  0  0  0
   45.8930   35.4150   42.8180 C   0  0  0  0  0  0  0  0  0  0  0  0
   46.4860   34.3190   43.4220 C   0  0  0  0  0  0  0  0  0  0  0  0
   46.0650   33.9410   44.7090 C   0  0  0  0  0  0  0  0  0  0  0  0
   45.0910   34.6760   45.3000 N   0  0  0  0  0  0  0  0  0  0  0  0
   44.5340   35.7430   44.6790 C   0  0  0  0  0  0  0  0  0  0  0  0
   44.9380   36.0960   43.4600 N   0  0  0  0  0  0  0  0  0  0  0  0
   47.4210   34.3480   40.0470 O   0  0  0  0  0  0  0  0  0  0  0  0
   47.2600   33.3150   39.1960 C   0  0  0  0  0  0  0  0  0  0  0  0
   46.4110   32.4500   39.6530 O   0  0  0  0  0  0  0  0  0  0  0  0
   45.3060   33.4600   36.8040 Cl  0  0  0  0  0  0  0  0  0  0  0  0
   46.9390   32.8760   36.7640 C   0  0  0  0  0  0  0  0  0  0  0  0
   47.7470   32.8400   37.8680 C   0  0  0  0  0  0  0  0  0  0  0  0
   49.0450   32.3620   37.7770 C   0  0  0  0  0  0  0  0  0  0  0  0
   49.6110   31.8980   36.6090 C   0  0  0  0  0  0  0  0  0  0  0  0
   48.8250   31.9200   35.4780 C   0  0  0  0  0  0  0  0  0  0  0  0
   47.5380   32.3990   35.5910 C   0  0  0  0  0  0  0  0  0  0  0  0
   50.2119   33.3578   42.0273 H   0  0  0  0  0  0  0  0  0  0  0  0
   46.2074   35.7252   41.8106 H   0  0  0  0  0  0  0  0  0  0  0  0
   46.5119   33.0758   45.2206 H   0  0  0  0  0  0  0  0  0  0  0  0
   43.7450   36.3202   45.1833 H   0  0  0  0  0  0  0  0  0  0  0  0
   49.6588   32.3524   38.6897 H   0  0  0  0  0  0  0  0  0  0  0  0
   50.6459   31.5261   36.5812 H   0  0  0  0  0  0  0  0  0  0  0  0
   49.2137   31.5653   34.5121 H   0  0  0  0  0  0  0  0  0  0  0  0
   46.9255   32.4076   34.6774 H   0  0  0  0  0  0  0  0  0  0  0  0
  2  1  2  0
  2  4  1  0
  3  2  1  0
  4  6  1  0
  5  6  2  0
  5 10  1  0
  6  7  1  0
  7  8  2  0
  9  8  1  0
 10  9  2  0
 11  2  1  0
 12 13  2  0
 12 11  1  0
 15 14  1  0
 15 16  2  0
 16 12  1  0
 17 16  1  0
 18 17  2  0
 19 20  2  0
 19 18  1  0
 20 15  1  0
  3 21  1  0
  5 22  1  0
  7 23  1  0
  9 24  1  0
 17 25  1  0
 18 26  1  0
 19 27  1  0
 20 28  1  0
M  ISO  8  21   3  22  14  23  14  24  14  25  14  26  14  27  14  28  14
M  END
>  <minimizedAffinity>  (1) 
-4.54317236

>  <minimizedRMSD>  (1) 
1.31569016

$$$$
