
     RDKit          3D

 31 33  0  0  1  0  0  0  0  0999 V2000
   46.1300   34.7610   43.2940 C   0  0  0  0  0  0  0  0  0  0  0  0
   45.2340   35.8170   43.6360 C   0  0  0  0  0  0  0  0  0  0  0  0
   44.6140   35.7110   44.8800 C   0  0  0  0  0  0  0  0  0  0  0  0
   44.8880   34.6460   45.6680 N   0  0  0  0  0  0  0  0  0  0  0  0
   45.7660   33.6660   45.2640 C   0  0  0  0  0  0  0  0  0  0  0  0
   46.3900   33.6960   44.1030 N   0  0  0  0  0  0  0  0  0  0  0  0
   46.0290   32.5140   46.1810 C   0  0  1  0  0  0  0  0  0  0  0  0
   46.8510   32.7490   47.4240 C   0  0  0  0  0  0  0  0  0  0  0  0
   45.3560   32.6140   47.4950 C   0  0  1  0  0  0  0  0  0  0  0  0
   44.7130   33.8740   47.8790 N   0  0  0  0  0  0  0  0  0  0  0  0
   46.7650   34.8900   41.9960 C   0  0  0  0  0  0  0  0  0  0  0  0
   47.8190   35.5650   41.7900 O   0  0  0  0  0  0  0  0  0  0  0  0
   48.5350   33.4060   40.0020 Cl  0  0  0  0  0  0  0  0  0  0  0  0
   46.8070   33.5010   39.8400 C   0  0  0  0  0  0  0  0  0  0  0  0
   46.1740   34.2050   40.8250 C   0  0  0  0  0  0  0  0  0  0  0  0
   44.7820   34.3320   40.7760 C   0  0  0  0  0  0  0  0  0  0  0  0
   44.0290   33.7710   39.7680 C   0  0  0  0  0  0  0  0  0  0  0  0
   44.6800   33.0610   38.7780 C   0  0  0  0  0  0  0  0  0  0  0  0
   46.0480   32.9420   38.8360 C   0  0  0  0  0  0  0  0  0  0  0  0
   45.0439   36.6632   42.9594 H   0  0  0  0  0  0  0  0  0  0  0  0
   43.9093   36.4853   45.2174 H   0  0  0  0  0  0  0  0  0  0  0  0
   46.0926   31.7775   45.3664 H   0  0  0  0  0  0  0  0  0  0  0  0
   47.4978   31.9514   47.8184 H   0  0  0  0  0  0  0  0  0  0  0  0
   47.5871   33.4997   47.7474 H   0  0  0  0  0  0  0  0  0  0  0  0
   44.6151   31.9677   47.9884 H   0  0  0  0  0  0  0  0  0  0  0  0
   44.6780   33.9425   48.9061 H   0  0  0  0  0  0  0  0  0  0  0  0
   45.2537   34.6647   47.5004 H   0  0  0  0  0  0  0  0  0  0  0  0
   44.2715   34.8987   41.5687 H   0  0  0  0  0  0  0  0  0  0  0  0
   42.9351   33.8857   39.7519 H   0  0  0  0  0  0  0  0  0  0  0  0
   44.1129   32.5985   37.9567 H   0  0  0  0  0  0  0  0  0  0  0  0
   46.5598   32.3746   38.0447 H   0  0  0  0  0  0  0  0  0  0  0  0
  1  2  2  0
  1  6  1  0
  2  3  1  0
  3  4  2  0
  5  4  1  0
  5  7  1  0
  6  5  2  0
  7  8  1  0
  7  9  1  0
  8  9  1  0
  9 10  1  0
 11  1  1  0
 12 11  2  0
 14 13  1  0
 14 15  2  0
 15 11  1  0
 16 15  1  0
 17 16  2  0
 18 19  2  0
 18 17  1  0
 19 14  1  0
  2 20  1  0
  3 21  1  0
  7 22  1  6
  8 23  1  0
  8 24  1  0
  9 25  1  1
 10 26  1  0
 10 27  1  0
 16 28  1  0
 17 29  1  0
 18 30  1  0
 19 31  1  0
M  ISO  8  20  14  21  14  22  13  23  13  24  13  25  13  26   5  27   5
M  ISO  4  28  14  29  14  30  14  31  14
M  END
>  <minimizedAffinity>  (1) 
-5.78623772

>  <minimizedRMSD>  (1) 
0.663978338

$$$$
