
     RDKit          3D

 43 45  0  0  1  0  0  0  0  0999 V2000
   45.3490   34.0310   42.0210 C   0  0  0  0  0  0  0  0  0  0  0  0
   46.3920   34.9010   41.5860 C   0  0  0  0  0  0  0  0  0  0  0  0
   47.7020   34.5170   41.9210 C   0  0  0  0  0  0  0  0  0  0  0  0
   47.8650   33.3690   42.6210 N   0  0  0  0  0  0  0  0  0  0  0  0
   46.8410   32.5860   43.0060 C   0  0  0  0  0  0  0  0  0  0  0  0
   45.5720   32.9240   42.7010 N   0  0  0  0  0  0  0  0  0  0  0  0
   43.6840   34.0990   40.3660 C   0  0  0  0  0  0  0  0  0  0  0  0
   44.6120   33.6720   39.5980 O   0  0  0  0  0  0  0  0  0  0  0  0
   43.9850   34.3550   41.7180 N   0  0  0  0  0  0  0  0  0  0  0  0
   42.4030   34.2870   39.7960 N   0  0  0  0  0  0  0  0  0  0  0  0
   42.2580   34.2930   38.3260 C   0  0  0  0  0  0  0  0  0  0  0  0
   41.0980   35.2140   38.1240 C   0  0  0  0  0  0  0  0  0  0  0  0
   40.6150   35.5890   39.4970 C   0  0  0  0  0  0  0  0  0  0  0  0
   41.1040   34.4620   40.3780 C   0  0  1  0  0  0  0  0  0  0  0  0
   38.9100   33.1060   40.2290 C   0  0  0  0  0  0  0  0  0  0  0  0
   38.4130   34.2690   40.2810 O   0  0  0  0  0  0  0  0  0  0  0  0
   40.3480   33.2190   40.2630 N   0  0  0  0  0  0  0  0  0  0  0  0
   38.8640   31.8210   37.4580 Cl  0  0  0  0  0  0  0  0  0  0  0  0
   38.3130   31.0560   38.9340 C   0  0  0  0  0  0  0  0  0  0  0  0
   38.3750   31.7230   40.1430 C   0  0  0  0  0  0  0  0  0  0  0  0
   37.9560   31.1800   41.3470 C   0  0  0  0  0  0  0  0  0  0  0  0
   37.4410   29.8830   41.3530 C   0  0  0  0  0  0  0  0  0  0  0  0
   37.3950   29.2470   40.1270 C   0  0  0  0  0  0  0  0  0  0  0  0
   37.8060   29.7710   38.9160 C   0  0  0  0  0  0  0  0  0  0  0  0
   48.7470   35.4220   41.4640 C   0  0  0  0  0  0  0  0  0  0  0  0
   49.9820   34.8980   41.8410 F   0  0  0  0  0  0  0  0  0  0  0  0
   48.6150   36.6040   42.1920 F   0  0  0  0  0  0  0  0  0  0  0  0
   48.7580   35.6150   40.1130 F   0  0  0  0  0  0  0  0  0  0  0  0
   46.1830   35.8208   41.0201 H   0  0  0  0  0  0  0  0  0  0  0  0
   47.0403   31.6647   43.5729 H   0  0  0  0  0  0  0  0  0  0  0  0
   43.3112   34.7275   42.4022 H   0  0  0  0  0  0  0  0  0  0  0  0
   43.1643   34.6808   37.8379 H   0  0  0  0  0  0  0  0  0  0  0  0
   42.1065   33.2927   37.8943 H   0  0  0  0  0  0  0  0  0  0  0  0
   41.4155   36.1117   37.5733 H   0  0  0  0  0  0  0  0  0  0  0  0
   40.3019   34.7326   37.5371 H   0  0  0  0  0  0  0  0  0  0  0  0
   41.0474   36.5493   39.8147 H   0  0  0  0  0  0  0  0  0  0  0  0
   39.5234   35.7173   39.5411 H   0  0  0  0  0  0  0  0  0  0  0  0
   41.0393   34.6916   41.4518 H   0  0  0  0  0  0  0  0  0  0  0  0
   40.8890   32.3448   40.2006 H   0  0  0  0  0  0  0  0  0  0  0  0
   38.0279   31.7595   42.2792 H   0  0  0  0  0  0  0  0  0  0  0  0
   37.0932   29.3970   42.2765 H   0  0  0  0  0  0  0  0  0  0  0  0
   36.9918   28.2236   40.1137 H   0  0  0  0  0  0  0  0  0  0  0  0
   37.7330   29.1929   37.9830 H   0  0  0  0  0  0  0  0  0  0  0  0
  1  6  2  0
  2  3  2  0
  2  1  1  0
  3  4  1  0
  4  5  2  0
  6  5  1  0
  7  9  1  0
  8  7  2  0
  9  1  1  0
 10  7  1  0
 10 14  1  0
 11 10  1  0
 12 11  1  0
 12 13  1  0
 13 14  1  0
 15 17  1  0
 15 16  2  0
 17 14  1  0
 18 19  1  0
 19 20  2  0
 20 15  1  0
 20 21  1  0
 21 22  2  0
 23 22  1  0
 24 19  1  0
 24 23  2  0
 25 26  1  0
 25  3  1  0
 25 27  1  0
 28 25  1  0
  2 29  1  0
  5 30  1  0
  9 31  1  0
 11 32  1  0
 11 33  1  0
 12 34  1  0
 12 35  1  0
 13 36  1  0
 13 37  1  0
 14 38  1  1
 17 39  1  0
 21 40  1  0
 22 41  1  0
 23 42  1  0
 24 43  1  0
M  ISO  8  29  14  30  14  32  13  33  13  34  13  35  13  36  13  37  13
M  ISO  5  38  13  40  14  41  14  42  14  43  14
M  END
>  <minimizedAffinity>  (1) 
-7.19346952

>  <minimizedRMSD>  (1) 
1.0885241

$$$$
