
     RDKit          3D

 31 33  0  0  1  0  0  0  0  0999 V2000
   45.5410   36.1220   43.1850 C   0  0  0  0  0  0  0  0  0  0  0  0
   46.3080   34.9270   43.0960 C   0  0  0  0  0  0  0  0  0  0  0  0
   46.1070   34.0400   44.1530 C   0  0  0  0  0  0  0  0  0  0  0  0
   45.2680   34.2800   45.1700 N   0  0  0  0  0  0  0  0  0  0  0  0
   44.5530   35.4600   45.1930 C   0  0  0  0  0  0  0  0  0  0  0  0
   44.6950   36.3580   44.2140 N   0  0  0  0  0  0  0  0  0  0  0  0
   46.7990   32.8380   44.1240 C   0  0  0  0  0  0  0  0  0  0  0  0
   47.4050   32.0890   43.1710 C   0  0  0  0  0  0  0  0  0  0  0  0
   47.9810   30.9140   43.3590 C   0  0  0  0  0  0  0  0  0  0  0  0
   47.9420   30.4550   44.6420 C   0  0  0  0  0  0  0  0  0  0  0  0
   47.0420   31.7890   45.5480 S   0  0  0  0  0  0  0  0  0  0  0  0
   47.1520   34.7790   41.9890 C   0  0  0  0  0  0  0  0  0  0  0  0
   48.3840   35.2350   42.2670 O   0  0  0  0  0  0  0  0  0  0  0  0
   44.5920   33.1990   40.8460 Cl  0  0  0  0  0  0  0  0  0  0  0  0
   46.0510   33.4820   39.9340 C   0  0  0  0  0  0  0  0  0  0  0  0
   46.9540   34.2510   40.6060 C   0  0  0  0  0  0  0  0  0  0  0  0
   48.0460   34.5540   39.7570 C   0  0  0  0  0  0  0  0  0  0  0  0
   48.2100   34.1490   38.4520 C   0  0  0  0  0  0  0  0  0  0  0  0
   47.2060   33.3720   37.9240 C   0  0  0  0  0  0  0  0  0  0  0  0
   46.1010   33.0200   38.6550 C   0  0  0  0  0  0  0  0  0  0  0  0
   45.6390   36.8780   42.3920 H   0  0  0  0  0  0  0  0  0  0  0  0
   43.8609   35.6628   46.0236 H   0  0  0  0  0  0  0  0  0  0  0  0
   47.4189   32.4953   42.1489 H   0  0  0  0  0  0  0  0  0  0  0  0
   48.4555   30.3498   42.5425 H   0  0  0  0  0  0  0  0  0  0  0  0
   48.3493   29.5147   45.0420 H   0  0  0  0  0  0  0  0  0  0  0  0
   47.4421   33.7790   42.3438 H   0  0  0  0  0  0  0  0  0  0  0  0
   48.5055   35.2800   43.2485 H   0  0  0  0  0  0  0  0  0  0  0  0
   48.8454   35.1771   40.1845 H   0  0  0  0  0  0  0  0  0  0  0  0
   49.0955   34.4314   37.8637 H   0  0  0  0  0  0  0  0  0  0  0  0
   47.2920   33.0226   36.8845 H   0  0  0  0  0  0  0  0  0  0  0  0
   45.2988   32.3982   38.2310 H   0  0  0  0  0  0  0  0  0  0  0  0
  1  6  2  0
  2  1  1  0
  2  3  2  0
  3  4  1  0
  4  5  2  0
  6  5  1  0
  7  3  1  0
  7 11  1  0
  8  9  1  0
  8  7  2  0
  9 10  2  0
 10 11  1  0
 12 13  1  0
 12  2  1  0
 15 16  2  0
 15 14  1  0
 16 12  1  0
 17 16  1  0
 18 17  2  0
 19 18  1  0
 19 20  2  0
 20 15  1  0
  1 21  1  0
  5 22  1  0
  8 23  1  0
  9 24  1  0
 10 25  1  0
 12 26  1  0
 13 27  1  0
 17 28  1  0
 18 29  1  0
 19 30  1  0
 20 31  1  0
M  ISO  8  21  14  22  14  23  14  24  14  25  14  26   8  27   3  28  14
M  ISO  3  29  14  30  14  31  14
M  END
>  <minimizedAffinity>  (1) 
-5.22861958

>  <minimizedRMSD>  (1) 
0.927262247

$$$$
