
     RDKit          3D

 48 52  0  0  1  0  0  0  0  0999 V2000
   45.1350   36.0700   43.4870 C   0  0  0  0  0  0  0  0  0  0  0  0
   45.9050   34.9200   43.3040 C   0  0  0  0  0  0  0  0  0  0  0  0
   45.9870   34.0100   44.3100 C   0  0  0  0  0  0  0  0  0  0  0  0
   45.2980   34.2910   45.4370 N   0  0  0  0  0  0  0  0  0  0  0  0
   44.5580   35.3790   45.6360 C   0  0  0  0  0  0  0  0  0  0  0  0
   44.4810   36.2580   44.6610 N   0  0  0  0  0  0  0  0  0  0  0  0
   46.5330   34.7640   42.0670 N   0  0  0  0  0  0  0  0  0  0  0  0
   47.8530   35.1420   41.8140 C   0  0  0  0  0  0  0  0  0  0  0  0
   48.3830   34.7110   40.4620 C   0  0  0  0  0  0  0  0  0  0  0  0
   47.9890   33.4600   40.0350 N   0  0  0  0  0  0  0  0  0  0  0  0
   46.6690   33.0930   40.2430 C   0  0  0  0  0  0  0  0  0  0  0  0
   45.8980   34.2020   40.9100 C   0  0  0  0  0  0  0  0  0  0  0  0
   46.6600   32.3170   45.8080 C   0  0  0  0  0  0  0  0  0  0  0  0
   46.6730   32.7980   44.4780 C   0  0  0  0  0  0  0  0  0  0  0  0
   47.3640   31.9540   43.6310 C   0  0  0  0  0  0  0  0  0  0  0  0
   47.9770   30.7850   43.9780 C   0  0  0  0  0  0  0  0  0  0  0  0
   47.9250   30.3730   45.2870 C   0  0  0  0  0  0  0  0  0  0  0  0
   47.2590   31.1510   46.2060 C   0  0  0  0  0  0  0  0  0  0  0  0
   48.6140   29.1810   45.3500 O   0  0  0  0  0  0  0  0  0  0  0  0
   49.0920   28.8580   44.0550 C   0  0  2  0  0  0  0  0  0  0  0  0
   48.6760   29.9100   43.1900 O   0  0  0  0  0  0  0  0  0  0  0  0
   48.4870   27.7060   43.6450 O   0  0  0  0  0  0  0  0  0  0  0  0
   45.4340   28.3970   43.4480 Cl  0  0  0  0  0  0  0  0  0  0  0  0
   46.1400   26.9410   44.1050 C   0  0  0  0  0  0  0  0  0  0  0  0
   47.5130   26.8980   44.0680 C   0  0  0  0  0  0  0  0  0  0  0  0
   48.0630   25.7210   44.6000 C   0  0  0  0  0  0  0  0  0  0  0  0
   47.2890   24.6940   45.1180 C   0  0  0  0  0  0  0  0  0  0  0  0
   45.9280   24.8290   45.1110 C   0  0  0  0  0  0  0  0  0  0  0  0
   45.3390   25.9510   44.6070 C   0  0  0  0  0  0  0  0  0  0  0  0
   45.0589   36.8188   42.6848 H   0  0  0  0  0  0  0  0  0  0  0  0
   44.0274   35.5381   46.5863 H   0  0  0  0  0  0  0  0  0  0  0  0
   47.9133   36.2388   41.8727 H   0  0  0  0  0  0  0  0  0  0  0  0
   48.4729   34.6355   42.5684 H   0  0  0  0  0  0  0  0  0  0  0  0
   48.0431   35.4449   39.7164 H   0  0  0  0  0  0  0  0  0  0  0  0
   49.4763   34.6592   40.5718 H   0  0  0  0  0  0  0  0  0  0  0  0
   48.5800   32.7696   40.5197 H   0  0  0  0  0  0  0  0  0  0  0  0
   46.2026   32.8634   39.2736 H   0  0  0  0  0  0  0  0  0  0  0  0
   46.6504   32.2101   40.8989 H   0  0  0  0  0  0  0  0  0  0  0  0
   45.7514   35.0071   40.1750 H   0  0  0  0  0  0  0  0  0  0  0  0
   44.9548   33.7569   41.2596 H   0  0  0  0  0  0  0  0  0  0  0  0
   46.1373   32.9153   46.5688 H   0  0  0  0  0  0  0  0  0  0  0  0
   47.4264   32.2529   42.5742 H   0  0  0  0  0  0  0  0  0  0  0  0
   47.2076   30.8371   47.2590 H   0  0  0  0  0  0  0  0  0  0  0  0
   50.1849   28.7335   44.0494 H   0  0  0  0  0  0  0  0  0  0  0  0
   49.1572   25.6086   44.6061 H   0  0  0  0  0  0  0  0  0  0  0  0
   47.7604   23.7881   45.5267 H   0  0  0  0  0  0  0  0  0  0  0  0
   45.3003   24.0221   45.5172 H   0  0  0  0  0  0  0  0  0  0  0  0
   44.2442   26.0581   44.6040 H   0  0  0  0  0  0  0  0  0  0  0  0
  1  6  2  0
  2  1  1  0
  2  3  2  0
  3 14  1  0
  3  4  1  0
  4  5  2  0
  6  5  1  0
  7  2  1  0
  8  7  1  0
  9  8  1  0
 10 11  1  0
 10  9  1  0
 11 12  1  0
 12  7  1  0
 13 18  2  0
 14 13  1  0
 15 16  1  0
 15 14  2  0
 16 17  2  0
 17 19  1  0
 17 18  1  0
 20 19  1  0
 21 16  1  0
 21 20  1  0
 22 20  1  0
 22 25  1  0
 23 24  1  0
 24 29  2  0
 25 24  1  0
 25 26  2  0
 26 27  1  0
 28 27  2  0
 29 28  1  0
  1 30  1  0
  5 31  1  0
  8 32  1  0
  8 33  1  0
  9 34  1  0
  9 35  1  0
 10 36  1  0
 11 37  1  0
 11 38  1  0
 12 39  1  0
 12 40  1  0
 13 41  1  0
 15 42  1  0
 18 43  1  0
 20 44  1  1
 26 45  1  0
 27 46  1  0
 28 47  1  0
 29 48  1  0
M  ISO  8  30  14  31  14  32  13  33  13  34  13  35  13  36   5  37  13
M  ISO  8  38  13  39  13  40  13  41  14  42  14  43  14  44  13  45  14
M  ISO  3  46  14  47  14  48  14
M  END
>  <minimizedAffinity>  (1) 
-4.81321144

>  <minimizedRMSD>  (1) 
2.41552615

$$$$
