
     RDKit          3D

 42 44  0  0  0  0  0  0  0  0999 V2000
   41.0390   35.9090   39.3890 C   0  0  0  0  0  0  0  0  0  0  0  0
   43.9440   34.6610   41.4650 C   0  0  0  0  0  0  0  0  0  0  0  0
   42.8060   35.3980   41.0730 C   0  0  0  0  0  0  0  0  0  0  0  0
   42.2410   35.1610   39.8320 C   0  0  0  0  0  0  0  0  0  0  0  0
   42.8370   34.2070   39.0490 N   0  0  0  0  0  0  0  0  0  0  0  0
   43.9370   33.5210   39.4700 C   0  0  0  0  0  0  0  0  0  0  0  0
   44.4810   33.7470   40.6630 N   0  0  0  0  0  0  0  0  0  0  0  0
   44.5420   34.9350   42.7980 C   0  0  0  0  0  0  0  0  0  0  0  0
   46.0550   35.3310   42.6920 C   0  0  0  0  0  0  0  0  0  0  0  0
   45.0050   36.2010   43.2330 C   0  0  0  0  0  0  0  0  0  0  0  0
   39.8750   35.6330   40.3240 C   0  0  0  0  0  0  0  0  0  0  0  0
   39.1650   33.3410   40.7550 C   0  0  0  0  0  0  0  0  0  0  0  0
   39.7960   33.2410   41.8410 O   0  0  0  0  0  0  0  0  0  0  0  0
   39.1030   34.4840   39.9260 N   0  0  0  0  0  0  0  0  0  0  0  0
   38.4520   32.1780   40.3430 N   0  0  0  0  0  0  0  0  0  0  0  0
   37.8360   31.1240   41.1120 C   0  0  0  0  0  0  0  0  0  0  0  0
   38.4520   29.7800   40.8050 C   0  0  0  0  0  0  0  0  0  0  0  0
   38.2400   29.4460   39.3350 C   0  0  0  0  0  0  0  0  0  0  0  0
   38.9350   30.5620   38.5630 C   0  0  0  0  0  0  0  0  0  0  0  0
   38.2100   31.8350   38.9550 C   0  0  0  0  0  0  0  0  0  0  0  0
   41.2600   36.9866   39.3923 H   0  0  0  0  0  0  0  0  0  0  0  0
   40.7683   35.5841   38.3735 H   0  0  0  0  0  0  0  0  0  0  0  0
   42.3729   36.1524   41.7463 H   0  0  0  0  0  0  0  0  0  0  0  0
   44.3847   32.7641   38.8091 H   0  0  0  0  0  0  0  0  0  0  0  0
   43.8744   34.2131   43.2912 H   0  0  0  0  0  0  0  0  0  0  0  0
   46.8034   34.8738   43.3560 H   0  0  0  0  0  0  0  0  0  0  0  0
   46.8166   35.3883   41.9004 H   0  0  0  0  0  0  0  0  0  0  0  0
   44.7127   37.0985   42.6681 H   0  0  0  0  0  0  0  0  0  0  0  0
   44.9062   36.7393   44.1872 H   0  0  0  0  0  0  0  0  0  0  0  0
   40.2700   35.4584   41.3357 H   0  0  0  0  0  0  0  0  0  0  0  0
   39.2090   36.5079   40.2928 H   0  0  0  0  0  0  0  0  0  0  0  0
   38.5285   34.4949   39.0711 H   0  0  0  0  0  0  0  0  0  0  0  0
   37.9661   31.3403   42.1827 H   0  0  0  0  0  0  0  0  0  0  0  0
   36.7693   31.0825   40.8467 H   0  0  0  0  0  0  0  0  0  0  0  0
   39.5300   29.8132   41.0213 H   0  0  0  0  0  0  0  0  0  0  0  0
   37.9756   29.0085   41.4277 H   0  0  0  0  0  0  0  0  0  0  0  0
   38.6901   28.4720   39.0926 H   0  0  0  0  0  0  0  0  0  0  0  0
   37.1721   29.3759   39.0809 H   0  0  0  0  0  0  0  0  0  0  0  0
   38.8522   30.3900   37.4797 H   0  0  0  0  0  0  0  0  0  0  0  0
   40.0086   30.6141   38.7970 H   0  0  0  0  0  0  0  0  0  0  0  0
   38.5627   32.6584   38.3165 H   0  0  0  0  0  0  0  0  0  0  0  0
   37.1302   31.6721   38.8227 H   0  0  0  0  0  0  0  0  0  0  0  0
  1  4  1  0
  1 11  1  0
  2  8  1  0
  3  2  2  0
  4  3  1  0
  5  6  1  0
  5  4  2  0
  6  7  2  0
  7  2  1  0
  8 10  1  0
  9  8  1  0
  9 10  1  0
 12 13  2  0
 14 11  1  0
 14 12  1  0
 15 12  1  0
 15 16  1  0
 17 16  1  0
 18 17  1  0
 19 20  1  0
 19 18  1  0
 20 15  1  0
  1 21  1  0
  1 22  1  0
  3 23  1  0
  6 24  1  0
  8 25  1  0
  9 26  1  0
  9 27  1  0
 10 28  1  0
 10 29  1  0
 11 30  1  0
 11 31  1  0
 14 32  1  0
 16 33  1  0
 16 34  1  0
 17 35  1  0
 17 36  1  0
 18 37  1  0
 18 38  1  0
 19 39  1  0
 19 40  1  0
 20 41  1  0
 20 42  1  0
M  ISO  8  21   8  22   8  23  14  24  14  25  13  26  13  27  13  28  13
M  ISO  8  29  13  30   8  31   8  33  13  34  13  35  13  36  13  37  13
M  ISO  5  38  13  39  13  40  13  41  13  42  13
M  END
>  <minimizedAffinity>  (1) 
-5.13124943

>  <minimizedRMSD>  (1) 
0.369764477

$$$$
