
     RDKit          3D

 30 31  0  0  0  0  0  0  0  0999 V2000
   44.5810   36.0130   44.4940 C   0  0  0  0  0  0  0  0  0  0  0  0
   45.3210   35.9050   43.3010 C   0  0  0  0  0  0  0  0  0  0  0  0
   46.1830   34.8190   43.2050 C   0  0  0  0  0  0  0  0  0  0  0  0
   46.2430   33.9640   44.2510 N   0  0  0  0  0  0  0  0  0  0  0  0
   45.5280   34.0880   45.3770 C   0  0  0  0  0  0  0  0  0  0  0  0
   44.6880   35.1260   45.4980 N   0  0  0  0  0  0  0  0  0  0  0  0
   45.6110   33.1530   46.4800 C   0  0  0  0  0  0  0  0  0  0  0  0
   44.9970   33.3140   47.5550 O   0  0  0  0  0  0  0  0  0  0  0  0
   46.3820   31.9610   46.4820 N   0  0  0  0  0  0  0  0  0  0  0  0
   46.3390   31.1480   47.6820 C   0  0  0  0  0  0  0  0  0  0  0  0
   47.8040   30.8340   48.0010 C   0  0  0  0  0  0  0  0  0  0  0  0
   48.2880   29.8810   46.9410 C   0  0  0  0  0  0  0  0  0  0  0  0
   47.5650   30.0370   45.6320 C   0  0  0  0  0  0  0  0  0  0  0  0
   47.2070   31.4900   45.3830 C   0  0  0  0  0  0  0  0  0  0  0  0
   46.9500   34.7060   41.9660 C   0  0  0  0  0  0  0  0  0  0  0  0
   47.7490   33.5650   42.0120 F   0  0  0  0  0  0  0  0  0  0  0  0
   47.8290   35.7750   41.9430 F   0  0  0  0  0  0  0  0  0  0  0  0
   46.1670   34.6370   40.8490 F   0  0  0  0  0  0  0  0  0  0  0  0
   43.8866   36.8583   44.6090 H   0  0  0  0  0  0  0  0  0  0  0  0
   45.2222   36.6404   42.4889 H   0  0  0  0  0  0  0  0  0  0  0  0
   45.8738   31.7041   48.5093 H   0  0  0  0  0  0  0  0  0  0  0  0
   45.7420   30.2349   47.5412 H   0  0  0  0  0  0  0  0  0  0  0  0
   48.4017   31.7572   47.9810 H   0  0  0  0  0  0  0  0  0  0  0  0
   47.9025   30.3912   49.0031 H   0  0  0  0  0  0  0  0  0  0  0  0
   49.3601   30.0605   46.7722 H   0  0  0  0  0  0  0  0  0  0  0  0
   48.0928   28.8610   47.3036 H   0  0  0  0  0  0  0  0  0  0  0  0
   48.2130   29.6808   44.8176 H   0  0  0  0  0  0  0  0  0  0  0  0
   46.6373   29.4472   45.6697 H   0  0  0  0  0  0  0  0  0  0  0  0
   48.1253   32.0928   45.3247 H   0  0  0  0  0  0  0  0  0  0  0  0
   46.6574   31.5835   44.4347 H   0  0  0  0  0  0  0  0  0  0  0  0
  1  6  2  0
  2  1  1  0
  3  2  2  0
  3  4  1  0
  4  5  2  0
  5  6  1  0
  5  7  1  0
  7  9  1  0
  7  8  2  0
  9 10  1  0
 10 11  1  0
 12 11  1  0
 13 12  1  0
 14 13  1  0
 14  9  1  0
 15 16  1  0
 15  3  1  0
 17 15  1  0
 18 15  1  0
  1 19  1  0
  2 20  1  0
 10 21  1  0
 10 22  1  0
 11 23  1  0
 11 24  1  0
 12 25  1  0
 12 26  1  0
 13 27  1  0
 13 28  1  0
 14 29  1  0
 14 30  1  0
M  ISO  8  19  14  20  14  21  13  22  13  23  13  24  13  25  13  26  13
M  ISO  4  27  13  28  13  29  13  30  13
M  END
>  <minimizedAffinity>  (1) 
-5.47971869

>  <minimizedRMSD>  (1) 
0.470344931

$$$$
