
     RDKit          3D

 37 39  0  0  0  0  0  0  0  0999 V2000
   44.5730   33.0930   41.2140 Br  0  0  0  0  0  0  0  0  0  0  0  0
   46.2460   33.9770   41.0220 C   0  0  0  0  0  0  0  0  0  0  0  0
   46.7880   34.7550   42.0130 C   0  0  0  0  0  0  0  0  0  0  0  0
   48.0070   35.3750   41.7670 C   0  0  0  0  0  0  0  0  0  0  0  0
   48.6940   35.2360   40.5660 C   0  0  0  0  0  0  0  0  0  0  0  0
   48.1370   34.4420   39.5610 C   0  0  0  0  0  0  0  0  0  0  0  0
   46.9210   33.8400   39.8370 C   0  0  0  0  0  0  0  0  0  0  0  0
   44.4830   35.9410   44.7610 C   0  0  0  0  0  0  0  0  0  0  0  0
   45.1640   35.8800   43.5320 C   0  0  0  0  0  0  0  0  0  0  0  0
   46.0560   34.8720   43.2600 C   0  0  0  0  0  0  0  0  0  0  0  0
   46.2060   33.9680   44.2710 N   0  0  0  0  0  0  0  0  0  0  0  0
   45.5630   34.0220   45.4360 C   0  0  0  0  0  0  0  0  0  0  0  0
   44.7080   34.9990   45.6810 N   0  0  0  0  0  0  0  0  0  0  0  0
   46.4090   33.0080   38.7740 C   0  0  0  0  0  0  0  0  0  0  0  0
   45.3360   33.3400   38.1390 O   0  0  0  0  0  0  0  0  0  0  0  0
   46.7950   31.7880   38.1580 N   0  0  0  0  0  0  0  0  0  0  0  0
   46.2050   30.6500   38.8370 C   0  0  0  0  0  0  0  0  0  0  0  0
   47.0510   29.3990   38.6730 C   0  0  0  0  0  0  0  0  0  0  0  0
   46.9920   28.8860   37.2500 C   0  0  0  0  0  0  0  0  0  0  0  0
   46.7870   30.1040   36.3780 C   0  0  0  0  0  0  0  0  0  0  0  0
   47.5820   31.2390   37.0470 C   0  0  0  0  0  0  0  0  0  0  0  0
   48.4473   36.0025   42.5559 H   0  0  0  0  0  0  0  0  0  0  0  0
   49.6582   35.7420   40.4104 H   0  0  0  0  0  0  0  0  0  0  0  0
   48.6416   34.3012   38.5938 H   0  0  0  0  0  0  0  0  0  0  0  0
   43.7724   36.7561   44.9626 H   0  0  0  0  0  0  0  0  0  0  0  0
   44.9785   36.6550   42.7737 H   0  0  0  0  0  0  0  0  0  0  0  0
   45.7446   33.2496   46.1978 H   0  0  0  0  0  0  0  0  0  0  0  0
   46.1146   30.8815   39.9085 H   0  0  0  0  0  0  0  0  0  0  0  0
   45.2179   30.4580   38.3912 H   0  0  0  0  0  0  0  0  0  0  0  0
   48.0949   29.6350   38.9272 H   0  0  0  0  0  0  0  0  0  0  0  0
   46.6576   28.6200   39.3426 H   0  0  0  0  0  0  0  0  0  0  0  0
   47.9328   28.3807   36.9862 H   0  0  0  0  0  0  0  0  0  0  0  0
   46.1815   28.1541   37.1181 H   0  0  0  0  0  0  0  0  0  0  0  0
   45.7191   30.3630   36.3271 H   0  0  0  0  0  0  0  0  0  0  0  0
   47.1271   29.9252   35.3473 H   0  0  0  0  0  0  0  0  0  0  0  0
   48.5348   30.8449   37.4302 H   0  0  0  0  0  0  0  0  0  0  0  0
   47.7867   32.0310   36.3115 H   0  0  0  0  0  0  0  0  0  0  0  0
  2  1  1  0
  2  3  2  0
  3 10  1  0
  4  3  1  0
  5  4  2  0
  6  7  2  0
  6  5  1  0
  7  2  1  0
  8 13  2  0
  9  8  1  0
 10  9  2  0
 10 11  1  0
 11 12  2  0
 12 13  1  0
 14  7  1  0
 15 14  2  0
 16 14  1  0
 16 17  1  0
 18 17  1  0
 19 18  1  0
 20 21  1  0
 20 19  1  0
 21 16  1  0
  4 22  1  0
  5 23  1  0
  6 24  1  0
  8 25  1  0
  9 26  1  0
 12 27  1  0
 17 28  1  0
 17 29  1  0
 18 30  1  0
 18 31  1  0
 19 32  1  0
 19 33  1  0
 20 34  1  0
 20 35  1  0
 21 36  1  0
 21 37  1  0
M  ISO  8  22  14  23  14  24  14  25  14  26  14  27  14  28  13  29  13
M  ISO  8  30  13  31  13  32  13  33  13  34  13  35  13  36  13  37  13
M  END
>  <minimizedAffinity>  (1) 
-5.50840521

>  <minimizedRMSD>  (1) 
1.38564241

$$$$
