
     RDKit          3D

 57 60  0  0  1  0  0  0  0  0999 V2000
   45.1460   28.7170   48.8290 C   0  0  0  0  0  0  0  0  0  0  0  0
   45.4730   27.8810   47.5850 C   0  0  0  0  0  0  0  0  0  0  0  0
   43.6920   28.4550   46.0370 C   0  0  0  0  0  0  0  0  0  0  0  0
   44.2270   27.5000   46.9170 C   0  0  0  0  0  0  0  0  0  0  0  0
   43.4730   26.3550   47.0250 C   0  0  0  0  0  0  0  0  0  0  0  0
   42.3080   26.1130   46.3640 C   0  0  0  0  0  0  0  0  0  0  0  0
   41.7980   27.0700   45.5010 C   0  0  0  0  0  0  0  0  0  0  0  0
   42.5130   28.2740   45.3340 C   0  0  0  0  0  0  0  0  0  0  0  0
   44.2280   29.6890   45.7300 O   0  0  0  0  0  0  0  0  0  0  0  0
   41.9290   29.1200   44.4780 O   0  0  0  0  0  0  0  0  0  0  0  0
   39.5670   30.9400   41.7160 N   0  0  0  0  0  0  0  0  0  0  0  0
   39.1880   29.6130   42.1400 C   0  0  0  0  0  0  0  0  0  0  0  0
   39.8630   29.1810   43.3980 C   0  0  0  0  0  0  0  0  0  0  0  0
   41.3840   29.0940   43.2350 C   0  0  0  0  0  0  0  0  0  0  0  0
   41.7700   30.4010   42.5320 C   0  0  0  0  0  0  0  0  0  0  0  0
   40.6540   31.4110   42.5570 C   0  0  0  0  0  0  0  0  0  0  0  0
   45.0350   30.0220   48.5690 O   0  0  0  0  0  0  0  0  0  0  0  0
   45.7380   32.2850   48.3510 C   0  0  2  0  0  0  0  0  0  0  0  0
   46.7630   32.3540   47.3110 C   0  0  1  0  0  0  0  0  0  0  0  0
   46.9930   30.9250   46.9750 O   0  0  0  0  0  0  0  0  0  0  0  0
   47.2850   30.4940   48.2620 C   0  0  0  0  0  0  0  0  0  0  0  0
   45.8990   30.9480   48.9940 C   0  0  2  0  0  0  0  0  0  0  0  0
   45.0440   34.7210   45.1340 C   0  0  0  0  0  0  0  0  0  0  0  0
   45.6610   34.5500   43.9010 C   0  0  0  0  0  0  0  0  0  0  0  0
   46.6880   33.5940   43.7920 C   0  0  0  0  0  0  0  0  0  0  0  0
   47.0340   32.8810   44.8880 N   0  0  0  0  0  0  0  0  0  0  0  0
   46.4230   33.0610   46.0780 C   0  0  0  0  0  0  0  0  0  0  0  0
   45.4240   33.9810   46.2130 N   0  0  0  0  0  0  0  0  0  0  0  0
   44.0190   35.6540   45.2980 O   0  0  0  0  0  0  0  0  0  0  0  0
   44.4310   32.2880   47.7060 O   0  0  0  0  0  0  0  0  0  0  0  0
   44.1936   28.3615   49.2492 H   0  0  0  0  0  0  0  0  0  0  0  0
   45.9798   28.5932   49.5357 H   0  0  0  0  0  0  0  0  0  0  0  0
   46.0928   28.4739   46.8963 H   0  0  0  0  0  0  0  0  0  0  0  0
   46.0230   26.9762   47.8831 H   0  0  0  0  0  0  0  0  0  0  0  0
   43.8418   25.5699   47.7014 H   0  0  0  0  0  0  0  0  0  0  0  0
   41.7742   25.1630   46.5140 H   0  0  0  0  0  0  0  0  0  0  0  0
   40.8572   26.8945   44.9588 H   0  0  0  0  0  0  0  0  0  0  0  0
   43.7628   30.2858   45.0916 H   0  0  0  0  0  0  0  0  0  0  0  0
   39.8762   30.9139   40.7339 H   0  0  0  0  0  0  0  0  0  0  0  0
   38.1004   29.5959   42.3036 H   0  0  0  0  0  0  0  0  0  0  0  0
   39.4986   28.9163   41.3475 H   0  0  0  0  0  0  0  0  0  0  0  0
   39.6322   29.9068   44.1917 H   0  0  0  0  0  0  0  0  0  0  0  0
   39.4917   28.1778   43.6545 H   0  0  0  0  0  0  0  0  0  0  0  0
   41.7122   28.1966   42.6901 H   0  0  0  0  0  0  0  0  0  0  0  0
   42.0232   30.1787   41.4849 H   0  0  0  0  0  0  0  0  0  0  0  0
   42.6280   30.8324   43.0684 H   0  0  0  0  0  0  0  0  0  0  0  0
   41.0218   32.3757   42.1775 H   0  0  0  0  0  0  0  0  0  0  0  0
   40.2948   31.5406   43.5886 H   0  0  0  0  0  0  0  0  0  0  0  0
   45.8244   33.1189   49.0632 H   0  0  0  0  0  0  0  0  0  0  0  0
   47.6152   32.9285   47.7031 H   0  0  0  0  0  0  0  0  0  0  0  0
   47.4406   29.4061   48.3088 H   0  0  0  0  0  0  0  0  0  0  0  0
   48.2096   30.8971   48.7009 H   0  0  0  0  0  0  0  0  0  0  0  0
   45.8125   31.0169   50.0884 H   0  0  0  0  0  0  0  0  0  0  0  0
   45.3539   35.1479   43.0303 H   0  0  0  0  0  0  0  0  0  0  0  0
   47.2002   33.4296   42.8325 H   0  0  0  0  0  0  0  0  0  0  0  0
   43.7235   36.2048   44.5303 H   0  0  0  0  0  0  0  0  0  0  0  0
   43.7220   32.2896   48.3970 H   0  0  0  0  0  0  0  0  0  0  0  0
  2  1  1  0
  3  4  2  0
  4  5  1  0
  4  2  1  0
  6  5  2  0
  7  6  1  0
  8  7  2  0
  8  3  1  0
  9  3  1  0
 10  8  1  0
 11 12  1  0
 11 16  1  0
 12 13  1  0
 14 13  1  0
 14 10  1  0
 15 16  1  0
 15 14  1  0
 17  1  1  0
 17 22  1  0
 18 22  1  0
 19 18  1  0
 20 19  1  0
 20 21  1  0
 21 22  1  0
 23 29  1  0
 23 28  2  0
 24 23  1  0
 25 24  2  0
 25 26  1  0
 26 27  2  0
 27 28  1  0
 27 19  1  0
 30 18  1  0
  1 31  1  0
  1 32  1  0
  2 33  1  0
  2 34  1  0
  5 35  1  0
  6 36  1  0
  7 37  1  0
  9 38  1  0
 11 39  1  0
 12 40  1  0
 12 41  1  0
 13 42  1  0
 13 43  1  0
 14 44  1  0
 15 45  1  0
 15 46  1  0
 16 47  1  0
 16 48  1  0
 18 49  1  1
 19 50  1  1
 21 51  1  0
 21 52  1  0
 22 53  1  1
 24 54  1  0
 25 55  1  0
 29 56  1  0
 30 57  1  0
M  ISO  8  31   8  32   8  33   8  34   8  35  14  36  14  37  14  38   3
M  ISO  8  39   5  40  13  41  13  42  13  43  13  44  13  45  13  46  13
M  ISO  8  47  13  48  13  49  13  50  13  51  13  52  13  53  13  54  14
M  ISO  3  55  14  56   3  57   3
M  END
>  <minimizedAffinity>  (1) 
-6.18363094

>  <minimizedRMSD>  (1) 
1.75203156

$$$$
