
     RDKit          3D

 33 35  0  0  0  0  0  0  0  0999 V2000
   46.3350   34.3010   43.6200 C   0  0  0  0  0  0  0  0  0  0  0  0
   45.6150   33.5970   42.6650 C   0  0  0  0  0  0  0  0  0  0  0  0
   45.1420   32.3310   42.9530 C   0  0  0  0  0  0  0  0  0  0  0  0
   45.4150   31.8180   44.2030 N   0  0  0  0  0  0  0  0  0  0  0  0
   46.1060   32.5060   45.1050 C   0  0  0  0  0  0  0  0  0  0  0  0
   46.5580   33.7270   44.8190 N   0  0  0  0  0  0  0  0  0  0  0  0
   46.3860   31.9420   46.4210 C   0  0  0  0  0  0  0  0  0  0  0  0
   45.8390   30.7660   46.8280 C   0  0  0  0  0  0  0  0  0  0  0  0
   46.0510   30.1730   48.0420 C   0  0  0  0  0  0  0  0  0  0  0  0
   46.8730   30.8410   48.8710 N   0  0  0  0  0  0  0  0  0  0  0  0
   47.4200   32.0100   48.4760 C   0  0  0  0  0  0  0  0  0  0  0  0
   47.2150   32.6040   47.2750 N   0  0  0  0  0  0  0  0  0  0  0  0
   45.3680   34.2010   41.3660 C   0  0  0  0  0  0  0  0  0  0  0  0
   46.3890   34.3910   40.6320 O   0  0  0  0  0  0  0  0  0  0  0  0
   44.0610   34.5690   40.9160 N   0  0  0  0  0  0  0  0  0  0  0  0
   43.5880   33.9310   39.7110 C   0  0  0  0  0  0  0  0  0  0  0  0
   42.2860   34.4200   39.1950 C   0  0  0  0  0  0  0  0  0  0  0  0
   41.5810   35.4350   40.0240 C   0  0  0  0  0  0  0  0  0  0  0  0
   41.8520   35.2770   41.5060 C   0  0  0  0  0  0  0  0  0  0  0  0
   43.3190   35.5420   41.6960 C   0  0  0  0  0  0  0  0  0  0  0  0
   46.7169   35.3094   43.4023 H   0  0  0  0  0  0  0  0  0  0  0  0
   44.5689   31.7540   42.2123 H   0  0  0  0  0  0  0  0  0  0  0  0
   45.1712   30.2490   46.1232 H   0  0  0  0  0  0  0  0  0  0  0  0
   45.5825   29.2176   48.3207 H   0  0  0  0  0  0  0  0  0  0  0  0
   48.0860   32.5220   49.1861 H   0  0  0  0  0  0  0  0  0  0  0  0
   44.1558   33.1343   39.2081 H   0  0  0  0  0  0  0  0  0  0  0  0
   41.8635   34.0514   38.2486 H   0  0  0  0  0  0  0  0  0  0  0  0
   41.9133   36.4359   39.7112 H   0  0  0  0  0  0  0  0  0  0  0  0
   40.5010   35.2953   39.8692 H   0  0  0  0  0  0  0  0  0  0  0  0
   41.2563   36.0008   42.0816 H   0  0  0  0  0  0  0  0  0  0  0  0
   41.5780   34.2715   41.8580 H   0  0  0  0  0  0  0  0  0  0  0  0
   43.5803   35.4435   42.7600 H   0  0  0  0  0  0  0  0  0  0  0  0
   43.5665   36.5617   41.3658 H   0  0  0  0  0  0  0  0  0  0  0  0
  1  6  2  0
  2  3  2  0
  2  1  1  0
  3  4  1  0
  4  5  2  0
  5  7  1  0
  6  5  1  0
  7  8  2  0
  7 12  1  0
  8  9  1  0
  9 10  2  0
 11 10  1  0
 12 11  2  0
 13  2  1  0
 14 13  2  0
 15 13  1  0
 15 20  1  0
 16 15  1  0
 17 16  2  0
 17 18  1  0
 18 19  1  0
 19 20  1  0
  1 21  1  0
  3 22  1  0
  8 23  1  0
  9 24  1  0
 11 25  1  0
 16 26  1  0
 17 27  1  0
 18 28  1  0
 18 29  1  0
 19 30  1  0
 19 31  1  0
 20 32  1  0
 20 33  1  0
M  ISO  8  21  14  22  14  23  14  24  14  25  14  26  13  27  13  28  13
M  ISO  5  29  13  30  13  31  13  32  13  33  13
M  END
>  <minimizedAffinity>  (1) 
-5.04010963

>  <minimizedRMSD>  (1) 
3.74059463

$$$$
