
     RDKit          3D

 41 43  0  0  1  0  0  0  0  0999 V2000
   47.6330   35.1060   41.7350 C   0  0  1  0  0  0  0  0  0  0  0  0
   49.1230   34.8320   41.5350 C   0  0  0  0  0  0  0  0  0  0  0  0
   48.1700   34.8650   40.3610 C   0  0  1  0  0  0  0  0  0  0  0  0
   46.8150   34.0120   42.3020 C   0  0  0  0  0  0  0  0  0  0  0  0
   46.0710   34.3680   43.5130 C   0  0  0  0  0  0  0  0  0  0  0  0
   45.3310   35.5130   43.3960 C   0  0  0  0  0  0  0  0  0  0  0  0
   44.5750   36.0000   44.4780 C   0  0  0  0  0  0  0  0  0  0  0  0
   44.6470   35.2410   45.6250 N   0  0  0  0  0  0  0  0  0  0  0  0
   45.3840   34.1150   45.7170 C   0  0  0  0  0  0  0  0  0  0  0  0
   46.0910   33.6810   44.6710 N   0  0  0  0  0  0  0  0  0  0  0  0
   47.8660   33.6700   39.7630 O   0  0  0  0  0  0  0  0  0  0  0  0
   48.6720   35.0320   37.6110 O   0  0  0  0  0  0  0  0  0  0  0  0
   48.2110   33.6840   38.1030 P   0  0  1  0  0  0  0  0  0  0  0  0
   49.5410   32.6170   37.8770 O   0  0  0  0  0  0  0  0  0  0  0  0
   46.9040   33.1110   37.2250 O   0  0  0  0  0  0  0  0  0  0  0  0
   45.3500   32.6480   34.1700 N   0  0  0  0  0  0  0  0  0  0  0  0
   44.9440   32.4660   35.5350 C   0  0  0  0  0  0  0  0  0  0  0  0
   45.8230   31.3790   36.1380 C   0  0  0  0  0  0  0  0  0  0  0  0
   47.1750   32.0660   36.3780 C   0  0  0  0  0  0  0  0  0  0  0  0
   47.6520   32.5030   35.0190 C   0  0  0  0  0  0  0  0  0  0  0  0
   46.6870   32.1460   33.9040 C   0  0  0  0  0  0  0  0  0  0  0  0
   47.0565   35.9032   42.2270 H   0  0  0  0  0  0  0  0  0  0  0  0
   49.8573   35.6391   41.6741 H   0  0  0  0  0  0  0  0  0  0  0  0
   49.8482   34.1089   41.9364 H   0  0  0  0  0  0  0  0  0  0  0  0
   48.1330   35.4179   39.4108 H   0  0  0  0  0  0  0  0  0  0  0  0
   46.0918   33.6930   41.5370 H   0  0  0  0  0  0  0  0  0  0  0  0
   47.5177   33.2168   42.5917 H   0  0  0  0  0  0  0  0  0  0  0  0
   45.3271   36.0607   42.4421 H   0  0  0  0  0  0  0  0  0  0  0  0
   43.9720   36.9177   44.4128 H   0  0  0  0  0  0  0  0  0  0  0  0
   45.4026   33.5502   46.6608 H   0  0  0  0  0  0  0  0  0  0  0  0
   49.8918   32.3355   38.7589 H   0  0  0  0  0  0  0  0  0  0  0  0
   44.6852   32.1503   33.5607 H   0  0  0  0  0  0  0  0  0  0  0  0
   45.0737   33.4051   36.0929 H   0  0  0  0  0  0  0  0  0  0  0  0
   43.8839   32.1771   35.5865 H   0  0  0  0  0  0  0  0  0  0  0  0
   45.3977   31.0163   37.0854 H   0  0  0  0  0  0  0  0  0  0  0  0
   45.9111   30.5007   35.4816 H   0  0  0  0  0  0  0  0  0  0  0  0
   47.9591   31.4433   36.8333 H   0  0  0  0  0  0  0  0  0  0  0  0
   47.7855   33.5948   35.0297 H   0  0  0  0  0  0  0  0  0  0  0  0
   48.5949   31.9736   34.8175 H   0  0  0  0  0  0  0  0  0  0  0  0
   46.6440   31.0512   33.8066 H   0  0  0  0  0  0  0  0  0  0  0  0
   47.0493   32.6102   32.9749 H   0  0  0  0  0  0  0  0  0  0  0  0
  1  4  1  0
  2  1  1  0
  3  2  1  0
  3  1  1  0
  4  5  1  0
  5 10  1  0
  6  5  2  0
  6  7  1  0
  7  8  2  0
  8  9  1  0
 10  9  2  0
 11  3  1  0
 13 12  2  0
 13 11  1  0
 14 13  1  0
 15 13  1  0
 16 17  1  0
 17 18  1  0
 18 19  1  0
 19 15  1  0
 20 19  1  0
 21 16  1  0
 21 20  1  0
  1 22  1  6
  2 23  1  0
  2 24  1  0
  3 25  1  6
  4 26  1  0
  4 27  1  0
  6 28  1  0
  7 29  1  0
  9 30  1  0
 14 31  1  0
 16 32  1  0
 17 33  1  0
 17 34  1  0
 18 35  1  0
 18 36  1  0
 19 37  1  0
 20 38  1  0
 20 39  1  0
 21 40  1  0
 21 41  1  0
M  ISO  8  22  13  23  13  24  13  25  13  26   8  27   8  28  14  29  14
M  ISO  8  30  14  31   3  32   5  33  13  34  13  35  13  36  13  37  13
M  ISO  4  38  13  39  13  40  13  41  13
M  END
>  <minimizedAffinity>  (1) 
-5.28363705

>  <minimizedRMSD>  (1) 
3.1859858

$$$$
