
     RDKit          3D

 47 50  0  0  0  0  0  0  0  0999 V2000
   47.9330   33.7780   42.8870 C   0  0  0  0  0  0  0  0  0  0  0  0
   48.5850   35.0000   42.6440 C   0  0  0  0  0  0  0  0  0  0  0  0
   49.9510   35.0210   42.3210 C   0  0  0  0  0  0  0  0  0  0  0  0
   50.5750   33.7940   42.2650 N   0  0  0  0  0  0  0  0  0  0  0  0
   49.9110   32.6250   42.5090 C   0  0  0  0  0  0  0  0  0  0  0  0
   48.6090   32.6330   42.8130 N   0  0  0  0  0  0  0  0  0  0  0  0
   46.5020   33.8930   43.2180 C   0  0  0  0  0  0  0  0  0  0  0  0
   45.7830   34.8810   42.4140 C   0  0  0  0  0  0  0  0  0  0  0  0
   45.3110   36.0660   43.1730 C   0  0  0  0  0  0  0  0  0  0  0  0
   44.5100   35.7080   44.4140 C   0  0  0  0  0  0  0  0  0  0  0  0
   44.9930   34.4540   45.1130 C   0  0  0  0  0  0  0  0  0  0  0  0
   46.4260   34.1550   44.7340 C   0  0  0  0  0  0  0  0  0  0  0  0
   50.7080   31.4120   42.4140 C   0  0  0  0  0  0  0  0  0  0  0  0
   50.5250   30.6470   41.3030 N   0  0  0  0  0  0  0  0  0  0  0  0
   51.3370   29.5700   41.3750 C   0  0  0  0  0  0  0  0  0  0  0  0
   52.0260   29.6770   42.5500 N   0  0  0  0  0  0  0  0  0  0  0  0
   51.6380   30.7940   43.1700 N   0  0  0  0  0  0  0  0  0  0  0  0
   55.3620   30.2180   43.5650 N   0  0  0  0  0  0  0  0  0  0  0  0
   54.7980   29.4810   44.6420 C   0  0  0  0  0  0  0  0  0  0  0  0
   53.4000   28.9970   44.4540 C   0  0  0  0  0  0  0  0  0  0  0  0
   53.0110   28.7240   43.0240 C   0  0  0  0  0  0  0  0  0  0  0  0
   54.1930   28.6180   42.0890 C   0  0  0  0  0  0  0  0  0  0  0  0
   55.2450   29.6420   42.2760 C   0  0  0  0  0  0  0  0  0  0  0  0
   48.0225   35.9432   42.7073 H   0  0  0  0  0  0  0  0  0  0  0  0
   50.4901   35.9595   42.1247 H   0  0  0  0  0  0  0  0  0  0  0  0
   45.9786   32.9597   42.9628 H   0  0  0  0  0  0  0  0  0  0  0  0
   44.9072   34.3883   41.9666 H   0  0  0  0  0  0  0  0  0  0  0  0
   46.4965   35.2534   41.6642 H   0  0  0  0  0  0  0  0  0  0  0  0
   46.1877   36.6543   43.4816 H   0  0  0  0  0  0  0  0  0  0  0  0
   44.6431   36.6329   42.5077 H   0  0  0  0  0  0  0  0  0  0  0  0
   44.5750   36.5469   45.1226 H   0  0  0  0  0  0  0  0  0  0  0  0
   43.4786   35.5139   44.0845 H   0  0  0  0  0  0  0  0  0  0  0  0
   44.9292   34.5989   46.2015 H   0  0  0  0  0  0  0  0  0  0  0  0
   44.3598   33.6088   44.8052 H   0  0  0  0  0  0  0  0  0  0  0  0
   46.7733   33.2652   45.2795 H   0  0  0  0  0  0  0  0  0  0  0  0
   47.0648   35.0117   44.9946 H   0  0  0  0  0  0  0  0  0  0  0  0
   51.4262   28.7636   40.6322 H   0  0  0  0  0  0  0  0  0  0  0  0
   54.9002   31.1383   43.5397 H   0  0  0  0  0  0  0  0  0  0  0  0
   55.4359   28.6020   44.8163 H   0  0  0  0  0  0  0  0  0  0  0  0
   54.7524   30.1853   45.4858 H   0  0  0  0  0  0  0  0  0  0  0  0
   53.2816   28.0640   45.0246 H   0  0  0  0  0  0  0  0  0  0  0  0
   52.7430   29.8070   44.8036 H   0  0  0  0  0  0  0  0  0  0  0  0
   52.5428   27.7286   43.0198 H   0  0  0  0  0  0  0  0  0  0  0  0
   53.8185   28.7008   41.0580 H   0  0  0  0  0  0  0  0  0  0  0  0
   54.6687   27.6513   42.3107 H   0  0  0  0  0  0  0  0  0  0  0  0
   56.2103   29.1738   42.0332 H   0  0  0  0  0  0  0  0  0  0  0  0
   54.9534   30.4736   41.6177 H   0  0  0  0  0  0  0  0  0  0  0  0
  1  7  1  0
  2  1  2  0
  3  2  1  0
  4  3  2  0
  4  5  1  0
  5  6  2  0
  6  1  1  0
  7 12  1  0
  8  9  1  0
  8  7  1  0
  9 10  1  0
 10 11  1  0
 12 11  1  0
 13  5  1  0
 13 17  2  0
 14 15  2  0
 14 13  1  0
 15 16  1  0
 16 21  1  0
 16 17  1  0
 18 19  1  0
 20 19  1  0
 21 20  1  0
 22 23  1  0
 22 21  1  0
 23 18  1  0
  2 24  1  0
  3 25  1  0
  7 26  1  0
  8 27  1  0
  8 28  1  0
  9 29  1  0
  9 30  1  0
 10 31  1  0
 10 32  1  0
 11 33  1  0
 11 34  1  0
 12 35  1  0
 12 36  1  0
 15 37  1  0
 18 38  1  0
 19 39  1  0
 19 40  1  0
 20 41  1  0
 20 42  1  0
 21 43  1  0
 22 44  1  0
 22 45  1  0
 23 46  1  0
 23 47  1  0
M  ISO  8  24  14  25  14  26  13  27  13  28  13  29  13  30  13  31  13
M  ISO  8  32  13  33  13  34  13  35  13  36  13  37  14  38   5  39  13
M  ISO  8  40  13  41  13  42  13  43  13  44  13  45  13  46  13  47  13
M  END
>  <minimizedAffinity>  (1) 
-4.69601631

>  <minimizedRMSD>  (1) 
1.26102257

$$$$
