
     RDKit          3D

 55 59  0  0  0  0  0  0  0  0999 V2000
   46.2990   32.9590   44.7220 C   0  0  0  0  0  0  0  0  0  0  0  0
   46.2260   33.4080   46.0380 C   0  0  0  0  0  0  0  0  0  0  0  0
   45.9650   32.5590   47.1200 C   0  0  0  0  0  0  0  0  0  0  0  0
   45.7680   31.2200   46.9240 C   0  0  0  0  0  0  0  0  0  0  0  0
   45.8290   30.7410   45.6030 C   0  0  0  0  0  0  0  0  0  0  0  0
   45.5740   29.4150   45.4400 C   0  0  0  0  0  0  0  0  0  0  0  0
   45.5530   28.9200   44.1300 C   0  0  0  0  0  0  0  0  0  0  0  0
   45.7920   29.8310   43.0480 C   0  0  0  0  0  0  0  0  0  0  0  0
   46.0340   31.1460   43.3780 C   0  0  0  0  0  0  0  0  0  0  0  0
   46.0880   31.6710   44.5910 C   0  0  0  0  0  0  0  0  0  0  0  0
   44.3900   31.9000   41.9030 C   0  0  0  0  0  0  0  0  0  0  0  0
   45.8010   31.5980   42.0200 C   0  0  0  0  0  0  0  0  0  0  0  0
   46.4000   31.6880   40.8360 C   0  0  0  0  0  0  0  0  0  0  0  0
   45.7860   32.0160   39.6440 C   0  0  0  0  0  0  0  0  0  0  0  0
   44.4500   32.2930   39.5590 C   0  0  0  0  0  0  0  0  0  0  0  0
   43.7490   32.2260   40.7290 C   0  0  0  0  0  0  0  0  0  0  0  0
   43.4400   31.9140   42.9610 O   0  0  0  0  0  0  0  0  0  0  0  0
   42.4050   32.5000   40.5850 O   0  0  0  0  0  0  0  0  0  0  0  0
   40.1110   35.7500   40.2580 N   0  0  0  0  0  0  0  0  0  0  0  0
   39.3780   34.5150   40.2100 C   0  0  0  0  0  0  0  0  0  0  0  0
   40.2370   33.3550   40.6210 C   0  0  0  0  0  0  0  0  0  0  0  0
   41.7200   33.6350   40.3140 C   0  0  0  0  0  0  0  0  0  0  0  0
   42.1820   34.8670   41.0590 C   0  0  0  0  0  0  0  0  0  0  0  0
   41.0050   35.7330   41.4110 C   0  0  0  0  0  0  0  0  0  0  0  0
   46.9860   35.3940   41.9780 C   0  0  0  0  0  0  0  0  0  0  0  0
   48.3960   35.3250   41.9410 C   0  0  0  0  0  0  0  0  0  0  0  0
   48.9870   34.4460   42.8250 C   0  0  0  0  0  0  0  0  0  0  0  0
   48.1480   33.7730   43.6070 N   0  0  0  0  0  0  0  0  0  0  0  0
   46.8220   33.8140   43.6690 C   0  0  0  0  0  0  0  0  0  0  0  0
   46.2790   34.6440   42.8280 N   0  0  0  0  0  0  0  0  0  0  0  0
   50.3880   34.2310   42.8530 N   0  0  0  0  0  0  0  0  0  0  0  0
   46.3805   34.4789   46.2365 H   0  0  0  0  0  0  0  0  0  0  0  0
   45.9179   32.9730   48.1380 H   0  0  0  0  0  0  0  0  0  0  0  0
   45.5693   30.5429   47.7679 H   0  0  0  0  0  0  0  0  0  0  0  0
   45.3915   28.7575   46.3028 H   0  0  0  0  0  0  0  0  0  0  0  0
   45.3574   27.8552   43.9350 H   0  0  0  0  0  0  0  0  0  0  0  0
   45.7824   29.4941   42.0009 H   0  0  0  0  0  0  0  0  0  0  0  0
   47.4802   31.4829   40.8037 H   0  0  0  0  0  0  0  0  0  0  0  0
   46.3944   32.0560   38.7284 H   0  0  0  0  0  0  0  0  0  0  0  0
   43.9684   32.5542   38.6051 H   0  0  0  0  0  0  0  0  0  0  0  0
   42.4934   32.1348   42.7734 H   0  0  0  0  0  0  0  0  0  0  0  0
   39.4532   36.5379   40.3438 H   0  0  0  0  0  0  0  0  0  0  0  0
   38.5171   34.5825   40.8914 H   0  0  0  0  0  0  0  0  0  0  0  0
   39.0432   34.3498   39.1753 H   0  0  0  0  0  0  0  0  0  0  0  0
   40.1187   33.1838   41.7011 H   0  0  0  0  0  0  0  0  0  0  0  0
   39.9222   32.4659   40.0550 H   0  0  0  0  0  0  0  0  0  0  0  0
   41.8991   33.8789   39.2565 H   0  0  0  0  0  0  0  0  0  0  0  0
   42.6972   34.5617   41.9817 H   0  0  0  0  0  0  0  0  0  0  0  0
   42.8684   35.4383   40.4168 H   0  0  0  0  0  0  0  0  0  0  0  0
   41.3449   36.7544   41.6375 H   0  0  0  0  0  0  0  0  0  0  0  0
   40.4860   35.3389   42.2972 H   0  0  0  0  0  0  0  0  0  0  0  0
   46.4605   36.0774   41.2948 H   0  0  0  0  0  0  0  0  0  0  0  0
   48.9896   35.9376   41.2465 H   0  0  0  0  0  0  0  0  0  0  0  0
   50.7937   33.5665   43.5274 H   0  0  0  0  0  0  0  0  0  0  0  0
   51.0002   34.7393   42.1989 H   0  0  0  0  0  0  0  0  0  0  0  0
  1  2  2  0
  2  3  1  0
  4  3  2  0
  5  4  1  0
  6  5  2  0
  7  6  1  0
  8  9  1  0
  8  7  2  0
  9 10  2  0
 10  1  1  0
 10  5  1  0
 11 12  2  0
 11 17  1  0
 12  9  1  0
 13 12  1  0
 14 13  2  0
 15 14  1  0
 15 16  2  0
 16 11  1  0
 18 16  1  0
 19 24  1  0
 20 19  1  0
 20 21  1  0
 22 18  1  0
 22 21  1  0
 22 23  1  0
 23 24  1  0
 25 30  2  0
 26 25  1  0
 26 27  2  0
 27 31  1  0
 27 28  1  0
 28 29  2  0
 29  1  1  0
 30 29  1  0
  2 32  1  0
  3 33  1  0
  4 34  1  0
  6 35  1  0
  7 36  1  0
  8 37  1  0
 13 38  1  0
 14 39  1  0
 15 40  1  0
 17 41  1  0
 19 42  1  0
 20 43  1  0
 20 44  1  0
 21 45  1  0
 21 46  1  0
 22 47  1  0
 23 48  1  0
 23 49  1  0
 24 50  1  0
 24 51  1  0
 25 52  1  0
 26 53  1  0
 31 54  1  0
 31 55  1  0
M  ISO  8  32  14  33  14  34  14  35  14  36  14  37  14  38  14  39  14
M  ISO  8  40  14  41   3  42   5  43  13  44  13  45  13  46  13  47  13
M  ISO  6  48  13  49  13  50  13  51  13  52  14  53  14
M  END
>  <minimizedAffinity>  (1) 
-6.46599579

>  <minimizedRMSD>  (1) 
3.53111696

$$$$
