
     RDKit          3D

 50 53  0  0  1  0  0  0  0  0999 V2000
   46.4720   33.8130   43.3350 C   0  0  0  0  0  0  0  0  0  0  0  0
   47.7490   33.4810   43.3180 C   0  0  0  0  0  0  0  0  0  0  0  0
   48.0640   32.3340   44.0290 C   0  0  0  0  0  0  0  0  0  0  0  0
   47.0030   31.6610   44.6840 N   0  0  0  0  0  0  0  0  0  0  0  0
   45.7580   32.0560   44.6560 C   0  0  0  0  0  0  0  0  0  0  0  0
   45.4250   33.1990   43.9480 N   0  0  0  0  0  0  0  0  0  0  0  0
   48.8500   34.2250   42.7560 C   0  0  1  0  0  0  0  0  0  0  0  0
   50.1450   33.8380   42.6830 C   0  0  0  0  0  0  0  0  0  0  0  0
   49.4200   33.6300   41.3850 C   0  0  1  0  0  0  0  0  0  0  0  0
   48.9980   32.3090   41.0810 N   0  0  0  0  0  0  0  0  0  0  0  0
   50.6860   30.0910   38.0740 N   0  0  0  0  0  0  0  0  0  0  0  0
   51.1850   30.1120   39.4390 C   0  0  0  0  0  0  0  0  0  0  0  0
   50.9310   31.5040   39.9520 C   0  0  0  0  0  0  0  0  0  0  0  0
   49.5440   32.0030   39.7520 C   0  0  1  0  0  0  0  0  0  0  0  0
   48.6350   31.0800   39.0170 C   0  0  0  0  0  0  0  0  0  0  0  0
   49.2510   30.1740   38.0190 C   0  0  0  0  0  0  0  0  0  0  0  0
   45.8640   34.9520   42.5900 C   0  0  0  0  0  0  0  0  0  0  0  0
   45.5600   36.0950   42.4250 O   0  0  0  0  0  0  0  0  0  0  0  0
   42.8290   35.2560   42.0460 Cl  0  0  0  0  0  0  0  0  0  0  0  0
   43.9210   34.4630   40.9260 C   0  0  0  0  0  0  0  0  0  0  0  0
   45.2850   34.4090   41.3020 C   0  0  0  0  0  0  0  0  0  0  0  0
   46.0240   33.7720   40.3420 C   0  0  0  0  0  0  0  0  0  0  0  0
   45.6710   33.2370   39.1930 C   0  0  0  0  0  0  0  0  0  0  0  0
   44.3260   33.3170   38.8750 C   0  0  0  0  0  0  0  0  0  0  0  0
   43.4620   33.9190   39.7220 C   0  0  0  0  0  0  0  0  0  0  0  0
   42.1530   33.9420   39.3060 O   0  0  0  0  0  0  0  0  0  0  0  0
   40.2420   34.4930   37.5990 O   0  0  0  0  0  0  0  0  0  0  0  0
   41.3160   35.1290   38.4380 P   0  0  0  0  0  0  0  0  0  0  0  0
   40.6510   36.2390   39.5340 O   0  0  0  0  0  0  0  0  0  0  0  0
   42.3540   36.0290   37.4470 O   0  0  0  0  0  0  0  0  0  0  0  0
   49.0973   31.9606   44.0828 H   0  0  0  0  0  0  0  0  0  0  0  0
   44.9823   31.4868   45.1891 H   0  0  0  0  0  0  0  0  0  0  0  0
   48.4170   35.1490   43.1666 H   0  0  0  0  0  0  0  0  0  0  0  0
   50.9285   34.6086   42.7311 H   0  0  0  0  0  0  0  0  0  0  0  0
   50.7355   33.1497   43.3056 H   0  0  0  0  0  0  0  0  0  0  0  0
   49.5392   33.9234   40.3316 H   0  0  0  0  0  0  0  0  0  0  0  0
   49.3649   31.6468   41.7794 H   0  0  0  0  0  0  0  0  0  0  0  0
   51.2900   30.0244   37.2424 H   0  0  0  0  0  0  0  0  0  0  0  0
   50.6483   29.3743   40.0536 H   0  0  0  0  0  0  0  0  0  0  0  0
   52.2539   29.8557   39.4813 H   0  0  0  0  0  0  0  0  0  0  0  0
   51.1456   31.5148   41.0308 H   0  0  0  0  0  0  0  0  0  0  0  0
   51.5850   32.1706   39.3707 H   0  0  0  0  0  0  0  0  0  0  0  0
   49.6029   32.8899   39.1040 H   0  0  0  0  0  0  0  0  0  0  0  0
   47.5516   31.0712   39.2070 H   0  0  0  0  0  0  0  0  0  0  0  0
   48.6545   29.6065   37.2895 H   0  0  0  0  0  0  0  0  0  0  0  0
   47.0972   33.6940   40.5703 H   0  0  0  0  0  0  0  0  0  0  0  0
   46.4005   32.7552   38.5254 H   0  0  0  0  0  0  0  0  0  0  0  0
   43.9595   32.8893   37.9301 H   0  0  0  0  0  0  0  0  0  0  0  0
   40.8316   35.9375   40.4595 H   0  0  0  0  0  0  0  0  0  0  0  0
   42.9688   36.5620   38.0109 H   0  0  0  0  0  0  0  0  0  0  0  0
  1  6  2  0
  2  1  1  0
  2  3  2  0
  3  4  1  0
  5  4  2  0
  6  5  1  0
  7  2  1  0
  8  7  1  0
  9  8  1  0
  9  7  1  0
 10  9  1  0
 11 12  1  0
 12 13  1  0
 14 13  1  0
 14 10  1  0
 15 14  1  0
 16 11  1  0
 16 15  2  0
 17  1  1  0
 18 17  2  0
 20 21  2  0
 20 19  1  0
 21 17  1  0
 22 21  1  0
 23 22  2  0
 24 23  1  0
 24 25  2  0
 25 20  1  0
 26 25  1  0
 27 28  2  0
 28 26  1  0
 28 29  1  0
 30 28  1  0
  3 31  1  0
  5 32  1  0
  7 33  1  6
  8 34  1  0
  8 35  1  0
  9 36  1  6
 10 37  1  0
 11 38  1  0
 12 39  1  0
 12 40  1  0
 13 41  1  0
 13 42  1  0
 14 43  1  6
 15 44  1  0
 16 45  1  0
 22 46  1  0
 23 47  1  0
 24 48  1  0
 29 49  1  0
 30 50  1  0
M  ISO  8  31  14  32  14  33  13  34  13  35  13  36  13  37   5  39  13
M  ISO  8  40  13  41  13  42  13  43  13  44  13  45  13  46  14  47  14
M  ISO  3  48  14  49   3  50   3
M  END
>  <minimizedAffinity>  (1) 
-5.21012926

>  <minimizedRMSD>  (1) 
3.63164663

$$$$
