
     RDKit          3D

 53 56  0  0  0  0  0  0  0  0999 V2000
   47.7340   31.0400   46.0230 C   0  0  0  0  0  0  0  0  0  0  0  0
   46.9830   32.0960   45.5430 C   0  0  0  0  0  0  0  0  0  0  0  0
   45.9810   32.5850   46.3280 C   0  0  0  0  0  0  0  0  0  0  0  0
   45.6860   32.0750   47.5760 C   0  0  0  0  0  0  0  0  0  0  0  0
   44.7950   32.3240   48.5680 N   0  0  0  0  0  0  0  0  0  0  0  0
   45.0020   31.4550   49.6000 C   0  0  0  0  0  0  0  0  0  0  0  0
   46.0300   30.6650   49.2380 N   0  0  0  0  0  0  0  0  0  0  0  0
   46.4500   31.0300   48.0200 C   0  0  0  0  0  0  0  0  0  0  0  0
   47.4670   30.4880   47.2900 C   0  0  0  0  0  0  0  0  0  0  0  0
   47.1710   34.4370   42.7440 C   0  0  0  0  0  0  0  0  0  0  0  0
   47.8200   33.6750   41.7410 C   0  0  0  0  0  0  0  0  0  0  0  0
   48.1760   32.3470   42.0870 C   0  0  0  0  0  0  0  0  0  0  0  0
   47.8950   31.8650   43.3140 N   0  0  0  0  0  0  0  0  0  0  0  0
   47.2680   32.6630   44.2210 C   0  0  0  0  0  0  0  0  0  0  0  0
   46.9080   33.9220   43.9590 N   0  0  0  0  0  0  0  0  0  0  0  0
   48.0670   34.3150   40.4360 C   0  0  0  0  0  0  0  0  0  0  0  0
   48.5800   35.5550   40.7330 F   0  0  0  0  0  0  0  0  0  0  0  0
   46.8840   34.4330   39.7830 F   0  0  0  0  0  0  0  0  0  0  0  0
   48.9780   33.5170   39.7380 F   0  0  0  0  0  0  0  0  0  0  0  0
   48.2170   29.4290   47.7780 O   0  0  0  0  0  0  0  0  0  0  0  0
   49.8040   28.1510   49.3760 O   0  0  0  0  0  0  0  0  0  0  0  0
   49.4650   29.5540   48.8940 P   0  0  2  0  0  0  0  0  0  0  0  0
   48.8580   30.4130   50.2390 O   0  0  0  0  0  0  0  0  0  0  0  0
   50.8330   30.3050   48.3080 O   0  0  0  0  0  0  0  0  0  0  0  0
   51.8380   30.4920   49.2330 C   0  0  0  0  0  0  0  0  0  0  0  0
   52.0820   31.9700   49.3490 C   0  0  0  0  0  0  0  0  0  0  0  0
   51.2900   32.5530   50.4110 N   0  0  0  0  0  0  0  0  0  0  0  0
   51.3800   33.9870   50.4350 C   0  0  0  0  0  0  0  0  0  0  0  0
   52.5310   34.5880   51.1400 C   0  0  0  0  0  0  0  0  0  0  0  0
   52.5030   34.0760   52.5860 C   0  0  0  0  0  0  0  0  0  0  0  0
   52.6820   32.5930   52.4610 C   0  0  0  0  0  0  0  0  0  0  0  0
   51.5410   31.9600   51.6950 C   0  0  0  0  0  0  0  0  0  0  0  0
   48.5480   30.6269   45.4092 H   0  0  0  0  0  0  0  0  0  0  0  0
   45.3800   33.4248   45.9490 H   0  0  0  0  0  0  0  0  0  0  0  0
   44.0721   33.0574   48.5459 H   0  0  0  0  0  0  0  0  0  0  0  0
   44.4386   31.4092   50.5436 H   0  0  0  0  0  0  0  0  0  0  0  0
   46.8753   35.4735   42.5243 H   0  0  0  0  0  0  0  0  0  0  0  0
   48.6840   31.7069   41.3506 H   0  0  0  0  0  0  0  0  0  0  0  0
   49.1650   29.9786   51.0739 H   0  0  0  0  0  0  0  0  0  0  0  0
   51.5306   30.0853   50.2077 H   0  0  0  0  0  0  0  0  0  0  0  0
   52.7550   29.9736   48.9161 H   0  0  0  0  0  0  0  0  0  0  0  0
   53.1476   32.1415   49.5614 H   0  0  0  0  0  0  0  0  0  0  0  0
   51.7925   32.4448   48.3999 H   0  0  0  0  0  0  0  0  0  0  0  0
   51.4166   34.3320   49.3912 H   0  0  0  0  0  0  0  0  0  0  0  0
   50.4997   34.3128   51.0086 H   0  0  0  0  0  0  0  0  0  0  0  0
   53.4697   34.2860   50.6525 H   0  0  0  0  0  0  0  0  0  0  0  0
   52.4703   35.6861   51.1160 H   0  0  0  0  0  0  0  0  0  0  0  0
   53.3222   34.5188   53.1715 H   0  0  0  0  0  0  0  0  0  0  0  0
   51.5717   34.3431   53.1070 H   0  0  0  0  0  0  0  0  0  0  0  0
   53.6244   32.3900   51.9312 H   0  0  0  0  0  0  0  0  0  0  0  0
   52.7008   32.1609   53.4724 H   0  0  0  0  0  0  0  0  0  0  0  0
   50.6273   32.0505   52.3008 H   0  0  0  0  0  0  0  0  0  0  0  0
   51.8285   30.9148   51.5084 H   0  0  0  0  0  0  0  0  0  0  0  0
  1  9  2  0
  2  1  1  0
  2  3  2  0
  3  4  1  0
  4  8  2  0
  4  5  1  0
  5  6  1  0
  7  6  2  0
  8  7  1  0
  9 20  1  0
  9  8  1  0
 10 15  2  0
 11 12  2  0
 11 10  1  0
 12 13  1  0
 13 14  2  0
 14  2  1  0
 15 14  1  0
 16 17  1  0
 16 11  1  0
 18 16  1  0
 19 16  1  0
 20 22  1  0
 22 21  2  0
 22 23  1  0
 24 22  1  0
 24 25  1  0
 25 26  1  0
 26 27  1  0
 27 28  1  0
 27 32  1  0
 28 29  1  0
 29 30  1  0
 31 30  1  0
 32 31  1  0
  1 33  1  0
  3 34  1  0
  5 35  1  0
  6 36  1  0
 10 37  1  0
 12 38  1  0
 23 39  1  0
 25 40  1  0
 25 41  1  0
 26 42  1  0
 26 43  1  0
 28 44  1  0
 28 45  1  0
 29 46  1  0
 29 47  1  0
 30 48  1  0
 30 49  1  0
 31 50  1  0
 31 51  1  0
 32 52  1  0
 32 53  1  0
M  ISO  8  33  14  34  14  35   9  36  14  37  14  38  14  39   3  40   8
M  ISO  8  41   8  42   8  43   8  44  13  45  13  46  13  47  13  48  13
M  ISO  5  49  13  50  13  51  13  52  13  53  13
M  END
>  <minimizedAffinity>  (1) 
-6.16578579

>  <minimizedRMSD>  (1) 
1.4800961

$$$$
