
     RDKit          3D

 51 54  0  0  1  0  0  0  0  0999 V2000
   47.1090   33.5420   42.8500 C   0  0  0  0  0  0  0  0  0  0  0  0
   48.2290   33.2910   43.3790 O   0  0  0  0  0  0  0  0  0  0  0  0
   46.6960   33.0440   41.5710 N   0  0  0  0  0  0  0  0  0  0  0  0
   45.4270   32.4650   41.1370 C   0  0  0  0  0  0  0  0  0  0  0  0
   44.9390   33.1880   39.8780 C   0  0  0  0  0  0  0  0  0  0  0  0
   45.9170   32.9530   38.7620 C   0  0  0  0  0  0  0  0  0  0  0  0
   47.2030   32.3990   39.2900 C   0  0  0  0  0  0  0  0  0  0  0  0
   47.6710   33.1160   40.5180 C   0  0  2  0  0  0  0  0  0  0  0  0
   45.8100   35.6100   42.9990 C   0  0  0  0  0  0  0  0  0  0  0  0
   46.1960   34.3800   43.5840 C   0  0  0  0  0  0  0  0  0  0  0  0
   45.6930   34.0340   44.8160 C   0  0  0  0  0  0  0  0  0  0  0  0
   44.8440   34.8830   45.4310 N   0  0  0  0  0  0  0  0  0  0  0  0
   44.4640   36.0670   44.8840 C   0  0  0  0  0  0  0  0  0  0  0  0
   44.9570   36.4060   43.6740 N   0  0  0  0  0  0  0  0  0  0  0  0
   46.1020   32.7760   45.4050 C   0  0  0  0  0  0  0  0  0  0  0  0
   45.6840   31.5960   44.8630 C   0  0  0  0  0  0  0  0  0  0  0  0
   46.0840   30.4120   45.4370 C   0  0  0  0  0  0  0  0  0  0  0  0
   46.9020   30.3570   46.5560 C   0  0  0  0  0  0  0  0  0  0  0  0
   47.2950   31.5750   47.0650 C   0  0  0  0  0  0  0  0  0  0  0  0
   46.8880   32.7110   46.4820 N   0  0  0  0  0  0  0  0  0  0  0  0
   48.9270   32.6470   40.9960 N   0  0  0  0  0  0  0  0  0  0  0  0
   49.6020   33.5100   41.9160 C   0  0  0  0  0  0  0  0  0  0  0  0
   51.0210   33.0320   42.1220 C   0  0  0  0  0  0  0  0  0  0  0  0
   51.0520   31.6020   42.6120 C   0  0  0  0  0  0  0  0  0  0  0  0
   49.6870   30.9590   42.6190 C   0  0  0  0  0  0  0  0  0  0  0  0
   49.0210   31.2620   41.3000 C   0  0  0  0  0  0  0  0  0  0  0  0
   45.5684   31.3970   40.9148 H   0  0  0  0  0  0  0  0  0  0  0  0
   44.6803   32.5778   41.9368 H   0  0  0  0  0  0  0  0  0  0  0  0
   43.9515   32.7985   39.5897 H   0  0  0  0  0  0  0  0  0  0  0  0
   44.8601   34.2666   40.0788 H   0  0  0  0  0  0  0  0  0  0  0  0
   46.1177   33.9065   38.2516 H   0  0  0  0  0  0  0  0  0  0  0  0
   45.4823   32.2267   38.0595 H   0  0  0  0  0  0  0  0  0  0  0  0
   47.0559   31.3369   39.5354 H   0  0  0  0  0  0  0  0  0  0  0  0
   47.9695   32.5302   38.5121 H   0  0  0  0  0  0  0  0  0  0  0  0
   47.8039   34.1649   40.2146 H   0  0  0  0  0  0  0  0  0  0  0  0
   46.1980   35.9098   42.0143 H   0  0  0  0  0  0  0  0  0  0  0  0
   43.7699   36.7347   45.4154 H   0  0  0  0  0  0  0  0  0  0  0  0
   45.0336   31.5916   43.9759 H   0  0  0  0  0  0  0  0  0  0  0  0
   45.7404   29.4677   44.9894 H   0  0  0  0  0  0  0  0  0  0  0  0
   47.2159   29.4040   47.0068 H   0  0  0  0  0  0  0  0  0  0  0  0
   47.9443   31.6154   47.9520 H   0  0  0  0  0  0  0  0  0  0  0  0
   49.6166   34.5333   41.5128 H   0  0  0  0  0  0  0  0  0  0  0  0
   49.0720   33.4981   42.8798 H   0  0  0  0  0  0  0  0  0  0  0  0
   51.5630   33.0956   41.1669 H   0  0  0  0  0  0  0  0  0  0  0  0
   51.4961   33.6702   42.8816 H   0  0  0  0  0  0  0  0  0  0  0  0
   51.7124   31.0186   41.9535 H   0  0  0  0  0  0  0  0  0  0  0  0
   51.4189   31.6140   43.6490 H   0  0  0  0  0  0  0  0  0  0  0  0
   49.7878   29.8709   42.7448 H   0  0  0  0  0  0  0  0  0  0  0  0
   49.0839   31.3527   43.4504 H   0  0  0  0  0  0  0  0  0  0  0  0
   48.0034   30.8449   41.3242 H   0  0  0  0  0  0  0  0  0  0  0  0
   49.6501   30.8104   40.5188 H   0  0  0  0  0  0  0  0  0  0  0  0
  1  2  2  0
  1 10  1  0
  3  1  1  0
  4  3  1  0
  5  4  1  0
  6  7  1  0
  6  5  1  0
  7  8  1  0
  8 21  1  0
  8  3  1  0
  9 10  2  0
  9 14  1  0
 10 11  1  0
 11 15  1  0
 11 12  2  0
 13 12  1  0
 14 13  2  0
 15 20  1  0
 16 15  2  0
 16 17  1  0
 17 18  2  0
 18 19  1  0
 20 19  2  0
 21 26  1  0
 21 22  1  0
 22 23  1  0
 23 24  1  0
 24 25  1  0
 26 25  1  0
  4 27  1  0
  4 28  1  0
  5 29  1  0
  5 30  1  0
  6 31  1  0
  6 32  1  0
  7 33  1  0
  7 34  1  0
  8 35  1  6
  9 36  1  0
 13 37  1  0
 16 38  1  0
 17 39  1  0
 18 40  1  0
 19 41  1  0
 22 42  1  0
 22 43  1  0
 23 44  1  0
 23 45  1  0
 24 46  1  0
 24 47  1  0
 25 48  1  0
 25 49  1  0
 26 50  1  0
 26 51  1  0
M  ISO  8  27  13  28  13  29  13  30  13  31  13  32  13  33  13  34  13
M  ISO  8  35  13  36  14  37  14  38  14  39  14  40  14  41  14  42  13
M  ISO  8  43  13  44  13  45  13  46  13  47  13  48  13  49  13  50  13
M  ISO  1  51  13
M  END
>  <minimizedAffinity>  (1) 
-5.6942358

>  <minimizedRMSD>  (1) 
0.575482368

$$$$
