
     RDKit          3D

 50 53  0  0  1  0  0  0  0  0999 V2000
   46.4480   31.5370   46.3470 N   0  0  0  0  0  0  0  0  0  0  0  0
   46.3950   32.3950   47.4660 C   0  0  0  0  0  0  0  0  0  0  0  0
   47.6870   32.3560   48.2840 C   0  0  0  0  0  0  0  0  0  0  0  0
   47.7520   30.9670   48.8780 C   0  0  0  0  0  0  0  0  0  0  0  0
   47.8740   30.0260   47.6960 C   0  0  0  0  0  0  0  0  0  0  0  0
   46.8360   30.2220   46.6440 C   0  0  1  0  0  0  0  0  0  0  0  0
   45.5970   29.4870   46.9440 N   0  0  0  0  0  0  0  0  0  0  0  0
   44.8920   29.2490   45.7150 C   0  0  0  0  0  0  0  0  0  0  0  0
   45.1220   27.8800   45.1300 C   0  0  0  0  0  0  0  0  0  0  0  0
   44.3440   26.9110   46.0110 C   0  0  0  0  0  0  0  0  0  0  0  0
   44.5800   27.3960   47.4380 C   0  0  0  0  0  0  0  0  0  0  0  0
   45.8620   28.2010   47.5540 C   0  0  0  0  0  0  0  0  0  0  0  0
   46.9180   32.1290   45.1310 C   0  0  0  0  0  0  0  0  0  0  0  0
   46.5020   34.2900   43.7270 C   0  0  1  0  0  0  0  0  0  0  0  0
   45.2450   33.6740   43.9420 C   0  0  0  0  0  0  0  0  0  0  0  0
   46.2650   33.4570   45.0040 C   0  0  1  0  0  0  0  0  0  0  0  0
   47.1440   32.9270   41.7380 C   0  0  0  0  0  0  0  0  0  0  0  0
   47.5510   33.7980   42.7880 C   0  0  0  0  0  0  0  0  0  0  0  0
   48.8730   34.1470   42.9030 C   0  0  0  0  0  0  0  0  0  0  0  0
   49.7450   33.6310   41.9830 N   0  0  0  0  0  0  0  0  0  0  0  0
   49.3360   32.7970   40.9830 C   0  0  0  0  0  0  0  0  0  0  0  0
   48.0260   32.4290   40.8410 N   0  0  0  0  0  0  0  0  0  0  0  0
   46.2280   33.4243   47.1159 H   0  0  0  0  0  0  0  0  0  0  0  0
   45.5738   32.0552   48.1142 H   0  0  0  0  0  0  0  0  0  0  0  0
   48.5571   32.5373   47.6359 H   0  0  0  0  0  0  0  0  0  0  0  0
   47.6983   33.1323   49.0633 H   0  0  0  0  0  0  0  0  0  0  0  0
   48.6273   30.8715   49.5373 H   0  0  0  0  0  0  0  0  0  0  0  0
   46.8649   30.7424   49.4884 H   0  0  0  0  0  0  0  0  0  0  0  0
   48.8622   30.1765   47.2368 H   0  0  0  0  0  0  0  0  0  0  0  0
   47.7348   29.0081   48.0890 H   0  0  0  0  0  0  0  0  0  0  0  0
   47.3692   29.8352   45.7630 H   0  0  0  0  0  0  0  0  0  0  0  0
   43.8151   29.3667   45.9060 H   0  0  0  0  0  0  0  0  0  0  0  0
   45.2753   29.9754   44.9833 H   0  0  0  0  0  0  0  0  0  0  0  0
   44.7501   27.8390   44.0956 H   0  0  0  0  0  0  0  0  0  0  0  0
   46.1925   27.6284   45.1019 H   0  0  0  0  0  0  0  0  0  0  0  0
   43.2722   26.9406   45.7651 H   0  0  0  0  0  0  0  0  0  0  0  0
   44.6716   25.8705   45.8693 H   0  0  0  0  0  0  0  0  0  0  0  0
   43.7334   28.0282   47.7440 H   0  0  0  0  0  0  0  0  0  0  0  0
   44.6696   26.5139   48.0890 H   0  0  0  0  0  0  0  0  0  0  0  0
   46.6802   27.6908   47.0247 H   0  0  0  0  0  0  0  0  0  0  0  0
   46.1665   28.3146   48.6049 H   0  0  0  0  0  0  0  0  0  0  0  0
   48.0108   32.2491   45.1688 H   0  0  0  0  0  0  0  0  0  0  0  0
   46.6742   31.4915   44.2683 H   0  0  0  0  0  0  0  0  0  0  0  0
   46.7689   35.3207   43.4506 H   0  0  0  0  0  0  0  0  0  0  0  0
   44.3680   34.3017   44.1583 H   0  0  0  0  0  0  0  0  0  0  0  0
   44.6286   32.9907   43.3393 H   0  0  0  0  0  0  0  0  0  0  0  0
   46.3337   33.6126   46.0908 H   0  0  0  0  0  0  0  0  0  0  0  0
   46.0825   32.6511   41.6536 H   0  0  0  0  0  0  0  0  0  0  0  0
   49.2189   34.8163   43.7045 H   0  0  0  0  0  0  0  0  0  0  0  0
   50.0803   32.4100   40.2715 H   0  0  0  0  0  0  0  0  0  0  0  0
  1  6  1  0
  1  2  1  0
  2  3  1  0
  3  4  1  0
  5  4  1  0
  6  7  1  0
  6  5  1  0
  7 12  1  0
  8  7  1  0
  9  8  1  0
  9 10  1  0
 10 11  1  0
 11 12  1  0
 13  1  1  0
 14 15  1  0
 14 16  1  0
 15 16  1  0
 16 13  1  0
 17 18  2  0
 18 19  1  0
 18 14  1  0
 20 19  2  0
 21 20  1  0
 22 21  2  0
 22 17  1  0
  2 23  1  0
  2 24  1  0
  3 25  1  0
  3 26  1  0
  4 27  1  0
  4 28  1  0
  5 29  1  0
  5 30  1  0
  6 31  1  6
  8 32  1  0
  8 33  1  0
  9 34  1  0
  9 35  1  0
 10 36  1  0
 10 37  1  0
 11 38  1  0
 11 39  1  0
 12 40  1  0
 12 41  1  0
 13 42  1  0
 13 43  1  0
 14 44  1  1
 15 45  1  0
 15 46  1  0
 16 47  1  1
 17 48  1  0
 19 49  1  0
 21 50  1  0
M  ISO  8  23  13  24  13  25  13  26  13  27  13  28  13  29  13  30  13
M  ISO  8  31  13  32  13  33  13  34  13  35  13  36  13  37  13  38  13
M  ISO  8  39  13  40  13  41  13  42   8  43   8  44  13  45  13  46  13
M  ISO  4  47  13  48  14  49  14  50  14
M  END
>  <minimizedAffinity>  (1) 
-4.53884411

>  <minimizedRMSD>  (1) 
2.2993753

$$$$
