
     RDKit          3D

 38 41  0  0  0  0  0  0  0  0999 V2000
   47.2820   31.3920   45.1520 C   0  0  0  0  0  0  0  0  0  0  0  0
   46.8710   32.7220   45.1450 C   0  0  0  0  0  0  0  0  0  0  0  0
   46.2330   33.3200   46.2110 C   0  0  0  0  0  0  0  0  0  0  0  0
   45.9740   32.5790   47.3650 C   0  0  0  0  0  0  0  0  0  0  0  0
   45.3910   32.8140   48.5680 N   0  0  0  0  0  0  0  0  0  0  0  0
   45.4310   31.6780   49.3060 C   0  0  0  0  0  0  0  0  0  0  0  0
   46.0430   30.7500   48.5440 N   0  0  0  0  0  0  0  0  0  0  0  0
   46.3870   31.2700   47.3530 C   0  0  0  0  0  0  0  0  0  0  0  0
   47.0270   30.6460   46.3010 C   0  0  0  0  0  0  0  0  0  0  0  0
   46.4650   35.1980   42.4540 C   0  0  0  0  0  0  0  0  0  0  0  0
   47.6550   35.0250   41.7120 C   0  0  0  0  0  0  0  0  0  0  0  0
   48.5830   34.0670   42.1370 C   0  0  0  0  0  0  0  0  0  0  0  0
   48.2460   33.3670   43.2580 N   0  0  0  0  0  0  0  0  0  0  0  0
   47.1210   33.5330   43.9570 C   0  0  0  0  0  0  0  0  0  0  0  0
   46.2310   34.4460   43.5570 N   0  0  0  0  0  0  0  0  0  0  0  0
   47.4540   29.3100   46.2770 N   0  0  0  0  0  0  0  0  0  0  0  0
   48.6950   28.6780   46.6960 C   0  0  0  0  0  0  0  0  0  0  0  0
   48.3090   27.5230   47.6090 C   0  0  0  0  0  0  0  0  0  0  0  0
   47.4250   26.5430   46.9140 C   0  0  0  0  0  0  0  0  0  0  0  0
   46.9870   27.0240   45.5490 C   0  0  0  0  0  0  0  0  0  0  0  0
   46.4270   28.4310   45.7220 C   0  0  0  0  0  0  0  0  0  0  0  0
   47.7890   30.9467   44.2833 H   0  0  0  0  0  0  0  0  0  0  0  0
   45.9297   34.3757   46.1522 H   0  0  0  0  0  0  0  0  0  0  0  0
   44.9841   33.7104   48.8709 H   0  0  0  0  0  0  0  0  0  0  0  0
   45.0411   31.5406   50.3253 H   0  0  0  0  0  0  0  0  0  0  0  0
   45.7249   35.9466   42.1349 H   0  0  0  0  0  0  0  0  0  0  0  0
   47.8488   35.6327   40.8158 H   0  0  0  0  0  0  0  0  0  0  0  0
   49.5263   33.8896   41.5997 H   0  0  0  0  0  0  0  0  0  0  0  0
   49.2439   28.3021   45.8200 H   0  0  0  0  0  0  0  0  0  0  0  0
   49.3482   29.3937   47.2167 H   0  0  0  0  0  0  0  0  0  0  0  0
   49.2234   27.0076   47.9381 H   0  0  0  0  0  0  0  0  0  0  0  0
   47.7577   27.9337   48.4677 H   0  0  0  0  0  0  0  0  0  0  0  0
   47.9726   25.5964   46.7954 H   0  0  0  0  0  0  0  0  0  0  0  0
   46.5217   26.4138   47.5283 H   0  0  0  0  0  0  0  0  0  0  0  0
   46.2107   26.3569   45.1461 H   0  0  0  0  0  0  0  0  0  0  0  0
   47.8336   27.0256   44.8467 H   0  0  0  0  0  0  0  0  0  0  0  0
   46.1050   28.8183   44.7441 H   0  0  0  0  0  0  0  0  0  0  0  0
   45.5689   28.3974   46.4094 H   0  0  0  0  0  0  0  0  0  0  0  0
  1  9  2  0
  2  1  1  0
  2  3  2  0
  3  4  1  0
  4  5  1  0
  5  6  1  0
  7  6  2  0
  8  4  2  0
  8  7  1  0
  9  8  1  0
 10 15  2  0
 11 12  2  0
 11 10  1  0
 12 13  1  0
 13 14  2  0
 14  2  1  0
 15 14  1  0
 16  9  1  0
 16 17  1  0
 17 18  1  0
 19 18  1  0
 20 21  1  0
 20 19  1  0
 21 16  1  0
  1 22  1  0
  3 23  1  0
  5 24  1  0
  6 25  1  0
 10 26  1  0
 11 27  1  0
 12 28  1  0
 17 29  1  0
 17 30  1  0
 18 31  1  0
 18 32  1  0
 19 33  1  0
 19 34  1  0
 20 35  1  0
 20 36  1  0
 21 37  1  0
 21 38  1  0
M  ISO  8  22  14  23  14  24   9  25  14  26  14  27  14  28  14  29  13
M  ISO  8  30  13  31  13  32  13  33  13  34  13  35  13  36  13  37  13
M  ISO  1  38  13
M  END
>  <minimizedAffinity>  (1) 
-5.22703791

>  <minimizedRMSD>  (1) 
0.889054418

$$$$
