
     RDKit          3D

 38 40  0  0  1  0  0  0  0  0999 V2000
   47.2940   34.2590   41.6310 N   0  0  0  0  0  0  0  0  0  0  0  0
   47.6620   34.3290   40.2530 C   0  0  0  0  0  0  0  0  0  0  0  0
   48.8080   35.3000   40.2880 C   0  0  0  0  0  0  0  0  0  0  0  0
   49.0820   35.6860   41.7180 C   0  0  0  0  0  0  0  0  0  0  0  0
   48.3360   34.5750   42.4910 C   0  0  2  0  0  0  0  0  0  0  0  0
   49.1410   33.4450   42.7810 N   0  0  0  0  0  0  0  0  0  0  0  0
   48.5350   32.1810   42.8860 C   0  0  0  0  0  0  0  0  0  0  0  0
   49.5960   31.0740   42.8220 C   0  0  0  0  0  0  0  0  0  0  0  0
   50.4030   31.1990   41.5450 C   0  0  0  0  0  0  0  0  0  0  0  0
   50.9970   32.5640   41.4040 C   0  0  0  0  0  0  0  0  0  0  0  0
   50.5150   33.5150   42.4460 C   0  0  0  0  0  0  0  0  0  0  0  0
   46.0030   34.0050   41.9750 C   0  0  0  0  0  0  0  0  0  0  0  0
   44.4970   36.1750   44.6670 C   0  0  0  0  0  0  0  0  0  0  0  0
   44.9540   35.7940   43.3730 C   0  0  0  0  0  0  0  0  0  0  0  0
   45.5380   34.5510   43.2410 C   0  0  0  0  0  0  0  0  0  0  0  0
   45.6510   33.7650   44.3340 N   0  0  0  0  0  0  0  0  0  0  0  0
   45.2060   34.1440   45.5810 C   0  0  0  0  0  0  0  0  0  0  0  0
   44.6340   35.3440   45.7310 N   0  0  0  0  0  0  0  0  0  0  0  0
   47.2212   33.8077   39.3905 H   0  0  0  0  0  0  0  0  0  0  0  0
   49.3585   35.6696   39.4103 H   0  0  0  0  0  0  0  0  0  0  0  0
   50.1598   35.6727   41.9374 H   0  0  0  0  0  0  0  0  0  0  0  0
   48.7567   36.7047   41.9756 H   0  0  0  0  0  0  0  0  0  0  0  0
   48.0098   34.9081   43.4873 H   0  0  0  0  0  0  0  0  0  0  0  0
   47.9985   32.1144   43.8440 H   0  0  0  0  0  0  0  0  0  0  0  0
   47.8318   32.0511   42.0501 H   0  0  0  0  0  0  0  0  0  0  0  0
   50.2686   31.1643   43.6877 H   0  0  0  0  0  0  0  0  0  0  0  0
   49.0956   30.0945   42.8372 H   0  0  0  0  0  0  0  0  0  0  0  0
   51.2140   30.4560   41.5604 H   0  0  0  0  0  0  0  0  0  0  0  0
   49.7296   31.0257   40.6926 H   0  0  0  0  0  0  0  0  0  0  0  0
   52.0910   32.4810   41.4832 H   0  0  0  0  0  0  0  0  0  0  0  0
   50.6872   32.9602   40.4257 H   0  0  0  0  0  0  0  0  0  0  0  0
   51.0922   33.3259   43.3631 H   0  0  0  0  0  0  0  0  0  0  0  0
   50.6575   34.5162   42.0133 H   0  0  0  0  0  0  0  0  0  0  0  0
   45.3611   34.4145   41.1811 H   0  0  0  0  0  0  0  0  0  0  0  0
   45.9490   32.9131   42.0973 H   0  0  0  0  0  0  0  0  0  0  0  0
   44.0253   37.1589   44.8062 H   0  0  0  0  0  0  0  0  0  0  0  0
   44.8452   36.4668   42.5096 H   0  0  0  0  0  0  0  0  0  0  0  0
   45.3194   33.4690   46.4421 H   0  0  0  0  0  0  0  0  0  0  0  0
  1 12  1  0
  1  5  1  0
  2  3  2  0
  2  1  1  0
  3  4  1  0
  4  5  1  0
  5  6  1  0
  6  7  1  0
  8  7  1  0
  9  8  1  0
 10  9  1  0
 10 11  1  0
 11  6  1  0
 12 15  1  0
 13 18  2  0
 14 13  1  0
 15 14  2  0
 15 16  1  0
 16 17  2  0
 17 18  1  0
  2 19  1  0
  3 20  1  0
  4 21  1  0
  4 22  1  0
  5 23  1  1
  7 24  1  0
  7 25  1  0
  8 26  1  0
  8 27  1  0
  9 28  1  0
  9 29  1  0
 10 30  1  0
 10 31  1  0
 11 32  1  0
 11 33  1  0
 12 34  1  0
 12 35  1  0
 13 36  1  0
 14 37  1  0
 17 38  1  0
M  ISO  8  19  13  20  13  21  13  22  13  23  13  24  13  25  13  26  13
M  ISO  8  27  13  28  13  29  13  30  13  31  13  32  13  33  13  34   8
M  ISO  4  35   8  36  14  37  14  38  14
M  END
>  <minimizedAffinity>  (1) 
-5.14866257

>  <minimizedRMSD>  (1) 
1.50513279

$$$$
