
     RDKit          3D

 26 27  0  0  0  0  0  0  0  0999 V2000
   47.1880   33.3780   43.5400 C   0  0  0  0  0  0  0  0  0  0  0  0
   47.4140   32.1540   42.9130 C   0  0  0  0  0  0  0  0  0  0  0  0
   47.3470   30.9900   43.7180 C   0  0  0  0  0  0  0  0  0  0  0  0
   47.0690   31.1340   45.0330 N   0  0  0  0  0  0  0  0  0  0  0  0
   46.8570   32.3450   45.5940 C   0  0  0  0  0  0  0  0  0  0  0  0
   46.9130   33.4710   44.8650 N   0  0  0  0  0  0  0  0  0  0  0  0
   46.5680   32.4450   46.9860 N   0  0  0  0  0  0  0  0  0  0  0  0
   47.5680   32.2820   48.0250 C   0  0  0  0  0  0  0  0  0  0  0  0
   47.1520   31.2190   49.0190 C   0  0  0  0  0  0  0  0  0  0  0  0
   45.7430   31.4420   49.4910 C   0  0  0  0  0  0  0  0  0  0  0  0
   44.8410   31.4830   48.2730 C   0  0  0  0  0  0  0  0  0  0  0  0
   45.2210   32.7220   47.4520 C   0  0  0  0  0  0  0  0  0  0  0  0
   47.2950   34.8010   42.4400 S   0  0  0  0  0  0  0  0  0  0  0  0
   47.6353   32.0941   41.8372 H   0  0  0  0  0  0  0  0  0  0  0  0
   47.5170   29.9938   43.2837 H   0  0  0  0  0  0  0  0  0  0  0  0
   48.5219   31.9881   47.5627 H   0  0  0  0  0  0  0  0  0  0  0  0
   47.6758   33.2374   48.5594 H   0  0  0  0  0  0  0  0  0  0  0  0
   47.2179   30.2319   48.5381 H   0  0  0  0  0  0  0  0  0  0  0  0
   47.8242   31.2710   49.8882 H   0  0  0  0  0  0  0  0  0  0  0  0
   45.4371   30.6196   50.1544 H   0  0  0  0  0  0  0  0  0  0  0  0
   45.6727   32.3867   50.0502 H   0  0  0  0  0  0  0  0  0  0  0  0
   44.9854   30.5749   47.6693 H   0  0  0  0  0  0  0  0  0  0  0  0
   43.7851   31.5318   48.5773 H   0  0  0  0  0  0  0  0  0  0  0  0
   45.2039   33.6254   48.0794 H   0  0  0  0  0  0  0  0  0  0  0  0
   44.5204   32.9088   46.6248 H   0  0  0  0  0  0  0  0  0  0  0  0
   47.3812   35.9480   43.1842 H   0  0  0  0  0  0  0  0  0  0  0  0
  1  6  2  0
  2  1  1  0
  2  3  2  0
  3  4  1  0
  4  5  2  0
  5  7  1  0
  6  5  1  0
  7 12  1  0
  7  8  1  0
  8  9  1  0
  9 10  1  0
 11 10  1  0
 12 11  1  0
 13  1  1  0
  2 14  1  0
  3 15  1  0
  8 16  1  0
  8 17  1  0
  9 18  1  0
  9 19  1  0
 10 20  1  0
 10 21  1  0
 11 22  1  0
 11 23  1  0
 12 24  1  0
 12 25  1  0
 13 26  1  0
M  ISO  8  14  14  15  14  16  13  17  13  18  13  19  13  20  13  21  13
M  ISO  5  22  13  23  13  24  13  25  13  26  11
M  END
>  <minimizedAffinity>  (1) 
-4.02242708

>  <minimizedRMSD>  (1) 
2.01622653

$$$$
