
     RDKit          3D

 54 57  0  0  1  0  0  0  0  0999 V2000
   46.1000   30.4810   47.4510 C   0  0  2  0  0  0  0  0  0  0  0  0
   44.8500   31.1520   47.9960 C   0  0  0  0  0  0  0  0  0  0  0  0
   45.4540   31.6700   49.3000 C   0  0  0  0  0  0  0  0  0  0  0  0
   46.7000   32.1240   48.9470 O   0  0  0  0  0  0  0  0  0  0  0  0
   47.1100   31.5210   47.8000 C   0  0  1  0  0  0  0  0  0  0  0  0
   48.4560   30.9060   48.0330 C   0  0  1  0  0  0  0  0  0  0  0  0
   49.0840   31.4010   49.3290 C   0  0  0  0  0  0  0  0  0  0  0  0
   49.6610   30.1290   49.8970 C   0  0  0  0  0  0  0  0  0  0  0  0
   49.6290   29.1920   48.8660 O   0  0  0  0  0  0  0  0  0  0  0  0
   48.3560   29.4160   48.3360 C   0  0  0  0  0  0  0  0  0  0  0  0
   45.9940   30.1600   45.9970 C   0  0  0  0  0  0  0  0  0  0  0  0
   47.3020   30.9400   44.0910 C   0  0  0  0  0  0  0  0  0  0  0  0
   46.5730   31.2220   45.1300 C   0  0  0  0  0  0  0  0  0  0  0  0
   48.3390   34.2170   42.8670 C   0  0  0  0  0  0  0  0  0  0  0  0
   48.9400   33.9080   41.6080 C   0  0  0  0  0  0  0  0  0  0  0  0
   48.9550   32.5620   41.2430 C   0  0  0  0  0  0  0  0  0  0  0  0
   48.4150   31.6480   42.0780 N   0  0  0  0  0  0  0  0  0  0  0  0
   47.8550   31.9720   43.2610 C   0  0  0  0  0  0  0  0  0  0  0  0
   47.8080   33.2430   43.6700 N   0  0  0  0  0  0  0  0  0  0  0  0
   49.5260   32.1750   40.0230 N   0  0  0  0  0  0  0  0  0  0  0  0
   50.7400   31.3830   39.9990 C   0  0  0  0  0  0  0  0  0  0  0  0
   51.3420   31.5530   38.6040 C   0  0  0  0  0  0  0  0  0  0  0  0
   50.3800   30.8680   37.6400 C   0  0  0  0  0  0  0  0  0  0  0  0
   49.0030   31.4390   37.7740 C   0  0  0  0  0  0  0  0  0  0  0  0
   48.9080   32.5630   38.7710 C   0  0  0  0  0  0  0  0  0  0  0  0
   46.3325   29.4872   47.8612 H   0  0  0  0  0  0  0  0  0  0  0  0
   44.4947   31.9658   47.3468 H   0  0  0  0  0  0  0  0  0  0  0  0
   43.9574   30.5162   48.0909 H   0  0  0  0  0  0  0  0  0  0  0  0
   44.8449   32.4879   49.7123 H   0  0  0  0  0  0  0  0  0  0  0  0
   45.4975   30.8932   50.0776 H   0  0  0  0  0  0  0  0  0  0  0  0
   47.1971   32.2398   46.9719 H   0  0  0  0  0  0  0  0  0  0  0  0
   49.0188   31.1531   47.1207 H   0  0  0  0  0  0  0  0  0  0  0  0
   49.8700   32.1456   49.1345 H   0  0  0  0  0  0  0  0  0  0  0  0
   48.3769   31.9088   50.0014 H   0  0  0  0  0  0  0  0  0  0  0  0
   50.6965   30.2952   50.2290 H   0  0  0  0  0  0  0  0  0  0  0  0
   49.0872   29.7838   50.7697 H   0  0  0  0  0  0  0  0  0  0  0  0
   47.5646   29.2004   49.0689 H   0  0  0  0  0  0  0  0  0  0  0  0
   48.0942   28.7839   47.4747 H   0  0  0  0  0  0  0  0  0  0  0  0
   46.5291   29.2183   45.8047 H   0  0  0  0  0  0  0  0  0  0  0  0
   44.9247   30.0780   45.7523 H   0  0  0  0  0  0  0  0  0  0  0  0
   47.4993   29.8868   43.8425 H   0  0  0  0  0  0  0  0  0  0  0  0
   46.3785   32.2765   45.3754 H   0  0  0  0  0  0  0  0  0  0  0  0
   48.3019   35.2647   43.2000 H   0  0  0  0  0  0  0  0  0  0  0  0
   49.3675   34.6890   40.9620 H   0  0  0  0  0  0  0  0  0  0  0  0
   51.4442   31.7437   40.7632 H   0  0  0  0  0  0  0  0  0  0  0  0
   50.5291   30.3252   40.2149 H   0  0  0  0  0  0  0  0  0  0  0  0
   51.4346   32.6207   38.3561 H   0  0  0  0  0  0  0  0  0  0  0  0
   52.3489   31.1140   38.5454 H   0  0  0  0  0  0  0  0  0  0  0  0
   50.3483   29.7917   37.8649 H   0  0  0  0  0  0  0  0  0  0  0  0
   50.7329   31.0319   36.6111 H   0  0  0  0  0  0  0  0  0  0  0  0
   48.6876   31.8191   36.7911 H   0  0  0  0  0  0  0  0  0  0  0  0
   48.3537   30.6297   38.1393 H   0  0  0  0  0  0  0  0  0  0  0  0
   49.4233   33.4485   38.3705 H   0  0  0  0  0  0  0  0  0  0  0  0
   47.8478   32.7947   38.9507 H   0  0  0  0  0  0  0  0  0  0  0  0
  1  5  1  0
  1  2  1  0
  2  3  1  0
  4  3  1  0
  5  6  1  0
  5  4  1  0
  6 10  1  0
  6  7  1  0
  7  8  1  0
  9  8  1  0
 10  9  1  0
 11  1  1  0
 12 13  2  0
 13 11  1  0
 14 19  2  0
 15 14  1  0
 16 15  2  0
 16 17  1  0
 17 18  2  0
 18 19  1  0
 18 12  1  0
 20 16  1  0
 21 20  1  0
 22 21  1  0
 23 24  1  0
 23 22  1  0
 24 25  1  0
 25 20  1  0
  1 26  1  1
  2 27  1  0
  2 28  1  0
  3 29  1  0
  3 30  1  0
  5 31  1  6
  6 32  1  6
  7 33  1  0
  7 34  1  0
  8 35  1  0
  8 36  1  0
 10 37  1  0
 10 38  1  0
 11 39  1  0
 11 40  1  0
 12 41  1  0
 13 42  1  0
 14 43  1  0
 15 44  1  0
 21 45  1  0
 21 46  1  0
 22 47  1  0
 22 48  1  0
 23 49  1  0
 23 50  1  0
 24 51  1  0
 24 52  1  0
 25 53  1  0
 25 54  1  0
M  ISO  8  26  13  27  13  28  13  29  13  30  13  31  13  32  13  33  13
M  ISO  8  34  13  35  13  36  13  37  13  38  13  39   8  40   8  43  14
M  ISO  8  44  14  45  13  46  13  47  13  48  13  49  13  50  13  51  13
M  ISO  3  52  13  53  13  54  13
M  END
>  <minimizedAffinity>  (1) 
-4.64854383

>  <minimizedRMSD>  (1) 
2.52513409

$$$$
