
     RDKit          3D

 35 37  0  0  0  0  0  0  0  0999 V2000
   46.0820   32.7240   47.0610 C   0  0  0  0  0  0  0  0  0  0  0  0
   47.3240   32.2470   47.4180 C   0  0  0  0  0  0  0  0  0  0  0  0
   47.4950   31.4460   48.5450 C   0  0  0  0  0  0  0  0  0  0  0  0
   46.4190   31.1140   49.3270 C   0  0  0  0  0  0  0  0  0  0  0  0
   45.1820   31.5780   48.9880 C   0  0  0  0  0  0  0  0  0  0  0  0
   45.0070   32.3740   47.8680 C   0  0  0  0  0  0  0  0  0  0  0  0
   44.7300   35.3310   44.8640 C   0  0  0  0  0  0  0  0  0  0  0  0
   45.5000   35.1920   43.6910 C   0  0  0  0  0  0  0  0  0  0  0  0
   46.4810   34.1980   43.6660 C   0  0  0  0  0  0  0  0  0  0  0  0
   46.6500   33.4160   44.7610 N   0  0  0  0  0  0  0  0  0  0  0  0
   45.9030   33.5650   45.8760 C   0  0  0  0  0  0  0  0  0  0  0  0
   44.9590   34.5190   45.9040 N   0  0  0  0  0  0  0  0  0  0  0  0
   48.7910   30.9630   48.8950 N   0  0  0  0  0  0  0  0  0  0  0  0
   49.7340   31.8360   49.5590 C   0  0  0  0  0  0  0  0  0  0  0  0
   51.1720   31.3940   49.3970 C   0  0  0  0  0  0  0  0  0  0  0  0
   51.3750   29.9690   49.8530 C   0  0  0  0  0  0  0  0  0  0  0  0
   50.0900   29.1720   49.7910 C   0  0  0  0  0  0  0  0  0  0  0  0
   49.2280   29.6110   48.6190 C   0  0  0  0  0  0  0  0  0  0  0  0
   48.1979   32.5036   46.8012 H   0  0  0  0  0  0  0  0  0  0  0  0
   46.5516   30.4812   50.2169 H   0  0  0  0  0  0  0  0  0  0  0  0
   44.3137   31.3172   49.6110 H   0  0  0  0  0  0  0  0  0  0  0  0
   43.9996   32.7351   47.6133 H   0  0  0  0  0  0  0  0  0  0  0  0
   43.9467   36.1010   44.9244 H   0  0  0  0  0  0  0  0  0  0  0  0
   45.3333   35.8461   42.8225 H   0  0  0  0  0  0  0  0  0  0  0  0
   47.1062   34.0519   42.7728 H   0  0  0  0  0  0  0  0  0  0  0  0
   49.6297   32.8473   49.1390 H   0  0  0  0  0  0  0  0  0  0  0  0
   49.5030   31.8091   50.6341 H   0  0  0  0  0  0  0  0  0  0  0  0
   51.4510   31.4715   48.3358 H   0  0  0  0  0  0  0  0  0  0  0  0
   51.8024   32.0456   50.0199 H   0  0  0  0  0  0  0  0  0  0  0  0
   52.1229   29.4903   49.2038 H   0  0  0  0  0  0  0  0  0  0  0  0
   51.7153   29.9893   50.8988 H   0  0  0  0  0  0  0  0  0  0  0  0
   50.3342   28.1055   49.6773 H   0  0  0  0  0  0  0  0  0  0  0  0
   49.5279   29.3438   50.7208 H   0  0  0  0  0  0  0  0  0  0  0  0
   48.3575   28.9457   48.5208 H   0  0  0  0  0  0  0  0  0  0  0  0
   49.7954   29.5674   47.6777 H   0  0  0  0  0  0  0  0  0  0  0  0
  1  2  2  0
  1  6  1  0
  2  3  1  0
  3 13  1  0
  3  4  2  0
  5  4  1  0
  6  5  2  0
  7 12  2  0
  8  7  1  0
  9  8  2  0
  9 10  1  0
 10 11  2  0
 11 12  1  0
 11  1  1  0
 13 14  1  0
 15 14  1  0
 15 16  1  0
 17 16  1  0
 18 13  1  0
 18 17  1  0
  2 19  1  0
  4 20  1  0
  5 21  1  0
  6 22  1  0
  7 23  1  0
  8 24  1  0
  9 25  1  0
 14 26  1  0
 14 27  1  0
 15 28  1  0
 15 29  1  0
 16 30  1  0
 16 31  1  0
 17 32  1  0
 17 33  1  0
 18 34  1  0
 18 35  1  0
M  ISO  8  19  14  20  14  21  14  22  14  23  14  24  14  25  14  26  13
M  ISO  8  27  13  28  13  29  13  30  13  31  13  32  13  33  13  34  13
M  ISO  1  35  13
M  END
>  <minimizedAffinity>  (1) 
-5.62914419

>  <minimizedRMSD>  (1) 
0.782949328

$$$$
