
     RDKit          3D

 37 39  0  0  0  0  0  0  0  0999 V2000
   46.5750   34.7650   42.1170 C   0  0  0  0  0  0  0  0  0  0  0  0
   47.9050   35.0830   42.0650 C   0  0  0  0  0  0  0  0  0  0  0  0
   48.6800   34.8840   40.9230 C   0  0  0  0  0  0  0  0  0  0  0  0
   48.1030   34.3490   39.7930 C   0  0  0  0  0  0  0  0  0  0  0  0
   46.7720   34.0390   39.8660 C   0  0  0  0  0  0  0  0  0  0  0  0
   45.9760   34.2250   40.9900 C   0  0  0  0  0  0  0  0  0  0  0  0
   44.4220   36.2550   44.8280 C   0  0  0  0  0  0  0  0  0  0  0  0
   45.0670   36.1360   43.5730 C   0  0  0  0  0  0  0  0  0  0  0  0
   45.8630   35.0100   43.3500 C   0  0  0  0  0  0  0  0  0  0  0  0
   45.9720   34.1060   44.3420 N   0  0  0  0  0  0  0  0  0  0  0  0
   45.3470   34.2400   45.5320 C   0  0  0  0  0  0  0  0  0  0  0  0
   44.5730   35.3200   45.7670 N   0  0  0  0  0  0  0  0  0  0  0  0
   45.4740   33.2730   46.5700 N   0  0  0  0  0  0  0  0  0  0  0  0
   44.5960   33.8880   41.0230 N   0  0  0  0  0  0  0  0  0  0  0  0
   43.4690   34.7030   40.6300 C   0  0  0  0  0  0  0  0  0  0  0  0
   42.3550   33.9480   40.0010 C   0  0  0  0  0  0  0  0  0  0  0  0
   42.7230   32.5950   39.4540 C   0  0  0  0  0  0  0  0  0  0  0  0
   43.6750   31.8110   40.2880 C   0  0  0  0  0  0  0  0  0  0  0  0
   44.1380   32.5970   41.4880 C   0  0  0  0  0  0  0  0  0  0  0  0
   48.3812   35.5123   42.9588 H   0  0  0  0  0  0  0  0  0  0  0  0
   49.7466   35.1530   40.9248 H   0  0  0  0  0  0  0  0  0  0  0  0
   48.6845   34.1788   38.8749 H   0  0  0  0  0  0  0  0  0  0  0  0
   46.2979   33.6117   38.9701 H   0  0  0  0  0  0  0  0  0  0  0  0
   43.7878   37.1305   45.0312 H   0  0  0  0  0  0  0  0  0  0  0  0
   44.9450   36.9066   42.7976 H   0  0  0  0  0  0  0  0  0  0  0  0
   44.9818   33.4099   47.4644 H   0  0  0  0  0  0  0  0  0  0  0  0
   46.0580   32.4368   46.4262 H   0  0  0  0  0  0  0  0  0  0  0  0
   43.0797   35.2071   41.5268 H   0  0  0  0  0  0  0  0  0  0  0  0
   43.8401   35.4061   39.8698 H   0  0  0  0  0  0  0  0  0  0  0  0
   41.5702   33.8062   40.7586 H   0  0  0  0  0  0  0  0  0  0  0  0
   42.0309   34.5473   39.1374 H   0  0  0  0  0  0  0  0  0  0  0  0
   41.7989   32.0076   39.3493 H   0  0  0  0  0  0  0  0  0  0  0  0
   43.2361   32.7814   38.4990 H   0  0  0  0  0  0  0  0  0  0  0  0
   43.1756   30.8936   40.6330 H   0  0  0  0  0  0  0  0  0  0  0  0
   44.5549   31.5714   39.6729 H   0  0  0  0  0  0  0  0  0  0  0  0
   44.9615   32.0659   41.9878 H   0  0  0  0  0  0  0  0  0  0  0  0
   43.3151   32.7184   42.2078 H   0  0  0  0  0  0  0  0  0  0  0  0
  1  9  1  0
  2  1  2  0
  3  2  1  0
  4  5  1  0
  4  3  2  0
  5  6  2  0
  6 14  1  0
  6  1  1  0
  7 12  2  0
  8  7  1  0
  9  8  2  0
  9 10  1  0
 10 11  2  0
 11 12  1  0
 11 13  1  0
 14 19  1  0
 15 14  1  0
 16 15  1  0
 17 16  1  0
 17 18  1  0
 18 19  1  0
  2 20  1  0
  3 21  1  0
  4 22  1  0
  5 23  1  0
  7 24  1  0
  8 25  1  0
 13 26  1  0
 13 27  1  0
 15 28  1  0
 15 29  1  0
 16 30  1  0
 16 31  1  0
 17 32  1  0
 17 33  1  0
 18 34  1  0
 18 35  1  0
 19 36  1  0
 19 37  1  0
M  ISO  8  20  14  21  14  22  14  23  14  24  14  25  14  28  13  29  13
M  ISO  8  30  13  31  13  32  13  33  13  34  13  35  13  36  13  37  13
M  END
>  <minimizedAffinity>  (1) 
-5.92743349

>  <minimizedRMSD>  (1) 
1.53216112

$$$$
