
     RDKit          3D

 45 47  0  0  0  0  0  0  0  0999 V2000
   44.5250   35.6090   44.8520 C   0  0  0  0  0  0  0  0  0  0  0  0
   45.1260   35.5790   43.5700 C   0  0  0  0  0  0  0  0  0  0  0  0
   46.1360   34.6550   43.3660 C   0  0  0  0  0  0  0  0  0  0  0  0
   46.5010   33.8240   44.4070 N   0  0  0  0  0  0  0  0  0  0  0  0
   45.9050   33.8900   45.6010 C   0  0  0  0  0  0  0  0  0  0  0  0
   44.9090   34.7810   45.8430 N   0  0  0  0  0  0  0  0  0  0  0  0
   46.7520   34.6070   42.0890 N   0  0  0  0  0  0  0  0  0  0  0  0
   47.9400   35.2220   41.9240 C   0  0  0  0  0  0  0  0  0  0  0  0
   48.5400   35.1730   40.6690 C   0  0  0  0  0  0  0  0  0  0  0  0
   47.8980   34.5000   39.6570 C   0  0  0  0  0  0  0  0  0  0  0  0
   48.4760   34.4750   38.5220 O   0  0  0  0  0  0  0  0  0  0  0  0
   46.7130   33.8840   39.8120 N   0  0  0  0  0  0  0  0  0  0  0  0
   46.1870   33.9710   41.0510 C   0  0  0  0  0  0  0  0  0  0  0  0
   45.0770   33.4240   41.2960 O   0  0  0  0  0  0  0  0  0  0  0  0
   46.4910   32.8850   46.5380 C   0  0  0  0  0  0  0  0  0  0  0  0
   45.4340   32.3580   47.4790 C   0  0  0  0  0  0  0  0  0  0  0  0
   45.6590   29.9110   47.4880 C   0  0  0  0  0  0  0  0  0  0  0  0
   46.5400   30.0910   48.3470 O   0  0  0  0  0  0  0  0  0  0  0  0
   44.9980   31.0620   47.0010 N   0  0  0  0  0  0  0  0  0  0  0  0
   45.4020   28.5880   47.0800 N   0  0  0  0  0  0  0  0  0  0  0  0
   44.1880   28.3830   46.3600 C   0  0  0  0  0  0  0  0  0  0  0  0
   43.7570   26.9390   46.4430 C   0  0  0  0  0  0  0  0  0  0  0  0
   44.0110   26.4660   47.8600 C   0  0  0  0  0  0  0  0  0  0  0  0
   45.5080   26.3360   48.0430 C   0  0  0  0  0  0  0  0  0  0  0  0
   46.2550   27.4430   47.3290 C   0  0  0  0  0  0  0  0  0  0  0  0
   43.7185   36.3318   45.0449 H   0  0  0  0  0  0  0  0  0  0  0  0
   44.8036   36.2615   42.7699 H   0  0  0  0  0  0  0  0  0  0  0  0
   48.4231   35.7492   42.7599 H   0  0  0  0  0  0  0  0  0  0  0  0
   49.5085   35.6630   40.4907 H   0  0  0  0  0  0  0  0  0  0  0  0
   46.2430   33.3841   39.0438 H   0  0  0  0  0  0  0  0  0  0  0  0
   46.9077   32.0489   45.9573 H   0  0  0  0  0  0  0  0  0  0  0  0
   47.2827   33.3692   47.1285 H   0  0  0  0  0  0  0  0  0  0  0  0
   45.8543   32.2582   48.4906 H   0  0  0  0  0  0  0  0  0  0  0  0
   44.5818   33.0525   47.5155 H   0  0  0  0  0  0  0  0  0  0  0  0
   44.2262   30.9811   46.3237 H   0  0  0  0  0  0  0  0  0  0  0  0
   44.3435   28.6536   45.3052 H   0  0  0  0  0  0  0  0  0  0  0  0
   43.4027   29.0129   46.8033 H   0  0  0  0  0  0  0  0  0  0  0  0
   42.6865   26.8528   46.2049 H   0  0  0  0  0  0  0  0  0  0  0  0
   44.3202   26.3257   45.7241 H   0  0  0  0  0  0  0  0  0  0  0  0
   43.6085   27.1973   48.5764 H   0  0  0  0  0  0  0  0  0  0  0  0
   43.5169   25.4993   48.0368 H   0  0  0  0  0  0  0  0  0  0  0  0
   45.7418   26.3825   49.1169 H   0  0  0  0  0  0  0  0  0  0  0  0
   45.8250   25.3743   47.6133 H   0  0  0  0  0  0  0  0  0  0  0  0
   46.6277   27.0597   46.3676 H   0  0  0  0  0  0  0  0  0  0  0  0
   47.0867   27.7670   47.9719 H   0  0  0  0  0  0  0  0  0  0  0  0
  1  6  2  0
  2  1  1  0
  3  2  2  0
  3  4  1  0
  4  5  2  0
  5  6  1  0
  5 15  1  0
  7  3  1  0
  8  7  1  0
  9  8  2  0
 10 12  1  0
 10  9  1  0
 11 10  2  0
 12 13  1  0
 13 14  2  0
 13  7  1  0
 15 16  1  0
 17 18  2  0
 19 16  1  0
 19 17  1  0
 20 25  1  0
 20 17  1  0
 21 22  1  0
 21 20  1  0
 22 23  1  0
 23 24  1  0
 25 24  1  0
  1 26  1  0
  2 27  1  0
  8 28  1  0
  9 29  1  0
 12 30  1  0
 15 31  1  0
 15 32  1  0
 16 33  1  0
 16 34  1  0
 19 35  1  0
 21 36  1  0
 21 37  1  0
 22 38  1  0
 22 39  1  0
 23 40  1  0
 23 41  1  0
 24 42  1  0
 24 43  1  0
 25 44  1  0
 25 45  1  0
M  ISO  8  26  14  27  14  28  14  29  14  30   9  31   8  32   8  33   8
M  ISO  8  34   8  36  13  37  13  38  13  39  13  40  13  41  13  42  13
M  ISO  3  43  13  44  13  45  13
M  END
>  <minimizedAffinity>  (1) 
-6.5826931

>  <minimizedRMSD>  (1) 
1.53896797

$$$$
