
     RDKit          3D

 24 25  0  0  0  0  0  0  0  0999 V2000
   43.6970   35.3470   41.2350 C   0  0  0  0  0  0  0  0  0  0  0  0
   44.1990   35.9190   43.5380 C   0  0  0  0  0  0  0  0  0  0  0  0
   44.2350   34.9550   42.5540 C   0  0  0  0  0  0  0  0  0  0  0  0
   44.7680   33.7160   42.8860 C   0  0  0  0  0  0  0  0  0  0  0  0
   45.2120   33.5370   44.1420 N   0  0  0  0  0  0  0  0  0  0  0  0
   45.1680   34.4880   45.0870 C   0  0  0  0  0  0  0  0  0  0  0  0
   44.6520   35.7160   44.7960 N   0  0  0  0  0  0  0  0  0  0  0  0
   42.3220   35.5350   41.2540 O   0  0  0  0  0  0  0  0  0  0  0  0
   39.9910   34.5320   42.1580 F   0  0  0  0  0  0  0  0  0  0  0  0
   40.2320   34.7160   40.8390 C   0  0  0  0  0  0  0  0  0  0  0  0
   41.4090   35.2300   40.2840 C   0  0  0  0  0  0  0  0  0  0  0  0
   41.5040   35.3590   38.9140 C   0  0  0  0  0  0  0  0  0  0  0  0
   40.4510   34.9870   38.1030 C   0  0  0  0  0  0  0  0  0  0  0  0
   39.2850   34.4790   38.6430 C   0  0  0  0  0  0  0  0  0  0  0  0
   39.1610   34.3370   40.0240 C   0  0  0  0  0  0  0  0  0  0  0  0
   43.9344   34.5560   40.5084 H   0  0  0  0  0  0  0  0  0  0  0  0
   44.1605   36.3052   40.9575 H   0  0  0  0  0  0  0  0  0  0  0  0
   43.7801   36.9047   43.2873 H   0  0  0  0  0  0  0  0  0  0  0  0
   44.8250   32.9061   42.1438 H   0  0  0  0  0  0  0  0  0  0  0  0
   45.5484   34.2770   46.0973 H   0  0  0  0  0  0  0  0  0  0  0  0
   42.4244   35.7607   38.4652 H   0  0  0  0  0  0  0  0  0  0  0  0
   40.5412   35.0964   37.0122 H   0  0  0  0  0  0  0  0  0  0  0  0
   38.4548   34.1867   37.9832 H   0  0  0  0  0  0  0  0  0  0  0  0
   38.2372   33.9340   40.4647 H   0  0  0  0  0  0  0  0  0  0  0  0
  1  8  1  0
  1  3  1  0
  2  7  2  0
  3  4  2  0
  3  2  1  0
  4  5  1  0
  5  6  2  0
  7  6  1  0
 10  9  1  0
 11 10  2  0
 11  8  1  0
 12 11  1  0
 13 14  1  0
 13 12  2  0
 14 15  2  0
 15 10  1  0
  1 16  1  0
  1 17  1  0
  2 18  1  0
  4 19  1  0
  6 20  1  0
 12 21  1  0
 13 22  1  0
 14 23  1  0
 15 24  1  0
M  ISO  8  16   8  17   8  18  14  19  14  20  14  21  14  22  14  23  14
M  ISO  1  24  14
M  END
>  <minimizedAffinity>  (1) 
-4.99069166

>  <minimizedRMSD>  (1) 
2.17929387

$$$$
