
     RDKit          3D

 21 22  0  0  0  0  0  0  0  0999 V2000
   46.9340   32.2950   45.2870 S   0  0  0  0  0  0  0  0  0  0  0  0
   45.8320   32.0280   49.1680 C   0  0  0  0  0  0  0  0  0  0  0  0
   45.1090   30.8010   49.1400 C   0  0  0  0  0  0  0  0  0  0  0  0
   44.9970   30.1200   47.9250 C   0  0  0  0  0  0  0  0  0  0  0  0
   45.5830   30.6590   46.8350 N   0  0  0  0  0  0  0  0  0  0  0  0
   46.2710   31.8370   46.8890 C   0  0  0  0  0  0  0  0  0  0  0  0
   46.3860   32.4970   48.0370 N   0  0  0  0  0  0  0  0  0  0  0  0
   47.4730   33.5930   42.7350 F   0  0  0  0  0  0  0  0  0  0  0  0
   46.5270   34.2410   43.4430 C   0  0  0  0  0  0  0  0  0  0  0  0
   46.1210   33.7910   44.6840 C   0  0  0  0  0  0  0  0  0  0  0  0
   45.1570   34.4390   45.4220 C   0  0  0  0  0  0  0  0  0  0  0  0
   44.5420   35.5810   44.9550 C   0  0  0  0  0  0  0  0  0  0  0  0
   44.9300   36.0460   43.7220 C   0  0  0  0  0  0  0  0  0  0  0  0
   45.8980   35.3930   42.9840 C   0  0  0  0  0  0  0  0  0  0  0  0
   45.9362   32.5879   50.1091 H   0  0  0  0  0  0  0  0  0  0  0  0
   44.6490   30.3985   50.0546 H   0  0  0  0  0  0  0  0  0  0  0  0
   44.4461   29.1702   47.8586 H   0  0  0  0  0  0  0  0  0  0  0  0
   44.8711   34.0372   46.4053 H   0  0  0  0  0  0  0  0  0  0  0  0
   43.7719   36.0988   45.5457 H   0  0  0  0  0  0  0  0  0  0  0  0
   44.4616   36.9544   43.3152 H   0  0  0  0  0  0  0  0  0  0  0  0
   46.1805   35.7976   42.0009 H   0  0  0  0  0  0  0  0  0  0  0  0
  1  6  1  0
  3  2  2  0
  4  3  1  0
  5  6  1  0
  5  4  2  0
  6  7  2  0
  7  2  1  0
  8  9  1  0
  9 10  2  0
 10  1  1  0
 10 11  1  0
 12 11  2  0
 13 12  1  0
 14  9  1  0
 14 13  2  0
  2 15  1  0
  3 16  1  0
  4 17  1  0
 11 18  1  0
 12 19  1  0
 13 20  1  0
 14 21  1  0
M  ISO  7  15  14  16  14  17  14  18  14  19  14  20  14  21  14
M  END
>  <minimizedAffinity>  (1) 
-4.78710842

>  <minimizedRMSD>  (1) 
5.5548625

$$$$
