
     RDKit          3D

 37 39  0  0  1  0  0  0  0  0999 V2000
   48.0800   33.4760   42.5090 C   0  0  1  0  0  0  0  0  0  0  0  0
   46.6090   33.7230   42.2790 C   0  0  2  0  0  0  0  0  0  0  0  0
   46.3810   34.6780   41.3100 O   0  0  0  0  0  0  0  0  0  0  0  0
   46.7460   34.0940   40.1060 C   0  0  0  0  0  0  0  0  0  0  0  0
   48.2410   34.0080   40.0510 C   0  0  2  0  0  0  0  0  0  0  0  0
   48.8910   33.3900   41.2600 C   0  0  2  0  0  0  0  0  0  0  0  0
   44.5660   35.6750   44.8060 C   0  0  0  0  0  0  0  0  0  0  0  0
   45.1580   35.3070   43.5900 C   0  0  0  0  0  0  0  0  0  0  0  0
   45.9610   34.1330   43.5360 C   0  0  0  0  0  0  0  0  0  0  0  0
   46.1110   33.4260   44.6790 N   0  0  0  0  0  0  0  0  0  0  0  0
   45.5270   33.8060   45.8410 C   0  0  0  0  0  0  0  0  0  0  0  0
   44.7540   34.9280   45.9120 N   0  0  0  0  0  0  0  0  0  0  0  0
   48.6220   34.3700   43.4410 O   0  0  0  0  0  0  0  0  0  0  0  0
   48.6820   35.3280   39.8510 O   0  0  0  0  0  0  0  0  0  0  0  0
   49.3270   32.0900   40.9980 O   0  0  0  0  0  0  0  0  0  0  0  0
   51.6460   31.8560   42.3340 F   0  0  0  0  0  0  0  0  0  0  0  0
   51.5480   31.6380   40.9940 C   0  0  0  0  0  0  0  0  0  0  0  0
   50.3970   31.7300   40.2000 C   0  0  0  0  0  0  0  0  0  0  0  0
   50.5200   31.4680   38.8570 C   0  0  0  0  0  0  0  0  0  0  0  0
   51.7340   31.1270   38.3260 C   0  0  0  0  0  0  0  0  0  0  0  0
   52.8870   31.0280   39.0860 C   0  0  0  0  0  0  0  0  0  0  0  0
   52.7760   31.2900   40.4360 C   0  0  0  0  0  0  0  0  0  0  0  0
   48.1395   32.4690   42.9477 H   0  0  0  0  0  0  0  0  0  0  0  0
   46.1759   32.7766   41.9229 H   0  0  0  0  0  0  0  0  0  0  0  0
   46.3139   33.0848   40.0375 H   0  0  0  0  0  0  0  0  0  0  0  0
   46.3729   34.6987   39.2663 H   0  0  0  0  0  0  0  0  0  0  0  0
   48.5346   33.3264   39.2391 H   0  0  0  0  0  0  0  0  0  0  0  0
   49.7771   34.0087   41.4651 H   0  0  0  0  0  0  0  0  0  0  0  0
   43.9433   36.5803   44.8581 H   0  0  0  0  0  0  0  0  0  0  0  0
   45.0039   35.9180   42.6884 H   0  0  0  0  0  0  0  0  0  0  0  0
   45.6791   33.1979   46.7450 H   0  0  0  0  0  0  0  0  0  0  0  0
   48.4277   34.0495   44.3573 H   0  0  0  0  0  0  0  0  0  0  0  0
   48.8276   35.7637   40.7280 H   0  0  0  0  0  0  0  0  0  0  0  0
   49.6368   31.5328   38.2044 H   0  0  0  0  0  0  0  0  0  0  0  0
   51.7967   30.9224   37.2470 H   0  0  0  0  0  0  0  0  0  0  0  0
   53.8506   30.7522   38.6328 H   0  0  0  0  0  0  0  0  0  0  0  0
   53.6664   31.2234   41.0784 H   0  0  0  0  0  0  0  0  0  0  0  0
  1 13  1  0
  2  1  1  0
  2  9  1  0
  3  2  1  0
  4  3  1  0
  5  4  1  0
  5  6  1  0
  6  1  1  0
  7 12  2  0
  8  7  1  0
  9  8  2  0
  9 10  1  0
 10 11  2  0
 11 12  1  0
 14  5  1  0
 15  6  1  0
 17 16  1  0
 18 17  2  0
 18 15  1  0
 19 18  1  0
 20 19  2  0
 20 21  1  0
 21 22  2  0
 22 17  1  0
  1 23  1  1
  2 24  1  6
  4 25  1  0
  4 26  1  0
  5 27  1  6
  6 28  1  1
  7 29  1  0
  8 30  1  0
 11 31  1  0
 13 32  1  0
 14 33  1  0
 19 34  1  0
 20 35  1  0
 21 36  1  0
 22 37  1  0
M  ISO  8  23  13  24  13  25  13  26  13  27  13  28  13  29  14  30  14
M  ISO  7  31  14  32   3  33   3  34  14  35  14  36  14  37  14
M  END
>  <minimizedAffinity>  (1) 
-5.72198105

>  <minimizedRMSD>  (1) 
1.22976947

$$$$
