
     RDKit          3D

 42 45  0  0  0  0  0  0  0  0999 V2000
   47.7010   30.9960   46.0080 C   0  0  0  0  0  0  0  0  0  0  0  0
   46.9740   32.0730   45.5340 C   0  0  0  0  0  0  0  0  0  0  0  0
   45.9800   32.5880   46.3370 C   0  0  0  0  0  0  0  0  0  0  0  0
   45.6860   32.0740   47.5840 C   0  0  0  0  0  0  0  0  0  0  0  0
   44.8150   32.3320   48.5830 N   0  0  0  0  0  0  0  0  0  0  0  0
   44.9970   31.4660   49.6060 C   0  0  0  0  0  0  0  0  0  0  0  0
   46.0040   30.6560   49.2290 N   0  0  0  0  0  0  0  0  0  0  0  0
   46.4420   31.0070   48.0000 C   0  0  0  0  0  0  0  0  0  0  0  0
   47.4350   30.4490   47.2610 C   0  0  0  0  0  0  0  0  0  0  0  0
   47.1910   34.4100   42.7370 C   0  0  0  0  0  0  0  0  0  0  0  0
   47.8180   33.6580   41.7410 C   0  0  0  0  0  0  0  0  0  0  0  0
   48.1520   32.3440   42.0750 C   0  0  0  0  0  0  0  0  0  0  0  0
   47.8660   31.8640   43.3080 N   0  0  0  0  0  0  0  0  0  0  0  0
   47.2610   32.6380   44.2180 C   0  0  0  0  0  0  0  0  0  0  0  0
   46.9200   33.8950   43.9590 N   0  0  0  0  0  0  0  0  0  0  0  0
   48.0760   34.2990   40.4300 C   0  0  0  0  0  0  0  0  0  0  0  0
   48.5780   35.5500   40.7420 F   0  0  0  0  0  0  0  0  0  0  0  0
   46.8860   34.4180   39.7690 F   0  0  0  0  0  0  0  0  0  0  0  0
   48.9810   33.5070   39.7340 F   0  0  0  0  0  0  0  0  0  0  0  0
   48.1570   29.3690   47.7480 O   0  0  0  0  0  0  0  0  0  0  0  0
   49.7720   28.0560   49.2870 O   0  0  0  0  0  0  0  0  0  0  0  0
   49.4520   29.4750   48.8130 P   0  0  2  0  0  0  0  0  0  0  0  0
   48.9000   30.3150   50.1950 O   0  0  0  0  0  0  0  0  0  0  0  0
   50.8130   30.2110   48.1940 O   0  0  0  0  0  0  0  0  0  0  0  0
   50.5220   29.3190   45.5450 F   0  0  0  0  0  0  0  0  0  0  0  0
   51.6770   29.0300   46.1500 C   0  0  0  0  0  0  0  0  0  0  0  0
   51.7540   29.5040   47.4650 C   0  0  0  0  0  0  0  0  0  0  0  0
   52.9270   29.2510   48.1830 C   0  0  0  0  0  0  0  0  0  0  0  0
   53.9910   28.5500   47.6200 C   0  0  0  0  0  0  0  0  0  0  0  0
   53.9070   28.0920   46.3340 C   0  0  0  0  0  0  0  0  0  0  0  0
   52.7570   28.3500   45.6550 C   0  0  0  0  0  0  0  0  0  0  0  0
   48.5003   30.5655   45.3868 H   0  0  0  0  0  0  0  0  0  0  0  0
   45.3962   33.4446   45.9691 H   0  0  0  0  0  0  0  0  0  0  0  0
   44.1105   33.0832   48.5681 H   0  0  0  0  0  0  0  0  0  0  0  0
   44.4369   31.4308   50.5521 H   0  0  0  0  0  0  0  0  0  0  0  0
   46.9092   35.4513   42.5220 H   0  0  0  0  0  0  0  0  0  0  0  0
   48.6480   31.6982   41.3354 H   0  0  0  0  0  0  0  0  0  0  0  0
   49.2079   29.8464   51.0109 H   0  0  0  0  0  0  0  0  0  0  0  0
   53.0116   29.6145   49.2178 H   0  0  0  0  0  0  0  0  0  0  0  0
   54.9002   28.3645   48.2107 H   0  0  0  0  0  0  0  0  0  0  0  0
   54.7352   27.5379   45.8681 H   0  0  0  0  0  0  0  0  0  0  0  0
   52.6891   27.9811   44.6209 H   0  0  0  0  0  0  0  0  0  0  0  0
  1  9  2  0
  2  1  1  0
  2  3  2  0
  3  4  1  0
  4  8  2  0
  4  5  1  0
  5  6  1  0
  7  6  2  0
  8  7  1  0
  9 20  1  0
  9  8  1  0
 10 15  2  0
 11 12  2  0
 11 10  1  0
 12 13  1  0
 13 14  2  0
 14  2  1  0
 15 14  1  0
 16 17  1  0
 16 11  1  0
 18 16  1  0
 19 16  1  0
 20 22  1  0
 22 21  2  0
 22 23  1  0
 24 22  1  0
 25 26  1  0
 26 27  2  0
 27 28  1  0
 27 24  1  0
 29 28  2  0
 30 29  1  0
 31 26  1  0
 31 30  2  0
  1 32  1  0
  3 33  1  0
  5 34  1  0
  6 35  1  0
 10 36  1  0
 12 37  1  0
 23 38  1  0
 28 39  1  0
 29 40  1  0
 30 41  1  0
 31 42  1  0
M  ISO  8  32  14  33  14  34   9  35  14  36  14  37  14  38   3  39  14
M  ISO  3  40  14  41  14  42  14
M  END
>  <minimizedAffinity>  (1) 
-5.65941191

>  <minimizedRMSD>  (1) 
0.703898907

$$$$
