
     RDKit          3D

 23 24  0  0  0  0  0  0  0  0999 V2000
   47.0160   32.5730   45.4440 C   0  0  0  0  0  0  0  0  0  0  0  0
   45.6160   35.2540   43.2750 C   0  0  0  0  0  0  0  0  0  0  0  0
   46.3930   34.1610   43.7100 C   0  0  0  0  0  0  0  0  0  0  0  0
   46.1930   33.7080   45.0250 C   0  0  0  0  0  0  0  0  0  0  0  0
   45.2720   34.3370   45.7980 N   0  0  0  0  0  0  0  0  0  0  0  0
   44.5480   35.3800   45.3430 C   0  0  0  0  0  0  0  0  0  0  0  0
   44.7310   35.8250   44.0860 N   0  0  0  0  0  0  0  0  0  0  0  0
   46.6190   32.5840   48.2130 F   0  0  0  0  0  0  0  0  0  0  0  0
   46.0680   31.5120   47.5580 C   0  0  0  0  0  0  0  0  0  0  0  0
   46.2780   31.5260   46.1780 C   0  0  0  0  0  0  0  0  0  0  0  0
   45.7440   30.4680   45.4790 C   0  0  0  0  0  0  0  0  0  0  0  0
   45.0370   29.4470   46.1080 C   0  0  0  0  0  0  0  0  0  0  0  0
   44.8410   29.4480   47.4620 C   0  0  0  0  0  0  0  0  0  0  0  0
   45.3690   30.5020   48.1840 C   0  0  0  0  0  0  0  0  0  0  0  0
   47.8177   32.9507   46.0957 H   0  0  0  0  0  0  0  0  0  0  0  0
   47.3976   32.1041   44.5250 H   0  0  0  0  0  0  0  0  0  0  0  0
   45.7436   35.6388   42.2524 H   0  0  0  0  0  0  0  0  0  0  0  0
   47.1272   33.6815   43.0459 H   0  0  0  0  0  0  0  0  0  0  0  0
   43.8096   35.8659   45.9977 H   0  0  0  0  0  0  0  0  0  0  0  0
   45.8801   30.4276   44.3882 H   0  0  0  0  0  0  0  0  0  0  0  0
   44.6279   28.6233   45.5045 H   0  0  0  0  0  0  0  0  0  0  0  0
   44.2837   28.6397   47.9580 H   0  0  0  0  0  0  0  0  0  0  0  0
   45.2293   30.5353   49.2746 H   0  0  0  0  0  0  0  0  0  0  0  0
  1 10  1  0
  2  3  2  0
  2  7  1  0
  3  4  1  0
  4  1  1  0
  4  5  2  0
  6  5  1  0
  7  6  2  0
  9 14  2  0
  9  8  1  0
 10  9  1  0
 11 12  1  0
 11 10  2  0
 12 13  2  0
 13 14  1  0
  1 15  1  0
  1 16  1  0
  2 17  1  0
  3 18  1  0
  6 19  1  0
 11 20  1  0
 12 21  1  0
 13 22  1  0
 14 23  1  0
M  ISO  8  15   8  16   8  17  14  18  14  19  14  20  14  21  14  22  14
M  ISO  1  23  14
M  END
>  <minimizedAffinity>  (1) 
-4.27236271

>  <minimizedRMSD>  (1) 
5.88874197

$$$$
