
     RDKit          3D

 37 39  0  0  0  0  0  0  0  0999 V2000
   44.2760   34.9750   42.0060 C   0  0  0  0  0  0  0  0  0  0  0  0
   45.0210   34.9100   41.0080 O   0  0  0  0  0  0  0  0  0  0  0  0
   44.7640   35.0960   44.3950 C   0  0  0  0  0  0  0  0  0  0  0  0
   44.7440   34.3540   43.2400 C   0  0  0  0  0  0  0  0  0  0  0  0
   45.1640   33.0220   43.2420 C   0  0  0  0  0  0  0  0  0  0  0  0
   45.5910   32.4970   44.4360 N   0  0  0  0  0  0  0  0  0  0  0  0
   45.6000   33.2360   45.5440 C   0  0  0  0  0  0  0  0  0  0  0  0
   45.1910   34.5250   45.5300 N   0  0  0  0  0  0  0  0  0  0  0  0
   46.0520   32.6680   46.8050 C   0  0  0  0  0  0  0  0  0  0  0  0
   47.2990   32.1920   46.9910 C   0  0  0  0  0  0  0  0  0  0  0  0
   47.7520   31.6520   48.1700 C   0  0  0  0  0  0  0  0  0  0  0  0
   46.8520   31.6110   49.1930 N   0  0  0  0  0  0  0  0  0  0  0  0
   45.6230   32.0770   49.0150 C   0  0  0  0  0  0  0  0  0  0  0  0
   45.1690   32.6080   47.8680 N   0  0  0  0  0  0  0  0  0  0  0  0
   43.1430   35.6530   41.6640 O   0  0  0  0  0  0  0  0  0  0  0  0
   41.9020   35.0670   41.5610 C   0  0  0  0  0  0  0  0  0  0  0  0
   40.8540   35.9810   40.9720 C   0  0  0  0  0  0  0  0  0  0  0  0
   41.6320   36.1460   38.2990 F   0  0  0  0  0  0  0  0  0  0  0  0
   40.5720   35.3650   38.6460 C   0  0  0  0  0  0  0  0  0  0  0  0
   40.1080   35.2160   39.9410 C   0  0  0  0  0  0  0  0  0  0  0  0
   39.0230   34.4070   40.2350 C   0  0  0  0  0  0  0  0  0  0  0  0
   38.4300   33.7560   39.1620 C   0  0  0  0  0  0  0  0  0  0  0  0
   38.8760   33.8900   37.8600 C   0  0  0  0  0  0  0  0  0  0  0  0
   39.9670   34.7080   37.5870 C   0  0  0  0  0  0  0  0  0  0  0  0
   44.4339   36.1453   44.3890 H   0  0  0  0  0  0  0  0  0  0  0  0
   45.1530   32.4176   42.3230 H   0  0  0  0  0  0  0  0  0  0  0  0
   47.9993   32.2389   46.1440 H   0  0  0  0  0  0  0  0  0  0  0  0
   48.7794   31.2753   48.2819 H   0  0  0  0  0  0  0  0  0  0  0  0
   44.9275   32.0249   49.8656 H   0  0  0  0  0  0  0  0  0  0  0  0
   41.9887   34.1773   40.9200 H   0  0  0  0  0  0  0  0  0  0  0  0
   41.5765   34.8146   42.5810 H   0  0  0  0  0  0  0  0  0  0  0  0
   40.1643   36.3158   41.7608 H   0  0  0  0  0  0  0  0  0  0  0  0
   41.3269   36.8672   40.5238 H   0  0  0  0  0  0  0  0  0  0  0  0
   38.6513   34.2868   41.2633 H   0  0  0  0  0  0  0  0  0  0  0  0
   37.5658   33.1037   39.3563 H   0  0  0  0  0  0  0  0  0  0  0  0
   38.3704   33.3523   37.0444 H   0  0  0  0  0  0  0  0  0  0  0  0
   40.3391   34.8299   36.5591 H   0  0  0  0  0  0  0  0  0  0  0  0
  1  4  1  0
  2  1  2  0
  3  8  2  0
  4  5  2  0
  4  3  1  0
  5  6  1  0
  6  7  2  0
  7  9  1  0
  8  7  1  0
  9 10  2  0
  9 14  1  0
 10 11  1  0
 11 12  2  0
 13 12  1  0
 14 13  2  0
 15  1  1  0
 16 15  1  0
 17 16  1  0
 18 19  1  0
 19 20  2  0
 20 21  1  0
 20 17  1  0
 22 21  2  0
 23 22  1  0
 24 23  2  0
 24 19  1  0
  3 25  1  0
  5 26  1  0
 10 27  1  0
 11 28  1  0
 13 29  1  0
 16 30  1  0
 16 31  1  0
 17 32  1  0
 17 33  1  0
 21 34  1  0
 22 35  1  0
 23 36  1  0
 24 37  1  0
M  ISO  8  25  14  26  14  27  14  28  14  29  14  30   8  31   8  32   8
M  ISO  5  33   8  34  14  35  14  36  14  37  14
M  END
>  <minimizedAffinity>  (1) 
-6.60484552

>  <minimizedRMSD>  (1) 
0.645648062

$$$$
