
     RDKit          3D

 30 32  0  0  1  0  0  0  0  0999 V2000
   44.7010   34.1890   43.9410 C   0  0  1  0  0  0  0  0  0  0  0  0
   45.1190   35.6700   44.1010 C   0  0  0  0  0  0  0  0  0  0  0  0
   45.0620   34.9930   42.7830 C   0  0  1  0  0  0  0  0  0  0  0  0
   45.2330   33.6460   40.3310 F   0  0  0  0  0  0  0  0  0  0  0  0
   46.3720   34.2600   40.7720 C   0  0  0  0  0  0  0  0  0  0  0  0
   46.2920   34.9360   42.0010 C   0  0  0  0  0  0  0  0  0  0  0  0
   47.5160   35.5120   42.3260 C   0  0  0  0  0  0  0  0  0  0  0  0
   48.6530   35.4500   41.5810 C   0  0  0  0  0  0  0  0  0  0  0  0
   48.6430   34.7730   40.4030 C   0  0  0  0  0  0  0  0  0  0  0  0
   47.4850   34.1580   39.9720 C   0  0  0  0  0  0  0  0  0  0  0  0
   45.6040   33.2300   44.6080 C   0  0  0  0  0  0  0  0  0  0  0  0
   46.2970   32.3260   43.7990 C   0  0  0  0  0  0  0  0  0  0  0  0
   47.1680   31.4240   44.4010 C   0  0  0  0  0  0  0  0  0  0  0  0
   47.2950   31.4740   45.7540 N   0  0  0  0  0  0  0  0  0  0  0  0
   46.6080   32.3630   46.5050 C   0  0  0  0  0  0  0  0  0  0  0  0
   45.7610   33.2400   45.9180 N   0  0  0  0  0  0  0  0  0  0  0  0
   46.8900   32.2570   47.9760 C   0  0  0  0  0  0  0  0  0  0  0  0
   45.8780   32.7870   48.7340 F   0  0  0  0  0  0  0  0  0  0  0  0
   48.0730   32.9320   48.2770 F   0  0  0  0  0  0  0  0  0  0  0  0
   47.1450   30.9280   48.2960 F   0  0  0  0  0  0  0  0  0  0  0  0
   43.8381   33.5320   44.1247 H   0  0  0  0  0  0  0  0  0  0  0  0
   44.3736   36.4336   44.3678 H   0  0  0  0  0  0  0  0  0  0  0  0
   45.8763   36.2225   44.6766 H   0  0  0  0  0  0  0  0  0  0  0  0
   44.5334   35.1056   41.8249 H   0  0  0  0  0  0  0  0  0  0  0  0
   47.5696   36.0692   43.2729 H   0  0  0  0  0  0  0  0  0  0  0  0
   49.5722   35.9437   41.9294 H   0  0  0  0  0  0  0  0  0  0  0  0
   49.5568   34.7151   39.7935 H   0  0  0  0  0  0  0  0  0  0  0  0
   47.4539   33.6055   39.0214 H   0  0  0  0  0  0  0  0  0  0  0  0
   46.1566   32.3276   42.7080 H   0  0  0  0  0  0  0  0  0  0  0  0
   47.7347   30.6951   43.8031 H   0  0  0  0  0  0  0  0  0  0  0  0
  1  2  1  0
  1 11  1  0
  3  1  1  0
  3  2  1  0
  4  5  1  0
  5  6  2  0
  6  7  1  0
  6  3  1  0
  8  7  2  0
  9  8  1  0
 10  9  2  0
 10  5  1  0
 11 16  2  0
 12 13  2  0
 12 11  1  0
 13 14  1  0
 14 15  2  0
 15 17  1  0
 16 15  1  0
 17 19  1  0
 17 20  1  0
 17 18  1  0
  1 21  1  6
  2 22  1  0
  2 23  1  0
  3 24  1  6
  7 25  1  0
  8 26  1  0
  9 27  1  0
 10 28  1  0
 12 29  1  0
 13 30  1  0
M  ISO  8  21  13  22  13  23  13  24  13  25  14  26  14  27  14  28  14
M  ISO  2  29  14  30  14
M  END
>  <minimizedAffinity>  (1) 
-5.46140814

>  <minimizedRMSD>  (1) 
1.25884867

$$$$
