
     RDKit          3D

 44 47  0  0  1  0  0  0  0  0999 V2000
   49.6460   33.6690   41.4100 N   0  0  0  0  0  0  0  0  0  0  0  0
   50.7100   33.0970   42.1920 C   0  0  0  0  0  0  0  0  0  0  0  0
   51.2350   31.7900   41.6730 C   0  0  0  0  0  0  0  0  0  0  0  0
   50.1470   30.7470   41.7210 C   0  0  0  0  0  0  0  0  0  0  0  0
   48.8010   31.3660   41.4990 C   0  0  0  0  0  0  0  0  0  0  0  0
   48.9710   32.6230   40.6730 C   0  0  2  0  0  0  0  0  0  0  0  0
   47.4080   34.8110   41.9640 C   0  0  1  0  0  0  0  0  0  0  0  0
   48.4880   35.8150   41.8160 C   0  0  0  0  0  0  0  0  0  0  0  0
   48.8220   34.4460   42.2500 C   0  0  2  0  0  0  0  0  0  0  0  0
   45.5600   36.0320   43.1520 C   0  0  0  0  0  0  0  0  0  0  0  0
   46.4550   34.9570   43.0680 C   0  0  0  0  0  0  0  0  0  0  0  0
   46.3940   33.9920   44.1020 C   0  0  0  0  0  0  0  0  0  0  0  0
   45.4870   34.1580   45.1010 N   0  0  0  0  0  0  0  0  0  0  0  0
   44.6440   35.2050   45.1460 C   0  0  0  0  0  0  0  0  0  0  0  0
   44.6720   36.1610   44.1640 N   0  0  0  0  0  0  0  0  0  0  0  0
   49.5500   32.3420   39.3990 N   0  0  0  0  0  0  0  0  0  0  0  0
   48.2620   34.4640   38.0080 F   0  0  0  0  0  0  0  0  0  0  0  0
   48.6610   33.3760   37.3050 C   0  0  0  0  0  0  0  0  0  0  0  0
   49.3050   32.3400   37.9990 C   0  0  0  0  0  0  0  0  0  0  0  0
   49.7230   31.2180   37.3150 C   0  0  0  0  0  0  0  0  0  0  0  0
   49.5300   31.0760   35.9590 C   0  0  0  0  0  0  0  0  0  0  0  0
   48.8980   32.0960   35.2760 C   0  0  0  0  0  0  0  0  0  0  0  0
   48.4790   33.2150   35.9570 C   0  0  0  0  0  0  0  0  0  0  0  0
   51.5424   33.8157   42.2161 H   0  0  0  0  0  0  0  0  0  0  0  0
   50.2888   32.8904   43.1869 H   0  0  0  0  0  0  0  0  0  0  0  0
   52.0814   31.4636   42.2951 H   0  0  0  0  0  0  0  0  0  0  0  0
   51.5679   31.9198   40.6326 H   0  0  0  0  0  0  0  0  0  0  0  0
   50.3321   29.9975   40.9374 H   0  0  0  0  0  0  0  0  0  0  0  0
   50.1567   30.2754   42.7147 H   0  0  0  0  0  0  0  0  0  0  0  0
   48.1521   30.6572   40.9638 H   0  0  0  0  0  0  0  0  0  0  0  0
   48.3404   31.6146   42.4665 H   0  0  0  0  0  0  0  0  0  0  0  0
   47.9694   33.0240   40.4587 H   0  0  0  0  0  0  0  0  0  0  0  0
   46.6188   34.4030   41.3154 H   0  0  0  0  0  0  0  0  0  0  0  0
   48.7827   36.1603   40.8141 H   0  0  0  0  0  0  0  0  0  0  0  0
   48.6707   36.8222   42.2188 H   0  0  0  0  0  0  0  0  0  0  0  0
   49.2935   33.9504   43.1114 H   0  0  0  0  0  0  0  0  0  0  0  0
   45.5804   36.8002   42.3649 H   0  0  0  0  0  0  0  0  0  0  0  0
   47.0686   33.1232   44.0972 H   0  0  0  0  0  0  0  0  0  0  0  0
   43.9276   35.2947   45.9759 H   0  0  0  0  0  0  0  0  0  0  0  0
   50.5147   32.0158   39.5533 H   0  0  0  0  0  0  0  0  0  0  0  0
   50.2259   30.4119   37.8694 H   0  0  0  0  0  0  0  0  0  0  0  0
   49.8710   30.1722   35.4329 H   0  0  0  0  0  0  0  0  0  0  0  0
   48.7303   32.0140   34.1919 H   0  0  0  0  0  0  0  0  0  0  0  0
   47.9759   34.0154   35.3947 H   0  0  0  0  0  0  0  0  0  0  0  0
  1  2  1  0
  1  9  1  0
  3  4  1  0
  3  2  1  0
  5  4  1  0
  6  1  1  0
  6  5  1  0
  7  9  1  0
  7 11  1  0
  8  7  1  0
  8  9  1  0
 10 15  2  0
 11 10  1  0
 11 12  2  0
 12 13  1  0
 13 14  2  0
 15 14  1  0
 16  6  1  0
 18 19  2  0
 18 17  1  0
 19 16  1  0
 20 19  1  0
 21 20  2  0
 22 23  2  0
 22 21  1  0
 23 18  1  0
  2 24  1  0
  2 25  1  0
  3 26  1  0
  3 27  1  0
  4 28  1  0
  4 29  1  0
  5 30  1  0
  5 31  1  0
  6 32  1  6
  7 33  1  6
  8 34  1  0
  8 35  1  0
  9 36  1  1
 10 37  1  0
 12 38  1  0
 14 39  1  0
 16 40  1  0
 20 41  1  0
 21 42  1  0
 22 43  1  0
 23 44  1  0
M  ISO  8  24  13  25  13  26  13  27  13  28  13  29  13  30  13  31  13
M  ISO  8  32  13  33  13  34  13  35  13  36  13  37  14  38  14  39  14
M  ISO  4  41  14  42  14  43  14  44  14
M  END
>  <minimizedAffinity>  (1) 
-5.56350374

>  <minimizedRMSD>  (1) 
2.44031501

$$$$
