
     RDKit          3D

 39 42  0  0  0  0  0  0  0  0999 V2000
   45.5810   33.1380   46.5730 C   0  0  0  0  0  0  0  0  0  0  0  0
   44.4240   36.1630   44.7530 C   0  0  0  0  0  0  0  0  0  0  0  0
   45.1320   36.0360   43.5410 C   0  0  0  0  0  0  0  0  0  0  0  0
   45.9740   34.9310   43.3900 C   0  0  0  0  0  0  0  0  0  0  0  0
   46.1030   34.0140   44.3790 N   0  0  0  0  0  0  0  0  0  0  0  0
   45.3890   34.1810   45.5470 C   0  0  0  0  0  0  0  0  0  0  0  0
   44.5710   35.2380   45.7180 N   0  0  0  0  0  0  0  0  0  0  0  0
   45.0190   33.3910   41.1870 F   0  0  0  0  0  0  0  0  0  0  0  0
   46.2200   34.0120   41.1160 C   0  0  0  0  0  0  0  0  0  0  0  0
   46.7220   34.7660   42.1550 C   0  0  0  0  0  0  0  0  0  0  0  0
   47.9510   35.3160   41.9000 C   0  0  0  0  0  0  0  0  0  0  0  0
   48.6520   35.1520   40.7240 C   0  0  0  0  0  0  0  0  0  0  0  0
   48.1090   34.3890   39.7150 C   0  0  0  0  0  0  0  0  0  0  0  0
   46.8730   33.8090   39.9130 C   0  0  0  0  0  0  0  0  0  0  0  0
   46.7650   31.9460   45.9260 S   0  0  0  0  0  0  0  0  0  0  0  0
   47.7240   31.2150   47.2310 C   0  0  0  0  0  0  0  0  0  0  0  0
   48.0020   32.0030   48.3220 C   0  0  0  0  0  0  0  0  0  0  0  0
   48.7450   31.4580   49.3500 C   0  0  0  0  0  0  0  0  0  0  0  0
   49.2110   30.1450   49.3020 C   0  0  0  0  0  0  0  0  0  0  0  0
   49.9330   29.6420   50.3170 N   0  0  0  0  0  0  0  0  0  0  0  0
   50.3900   28.3800   50.2830 C   0  0  0  0  0  0  0  0  0  0  0  0
   50.1140   27.5860   49.1920 C   0  0  0  0  0  0  0  0  0  0  0  0
   49.3770   28.0980   48.1560 C   0  0  0  0  0  0  0  0  0  0  0  0
   48.8940   29.4170   48.1800 C   0  0  0  0  0  0  0  0  0  0  0  0
   48.1520   29.9200   47.1230 C   0  0  0  0  0  0  0  0  0  0  0  0
   45.9705   33.5890   47.4976 H   0  0  0  0  0  0  0  0  0  0  0  0
   44.6254   32.6451   46.8051 H   0  0  0  0  0  0  0  0  0  0  0  0
   43.7510   37.0189   44.9096 H   0  0  0  0  0  0  0  0  0  0  0  0
   45.0253   36.7824   42.7400 H   0  0  0  0  0  0  0  0  0  0  0  0
   48.4101   35.9309   42.6881 H   0  0  0  0  0  0  0  0  0  0  0  0
   49.6358   35.6264   40.5933 H   0  0  0  0  0  0  0  0  0  0  0  0
   48.6505   34.2445   38.7685 H   0  0  0  0  0  0  0  0  0  0  0  0
   46.4130   33.1938   39.1256 H   0  0  0  0  0  0  0  0  0  0  0  0
   47.6419   33.0410   48.3748 H   0  0  0  0  0  0  0  0  0  0  0  0
   48.9754   32.0761   50.2303 H   0  0  0  0  0  0  0  0  0  0  0  0
   50.9812   27.9827   51.1213 H   0  0  0  0  0  0  0  0  0  0  0  0
   50.4818   26.5501   49.1524 H   0  0  0  0  0  0  0  0  0  0  0  0
   49.1587   27.4615   47.2858 H   0  0  0  0  0  0  0  0  0  0  0  0
   47.9184   29.3075   46.2397 H   0  0  0  0  0  0  0  0  0  0  0  0
  2  7  2  0
  3  2  1  0
  4  3  2  0
  4  5  1  0
  5  6  2  0
  6  7  1  0
  6  1  1  0
  9  8  1  0
  9 10  2  0
 10  4  1  0
 11 10  1  0
 12 11  2  0
 13 14  2  0
 13 12  1  0
 14  9  1  0
 15  1  1  0
 15 16  1  0
 16 17  2  0
 17 18  1  0
 19 18  2  0
 19 20  1  0
 21 20  2  0
 22 21  1  0
 23 24  1  0
 23 22  2  0
 24 19  1  0
 25 16  1  0
 25 24  2  0
  1 26  1  0
  1 27  1  0
  2 28  1  0
  3 29  1  0
 11 30  1  0
 12 31  1  0
 13 32  1  0
 14 33  1  0
 17 34  1  0
 18 35  1  0
 21 36  1  0
 22 37  1  0
 23 38  1  0
 25 39  1  0
M  ISO  8  26   8  27   8  28  14  29  14  30  14  31  14  32  14  33  14
M  ISO  6  34  14  35  14  36  14  37  14  38  14  39  14
M  END
>  <minimizedAffinity>  (1) 
-6.77521133

>  <minimizedRMSD>  (1) 
0.822451055

$$$$
