
     RDKit          3D

 37 39  0  0  0  0  0  0  0  0999 V2000
   47.6910   30.0860   44.9040 F   0  0  0  0  0  0  0  0  0  0  0  0
   47.5340   30.8530   46.0400 C   0  0  0  0  0  0  0  0  0  0  0  0
   46.9300   32.0830   45.9510 C   0  0  0  0  0  0  0  0  0  0  0  0
   46.8070   32.8010   47.1460 C   0  0  0  0  0  0  0  0  0  0  0  0
   47.2740   32.2780   48.3320 C   0  0  0  0  0  0  0  0  0  0  0  0
   47.8740   31.0300   48.3570 C   0  0  0  0  0  0  0  0  0  0  0  0
   48.0170   30.2890   47.2040 C   0  0  0  0  0  0  0  0  0  0  0  0
   46.4170   28.1200   47.6240 F   0  0  0  0  0  0  0  0  0  0  0  0
   47.7440   27.9410   47.4180 C   0  0  0  0  0  0  0  0  0  0  0  0
   48.6510   28.9560   47.1950 C   0  0  0  0  0  0  0  0  0  0  0  0
   49.9960   28.7280   46.9880 C   0  0  0  0  0  0  0  0  0  0  0  0
   50.4700   27.4150   47.0050 C   0  0  0  0  0  0  0  0  0  0  0  0
   49.5890   26.3550   47.2270 C   0  0  0  0  0  0  0  0  0  0  0  0
   48.2350   26.6350   47.4310 C   0  0  0  0  0  0  0  0  0  0  0  0
   46.7590   34.1290   42.9400 C   0  0  0  0  0  0  0  0  0  0  0  0
   45.6260   33.6900   42.2870 C   0  0  0  0  0  0  0  0  0  0  0  0
   44.8910   32.6470   42.9100 C   0  0  0  0  0  0  0  0  0  0  0  0
   45.3270   32.1430   44.0890 N   0  0  0  0  0  0  0  0  0  0  0  0
   46.4420   32.6140   44.6770 C   0  0  0  0  0  0  0  0  0  0  0  0
   47.1600   33.6100   44.1010 N   0  0  0  0  0  0  0  0  0  0  0  0
   45.2120   34.2870   41.0050 C   0  0  0  0  0  0  0  0  0  0  0  0
   44.8850   35.6200   41.1930 F   0  0  0  0  0  0  0  0  0  0  0  0
   46.3270   34.2690   40.1570 F   0  0  0  0  0  0  0  0  0  0  0  0
   44.1780   33.6720   40.3790 F   0  0  0  0  0  0  0  0  0  0  0  0
   47.4670   35.1350   42.3400 O   0  0  0  0  0  0  0  0  0  0  0  0
   48.7810   35.0730   41.8520 C   0  0  0  0  0  0  0  0  0  0  0  0
   49.6270   35.3830   42.9180 F   0  0  0  0  0  0  0  0  0  0  0  0
   49.0260   33.8220   41.3200 F   0  0  0  0  0  0  0  0  0  0  0  0
   48.9920   36.0840   40.9420 F   0  0  0  0  0  0  0  0  0  0  0  0
   46.3325   33.7934   47.1383 H   0  0  0  0  0  0  0  0  0  0  0  0
   47.1698   32.8542   49.2632 H   0  0  0  0  0  0  0  0  0  0  0  0
   48.2417   30.6244   49.3111 H   0  0  0  0  0  0  0  0  0  0  0  0
   50.6842   29.5679   46.8123 H   0  0  0  0  0  0  0  0  0  0  0  0
   51.5395   27.2153   46.8432 H   0  0  0  0  0  0  0  0  0  0  0  0
   49.9542   25.3175   47.2411 H   0  0  0  0  0  0  0  0  0  0  0  0
   47.5373   25.8029   47.6066 H   0  0  0  0  0  0  0  0  0  0  0  0
   43.9778   32.2528   42.4403 H   0  0  0  0  0  0  0  0  0  0  0  0
  1  2  1  0
  2  7  2  0
  3  2  1  0
  3  4  2  0
  4  5  1  0
  5  6  2  0
  7  6  1  0
  9 14  2  0
  9  8  1  0
 10  7  1  0
 10  9  1  0
 11 12  1  0
 11 10  2  0
 12 13  2  0
 13 14  1  0
 15 20  2  0
 16 17  2  0
 16 15  1  0
 17 18  1  0
 18 19  2  0
 19  3  1  0
 20 19  1  0
 21 22  1  0
 21 16  1  0
 23 21  1  0
 24 21  1  0
 25 15  1  0
 26 25  1  0
 26 27  1  0
 28 26  1  0
 29 26  1  0
  4 30  1  0
  5 31  1  0
  6 32  1  0
 11 33  1  0
 12 34  1  0
 13 35  1  0
 14 36  1  0
 17 37  1  0
M  ISO  8  30  14  31  14  32  14  33  14  34  14  35  14  36  14  37  14
M  END
>  <minimizedAffinity>  (1) 
-5.77191496

>  <minimizedRMSD>  (1) 
0.837934256

$$$$
