
     RDKit          3D

 33 35  0  0  1  0  0  0  0  0999 V2000
   45.1360   34.4420   41.4510 C   0  0  2  0  0  0  0  0  0  0  0  0
   44.0380   33.6130   40.8470 C   0  0  0  0  0  0  0  0  0  0  0  0
   44.5970   33.3820   39.4520 C   0  0  0  0  0  0  0  0  0  0  0  0
   46.1160   33.3610   39.6290 C   0  0  0  0  0  0  0  0  0  0  0  0
   46.3140   33.5600   41.1010 C   0  0  1  0  0  0  0  0  0  0  0  0
   44.5300   36.0390   44.8010 C   0  0  0  0  0  0  0  0  0  0  0  0
   44.6050   35.9270   43.4100 C   0  0  0  0  0  0  0  0  0  0  0  0
   45.0190   34.7110   42.8850 C   0  0  0  0  0  0  0  0  0  0  0  0
   45.3290   33.6950   43.7530 N   0  0  0  0  0  0  0  0  0  0  0  0
   45.2480   33.8280   45.0870 C   0  0  0  0  0  0  0  0  0  0  0  0
   44.8470   35.0020   45.6200 N   0  0  0  0  0  0  0  0  0  0  0  0
   48.3060   31.9730   42.5490 F   0  0  0  0  0  0  0  0  0  0  0  0
   48.5610   33.2670   42.2450 C   0  0  0  0  0  0  0  0  0  0  0  0
   47.6100   33.9650   41.5660 C   0  0  0  0  0  0  0  0  0  0  0  0
   48.0420   35.2850   41.3280 C   0  0  0  0  0  0  0  0  0  0  0  0
   49.2430   35.8200   41.7110 C   0  0  0  0  0  0  0  0  0  0  0  0
   50.1280   35.0290   42.3910 C   0  0  0  0  0  0  0  0  0  0  0  0
   49.7920   33.7200   42.6710 C   0  0  0  0  0  0  0  0  0  0  0  0
   45.1707   35.4751   41.0748 H   0  0  0  0  0  0  0  0  0  0  0  0
   43.8987   32.6666   41.3901 H   0  0  0  0  0  0  0  0  0  0  0  0
   43.0442   34.0840   40.8693 H   0  0  0  0  0  0  0  0  0  0  0  0
   44.2983   34.1972   38.7766 H   0  0  0  0  0  0  0  0  0  0  0  0
   44.2213   32.4488   39.0071 H   0  0  0  0  0  0  0  0  0  0  0  0
   46.5337   32.3962   39.3055 H   0  0  0  0  0  0  0  0  0  0  0  0
   46.6224   34.1296   39.0267 H   0  0  0  0  0  0  0  0  0  0  0  0
   46.3242   32.6097   41.6549 H   0  0  0  0  0  0  0  0  0  0  0  0
   44.2058   36.9919   45.2447 H   0  0  0  0  0  0  0  0  0  0  0  0
   44.3453   36.7719   42.7552 H   0  0  0  0  0  0  0  0  0  0  0  0
   45.5073   32.9838   45.7428 H   0  0  0  0  0  0  0  0  0  0  0  0
   47.3511   35.9464   40.7847 H   0  0  0  0  0  0  0  0  0  0  0  0
   49.4913   36.8656   41.4764 H   0  0  0  0  0  0  0  0  0  0  0  0
   51.0995   35.4329   42.7120 H   0  0  0  0  0  0  0  0  0  0  0  0
   50.4830   33.0600   43.2158 H   0  0  0  0  0  0  0  0  0  0  0  0
  1  8  1  0
  2  1  1  0
  3  4  1  0
  3  2  1  0
  4  5  1  0
  5  1  1  0
  5 14  1  0
  6 11  2  0
  7  6  1  0
  8  7  2  0
  8  9  1  0
  9 10  2  0
 10 11  1  0
 13 12  1  0
 13 18  2  0
 14 13  1  0
 15 14  2  0
 15 16  1  0
 16 17  2  0
 17 18  1  0
  1 19  1  6
  2 20  1  0
  2 21  1  0
  3 22  1  0
  3 23  1  0
  4 24  1  0
  4 25  1  0
  5 26  1  1
  6 27  1  0
  7 28  1  0
 10 29  1  0
 15 30  1  0
 16 31  1  0
 17 32  1  0
 18 33  1  0
M  ISO  8  19  13  20  13  21  13  22  13  23  13  24  13  25  13  26  13
M  ISO  7  27  14  28  14  29  14  30  14  31  14  32  14  33  14
M  END
>  <minimizedAffinity>  (1) 
-5.51094246

>  <minimizedRMSD>  (1) 
2.93038821

$$$$
