
     RDKit          3D

 31 33  0  0  0  0  0  0  0  0999 V2000
   44.0410   34.2260   42.1550 C   0  0  0  0  0  0  0  0  0  0  0  0
   44.1940   35.4780   42.7610 C   0  0  0  0  0  0  0  0  0  0  0  0
   45.4850   36.0120   42.8810 C   0  0  0  0  0  0  0  0  0  0  0  0
   46.5280   35.2800   42.3970 N   0  0  0  0  0  0  0  0  0  0  0  0
   46.3380   34.0790   41.8210 C   0  0  0  0  0  0  0  0  0  0  0  0
   45.1070   33.5250   41.6840 N   0  0  0  0  0  0  0  0  0  0  0  0
   47.0710   34.0470   39.1200 F   0  0  0  0  0  0  0  0  0  0  0  0
   47.8260   33.3570   39.9830 C   0  0  0  0  0  0  0  0  0  0  0  0
   47.5000   33.3470   41.3240 C   0  0  0  0  0  0  0  0  0  0  0  0
   48.2810   32.6350   42.2130 C   0  0  0  0  0  0  0  0  0  0  0  0
   49.3950   31.9130   41.8450 C   0  0  0  0  0  0  0  0  0  0  0  0
   49.7340   31.9180   40.4890 C   0  0  0  0  0  0  0  0  0  0  0  0
   48.9420   32.6350   39.6160 C   0  0  0  0  0  0  0  0  0  0  0  0
   42.3550   33.6230   42.0470 S   0  0  0  0  0  0  0  0  0  0  0  0
   40.2830   35.4190   40.3930 Cl  0  0  0  0  0  0  0  0  0  0  0  0
   40.9720   33.9980   39.6190 C   0  0  0  0  0  0  0  0  0  0  0  0
   41.8440   33.2920   40.3950 C   0  0  0  0  0  0  0  0  0  0  0  0
   42.4260   32.1520   39.8390 C   0  0  0  0  0  0  0  0  0  0  0  0
   42.0950   31.7880   38.5300 C   0  0  0  0  0  0  0  0  0  0  0  0
   41.2090   32.5070   37.7430 C   0  0  0  0  0  0  0  0  0  0  0  0
   40.6490   33.6360   38.3310 C   0  0  0  0  0  0  0  0  0  0  0  0
   39.5140   34.6340   37.4460 Cl  0  0  0  0  0  0  0  0  0  0  0  0
   43.3202   36.0315   43.1353 H   0  0  0  0  0  0  0  0  0  0  0  0
   45.6511   36.9923   43.3516 H   0  0  0  0  0  0  0  0  0  0  0  0
   47.9973   32.6450   43.2757 H   0  0  0  0  0  0  0  0  0  0  0  0
   49.9906   31.3578   42.5846 H   0  0  0  0  0  0  0  0  0  0  0  0
   50.6118   31.3632   40.1263 H   0  0  0  0  0  0  0  0  0  0  0  0
   49.2205   32.6304   38.5519 H   0  0  0  0  0  0  0  0  0  0  0  0
   43.1359   31.5476   40.4228 H   0  0  0  0  0  0  0  0  0  0  0  0
   42.5605   30.8870   38.1040 H   0  0  0  0  0  0  0  0  0  0  0  0
   40.9635   32.2028   36.7148 H   0  0  0  0  0  0  0  0  0  0  0  0
  1  2  2  0
  2  3  1  0
  4  3  2  0
  5  4  1  0
  6  5  2  0
  6  1  1  0
  7  8  1  0
  8  9  2  0
  9  5  1  0
  9 10  1  0
 11 10  2  0
 12 11  1  0
 13  8  1  0
 13 12  2  0
 14  1  1  0
 16 15  1  0
 16 17  2  0
 17 14  1  0
 18 17  1  0
 19 18  2  0
 20 21  2  0
 20 19  1  0
 21 16  1  0
 22 21  1  0
  2 23  1  0
  3 24  1  0
 10 25  1  0
 11 26  1  0
 12 27  1  0
 13 28  1  0
 18 29  1  0
 19 30  1  0
 20 31  1  0
M  ISO  8  23  14  24  14  25  14  26  14  27  14  28  14  29  14  30  14
M  ISO  1  31  14
M  END
>  <minimizedAffinity>  (1) 
-4.30834436

>  <minimizedRMSD>  (1) 
5.83186388

$$$$
