
     RDKit          3D

 23 24  0  0  0  0  0  0  0  0999 V2000
   44.4390   36.0150   44.8230 C   0  0  0  0  0  0  0  0  0  0  0  0
   45.1220   35.9590   43.5750 C   0  0  0  0  0  0  0  0  0  0  0  0
   46.0030   34.9090   43.3700 C   0  0  0  0  0  0  0  0  0  0  0  0
   46.1590   34.0040   44.3630 N   0  0  0  0  0  0  0  0  0  0  0  0
   45.5060   34.0790   45.5260 C   0  0  0  0  0  0  0  0  0  0  0  0
   44.6460   35.0780   45.7670 N   0  0  0  0  0  0  0  0  0  0  0  0
   45.0260   33.4050   41.2730 F   0  0  0  0  0  0  0  0  0  0  0  0
   46.2210   34.0050   41.1040 C   0  0  0  0  0  0  0  0  0  0  0  0
   46.7470   34.7660   42.1250 C   0  0  0  0  0  0  0  0  0  0  0  0
   47.9700   35.3460   41.8750 C   0  0  0  0  0  0  0  0  0  0  0  0
   48.6640   35.2060   40.6960 C   0  0  0  0  0  0  0  0  0  0  0  0
   48.1110   34.4290   39.6760 C   0  0  0  0  0  0  0  0  0  0  0  0
   46.8860   33.8410   39.9090 C   0  0  0  0  0  0  0  0  0  0  0  0
   45.8510   32.9610   46.4590 C   0  0  0  0  0  0  0  0  0  0  0  0
   45.0130   32.9460   47.5550 F   0  0  0  0  0  0  0  0  0  0  0  0
   47.1520   33.0840   46.9110 F   0  0  0  0  0  0  0  0  0  0  0  0
   45.7750   31.7510   45.7820 F   0  0  0  0  0  0  0  0  0  0  0  0
   43.7325   36.8352   45.0184 H   0  0  0  0  0  0  0  0  0  0  0  0
   44.9562   36.7224   42.8006 H   0  0  0  0  0  0  0  0  0  0  0  0
   48.4207   35.9603   42.6684 H   0  0  0  0  0  0  0  0  0  0  0  0
   49.6383   35.6978   40.5588 H   0  0  0  0  0  0  0  0  0  0  0  0
   48.6351   34.2907   38.7188 H   0  0  0  0  0  0  0  0  0  0  0  0
   46.4282   33.2254   39.1207 H   0  0  0  0  0  0  0  0  0  0  0  0
  1  6  2  0
  2  1  1  0
  3  2  2  0
  3  4  1  0
  4  5  2  0
  5  6  1  0
  5 14  1  0
  8  7  1  0
  8  9  2  0
  9  3  1  0
 10  9  1  0
 11 10  2  0
 12 13  2  0
 12 11  1  0
 13  8  1  0
 14 16  1  0
 14 15  1  0
 17 14  1  0
  1 18  1  0
  2 19  1  0
 10 20  1  0
 11 21  1  0
 12 22  1  0
 13 23  1  0
M  ISO  6  18  14  19  14  20  14  21  14  22  14  23  14
M  END
>  <minimizedAffinity>  (1) 
-6.04737949

>  <minimizedRMSD>  (1) 
0.379303157

$$$$
