
     RDKit          3D

 43 46  0  0  0  0  0  0  0  0999 V2000
   48.3940   34.1090   42.1650 C   0  0  0  0  0  0  0  0  0  0  0  0
   49.5960   35.0290   42.3870 C   0  0  0  0  0  0  0  0  0  0  0  0
   49.5120   33.6970   42.9890 C   0  0  0  0  0  0  0  0  0  0  0  0
   48.3010   33.5760   40.7530 C   0  0  0  0  0  0  0  0  0  0  0  0
   48.1820   34.6520   39.6880 C   0  0  0  0  0  0  0  0  0  0  0  0
   48.2630   33.8880   38.3620 C   0  0  0  0  0  0  0  0  0  0  0  0
   47.0300   33.2540   38.2030 O   0  0  0  0  0  0  0  0  0  0  0  0
   47.0850   32.1720   39.1410 C   0  0  0  0  0  0  0  0  0  0  0  0
   47.0300   32.7580   40.5490 C   0  0  0  0  0  0  0  0  0  0  0  0
   46.4400   35.6360   42.3580 C   0  0  0  0  0  0  0  0  0  0  0  0
   47.1290   34.5360   42.8250 C   0  0  0  0  0  0  0  0  0  0  0  0
   46.5470   33.8380   43.9020 C   0  0  0  0  0  0  0  0  0  0  0  0
   45.3760   34.2720   44.4060 N   0  0  0  0  0  0  0  0  0  0  0  0
   44.7480   35.3430   43.9170 C   0  0  0  0  0  0  0  0  0  0  0  0
   45.2470   36.0210   42.9190 N   0  0  0  0  0  0  0  0  0  0  0  0
   43.5380   35.8130   44.4840 N   0  0  0  0  0  0  0  0  0  0  0  0
   47.4380   31.1560   43.0520 F   0  0  0  0  0  0  0  0  0  0  0  0
   47.3310   31.3150   44.4110 C   0  0  0  0  0  0  0  0  0  0  0  0
   47.0280   32.6360   44.5600 C   0  0  0  0  0  0  0  0  0  0  0  0
   46.9060   33.0280   45.9230 C   0  0  0  0  0  0  0  0  0  0  0  0
   47.0650   32.1710   47.0130 C   0  0  0  0  0  0  0  0  0  0  0  0
   47.3720   30.8300   46.7700 C   0  0  0  0  0  0  0  0  0  0  0  0
   47.4970   30.4340   45.4730 C   0  0  0  0  0  0  0  0  0  0  0  0
   50.3043   35.2255   41.5686 H   0  0  0  0  0  0  0  0  0  0  0  0
   49.7493   36.0543   42.7548 H   0  0  0  0  0  0  0  0  0  0  0  0
   49.3761   33.6030   44.0765 H   0  0  0  0  0  0  0  0  0  0  0  0
   50.1752   32.8194   42.9821 H   0  0  0  0  0  0  0  0  0  0  0  0
   49.2325   33.0011   40.6448 H   0  0  0  0  0  0  0  0  0  0  0  0
   47.2211   35.1804   39.7745 H   0  0  0  0  0  0  0  0  0  0  0  0
   48.9654   35.4189   39.7781 H   0  0  0  0  0  0  0  0  0  0  0  0
   48.4435   34.5851   37.5305 H   0  0  0  0  0  0  0  0  0  0  0  0
   49.0896   33.1623   38.3669 H   0  0  0  0  0  0  0  0  0  0  0  0
   46.2290   31.4993   38.9840 H   0  0  0  0  0  0  0  0  0  0  0  0
   48.0132   31.5978   39.0045 H   0  0  0  0  0  0  0  0  0  0  0  0
   46.1461   33.4045   40.6528 H   0  0  0  0  0  0  0  0  0  0  0  0
   46.9587   31.9575   41.3001 H   0  0  0  0  0  0  0  0  0  0  0  0
   46.8541   36.2160   41.5201 H   0  0  0  0  0  0  0  0  0  0  0  0
   43.0719   36.6421   44.0887 H   0  0  0  0  0  0  0  0  0  0  0  0
   43.1243   35.3257   45.2916 H   0  0  0  0  0  0  0  0  0  0  0  0
   46.6695   34.0817   46.1321 H   0  0  0  0  0  0  0  0  0  0  0  0
   46.9510   32.5436   48.0417 H   0  0  0  0  0  0  0  0  0  0  0  0
   47.5081   30.1185   47.5978 H   0  0  0  0  0  0  0  0  0  0  0  0
   47.7373   29.3821   45.2589 H   0  0  0  0  0  0  0  0  0  0  0  0
  1  2  1  0
  1 11  1  0
  1  3  1  0
  2  3  1  0
  4  1  1  0
  5  4  1  0
  6  5  1  0
  7  6  1  0
  7  8  1  0
  8  9  1  0
  9  4  1  0
 10 11  2  0
 10 15  1  0
 11 12  1  0
 12 13  2  0
 12 19  1  0
 14 13  1  0
 14 16  1  0
 15 14  2  0
 17 18  1  0
 18 19  2  0
 18 23  1  0
 19 20  1  0
 20 21  2  0
 22 21  1  0
 23 22  2  0
  2 24  1  0
  2 25  1  0
  3 26  1  0
  3 27  1  0
  4 28  1  0
  5 29  1  0
  5 30  1  0
  6 31  1  0
  6 32  1  0
  8 33  1  0
  8 34  1  0
  9 35  1  0
  9 36  1  0
 10 37  1  0
 16 38  1  0
 16 39  1  0
 20 40  1  0
 21 41  1  0
 22 42  1  0
 23 43  1  0
M  ISO  8  24  13  25  13  26  13  27  13  28  13  29  13  30  13  31  13
M  ISO  8  32  13  33  13  34  13  35  13  36  13  37  14  40  14  41  14
M  ISO  2  42  14  43  14
M  END
>  <minimizedAffinity>  (1) 
-5.99187517

>  <minimizedRMSD>  (1) 
1.11998141

$$$$
