
     RDKit          3D

 44 46  0  0  1  0  0  0  0  0999 V2000
   47.2000   33.0870   43.7050 C   0  0  2  0  0  0  0  0  0  0  0  0
   46.5670   34.4180   43.8290 C   0  0  0  0  0  0  0  0  0  0  0  0
   45.2300   34.2960   44.4980 C   0  0  0  0  0  0  0  0  0  0  0  0
   45.3310   33.9280   45.8360 O   0  0  0  0  0  0  0  0  0  0  0  0
   46.4660   33.1820   46.0550 C   0  0  0  0  0  0  0  0  0  0  0  0
   46.7550   32.2530   44.8940 C   0  0  1  0  0  0  0  0  0  0  0  0
   46.4320   30.4070   46.8940 F   0  0  0  0  0  0  0  0  0  0  0  0
   45.7140   30.2390   45.7330 C   0  0  0  0  0  0  0  0  0  0  0  0
   45.8440   31.1700   44.6860 C   0  0  0  0  0  0  0  0  0  0  0  0
   45.0540   30.8420   43.6070 C   0  0  0  0  0  0  0  0  0  0  0  0
   44.2180   29.7660   43.4850 C   0  0  0  0  0  0  0  0  0  0  0  0
   44.1320   28.8880   44.5450 C   0  0  0  0  0  0  0  0  0  0  0  0
   44.8890   29.1380   45.6670 C   0  0  0  0  0  0  0  0  0  0  0  0
   48.5310   33.0610   43.5350 O   0  0  0  0  0  0  0  0  0  0  0  0
   50.1130   33.1540   41.4430 O   0  0  0  0  0  0  0  0  0  0  0  0
   49.1960   33.9320   42.3020 P   0  0  2  0  0  0  0  0  0  0  0  0
   50.1040   35.2040   42.9810 O   0  0  0  0  0  0  0  0  0  0  0  0
   47.9580   34.6620   41.3490 O   0  0  0  0  0  0  0  0  0  0  0  0
   46.7600   33.4850   39.6940 C   0  0  0  0  0  0  0  0  0  0  0  0
   47.7870   34.3400   40.0190 C   0  0  0  0  0  0  0  0  0  0  0  0
   48.6110   34.8440   38.9800 C   0  0  0  0  0  0  0  0  0  0  0  0
   48.3360   34.4520   37.7220 N   0  0  0  0  0  0  0  0  0  0  0  0
   47.3290   33.6200   37.4430 C   0  0  0  0  0  0  0  0  0  0  0  0
   46.5470   33.1440   38.4490 N   0  0  0  0  0  0  0  0  0  0  0  0
   44.5900   33.4710   40.9150 C   0  0  0  0  0  0  0  0  0  0  0  0
   44.4910   34.7470   40.9280 O   0  0  0  0  0  0  0  0  0  0  0  0
   45.7180   32.7470   40.3130 N   0  0  0  0  0  0  0  0  0  0  0  0
   46.8515   32.6605   42.7528 H   0  0  0  0  0  0  0  0  0  0  0  0
   47.2149   35.0739   44.4290 H   0  0  0  0  0  0  0  0  0  0  0  0
   46.4279   34.8441   42.8244 H   0  0  0  0  0  0  0  0  0  0  0  0
   44.7164   35.2669   44.4378 H   0  0  0  0  0  0  0  0  0  0  0  0
   44.6687   33.5061   43.9775 H   0  0  0  0  0  0  0  0  0  0  0  0
   47.3200   33.8622   46.1891 H   0  0  0  0  0  0  0  0  0  0  0  0
   46.3069   32.5694   46.9546 H   0  0  0  0  0  0  0  0  0  0  0  0
   47.6073   31.6071   45.1518 H   0  0  0  0  0  0  0  0  0  0  0  0
   45.1004   31.5230   42.7444 H   0  0  0  0  0  0  0  0  0  0  0  0
   43.6316   29.6058   42.5682 H   0  0  0  0  0  0  0  0  0  0  0  0
   43.4736   28.0082   44.4949 H   0  0  0  0  0  0  0  0  0  0  0  0
   44.8344   28.4490   46.5228 H   0  0  0  0  0  0  0  0  0  0  0  0
   50.0638   35.1476   43.9686 H   0  0  0  0  0  0  0  0  0  0  0  0
   49.4439   35.5298   39.1945 H   0  0  0  0  0  0  0  0  0  0  0  0
   47.1327   33.3207   36.4029 H   0  0  0  0  0  0  0  0  0  0  0  0
   43.7853   32.8832   41.3808 H   0  0  0  0  0  0  0  0  0  0  0  0
   45.7519   31.7179   40.3399 H   0  0  0  0  0  0  0  0  0  0  0  0
  1  2  1  0
  1  6  1  0
  2  3  1  0
  3  4  1  0
  4  5  1  0
  6  5  1  0
  8  7  1  0
  9  6  1  0
  9  8  2  0
 10  9  1  0
 11 10  2  0
 11 12  1  0
 12 13  2  0
 13  8  1  0
 14  1  1  0
 16 15  2  0
 16 17  1  0
 16 14  1  0
 18 16  1  0
 19 20  2  0
 19 27  1  0
 20 18  1  0
 21 20  1  0
 22 21  2  0
 23 22  1  0
 23 24  2  0
 24 19  1  0
 25 26  2  0
 27 25  1  0
  1 28  1  6
  2 29  1  0
  2 30  1  0
  3 31  1  0
  3 32  1  0
  5 33  1  0
  5 34  1  0
  6 35  1  1
 10 36  1  0
 11 37  1  0
 12 38  1  0
 13 39  1  0
 17 40  1  0
 21 41  1  0
 23 42  1  0
 25 43  1  0
 27 44  1  0
M  ISO  8  28  13  29  13  30  13  31  13  32  13  33  13  34  13  35  13
M  ISO  8  36  14  37  14  38  14  39  14  40   3  41  14  42  14  43   6
M  END
>  <minimizedAffinity>  (1) 
-5.48552132

>  <minimizedRMSD>  (1) 
5.58473063

$$$$
