
     RDKit          3D

 45 48  0  0  1  0  0  0  0  0999 V2000
   44.5750   35.5830   44.6020 C   0  0  0  0  0  0  0  0  0  0  0  0
   45.2370   35.5970   43.3540 C   0  0  0  0  0  0  0  0  0  0  0  0
   46.3290   34.6890   43.1760 C   0  0  0  0  0  0  0  0  0  0  0  0
   46.6690   33.8700   44.2040 N   0  0  0  0  0  0  0  0  0  0  0  0
   46.0100   33.8920   45.3720 C   0  0  0  0  0  0  0  0  0  0  0  0
   44.9600   34.7470   45.5810 N   0  0  0  0  0  0  0  0  0  0  0  0
   46.4340   32.9730   46.4600 C   0  0  2  0  0  0  0  0  0  0  0  0
   46.9670   31.7440   45.7780 C   0  0  0  0  0  0  0  0  0  0  0  0
   46.0890   30.5560   45.7840 C   0  0  0  0  0  0  0  0  0  0  0  0
   45.7830   30.3000   47.2570 C   0  0  0  0  0  0  0  0  0  0  0  0
   44.9980   31.3640   47.8590 C   0  0  0  0  0  0  0  0  0  0  0  0
   45.3720   32.7350   47.4130 C   0  0  0  0  0  0  0  0  0  0  0  0
   44.6780   33.8810   47.9250 N   0  0  0  0  0  0  0  0  0  0  0  0
   47.0280   34.6780   41.9070 C   0  0  0  0  0  0  0  0  0  0  0  0
   48.1710   35.3990   41.7810 C   0  0  0  0  0  0  0  0  0  0  0  0
   48.8070   35.3600   40.5360 C   0  0  0  0  0  0  0  0  0  0  0  0
   48.2150   34.5950   39.5550 C   0  0  0  0  0  0  0  0  0  0  0  0
   47.0680   33.8710   39.6800 C   0  0  0  0  0  0  0  0  0  0  0  0
   46.4840   33.9440   40.9200 N   0  0  0  0  0  0  0  0  0  0  0  0
   47.5250   34.4400   37.0160 F   0  0  0  0  0  0  0  0  0  0  0  0
   46.7130   33.3870   37.3120 C   0  0  0  0  0  0  0  0  0  0  0  0
   46.4570   33.0670   38.6280 C   0  0  0  0  0  0  0  0  0  0  0  0
   45.6340   32.0010   38.9190 C   0  0  0  0  0  0  0  0  0  0  0  0
   45.0360   31.2140   37.9300 C   0  0  0  0  0  0  0  0  0  0  0  0
   45.3050   31.5500   36.6220 C   0  0  0  0  0  0  0  0  0  0  0  0
   46.1260   32.6130   36.3030 C   0  0  0  0  0  0  0  0  0  0  0  0
   43.7312   36.2672   44.7750 H   0  0  0  0  0  0  0  0  0  0  0  0
   44.9251   36.2797   42.5498 H   0  0  0  0  0  0  0  0  0  0  0  0
   47.2263   33.4063   47.0881 H   0  0  0  0  0  0  0  0  0  0  0  0
   47.9082   31.4670   46.2754 H   0  0  0  0  0  0  0  0  0  0  0  0
   47.0756   32.0215   44.7191 H   0  0  0  0  0  0  0  0  0  0  0  0
   45.1627   30.7567   45.2257 H   0  0  0  0  0  0  0  0  0  0  0  0
   46.5640   29.6881   45.3033 H   0  0  0  0  0  0  0  0  0  0  0  0
   45.2219   29.3576   47.3414 H   0  0  0  0  0  0  0  0  0  0  0  0
   46.7427   30.2510   47.7924 H   0  0  0  0  0  0  0  0  0  0  0  0
   44.1936   31.1728   48.5845 H   0  0  0  0  0  0  0  0  0  0  0  0
   43.9147   33.7592   48.6058 H   0  0  0  0  0  0  0  0  0  0  0  0
   44.9429   34.8258   47.6119 H   0  0  0  0  0  0  0  0  0  0  0  0
   48.5776   35.9858   42.6179 H   0  0  0  0  0  0  0  0  0  0  0  0
   49.7380   35.9151   40.3485 H   0  0  0  0  0  0  0  0  0  0  0  0
   48.7169   34.5661   38.5766 H   0  0  0  0  0  0  0  0  0  0  0  0
   45.4391   31.7588   39.9742 H   0  0  0  0  0  0  0  0  0  0  0  0
   44.3820   30.3670   38.1846 H   0  0  0  0  0  0  0  0  0  0  0  0
   44.8550   30.9573   35.8120 H   0  0  0  0  0  0  0  0  0  0  0  0
   46.3208   32.8541   35.2476 H   0  0  0  0  0  0  0  0  0  0  0  0
  1  6  2  0
  2  1  1  0
  3  2  2  0
  3  4  1  0
  4  5  2  0
  5  6  1  0
  5  7  1  0
  7 12  1  0
  8  9  1  0
  8  7  1  0
  9 10  1  0
 10 11  1  0
 12 11  2  0
 12 13  1  0
 14  3  1  0
 15 14  2  0
 16 15  1  0
 17 18  1  0
 17 16  2  0
 18 19  2  0
 19 14  1  0
 20 21  1  0
 21 22  2  0
 22 23  1  0
 22 18  1  0
 24 23  2  0
 25 24  1  0
 26 25  2  0
 26 21  1  0
  1 27  1  0
  2 28  1  0
  7 29  1  1
  8 30  1  0
  8 31  1  0
  9 32  1  0
  9 33  1  0
 10 34  1  0
 10 35  1  0
 11 36  1  0
 13 37  1  0
 13 38  1  0
 15 39  1  0
 16 40  1  0
 17 41  1  0
 23 42  1  0
 24 43  1  0
 25 44  1  0
 26 45  1  0
M  END
>  <minimizedAffinity>  (1) 
-7.67468166

>  <minimizedRMSD>  (1) 
0.126624748

$$$$
