
     RDKit          3D

 33 36  0  0  0  0  0  0  0  0999 V2000
   46.0870   33.2960   39.4720 C   0  0  0  0  0  0  0  0  0  0  0  0
   46.1350   33.6810   40.8070 C   0  0  0  0  0  0  0  0  0  0  0  0
   45.0110   33.7160   41.6090 C   0  0  0  0  0  0  0  0  0  0  0  0
   43.7620   33.3600   41.1010 C   0  0  0  0  0  0  0  0  0  0  0  0
   42.4930   33.2780   41.5680 N   0  0  0  0  0  0  0  0  0  0  0  0
   41.6820   32.8570   40.5670 C   0  0  0  0  0  0  0  0  0  0  0  0
   42.4680   32.6830   39.4820 N   0  0  0  0  0  0  0  0  0  0  0  0
   43.7470   32.9820   39.7690 C   0  0  0  0  0  0  0  0  0  0  0  0
   44.8420   32.9350   38.9470 C   0  0  0  0  0  0  0  0  0  0  0  0
   49.0400   35.7090   41.7890 C   0  0  0  0  0  0  0  0  0  0  0  0
   49.8350   34.7580   42.4750 C   0  0  0  0  0  0  0  0  0  0  0  0
   49.3650   33.4440   42.5910 C   0  0  0  0  0  0  0  0  0  0  0  0
   48.1560   33.1620   42.0280 N   0  0  0  0  0  0  0  0  0  0  0  0
   47.4100   34.0630   41.3830 C   0  0  0  0  0  0  0  0  0  0  0  0
   47.8520   35.3350   41.2630 N   0  0  0  0  0  0  0  0  0  0  0  0
   44.3060   36.2920   42.1660 F   0  0  0  0  0  0  0  0  0  0  0  0
   44.6430   35.4420   43.1780 C   0  0  0  0  0  0  0  0  0  0  0  0
   45.0160   34.1170   43.0090 C   0  0  0  0  0  0  0  0  0  0  0  0
   45.3350   33.3480   44.1000 C   0  0  0  0  0  0  0  0  0  0  0  0
   45.2730   33.9370   45.3490 C   0  0  0  0  0  0  0  0  0  0  0  0
   44.9070   35.2450   45.5280 C   0  0  0  0  0  0  0  0  0  0  0  0
   44.5830   36.0260   44.4330 C   0  0  0  0  0  0  0  0  0  0  0  0
   46.9950   33.2760   38.8514 H   0  0  0  0  0  0  0  0  0  0  0  0
   42.1931   33.4997   42.5281 H   0  0  0  0  0  0  0  0  0  0  0  0
   40.5964   32.6897   40.6264 H   0  0  0  0  0  0  0  0  0  0  0  0
   44.7442   32.6204   37.8975 H   0  0  0  0  0  0  0  0  0  0  0  0
   49.3878   36.7473   41.6847 H   0  0  0  0  0  0  0  0  0  0  0  0
   50.8039   35.0465   42.9086 H   0  0  0  0  0  0  0  0  0  0  0  0
   49.9472   32.6715   43.1147 H   0  0  0  0  0  0  0  0  0  0  0  0
   45.6310   32.2949   43.9841 H   0  0  0  0  0  0  0  0  0  0  0  0
   45.5271   33.3328   46.2324 H   0  0  0  0  0  0  0  0  0  0  0  0
   44.8708   35.6735   46.5405 H   0  0  0  0  0  0  0  0  0  0  0  0
   44.2868   37.0783   44.5550 H   0  0  0  0  0  0  0  0  0  0  0  0
  1  2  2  0
  2 14  1  0
  2  3  1  0
  3 18  1  0
  4  5  1  0
  4  3  2  0
  6  5  1  0
  7  8  1  0
  7  6  2  0
  8  4  1  0
  9  1  1  0
  9  8  2  0
 10 11  2  0
 11 12  1  0
 13 12  2  0
 14 13  1  0
 15 14  2  0
 15 10  1  0
 16 17  1  0
 17 22  2  0
 18 17  1  0
 18 19  2  0
 19 20  1  0
 20 21  2  0
 22 21  1  0
  1 23  1  0
  5 24  1  0
  6 25  1  0
  9 26  1  0
 10 27  1  0
 11 28  1  0
 12 29  1  0
 19 30  1  0
 20 31  1  0
 21 32  1  0
 22 33  1  0
M  ISO  8  23  14  24   9  25  14  26  14  27  14  28  14  29  14  30  14
M  ISO  3  31  14  32  14  33  14
M  END
>  <minimizedAffinity>  (1) 
-5.90639782

>  <minimizedRMSD>  (1) 
5.31429052

$$$$
