
     RDKit          3D

 22 23  0  0  0  0  0  0  0  0999 V2000
   46.2590   34.7990   43.1950 C   0  0  0  0  0  0  0  0  0  0  0  0
   45.2880   35.7970   43.2930 C   0  0  0  0  0  0  0  0  0  0  0  0
   44.5490   35.8430   44.4810 C   0  0  0  0  0  0  0  0  0  0  0  0
   44.8180   34.9250   45.4570 N   0  0  0  0  0  0  0  0  0  0  0  0
   45.7660   33.9890   45.3000 C   0  0  0  0  0  0  0  0  0  0  0  0
   46.4970   33.9070   44.1820 N   0  0  0  0  0  0  0  0  0  0  0  0
   44.2970   34.0240   47.6100 F   0  0  0  0  0  0  0  0  0  0  0  0
   45.2410   33.0830   47.5390 C   0  0  0  0  0  0  0  0  0  0  0  0
   46.0040   33.0370   46.3830 C   0  0  0  0  0  0  0  0  0  0  0  0
   47.0030   32.0840   46.2430 C   0  0  0  0  0  0  0  0  0  0  0  0
   47.2970   31.1550   47.1990 C   0  0  0  0  0  0  0  0  0  0  0  0
   46.5430   31.1960   48.3480 C   0  0  0  0  0  0  0  0  0  0  0  0
   45.5530   32.1360   48.4930 C   0  0  0  0  0  0  0  0  0  0  0  0
   46.9950   34.7850   41.9610 C   0  0  0  0  0  0  0  0  0  0  0  0
   48.0720   35.3840   41.7160 O   0  0  0  0  0  0  0  0  0  0  0  0
   45.1121   36.5126   42.4763 H   0  0  0  0  0  0  0  0  0  0  0  0
   43.7672   36.6031   44.6261 H   0  0  0  0  0  0  0  0  0  0  0  0
   47.5891   32.0768   45.3122 H   0  0  0  0  0  0  0  0  0  0  0  0
   48.0958   30.4121   47.0574 H   0  0  0  0  0  0  0  0  0  0  0  0
   46.7338   30.4726   49.1544 H   0  0  0  0  0  0  0  0  0  0  0  0
   44.9726   32.1342   49.4274 H   0  0  0  0  0  0  0  0  0  0  0  0
   46.5698   34.1853   41.1427 H   0  0  0  0  0  0  0  0  0  0  0  0
  1  2  2  0
  1  6  1  0
  2  3  1  0
  3  4  2  0
  5  4  1  0
  5  9  1  0
  6  5  2  0
  8  7  1  0
  8 13  2  0
  9  8  1  0
 10  9  2  0
 10 11  1  0
 11 12  2  0
 12 13  1  0
 14  1  1  0
 15 14  2  0
  2 16  1  0
  3 17  1  0
 10 18  1  0
 11 19  1  0
 12 20  1  0
 13 21  1  0
 14 22  1  0
M  ISO  7  16  14  17  14  18  14  19  14  20  14  21  14  22   6
M  END
>  <minimizedAffinity>  (1) 
-5.1960845

>  <minimizedRMSD>  (1) 
0.538620472

$$$$
