
     RDKit          3D

 23 24  0  0  0  0  0  0  0  0999 V2000
   44.8020   35.1830   45.0230 C   0  0  0  0  0  0  0  0  0  0  0  0
   45.4960   35.2640   43.8050 C   0  0  0  0  0  0  0  0  0  0  0  0
   46.5290   34.3490   43.5900 C   0  0  0  0  0  0  0  0  0  0  0  0
   46.8040   33.4480   44.5500 N   0  0  0  0  0  0  0  0  0  0  0  0
   46.1230   33.3910   45.7070 C   0  0  0  0  0  0  0  0  0  0  0  0
   45.1080   34.2550   45.9730 N   0  0  0  0  0  0  0  0  0  0  0  0
   45.5640   32.8860   41.5530 F   0  0  0  0  0  0  0  0  0  0  0  0
   46.6100   33.7600   41.3820 C   0  0  0  0  0  0  0  0  0  0  0  0
   47.2140   34.5780   42.3320 C   0  0  0  0  0  0  0  0  0  0  0  0
   48.2540   35.3950   41.9770 C   0  0  0  0  0  0  0  0  0  0  0  0
   48.7030   35.4020   40.6760 C   0  0  0  0  0  0  0  0  0  0  0  0
   48.1210   34.6040   39.7440 C   0  0  0  0  0  0  0  0  0  0  0  0
   47.0680   33.7690   40.0620 C   0  0  0  0  0  0  0  0  0  0  0  0
   45.0340   36.3550   42.9200 C   0  0  0  0  0  0  0  0  0  0  0  0
   43.9839   35.8924   45.2169 H   0  0  0  0  0  0  0  0  0  0  0  0
   46.3924   32.6297   46.4539 H   0  0  0  0  0  0  0  0  0  0  0  0
   48.7286   36.0430   42.7285 H   0  0  0  0  0  0  0  0  0  0  0  0
   49.5383   36.0579   40.3894 H   0  0  0  0  0  0  0  0  0  0  0  0
   48.4975   34.6232   38.7106 H   0  0  0  0  0  0  0  0  0  0  0  0
   46.6030   33.1291   39.2977 H   0  0  0  0  0  0  0  0  0  0  0  0
   44.6774   37.1970   43.5315 H   0  0  0  0  0  0  0  0  0  0  0  0
   45.8675   36.6900   42.2851 H   0  0  0  0  0  0  0  0  0  0  0  0
   44.2134   35.9895   42.2851 H   0  0  0  0  0  0  0  0  0  0  0  0
  1  6  2  0
  2  1  1  0
  3  2  2  0
  3  4  1  0
  4  5  2  0
  5  6  1  0
  8  7  1  0
  8  9  2  0
  9  3  1  0
 10  9  1  0
 11 10  2  0
 12 13  2  0
 12 11  1  0
 13  8  1  0
 14  2  1  0
  1 15  1  0
  5 16  1  0
 10 17  1  0
 11 18  1  0
 12 19  1  0
 13 20  1  0
 14 21  1  0
 14 22  1  0
 14 23  1  0
M  ISO  8  15  14  16  14  17  14  18  14  19  14  20  14  21   8  22   8
M  ISO  1  23   8
M  END
>  <minimizedAffinity>  (1) 
-5.09574699

>  <minimizedRMSD>  (1) 
2.28320718

$$$$
