
     RDKit          3D

 27 29  0  0  0  0  0  0  0  0999 V2000
   48.5390   34.7980   41.8200 C   0  0  0  0  0  0  0  0  0  0  0  0
   49.2400   36.1030   41.8390 C   0  0  0  0  0  0  0  0  0  0  0  0
   49.9010   34.8940   42.4110 C   0  0  0  0  0  0  0  0  0  0  0  0
   46.1810   35.2770   42.5140 C   0  0  0  0  0  0  0  0  0  0  0  0
   47.3760   34.5860   42.7340 C   0  0  0  0  0  0  0  0  0  0  0  0
   47.4410   33.6960   43.8310 C   0  0  0  0  0  0  0  0  0  0  0  0
   46.3340   33.5640   44.6080 N   0  0  0  0  0  0  0  0  0  0  0  0
   45.2040   34.2350   44.3770 C   0  0  0  0  0  0  0  0  0  0  0  0
   45.1180   35.0950   43.3310 N   0  0  0  0  0  0  0  0  0  0  0  0
   49.1670   32.0120   41.6610 F   0  0  0  0  0  0  0  0  0  0  0  0
   48.7690   32.6690   40.5440 C   0  0  0  0  0  0  0  0  0  0  0  0
   48.4600   33.9970   40.5740 C   0  0  0  0  0  0  0  0  0  0  0  0
   48.0750   34.5150   39.3620 C   0  0  0  0  0  0  0  0  0  0  0  0
   47.9760   33.8430   38.1630 C   0  0  0  0  0  0  0  0  0  0  0  0
   48.3140   32.4860   38.2360 C   0  0  0  0  0  0  0  0  0  0  0  0
   48.7100   31.8880   39.4110 C   0  0  0  0  0  0  0  0  0  0  0  0
   49.6119   36.5411   40.9011 H   0  0  0  0  0  0  0  0  0  0  0  0
   49.0004   37.1089   42.2141 H   0  0  0  0  0  0  0  0  0  0  0  0
   50.0373   34.8032   43.4987 H   0  0  0  0  0  0  0  0  0  0  0  0
   50.8595   34.3790   42.2493 H   0  0  0  0  0  0  0  0  0  0  0  0
   46.1041   35.9759   41.6680 H   0  0  0  0  0  0  0  0  0  0  0  0
   48.3581   33.1288   44.0484 H   0  0  0  0  0  0  0  0  0  0  0  0
   44.3371   34.0901   45.0384 H   0  0  0  0  0  0  0  0  0  0  0  0
   47.8172   35.5842   39.3465 H   0  0  0  0  0  0  0  0  0  0  0  0
   47.6589   34.3304   37.2293 H   0  0  0  0  0  0  0  0  0  0  0  0
   48.2612   31.8763   37.3220 H   0  0  0  0  0  0  0  0  0  0  0  0
   48.9711   30.8200   39.4440 H   0  0  0  0  0  0  0  0  0  0  0  0
  1  2  1  0
  1  3  1  0
  1  5  1  0
  2  3  1  0
  4  5  2  0
  4  9  1  0
  5  6  1  0
  6  7  2  0
  8  7  1  0
  9  8  2  0
 11 12  2  0
 11 10  1  0
 12  1  1  0
 13 12  1  0
 14 15  1  0
 14 13  2  0
 15 16  2  0
 16 11  1  0
  2 17  1  0
  2 18  1  0
  3 19  1  0
  3 20  1  0
  4 21  1  0
  6 22  1  0
  8 23  1  0
 13 24  1  0
 14 25  1  0
 15 26  1  0
 16 27  1  0
M  ISO  8  17  13  18  13  19  13  20  13  21  14  22  14  23  14  24  14
M  ISO  3  25  14  26  14  27  14
M  END
>  <minimizedAffinity>  (1) 
-4.9292717

>  <minimizedRMSD>  (1) 
1.34476447

$$$$
