
     RDKit          3D

 42 44  0  0  1  0  0  0  0  0999 V2000
   48.2760   31.3040   48.4670 C   0  0  0  0  0  0  0  0  0  0  0  0
   48.8770   32.1470   49.2130 O   0  0  0  0  0  0  0  0  0  0  0  0
   49.1950   30.3030   48.8880 N   0  0  0  0  0  0  0  0  0  0  0  0
   49.3590   29.3420   47.7970 C   0  0  0  0  0  0  0  0  0  0  0  0
   50.2660   28.2560   48.3320 C   0  0  0  0  0  0  0  0  0  0  0  0
   49.8510   27.9010   49.7010 N   0  0  0  0  0  0  0  0  0  0  0  0
   50.4020   28.9100   50.5390 C   0  0  0  0  0  0  0  0  0  0  0  0
   49.8540   30.2450   50.1780 C   0  0  1  0  0  0  0  0  0  0  0  0
   51.9130   30.4410   48.2180 F   0  0  0  0  0  0  0  0  0  0  0  0
   51.9490   31.2600   49.2940 C   0  0  0  0  0  0  0  0  0  0  0  0
   50.9780   31.2170   50.2850 C   0  0  0  0  0  0  0  0  0  0  0  0
   51.0630   32.0620   51.3450 C   0  0  0  0  0  0  0  0  0  0  0  0
   52.0810   32.9970   51.5180 C   0  0  0  0  0  0  0  0  0  0  0  0
   53.0310   33.0000   50.4940 C   0  0  0  0  0  0  0  0  0  0  0  0
   52.9930   32.1640   49.3970 C   0  0  0  0  0  0  0  0  0  0  0  0
   47.2190   31.8310   47.7860 O   0  0  0  0  0  0  0  0  0  0  0  0
   44.7860   30.8200   47.6550 O   0  0  0  0  0  0  0  0  0  0  0  0
   45.6310   31.9880   48.2220 P   0  0  1  0  0  0  0  0  0  0  0  0
   45.4310   31.9430   49.8860 O   0  0  0  0  0  0  0  0  0  0  0  0
   44.9930   33.4200   47.5780 O   0  0  0  0  0  0  0  0  0  0  0  0
   46.6450   33.5460   44.3520 C   0  0  0  0  0  0  0  0  0  0  0  0
   46.2750   33.1530   45.6610 C   0  0  0  0  0  0  0  0  0  0  0  0
   45.3020   33.8530   46.3170 C   0  0  0  0  0  0  0  0  0  0  0  0
   44.7070   34.9140   45.7020 N   0  0  0  0  0  0  0  0  0  0  0  0
   45.0730   35.2760   44.4480 C   0  0  0  0  0  0  0  0  0  0  0  0
   46.0290   34.6080   43.7750 N   0  0  0  0  0  0  0  0  0  0  0  0
   49.8190   29.8289   46.9245 H   0  0  0  0  0  0  0  0  0  0  0  0
   48.3912   28.9342   47.4699 H   0  0  0  0  0  0  0  0  0  0  0  0
   50.1964   27.3685   47.6858 H   0  0  0  0  0  0  0  0  0  0  0  0
   51.3044   28.6186   48.3455 H   0  0  0  0  0  0  0  0  0  0  0  0
   48.8237   27.8930   49.7750 H   0  0  0  0  0  0  0  0  0  0  0  0
   50.1511   28.6871   51.5866 H   0  0  0  0  0  0  0  0  0  0  0  0
   51.4937   28.9260   50.4052 H   0  0  0  0  0  0  0  0  0  0  0  0
   49.0420   30.4941   50.8770 H   0  0  0  0  0  0  0  0  0  0  0  0
   50.2793   32.0044   52.1147 H   0  0  0  0  0  0  0  0  0  0  0  0
   52.1322   33.6730   52.3842 H   0  0  0  0  0  0  0  0  0  0  0  0
   53.8635   33.7153   50.5669 H   0  0  0  0  0  0  0  0  0  0  0  0
   53.7730   32.2144   48.6230 H   0  0  0  0  0  0  0  0  0  0  0  0
   46.2954   32.1375   50.3276 H   0  0  0  0  0  0  0  0  0  0  0  0
   47.4256   32.9946   43.8074 H   0  0  0  0  0  0  0  0  0  0  0  0
   46.7649   32.2946   46.1439 H   0  0  0  0  0  0  0  0  0  0  0  0
   44.5782   36.1342   43.9698 H   0  0  0  0  0  0  0  0  0  0  0  0
  1  3  1  0
  1  2  2  0
  3  8  1  0
  4  5  1  0
  4  3  1  0
  5  6  1  0
  6  7  1  0
  8 11  1  0
  8  7  1  0
  9 10  1  0
 10 15  2  0
 10 11  1  0
 11 12  2  0
 12 13  1  0
 14 13  2  0
 15 14  1  0
 16 18  1  0
 16  1  1  0
 18 17  2  0
 18 19  1  0
 20 18  1  0
 21 22  2  0
 22 23  1  0
 23 20  1  0
 24 23  2  0
 25 24  1  0
 26 21  1  0
 26 25  2  0
  4 27  1  0
  4 28  1  0
  5 29  1  0
  5 30  1  0
  6 31  1  0
  7 32  1  0
  7 33  1  0
  8 34  1  1
 12 35  1  0
 13 36  1  0
 14 37  1  0
 15 38  1  0
 19 39  1  0
 21 40  1  0
 22 41  1  0
 25 42  1  0
M  ISO  8  27  13  28  13  29  13  30  13  31   5  32  13  33  13  34  13
M  ISO  8  35  14  36  14  37  14  38  14  39   3  40  14  41  14  42  14
M  END
>  <minimizedAffinity>  (1) 
-6.17942762

>  <minimizedRMSD>  (1) 
1.08339179

$$$$
