
     RDKit          3D

 34 36  0  0  0  0  0  0  0  0999 V2000
   43.9180   35.3670   42.0360 C   0  0  0  0  0  0  0  0  0  0  0  0
   43.4050   34.7330   40.9130 C   0  0  0  0  0  0  0  0  0  0  0  0
   44.2960   34.0010   40.1150 C   0  0  0  0  0  0  0  0  0  0  0  0
   45.6150   33.9260   40.4480 N   0  0  0  0  0  0  0  0  0  0  0  0
   46.0680   34.5660   41.5570 C   0  0  0  0  0  0  0  0  0  0  0  0
   45.2410   35.2670   42.3280 N   0  0  0  0  0  0  0  0  0  0  0  0
   42.0350   34.8850   40.6600 N   0  0  0  0  0  0  0  0  0  0  0  0
   41.5820   34.7710   39.2980 C   0  0  0  0  0  0  0  0  0  0  0  0
   40.1220   35.1030   39.1460 C   0  0  0  0  0  0  0  0  0  0  0  0
   39.3090   34.3970   40.0810 N   0  0  0  0  0  0  0  0  0  0  0  0
   39.8090   34.2490   41.3970 C   0  0  0  0  0  0  0  0  0  0  0  0
   41.0120   35.1520   41.6280 C   0  0  0  0  0  0  0  0  0  0  0  0
   47.2100   32.2270   42.4290 F   0  0  0  0  0  0  0  0  0  0  0  0
   48.0400   33.2910   42.3180 C   0  0  0  0  0  0  0  0  0  0  0  0
   47.4980   34.4650   41.8870 C   0  0  0  0  0  0  0  0  0  0  0  0
   48.3540   35.5610   41.7740 C   0  0  0  0  0  0  0  0  0  0  0  0
   49.6740   35.4170   42.0910 C   0  0  0  0  0  0  0  0  0  0  0  0
   50.1980   34.2040   42.5290 C   0  0  0  0  0  0  0  0  0  0  0  0
   49.3640   33.1080   42.6480 C   0  0  0  0  0  0  0  0  0  0  0  0
   43.2532   35.9506   42.6898 H   0  0  0  0  0  0  0  0  0  0  0  0
   43.9282   33.4849   39.2159 H   0  0  0  0  0  0  0  0  0  0  0  0
   42.1675   35.4610   38.6727 H   0  0  0  0  0  0  0  0  0  0  0  0
   41.7210   33.7253   38.9862 H   0  0  0  0  0  0  0  0  0  0  0  0
   39.9861   36.1832   39.3031 H   0  0  0  0  0  0  0  0  0  0  0  0
   39.8110   34.8034   38.1343 H   0  0  0  0  0  0  0  0  0  0  0  0
   38.4097   34.8949   40.1463 H   0  0  0  0  0  0  0  0  0  0  0  0
   39.0179   34.5132   42.1142 H   0  0  0  0  0  0  0  0  0  0  0  0
   40.1230   33.2041   41.5372 H   0  0  0  0  0  0  0  0  0  0  0  0
   41.4121   34.9707   42.6365 H   0  0  0  0  0  0  0  0  0  0  0  0
   40.6936   36.2002   41.5284 H   0  0  0  0  0  0  0  0  0  0  0  0
   47.9685   36.5329   41.4324 H   0  0  0  0  0  0  0  0  0  0  0  0
   50.3432   36.2850   41.9976 H   0  0  0  0  0  0  0  0  0  0  0  0
   51.2660   34.1184   42.7781 H   0  0  0  0  0  0  0  0  0  0  0  0
   49.7413   32.1333   42.9910 H   0  0  0  0  0  0  0  0  0  0  0  0
  1  6  2  0
  2  1  1  0
  3  4  1  0
  3  2  2  0
  4  5  2  0
  5 15  1  0
  5  6  1  0
  7  2  1  0
  7 12  1  0
  8  7  1  0
  9  8  1  0
  9 10  1  0
 10 11  1  0
 11 12  1  0
 14 13  1  0
 14 19  2  0
 15 14  1  0
 16 15  2  0
 16 17  1  0
 17 18  2  0
 18 19  1  0
  1 20  1  0
  3 21  1  0
  8 22  1  0
  8 23  1  0
  9 24  1  0
  9 25  1  0
 10 26  1  0
 11 27  1  0
 11 28  1  0
 12 29  1  0
 12 30  1  0
 16 31  1  0
 17 32  1  0
 18 33  1  0
 19 34  1  0
M  ISO  8  20  14  21  14  22  13  23  13  24  13  25  13  26   5  27  13
M  ISO  7  28  13  29  13  30  13  31  14  32  14  33  14  34  14
M  END
>  <minimizedAffinity>  (1) 
-5.54393291

>  <minimizedRMSD>  (1) 
5.03193998

$$$$
