
     RDKit          3D

 23 24  0  0  0  0  0  0  0  0999 V2000
   44.5920   35.5020   45.0670 C   0  0  0  0  0  0  0  0  0  0  0  0
   45.2570   35.4040   43.8470 C   0  0  0  0  0  0  0  0  0  0  0  0
   46.1590   34.3610   43.6810 C   0  0  0  0  0  0  0  0  0  0  0  0
   46.3480   33.4900   44.7130 N   0  0  0  0  0  0  0  0  0  0  0  0
   45.6800   33.6270   45.8750 C   0  0  0  0  0  0  0  0  0  0  0  0
   44.7990   34.6280   46.0680 N   0  0  0  0  0  0  0  0  0  0  0  0
   47.6370   31.5770   45.6310 F   0  0  0  0  0  0  0  0  0  0  0  0
   46.9110   31.6490   46.7840 C   0  0  0  0  0  0  0  0  0  0  0  0
   45.9600   32.6400   46.9110 C   0  0  0  0  0  0  0  0  0  0  0  0
   45.2420   32.6910   48.0820 C   0  0  0  0  0  0  0  0  0  0  0  0
   45.4400   31.7870   49.1310 C   0  0  0  0  0  0  0  0  0  0  0  0
   46.4110   30.8000   48.9620 C   0  0  0  0  0  0  0  0  0  0  0  0
   47.1480   30.7280   47.7910 C   0  0  0  0  0  0  0  0  0  0  0  0
   44.9300   36.4330   42.8410 C   0  0  0  0  0  0  0  0  0  0  0  0
   43.8737   36.3215   45.2167 H   0  0  0  0  0  0  0  0  0  0  0  0
   46.7096   34.2401   42.7364 H   0  0  0  0  0  0  0  0  0  0  0  0
   44.4798   33.4755   48.1991 H   0  0  0  0  0  0  0  0  0  0  0  0
   44.8503   31.8523   50.0573 H   0  0  0  0  0  0  0  0  0  0  0  0
   46.5934   30.0719   49.7661 H   0  0  0  0  0  0  0  0  0  0  0  0
   47.9129   29.9480   47.6624 H   0  0  0  0  0  0  0  0  0  0  0  0
   44.6346   37.3624   43.3498 H   0  0  0  0  0  0  0  0  0  0  0  0
   45.8118   36.6238   42.2117 H   0  0  0  0  0  0  0  0  0  0  0  0
   44.0998   36.0798   42.2117 H   0  0  0  0  0  0  0  0  0  0  0  0
  1  6  2  0
  2  1  1  0
  3  2  2  0
  3  4  1  0
  4  5  2  0
  5  6  1  0
  5  9  1  0
  7  8  1  0
  8  9  2  0
  8 13  1  0
  9 10  1  0
 10 11  2  0
 12 11  1  0
 13 12  2  0
 14  2  1  0
  1 15  1  0
  3 16  1  0
 10 17  1  0
 11 18  1  0
 12 19  1  0
 13 20  1  0
 14 21  1  0
 14 22  1  0
 14 23  1  0
M  ISO  8  15  14  16  14  17  14  18  14  19  14  20  14  21   8  22   8
M  ISO  1  23   8
M  END
>  <minimizedAffinity>  (1) 
-4.96155405

>  <minimizedRMSD>  (1) 
1.19073665

$$$$
