
     RDKit          3D

 27 28  0  0  0  0  0  0  0  0999 V2000
   45.0370   34.9070   44.3380 C   0  0  0  0  0  0  0  0  0  0  0  0
   44.8600   34.1950   43.1260 C   0  0  0  0  0  0  0  0  0  0  0  0
   45.1270   32.8220   43.1310 C   0  0  0  0  0  0  0  0  0  0  0  0
   45.5360   32.2410   44.2790 N   0  0  0  0  0  0  0  0  0  0  0  0
   45.6980   32.9520   45.4320 C   0  0  0  0  0  0  0  0  0  0  0  0
   45.4410   34.2690   45.4280 N   0  0  0  0  0  0  0  0  0  0  0  0
   44.4080   33.4170   47.8710 F   0  0  0  0  0  0  0  0  0  0  0  0
   45.4670   32.5620   47.8360 C   0  0  0  0  0  0  0  0  0  0  0  0
   46.1410   32.2940   46.6580 C   0  0  0  0  0  0  0  0  0  0  0  0
   47.2180   31.4230   46.6250 C   0  0  0  0  0  0  0  0  0  0  0  0
   47.6030   30.8220   47.8160 C   0  0  0  0  0  0  0  0  0  0  0  0
   46.9390   31.0810   48.9930 C   0  0  0  0  0  0  0  0  0  0  0  0
   45.8700   31.9520   49.0040 C   0  0  0  0  0  0  0  0  0  0  0  0
   44.7620   36.3360   44.3410 C   0  0  0  0  0  0  0  0  0  0  0  0
   45.3920   37.1130   43.4880 C   0  0  0  0  0  0  0  0  0  0  0  0
   45.1540   38.5800   43.4420 C   0  0  0  0  0  0  0  0  0  0  0  0
   44.5237   34.7051   42.2113 H   0  0  0  0  0  0  0  0  0  0  0  0
   45.0057   32.2255   42.2148 H   0  0  0  0  0  0  0  0  0  0  0  0
   47.7509   31.2144   45.6856 H   0  0  0  0  0  0  0  0  0  0  0  0
   48.4547   30.1259   47.8187 H   0  0  0  0  0  0  0  0  0  0  0  0
   47.2609   30.5933   49.9250 H   0  0  0  0  0  0  0  0  0  0  0  0
   45.3392   32.1598   49.9448 H   0  0  0  0  0  0  0  0  0  0  0  0
   44.0353   36.7612   45.0489 H   0  0  0  0  0  0  0  0  0  0  0  0
   46.1146   36.6659   42.7895 H   0  0  0  0  0  0  0  0  0  0  0  0
   45.0902   38.9734   44.4673 H   0  0  0  0  0  0  0  0  0  0  0  0
   45.9844   39.0698   42.9124 H   0  0  0  0  0  0  0  0  0  0  0  0
   44.2113   38.7821   42.9124 H   0  0  0  0  0  0  0  0  0  0  0  0
  1 14  1  0
  1  6  2  0
  2  3  2  0
  2  1  1  0
  3  4  1  0
  4  5  2  0
  5  9  1  0
  6  5  1  0
  8  7  1  0
  8 13  2  0
  9  8  1  0
 10  9  2  0
 10 11  1  0
 11 12  2  0
 12 13  1  0
 15 14  2  0
 16 15  1  0
  2 17  1  0
  3 18  1  0
 10 19  1  0
 11 20  1  0
 12 21  1  0
 13 22  1  0
 14 23  1  0
 15 24  1  0
 16 25  1  0
 16 26  1  0
 16 27  1  0
M  ISO  8  17  14  18  14  19  14  20  14  21  14  22  14  25   8  26   8
M  ISO  1  27   8
M  END
>  <minimizedAffinity>  (1) 
-4.39761829

>  <minimizedRMSD>  (1) 
2.38042593

$$$$
