
     RDKit          3D

 40 42  0  0  0  0  0  0  0  0999 V2000
   46.1760   30.5040   45.5090 C   0  0  0  0  0  0  0  0  0  0  0  0
   46.8140   30.3230   44.3060 C   0  0  0  0  0  0  0  0  0  0  0  0
   47.3350   31.3380   43.5630 C   0  0  0  0  0  0  0  0  0  0  0  0
   47.2240   32.6010   44.0220 C   0  0  0  0  0  0  0  0  0  0  0  0
   46.5830   32.8260   45.2430 C   0  0  0  0  0  0  0  0  0  0  0  0
   46.0640   31.7840   45.9780 C   0  0  0  0  0  0  0  0  0  0  0  0
   49.8970   32.5950   43.2640 F   0  0  0  0  0  0  0  0  0  0  0  0
   49.1420   33.6290   42.7930 C   0  0  0  0  0  0  0  0  0  0  0  0
   47.8110   33.6500   43.1610 C   0  0  0  0  0  0  0  0  0  0  0  0
   47.0090   34.6990   42.6940 C   0  0  0  0  0  0  0  0  0  0  0  0
   47.5740   35.6670   41.8900 C   0  0  0  0  0  0  0  0  0  0  0  0
   48.9220   35.6170   41.5390 C   0  0  0  0  0  0  0  0  0  0  0  0
   49.7330   34.5790   41.9960 C   0  0  0  0  0  0  0  0  0  0  0  0
   46.3860   32.3910   48.2970 C   0  0  0  0  0  0  0  0  0  0  0  0
   47.5480   31.9780   48.6680 O   0  0  0  0  0  0  0  0  0  0  0  0
   45.5090   32.3730   47.1600 N   0  0  0  0  0  0  0  0  0  0  0  0
   45.5600   29.5130   46.3890 C   0  0  0  0  0  0  0  0  0  0  0  0
   44.4470   28.7620   45.6810 C   0  0  0  0  0  0  0  0  0  0  0  0
   44.2880   26.3500   48.4400 C   0  0  0  0  0  0  0  0  0  0  0  0
   43.1820   25.5420   48.0710 C   0  0  0  0  0  0  0  0  0  0  0  0
   42.5310   25.8710   46.8720 C   0  0  0  0  0  0  0  0  0  0  0  0
   42.9620   26.9040   46.1400 N   0  0  0  0  0  0  0  0  0  0  0  0
   44.0240   27.6420   46.5410 C   0  0  0  0  0  0  0  0  0  0  0  0
   44.6740   27.3880   47.6480 N   0  0  0  0  0  0  0  0  0  0  0  0
   46.9096   29.2973   43.9201 H   0  0  0  0  0  0  0  0  0  0  0  0
   47.8370   31.1316   42.6063 H   0  0  0  0  0  0  0  0  0  0  0  0
   46.4914   33.8539   45.6237 H   0  0  0  0  0  0  0  0  0  0  0  0
   45.9440   34.7502   42.9645 H   0  0  0  0  0  0  0  0  0  0  0  0
   46.9496   36.4932   41.5192 H   0  0  0  0  0  0  0  0  0  0  0  0
   49.3489   36.4017   40.8971 H   0  0  0  0  0  0  0  0  0  0  0  0
   50.7989   34.5233   41.7301 H   0  0  0  0  0  0  0  0  0  0  0  0
   45.9077   32.9376   49.1231 H   0  0  0  0  0  0  0  0  0  0  0  0
   44.5529   32.7548   47.1920 H   0  0  0  0  0  0  0  0  0  0  0  0
   46.3277   28.7946   46.7122 H   0  0  0  0  0  0  0  0  0  0  0  0
   45.1287   30.0377   47.2543 H   0  0  0  0  0  0  0  0  0  0  0  0
   43.5966   29.4371   45.5044 H   0  0  0  0  0  0  0  0  0  0  0  0
   44.8030   28.3821   44.7120 H   0  0  0  0  0  0  0  0  0  0  0  0
   44.8360   26.1371   49.3697 H   0  0  0  0  0  0  0  0  0  0  0  0
   42.8507   24.6985   48.6944 H   0  0  0  0  0  0  0  0  0  0  0  0
   41.6670   25.2797   46.5346 H   0  0  0  0  0  0  0  0  0  0  0  0
  1  6  1  0
  1 17  1  0
  2  1  2  0
  3  4  2  0
  3  2  1  0
  4  5  1  0
  5  6  2  0
  6 16  1  0
  8  9  2  0
  8  7  1  0
  9  4  1  0
 10  9  1  0
 11 10  2  0
 12 11  1  0
 12 13  2  0
 13  8  1  0
 14 15  2  0
 16 14  1  0
 18 17  1  0
 18 23  1  0
 20 19  2  0
 21 20  1  0
 22 23  1  0
 22 21  2  0
 23 24  2  0
 24 19  1  0
  2 25  1  0
  3 26  1  0
  5 27  1  0
 10 28  1  0
 11 29  1  0
 12 30  1  0
 13 31  1  0
 14 32  1  0
 16 33  1  0
 17 34  1  0
 17 35  1  0
 18 36  1  0
 18 37  1  0
 19 38  1  0
 20 39  1  0
 21 40  1  0
M  ISO  8  25  14  26  14  27  14  28  14  29  14  30  14  31  14  32   6
M  ISO  7  34   8  35   8  36   8  37   8  38  14  39  14  40  14
M  END
>  <minimizedAffinity>  (1) 
-5.07500362

>  <minimizedRMSD>  (1) 
8.30524254

$$$$
