
     RDKit          3D

 21 22  0  0  0  0  0  0  0  0999 V2000
   44.5920   35.8260   44.4420 C   0  0  0  0  0  0  0  0  0  0  0  0
   45.3380   35.7790   43.2480 C   0  0  0  0  0  0  0  0  0  0  0  0
   46.3130   34.7770   43.1290 C   0  0  0  0  0  0  0  0  0  0  0  0
   46.4700   33.9240   44.1710 N   0  0  0  0  0  0  0  0  0  0  0  0
   45.7430   33.9940   45.2960 C   0  0  0  0  0  0  0  0  0  0  0  0
   44.8090   34.9400   45.4300 N   0  0  0  0  0  0  0  0  0  0  0  0
   44.2800   33.9970   47.6860 F   0  0  0  0  0  0  0  0  0  0  0  0
   45.2450   33.0680   47.5150 C   0  0  0  0  0  0  0  0  0  0  0  0
   45.9980   33.0190   46.3600 C   0  0  0  0  0  0  0  0  0  0  0  0
   46.9930   32.0840   46.1510 C   0  0  0  0  0  0  0  0  0  0  0  0
   47.2750   31.1310   47.1350 C   0  0  0  0  0  0  0  0  0  0  0  0
   46.5000   31.2130   48.2800 C   0  0  0  0  0  0  0  0  0  0  0  0
   45.5080   32.1340   48.5030 C   0  0  0  0  0  0  0  0  0  0  0  0
   47.2950   34.6600   41.6410 S   0  0  0  0  0  0  0  0  0  0  0  0
   43.8200   36.5994   44.5681 H   0  0  0  0  0  0  0  0  0  0  0  0
   45.1624   36.5020   42.4378 H   0  0  0  0  0  0  0  0  0  0  0  0
   47.5636   32.0890   45.2106 H   0  0  0  0  0  0  0  0  0  0  0  0
   48.0582   30.3690   47.0083 H   0  0  0  0  0  0  0  0  0  0  0  0
   46.6960   30.4794   49.0759 H   0  0  0  0  0  0  0  0  0  0  0  0
   44.9361   32.1307   49.4426 H   0  0  0  0  0  0  0  0  0  0  0  0
   48.6142   34.5028   41.9756 H   0  0  0  0  0  0  0  0  0  0  0  0
  1  6  2  0
  2  1  1  0
  3  2  2  0
  3  4  1  0
  4  5  2  0
  5  6  1  0
  5  9  1  0
  8  7  1  0
  8 13  2  0
  9  8  1  0
 10  9  2  0
 10 11  1  0
 11 12  2  0
 12 13  1  0
 14  3  1  0
  1 15  1  0
  2 16  1  0
 10 17  1  0
 11 18  1  0
 12 19  1  0
 13 20  1  0
 14 21  1  0
M  ISO  7  15  14  16  14  17  14  18  14  19  14  20  14  21  11
M  END
>  <minimizedAffinity>  (1) 
-5.07824898

>  <minimizedRMSD>  (1) 
0.617709458

$$$$
