
     RDKit          3D

 40 42  0  0  0  0  0  0  0  0999 V2000
   44.5520   35.5710   44.8810 C   0  0  0  0  0  0  0  0  0  0  0  0
   45.1450   35.5650   43.6010 C   0  0  0  0  0  0  0  0  0  0  0  0
   46.1480   34.6380   43.3740 C   0  0  0  0  0  0  0  0  0  0  0  0
   46.5200   33.7740   44.3920 N   0  0  0  0  0  0  0  0  0  0  0  0
   45.9220   33.8260   45.5910 C   0  0  0  0  0  0  0  0  0  0  0  0
   44.9300   34.7210   45.8580 N   0  0  0  0  0  0  0  0  0  0  0  0
   46.7630   34.6080   42.0930 N   0  0  0  0  0  0  0  0  0  0  0  0
   47.9450   35.2160   41.9310 C   0  0  0  0  0  0  0  0  0  0  0  0
   48.5600   35.1980   40.6910 C   0  0  0  0  0  0  0  0  0  0  0  0
   47.9140   34.5440   39.6700 C   0  0  0  0  0  0  0  0  0  0  0  0
   48.4620   34.5140   38.5150 O   0  0  0  0  0  0  0  0  0  0  0  0
   46.7210   33.9200   39.7990 N   0  0  0  0  0  0  0  0  0  0  0  0
   46.1810   33.9820   41.0440 C   0  0  0  0  0  0  0  0  0  0  0  0
   45.0780   33.4420   41.2870 O   0  0  0  0  0  0  0  0  0  0  0  0
   46.5050   32.8030   46.5050 C   0  0  0  0  0  0  0  0  0  0  0  0
   45.5340   32.5080   47.6380 C   0  0  0  0  0  0  0  0  0  0  0  0
   45.3560   30.0300   47.6430 C   0  0  0  0  0  0  0  0  0  0  0  0
   46.4620   30.0940   48.2520 O   0  0  0  0  0  0  0  0  0  0  0  0
   44.8380   31.2880   47.3390 N   0  0  0  0  0  0  0  0  0  0  0  0
   44.0010   29.2280   45.2210 F   0  0  0  0  0  0  0  0  0  0  0  0
   44.1310   28.3280   46.2090 C   0  0  0  0  0  0  0  0  0  0  0  0
   44.7840   28.7480   47.3460 C   0  0  0  0  0  0  0  0  0  0  0  0
   44.8670   27.7400   48.3080 C   0  0  0  0  0  0  0  0  0  0  0  0
   44.3550   26.4760   48.1360 C   0  0  0  0  0  0  0  0  0  0  0  0
   43.7180   26.1370   46.9690 C   0  0  0  0  0  0  0  0  0  0  0  0
   43.6050   27.0920   45.9800 C   0  0  0  0  0  0  0  0  0  0  0  0
   43.7515   36.2958   45.0903 H   0  0  0  0  0  0  0  0  0  0  0  0
   44.8243   36.2667   42.8169 H   0  0  0  0  0  0  0  0  0  0  0  0
   48.4247   35.7270   42.7788 H   0  0  0  0  0  0  0  0  0  0  0  0
   49.5307   35.6895   40.5290 H   0  0  0  0  0  0  0  0  0  0  0  0
   46.2588   33.4364   39.0158 H   0  0  0  0  0  0  0  0  0  0  0  0
   46.6995   31.8787   45.9413 H   0  0  0  0  0  0  0  0  0  0  0  0
   47.4462   33.1870   46.9253 H   0  0  0  0  0  0  0  0  0  0  0  0
   46.0883   32.3967   48.5816 H   0  0  0  0  0  0  0  0  0  0  0  0
   44.8157   33.3346   47.7421 H   0  0  0  0  0  0  0  0  0  0  0  0
   43.9174   31.3448   46.8807 H   0  0  0  0  0  0  0  0  0  0  0  0
   45.3710   27.9704   49.2582 H   0  0  0  0  0  0  0  0  0  0  0  0
   44.4566   25.7314   48.9392 H   0  0  0  0  0  0  0  0  0  0  0  0
   43.3069   25.1269   46.8253 H   0  0  0  0  0  0  0  0  0  0  0  0
   43.1023   26.8613   45.0292 H   0  0  0  0  0  0  0  0  0  0  0  0
  1  6  2  0
  2  1  1  0
  3  2  2  0
  3  4  1  0
  4  5  2  0
  5  6  1  0
  5 15  1  0
  7  3  1  0
  8  7  1  0
  9  8  2  0
 10 12  1  0
 10  9  1  0
 11 10  2  0
 12 13  1  0
 13 14  2  0
 13  7  1  0
 15 16  1  0
 17 18  2  0
 19 16  1  0
 19 17  1  0
 20 21  1  0
 21 22  2  0
 22 17  1  0
 22 23  1  0
 24 23  2  0
 25 24  1  0
 26 21  1  0
 26 25  2  0
  1 27  1  0
  2 28  1  0
  8 29  1  0
  9 30  1  0
 12 31  1  0
 15 32  1  0
 15 33  1  0
 16 34  1  0
 16 35  1  0
 19 36  1  0
 23 37  1  0
 24 38  1  0
 25 39  1  0
 26 40  1  0
M  ISO  8  27  14  28  14  29  14  30  14  31   9  32   8  33   8  34   8
M  ISO  5  35   8  37  14  38  14  39  14  40  14
M  END
>  <minimizedAffinity>  (1) 
-6.72308207

>  <minimizedRMSD>  (1) 
1.39492369

$$$$
