
     RDKit          3D

 31 33  0  0  0  0  0  0  0  0999 V2000
   44.7690   35.6890   44.4790 C   0  0  0  0  0  0  0  0  0  0  0  0
   45.5350   34.7460   43.7590 C   0  0  0  0  0  0  0  0  0  0  0  0
   45.9580   33.6140   44.4290 C   0  0  0  0  0  0  0  0  0  0  0  0
   45.6360   33.4350   45.7350 N   0  0  0  0  0  0  0  0  0  0  0  0
   44.8890   34.3740   46.4030 C   0  0  0  0  0  0  0  0  0  0  0  0
   44.4800   35.4610   45.7680 N   0  0  0  0  0  0  0  0  0  0  0  0
   46.7480   32.6360   43.7010 C   0  0  0  0  0  0  0  0  0  0  0  0
   46.1750   31.4790   43.2370 C   0  0  0  0  0  0  0  0  0  0  0  0
   46.9530   30.5770   42.5530 C   0  0  0  0  0  0  0  0  0  0  0  0
   48.3130   30.7780   42.3020 C   0  0  0  0  0  0  0  0  0  0  0  0
   48.8260   31.9550   42.7930 C   0  0  0  0  0  0  0  0  0  0  0  0
   48.0630   32.8420   43.4660 N   0  0  0  0  0  0  0  0  0  0  0  0
   45.8480   34.9790   42.3870 C   0  0  0  0  0  0  0  0  0  0  0  0
   46.9320   35.6020   42.1400 O   0  0  0  0  0  0  0  0  0  0  0  0
   46.6340   33.0970   40.4000 F   0  0  0  0  0  0  0  0  0  0  0  0
   45.4030   33.6500   40.2970 C   0  0  0  0  0  0  0  0  0  0  0  0
   45.0270   34.5580   41.2570 C   0  0  0  0  0  0  0  0  0  0  0  0
   43.7760   35.1420   41.1830 C   0  0  0  0  0  0  0  0  0  0  0  0
   42.8720   34.8570   40.1800 C   0  0  0  0  0  0  0  0  0  0  0  0
   43.3070   33.9390   39.2450 C   0  0  0  0  0  0  0  0  0  0  0  0
   44.5450   33.3160   39.2610 C   0  0  0  0  0  0  0  0  0  0  0  0
   44.4118   36.6048   43.9853 H   0  0  0  0  0  0  0  0  0  0  0  0
   44.6315   34.2234   47.4618 H   0  0  0  0  0  0  0  0  0  0  0  0
   45.1078   31.2766   43.4103 H   0  0  0  0  0  0  0  0  0  0  0  0
   46.4833   29.6527   42.1854 H   0  0  0  0  0  0  0  0  0  0  0  0
   48.9269   30.0490   41.7527 H   0  0  0  0  0  0  0  0  0  0  0  0
   49.8906   32.1808   42.6326 H   0  0  0  0  0  0  0  0  0  0  0  0
   43.4882   35.8667   41.9588 H   0  0  0  0  0  0  0  0  0  0  0  0
   41.8785   35.3264   40.1292 H   0  0  0  0  0  0  0  0  0  0  0  0
   42.6193   33.6827   38.4257 H   0  0  0  0  0  0  0  0  0  0  0  0
   44.8334   32.5897   38.4869 H   0  0  0  0  0  0  0  0  0  0  0  0
  1  6  2  0
  2  3  2  0
  2  1  1  0
  3  4  1  0
  4  5  2  0
  6  5  1  0
  7  3  1  0
  8  7  2  0
  9  8  1  0
 10  9  2  0
 10 11  1  0
 11 12  2  0
 12  7  1  0
 13  2  1  0
 14 13  2  0
 16 15  1  0
 16 17  2  0
 17 13  1  0
 18 17  1  0
 19 18  2  0
 20 21  2  0
 20 19  1  0
 21 16  1  0
  1 22  1  0
  5 23  1  0
  8 24  1  0
  9 25  1  0
 10 26  1  0
 11 27  1  0
 18 28  1  0
 19 29  1  0
 20 30  1  0
 21 31  1  0
M  ISO  8  22  14  23  14  24  14  25  14  26  14  27  14  28  14  29  14
M  ISO  2  30  14  31  14
M  END
>  <minimizedAffinity>  (1) 
-4.75269842

>  <minimizedRMSD>  (1) 
1.25972998

$$$$
