
     RDKit          3D

 32 34  0  0  0  0  0  0  0  0999 V2000
   44.5850   33.0630   41.2970 Br  0  0  0  0  0  0  0  0  0  0  0  0
   46.2430   33.9800   41.0860 C   0  0  0  0  0  0  0  0  0  0  0  0
   46.7990   34.7430   42.0960 C   0  0  0  0  0  0  0  0  0  0  0  0
   48.0100   35.3750   41.8550 C   0  0  0  0  0  0  0  0  0  0  0  0
   48.6710   35.2620   40.6380 C   0  0  0  0  0  0  0  0  0  0  0  0
   48.1160   34.4970   39.6220 C   0  0  0  0  0  0  0  0  0  0  0  0
   46.9130   33.8830   39.8960 C   0  0  0  0  0  0  0  0  0  0  0  0
   44.4720   35.8990   44.8560 C   0  0  0  0  0  0  0  0  0  0  0  0
   45.1640   35.8260   43.6460 C   0  0  0  0  0  0  0  0  0  0  0  0
   46.0710   34.8320   43.3500 C   0  0  0  0  0  0  0  0  0  0  0  0
   46.2310   33.9230   44.3510 N   0  0  0  0  0  0  0  0  0  0  0  0
   45.5760   33.9770   45.5190 C   0  0  0  0  0  0  0  0  0  0  0  0
   44.7110   34.9480   45.7680 N   0  0  0  0  0  0  0  0  0  0  0  0
   46.3470   33.0860   38.8220 C   0  0  0  0  0  0  0  0  0  0  0  0
   45.1920   33.3410   38.3500 O   0  0  0  0  0  0  0  0  0  0  0  0
   47.6430   33.4500   36.4280 F   0  0  0  0  0  0  0  0  0  0  0  0
   47.5630   32.1900   36.9240 C   0  0  0  0  0  0  0  0  0  0  0  0
   46.9230   31.9390   38.1250 C   0  0  0  0  0  0  0  0  0  0  0  0
   46.8420   30.6520   38.6300 C   0  0  0  0  0  0  0  0  0  0  0  0
   47.4340   29.6450   37.8650 C   0  0  0  0  0  0  0  0  0  0  0  0
   48.0640   29.9030   36.6780 C   0  0  0  0  0  0  0  0  0  0  0  0
   48.1360   31.1860   36.1920 C   0  0  0  0  0  0  0  0  0  0  0  0
   48.4610   35.9845   42.6519 H   0  0  0  0  0  0  0  0  0  0  0  0
   49.6303   35.7768   40.4806 H   0  0  0  0  0  0  0  0  0  0  0  0
   48.6117   34.3861   38.6463 H   0  0  0  0  0  0  0  0  0  0  0  0
   43.7552   36.7096   45.0536 H   0  0  0  0  0  0  0  0  0  0  0  0
   44.9755   36.6022   42.8897 H   0  0  0  0  0  0  0  0  0  0  0  0
   45.7594   33.2047   46.2805 H   0  0  0  0  0  0  0  0  0  0  0  0
   46.3380   30.4346   39.5833 H   0  0  0  0  0  0  0  0  0  0  0  0
   47.3925   28.6079   38.2293 H   0  0  0  0  0  0  0  0  0  0  0  0
   48.5160   29.0773   36.1089 H   0  0  0  0  0  0  0  0  0  0  0  0
   48.6414   31.4006   35.2388 H   0  0  0  0  0  0  0  0  0  0  0  0
  2  1  1  0
  2  3  2  0
  3 10  1  0
  4  3  1  0
  5  4  2  0
  6  7  2  0
  6  5  1  0
  7  2  1  0
  8 13  2  0
  9  8  1  0
 10  9  2  0
 10 11  1  0
 11 12  2  0
 12 13  1  0
 14  7  1  0
 15 14  2  0
 16 17  1  0
 17 18  2  0
 18 19  1  0
 18 14  1  0
 20 19  2  0
 21 20  1  0
 22 21  2  0
 22 17  1  0
  4 23  1  0
  5 24  1  0
  6 25  1  0
  8 26  1  0
  9 27  1  0
 12 28  1  0
 19 29  1  0
 20 30  1  0
 21 31  1  0
 22 32  1  0
M  ISO  8  23  14  24  14  25  14  26  14  27  14  28  14  29  14  30  14
M  ISO  2  31  14  32  14
M  END
>  <minimizedAffinity>  (1) 
-5.56956673

>  <minimizedRMSD>  (1) 
2.22277594

$$$$
