
     RDKit          3D

 38 41  0  0  0  0  0  0  0  0999 V2000
   45.9490   34.6170   41.6400 C   0  0  0  0  0  0  0  0  0  0  0  0
   47.1840   34.8020   41.4030 O   0  0  0  0  0  0  0  0  0  0  0  0
   44.9420   34.2290   40.5910 C   0  0  0  0  0  0  0  0  0  0  0  0
   43.6080   34.5640   40.5790 C   0  0  0  0  0  0  0  0  0  0  0  0
   43.1050   34.0020   39.4580 N   0  0  0  0  0  0  0  0  0  0  0  0
   44.0990   33.3530   38.8180 C   0  0  0  0  0  0  0  0  0  0  0  0
   45.2380   33.4900   39.5150 N   0  0  0  0  0  0  0  0  0  0  0  0
   44.0680   32.6130   37.6050 N   0  0  0  0  0  0  0  0  0  0  0  0
   42.3580   35.9610   37.7310 F   0  0  0  0  0  0  0  0  0  0  0  0
   41.3910   35.0880   38.1250 C   0  0  0  0  0  0  0  0  0  0  0  0
   41.7550   34.0740   39.0120 C   0  0  0  0  0  0  0  0  0  0  0  0
   40.8140   33.1560   39.4490 C   0  0  0  0  0  0  0  0  0  0  0  0
   39.4990   33.2550   38.9920 C   0  0  0  0  0  0  0  0  0  0  0  0
   39.1370   34.2550   38.1160 C   0  0  0  0  0  0  0  0  0  0  0  0
   40.0750   35.1820   37.6720 C   0  0  0  0  0  0  0  0  0  0  0  0
   44.9830   36.0240   43.3910 C   0  0  0  0  0  0  0  0  0  0  0  0
   45.5420   34.7970   42.9800 C   0  0  0  0  0  0  0  0  0  0  0  0
   45.6420   33.8480   43.9740 C   0  0  0  0  0  0  0  0  0  0  0  0
   45.2380   34.0780   45.2340 N   0  0  0  0  0  0  0  0  0  0  0  0
   44.7060   35.2780   45.5770 C   0  0  0  0  0  0  0  0  0  0  0  0
   44.5830   36.2410   44.6540 N   0  0  0  0  0  0  0  0  0  0  0  0
   46.1950   32.5840   43.6530 C   0  0  0  0  0  0  0  0  0  0  0  0
   47.4440   32.0480   43.6670 C   0  0  0  0  0  0  0  0  0  0  0  0
   47.6710   30.8030   43.3040 C   0  0  0  0  0  0  0  0  0  0  0  0
   46.6110   30.0640   42.9120 C   0  0  0  0  0  0  0  0  0  0  0  0
   45.2060   31.2230   43.0720 S   0  0  0  0  0  0  0  0  0  0  0  0
   43.0651   35.1632   41.3248 H   0  0  0  0  0  0  0  0  0  0  0  0
   44.9281   32.1728   37.2481 H   0  0  0  0  0  0  0  0  0  0  0  0
   43.1854   32.5169   37.0828 H   0  0  0  0  0  0  0  0  0  0  0  0
   41.1003   32.3572   40.1490 H   0  0  0  0  0  0  0  0  0  0  0  0
   38.7461   32.5294   39.3336 H   0  0  0  0  0  0  0  0  0  0  0  0
   38.0968   34.3212   37.7644 H   0  0  0  0  0  0  0  0  0  0  0  0
   39.7824   35.9790   36.9725 H   0  0  0  0  0  0  0  0  0  0  0  0
   44.8707   36.8309   42.6519 H   0  0  0  0  0  0  0  0  0  0  0  0
   44.3764   35.4597   46.6106 H   0  0  0  0  0  0  0  0  0  0  0  0
   48.2896   32.6725   43.9910 H   0  0  0  0  0  0  0  0  0  0  0  0
   48.6865   30.3805   43.3195 H   0  0  0  0  0  0  0  0  0  0  0  0
   46.5963   29.0164   42.5769 H   0  0  0  0  0  0  0  0  0  0  0  0
  1 17  1  0
  2  1  2  0
  3  1  1  0
  4  3  2  0
  5  4  1  0
  6  5  1  0
  6  7  2  0
  7  3  1  0
  8  6  1  0
  9 10  1  0
 10 11  2  0
 11 12  1  0
 11  5  1  0
 13 12  2  0
 14 13  1  0
 15 14  2  0
 15 10  1  0
 16 21  2  0
 17 16  1  0
 17 18  2  0
 18 19  1  0
 19 20  2  0
 21 20  1  0
 22 23  2  0
 22 18  1  0
 24 23  1  0
 25 26  1  0
 25 24  2  0
 26 22  1  0
  4 27  1  0
  8 28  1  0
  8 29  1  0
 12 30  1  0
 13 31  1  0
 14 32  1  0
 15 33  1  0
 16 34  1  0
 20 35  1  0
 23 36  1  0
 24 37  1  0
 25 38  1  0
M  ISO  8  27  14  30  14  31  14  32  14  33  14  34  14  35  14  36  14
M  ISO  2  37  14  38  14
M  END
>  <minimizedAffinity>  (1) 
-6.19464827

>  <minimizedRMSD>  (1) 
1.32595992

$$$$
