
     RDKit          3D

 49 52  0  0  0  0  0  0  0  0999 V2000
   41.8970   31.8320   41.6850 C   0  0  0  0  0  0  0  0  0  0  0  0
   41.2720   30.6590   41.5350 N   0  0  0  0  0  0  0  0  0  0  0  0
   41.6170   29.4060   42.1150 C   0  0  0  0  0  0  0  0  0  0  0  0
   40.5250   29.3300   43.1820 C   0  0  0  0  0  0  0  0  0  0  0  0
   39.1730   29.3530   42.6490 C   0  0  0  0  0  0  0  0  0  0  0  0
   38.9440   29.9420   41.3480 C   0  0  0  0  0  0  0  0  0  0  0  0
   40.0670   30.6970   40.6710 C   0  0  0  0  0  0  0  0  0  0  0  0
   39.8890   31.5440   39.1830 S   0  0  0  0  0  0  0  0  0  0  0  0
   38.5130   33.4760   40.8620 F   0  0  0  0  0  0  0  0  0  0  0  0
   39.5250   33.9260   40.0600 C   0  0  0  0  0  0  0  0  0  0  0  0
   40.3600   33.2160   39.1790 C   0  0  0  0  0  0  0  0  0  0  0  0
   41.2730   33.9690   38.5280 C   0  0  0  0  0  0  0  0  0  0  0  0
   41.4660   35.3250   38.6320 C   0  0  0  0  0  0  0  0  0  0  0  0
   40.6310   35.9870   39.5030 C   0  0  0  0  0  0  0  0  0  0  0  0
   39.6660   35.3100   40.2180 C   0  0  0  0  0  0  0  0  0  0  0  0
   43.2860   31.8360   41.1490 C   0  0  0  0  0  0  0  0  0  0  0  0
   43.9070   33.1260   41.4940 C   0  0  0  0  0  0  0  0  0  0  0  0
   43.1310   34.2450   41.6870 C   0  0  0  0  0  0  0  0  0  0  0  0
   43.7680   35.4390   42.0060 C   0  0  0  0  0  0  0  0  0  0  0  0
   45.1300   35.4380   42.1140 N   0  0  0  0  0  0  0  0  0  0  0  0
   45.8450   34.3330   41.9210 C   0  0  0  0  0  0  0  0  0  0  0  0
   45.2130   33.2010   41.6150 N   0  0  0  0  0  0  0  0  0  0  0  0
   47.2960   34.4230   42.0830 C   0  0  0  0  0  0  0  0  0  0  0  0
   48.0160   33.3620   42.6240 C   0  0  0  0  0  0  0  0  0  0  0  0
   49.3750   33.4640   42.7760 C   0  0  0  0  0  0  0  0  0  0  0  0
   49.9130   34.6500   42.3630 C   0  0  0  0  0  0  0  0  0  0  0  0
   49.2470   35.7500   41.8130 C   0  0  0  0  0  0  0  0  0  0  0  0
   47.9030   35.5670   41.6970 N   0  0  0  0  0  0  0  0  0  0  0  0
   41.3181   32.6051   41.1585 H   0  0  0  0  0  0  0  0  0  0  0  0
   41.9659   32.0268   42.7654 H   0  0  0  0  0  0  0  0  0  0  0  0
   41.5441   28.5816   41.3903 H   0  0  0  0  0  0  0  0  0  0  0  0
   42.6491   29.3240   42.4866 H   0  0  0  0  0  0  0  0  0  0  0  0
   40.6580   28.3954   43.7467 H   0  0  0  0  0  0  0  0  0  0  0  0
   40.6334   30.2254   43.8117 H   0  0  0  0  0  0  0  0  0  0  0  0
   38.8293   28.3094   42.5958 H   0  0  0  0  0  0  0  0  0  0  0  0
   38.6279   30.0143   43.3386 H   0  0  0  0  0  0  0  0  0  0  0  0
   37.9650   29.8423   40.8565 H   0  0  0  0  0  0  0  0  0  0  0  0
   41.9389   33.4346   37.8344 H   0  0  0  0  0  0  0  0  0  0  0  0
   42.2409   35.8500   38.0542 H   0  0  0  0  0  0  0  0  0  0  0  0
   40.7353   37.0746   39.6308 H   0  0  0  0  0  0  0  0  0  0  0  0
   39.0086   35.8558   40.9108 H   0  0  0  0  0  0  0  0  0  0  0  0
   43.2640   31.7135   40.0561 H   0  0  0  0  0  0  0  0  0  0  0  0
   43.8640   31.0070   41.5835 H   0  0  0  0  0  0  0  0  0  0  0  0
   42.0362   34.1967   41.5916 H   0  0  0  0  0  0  0  0  0  0  0  0
   43.1901   36.3610   42.1673 H   0  0  0  0  0  0  0  0  0  0  0  0
   47.4954   32.4424   42.9294 H   0  0  0  0  0  0  0  0  0  0  0  0
   49.9857   32.6525   43.1984 H   0  0  0  0  0  0  0  0  0  0  0  0
   51.0023   34.7521   42.4769 H   0  0  0  0  0  0  0  0  0  0  0  0
   49.7593   36.6732   41.5042 H   0  0  0  0  0  0  0  0  0  0  0  0
  2  1  1  0
  2  3  1  0
  3  4  1  0
  5  4  1  0
  6  5  1  0
  7  6  2  0
  7  2  1  0
  8  7  1  0
 10 15  2  0
 10  9  1  0
 11  8  1  0
 11 10  1  0
 12 13  1  0
 12 11  2  0
 13 14  2  0
 14 15  1  0
 16 17  1  0
 16  1  1  0
 17 22  1  0
 17 18  2  0
 18 19  1  0
 19 20  2  0
 21 23  1  0
 21 20  1  0
 22 21  2  0
 23 24  2  0
 24 25  1  0
 26 25  2  0
 27 26  1  0
 28 27  2  0
 28 23  1  0
  1 29  1  0
  1 30  1  0
  3 31  1  0
  3 32  1  0
  4 33  1  0
  4 34  1  0
  5 35  1  0
  5 36  1  0
  6 37  1  0
 12 38  1  0
 13 39  1  0
 14 40  1  0
 15 41  1  0
 16 42  1  0
 16 43  1  0
 18 44  1  0
 19 45  1  0
 24 46  1  0
 25 47  1  0
 26 48  1  0
 27 49  1  0
M  ISO  8  29   8  30   8  31  13  32  13  33  13  34  13  35  13  36  13
M  ISO  8  37  13  38  14  39  14  40  14  41  14  42   8  43   8  44  14
M  ISO  5  45  14  46  14  47  14  48  14  49  14
M  END
>  <minimizedAffinity>  (1) 
-5.82524776

>  <minimizedRMSD>  (1) 
3.39680576

$$$$
