
     RDKit          3D

 42 45  0  0  0  0  0  0  0  0999 V2000
   47.9440   33.8530   42.8770 C   0  0  0  0  0  0  0  0  0  0  0  0
   48.5670   35.0890   42.6480 C   0  0  0  0  0  0  0  0  0  0  0  0
   49.9290   35.1320   42.3220 C   0  0  0  0  0  0  0  0  0  0  0  0
   50.5730   33.9230   42.2490 N   0  0  0  0  0  0  0  0  0  0  0  0
   49.9330   32.7380   42.4780 C   0  0  0  0  0  0  0  0  0  0  0  0
   48.6380   32.7190   42.7860 N   0  0  0  0  0  0  0  0  0  0  0  0
   46.5070   33.9290   43.2190 C   0  0  0  0  0  0  0  0  0  0  0  0
   45.7560   34.9010   42.4240 C   0  0  0  0  0  0  0  0  0  0  0  0
   45.2730   36.0770   43.1940 C   0  0  0  0  0  0  0  0  0  0  0  0
   44.4900   35.7040   44.4440 C   0  0  0  0  0  0  0  0  0  0  0  0
   44.9880   34.4440   45.1130 C   0  0  0  0  0  0  0  0  0  0  0  0
   46.4300   34.1780   44.7360 C   0  0  0  0  0  0  0  0  0  0  0  0
   50.7510   31.5370   42.3620 C   0  0  0  0  0  0  0  0  0  0  0  0
   51.1940   31.2240   41.1150 N   0  0  0  0  0  0  0  0  0  0  0  0
   51.9320   30.0930   41.1830 C   0  0  0  0  0  0  0  0  0  0  0  0
   51.9340   29.7130   42.4980 N   0  0  0  0  0  0  0  0  0  0  0  0
   51.2230   30.5860   43.2010 N   0  0  0  0  0  0  0  0  0  0  0  0
   54.2760   29.8360   44.0770 F   0  0  0  0  0  0  0  0  0  0  0  0
   53.7270   28.6490   43.8230 C   0  0  0  0  0  0  0  0  0  0  0  0
   52.5830   28.5750   43.0540 C   0  0  0  0  0  0  0  0  0  0  0  0
   52.0660   27.3150   42.8290 C   0  0  0  0  0  0  0  0  0  0  0  0
   52.6220   26.1590   43.3230 C   0  0  0  0  0  0  0  0  0  0  0  0
   53.7580   26.2370   44.0860 C   0  0  0  0  0  0  0  0  0  0  0  0
   54.3070   27.4930   44.3340 C   0  0  0  0  0  0  0  0  0  0  0  0
   47.9881   36.0213   42.7241 H   0  0  0  0  0  0  0  0  0  0  0  0
   50.4522   36.0814   42.1352 H   0  0  0  0  0  0  0  0  0  0  0  0
   46.0085   32.9829   42.9613 H   0  0  0  0  0  0  0  0  0  0  0  0
   44.8832   34.3908   41.9904 H   0  0  0  0  0  0  0  0  0  0  0  0
   46.4481   35.2863   41.6608 H   0  0  0  0  0  0  0  0  0  0  0  0
   46.1440   36.6777   43.4950 H   0  0  0  0  0  0  0  0  0  0  0  0
   44.5885   36.6345   42.5378 H   0  0  0  0  0  0  0  0  0  0  0  0
   44.5658   36.5332   45.1628 H   0  0  0  0  0  0  0  0  0  0  0  0
   43.4520   35.5163   44.1319 H   0  0  0  0  0  0  0  0  0  0  0  0
   44.9147   34.5604   46.2044 H   0  0  0  0  0  0  0  0  0  0  0  0
   44.3710   33.5965   44.7798 H   0  0  0  0  0  0  0  0  0  0  0  0
   46.7959   33.2919   45.2754 H   0  0  0  0  0  0  0  0  0  0  0  0
   47.0530   35.0437   45.0053 H   0  0  0  0  0  0  0  0  0  0  0  0
   52.4314   29.5803   40.3477 H   0  0  0  0  0  0  0  0  0  0  0  0
   51.1551   27.2310   42.2182 H   0  0  0  0  0  0  0  0  0  0  0  0
   52.1610   25.1835   43.1087 H   0  0  0  0  0  0  0  0  0  0  0  0
   54.2255   25.3284   44.4932 H   0  0  0  0  0  0  0  0  0  0  0  0
   55.2175   27.5720   44.9462 H   0  0  0  0  0  0  0  0  0  0  0  0
  1  7  1  0
  2  1  2  0
  3  2  1  0
  4  3  2  0
  4  5  1  0
  5  6  2  0
  6  1  1  0
  7 12  1  0
  8  9  1  0
  8  7  1  0
  9 10  1  0
 10 11  1  0
 12 11  1  0
 13  5  1  0
 13 17  2  0
 14 15  2  0
 14 13  1  0
 15 16  1  0
 16 20  1  0
 16 17  1  0
 19 18  1  0
 19 24  2  0
 20 19  1  0
 21 20  2  0
 21 22  1  0
 22 23  2  0
 23 24  1  0
  2 25  1  0
  3 26  1  0
  7 27  1  0
  8 28  1  0
  8 29  1  0
  9 30  1  0
  9 31  1  0
 10 32  1  0
 10 33  1  0
 11 34  1  0
 11 35  1  0
 12 36  1  0
 12 37  1  0
 15 38  1  0
 21 39  1  0
 22 40  1  0
 23 41  1  0
 24 42  1  0
M  ISO  8  25  14  26  14  27  13  28  13  29  13  30  13  31  13  32  13
M  ISO  8  33  13  34  13  35  13  36  13  37  13  38  14  39  14  40  14
M  ISO  2  41  14  42  14
M  END
>  <minimizedAffinity>  (1) 
-4.29602051

>  <minimizedRMSD>  (1) 
1.23330784

$$$$
