
     RDKit          3D

 46 48  0  0  1  0  0  0  0  0999 V2000
   49.5150   31.5020   42.8400 O   0  0  0  0  0  0  0  0  0  0  0  0
   50.2480   32.2260   41.7250 P   0  0  2  0  0  0  0  0  0  0  0  0
   51.6060   33.0350   42.2630 O   0  0  0  0  0  0  0  0  0  0  0  0
   49.1970   33.3190   40.9970 O   0  0  0  0  0  0  0  0  0  0  0  0
   49.0400   34.4600   41.7700 C   0  0  0  0  0  0  0  0  0  0  0  0
   47.6810   35.0460   41.5790 C   0  0  0  0  0  0  0  0  0  0  0  0
   44.8360   35.1230   44.0520 C   0  0  0  0  0  0  0  0  0  0  0  0
   45.6300   35.4010   42.9180 C   0  0  0  0  0  0  0  0  0  0  0  0
   46.8420   34.7490   42.7790 C   0  0  0  0  0  0  0  0  0  0  0  0
   47.2190   33.8750   43.7300 N   0  0  0  0  0  0  0  0  0  0  0  0
   46.4360   33.6250   44.8120 C   0  0  0  0  0  0  0  0  0  0  0  0
   45.2600   34.2420   44.9710 N   0  0  0  0  0  0  0  0  0  0  0  0
   43.5910   35.7820   44.2110 N   0  0  0  0  0  0  0  0  0  0  0  0
   50.7660   31.0770   40.5700 O   0  0  0  0  0  0  0  0  0  0  0  0
   51.1090   31.0010   38.2450 C   0  0  1  0  0  0  0  0  0  0  0  0
   51.4740   31.6470   39.5630 C   0  0  2  0  0  0  0  0  0  0  0  0
   52.9160   31.1110   39.7140 C   0  0  0  0  0  0  0  0  0  0  0  0
   52.8700   29.8160   39.2750 O   0  0  0  0  0  0  0  0  0  0  0  0
   51.8450   29.6870   38.3820 C   0  0  0  0  0  0  0  0  0  0  0  0
   49.7630   30.8700   38.0720 O   0  0  0  0  0  0  0  0  0  0  0  0
   49.6250   33.4900   36.9770 F   0  0  0  0  0  0  0  0  0  0  0  0
   48.5300   33.0140   37.6150 C   0  0  0  0  0  0  0  0  0  0  0  0
   48.7240   31.7370   38.1000 C   0  0  0  0  0  0  0  0  0  0  0  0
   47.6350   31.1640   38.7770 C   0  0  0  0  0  0  0  0  0  0  0  0
   46.4330   31.8560   38.9460 C   0  0  0  0  0  0  0  0  0  0  0  0
   46.2960   33.1200   38.4450 C   0  0  0  0  0  0  0  0  0  0  0  0
   47.3410   33.6880   37.7860 C   0  0  0  0  0  0  0  0  0  0  0  0
   51.6160   33.0410   43.2529 H   0  0  0  0  0  0  0  0  0  0  0  0
   49.1745   34.1989   42.8301 H   0  0  0  0  0  0  0  0  0  0  0  0
   49.7908   35.2019   41.4604 H   0  0  0  0  0  0  0  0  0  0  0  0
   47.7653   36.1352   41.4501 H   0  0  0  0  0  0  0  0  0  0  0  0
   47.2133   34.6081   40.6849 H   0  0  0  0  0  0  0  0  0  0  0  0
   45.2912   36.1222   42.1597 H   0  0  0  0  0  0  0  0  0  0  0  0
   46.7749   32.9032   45.5697 H   0  0  0  0  0  0  0  0  0  0  0  0
   43.2714   36.4572   43.5018 H   0  0  0  0  0  0  0  0  0  0  0  0
   43.0060   35.5857   45.0357 H   0  0  0  0  0  0  0  0  0  0  0  0
   51.3868   31.5773   37.3502 H   0  0  0  0  0  0  0  0  0  0  0  0
   51.3193   32.7357   39.5916 H   0  0  0  0  0  0  0  0  0  0  0  0
   53.6122   31.7011   39.0999 H   0  0  0  0  0  0  0  0  0  0  0  0
   53.2708   31.1784   40.7530 H   0  0  0  0  0  0  0  0  0  0  0  0
   51.1475   28.9143   38.7374 H   0  0  0  0  0  0  0  0  0  0  0  0
   52.2541   29.3988   37.4024 H   0  0  0  0  0  0  0  0  0  0  0  0
   47.7306   30.1465   39.1838 H   0  0  0  0  0  0  0  0  0  0  0  0
   45.5970   31.3833   39.4823 H   0  0  0  0  0  0  0  0  0  0  0  0
   45.3525   33.6708   38.5732 H   0  0  0  0  0  0  0  0  0  0  0  0
   47.2348   34.7054   37.3816 H   0  0  0  0  0  0  0  0  0  0  0  0
  2  3  1  0
  2  1  2  0
  4  2  1  0
  4  5  1  0
  6  5  1  0
  6  9  1  0
  7 13  1  0
  7 12  2  0
  8  7  1  0
  9  8  2  0
  9 10  1  0
 10 11  2  0
 11 12  1  0
 14  2  1  0
 15 19  1  0
 15 16  1  0
 16 17  1  0
 16 14  1  0
 18 17  1  0
 19 18  1  0
 20 23  1  0
 20 15  1  0
 21 22  1  0
 22 27  2  0
 22 23  1  0
 23 24  2  0
 24 25  1  0
 26 25  2  0
 27 26  1  0
  3 28  1  0
  5 29  1  0
  5 30  1  0
  6 31  1  0
  6 32  1  0
  8 33  1  0
 11 34  1  0
 13 35  1  0
 13 36  1  0
 15 37  1  6
 16 38  1  6
 17 39  1  0
 17 40  1  0
 19 41  1  0
 19 42  1  0
 24 43  1  0
 25 44  1  0
 26 45  1  0
 27 46  1  0
M  ISO  8  28   3  29   8  30   8  31   8  32   8  33  14  34  14  37  13
M  ISO  8  38  13  39  13  40  13  41  13  42  13  43  14  44  14  45  14
M  ISO  1  46  14
M  END
>  <minimizedAffinity>  (1) 
-5.00639391

>  <minimizedRMSD>  (1) 
2.75714183

$$$$
