
     RDKit          3D

 27 29  0  0  0  0  0  0  0  0999 V2000
   39.6100   26.9290   33.9310 C   0  0  0  0  0  0  0  0  0  0  0  0
   38.4370   27.4150   33.3450 C   0  0  0  0  0  0  0  0  0  0  0  0
   37.2050   26.9730   33.8310 C   0  0  0  0  0  0  0  0  0  0  0  0
   37.2280   26.0780   34.8660 N   0  0  0  0  0  0  0  0  0  0  0  0
   38.3810   25.6350   35.4030 C   0  0  0  0  0  0  0  0  0  0  0  0
   39.5640   26.0480   34.9510 N   0  0  0  0  0  0  0  0  0  0  0  0
   38.2580   24.7050   36.4770 N   0  0  0  0  0  0  0  0  0  0  0  0
   38.0810   25.2560   37.6350 N   0  0  0  0  0  0  0  0  0  0  0  0
   37.9790   24.2680   38.5780 C   0  0  0  0  0  0  0  0  0  0  0  0
   38.1000   23.0760   37.9560 C   0  0  0  0  0  0  0  0  0  0  0  0
   38.2770   23.3620   36.6190 C   0  0  0  0  0  0  0  0  0  0  0  0
   40.8650   27.3780   33.4380 N   0  0  0  0  0  0  0  0  0  0  0  0
   38.4700   22.5700   35.3910 C   0  0  0  0  0  0  0  0  0  0  0  0
   39.5450   22.1680   34.7430 N   0  0  0  0  0  0  0  0  0  0  0  0
   39.2080   21.4760   33.6820 O   0  0  0  0  0  0  0  0  0  0  0  0
   37.8880   21.4480   33.6680 C   0  0  0  0  0  0  0  0  0  0  0  0
   37.3720   22.1270   34.7300 N   0  0  0  0  0  0  0  0  0  0  0  0
   36.9870   20.7850   32.6620 C   0  0  0  0  0  0  0  0  0  0  0  0
   38.4842   28.1343   32.5141 H   0  0  0  0  0  0  0  0  0  0  0  0
   36.2572   27.3287   33.4007 H   0  0  0  0  0  0  0  0  0  0  0  0
   37.8250   24.4197   39.6566 H   0  0  0  0  0  0  0  0  0  0  0  0
   38.0646   22.0798   38.4211 H   0  0  0  0  0  0  0  0  0  0  0  0
   40.9014   28.0509   32.6590 H   0  0  0  0  0  0  0  0  0  0  0  0
   41.7381   27.0306   33.8597 H   0  0  0  0  0  0  0  0  0  0  0  0
   36.2089   20.2124   33.1880 H   0  0  0  0  0  0  0  0  0  0  0  0
   36.5144   21.5523   32.0313 H   0  0  0  0  0  0  0  0  0  0  0  0
   37.5790   20.1055   32.0313 H   0  0  0  0  0  0  0  0  0  0  0  0
  1  6  2  0
  2  3  2  0
  2  1  1  0
  3  4  1  0
  4  5  2  0
  5  7  1  0
  6  5  1  0
  7 11  1  0
  7  8  1  0
  8  9  2  0
 10  9  1  0
 11 10  2  0
 12  1  1  0
 13 11  1  0
 14 13  2  0
 15 14  1  0
 16 15  1  0
 16 17  2  0
 17 13  1  0
 18 16  1  0
  2 19  1  0
  3 20  1  0
  9 21  1  0
 10 22  1  0
 12 23  1  0
 12 24  1  0
 18 25  1  0
 18 26  1  0
 18 27  1  0
M  ISO  7  19  14  20  14  21  14  22  14  25   8  26   8  27   8
M  END
>  <minimizedAffinity>  (1) 
-4.41886568

>  <minimizedRMSD>  (1) 
4.37128878

$$$$
