
     RDKit          3D

 23 24  0  0  0  0  0  0  0  0999 V2000
   38.5870   23.8730   33.3940 C   0  0  0  0  0  0  0  0  0  0  0  0
   38.9060   27.3060   32.1230 C   0  0  0  0  0  0  0  0  0  0  0  0
   37.5770   27.7670   32.0260 C   0  0  0  0  0  0  0  0  0  0  0  0
   36.5660   26.8560   32.4120 C   0  0  0  0  0  0  0  0  0  0  0  0
   36.9210   25.6080   32.8490 N   0  0  0  0  0  0  0  0  0  0  0  0
   38.2150   25.2300   32.9180 C   0  0  0  0  0  0  0  0  0  0  0  0
   39.1940   26.0630   32.5620 N   0  0  0  0  0  0  0  0  0  0  0  0
   38.3510   23.8060   34.8310 N   0  0  0  0  0  0  0  0  0  0  0  0
   38.5620   24.7670   35.7210 C   0  0  0  0  0  0  0  0  0  0  0  0
   38.2750   24.5200   37.0670 C   0  0  0  0  0  0  0  0  0  0  0  0
   37.7740   23.2890   37.4940 C   0  0  0  0  0  0  0  0  0  0  0  0
   37.5180   23.0830   38.7170 O   0  0  0  0  0  0  0  0  0  0  0  0
   37.5850   22.3620   36.5300 N   0  0  0  0  0  0  0  0  0  0  0  0
   37.8640   22.6070   35.2390 C   0  0  0  0  0  0  0  0  0  0  0  0
   37.6320   21.6320   34.4520 O   0  0  0  0  0  0  0  0  0  0  0  0
   39.6500   23.6844   33.1834 H   0  0  0  0  0  0  0  0  0  0  0  0
   37.9824   23.1133   32.8770 H   0  0  0  0  0  0  0  0  0  0  0  0
   39.7286   27.9765   31.8335 H   0  0  0  0  0  0  0  0  0  0  0  0
   37.3393   28.7801   31.6695 H   0  0  0  0  0  0  0  0  0  0  0  0
   35.5064   27.1470   32.3616 H   0  0  0  0  0  0  0  0  0  0  0  0
   38.9569   25.7437   35.4047 H   0  0  0  0  0  0  0  0  0  0  0  0
   38.4482   25.3149   37.8073 H   0  0  0  0  0  0  0  0  0  0  0  0
   37.2150   21.4375   36.7932 H   0  0  0  0  0  0  0  0  0  0  0  0
  1  8  1  0
  2  7  2  0
  3  2  1  0
  3  4  2  0
  4  5  1  0
  5  6  2  0
  6  1  1  0
  7  6  1  0
  8 14  1  0
  8  9  1  0
  9 10  2  0
 10 11  1  0
 11 12  2  0
 13 11  1  0
 14 13  1  0
 15 14  2  0
  1 16  1  0
  1 17  1  0
  2 18  1  0
  3 19  1  0
  4 20  1  0
  9 21  1  0
 10 22  1  0
 13 23  1  0
M  ISO  8  16   8  17   8  18  14  19  14  20  14  21  14  22  14  23   9
M  END
>  <minimizedAffinity>  (1) 
-3.94062328

>  <minimizedRMSD>  (1) 
5.44873095

$$$$
