
     RDKit          3D

 35 37  0  0  0  0  0  0  0  0999 V2000
   38.9910   26.6070   35.3310 C   0  0  0  0  0  0  0  0  0  0  0  0
   40.1140   27.0750   34.6750 C   0  0  0  0  0  0  0  0  0  0  0  0
   41.1880   26.2610   34.4420 C   0  0  0  0  0  0  0  0  0  0  0  0
   41.1890   24.9350   34.8570 C   0  0  0  0  0  0  0  0  0  0  0  0
   40.0660   24.4650   35.5130 C   0  0  0  0  0  0  0  0  0  0  0  0
   40.0590   23.1380   35.9360 C   0  0  0  0  0  0  0  0  0  0  0  0
   38.9650   22.6190   36.5990 C   0  0  0  0  0  0  0  0  0  0  0  0
   37.8700   23.4340   36.8390 C   0  0  0  0  0  0  0  0  0  0  0  0
   37.9070   24.7520   36.4040 C   0  0  0  0  0  0  0  0  0  0  0  0
   38.9900   25.3060   35.7380 C   0  0  0  0  0  0  0  0  0  0  0  0
   37.8370   27.4610   35.6140 C   0  0  0  0  0  0  0  0  0  0  0  0
   35.4440   29.1520   33.4080 C   0  0  0  0  0  0  0  0  0  0  0  0
   35.4090   28.3550   32.2720 C   0  0  0  0  0  0  0  0  0  0  0  0
   36.2170   27.2010   32.2550 C   0  0  0  0  0  0  0  0  0  0  0  0
   36.9950   26.9160   33.3420 N   0  0  0  0  0  0  0  0  0  0  0  0
   36.9900   27.7230   34.4150 C   0  0  0  0  0  0  0  0  0  0  0  0
   36.2270   28.8250   34.4500 N   0  0  0  0  0  0  0  0  0  0  0  0
   36.1610   26.3800   31.0490 C   0  0  0  0  0  0  0  0  0  0  0  0
   35.0120   25.4320   30.9940 C   0  0  0  0  0  0  0  0  0  0  0  0
   40.1444   28.1205   34.3344 H   0  0  0  0  0  0  0  0  0  0  0  0
   42.0668   26.6633   33.9167 H   0  0  0  0  0  0  0  0  0  0  0  0
   42.0537   24.2813   34.6701 H   0  0  0  0  0  0  0  0  0  0  0  0
   40.9322   22.4984   35.7402 H   0  0  0  0  0  0  0  0  0  0  0  0
   38.9624   21.5709   36.9329 H   0  0  0  0  0  0  0  0  0  0  0  0
   36.9866   23.0433   37.3652 H   0  0  0  0  0  0  0  0  0  0  0  0
   37.0320   25.3898   36.5976 H   0  0  0  0  0  0  0  0  0  0  0  0
   37.2176   26.9692   36.3785 H   0  0  0  0  0  0  0  0  0  0  0  0
   38.2255   28.4312   35.9572 H   0  0  0  0  0  0  0  0  0  0  0  0
   34.8248   30.0600   33.4557 H   0  0  0  0  0  0  0  0  0  0  0  0
   34.7719   28.6157   31.4140 H   0  0  0  0  0  0  0  0  0  0  0  0
   36.0933   27.0513   30.1803 H   0  0  0  0  0  0  0  0  0  0  0  0
   37.0724   25.7640   31.0497 H   0  0  0  0  0  0  0  0  0  0  0  0
   34.6999   25.1745   32.0169 H   0  0  0  0  0  0  0  0  0  0  0  0
   34.1725   25.9038   30.4623 H   0  0  0  0  0  0  0  0  0  0  0  0
   35.3157   24.5182   30.4623 H   0  0  0  0  0  0  0  0  0  0  0  0
  1 11  1  0
  1 10  1  0
  2  1  2  0
  3  2  1  0
  3  4  2  0
  4  5  1  0
  5 10  2  0
  5  6  1  0
  6  7  2  0
  7  8  1  0
  9  8  2  0
 10  9  1  0
 12 17  2  0
 13 12  1  0
 14 13  2  0
 14 15  1  0
 15 16  2  0
 16 17  1  0
 16 11  1  0
 18 14  1  0
 19 18  1  0
  2 20  1  0
  3 21  1  0
  4 22  1  0
  6 23  1  0
  7 24  1  0
  8 25  1  0
  9 26  1  0
 11 27  1  0
 11 28  1  0
 12 29  1  0
 13 30  1  0
 18 31  1  0
 18 32  1  0
 19 33  1  0
 19 34  1  0
 19 35  1  0
M  ISO  8  20  14  21  14  22  14  23  14  24  14  25  14  26  14  27   8
M  ISO  8  28   8  29  14  30  14  31   8  32   8  33   8  34   8  35   8
M  END
>  <minimizedAffinity>  (1) 
-5.46494246

>  <minimizedRMSD>  (1) 
0.465036839

$$$$
