
     RDKit          3D

 36 38  0  0  1  0  0  0  0  0999 V2000
   38.8600   25.2870   34.2370 N   0  0  0  0  0  0  0  0  0  0  0  0
   38.8710   25.4310   32.7960 C   0  0  0  0  0  0  0  0  0  0  0  0
   39.6150   26.6930   32.5220 C   0  0  0  0  0  0  0  0  0  0  0  0
   40.0120   27.1900   33.9040 C   0  0  0  0  0  0  0  0  0  0  0  0
   40.1190   25.8260   34.6390 C   0  0  2  0  0  0  0  0  0  0  0  0
   38.8340   23.9090   34.6300 C   0  0  0  0  0  0  0  0  0  0  0  0
   37.8830   24.2030   38.2860 C   0  0  0  0  0  0  0  0  0  0  0  0
   37.8380   24.3880   36.9040 C   0  0  0  0  0  0  0  0  0  0  0  0
   38.8280   23.7580   36.1210 C   0  0  0  0  0  0  0  0  0  0  0  0
   39.7660   23.0080   36.7670 N   0  0  0  0  0  0  0  0  0  0  0  0
   39.7540   22.8680   38.1100 C   0  0  0  0  0  0  0  0  0  0  0  0
   38.8120   23.4680   38.8510 N   0  0  0  0  0  0  0  0  0  0  0  0
   41.1800   25.0850   34.2010 O   0  0  0  0  0  0  0  0  0  0  0  0
   42.2490   25.0630   35.0600 C   0  0  2  0  0  0  0  0  0  0  0  0
   43.6010   25.1780   34.4270 C   0  0  0  0  0  0  0  0  0  0  0  0
   43.1860   23.8930   35.0820 C   0  0  1  0  0  0  0  0  0  0  0  0
   43.7580   23.5610   36.4380 C   0  0  0  0  0  0  0  0  0  0  0  0
   45.0330   23.0190   36.3060 F   0  0  0  0  0  0  0  0  0  0  0  0
   43.8430   24.6460   37.2710 F   0  0  0  0  0  0  0  0  0  0  0  0
   42.9910   22.5470   37.0020 F   0  0  0  0  0  0  0  0  0  0  0  0
   39.3815   24.5758   32.3291 H   0  0  0  0  0  0  0  0  0  0  0  0
   37.8517   25.4631   32.3836 H   0  0  0  0  0  0  0  0  0  0  0  0
   40.5049   26.4970   31.9059 H   0  0  0  0  0  0  0  0  0  0  0  0
   39.0154   27.4265   31.9630 H   0  0  0  0  0  0  0  0  0  0  0  0
   40.9728   27.7253   33.8883 H   0  0  0  0  0  0  0  0  0  0  0  0
   39.3226   27.9167   34.3587 H   0  0  0  0  0  0  0  0  0  0  0  0
   40.2949   25.8681   35.7240 H   0  0  0  0  0  0  0  0  0  0  0  0
   37.9280   23.4385   34.2204 H   0  0  0  0  0  0  0  0  0  0  0  0
   39.7409   23.4239   34.2398 H   0  0  0  0  0  0  0  0  0  0  0  0
   37.1217   24.6846   38.9172 H   0  0  0  0  0  0  0  0  0  0  0  0
   37.0552   25.0057   36.4395 H   0  0  0  0  0  0  0  0  0  0  0  0
   40.5248   22.2556   38.6007 H   0  0  0  0  0  0  0  0  0  0  0  0
   41.6812   25.5846   35.8446 H   0  0  0  0  0  0  0  0  0  0  0  0
   43.6929   25.2327   33.3322 H   0  0  0  0  0  0  0  0  0  0  0  0
   44.4535   25.8651   34.5328 H   0  0  0  0  0  0  0  0  0  0  0  0
   43.1633   22.8444   34.7506 H   0  0  0  0  0  0  0  0  0  0  0  0
  1  6  1  0
  1  5  1  0
  2  1  1  0
  3  2  1  0
  3  4  1  0
  4  5  1  0
  6  9  1  0
  7 12  2  0
  8  7  1  0
  9 10  1  0
  9  8  2  0
 10 11  2  0
 11 12  1  0
 13  5  1  0
 13 14  1  0
 14 16  1  0
 15 14  1  0
 15 16  1  0
 16 17  1  0
 17 20  1  0
 17 19  1  0
 18 17  1  0
  2 21  1  0
  2 22  1  0
  3 23  1  0
  3 24  1  0
  4 25  1  0
  4 26  1  0
  5 27  1  1
  6 28  1  0
  6 29  1  0
  7 30  1  0
  8 31  1  0
 11 32  1  0
 14 33  1  1
 15 34  1  0
 15 35  1  0
 16 36  1  6
M  ISO  8  21  13  22  13  23  13  24  13  25  13  26  13  27  13  28   8
M  ISO  8  29   8  30  14  31  14  32  14  33  13  34  13  35  13  36  13
M  END
>  <minimizedAffinity>  (1) 
-4.37720442

>  <minimizedRMSD>  (1) 
2.40884972

$$$$
