
     RDKit          3D

 42 44  0  0  0  0  0  0  0  0999 V2000
   38.5960   23.3210   35.0560 C   0  0  0  0  0  0  0  0  0  0  0  0
   38.3980   22.1080   34.4550 C   0  0  0  0  0  0  0  0  0  0  0  0
   38.3780   21.9620   33.0860 C   0  0  0  0  0  0  0  0  0  0  0  0
   38.5630   23.0630   32.2810 C   0  0  0  0  0  0  0  0  0  0  0  0
   38.7600   24.2700   32.9100 C   0  0  0  0  0  0  0  0  0  0  0  0
   38.7920   24.4880   34.3080 C   0  0  0  0  0  0  0  0  0  0  0  0
   39.5980   22.9760   37.3850 C   0  0  0  0  0  0  0  0  0  0  0  0
   38.5800   23.2660   36.5020 C   0  0  0  0  0  0  0  0  0  0  0  0
   37.5000   23.5050   37.2760 N   0  0  0  0  0  0  0  0  0  0  0  0
   37.8490   23.3660   38.5610 C   0  0  0  0  0  0  0  0  0  0  0  0
   39.1350   23.0390   38.6660 N   0  0  0  0  0  0  0  0  0  0  0  0
   42.6010   21.0580   36.3050 C   0  0  0  0  0  0  0  0  0  0  0  0
   41.2790   21.3330   36.6750 C   0  0  0  0  0  0  0  0  0  0  0  0
   40.9640   22.6500   36.9920 C   0  0  0  0  0  0  0  0  0  0  0  0
   41.9650   23.6070   36.9260 N   0  0  0  0  0  0  0  0  0  0  0  0
   43.2130   23.2860   36.5660 C   0  0  0  0  0  0  0  0  0  0  0  0
   43.5390   22.0320   36.2570 N   0  0  0  0  0  0  0  0  0  0  0  0
   44.2040   24.3970   36.5300 C   0  0  0  0  0  0  0  0  0  0  0  0
   44.2940   25.0360   37.7590 F   0  0  0  0  0  0  0  0  0  0  0  0
   43.8210   25.4010   35.6400 F   0  0  0  0  0  0  0  0  0  0  0  0
   45.4940   23.9450   36.2620 F   0  0  0  0  0  0  0  0  0  0  0  0
   39.0040   25.7660   34.9230 C   0  0  0  0  0  0  0  0  0  0  0  0
   38.5670   26.7760   33.8420 C   0  0  0  0  0  0  0  0  0  0  0  0
   38.3600   26.2020   36.1450 C   0  0  0  0  0  0  0  0  0  0  0  0
   40.5060   25.9780   35.0860 C   0  0  0  0  0  0  0  0  0  0  0  0
   38.2498   21.2197   35.0866 H   0  0  0  0  0  0  0  0  0  0  0  0
   38.2150   20.9707   32.6380 H   0  0  0  0  0  0  0  0  0  0  0  0
   38.5537   22.9812   31.1841 H   0  0  0  0  0  0  0  0  0  0  0  0
   38.9066   25.1493   32.2655 H   0  0  0  0  0  0  0  0  0  0  0  0
   37.1668   23.5032   39.4129 H   0  0  0  0  0  0  0  0  0  0  0  0
   39.6674   22.8695   39.5313 H   0  0  0  0  0  0  0  0  0  0  0  0
   42.8836   20.0266   36.0474 H   0  0  0  0  0  0  0  0  0  0  0  0
   40.5192   20.5385   36.7135 H   0  0  0  0  0  0  0  0  0  0  0  0
   38.1745   27.6831   34.3249 H   0  0  0  0  0  0  0  0  0  0  0  0
   39.4317   27.0392   33.2151 H   0  0  0  0  0  0  0  0  0  0  0  0
   37.7831   26.3259   33.2151 H   0  0  0  0  0  0  0  0  0  0  0  0
   38.9215   25.8219   37.0112 H   0  0  0  0  0  0  0  0  0  0  0  0
   38.3382   27.3014   36.1759 H   0  0  0  0  0  0  0  0  0  0  0  0
   37.3312   25.8139   36.1759 H   0  0  0  0  0  0  0  0  0  0  0  0
   40.7573   26.0135   36.1563 H   0  0  0  0  0  0  0  0  0  0  0  0
   41.0474   25.1474   34.6096 H   0  0  0  0  0  0  0  0  0  0  0  0
   40.7963   26.9260   34.6096 H   0  0  0  0  0  0  0  0  0  0  0  0
  1  8  1  0
  2  1  2  0
  3  2  1  0
  4  5  1  0
  4  3  2  0
  5  6  2  0
  6 22  1  0
  6  1  1  0
  7 11  1  0
  8  9  1  0
  8  7  2  0
  9 10  2  0
 10 11  1  0
 12 13  2  0
 13 14  1  0
 14  7  1  0
 15 14  2  0
 16 15  1  0
 17 12  1  0
 17 16  2  0
 18 16  1  0
 18 19  1  0
 20 18  1  0
 21 18  1  0
 22 25  1  0
 22 24  1  0
 23 22  1  0
  2 26  1  0
  3 27  1  0
  4 28  1  0
  5 29  1  0
 10 30  1  0
 11 31  1  0
 12 32  1  0
 13 33  1  0
 23 34  1  0
 23 35  1  0
 23 36  1  0
 24 37  1  0
 24 38  1  0
 24 39  1  0
 25 40  1  0
 25 41  1  0
 25 42  1  0
M  ISO  8  26  14  27  14  28  14  29  14  30  14  31   9  32  14  33  14
M  ISO  8  34   8  35   8  36   8  37   8  38   8  39   8  40   8  41   8
M  ISO  1  42   8
M  END
>  <minimizedAffinity>  (1) 
-5.71634817

>  <minimizedRMSD>  (1) 
2.424999

$$$$
