
     RDKit          3D

 42 44  0  0  1  0  0  0  0  0999 V2000
   42.3230   21.5840   33.4920 C   0  0  1  0  0  0  0  0  0  0  0  0
   41.8010   20.3040   32.9070 C   0  0  0  0  0  0  0  0  0  0  0  0
   41.8220   20.2440   31.4130 C   0  0  0  0  0  0  0  0  0  0  0  0
   41.5410   21.5740   30.7950 C   0  0  0  0  0  0  0  0  0  0  0  0
   40.7990   22.4550   31.7650 C   0  0  0  0  0  0  0  0  0  0  0  0
   41.6870   22.8260   32.9060 C   0  0  2  0  0  0  0  0  0  0  0  0
   42.5170   20.8140   37.0560 C   0  0  0  0  0  0  0  0  0  0  0  0
   41.4170   21.4830   37.5880 C   0  0  0  0  0  0  0  0  0  0  0  0
   40.5980   22.2040   36.7350 C   0  0  0  0  0  0  0  0  0  0  0  0
   40.9230   22.2170   35.3980 N   0  0  0  0  0  0  0  0  0  0  0  0
   41.9890   21.5570   34.9370 C   0  0  0  0  0  0  0  0  0  0  0  0
   42.7740   20.8680   35.7420 N   0  0  0  0  0  0  0  0  0  0  0  0
   39.4400   22.9020   37.2840 C   0  0  0  0  0  0  0  0  0  0  0  0
   38.5780   23.7070   36.5480 C   0  0  0  0  0  0  0  0  0  0  0  0
   37.6400   24.1590   37.4120 N   0  0  0  0  0  0  0  0  0  0  0  0
   37.9510   23.6270   38.6230 C   0  0  0  0  0  0  0  0  0  0  0  0
   39.0210   22.8710   38.5810 N   0  0  0  0  0  0  0  0  0  0  0  0
   42.7660   23.8240   32.5080 C   0  0  0  0  0  0  0  0  0  0  0  0
   43.3910   24.3760   33.7740 C   0  0  0  0  0  0  0  0  0  0  0  0
   42.2200   24.9920   31.7580 C   0  0  0  0  0  0  0  0  0  0  0  0
   43.4006   21.6386   33.2780 H   0  0  0  0  0  0  0  0  0  0  0  0
   42.4150   19.4763   33.2916 H   0  0  0  0  0  0  0  0  0  0  0  0
   40.7445   20.2349   33.2053 H   0  0  0  0  0  0  0  0  0  0  0  0
   42.8152   19.9030   31.0853 H   0  0  0  0  0  0  0  0  0  0  0  0
   41.0349   19.5466   31.0902 H   0  0  0  0  0  0  0  0  0  0  0  0
   42.4917   22.0553   30.5218 H   0  0  0  0  0  0  0  0  0  0  0  0
   40.9211   21.4279   29.8982 H   0  0  0  0  0  0  0  0  0  0  0  0
   40.4703   23.3687   31.2481 H   0  0  0  0  0  0  0  0  0  0  0  0
   39.9263   21.9084   32.1518 H   0  0  0  0  0  0  0  0  0  0  0  0
   41.0552   23.3157   33.6617 H   0  0  0  0  0  0  0  0  0  0  0  0
   43.1790   20.2376   37.7190 H   0  0  0  0  0  0  0  0  0  0  0  0
   41.2028   21.4394   38.6661 H   0  0  0  0  0  0  0  0  0  0  0  0
   38.6454   23.9324   35.4734 H   0  0  0  0  0  0  0  0  0  0  0  0
   37.3688   23.8106   39.5381 H   0  0  0  0  0  0  0  0  0  0  0  0
   39.4543   22.3606   39.3637 H   0  0  0  0  0  0  0  0  0  0  0  0
   43.4829   23.2918   31.8655 H   0  0  0  0  0  0  0  0  0  0  0  0
   42.8930   23.9362   34.6507 H   0  0  0  0  0  0  0  0  0  0  0  0
   44.4613   24.1230   33.7950 H   0  0  0  0  0  0  0  0  0  0  0  0
   43.2722   25.4694   33.7950 H   0  0  0  0  0  0  0  0  0  0  0  0
   41.8650   25.7515   32.4701 H   0  0  0  0  0  0  0  0  0  0  0  0
   43.0098   25.4233   31.1254 H   0  0  0  0  0  0  0  0  0  0  0  0
   41.3826   24.6626   31.1254 H   0  0  0  0  0  0  0  0  0  0  0  0
  1 11  1  0
  2  1  1  0
  3  2  1  0
  4  3  1  0
  4  5  1  0
  5  6  1  0
  6  1  1  0
  7  8  2  0
  9 13  1  0
  9  8  1  0
 10  9  2  0
 11 10  1  0
 11 12  2  0
 12  7  1  0
 13 17  1  0
 14 13  2  0
 14 15  1  0
 15 16  2  0
 17 16  1  0
 18  6  1  0
 18 19  1  0
 20 18  1  0
  1 21  1  1
  2 22  1  0
  2 23  1  0
  3 24  1  0
  3 25  1  0
  4 26  1  0
  4 27  1  0
  5 28  1  0
  5 29  1  0
  6 30  1  1
  7 31  1  0
  8 32  1  0
 14 33  1  0
 16 34  1  0
 17 35  1  0
 18 36  1  0
 19 37  1  0
 19 38  1  0
 19 39  1  0
 20 40  1  0
 20 41  1  0
 20 42  1  0
M  ISO  8  21  13  22  13  23  13  24  13  25  13  26  13  27  13  28  13
M  ISO  8  29  13  30  13  31  14  32  14  33  14  34  14  35   9  36   8
M  ISO  6  37   8  38   8  39   8  40   8  41   8  42   8
M  END
>  <minimizedAffinity>  (1) 
-3.82772517

>  <minimizedRMSD>  (1) 
1.0693748

$$$$
