
     RDKit          3D

 30 31  0  0  0  0  0  0  0  0999 V2000
   37.2970   26.9790   33.5520 C   0  0  0  0  0  0  0  0  0  0  0  0
   36.4940   28.0710   33.8130 C   0  0  0  0  0  0  0  0  0  0  0  0
   36.2000   28.9100   32.7890 C   0  0  0  0  0  0  0  0  0  0  0  0
   36.7310   28.6150   31.5310 C   0  0  0  0  0  0  0  0  0  0  0  0
   37.6970   27.0610   31.8250 S   0  0  0  0  0  0  0  0  0  0  0  0
   37.8930   26.2290   35.8880 C   0  0  0  0  0  0  0  0  0  0  0  0
   37.7190   25.9830   34.5070 C   0  0  0  0  0  0  0  0  0  0  0  0
   37.9680   24.7120   34.0060 C   0  0  0  0  0  0  0  0  0  0  0  0
   38.3750   23.7700   34.9050 N   0  0  0  0  0  0  0  0  0  0  0  0
   38.5340   24.0460   36.2420 C   0  0  0  0  0  0  0  0  0  0  0  0
   38.2880   25.2730   36.7010 N   0  0  0  0  0  0  0  0  0  0  0  0
   38.9820   22.9720   37.1680 C   0  0  0  0  0  0  0  0  0  0  0  0
   40.4670   22.7540   37.1200 C   0  0  0  0  0  0  0  0  0  0  0  0
   38.6610   23.4600   38.5830 C   0  0  0  0  0  0  0  0  0  0  0  0
   36.6660   29.2090   30.2600 C   0  0  0  0  0  0  0  0  0  0  0  0
   37.0800   28.6190   29.2550 O   0  0  0  0  0  0  0  0  0  0  0  0
   36.1140   30.5300   30.0840 N   0  0  0  0  0  0  0  0  0  0  0  0
   36.1031   28.2557   34.8245 H   0  0  0  0  0  0  0  0  0  0  0  0
   35.5641   29.7941   32.9439 H   0  0  0  0  0  0  0  0  0  0  0  0
   37.6953   27.2342   36.2887 H   0  0  0  0  0  0  0  0  0  0  0  0
   37.8434   24.4767   32.9387 H   0  0  0  0  0  0  0  0  0  0  0  0
   38.4815   22.0340   36.8856 H   0  0  0  0  0  0  0  0  0  0  0  0
   40.8624   22.6960   38.1448 H   0  0  0  0  0  0  0  0  0  0  0  0
   40.6827   21.8146   36.5900 H   0  0  0  0  0  0  0  0  0  0  0  0
   40.9436   23.5918   36.5900 H   0  0  0  0  0  0  0  0  0  0  0  0
   39.1109   22.7760   39.3176 H   0  0  0  0  0  0  0  0  0  0  0  0
   39.0711   24.4709   38.7241 H   0  0  0  0  0  0  0  0  0  0  0  0
   37.5703   23.4838   38.7241 H   0  0  0  0  0  0  0  0  0  0  0  0
   36.0741   30.9505   29.1446 H   0  0  0  0  0  0  0  0  0  0  0  0
   35.7598   31.0528   30.8977 H   0  0  0  0  0  0  0  0  0  0  0  0
  1  2  2  0
  1  7  1  0
  3  2  1  0
  4  5  1  0
  4  3  2  0
  5  1  1  0
  6 11  2  0
  7  6  1  0
  8  7  2  0
  8  9  1  0
  9 10  2  0
 10 11  1  0
 10 12  1  0
 12 14  1  0
 13 12  1  0
 15  4  1  0
 16 15  2  0
 17 15  1  0
  2 18  1  0
  3 19  1  0
  6 20  1  0
  8 21  1  0
 12 22  1  0
 13 23  1  0
 13 24  1  0
 13 25  1  0
 14 26  1  0
 14 27  1  0
 14 28  1  0
 17 29  1  0
 17 30  1  0
M  ISO  8  18  14  19  14  20  14  21  14  22   8  23   8  24   8  25   8
M  ISO  3  26   8  27   8  28   8
M  END
>  <minimizedAffinity>  (1) 
-4.67170048

>  <minimizedRMSD>  (1) 
2.55178285

$$$$
