
     RDKit          3D

 25 25  0  0  0  0  0  0  0  0999 V2000
   39.4850   27.1530   32.6550 C   0  0  0  0  0  0  0  0  0  0  0  0
   39.4780   27.0070   34.0890 C   0  0  0  0  0  0  0  0  0  0  0  0
   38.2310   27.1100   34.7050 C   0  0  0  0  0  0  0  0  0  0  0  0
   37.0910   27.3350   33.9480 N   0  0  0  0  0  0  0  0  0  0  0  0
   37.1720   27.4580   32.6230 C   0  0  0  0  0  0  0  0  0  0  0  0
   38.3340   27.3710   31.9920 N   0  0  0  0  0  0  0  0  0  0  0  0
   38.4360   26.9650   36.1720 C   0  0  0  0  0  0  0  0  0  0  0  0
   38.0980   25.4970   36.5130 C   0  0  0  0  0  0  0  0  0  0  0  0
   40.8840   26.6970   34.4410 C   0  0  0  0  0  0  0  0  0  0  0  0
   41.1130   25.1610   34.3050 C   0  0  0  0  0  0  0  0  0  0  0  0
   41.8220   27.3650   33.4920 C   0  0  0  0  0  0  0  0  0  0  0  0
   40.4331   27.0861   32.1012 H   0  0  0  0  0  0  0  0  0  0  0  0
   36.2553   27.6354   32.0415 H   0  0  0  0  0  0  0  0  0  0  0  0
   39.4811   27.1862   36.4344 H   0  0  0  0  0  0  0  0  0  0  0  0
   37.8002   27.6634   36.7359 H   0  0  0  0  0  0  0  0  0  0  0  0
   38.0691   25.3716   37.6055 H   0  0  0  0  0  0  0  0  0  0  0  0
   37.1168   25.2385   36.0882 H   0  0  0  0  0  0  0  0  0  0  0  0
   38.8673   24.8354   36.0882 H   0  0  0  0  0  0  0  0  0  0  0  0
   41.0689   27.0478   35.4670 H   0  0  0  0  0  0  0  0  0  0  0  0
   41.1802   24.7102   35.3061 H   0  0  0  0  0  0  0  0  0  0  0  0
   40.2719   24.7120   33.7564 H   0  0  0  0  0  0  0  0  0  0  0  0
   42.0485   24.9769   33.7564 H   0  0  0  0  0  0  0  0  0  0  0  0
   42.5897   27.9117   34.0591 H   0  0  0  0  0  0  0  0  0  0  0  0
   42.3049   26.6063   32.8586 H   0  0  0  0  0  0  0  0  0  0  0  0
   41.2629   28.0694   32.8586 H   0  0  0  0  0  0  0  0  0  0  0  0
  1  2  2  0
  2  9  1  0
  2  3  1  0
  3  7  1  0
  4  3  2  0
  5  4  1  0
  6  5  2  0
  6  1  1  0
  7  8  1  0
 10  9  1  0
 11  9  1  0
  1 12  1  0
  5 13  1  0
  7 14  1  0
  7 15  1  0
  8 16  1  0
  8 17  1  0
  8 18  1  0
  9 19  1  0
 10 20  1  0
 10 21  1  0
 10 22  1  0
 11 23  1  0
 11 24  1  0
 11 25  1  0
M  ISO  8  12  14  13  14  14   8  15   8  16   8  17   8  18   8  19   8
M  ISO  6  20   8  21   8  22   8  23   8  24   8  25   8
M  END
>  <minimizedAffinity>  (1) 
-3.24444604

>  <minimizedRMSD>  (1) 
6.16157818

$$$$
