
     RDKit          3D

 51 53  0  0  0  0  0  0  0  0999 V2000
   38.1220   23.3640   35.1950 C   0  0  0  0  0  0  0  0  0  0  0  0
   37.6380   22.1950   34.6900 C   0  0  0  0  0  0  0  0  0  0  0  0
   37.3640   22.0390   33.3470 C   0  0  0  0  0  0  0  0  0  0  0  0
   37.5810   23.0790   32.4780 C   0  0  0  0  0  0  0  0  0  0  0  0
   38.0700   24.2450   33.0160 C   0  0  0  0  0  0  0  0  0  0  0  0
   38.3730   24.4760   34.3850 C   0  0  0  0  0  0  0  0  0  0  0  0
   39.4000   22.8250   37.3470 C   0  0  0  0  0  0  0  0  0  0  0  0
   38.3440   23.3380   36.6230 C   0  0  0  0  0  0  0  0  0  0  0  0
   37.5040   23.8440   37.5520 N   0  0  0  0  0  0  0  0  0  0  0  0
   38.0310   23.6420   38.7680 C   0  0  0  0  0  0  0  0  0  0  0  0
   39.1940   23.0200   38.6760 N   0  0  0  0  0  0  0  0  0  0  0  0
   42.5650   20.9080   36.9870 C   0  0  0  0  0  0  0  0  0  0  0  0
   41.4700   21.5170   37.5820 C   0  0  0  0  0  0  0  0  0  0  0  0
   40.5620   22.1720   36.7650 C   0  0  0  0  0  0  0  0  0  0  0  0
   40.8030   22.1770   35.3930 N   0  0  0  0  0  0  0  0  0  0  0  0
   41.8800   21.5720   34.8580 C   0  0  0  0  0  0  0  0  0  0  0  0
   42.7530   20.9420   35.6520 N   0  0  0  0  0  0  0  0  0  0  0  0
   42.1280   21.5820   33.4100 C   0  0  0  0  0  0  0  0  0  0  0  0
   41.3150   20.5230   32.6990 C   0  0  0  0  0  0  0  0  0  0  0  0
   41.7650   22.9070   32.7430 C   0  0  0  0  0  0  0  0  0  0  0  0
   43.5790   21.2970   33.0600 C   0  0  0  0  0  0  0  0  0  0  0  0
   38.8840   25.7110   34.9000 C   0  0  0  0  0  0  0  0  0  0  0  0
   38.6910   26.7060   33.7320 C   0  0  0  0  0  0  0  0  0  0  0  0
   38.3590   26.3870   36.0680 C   0  0  0  0  0  0  0  0  0  0  0  0
   40.3940   25.5840   35.0520 C   0  0  0  0  0  0  0  0  0  0  0  0
   37.4605   21.3511   35.3729 H   0  0  0  0  0  0  0  0  0  0  0  0
   36.9719   21.0818   32.9728 H   0  0  0  0  0  0  0  0  0  0  0  0
   37.3733   22.9836   31.4020 H   0  0  0  0  0  0  0  0  0  0  0  0
   38.2435   25.0794   32.3205 H   0  0  0  0  0  0  0  0  0  0  0  0
   37.5603   23.9514   39.7128 H   0  0  0  0  0  0  0  0  0  0  0  0
   39.8142   22.7415   39.4498 H   0  0  0  0  0  0  0  0  0  0  0  0
   43.2976   20.3848   37.6192 H   0  0  0  0  0  0  0  0  0  0  0  0
   41.3263   21.4811   38.6720 H   0  0  0  0  0  0  0  0  0  0  0  0
   40.8211   19.8796   33.4420 H   0  0  0  0  0  0  0  0  0  0  0  0
   40.5539   21.0066   32.0690 H   0  0  0  0  0  0  0  0  0  0  0  0
   41.9788   19.9127   32.0690 H   0  0  0  0  0  0  0  0  0  0  0  0
   41.5582   23.6620   33.5158 H   0  0  0  0  0  0  0  0  0  0  0  0
   42.6039   23.2440   32.1164 H   0  0  0  0  0  0  0  0  0  0  0  0
   40.8715   22.7694   32.1164 H   0  0  0  0  0  0  0  0  0  0  0  0
   44.1635   21.1822   33.9848 H   0  0  0  0  0  0  0  0  0  0  0  0
   43.6388   20.3699   32.4709 H   0  0  0  0  0  0  0  0  0  0  0  0
   43.9850   22.1326   32.4709 H   0  0  0  0  0  0  0  0  0  0  0  0
   38.4961   27.7109   34.1348 H   0  0  0  0  0  0  0  0  0  0  0  0
   39.6015   26.7285   33.1152 H   0  0  0  0  0  0  0  0  0  0  0  0
   37.8381   26.3864   33.1152 H   0  0  0  0  0  0  0  0  0  0  0  0
   38.7392   25.8975   36.9768 H   0  0  0  0  0  0  0  0  0  0  0  0
   38.6789   27.4394   36.0573 H   0  0  0  0  0  0  0  0  0  0  0  0
   37.2602   26.3376   36.0573 H   0  0  0  0  0  0  0  0  0  0  0  0
   40.6544   25.5621   36.1205 H   0  0  0  0  0  0  0  0  0  0  0  0
   40.7339   24.6541   34.5726 H   0  0  0  0  0  0  0  0  0  0  0  0
   40.8844   26.4441   34.5726 H   0  0  0  0  0  0  0  0  0  0  0  0
  1  8  1  0
  2  1  2  0
  3  2  1  0
  4  5  1  0
  4  3  2  0
  5  6  2  0
  6 22  1  0
  6  1  1  0
  7 11  1  0
  8  7  2  0
  8  9  1  0
  9 10  2  0
 11 10  1  0
 12 13  2  0
 14  7  1  0
 14 13  1  0
 15 14  2  0
 16 15  1  0
 16 17  2  0
 17 12  1  0
 18 16  1  0
 19 18  1  0
 20 18  1  0
 21 18  1  0
 22 25  1  0
 22 24  1  0
 23 22  1  0
  2 26  1  0
  3 27  1  0
  4 28  1  0
  5 29  1  0
 10 30  1  0
 11 31  1  0
 12 32  1  0
 13 33  1  0
 19 34  1  0
 19 35  1  0
 19 36  1  0
 20 37  1  0
 20 38  1  0
 20 39  1  0
 21 40  1  0
 21 41  1  0
 21 42  1  0
 23 43  1  0
 23 44  1  0
 23 45  1  0
 24 46  1  0
 24 47  1  0
 24 48  1  0
 25 49  1  0
 25 50  1  0
 25 51  1  0
M  ISO  8  26  14  27  14  28  14  29  14  30  14  31   9  32  14  33  14
M  ISO  8  34   8  35   8  36   8  37   8  38   8  39   8  40   8  41   8
M  ISO  8  42   8  43   8  44   8  45   8  46   8  47   8  48   8  49   8
M  ISO  2  50   8  51   8
M  END
>  <minimizedAffinity>  (1) 
-5.48362923

>  <minimizedRMSD>  (1) 
0.23283425

$$$$
