
     RDKit          3D

 48 51  0  0  1  0  0  0  0  0999 V2000
   38.2520   23.8100   35.6390 C   0  0  0  0  0  0  0  0  0  0  0  0
   38.1840   24.5320   36.8310 C   0  0  0  0  0  0  0  0  0  0  0  0
   38.1340   25.9270   36.7510 C   0  0  0  0  0  0  0  0  0  0  0  0
   38.1540   26.5060   35.5260 N   0  0  0  0  0  0  0  0  0  0  0  0
   38.2160   25.8000   34.4060 C   0  0  0  0  0  0  0  0  0  0  0  0
   38.2650   24.4730   34.4660 N   0  0  0  0  0  0  0  0  0  0  0  0
   38.2210   26.4990   33.1680 N   0  0  0  0  0  0  0  0  0  0  0  0
   38.9340   25.9360   32.0670 C   0  0  0  0  0  0  0  0  0  0  0  0
   39.2770   27.0820   31.1420 C   0  0  0  0  0  0  0  0  0  0  0  0
   38.0850   27.8150   30.6550 C   0  0  0  0  0  0  0  0  0  0  0  0
   36.9920   28.0360   31.6680 C   0  0  0  0  0  0  0  0  0  0  0  0
   37.5060   27.7390   33.0400 C   0  0  1  0  0  0  0  0  0  0  0  0
   38.1650   23.8700   38.1500 C   0  0  0  0  0  0  0  0  0  0  0  0
   39.3770   23.3180   38.3700 F   0  0  0  0  0  0  0  0  0  0  0  0
   37.2070   22.9010   38.2760 F   0  0  0  0  0  0  0  0  0  0  0  0
   38.0060   24.8280   39.1660 F   0  0  0  0  0  0  0  0  0  0  0  0
   38.3190   22.3300   35.4930 C   0  0  0  0  0  0  0  0  0  0  0  0
   38.4750   21.9670   34.1630 F   0  0  0  0  0  0  0  0  0  0  0  0
   39.3640   21.8100   36.2420 F   0  0  0  0  0  0  0  0  0  0  0  0
   37.2290   21.6790   35.9610 F   0  0  0  0  0  0  0  0  0  0  0  0
   36.4040   27.9230   34.0380 C   0  0  0  0  0  0  0  0  0  0  0  0
   35.4780   28.9950   33.5880 N   0  0  0  0  0  0  0  0  0  0  0  0
   34.8580   29.0410   32.3720 C   0  0  0  0  0  0  0  0  0  0  0  0
   34.0920   30.1290   32.3040 N   0  0  0  0  0  0  0  0  0  0  0  0
   34.1930   30.8110   33.4550 C   0  0  0  0  0  0  0  0  0  0  0  0
   33.6300   31.9870   33.9140 C   0  0  0  0  0  0  0  0  0  0  0  0
   32.8360   32.6500   33.1980 O   0  0  0  0  0  0  0  0  0  0  0  0
   33.9170   32.4600   35.1470 N   0  0  0  0  0  0  0  0  0  0  0  0
   34.7750   31.7240   35.8940 C   0  0  0  0  0  0  0  0  0  0  0  0
   35.1360   32.1400   37.2020 N   0  0  0  0  0  0  0  0  0  0  0  0
   35.3260   30.5800   35.4570 N   0  0  0  0  0  0  0  0  0  0  0  0
   35.0590   30.0890   34.2390 C   0  0  0  0  0  0  0  0  0  0  0  0
   38.0796   26.5408   37.6622 H   0  0  0  0  0  0  0  0  0  0  0  0
   39.8530   25.4459   32.4209 H   0  0  0  0  0  0  0  0  0  0  0  0
   38.3292   25.1765   31.5498 H   0  0  0  0  0  0  0  0  0  0  0  0
   39.9240   27.7874   31.6841 H   0  0  0  0  0  0  0  0  0  0  0  0
   39.7795   26.6533   30.2624 H   0  0  0  0  0  0  0  0  0  0  0  0
   38.4177   28.8005   30.2971 H   0  0  0  0  0  0  0  0  0  0  0  0
   37.6432   27.1805   29.8725 H   0  0  0  0  0  0  0  0  0  0  0  0
   36.6576   29.0829   31.6220 H   0  0  0  0  0  0  0  0  0  0  0  0
   36.1480   27.3672   31.4436 H   0  0  0  0  0  0  0  0  0  0  0  0
   38.2950   28.4731   33.2604 H   0  0  0  0  0  0  0  0  0  0  0  0
   35.8461   26.9806   34.1412 H   0  0  0  0  0  0  0  0  0  0  0  0
   36.8406   28.2088   35.0063 H   0  0  0  0  0  0  0  0  0  0  0  0
   34.9733   28.2948   31.5721 H   0  0  0  0  0  0  0  0  0  0  0  0
   33.5047   33.3351   35.5007 H   0  0  0  0  0  0  0  0  0  0  0  0
   35.7891   31.5727   37.7610 H   0  0  0  0  0  0  0  0  0  0  0  0
   34.7449   33.0092   37.5923 H   0  0  0  0  0  0  0  0  0  0  0  0
  1  2  2  0
  2 13  1  0
  3  2  1  0
  4  3  2  0
  5  6  2  0
  5  4  1  0
  6  1  1  0
  7  5  1  0
  8  7  1  0
  9  8  1  0
 10  9  1  0
 10 11  1  0
 11 12  1  0
 12  7  1  0
 12 21  1  0
 13 15  1  0
 13 14  1  0
 13 16  1  0
 17  1  1  0
 17 20  1  0
 17 19  1  0
 18 17  1  0
 22 21  1  0
 22 32  1  0
 23 22  1  0
 24 23  2  0
 24 25  1  0
 25 26  1  0
 25 32  2  0
 26 28  1  0
 27 26  2  0
 28 29  1  0
 29 30  1  0
 31 29  2  0
 32 31  1  0
  3 33  1  0
  8 34  1  0
  8 35  1  0
  9 36  1  0
  9 37  1  0
 10 38  1  0
 10 39  1  0
 11 40  1  0
 11 41  1  0
 12 42  1  1
 21 43  1  0
 21 44  1  0
 23 45  1  0
 28 46  1  0
 30 47  1  0
 30 48  1  0
M  END
>  <minimizedAffinity>  (1) 
-7.31439638

>  <minimizedRMSD>  (1) 
0.603016019

$$$$
