
     RDKit          3D

 37 39  0  0  0  0  0  0  0  0999 V2000
   43.6140   19.7380   37.0870 C   0  0  0  0  0  0  0  0  0  0  0  0
   42.4770   20.5050   37.3020 C   0  0  0  0  0  0  0  0  0  0  0  0
   41.9470   21.2230   36.2310 C   0  0  0  0  0  0  0  0  0  0  0  0
   42.5920   21.1230   35.0170 N   0  0  0  0  0  0  0  0  0  0  0  0
   43.6780   20.3780   34.8520 C   0  0  0  0  0  0  0  0  0  0  0  0
   44.1970   19.6800   35.8890 N   0  0  0  0  0  0  0  0  0  0  0  0
   44.3360   20.3030   33.5230 C   0  0  0  0  0  0  0  0  0  0  0  0
   45.7110   20.0470   33.3690 C   0  0  0  0  0  0  0  0  0  0  0  0
   46.2020   20.0020   32.1010 C   0  0  0  0  0  0  0  0  0  0  0  0
   45.3850   20.2000   30.9920 C   0  0  0  0  0  0  0  0  0  0  0  0
   43.7320   20.4830   31.8190 S   0  0  0  0  0  0  0  0  0  0  0  0
   45.4680   20.2350   29.5780 C   0  0  0  0  0  0  0  0  0  0  0  0
   44.1860   19.8040   28.9290 C   0  0  0  0  0  0  0  0  0  0  0  0
   45.8690   21.6050   29.0440 C   0  0  0  0  0  0  0  0  0  0  0  0
   46.5450   19.2770   29.0450 C   0  0  0  0  0  0  0  0  0  0  0  0
   40.7510   22.0660   36.3550 C   0  0  0  0  0  0  0  0  0  0  0  0
   39.9120   22.6700   35.4950 N   0  0  0  0  0  0  0  0  0  0  0  0
   39.0000   23.3080   36.1680 O   0  0  0  0  0  0  0  0  0  0  0  0
   39.2050   23.1470   37.4650 C   0  0  0  0  0  0  0  0  0  0  0  0
   40.2850   22.3810   37.5770 N   0  0  0  0  0  0  0  0  0  0  0  0
   38.4090   23.6980   38.5750 C   0  0  0  0  0  0  0  0  0  0  0  0
   39.2480   23.8870   39.6850 F   0  0  0  0  0  0  0  0  0  0  0  0
   37.3820   22.8690   38.9310 F   0  0  0  0  0  0  0  0  0  0  0  0
   37.9410   24.9570   38.2430 F   0  0  0  0  0  0  0  0  0  0  0  0
   44.0432   19.1658   37.9227 H   0  0  0  0  0  0  0  0  0  0  0  0
   42.0050   20.5453   38.2948 H   0  0  0  0  0  0  0  0  0  0  0  0
   46.3638   19.8893   34.2402 H   0  0  0  0  0  0  0  0  0  0  0  0
   47.2732   19.8039   31.9483 H   0  0  0  0  0  0  0  0  0  0  0  0
   43.4474   19.5557   29.7054 H   0  0  0  0  0  0  0  0  0  0  0  0
   43.7991   20.6215   28.3029 H   0  0  0  0  0  0  0  0  0  0  0  0
   44.3715   18.9188   28.3029 H   0  0  0  0  0  0  0  0  0  0  0  0
   46.0675   22.2833   29.8869 H   0  0  0  0  0  0  0  0  0  0  0  0
   46.7764   21.5079   28.4299 H   0  0  0  0  0  0  0  0  0  0  0  0
   45.0525   22.0125   28.4299 H   0  0  0  0  0  0  0  0  0  0  0  0
   47.0707   18.8094   29.8906 H   0  0  0  0  0  0  0  0  0  0  0  0
   46.0707   18.4969   28.4315 H   0  0  0  0  0  0  0  0  0  0  0  0
   47.2645   19.8390   28.4315 H   0  0  0  0  0  0  0  0  0  0  0  0
  1  2  2  0
  3 16  1  0
  3  2  1  0
  4  3  2  0
  5  4  1  0
  5  6  2  0
  6  1  1  0
  7  5  1  0
  8  7  2  0
  9  8  1  0
 10 11  1  0
 10  9  2  0
 11  7  1  0
 12 10  1  0
 13 12  1  0
 14 12  1  0
 15 12  1  0
 16 20  1  0
 17 18  1  0
 17 16  2  0
 18 19  1  0
 19 20  2  0
 19 21  1  0
 21 23  1  0
 21 22  1  0
 24 21  1  0
  1 25  1  0
  2 26  1  0
  8 27  1  0
  9 28  1  0
 13 29  1  0
 13 30  1  0
 13 31  1  0
 14 32  1  0
 14 33  1  0
 14 34  1  0
 15 35  1  0
 15 36  1  0
 15 37  1  0
M  ISO  8  25  14  26  14  27  14  28  14  29   8  30   8  31   8  32   8
M  ISO  5  33   8  34   8  35   8  36   8  37   8
M  END
>  <minimizedAffinity>  (1) 
-3.88651037

>  <minimizedRMSD>  (1) 
0.0280061029

$$$$
