
     RDKit          3D

 55 59  0  0  0  0  0  0  0  0999 V2000
   37.1580   26.7610   34.6030 C   0  0  0  0  0  0  0  0  0  0  0  0
   37.2670   25.9730   33.4710 C   0  0  0  0  0  0  0  0  0  0  0  0
   36.6280   26.3970   32.2870 C   0  0  0  0  0  0  0  0  0  0  0  0
   35.9410   27.5600   32.3360 N   0  0  0  0  0  0  0  0  0  0  0  0
   35.8490   28.3090   33.4460 C   0  0  0  0  0  0  0  0  0  0  0  0
   36.4580   27.9170   34.5950 N   0  0  0  0  0  0  0  0  0  0  0  0
   37.8240   26.3080   35.8180 C   0  0  0  0  0  0  0  0  0  0  0  0
   38.6850   27.0440   36.3550 O   0  0  0  0  0  0  0  0  0  0  0  0
   37.5000   25.0870   36.3550 O   0  0  0  0  0  0  0  0  0  0  0  0
   39.4490   22.7900   38.2010 N   0  0  0  0  0  0  0  0  0  0  0  0
   38.3880   23.5830   38.0120 N   0  0  0  0  0  0  0  0  0  0  0  0
   38.4970   24.1920   36.8010 C   0  0  0  0  0  0  0  0  0  0  0  0
   39.6610   23.7740   36.2070 C   0  0  0  0  0  0  0  0  0  0  0  0
   40.2220   22.9110   37.0980 C   0  0  0  0  0  0  0  0  0  0  0  0
   41.5130   22.2020   36.8720 C   0  0  0  0  0  0  0  0  0  0  0  0
   42.5310   22.8410   36.2080 C   0  0  0  0  0  0  0  0  0  0  0  0
   43.6720   22.1040   36.0540 C   0  0  0  0  0  0  0  0  0  0  0  0
   43.8640   20.8360   36.4920 N   0  0  0  0  0  0  0  0  0  0  0  0
   42.8210   20.2420   37.1470 C   0  0  0  0  0  0  0  0  0  0  0  0
   41.6880   20.9430   37.3130 N   0  0  0  0  0  0  0  0  0  0  0  0
   35.0740   29.5720   33.4010 C   0  0  0  0  0  0  0  0  0  0  0  0
   35.8590   30.6120   34.1870 C   0  0  0  0  0  0  0  0  0  0  0  0
   33.7450   29.3140   34.0660 C   0  0  0  0  0  0  0  0  0  0  0  0
   34.8710   30.0500   31.9590 C   0  0  0  0  0  0  0  0  0  0  0  0
   36.0390   30.6990   31.6040 O   0  0  0  0  0  0  0  0  0  0  0  0
   36.8030   30.5730   30.4790 C   0  0  0  0  0  0  0  0  0  0  0  0
   36.9640   29.4780   29.7110 N   0  0  0  0  0  0  0  0  0  0  0  0
   37.7650   29.4980   28.6090 C   0  0  0  0  0  0  0  0  0  0  0  0
   38.4560   30.5840   28.1870 N   0  0  0  0  0  0  0  0  0  0  0  0
   38.3040   31.7030   28.9550 C   0  0  0  0  0  0  0  0  0  0  0  0
   39.0140   32.8020   28.5140 C   0  0  0  0  0  0  0  0  0  0  0  0
   38.8860   33.9640   29.2700 C   0  0  0  0  0  0  0  0  0  0  0  0
   38.0960   34.0390   30.4040 C   0  0  0  0  0  0  0  0  0  0  0  0
   37.4090   32.9010   30.7930 C   0  0  0  0  0  0  0  0  0  0  0  0
   37.4910   31.7210   30.0930 C   0  0  0  0  0  0  0  0  0  0  0  0
   37.8405   25.0346   33.4938 H   0  0  0  0  0  0  0  0  0  0  0  0
   36.6864   25.8053   31.3616 H   0  0  0  0  0  0  0  0  0  0  0  0
   39.6397   22.2024   39.0252 H   0  0  0  0  0  0  0  0  0  0  0  0
   40.0553   24.0716   35.2242 H   0  0  0  0  0  0  0  0  0  0  0  0
   42.4355   23.8690   35.8284 H   0  0  0  0  0  0  0  0  0  0  0  0
   44.5100   22.5835   35.5269 H   0  0  0  0  0  0  0  0  0  0  0  0
   42.9081   19.2141   37.5289 H   0  0  0  0  0  0  0  0  0  0  0  0
   35.7254   30.4350   35.2644 H   0  0  0  0  0  0  0  0  0  0  0  0
   36.9264   30.5353   33.9324 H   0  0  0  0  0  0  0  0  0  0  0  0
   35.4927   31.6175   33.9324 H   0  0  0  0  0  0  0  0  0  0  0  0
   33.8708   29.3384   35.1585 H   0  0  0  0  0  0  0  0  0  0  0  0
   33.0263   30.0894   33.7622 H   0  0  0  0  0  0  0  0  0  0  0  0
   33.3687   28.3260   33.7622 H   0  0  0  0  0  0  0  0  0  0  0  0
   34.6931   29.1923   31.2936 H   0  0  0  0  0  0  0  0  0  0  0  0
   33.9990   30.7152   31.8743 H   0  0  0  0  0  0  0  0  0  0  0  0
   37.8566   28.5713   28.0235 H   0  0  0  0  0  0  0  0  0  0  0  0
   39.6461   32.7616   27.6147 H   0  0  0  0  0  0  0  0  0  0  0  0
   39.4367   34.8616   28.9522 H   0  0  0  0  0  0  0  0  0  0  0  0
   38.0162   34.9736   30.9786 H   0  0  0  0  0  0  0  0  0  0  0  0
   36.7767   32.9430   31.6921 H   0  0  0  0  0  0  0  0  0  0  0  0
  1  7  1  0
  2  1  2  0
  3  4  2  0
  3  2  1  0
  4  5  1  0
  5  6  2  0
  6  1  1  0
  7  9  1  0
  7  8  2  0
  9 12  1  0
 11 10  1  0
 12 11  2  0
 13 12  1  0
 13 14  2  0
 14 10  1  0
 15 14  1  0
 15 20  1  0
 16 15  2  0
 17 16  1  0
 17 18  2  0
 18 19  1  0
 19 20  2  0
 21  5  1  0
 21 23  1  0
 21 22  1  0
 24 21  1  0
 25 24  1  0
 26 25  1  0
 27 26  2  0
 28 27  1  0
 29 28  2  0
 29 30  1  0
 30 35  2  0
 31 30  1  0
 31 32  2  0
 32 33  1  0
 33 34  2  0
 35 26  1  0
 35 34  1  0
  2 36  1  0
  3 37  1  0
 10 38  1  0
 13 39  1  0
 16 40  1  0
 17 41  1  0
 19 42  1  0
 22 43  1  0
 22 44  1  0
 22 45  1  0
 23 46  1  0
 23 47  1  0
 23 48  1  0
 24 49  1  0
 24 50  1  0
 28 51  1  0
 31 52  1  0
 32 53  1  0
 33 54  1  0
 34 55  1  0
M  ISO  8  36  14  37  14  38   9  39  14  40  14  41  14  42  14  43   8
M  ISO  8  44   8  45   8  46   8  47   8  48   8  49   8  50   8  51  14
M  ISO  4  52  14  53  14  54  14  55  14
M  END
>  <minimizedAffinity>  (1) 
-6.13450336

>  <minimizedRMSD>  (1) 
1.17651904

$$$$
