
     RDKit          3D

 44 48  0  0  1  0  0  0  0  0999 V2000
   40.4180   26.7380   32.8210 C   0  0  0  0  0  0  0  0  0  0  0  0
   39.9530   27.2610   33.9570 N   0  0  0  0  0  0  0  0  0  0  0  0
   40.2530   26.4890   34.9430 O   0  0  0  0  0  0  0  0  0  0  0  0
   40.9220   25.4530   34.4420 C   0  0  0  0  0  0  0  0  0  0  0  0
   41.0510   25.5620   33.1160 N   0  0  0  0  0  0  0  0  0  0  0  0
   36.8910   24.1180   31.0750 C   0  0  0  0  0  0  0  0  0  0  0  0
   35.7270   24.8290   31.4190 C   0  0  0  0  0  0  0  0  0  0  0  0
   35.7890   26.2040   31.5210 C   0  0  0  0  0  0  0  0  0  0  0  0
   37.0000   26.8050   31.2770 N   0  0  0  0  0  0  0  0  0  0  0  0
   38.0830   26.0900   30.9520 C   0  0  0  0  0  0  0  0  0  0  0  0
   38.0410   24.7670   30.8500 N   0  0  0  0  0  0  0  0  0  0  0  0
   39.2910   26.8300   30.7210 N   0  0  0  0  0  0  0  0  0  0  0  0
   39.3950   27.2990   29.5040 N   0  0  0  0  0  0  0  0  0  0  0  0
   40.5600   27.9740   29.3960 C   0  0  0  0  0  0  0  0  0  0  0  0
   41.1990   27.9160   30.6010 C   0  0  0  0  0  0  0  0  0  0  0  0
   40.3660   27.1800   31.4280 C   0  0  0  0  0  0  0  0  0  0  0  0
   36.8350   22.6900   30.9670 N   0  0  0  0  0  0  0  0  0  0  0  0
   41.4590   24.3180   35.2370 C   0  0  2  0  0  0  0  0  0  0  0  0
   42.4000   23.3500   34.6190 C   0  0  0  0  0  0  0  0  0  0  0  0
   40.9710   22.9180   35.0050 C   0  0  1  0  0  0  0  0  0  0  0  0
   40.9300   21.9320   36.1100 C   0  0  0  0  0  0  0  0  0  0  0  0
   40.8560   22.5090   37.4850 C   0  0  0  0  0  0  0  0  0  0  0  0
   39.5180   22.9930   37.7430 N   0  0  0  0  0  0  0  0  0  0  0  0
   38.5700   22.7600   36.8170 N   0  0  0  0  0  0  0  0  0  0  0  0
   37.4040   23.2530   37.2090 C   0  0  0  0  0  0  0  0  0  0  0  0
   37.5720   23.8420   38.4460 C   0  0  0  0  0  0  0  0  0  0  0  0
   38.9070   23.6540   38.7360 C   0  0  0  0  0  0  0  0  0  0  0  0
   34.7819   24.2973   31.6039 H   0  0  0  0  0  0  0  0  0  0  0  0
   34.9016   26.7967   31.7878 H   0  0  0  0  0  0  0  0  0  0  0  0
   40.9298   28.4824   28.4934 H   0  0  0  0  0  0  0  0  0  0  0  0
   42.1711   28.3603   30.8608 H   0  0  0  0  0  0  0  0  0  0  0  0
   37.6810   22.1590   30.7158 H   0  0  0  0  0  0  0  0  0  0  0  0
   35.9487   22.1948   31.1406 H   0  0  0  0  0  0  0  0  0  0  0  0
   41.5011   24.9733   36.1195 H   0  0  0  0  0  0  0  0  0  0  0  0
   43.2625   22.9771   35.1910 H   0  0  0  0  0  0  0  0  0  0  0  0
   43.0022   23.3245   33.6988 H   0  0  0  0  0  0  0  0  0  0  0  0
   40.0674   22.5139   34.5252 H   0  0  0  0  0  0  0  0  0  0  0  0
   40.0460   21.2942   35.9623 H   0  0  0  0  0  0  0  0  0  0  0  0
   41.8839   21.3863   36.0628 H   0  0  0  0  0  0  0  0  0  0  0  0
   41.1114   21.7324   38.2209 H   0  0  0  0  0  0  0  0  0  0  0  0
   41.5661   23.3452   37.5661 H   0  0  0  0  0  0  0  0  0  0  0  0
   36.4616   23.2015   36.6441 H   0  0  0  0  0  0  0  0  0  0  0  0
   36.8128   24.3471   39.0612 H   0  0  0  0  0  0  0  0  0  0  0  0
   39.4022   23.9990   39.6556 H   0  0  0  0  0  0  0  0  0  0  0  0
  1  5  1  0
  1  2  2  0
  2  3  1  0
  4  3  1  0
  4 18  1  0
  5  4  2  0
  6  7  2  0
  7  8  1  0
  9  8  2  0
 10  9  1  0
 11 10  2  0
 11  6  1  0
 12 10  1  0
 12 16  1  0
 13 12  1  0
 14 13  2  0
 14 15  1  0
 15 16  2  0
 16  1  1  0
 17  6  1  0
 19 20  1  0
 19 18  1  0
 20 18  1  0
 20 21  1  0
 21 22  1  0
 22 23  1  0
 23 27  1  0
 24 25  2  0
 24 23  1  0
 25 26  1  0
 26 27  2  0
  7 28  1  0
  8 29  1  0
 14 30  1  0
 15 31  1  0
 17 32  1  0
 17 33  1  0
 18 34  1  1
 19 35  1  0
 19 36  1  0
 20 37  1  6
 21 38  1  0
 21 39  1  0
 22 40  1  0
 22 41  1  0
 25 42  1  0
 26 43  1  0
 27 44  1  0
M  ISO  8  28  14  29  14  30  14  31  14  34  13  35  13  36  13  37  13
M  ISO  7  38   8  39   8  40   8  41   8  42  14  43  14  44  14
M  END
>  <minimizedAffinity>  (1) 
-5.19714117

>  <minimizedRMSD>  (1) 
2.35486555

$$$$
