
     RDKit          3D

 38 41  0  0  0  0  0  0  0  0999 V2000
   39.0080   26.6150   35.2070 C   0  0  0  0  0  0  0  0  0  0  0  0
   40.1670   27.0420   34.5620 C   0  0  0  0  0  0  0  0  0  0  0  0
   41.2550   26.2140   34.4520 C   0  0  0  0  0  0  0  0  0  0  0  0
   41.2330   24.9230   34.9820 C   0  0  0  0  0  0  0  0  0  0  0  0
   40.0830   24.4970   35.6220 C   0  0  0  0  0  0  0  0  0  0  0  0
   40.0370   23.2270   36.1550 C   0  0  0  0  0  0  0  0  0  0  0  0
   38.9160   22.7570   36.8030 C   0  0  0  0  0  0  0  0  0  0  0  0
   37.8100   23.5950   36.9160 C   0  0  0  0  0  0  0  0  0  0  0  0
   37.8840   24.8740   36.3680 C   0  0  0  0  0  0  0  0  0  0  0  0
   38.9950   25.3610   35.7170 C   0  0  0  0  0  0  0  0  0  0  0  0
   37.8620   27.5090   35.3310 C   0  0  0  0  0  0  0  0  0  0  0  0
   35.6430   28.8900   32.7670 C   0  0  0  0  0  0  0  0  0  0  0  0
   35.4440   27.8440   31.8710 C   0  0  0  0  0  0  0  0  0  0  0  0
   36.0900   26.6330   32.1600 C   0  0  0  0  0  0  0  0  0  0  0  0
   36.8650   26.5380   33.2810 N   0  0  0  0  0  0  0  0  0  0  0  0
   37.0170   27.5670   34.0960 C   0  0  0  0  0  0  0  0  0  0  0  0
   36.4130   28.7430   33.8490 N   0  0  0  0  0  0  0  0  0  0  0  0
   35.9280   25.5010   31.2650 C   0  0  0  0  0  0  0  0  0  0  0  0
   34.8950   25.3790   30.5860 O   0  0  0  0  0  0  0  0  0  0  0  0
   37.0250   24.4980   31.1850 C   0  0  0  0  0  0  0  0  0  0  0  0
   37.0860   23.5060   32.3550 C   0  0  0  0  0  0  0  0  0  0  0  0
   36.6930   23.0730   30.9420 C   0  0  0  0  0  0  0  0  0  0  0  0
   40.2099   28.0552   34.1359 H   0  0  0  0  0  0  0  0  0  0  0  0
   42.1589   26.5730   33.9381 H   0  0  0  0  0  0  0  0  0  0  0  0
   42.1074   24.2615   34.8931 H   0  0  0  0  0  0  0  0  0  0  0  0
   40.9164   22.5730   36.0607 H   0  0  0  0  0  0  0  0  0  0  0  0
   38.8951   21.7404   37.2226 H   0  0  0  0  0  0  0  0  0  0  0  0
   36.8972   23.2547   37.4270 H   0  0  0  0  0  0  0  0  0  0  0  0
   37.0064   25.5307   36.4607 H   0  0  0  0  0  0  0  0  0  0  0  0
   37.2362   27.1601   36.1657 H   0  0  0  0  0  0  0  0  0  0  0  0
   38.2567   28.5213   35.5024 H   0  0  0  0  0  0  0  0  0  0  0  0
   35.1560   29.8585   32.5805 H   0  0  0  0  0  0  0  0  0  0  0  0
   34.8107   27.9612   30.9793 H   0  0  0  0  0  0  0  0  0  0  0  0
   37.7169   25.1990   30.6952 H   0  0  0  0  0  0  0  0  0  0  0  0
   38.0556   23.2055   32.7789 H   0  0  0  0  0  0  0  0  0  0  0  0
   36.6359   23.4368   33.3563 H   0  0  0  0  0  0  0  0  0  0  0  0
   35.6537   22.7827   30.7286 H   0  0  0  0  0  0  0  0  0  0  0  0
   37.0562   22.3058   30.2423 H   0  0  0  0  0  0  0  0  0  0  0  0
  1 11  1  0
  1 10  1  0
  2  1  2  0
  3  2  1  0
  3  4  2  0
  4  5  1  0
  5 10  2  0
  5  6  1  0
  6  7  2  0
  7  8  1  0
  9  8  2  0
 10  9  1  0
 12 17  2  0
 13 14  2  0
 13 12  1  0
 14 15  1  0
 15 16  2  0
 16 11  1  0
 17 16  1  0
 18 14  1  0
 19 18  2  0
 20 18  1  0
 20 21  1  0
 22 20  1  0
 22 21  1  0
  2 23  1  0
  3 24  1  0
  4 25  1  0
  6 26  1  0
  7 27  1  0
  8 28  1  0
  9 29  1  0
 11 30  1  0
 11 31  1  0
 12 32  1  0
 13 33  1  0
 20 34  1  0
 21 35  1  0
 21 36  1  0
 22 37  1  0
 22 38  1  0
M  ISO  8  23  14  24  14  25  14  26  14  27  14  28  14  29  14  30   8
M  ISO  8  31   8  32  14  33  14  34  13  35  13  36  13  37  13  38  13
M  END
>  <minimizedAffinity>  (1) 
-5.56518221

>  <minimizedRMSD>  (1) 
1.0074029

$$$$
