
     RDKit          3D

 46 50  0  0  1  0  0  0  0  0999 V2000
   43.1520   24.0120   34.3040 C   0  0  1  0  0  0  0  0  0  0  0  0
   42.2330   23.9690   33.1150 C   0  0  0  0  0  0  0  0  0  0  0  0
   42.5780   24.9360   32.0310 C   0  0  0  0  0  0  0  0  0  0  0  0
   43.1220   26.2120   32.5720 C   0  0  0  0  0  0  0  0  0  0  0  0
   42.6620   26.4140   33.9760 C   0  0  0  0  0  0  0  0  0  0  0  0
   43.3290   25.3980   34.8820 C   0  0  2  0  0  0  0  0  0  0  0  0
   44.7050   25.7390   35.1590 N   0  0  0  0  0  0  0  0  0  0  0  0
   45.6380   26.1470   34.2950 C   0  0  0  0  0  0  0  0  0  0  0  0
   46.8080   26.3660   34.9640 N   0  0  0  0  0  0  0  0  0  0  0  0
   46.6120   26.0910   36.2720 C   0  0  0  0  0  0  0  0  0  0  0  0
   47.3730   26.1120   37.4310 C   0  0  0  0  0  0  0  0  0  0  0  0
   46.8680   25.7680   38.6310 N   0  0  0  0  0  0  0  0  0  0  0  0
   45.5780   25.3880   38.7210 C   0  0  0  0  0  0  0  0  0  0  0  0
   44.8180   25.3630   37.5990 N   0  0  0  0  0  0  0  0  0  0  0  0
   45.2950   25.7020   36.3800 C   0  0  0  0  0  0  0  0  0  0  0  0
   48.7390   26.5170   37.3060 N   0  0  0  0  0  0  0  0  0  0  0  0
   42.6410   21.3430   36.7390 C   0  0  0  0  0  0  0  0  0  0  0  0
   41.3860   21.6380   37.2820 C   0  0  0  0  0  0  0  0  0  0  0  0
   40.6970   22.7620   36.8150 C   0  0  0  0  0  0  0  0  0  0  0  0
   41.3190   23.4970   35.8440 N   0  0  0  0  0  0  0  0  0  0  0  0
   42.5170   23.1820   35.3530 C   0  0  0  0  0  0  0  0  0  0  0  0
   43.1740   22.1230   35.7880 N   0  0  0  0  0  0  0  0  0  0  0  0
   39.3970   23.0630   37.3800 C   0  0  0  0  0  0  0  0  0  0  0  0
   38.3470   23.6230   36.6640 C   0  0  0  0  0  0  0  0  0  0  0  0
   37.3180   23.7440   37.5440 N   0  0  0  0  0  0  0  0  0  0  0  0
   37.7670   23.2660   38.7330 C   0  0  0  0  0  0  0  0  0  0  0  0
   39.0040   22.8510   38.6700 N   0  0  0  0  0  0  0  0  0  0  0  0
   44.1433   23.6603   33.9820 H   0  0  0  0  0  0  0  0  0  0  0  0
   42.2647   22.9538   32.6927 H   0  0  0  0  0  0  0  0  0  0  0  0
   41.2348   24.2516   33.4806 H   0  0  0  0  0  0  0  0  0  0  0  0
   41.6706   25.1555   31.4493 H   0  0  0  0  0  0  0  0  0  0  0  0
   43.3540   24.4766   31.4011 H   0  0  0  0  0  0  0  0  0  0  0  0
   44.2212   26.1760   32.5515 H   0  0  0  0  0  0  0  0  0  0  0  0
   42.7618   27.0468   31.9528 H   0  0  0  0  0  0  0  0  0  0  0  0
   42.9285   27.4290   34.3059 H   0  0  0  0  0  0  0  0  0  0  0  0
   41.5707   26.2851   34.0245 H   0  0  0  0  0  0  0  0  0  0  0  0
   42.8356   25.4109   35.8651 H   0  0  0  0  0  0  0  0  0  0  0  0
   45.4876   26.2850   33.2141 H   0  0  0  0  0  0  0  0  0  0  0  0
   45.1477   25.1020   39.6921 H   0  0  0  0  0  0  0  0  0  0  0  0
   49.3450   26.5488   38.1383 H   0  0  0  0  0  0  0  0  0  0  0  0
   49.1168   26.7769   36.3837 H   0  0  0  0  0  0  0  0  0  0  0  0
   43.1957   20.4627   37.0958 H   0  0  0  0  0  0  0  0  0  0  0  0
   40.9489   20.9975   38.0622 H   0  0  0  0  0  0  0  0  0  0  0  0
   38.3478   23.9099   35.6021 H   0  0  0  0  0  0  0  0  0  0  0  0
   37.1569   23.2320   39.6476 H   0  0  0  0  0  0  0  0  0  0  0  0
   39.5654   22.4481   39.4338 H   0  0  0  0  0  0  0  0  0  0  0  0
  1  6  1  0
  1 21  1  0
  2  1  1  0
  3  4  1  0
  3  2  1  0
  4  5  1  0
  5  6  1  0
  6  7  1  0
  7 15  1  0
  8  9  2  0
  8  7  1  0
  9 10  1  0
 10 15  2  0
 10 11  1  0
 11 12  2  0
 12 13  1  0
 14 13  2  0
 15 14  1  0
 16 11  1  0
 17 18  2  0
 19 18  1  0
 19 23  1  0
 20 19  2  0
 21 22  2  0
 21 20  1  0
 22 17  1  0
 23 27  1  0
 24 23  2  0
 24 25  1  0
 25 26  2  0
 27 26  1  0
  1 28  1  6
  2 29  1  0
  2 30  1  0
  3 31  1  0
  3 32  1  0
  4 33  1  0
  4 34  1  0
  5 35  1  0
  5 36  1  0
  6 37  1  1
  8 38  1  0
 13 39  1  0
 16 40  1  0
 16 41  1  0
 17 42  1  0
 18 43  1  0
 24 44  1  0
 26 45  1  0
 27 46  1  0
M  ISO  8  28  13  29  13  30  13  31  13  32  13  33  13  34  13  35  13
M  ISO  8  36  13  37  13  38  14  39  14  42  14  43  14  44  14  45  14
M  ISO  1  46   9
M  END
>  <minimizedAffinity>  (1) 
-5.79600906

>  <minimizedRMSD>  (1) 
3.03657103

$$$$
