
     RDKit          3D

 39 42  0  0  1  0  0  0  0  0999 V2000
   38.0620   24.5850   33.5290 N   0  0  0  0  0  0  0  0  0  0  0  0
   38.0310   23.5720   32.6510 C   0  0  0  0  0  0  0  0  0  0  0  0
   37.2080   23.7820   31.5660 C   0  0  0  0  0  0  0  0  0  0  0  0
   36.6980   25.0040   31.7890 N   0  0  0  0  0  0  0  0  0  0  0  0
   37.2070   25.4750   32.9530 C   0  0  0  0  0  0  0  0  0  0  0  0
   36.8540   26.7710   33.4770 N   0  0  0  0  0  0  0  0  0  0  0  0
   36.7520   27.2770   34.7250 C   0  0  0  0  0  0  0  0  0  0  0  0
   36.3810   28.5610   34.6070 N   0  0  0  0  0  0  0  0  0  0  0  0
   36.2530   28.8570   33.3020 C   0  0  0  0  0  0  0  0  0  0  0  0
   35.8940   30.0490   32.7470 C   0  0  0  0  0  0  0  0  0  0  0  0
   35.8320   30.1040   31.3880 N   0  0  0  0  0  0  0  0  0  0  0  0
   36.1190   29.0120   30.6560 C   0  0  0  0  0  0  0  0  0  0  0  0
   36.4720   27.8420   31.2190 N   0  0  0  0  0  0  0  0  0  0  0  0
   36.5500   27.7310   32.5620 C   0  0  0  0  0  0  0  0  0  0  0  0
   38.7210   24.8410   34.7540 C   0  0  0  0  0  0  0  0  0  0  0  0
   38.4660   23.7840   35.7880 C   0  0  1  0  0  0  0  0  0  0  0  0
   41.1320   21.8110   37.6040 C   0  0  0  0  0  0  0  0  0  0  0  0
   39.9970   22.5900   37.3970 C   0  0  0  0  0  0  0  0  0  0  0  0
   39.6520   22.9500   36.0630 C   0  0  0  0  0  0  0  0  0  0  0  0
   40.4640   22.5060   35.0580 N   0  0  0  0  0  0  0  0  0  0  0  0
   41.5400   21.7670   35.2730 C   0  0  0  0  0  0  0  0  0  0  0  0
   41.8820   21.4130   36.5620 N   0  0  0  0  0  0  0  0  0  0  0  0
   37.9160   24.4090   37.0460 C   0  0  0  0  0  0  0  0  0  0  0  0
   35.5810   31.2280   33.4700 N   0  0  0  0  0  0  0  0  0  0  0  0
   38.6145   22.6493   32.7858 H   0  0  0  0  0  0  0  0  0  0  0  0
   37.0146   23.1083   30.7182 H   0  0  0  0  0  0  0  0  0  0  0  0
   36.9386   26.7364   35.6646 H   0  0  0  0  0  0  0  0  0  0  0  0
   36.0631   29.0781   29.5594 H   0  0  0  0  0  0  0  0  0  0  0  0
   39.8035   24.8934   34.5656 H   0  0  0  0  0  0  0  0  0  0  0  0
   38.3269   25.7893   35.1482 H   0  0  0  0  0  0  0  0  0  0  0  0
   37.7109   23.0976   35.3774 H   0  0  0  0  0  0  0  0  0  0  0  0
   41.4166   21.5196   38.6258 H   0  0  0  0  0  0  0  0  0  0  0  0
   39.3799   22.9204   38.2456 H   0  0  0  0  0  0  0  0  0  0  0  0
   42.1600   21.4358   34.4269 H   0  0  0  0  0  0  0  0  0  0  0  0
   38.3537   23.9117   37.9241 H   0  0  0  0  0  0  0  0  0  0  0  0
   38.1709   25.4789   37.0656 H   0  0  0  0  0  0  0  0  0  0  0  0
   36.8224   24.2922   37.0656 H   0  0  0  0  0  0  0  0  0  0  0  0
   35.3188   32.0870   32.9658 H   0  0  0  0  0  0  0  0  0  0  0  0
   35.6158   31.2254   34.4994 H   0  0  0  0  0  0  0  0  0  0  0  0
  1 15  1  0
  2  1  1  0
  3  4  1  0
  3  2  2  0
  4  5  2  0
  5  6  1  0
  5  1  1  0
  6  7  1  0
  8  7  2  0
  9  8  1  0
 10  9  2  0
 10 24  1  0
 11 10  1  0
 12 13  1  0
 12 11  2  0
 13 14  2  0
 14  9  1  0
 14  6  1  0
 15 16  1  0
 16 19  1  0
 16 23  1  0
 18 17  2  0
 19 18  1  0
 20 21  1  0
 20 19  2  0
 21 22  2  0
 22 17  1  0
  2 25  1  0
  3 26  1  0
  7 27  1  0
 12 28  1  0
 15 29  1  0
 15 30  1  0
 16 31  1  6
 17 32  1  0
 18 33  1  0
 21 34  1  0
 23 35  1  0
 23 36  1  0
 23 37  1  0
 24 38  1  0
 24 39  1  0
M  ISO  8  25  14  26  14  27  14  28  14  29   8  30   8  31   8  32  14
M  ISO  5  33  14  34  14  35   8  36   8  37   8
M  END
>  <minimizedAffinity>  (1) 
-5.18290424

>  <minimizedRMSD>  (1) 
2.83226299

$$$$
