
     RDKit          3D

 31 34  0  0  0  0  0  0  0  0999 V2000
   37.4900   25.1650   33.7580 C   0  0  0  0  0  0  0  0  0  0  0  0
   37.8940   25.5240   35.0400 C   0  0  0  0  0  0  0  0  0  0  0  0
   37.9030   26.8720   35.3770 C   0  0  0  0  0  0  0  0  0  0  0  0
   37.5230   27.7990   34.4600 N   0  0  0  0  0  0  0  0  0  0  0  0
   37.1300   27.4150   33.2060 C   0  0  0  0  0  0  0  0  0  0  0  0
   37.1150   26.1210   32.8640 N   0  0  0  0  0  0  0  0  0  0  0  0
   37.4460   23.8120   33.3170 N   0  0  0  0  0  0  0  0  0  0  0  0
   37.9040   22.7220   33.9590 C   0  0  0  0  0  0  0  0  0  0  0  0
   37.7840   21.4710   33.3890 C   0  0  0  0  0  0  0  0  0  0  0  0
   37.1860   21.3210   32.1440 C   0  0  0  0  0  0  0  0  0  0  0  0
   37.0650   20.1770   31.6020 O   0  0  0  0  0  0  0  0  0  0  0  0
   36.7470   22.4450   31.5490 N   0  0  0  0  0  0  0  0  0  0  0  0
   36.8640   23.6670   32.1020 C   0  0  0  0  0  0  0  0  0  0  0  0
   36.3950   24.6050   31.3980 O   0  0  0  0  0  0  0  0  0  0  0  0
   38.2760   24.5510   35.9510 N   0  0  0  0  0  0  0  0  0  0  0  0
   37.4870   23.9620   36.8800 C   0  0  0  0  0  0  0  0  0  0  0  0
   38.1540   23.0540   37.6160 N   0  0  0  0  0  0  0  0  0  0  0  0
   39.4200   23.0530   37.1500 C   0  0  0  0  0  0  0  0  0  0  0  0
   40.5520   22.3620   37.4810 C   0  0  0  0  0  0  0  0  0  0  0  0
   41.7420   22.5300   36.8580 N   0  0  0  0  0  0  0  0  0  0  0  0
   41.7600   23.4510   35.8560 C   0  0  0  0  0  0  0  0  0  0  0  0
   40.6530   24.1220   35.5380 N   0  0  0  0  0  0  0  0  0  0  0  0
   39.4700   23.9810   36.1270 C   0  0  0  0  0  0  0  0  0  0  0  0
   38.2168   27.1873   36.3830 H   0  0  0  0  0  0  0  0  0  0  0  0
   36.8240   28.1763   32.4734 H   0  0  0  0  0  0  0  0  0  0  0  0
   38.3778   22.8288   34.9460 H   0  0  0  0  0  0  0  0  0  0  0  0
   38.1639   20.5877   33.9233 H   0  0  0  0  0  0  0  0  0  0  0  0
   36.2993   22.3668   30.6247 H   0  0  0  0  0  0  0  0  0  0  0  0
   36.4216   24.1987   37.0177 H   0  0  0  0  0  0  0  0  0  0  0  0
   40.4927   21.6288   38.2989 H   0  0  0  0  0  0  0  0  0  0  0  0
   42.6930   23.6426   35.3057 H   0  0  0  0  0  0  0  0  0  0  0  0
  1  2  1  0
  2  3  2  0
  2 15  1  0
  4  3  1  0
  5  4  2  0
  6  5  1  0
  6  1  2  0
  7  1  1  0
  7  8  1  0
  9  8  2  0
 10  9  1  0
 11 10  2  0
 12 13  1  0
 12 10  1  0
 13  7  1  0
 14 13  2  0
 15 23  1  0
 15 16  1  0
 16 17  2  0
 18 19  2  0
 18 17  1  0
 20 19  1  0
 21 20  2  0
 22 21  1  0
 22 23  2  0
 23 18  1  0
  3 24  1  0
  5 25  1  0
  8 26  1  0
  9 27  1  0
 12 28  1  0
 16 29  1  0
 19 30  1  0
 21 31  1  0
M  ISO  8  24  14  25  14  26  14  27  14  28   9  29  14  30  14  31  14
M  END
>  <minimizedAffinity>  (1) 
-5.50850391

>  <minimizedRMSD>  (1) 
0.781445265

$$$$
