
     RDKit          3D

 47 52  0  0  0  0  0  0  0  0999 V2000
   38.6070   23.0880   32.7260 C   0  0  0  0  0  0  0  0  0  0  0  0
   38.4680   21.8420   33.3180 C   0  0  0  0  0  0  0  0  0  0  0  0
   37.2620   21.1400   33.3050 C   0  0  0  0  0  0  0  0  0  0  0  0
   36.1470   21.6920   32.6810 C   0  0  0  0  0  0  0  0  0  0  0  0
   36.2610   22.9350   32.0830 C   0  0  0  0  0  0  0  0  0  0  0  0
   35.1700   23.4890   31.4700 C   0  0  0  0  0  0  0  0  0  0  0  0
   35.2170   24.7150   30.8610 C   0  0  0  0  0  0  0  0  0  0  0  0
   36.4420   25.3910   30.8850 C   0  0  0  0  0  0  0  0  0  0  0  0
   37.5200   24.7920   31.5140 C   0  0  0  0  0  0  0  0  0  0  0  0
   37.4790   23.5770   32.1280 C   0  0  0  0  0  0  0  0  0  0  0  0
   38.5740   25.6960   31.2360 N   0  0  0  0  0  0  0  0  0  0  0  0
   39.1460   26.7860   31.7340 C   0  0  0  0  0  0  0  0  0  0  0  0
   40.1640   27.5070   31.1790 C   0  0  0  0  0  0  0  0  0  0  0  0
   40.7080   27.1280   29.9740 C   0  0  0  0  0  0  0  0  0  0  0  0
   41.6270   27.8500   29.5560 O   0  0  0  0  0  0  0  0  0  0  0  0
   40.1990   26.0500   29.3990 N   0  0  0  0  0  0  0  0  0  0  0  0
   39.1800   25.3760   30.0120 C   0  0  0  0  0  0  0  0  0  0  0  0
   38.8190   24.3640   29.3120 O   0  0  0  0  0  0  0  0  0  0  0  0
   39.8580   23.7910   32.7790 C   0  0  0  0  0  0  0  0  0  0  0  0
   40.1980   24.6790   33.8220 C   0  0  0  0  0  0  0  0  0  0  0  0
   41.4490   25.3000   33.7720 C   0  0  0  0  0  0  0  0  0  0  0  0
   42.2910   25.0280   32.7290 N   0  0  0  0  0  0  0  0  0  0  0  0
   41.9310   24.1640   31.7430 C   0  0  0  0  0  0  0  0  0  0  0  0
   40.7560   23.5840   31.7920 N   0  0  0  0  0  0  0  0  0  0  0  0
   39.3180   24.8910   34.8670 N   0  0  0  0  0  0  0  0  0  0  0  0
   38.3360   25.7990   34.9120 C   0  0  0  0  0  0  0  0  0  0  0  0
   37.6520   25.7540   36.0750 N   0  0  0  0  0  0  0  0  0  0  0  0
   38.2330   24.7620   36.8060 C   0  0  0  0  0  0  0  0  0  0  0  0
   37.9870   24.2450   38.0510 C   0  0  0  0  0  0  0  0  0  0  0  0
   38.6970   23.2400   38.5910 N   0  0  0  0  0  0  0  0  0  0  0  0
   39.6990   22.7480   37.8190 C   0  0  0  0  0  0  0  0  0  0  0  0
   39.9210   23.2650   36.6140 N   0  0  0  0  0  0  0  0  0  0  0  0
   39.2520   24.2520   36.0390 C   0  0  0  0  0  0  0  0  0  0  0  0
   39.3392   21.3908   33.8155 H   0  0  0  0  0  0  0  0  0  0  0  0
   37.1928   20.1534   33.7864 H   0  0  0  0  0  0  0  0  0  0  0  0
   35.1905   21.1490   32.6634 H   0  0  0  0  0  0  0  0  0  0  0  0
   34.2224   22.9303   31.4662 H   0  0  0  0  0  0  0  0  0  0  0  0
   34.3310   25.1490   30.3746 H   0  0  0  0  0  0  0  0  0  0  0  0
   36.5464   26.3792   30.4132 H   0  0  0  0  0  0  0  0  0  0  0  0
   38.7577   27.1471   32.6978 H   0  0  0  0  0  0  0  0  0  0  0  0
   40.5512   28.3959   31.6985 H   0  0  0  0  0  0  0  0  0  0  0  0
   40.5683   25.7211   28.4955 H   0  0  0  0  0  0  0  0  0  0  0  0
   41.7535   26.0005   34.5636 H   0  0  0  0  0  0  0  0  0  0  0  0
   42.6194   23.9533   30.9113 H   0  0  0  0  0  0  0  0  0  0  0  0
   38.1120   26.5011   34.0954 H   0  0  0  0  0  0  0  0  0  0  0  0
   37.1640   24.6759   38.6401 H   0  0  0  0  0  0  0  0  0  0  0  0
   40.3260   21.9235   38.1892 H   0  0  0  0  0  0  0  0  0  0  0  0
  1 19  1  0
  1  2  2  0
  3  2  1  0
  4  3  2  0
  5 10  2  0
  5  4  1  0
  6  5  1  0
  7  8  1  0
  7  6  2  0
  8  9  2  0
  9 10  1  0
 10  1  1  0
 11  9  1  0
 11 12  1  0
 13 12  2  0
 14 13  1  0
 15 14  2  0
 16 14  1  0
 16 17  1  0
 17 11  1  0
 18 17  2  0
 19 20  1  0
 20 25  1  0
 21 20  2  0
 22 21  1  0
 23 24  1  0
 23 22  2  0
 24 19  2  0
 25 26  1  0
 25 33  1  0
 26 27  2  0
 27 28  1  0
 28 29  2  0
 29 30  1  0
 31 30  2  0
 32 31  1  0
 33 32  2  0
 33 28  1  0
  2 34  1  0
  3 35  1  0
  4 36  1  0
  6 37  1  0
  7 38  1  0
  8 39  1  0
 12 40  1  0
 13 41  1  0
 16 42  1  0
 21 43  1  0
 23 44  1  0
 26 45  1  0
 29 46  1  0
 31 47  1  0
M  ISO  8  34  14  35  14  36  14  37  14  38  14  39  14  40  14  41  14
M  ISO  6  42   9  43  14  44  14  45  14  46  14  47  14
M  END
>  <minimizedAffinity>  (1) 
-6.12926865

>  <minimizedRMSD>  (1) 
1.93601227

$$$$
