
     RDKit          3D

 45 48  0  0  0  0  0  0  0  0999 V2000
   39.9520   22.2830   34.5190 C   0  0  0  0  0  0  0  0  0  0  0  0
   38.7060   22.1110   33.9440 C   0  0  0  0  0  0  0  0  0  0  0  0
   38.5900   21.2610   32.8640 C   0  0  0  0  0  0  0  0  0  0  0  0
   39.6920   20.6240   32.4010 N   0  0  0  0  0  0  0  0  0  0  0  0
   40.8860   20.8130   32.9840 C   0  0  0  0  0  0  0  0  0  0  0  0
   41.0300   21.6310   34.0320 N   0  0  0  0  0  0  0  0  0  0  0  0
   37.3970   20.9550   32.1390 N   0  0  0  0  0  0  0  0  0  0  0  0
   36.9110   21.6720   30.9910 C   0  0  0  0  0  0  0  0  0  0  0  0
   35.5420   22.2350   31.2900 C   0  0  0  0  0  0  0  0  0  0  0  0
   35.0280   21.6720   32.4610 O   0  0  0  0  0  0  0  0  0  0  0  0
   35.0560   20.2980   32.3460 C   0  0  0  0  0  0  0  0  0  0  0  0
   36.4970   19.8470   32.4810 C   0  0  0  0  0  0  0  0  0  0  0  0
   40.0330   23.1720   35.6370 C   0  0  0  0  0  0  0  0  0  0  0  0
   40.4970   22.8530   36.7890 O   0  0  0  0  0  0  0  0  0  0  0  0
   39.5950   24.5690   35.6080 C   0  0  0  0  0  0  0  0  0  0  0  0
   38.3890   24.9680   36.1540 C   0  0  0  0  0  0  0  0  0  0  0  0
   38.0180   26.3020   36.1010 C   0  0  0  0  0  0  0  0  0  0  0  0
   38.8300   27.2500   35.5110 C   0  0  0  0  0  0  0  0  0  0  0  0
   40.0420   26.8600   34.9590 C   0  0  0  0  0  0  0  0  0  0  0  0
   40.3920   25.5180   35.0240 C   0  0  0  0  0  0  0  0  0  0  0  0
   41.6540   25.2230   34.4300 N   0  0  0  0  0  0  0  0  0  0  0  0
   42.6770   25.2560   35.3360 C   0  0  0  0  0  0  0  0  0  0  0  0
   43.9640   24.9860   34.8910 C   0  0  0  0  0  0  0  0  0  0  0  0
   44.2030   24.6900   33.5530 C   0  0  0  0  0  0  0  0  0  0  0  0
   45.3430   24.4370   33.0840 O   0  0  0  0  0  0  0  0  0  0  0  0
   43.1380   24.6770   32.7160 N   0  0  0  0  0  0  0  0  0  0  0  0
   41.8910   24.9390   33.1500 C   0  0  0  0  0  0  0  0  0  0  0  0
   40.8760   24.9370   32.4090 O   0  0  0  0  0  0  0  0  0  0  0  0
   37.8267   22.6406   34.3394 H   0  0  0  0  0  0  0  0  0  0  0  0
   41.7661   20.2830   32.5908 H   0  0  0  0  0  0  0  0  0  0  0  0
   36.8463   20.9879   30.1321 H   0  0  0  0  0  0  0  0  0  0  0  0
   37.6015   22.4948   30.7539 H   0  0  0  0  0  0  0  0  0  0  0  0
   35.6181   23.3252   31.4153 H   0  0  0  0  0  0  0  0  0  0  0  0
   34.8681   21.9962   30.4541 H   0  0  0  0  0  0  0  0  0  0  0  0
   34.4465   19.8441   33.1413 H   0  0  0  0  0  0  0  0  0  0  0  0
   34.6473   19.9871   31.3732 H   0  0  0  0  0  0  0  0  0  0  0  0
   36.6812   19.0030   31.8000 H   0  0  0  0  0  0  0  0  0  0  0  0
   36.6844   19.5328   33.5184 H   0  0  0  0  0  0  0  0  0  0  0  0
   37.7265   24.2292   36.6287 H   0  0  0  0  0  0  0  0  0  0  0  0
   37.0572   26.6119   36.5378 H   0  0  0  0  0  0  0  0  0  0  0  0
   38.5191   28.3047   35.4788 H   0  0  0  0  0  0  0  0  0  0  0  0
   40.7078   27.5946   34.4826 H   0  0  0  0  0  0  0  0  0  0  0  0
   42.4849   25.4911   36.3933 H   0  0  0  0  0  0  0  0  0  0  0  0
   44.8023   25.0063   35.6029 H   0  0  0  0  0  0  0  0  0  0  0  0
   43.2865   24.4607   31.7200 H   0  0  0  0  0  0  0  0  0  0  0  0
  1 13  1  0
  2  1  2  0
  3  2  1  0
  4  3  2  0
  4  5  1  0
  5  6  2  0
  6  1  1  0
  7 12  1  0
  7  3  1  0
  8  9  1  0
  8  7  1  0
  9 10  1  0
 11 10  1  0
 11 12  1  0
 13 14  2  0
 15 13  1  0
 15 16  2  0
 17 16  1  0
 18 17  2  0
 19 20  2  0
 19 18  1  0
 20 15  1  0
 21 20  1  0
 21 22  1  0
 23 22  2  0
 24 23  1  0
 25 24  2  0
 26 27  1  0
 26 24  1  0
 27 21  1  0
 28 27  2  0
  2 29  1  0
  5 30  1  0
  8 31  1  0
  8 32  1  0
  9 33  1  0
  9 34  1  0
 11 35  1  0
 11 36  1  0
 12 37  1  0
 12 38  1  0
 16 39  1  0
 17 40  1  0
 18 41  1  0
 19 42  1  0
 22 43  1  0
 23 44  1  0
 26 45  1  0
M  ISO  8  29  14  30  14  31  13  32  13  33  13  34  13  35  13  36  13
M  ISO  8  37  13  38  13  39  14  40  14  41  14  42  14  43  14  44  14
M  ISO  1  45   9
M  END
>  <minimizedAffinity>  (1) 
-5.43456173

>  <minimizedRMSD>  (1) 
0.660104096

$$$$
