
     RDKit          3D

 48 51  0  0  0  0  0  0  0  0999 V2000
   37.1560   26.7300   34.4900 C   0  0  0  0  0  0  0  0  0  0  0  0
   37.2520   25.8910   33.3960 C   0  0  0  0  0  0  0  0  0  0  0  0
   36.6200   26.2860   32.2130 C   0  0  0  0  0  0  0  0  0  0  0  0
   35.9570   27.4640   32.2140 N   0  0  0  0  0  0  0  0  0  0  0  0
   35.8760   28.2570   33.2780 C   0  0  0  0  0  0  0  0  0  0  0  0
   36.4760   27.9020   34.4330 N   0  0  0  0  0  0  0  0  0  0  0  0
   37.8150   26.3320   35.7480 C   0  0  0  0  0  0  0  0  0  0  0  0
   38.6610   27.0790   36.2700 O   0  0  0  0  0  0  0  0  0  0  0  0
   37.4740   25.1310   36.3220 O   0  0  0  0  0  0  0  0  0  0  0  0
   39.4140   22.8330   38.1860 N   0  0  0  0  0  0  0  0  0  0  0  0
   38.3610   23.6270   37.9840 N   0  0  0  0  0  0  0  0  0  0  0  0
   38.4800   24.2300   36.7700 C   0  0  0  0  0  0  0  0  0  0  0  0
   39.6410   23.8050   36.1930 C   0  0  0  0  0  0  0  0  0  0  0  0
   40.1870   22.9420   37.1020 C   0  0  0  0  0  0  0  0  0  0  0  0
   41.4810   22.2310   36.8790 C   0  0  0  0  0  0  0  0  0  0  0  0
   42.5050   22.8600   36.2190 C   0  0  0  0  0  0  0  0  0  0  0  0
   43.6510   22.1200   36.0680 C   0  0  0  0  0  0  0  0  0  0  0  0
   43.8300   20.8540   36.5120 N   0  0  0  0  0  0  0  0  0  0  0  0
   42.7810   20.2610   37.1680 C   0  0  0  0  0  0  0  0  0  0  0  0
   41.6500   20.9720   37.3260 N   0  0  0  0  0  0  0  0  0  0  0  0
   35.1260   29.5270   33.1780 C   0  0  0  0  0  0  0  0  0  0  0  0
   35.9540   30.6010   33.8710 C   0  0  0  0  0  0  0  0  0  0  0  0
   33.8280   29.3570   33.9170 C   0  0  0  0  0  0  0  0  0  0  0  0
   34.8740   29.9190   31.7230 C   0  0  0  0  0  0  0  0  0  0  0  0
   36.0400   30.5450   31.2870 O   0  0  0  0  0  0  0  0  0  0  0  0
   36.7070   30.2880   30.1210 C   0  0  0  0  0  0  0  0  0  0  0  0
   37.1770   31.0830   29.0790 C   0  0  0  0  0  0  0  0  0  0  0  0
   37.7720   30.2660   28.1660 N   0  0  0  0  0  0  0  0  0  0  0  0
   37.6720   28.9960   28.6320 C   0  0  0  0  0  0  0  0  0  0  0  0
   37.0280   29.0190   29.8120 N   0  0  0  0  0  0  0  0  0  0  0  0
   37.8075   24.9434   33.4541 H   0  0  0  0  0  0  0  0  0  0  0  0
   36.6610   25.6584   31.3106 H   0  0  0  0  0  0  0  0  0  0  0  0
   39.5954   22.2500   39.0155 H   0  0  0  0  0  0  0  0  0  0  0  0
   40.0480   24.0932   35.2125 H   0  0  0  0  0  0  0  0  0  0  0  0
   42.4143   23.8874   35.8367 H   0  0  0  0  0  0  0  0  0  0  0  0
   44.4931   22.5947   35.5431 H   0  0  0  0  0  0  0  0  0  0  0  0
   42.8624   19.2340   37.5536 H   0  0  0  0  0  0  0  0  0  0  0  0
   35.8652   30.4858   34.9613 H   0  0  0  0  0  0  0  0  0  0  0  0
   37.0087   30.4981   33.5761 H   0  0  0  0  0  0  0  0  0  0  0  0
   35.5861   31.5948   33.5761 H   0  0  0  0  0  0  0  0  0  0  0  0
   34.0169   29.3817   35.0004 H   0  0  0  0  0  0  0  0  0  0  0  0
   33.1420   30.1730   33.6457 H   0  0  0  0  0  0  0  0  0  0  0  0
   33.3753   28.3919   33.6457 H   0  0  0  0  0  0  0  0  0  0  0  0
   34.6703   29.0246   31.1159 H   0  0  0  0  0  0  0  0  0  0  0  0
   34.0013   30.5820   31.6295 H   0  0  0  0  0  0  0  0  0  0  0  0
   37.0842   32.1767   29.0061 H   0  0  0  0  0  0  0  0  0  0  0  0
   38.0545   28.0962   28.1279 H   0  0  0  0  0  0  0  0  0  0  0  0
   36.8138   28.1934   30.3894 H   0  0  0  0  0  0  0  0  0  0  0  0
  1  7  1  0
  2  1  2  0
  3  4  2  0
  3  2  1  0
  4  5  1  0
  5  6  2  0
  6  1  1  0
  7  8  2  0
  7  9  1  0
  9 12  1  0
 11 10  1  0
 12 11  2  0
 13 12  1  0
 13 14  2  0
 14 10  1  0
 15 14  1  0
 15 20  1  0
 16 15  2  0
 17 16  1  0
 17 18  2  0
 18 19  1  0
 19 20  2  0
 21  5  1  0
 21 22  1  0
 21 23  1  0
 24 21  1  0
 25 24  1  0
 26 25  1  0
 27 26  2  0
 28 29  2  0
 28 27  1  0
 29 30  1  0
 30 26  1  0
  2 31  1  0
  3 32  1  0
 10 33  1  0
 13 34  1  0
 16 35  1  0
 17 36  1  0
 19 37  1  0
 22 38  1  0
 22 39  1  0
 22 40  1  0
 23 41  1  0
 23 42  1  0
 23 43  1  0
 24 44  1  0
 24 45  1  0
 27 46  1  0
 29 47  1  0
 30 48  1  0
M  ISO  8  31  14  32  14  33   9  34  14  35  14  36  14  37  14  38   8
M  ISO  8  39   8  40   8  41   8  42   8  43   8  44   8  45   8  46  14
M  ISO  2  47  14  48   9
M  END
>  <minimizedAffinity>  (1) 
-5.60303307

>  <minimizedRMSD>  (1) 
0.667493165

$$$$
