
     RDKit          3D

 51 56  0  0  0  0  0  0  0  0999 V2000
   38.7460   23.6090   36.1310 C   0  0  0  0  0  0  0  0  0  0  0  0
   40.1640   23.7150   36.0800 C   0  0  0  0  0  0  0  0  0  0  0  0
   40.6880   24.7470   35.3470 C   0  0  0  0  0  0  0  0  0  0  0  0
   39.8010   25.5580   34.7500 N   0  0  0  0  0  0  0  0  0  0  0  0
   38.5120   25.4850   34.7800 C   0  0  0  0  0  0  0  0  0  0  0  0
   37.9650   24.4750   35.4950 N   0  0  0  0  0  0  0  0  0  0  0  0
   37.8140   26.4720   34.0660 N   0  0  0  0  0  0  0  0  0  0  0  0
   37.0730   27.3730   34.7660 C   0  0  0  0  0  0  0  0  0  0  0  0
   36.4760   28.2420   33.8790 C   0  0  0  0  0  0  0  0  0  0  0  0
   36.8560   27.8660   32.6640 N   0  0  0  0  0  0  0  0  0  0  0  0
   37.6890   26.7630   32.7700 C   0  0  0  0  0  0  0  0  0  0  0  0
   38.2620   26.0810   31.6550 C   0  0  0  0  0  0  0  0  0  0  0  0
   38.7590   26.7700   30.5300 C   0  0  0  0  0  0  0  0  0  0  0  0
   39.2200   25.8590   29.6180 N   0  0  0  0  0  0  0  0  0  0  0  0
   39.0040   24.5970   30.1840 C   0  0  0  0  0  0  0  0  0  0  0  0
   38.4480   24.8180   31.3670 N   0  0  0  0  0  0  0  0  0  0  0  0
   38.3350   23.5280   31.9000 C   0  0  0  0  0  0  0  0  0  0  0  0
   39.4600   23.1410   32.5170 N   0  0  0  0  0  0  0  0  0  0  0  0
   39.5400   21.8890   33.0400 C   0  0  0  0  0  0  0  0  0  0  0  0
   38.5480   20.9950   32.9770 N   0  0  0  0  0  0  0  0  0  0  0  0
   37.4020   21.3450   32.3660 C   0  0  0  0  0  0  0  0  0  0  0  0
   36.3100   20.5290   32.2290 C   0  0  0  0  0  0  0  0  0  0  0  0
   35.1740   20.9350   31.5950 C   0  0  0  0  0  0  0  0  0  0  0  0
   35.1130   22.2220   31.0680 C   0  0  0  0  0  0  0  0  0  0  0  0
   36.1730   23.0870   31.1730 C   0  0  0  0  0  0  0  0  0  0  0  0
   37.2900   22.6290   31.8190 C   0  0  0  0  0  0  0  0  0  0  0  0
   35.6070   29.3480   34.2030 N   0  0  0  0  0  0  0  0  0  0  0  0
   36.0160   30.2010   35.1610 C   0  0  0  0  0  0  0  0  0  0  0  0
   35.1860   31.2610   35.4740 C   0  0  0  0  0  0  0  0  0  0  0  0
   33.9970   31.3670   34.7820 C   0  0  0  0  0  0  0  0  0  0  0  0
   33.0390   32.3980   34.9880 N   0  0  0  0  0  0  0  0  0  0  0  0
   33.6180   30.4840   33.8200 N   0  0  0  0  0  0  0  0  0  0  0  0
   34.4480   29.4420   33.5220 C   0  0  0  0  0  0  0  0  0  0  0  0
   34.1250   28.6120   32.6400 O   0  0  0  0  0  0  0  0  0  0  0  0
   38.1570   22.5430   36.9060 N   0  0  0  0  0  0  0  0  0  0  0  0
   40.8119   22.9989   36.6067 H   0  0  0  0  0  0  0  0  0  0  0  0
   41.7730   24.9019   35.2532 H   0  0  0  0  0  0  0  0  0  0  0  0
   36.9678   27.4028   35.8605 H   0  0  0  0  0  0  0  0  0  0  0  0
   38.7740   27.8628   30.4052 H   0  0  0  0  0  0  0  0  0  0  0  0
   39.2462   23.6210   29.7381 H   0  0  0  0  0  0  0  0  0  0  0  0
   40.4730   21.5950   33.5431 H   0  0  0  0  0  0  0  0  0  0  0  0
   36.3516   19.5115   32.6449 H   0  0  0  0  0  0  0  0  0  0  0  0
   34.3155   20.2538   31.5008 H   0  0  0  0  0  0  0  0  0  0  0  0
   34.1965   22.5522   30.5571 H   0  0  0  0  0  0  0  0  0  0  0  0
   36.1274   24.1040   30.7564 H   0  0  0  0  0  0  0  0  0  0  0  0
   36.9772   30.0593   35.6767 H   0  0  0  0  0  0  0  0  0  0  0  0
   35.4632   31.9933   36.2466 H   0  0  0  0  0  0  0  0  0  0  0  0
   32.1715   32.4133   34.4330 H   0  0  0  0  0  0  0  0  0  0  0  0
   33.2128   33.1293   35.6922 H   0  0  0  0  0  0  0  0  0  0  0  0
   37.1326   22.4482   36.9563 H   0  0  0  0  0  0  0  0  0  0  0  0
   38.7611   21.8772   37.4087 H   0  0  0  0  0  0  0  0  0  0  0  0
  1 35  1  0
  2  1  2  0
  3  2  1  0
  4  5  1  0
  4  3  2  0
  5  6  2  0
  6  1  1  0
  7  8  1  0
  7  5  1  0
  9 27  1  0
  9  8  2  0
 10 11  2  0
 10  9  1  0
 11  7  1  0
 12 11  1  0
 13 12  2  0
 14 15  2  0
 14 13  1  0
 15 16  1  0
 16 12  1  0
 16 17  1  0
 17 18  2  0
 18 19  1  0
 20 19  2  0
 21 20  1  0
 22 21  2  0
 23 22  1  0
 24 25  1  0
 24 23  2  0
 25 26  2  0
 26 17  1  0
 26 21  1  0
 27 28  1  0
 28 29  2  0
 30 31  1  0
 30 29  1  0
 32 30  2  0
 33 32  1  0
 33 27  1  0
 34 33  2  0
  2 36  1  0
  3 37  1  0
  8 38  1  0
 13 39  1  0
 15 40  1  0
 19 41  1  0
 22 42  1  0
 23 43  1  0
 24 44  1  0
 25 45  1  0
 28 46  1  0
 29 47  1  0
 31 48  1  0
 31 49  1  0
 35 50  1  0
 35 51  1  0
M  END
>  <minimizedAffinity>  (1) 
-7.08321714

>  <minimizedRMSD>  (1) 
0.90029335

$$$$
