
     RDKit          3D

 29 31  0  0  0  0  0  0  0  0999 V2000
   43.6540   19.7490   37.0930 C   0  0  0  0  0  0  0  0  0  0  0  0
   42.4640   20.4550   37.3030 C   0  0  0  0  0  0  0  0  0  0  0  0
   41.9600   21.2190   36.2430 C   0  0  0  0  0  0  0  0  0  0  0  0
   42.6690   21.2270   35.0560 N   0  0  0  0  0  0  0  0  0  0  0  0
   43.7960   20.5350   34.9100 C   0  0  0  0  0  0  0  0  0  0  0  0
   44.2960   19.7890   35.9350 N   0  0  0  0  0  0  0  0  0  0  0  0
   44.5400   20.5330   33.6930 N   0  0  0  0  0  0  0  0  0  0  0  0
   44.7680   19.4780   32.8890 C   0  0  0  0  0  0  0  0  0  0  0  0
   45.5100   19.6250   31.7370 C   0  0  0  0  0  0  0  0  0  0  0  0
   46.0510   20.8300   31.3420 C   0  0  0  0  0  0  0  0  0  0  0  0
   46.8120   20.9510   30.1460 N   0  0  0  0  0  0  0  0  0  0  0  0
   45.8060   21.8590   32.1630 N   0  0  0  0  0  0  0  0  0  0  0  0
   45.0820   21.7090   33.2860 C   0  0  0  0  0  0  0  0  0  0  0  0
   44.9690   22.8010   33.9170 O   0  0  0  0  0  0  0  0  0  0  0  0
   40.7300   21.9990   36.3880 C   0  0  0  0  0  0  0  0  0  0  0  0
   39.8090   22.4820   35.5170 N   0  0  0  0  0  0  0  0  0  0  0  0
   38.8990   23.1290   36.1820 O   0  0  0  0  0  0  0  0  0  0  0  0
   39.1830   23.0920   37.4770 C   0  0  0  0  0  0  0  0  0  0  0  0
   40.3110   22.3940   37.5880 N   0  0  0  0  0  0  0  0  0  0  0  0
   38.4120   23.6990   38.5740 C   0  0  0  0  0  0  0  0  0  0  0  0
   39.2540   23.8800   39.6710 F   0  0  0  0  0  0  0  0  0  0  0  0
   37.3660   22.8930   38.9660 F   0  0  0  0  0  0  0  0  0  0  0  0
   37.9660   24.9560   38.2120 F   0  0  0  0  0  0  0  0  0  0  0  0
   44.0680   19.1437   37.9129 H   0  0  0  0  0  0  0  0  0  0  0  0
   41.9412   20.4112   38.2698 H   0  0  0  0  0  0  0  0  0  0  0  0
   44.3592   18.4915   33.1532 H   0  0  0  0  0  0  0  0  0  0  0  0
   45.6782   18.7411   31.1042 H   0  0  0  0  0  0  0  0  0  0  0  0
   47.2044   21.8641   29.8754 H   0  0  0  0  0  0  0  0  0  0  0  0
   46.9705   20.1255   29.5507 H   0  0  0  0  0  0  0  0  0  0  0  0
  1  2  2  0
  3 15  1  0
  3  2  1  0
  4  3  2  0
  5  4  1  0
  5  6  2  0
  6  1  1  0
  7  5  1  0
  8  7  1  0
  9  8  2  0
 10  9  1  0
 10 12  2  0
 11 10  1  0
 12 13  1  0
 13  7  1  0
 13 14  2  0
 15 19  1  0
 16 17  1  0
 16 15  2  0
 17 18  1  0
 18 19  2  0
 18 20  1  0
 20 22  1  0
 20 21  1  0
 23 20  1  0
  1 24  1  0
  2 25  1  0
  8 26  1  0
  9 27  1  0
 11 28  1  0
 11 29  1  0
M  ISO  4  24  14  25  14  26  14  27  14
M  END
>  <minimizedAffinity>  (1) 
-4.3646183

>  <minimizedRMSD>  (1) 
0.222855076

$$$$
