
     RDKit          3D

 44 47  0  0  1  0  0  0  0  0999 V2000
   37.7460   25.1810   34.3910 N   0  0  0  0  0  0  0  0  0  0  0  0
   37.3850   25.3730   33.0040 C   0  0  0  0  0  0  0  0  0  0  0  0
   37.5190   26.8370   32.7590 C   0  0  0  0  0  0  0  0  0  0  0  0
   38.0130   27.3980   34.0770 C   0  0  0  0  0  0  0  0  0  0  0  0
   38.7700   26.1590   34.6140 C   0  0  2  0  0  0  0  0  0  0  0  0
   38.3240   23.8870   34.6190 C   0  0  0  0  0  0  0  0  0  0  0  0
   37.8750   23.7010   38.3800 C   0  0  0  0  0  0  0  0  0  0  0  0
   37.5870   23.9550   37.0380 C   0  0  0  0  0  0  0  0  0  0  0  0
   38.5700   23.6410   36.0780 C   0  0  0  0  0  0  0  0  0  0  0  0
   39.7450   23.1070   36.5250 N   0  0  0  0  0  0  0  0  0  0  0  0
   39.9700   22.8820   37.8350 C   0  0  0  0  0  0  0  0  0  0  0  0
   39.0320   23.1830   38.7370 N   0  0  0  0  0  0  0  0  0  0  0  0
   39.9060   25.8960   33.8930 O   0  0  0  0  0  0  0  0  0  0  0  0
   41.0660   26.2730   34.5300 C   0  0  2  0  0  0  0  0  0  0  0  0
   41.9290   27.2480   33.7780 C   0  0  0  0  0  0  0  0  0  0  0  0
   42.3990   25.8430   33.9990 C   0  0  1  0  0  0  0  0  0  0  0  0
   43.4030   25.5730   35.0050 N   0  0  0  0  0  0  0  0  0  0  0  0
   43.2010   24.6930   36.0040 C   0  0  0  0  0  0  0  0  0  0  0  0
   44.1850   24.4580   36.9520 C   0  0  0  0  0  0  0  0  0  0  0  0
   45.4110   25.1170   36.9090 C   0  0  0  0  0  0  0  0  0  0  0  0
   46.3780   24.8430   37.8980 N   0  0  0  0  0  0  0  0  0  0  0  0
   45.5760   25.9910   35.8950 N   0  0  0  0  0  0  0  0  0  0  0  0
   44.5980   26.1930   34.9920 C   0  0  0  0  0  0  0  0  0  0  0  0
   44.8390   27.0280   34.0750 O   0  0  0  0  0  0  0  0  0  0  0  0
   38.0645   24.8092   32.3479 H   0  0  0  0  0  0  0  0  0  0  0  0
   36.3667   25.0145   32.7930 H   0  0  0  0  0  0  0  0  0  0  0  0
   38.2456   27.0321   31.9565 H   0  0  0  0  0  0  0  0  0  0  0  0
   36.5724   27.2959   32.4373 H   0  0  0  0  0  0  0  0  0  0  0  0
   38.6838   28.2576   33.9315 H   0  0  0  0  0  0  0  0  0  0  0  0
   37.2298   27.7924   34.7411 H   0  0  0  0  0  0  0  0  0  0  0  0
   39.1458   26.2330   35.6452 H   0  0  0  0  0  0  0  0  0  0  0  0
   37.6369   23.1171   34.2381 H   0  0  0  0  0  0  0  0  0  0  0  0
   39.2905   23.8450   34.0954 H   0  0  0  0  0  0  0  0  0  0  0  0
   37.1254   23.9367   39.1498 H   0  0  0  0  0  0  0  0  0  0  0  0
   36.6210   24.3876   36.7384 H   0  0  0  0  0  0  0  0  0  0  0  0
   40.9274   22.4499   38.1615 H   0  0  0  0  0  0  0  0  0  0  0  0
   40.5979   26.2071   35.5233 H   0  0  0  0  0  0  0  0  0  0  0  0
   42.4121   28.0802   34.3110 H   0  0  0  0  0  0  0  0  0  0  0  0
   41.7898   27.8931   32.8979 H   0  0  0  0  0  0  0  0  0  0  0  0
   42.7812   25.0644   33.3224 H   0  0  0  0  0  0  0  0  0  0  0  0
   42.2441   24.1543   36.0687 H   0  0  0  0  0  0  0  0  0  0  0  0
   43.9927   23.7338   37.7573 H   0  0  0  0  0  0  0  0  0  0  0  0
   47.2882   25.3247   37.8758 H   0  0  0  0  0  0  0  0  0  0  0  0
   46.1742   24.1612   38.6426 H   0  0  0  0  0  0  0  0  0  0  0  0
  1  5  1  0
  1  6  1  0
  2  1  1  0
  3  2  1  0
  3  4  1  0
  4  5  1  0
  6  9  1  0
  7 12  2  0
  8  7  1  0
  9 10  1  0
  9  8  2  0
 10 11  2  0
 11 12  1  0
 13 14  1  0
 13  5  1  0
 15 16  1  0
 15 14  1  0
 16 14  1  0
 16 17  1  0
 17 18  1  0
 18 19  2  0
 20 19  1  0
 20 21  1  0
 22 20  2  0
 23 17  1  0
 23 22  1  0
 24 23  2  0
  2 25  1  0
  2 26  1  0
  3 27  1  0
  3 28  1  0
  4 29  1  0
  4 30  1  0
  5 31  1  1
  6 32  1  0
  6 33  1  0
  7 34  1  0
  8 35  1  0
 11 36  1  0
 14 37  1  1
 15 38  1  0
 15 39  1  0
 16 40  1  6
 18 41  1  0
 19 42  1  0
 21 43  1  0
 21 44  1  0
M  ISO  8  25  13  26  13  27  13  28  13  29  13  30  13  31  13  32   8
M  ISO  8  33   8  34  14  35  14  36  14  37  13  38  13  39  13  40  13
M  ISO  2  41  14  42  14
M  END
>  <minimizedAffinity>  (1) 
-5.11422539

>  <minimizedRMSD>  (1) 
1.35547733

$$$$
