
     RDKit          3D

 46 49  0  0  0  0  0  0  0  0999 V2000
   37.1330   26.7490   34.3620 C   0  0  0  0  0  0  0  0  0  0  0  0
   37.1810   25.8430   33.2910 C   0  0  0  0  0  0  0  0  0  0  0  0
   36.5410   26.1930   32.0970 C   0  0  0  0  0  0  0  0  0  0  0  0
   35.9140   27.3860   32.0460 N   0  0  0  0  0  0  0  0  0  0  0  0
   35.8740   28.2450   33.0740 C   0  0  0  0  0  0  0  0  0  0  0  0
   36.4870   27.9280   34.2410 N   0  0  0  0  0  0  0  0  0  0  0  0
   37.7990   26.3870   35.6060 C   0  0  0  0  0  0  0  0  0  0  0  0
   38.6680   27.1340   36.0730 O   0  0  0  0  0  0  0  0  0  0  0  0
   37.4330   25.2050   36.2320 O   0  0  0  0  0  0  0  0  0  0  0  0
   39.3530   22.9180   38.1360 N   0  0  0  0  0  0  0  0  0  0  0  0
   38.2970   23.7170   37.9200 N   0  0  0  0  0  0  0  0  0  0  0  0
   38.4260   24.3070   36.7010 C   0  0  0  0  0  0  0  0  0  0  0  0
   39.5840   23.8720   36.1380 C   0  0  0  0  0  0  0  0  0  0  0  0
   40.1380   23.0140   37.0460 C   0  0  0  0  0  0  0  0  0  0  0  0
   41.4260   22.2960   36.8450 C   0  0  0  0  0  0  0  0  0  0  0  0
   42.4640   22.9380   36.2000 C   0  0  0  0  0  0  0  0  0  0  0  0
   43.6060   22.1870   36.0680 C   0  0  0  0  0  0  0  0  0  0  0  0
   43.7840   20.9170   36.5020 N   0  0  0  0  0  0  0  0  0  0  0  0
   42.7230   20.3340   37.1320 C   0  0  0  0  0  0  0  0  0  0  0  0
   41.5850   21.0290   37.2860 N   0  0  0  0  0  0  0  0  0  0  0  0
   35.1590   29.5330   32.9220 C   0  0  0  0  0  0  0  0  0  0  0  0
   35.8710   30.5500   33.7730 C   0  0  0  0  0  0  0  0  0  0  0  0
   33.7560   29.3280   33.4360 C   0  0  0  0  0  0  0  0  0  0  0  0
   35.1310   29.9770   31.4580 C   0  0  0  0  0  0  0  0  0  0  0  0
   36.4480   30.2910   31.1230 O   0  0  0  0  0  0  0  0  0  0  0  0
   37.0250   30.0730   29.8910 C   0  0  0  0  0  0  0  0  0  0  0  0
   37.3880   28.9270   29.2800 N   0  0  0  0  0  0  0  0  0  0  0  0
   37.9050   29.2080   28.0990 O   0  0  0  0  0  0  0  0  0  0  0  0
   37.8960   30.5190   27.9130 C   0  0  0  0  0  0  0  0  0  0  0  0
   37.3480   31.0530   29.0270 N   0  0  0  0  0  0  0  0  0  0  0  0
   37.7082   24.8825   33.3879 H   0  0  0  0  0  0  0  0  0  0  0  0
   36.5490   25.5176   31.2288 H   0  0  0  0  0  0  0  0  0  0  0  0
   39.5290   22.3433   38.9724 H   0  0  0  0  0  0  0  0  0  0  0  0
   39.9909   24.1524   35.1553 H   0  0  0  0  0  0  0  0  0  0  0  0
   42.3829   23.9679   35.8223 H   0  0  0  0  0  0  0  0  0  0  0  0
   44.4582   22.6631   35.5609 H   0  0  0  0  0  0  0  0  0  0  0  0
   42.7997   19.3039   37.5102 H   0  0  0  0  0  0  0  0  0  0  0  0
   35.7082   30.3174   34.8357 H   0  0  0  0  0  0  0  0  0  0  0  0
   36.9484   30.5228   33.5526 H   0  0  0  0  0  0  0  0  0  0  0  0
   35.4768   31.5530   33.5526 H   0  0  0  0  0  0  0  0  0  0  0  0
   33.7646   29.3293   34.5360 H   0  0  0  0  0  0  0  0  0  0  0  0
   33.1102   30.1413   33.0735 H   0  0  0  0  0  0  0  0  0  0  0  0
   33.3699   28.3639   33.0735 H   0  0  0  0  0  0  0  0  0  0  0  0
   34.7586   29.1626   30.8193 H   0  0  0  0  0  0  0  0  0  0  0  0
   34.4633   30.8389   31.3125 H   0  0  0  0  0  0  0  0  0  0  0  0
   38.2610   31.0637   27.0298 H   0  0  0  0  0  0  0  0  0  0  0  0
  1  7  1  0
  2  1  2  0
  3  2  1  0
  4  3  2  0
  4  5  1  0
  5  6  2  0
  6  1  1  0
  7  8  2  0
  7  9  1  0
  9 12  1  0
 11 10  1  0
 12 11  2  0
 13 12  1  0
 13 14  2  0
 14 10  1  0
 15 14  1  0
 15 20  1  0
 16 15  2  0
 17 16  1  0
 17 18  2  0
 18 19  1  0
 19 20  2  0
 21  5  1  0
 21 23  1  0
 21 22  1  0
 24 21  1  0
 25 24  1  0
 26 25  1  0
 27 26  2  0
 28 27  1  0
 29 28  1  0
 29 30  2  0
 30 26  1  0
  2 31  1  0
  3 32  1  0
 10 33  1  0
 13 34  1  0
 16 35  1  0
 17 36  1  0
 19 37  1  0
 22 38  1  0
 22 39  1  0
 22 40  1  0
 23 41  1  0
 23 42  1  0
 23 43  1  0
 24 44  1  0
 24 45  1  0
 29 46  1  0
M  ISO  8  31  14  32  14  33   9  34  14  35  14  36  14  37  14  38   8
M  ISO  8  39   8  40   8  41   8  42   8  43   8  44   8  45   8  46  14
M  END
>  <minimizedAffinity>  (1) 
-5.60047007

>  <minimizedRMSD>  (1) 
0.5736655

$$$$
