
     RDKit          3D

 38 42  0  0  1  0  0  0  0  0999 V2000
   37.6720   25.9530   33.5580 N   0  0  0  0  0  0  0  0  0  0  0  0
   37.0740   24.7710   33.2700 C   0  0  0  0  0  0  0  0  0  0  0  0
   37.1950   24.0970   32.0960 C   0  0  0  0  0  0  0  0  0  0  0  0
   37.9870   24.6450   31.0920 C   0  0  0  0  0  0  0  0  0  0  0  0
   38.1320   24.0620   29.9910 O   0  0  0  0  0  0  0  0  0  0  0  0
   38.6200   25.8260   31.3000 N   0  0  0  0  0  0  0  0  0  0  0  0
   38.4270   26.4040   32.5080 C   0  0  0  0  0  0  0  0  0  0  0  0
   39.0350   27.5220   32.6840 O   0  0  0  0  0  0  0  0  0  0  0  0
   38.8400   29.0830   28.0430 N   0  0  0  0  0  0  0  0  0  0  0  0
   37.6180   29.0130   28.6440 C   0  0  0  0  0  0  0  0  0  0  0  0
   37.6100   28.0500   29.5810 N   0  0  0  0  0  0  0  0  0  0  0  0
   38.8270   27.4780   29.6060 C   0  0  0  0  0  0  0  0  0  0  0  0
   39.4480   26.4560   30.3270 C   0  0  0  0  0  0  0  0  0  0  0  0
   40.7320   26.1360   30.0770 N   0  0  0  0  0  0  0  0  0  0  0  0
   41.4340   26.8030   29.1250 C   0  0  0  0  0  0  0  0  0  0  0  0
   40.8580   27.8020   28.4070 N   0  0  0  0  0  0  0  0  0  0  0  0
   39.5700   28.1340   28.6460 C   0  0  0  0  0  0  0  0  0  0  0  0
   38.1000   26.3600   36.0850 C   0  0  1  0  0  0  0  0  0  0  0  0
   38.9070   27.2670   35.2120 C   0  0  0  0  0  0  0  0  0  0  0  0
   37.6110   26.7180   34.7490 C   0  0  1  0  0  0  0  0  0  0  0  0
   38.6170   25.0160   36.4530 C   0  0  0  0  0  0  0  0  0  0  0  0
   38.0550   24.4380   37.5900 C   0  0  0  0  0  0  0  0  0  0  0  0
   38.5000   23.1830   37.9870 C   0  0  0  0  0  0  0  0  0  0  0  0
   39.4730   22.5830   37.2290 N   0  0  0  0  0  0  0  0  0  0  0  0
   39.9910   23.1930   36.1210 C   0  0  0  0  0  0  0  0  0  0  0  0
   39.5690   24.3970   35.7370 N   0  0  0  0  0  0  0  0  0  0  0  0
   36.4402   24.3215   34.0486 H   0  0  0  0  0  0  0  0  0  0  0  0
   36.6776   23.1384   31.9429 H   0  0  0  0  0  0  0  0  0  0  0  0
   39.1364   29.7230   27.2923 H   0  0  0  0  0  0  0  0  0  0  0  0
   36.7595   29.6547   28.3965 H   0  0  0  0  0  0  0  0  0  0  0  0
   42.4823   26.5309   28.9328 H   0  0  0  0  0  0  0  0  0  0  0  0
   37.6536   26.4032   37.0894 H   0  0  0  0  0  0  0  0  0  0  0  0
   38.9981   28.3350   35.4592 H   0  0  0  0  0  0  0  0  0  0  0  0
   39.9378   27.2718   34.8280 H   0  0  0  0  0  0  0  0  0  0  0  0
   36.6080   27.0495   34.4423 H   0  0  0  0  0  0  0  0  0  0  0  0
   37.2758   24.9642   38.1609 H   0  0  0  0  0  0  0  0  0  0  0  0
   38.0864   22.6880   38.8780 H   0  0  0  0  0  0  0  0  0  0  0  0
   40.7696   22.6812   35.5363 H   0  0  0  0  0  0  0  0  0  0  0  0
  1 20  1  0
  2  1  1  0
  3  2  2  0
  4  6  1  0
  4  3  1  0
  5  4  2  0
  6  7  1  0
  7  8  2  0
  7  1  1  0
  9 10  1  0
  9 17  1  0
 10 11  2  0
 11 12  1  0
 12 13  2  0
 13  6  1  0
 14 13  1  0
 15 14  2  0
 16 17  2  0
 16 15  1  0
 17 12  1  0
 18 21  1  0
 19 18  1  0
 20 19  1  0
 20 18  1  0
 21 22  2  0
 22 23  1  0
 24 23  2  0
 25 24  1  0
 26 25  2  0
 26 21  1  0
  2 27  1  0
  3 28  1  0
  9 29  1  0
 10 30  1  0
 15 31  1  0
 18 32  1  1
 19 33  1  0
 19 34  1  0
 20 35  1  1
 22 36  1  0
 23 37  1  0
 25 38  1  0
M  ISO  8  27  14  28  14  29   9  30  14  31  14  32  13  33  13  34  13
M  ISO  4  35  13  36  14  37  14  38  14
M  END
>  <minimizedAffinity>  (1) 
-5.10244942

>  <minimizedRMSD>  (1) 
1.71486998

$$$$
