
     RDKit          3D

 51 55  0  0  0  0  0  0  0  0999 V2000
   37.2940   26.5040   34.6750 C   0  0  0  0  0  0  0  0  0  0  0  0
   37.4740   25.6300   33.6050 C   0  0  0  0  0  0  0  0  0  0  0  0
   36.9830   26.0280   32.3470 C   0  0  0  0  0  0  0  0  0  0  0  0
   36.3770   27.2230   32.2650 N   0  0  0  0  0  0  0  0  0  0  0  0
   36.2190   28.0410   33.3140 C   0  0  0  0  0  0  0  0  0  0  0  0
   36.6720   27.6990   34.5330 N   0  0  0  0  0  0  0  0  0  0  0  0
   37.8100   26.0770   35.9840 C   0  0  0  0  0  0  0  0  0  0  0  0
   38.4780   26.8960   36.6580 O   0  0  0  0  0  0  0  0  0  0  0  0
   37.5630   24.8220   36.4450 O   0  0  0  0  0  0  0  0  0  0  0  0
   39.6650   22.6230   38.2350 N   0  0  0  0  0  0  0  0  0  0  0  0
   38.5710   23.3760   38.0790 N   0  0  0  0  0  0  0  0  0  0  0  0
   38.6110   23.9700   36.8530 C   0  0  0  0  0  0  0  0  0  0  0  0
   39.7720   23.5810   36.2090 C   0  0  0  0  0  0  0  0  0  0  0  0
   40.3990   22.7450   37.0960 C   0  0  0  0  0  0  0  0  0  0  0  0
   41.6890   22.0810   36.8390 C   0  0  0  0  0  0  0  0  0  0  0  0
   42.7010   22.7780   36.2190 C   0  0  0  0  0  0  0  0  0  0  0  0
   43.8740   22.0800   36.0170 C   0  0  0  0  0  0  0  0  0  0  0  0
   44.0800   20.7820   36.3850 N   0  0  0  0  0  0  0  0  0  0  0  0
   43.0550   20.1460   36.9900 C   0  0  0  0  0  0  0  0  0  0  0  0
   41.9090   20.7990   37.1970 N   0  0  0  0  0  0  0  0  0  0  0  0
   35.5300   29.3470   33.1180 C   0  0  0  0  0  0  0  0  0  0  0  0
   35.6220   30.1070   34.4240 C   0  0  0  0  0  0  0  0  0  0  0  0
   34.0920   29.0650   32.7970 C   0  0  0  0  0  0  0  0  0  0  0  0
   36.1560   30.1550   31.9910 C   0  0  0  0  0  0  0  0  0  0  0  0
   35.4180   31.3940   31.8390 N   0  0  0  0  0  0  0  0  0  0  0  0
   34.2190   31.5390   31.2210 C   0  0  0  0  0  0  0  0  0  0  0  0
   33.7960   32.8240   31.2510 N   0  0  0  0  0  0  0  0  0  0  0  0
   34.7550   33.5350   31.9110 C   0  0  0  0  0  0  0  0  0  0  0  0
   34.7970   34.8750   32.2020 C   0  0  0  0  0  0  0  0  0  0  0  0
   35.8730   35.2950   32.8680 N   0  0  0  0  0  0  0  0  0  0  0  0
   36.8410   34.4160   33.2150 C   0  0  0  0  0  0  0  0  0  0  0  0
   36.8180   33.0960   32.9380 N   0  0  0  0  0  0  0  0  0  0  0  0
   35.7460   32.6350   32.2660 C   0  0  0  0  0  0  0  0  0  0  0  0
   37.9817   24.6633   33.7384 H   0  0  0  0  0  0  0  0  0  0  0  0
   37.0921   25.3828   31.4628 H   0  0  0  0  0  0  0  0  0  0  0  0
   39.9064   22.0575   39.0613 H   0  0  0  0  0  0  0  0  0  0  0  0
   40.1158   23.8771   35.2069 H   0  0  0  0  0  0  0  0  0  0  0  0
   42.5822   23.8253   35.9044 H   0  0  0  0  0  0  0  0  0  0  0  0
   44.7033   22.6080   35.5236 H   0  0  0  0  0  0  0  0  0  0  0  0
   43.1627   19.0990   37.3097 H   0  0  0  0  0  0  0  0  0  0  0  0
   35.5368   29.4029   35.2648 H   0  0  0  0  0  0  0  0  0  0  0  0
   36.5897   30.6273   34.4781 H   0  0  0  0  0  0  0  0  0  0  0  0
   34.8064   30.8431   34.4781 H   0  0  0  0  0  0  0  0  0  0  0  0
   33.5228   28.9534   33.7316 H   0  0  0  0  0  0  0  0  0  0  0  0
   33.6766   29.8988   32.2120 H   0  0  0  0  0  0  0  0  0  0  0  0
   34.0222   28.1361   32.2120 H   0  0  0  0  0  0  0  0  0  0  0  0
   37.2055   30.3772   32.2341 H   0  0  0  0  0  0  0  0  0  0  0  0
   36.1191   29.5804   31.0537 H   0  0  0  0  0  0  0  0  0  0  0  0
   33.6603   30.7147   30.7537 H   0  0  0  0  0  0  0  0  0  0  0  0
   33.9912   35.5618   31.9037 H   0  0  0  0  0  0  0  0  0  0  0  0
   37.7109   34.8064   33.7634 H   0  0  0  0  0  0  0  0  0  0  0  0
  1  7  1  0
  2  1  2  0
  3  2  1  0
  4  3  2  0
  4  5  1  0
  5  6  2  0
  6  1  1  0
  7  9  1  0
  7  8  2  0
  9 12  1  0
 11 10  1  0
 12 11  2  0
 13 12  1  0
 13 14  2  0
 14 10  1  0
 15 14  1  0
 15 20  1  0
 16 15  2  0
 17 16  1  0
 17 18  2  0
 18 19  1  0
 19 20  2  0
 21  5  1  0
 21 22  1  0
 23 21  1  0
 24 21  1  0
 25 24  1  0
 25 33  1  0
 26 27  2  0
 26 25  1  0
 27 28  1  0
 28 29  1  0
 28 33  2  0
 29 30  2  0
 30 31  1  0
 32 31  2  0
 33 32  1  0
  2 34  1  0
  3 35  1  0
 10 36  1  0
 13 37  1  0
 16 38  1  0
 17 39  1  0
 19 40  1  0
 22 41  1  0
 22 42  1  0
 22 43  1  0
 23 44  1  0
 23 45  1  0
 23 46  1  0
 24 47  1  0
 24 48  1  0
 26 49  1  0
 29 50  1  0
 31 51  1  0
M  ISO  8  34  14  35  14  36   9  37  14  38  14  39  14  40  14  41   8
M  ISO  8  42   8  43   8  44   8  45   8  46   8  47   8  48   8  49  14
M  ISO  2  50  14  51  14
M  END
>  <minimizedAffinity>  (1) 
-5.83906221

>  <minimizedRMSD>  (1) 
0.489890009

$$$$
