
     RDKit          3D

 32 34  0  0  0  0  0  0  0  0999 V2000
   38.0490   25.5600   35.2950 C   0  0  0  0  0  0  0  0  0  0  0  0
   37.7250   26.8910   35.5590 C   0  0  0  0  0  0  0  0  0  0  0  0
   37.1960   27.6310   34.5630 C   0  0  0  0  0  0  0  0  0  0  0  0
   36.9980   27.0150   33.3070 C   0  0  0  0  0  0  0  0  0  0  0  0
   37.6090   25.2680   33.5700 S   0  0  0  0  0  0  0  0  0  0  0  0
   38.0790   24.3290   37.4840 C   0  0  0  0  0  0  0  0  0  0  0  0
   38.6150   24.6070   36.2030 C   0  0  0  0  0  0  0  0  0  0  0  0
   39.7490   23.9380   35.7820 C   0  0  0  0  0  0  0  0  0  0  0  0
   40.2760   23.0340   36.6630 N   0  0  0  0  0  0  0  0  0  0  0  0
   39.7530   22.7800   37.8780 C   0  0  0  0  0  0  0  0  0  0  0  0
   38.6670   23.4280   38.2690 N   0  0  0  0  0  0  0  0  0  0  0  0
   36.4940   27.4280   32.0650 C   0  0  0  0  0  0  0  0  0  0  0  0
   35.6480   26.7490   31.4670 O   0  0  0  0  0  0  0  0  0  0  0  0
   36.9480   28.6800   31.4250 C   0  0  0  0  0  0  0  0  0  0  0  0
   36.9640   28.6390   29.9310 C   0  0  0  0  0  0  0  0  0  0  0  0
   37.1270   30.1030   29.5590 C   0  0  0  0  0  0  0  0  0  0  0  0
   36.6630   30.8940   30.7830 C   0  0  0  0  0  0  0  0  0  0  0  0
   35.9930   29.8460   31.6700 C   0  0  0  0  0  0  0  0  0  0  0  0
   37.8966   27.3262   36.5546 H   0  0  0  0  0  0  0  0  0  0  0  0
   36.9262   28.6851   34.7242 H   0  0  0  0  0  0  0  0  0  0  0  0
   37.1780   24.8566   37.8303 H   0  0  0  0  0  0  0  0  0  0  0  0
   40.2011   24.1218   34.7962 H   0  0  0  0  0  0  0  0  0  0  0  0
   40.2249   22.0395   38.5405 H   0  0  0  0  0  0  0  0  0  0  0  0
   37.9487   28.8006   31.8656 H   0  0  0  0  0  0  0  0  0  0  0  0
   37.8078   28.0389   29.5596 H   0  0  0  0  0  0  0  0  0  0  0  0
   36.0656   28.1756   29.4972 H   0  0  0  0  0  0  0  0  0  0  0  0
   38.1803   30.3268   29.3342 H   0  0  0  0  0  0  0  0  0  0  0  0
   36.5441   30.3620   28.6628 H   0  0  0  0  0  0  0  0  0  0  0  0
   37.5191   31.3531   31.2991 H   0  0  0  0  0  0  0  0  0  0  0  0
   35.9865   31.7207   30.5206 H   0  0  0  0  0  0  0  0  0  0  0  0
   34.9695   29.6177   31.3377 H   0  0  0  0  0  0  0  0  0  0  0  0
   35.8582   30.1338   32.7231 H   0  0  0  0  0  0  0  0  0  0  0  0
  1  2  2  0
  1  7  1  0
  3  2  1  0
  4  5  1  0
  4  3  2  0
  5  1  1  0
  6 11  2  0
  7  6  1  0
  8  7  2  0
  8  9  1  0
  9 10  2  0
 10 11  1  0
 12  4  1  0
 13 12  2  0
 14 18  1  0
 14 12  1  0
 15 14  1  0
 16 15  1  0
 16 17  1  0
 17 18  1  0
  2 19  1  0
  3 20  1  0
  6 21  1  0
  8 22  1  0
 10 23  1  0
 14 24  1  0
 15 25  1  0
 15 26  1  0
 16 27  1  0
 16 28  1  0
 17 29  1  0
 17 30  1  0
 18 31  1  0
 18 32  1  0
M  ISO  8  19  14  20  14  21  14  22  14  23  14  24  13  25  13  26  13
M  ISO  6  27  13  28  13  29  13  30  13  31  13  32  13
M  END
>  <minimizedAffinity>  (1) 
-4.89006758

>  <minimizedRMSD>  (1) 
0.210839838

$$$$
