
     RDKit          3D

 23 24  0  0  0  0  0  0  0  0999 V2000
   37.6450   24.1460   36.9890 C   0  0  0  0  0  0  0  0  0  0  0  0
   38.6430   23.3900   36.2910 C   0  0  0  0  0  0  0  0  0  0  0  0
   39.6600   22.8080   37.0030 C   0  0  0  0  0  0  0  0  0  0  0  0
   39.6740   22.9790   38.3680 N   0  0  0  0  0  0  0  0  0  0  0  0
   38.7330   23.6880   39.0020 C   0  0  0  0  0  0  0  0  0  0  0  0
   37.7150   24.2780   38.3490 N   0  0  0  0  0  0  0  0  0  0  0  0
   38.2450   23.4390   34.9330 N   0  0  0  0  0  0  0  0  0  0  0  0
   37.8540   22.6650   33.9060 C   0  0  0  0  0  0  0  0  0  0  0  0
   37.6450   23.4880   32.8240 C   0  0  0  0  0  0  0  0  0  0  0  0
   37.9080   24.7710   33.1810 N   0  0  0  0  0  0  0  0  0  0  0  0
   38.2750   24.7290   34.4750 C   0  0  0  0  0  0  0  0  0  0  0  0
   40.6050   22.0680   36.1330 C   0  0  0  0  0  0  0  0  0  0  0  0
   41.6500   21.4310   37.0630 C   0  0  0  0  0  0  0  0  0  0  0  0
   36.8235   24.6197   36.4316 H   0  0  0  0  0  0  0  0  0  0  0  0
   38.7936   23.7923   40.0954 H   0  0  0  0  0  0  0  0  0  0  0  0
   37.7248   21.5728   33.9270 H   0  0  0  0  0  0  0  0  0  0  0  0
   37.3167   23.1587   31.8271 H   0  0  0  0  0  0  0  0  0  0  0  0
   38.5582   25.6045   35.0777 H   0  0  0  0  0  0  0  0  0  0  0  0
   40.0716   21.2877   35.5704 H   0  0  0  0  0  0  0  0  0  0  0  0
   41.0803   22.7388   35.4022 H   0  0  0  0  0  0  0  0  0  0  0  0
   41.3635   21.6056   38.1106 H   0  0  0  0  0  0  0  0  0  0  0  0
   41.6997   20.3489   36.8720 H   0  0  0  0  0  0  0  0  0  0  0  0
   42.6346   21.8826   36.8720 H   0  0  0  0  0  0  0  0  0  0  0  0
  1  6  2  0
  2  1  1  0
  2  3  2  0
  3  4  1  0
  4  5  2  0
  6  5  1  0
  7  2  1  0
  8  7  1  0
  9 10  1  0
  9  8  2  0
 10 11  2  0
 11  7  1  0
 12  3  1  0
 12 13  1  0
  1 14  1  0
  5 15  1  0
  8 16  1  0
  9 17  1  0
 11 18  1  0
 12 19  1  0
 12 20  1  0
 13 21  1  0
 13 22  1  0
 13 23  1  0
M  ISO  8  14  14  15  14  16  14  17  14  18  14  19   8  20   8  21   8
M  ISO  2  22   8  23   8
M  END
>  <minimizedAffinity>  (1) 
-3.55810833

>  <minimizedRMSD>  (1) 
5.20348024

$$$$
