
     RDKit          3D

 47 50  0  0  0  0  0  0  0  0999 V2000
   37.1220   26.9280   34.5020 C   0  0  0  0  0  0  0  0  0  0  0  0
   37.2070   26.1750   33.3300 C   0  0  0  0  0  0  0  0  0  0  0  0
   36.5490   26.6540   32.1740 C   0  0  0  0  0  0  0  0  0  0  0  0
   35.8840   27.8180   32.3030 N   0  0  0  0  0  0  0  0  0  0  0  0
   35.8150   28.5180   33.4250 C   0  0  0  0  0  0  0  0  0  0  0  0
   36.4290   28.1010   34.5630 N   0  0  0  0  0  0  0  0  0  0  0  0
   37.8050   26.4230   35.6910 C   0  0  0  0  0  0  0  0  0  0  0  0
   38.6870   27.1200   36.2310 O   0  0  0  0  0  0  0  0  0  0  0  0
   37.4600   25.1880   36.1930 O   0  0  0  0  0  0  0  0  0  0  0  0
   39.3520   22.9070   38.1160 N   0  0  0  0  0  0  0  0  0  0  0  0
   38.3080   23.7020   37.8860 N   0  0  0  0  0  0  0  0  0  0  0  0
   38.4470   24.2910   36.6690 C   0  0  0  0  0  0  0  0  0  0  0  0
   39.6120   23.8570   36.1100 C   0  0  0  0  0  0  0  0  0  0  0  0
   40.1480   23.0010   37.0310 C   0  0  0  0  0  0  0  0  0  0  0  0
   41.4390   22.2810   36.8420 C   0  0  0  0  0  0  0  0  0  0  0  0
   42.4850   22.9240   36.2030 C   0  0  0  0  0  0  0  0  0  0  0  0
   43.6350   22.1690   36.0800 C   0  0  0  0  0  0  0  0  0  0  0  0
   43.7940   20.8960   36.5260 N   0  0  0  0  0  0  0  0  0  0  0  0
   42.7360   20.3120   37.1470 C   0  0  0  0  0  0  0  0  0  0  0  0
   41.5910   21.0120   37.2900 N   0  0  0  0  0  0  0  0  0  0  0  0
   35.0470   29.7850   33.4290 C   0  0  0  0  0  0  0  0  0  0  0  0
   34.3370   29.8800   34.7790 C   0  0  0  0  0  0  0  0  0  0  0  0
   33.9730   29.6800   32.3560 C   0  0  0  0  0  0  0  0  0  0  0  0
   35.8980   30.9990   33.1940 C   0  0  0  0  0  0  0  0  0  0  0  0
   36.0620   31.4280   31.8370 C   0  0  0  0  0  0  0  0  0  0  0  0
   36.8420   30.8640   30.8400 C   0  0  0  0  0  0  0  0  0  0  0  0
   36.8830   31.4030   29.5930 C   0  0  0  0  0  0  0  0  0  0  0  0
   36.0320   32.6140   29.4290 C   0  0  0  0  0  0  0  0  0  0  0  0
   35.2270   32.8810   31.1200 S   0  0  0  0  0  0  0  0  0  0  0  0
   37.7723   25.2317   33.3063 H   0  0  0  0  0  0  0  0  0  0  0  0
   36.5786   26.1057   31.2209 H   0  0  0  0  0  0  0  0  0  0  0  0
   39.5184   22.3342   38.9557 H   0  0  0  0  0  0  0  0  0  0  0  0
   40.0297   24.1350   35.1311 H   0  0  0  0  0  0  0  0  0  0  0  0
   42.4067   23.9535   35.8236 H   0  0  0  0  0  0  0  0  0  0  0  0
   44.4944   22.6382   35.5787 H   0  0  0  0  0  0  0  0  0  0  0  0
   42.8116   19.2828   37.5280 H   0  0  0  0  0  0  0  0  0  0  0  0
   35.0747   29.7813   35.5890 H   0  0  0  0  0  0  0  0  0  0  0  0
   33.8318   30.8538   34.8598 H   0  0  0  0  0  0  0  0  0  0  0  0
   33.5935   29.0733   34.8598 H   0  0  0  0  0  0  0  0  0  0  0  0
   32.9865   29.5835   32.8329 H   0  0  0  0  0  0  0  0  0  0  0  0
   33.9907   30.5842   31.7298 H   0  0  0  0  0  0  0  0  0  0  0  0
   34.1655   28.7964   31.7298 H   0  0  0  0  0  0  0  0  0  0  0  0
   35.4478   31.8326   33.7530 H   0  0  0  0  0  0  0  0  0  0  0  0
   36.9061   30.7083   33.5245 H   0  0  0  0  0  0  0  0  0  0  0  0
   37.4373   29.9659   31.0614 H   0  0  0  0  0  0  0  0  0  0  0  0
   37.4903   30.9824   28.7780 H   0  0  0  0  0  0  0  0  0  0  0  0
   35.9001   33.2215   28.5215 H   0  0  0  0  0  0  0  0  0  0  0  0
  1  6  1  0
  1  7  1  0
  2  1  2  0
  3  4  2  0
  3  2  1  0
  4  5  1  0
  5 21  1  0
  5  6  2  0
  7  9  1  0
  7  8  2  0
  9 12  1  0
 11 10  1  0
 12 11  2  0
 13 12  1  0
 13 14  2  0
 14 10  1  0
 15 14  1  0
 15 20  1  0
 16 15  2  0
 17 16  1  0
 17 18  2  0
 18 19  1  0
 19 20  2  0
 21 22  1  0
 23 21  1  0
 24 21  1  0
 25 24  1  0
 26 25  2  0
 27 26  1  0
 28 27  2  0
 28 29  1  0
 29 25  1  0
  2 30  1  0
  3 31  1  0
 10 32  1  0
 13 33  1  0
 16 34  1  0
 17 35  1  0
 19 36  1  0
 22 37  1  0
 22 38  1  0
 22 39  1  0
 23 40  1  0
 23 41  1  0
 23 42  1  0
 24 43  1  0
 24 44  1  0
 26 45  1  0
 27 46  1  0
 28 47  1  0
M  ISO  8  30  14  31  14  32   9  33  14  34  14  35  14  36  14  37   8
M  ISO  8  38   8  39   8  40   8  41   8  42   8  43   8  44   8  45  14
M  ISO  2  46  14  47  14
M  END
>  <minimizedAffinity>  (1) 
-5.4750638

>  <minimizedRMSD>  (1) 
1.31497681

$$$$
