
     RDKit          3D

 33 35  0  0  1  0  0  0  0  0999 V2000
   40.7960   23.9820   34.9260 C   0  0  0  0  0  0  0  0  0  0  0  0
   43.8880   23.5210   36.6700 C   0  0  0  0  0  0  0  0  0  0  0  0
   42.5660   23.2080   36.2370 C   0  0  0  0  0  0  0  0  0  0  0  0
   42.0870   24.1810   35.4570 C   0  0  0  0  0  0  0  0  0  0  0  0
   42.8180   25.3240   35.1370 N   0  0  0  0  0  0  0  0  0  0  0  0
   44.0380   25.5390   35.5770 C   0  0  0  0  0  0  0  0  0  0  0  0
   44.5840   24.6310   36.3520 N   0  0  0  0  0  0  0  0  0  0  0  0
   42.0540   21.9690   36.7050 C   0  0  0  0  0  0  0  0  0  0  0  0
   41.0740   22.1540   37.7140 F   0  0  0  0  0  0  0  0  0  0  0  0
   42.7570   21.1720   37.5290 F   0  0  0  0  0  0  0  0  0  0  0  0
   41.1550   21.2800   35.9070 F   0  0  0  0  0  0  0  0  0  0  0  0
   39.7410   24.6350   35.6800 C   0  0  0  0  0  0  0  0  0  0  0  0
   38.4480   23.8250   35.5080 C   0  0  2  0  0  0  0  0  0  0  0  0
   37.6530   23.6900   36.7640 C   0  0  0  0  0  0  0  0  0  0  0  0
   38.2450   22.5090   36.0370 C   0  0  1  0  0  0  0  0  0  0  0  0
   37.2060   21.7660   35.2640 N   0  0  0  0  0  0  0  0  0  0  0  0
   37.1590   21.6860   33.9010 C   0  0  0  0  0  0  0  0  0  0  0  0
   36.0690   20.9180   33.5570 C   0  0  0  0  0  0  0  0  0  0  0  0
   35.4570   20.5340   34.6670 N   0  0  0  0  0  0  0  0  0  0  0  0
   36.1420   21.0440   35.7020 C   0  0  0  0  0  0  0  0  0  0  0  0
   40.7803   24.3739   33.8983 H   0  0  0  0  0  0  0  0  0  0  0  0
   40.5967   22.9011   34.9698 H   0  0  0  0  0  0  0  0  0  0  0  0
   44.3858   22.7895   37.3236 H   0  0  0  0  0  0  0  0  0  0  0  0
   44.5854   26.4532   35.3037 H   0  0  0  0  0  0  0  0  0  0  0  0
   40.0154   24.6747   36.7445 H   0  0  0  0  0  0  0  0  0  0  0  0
   39.5948   25.6617   35.3131 H   0  0  0  0  0  0  0  0  0  0  0  0
   38.3178   24.1985   34.4816 H   0  0  0  0  0  0  0  0  0  0  0  0
   38.0707   24.0191   37.7269 H   0  0  0  0  0  0  0  0  0  0  0  0
   36.6526   23.9917   37.1076 H   0  0  0  0  0  0  0  0  0  0  0  0
   38.9024   21.6730   36.3181 H   0  0  0  0  0  0  0  0  0  0  0  0
   37.8675   22.1531   33.2011 H   0  0  0  0  0  0  0  0  0  0  0  0
   35.7587   20.6658   32.5323 H   0  0  0  0  0  0  0  0  0  0  0  0
   35.8782   20.8975   36.7598 H   0  0  0  0  0  0  0  0  0  0  0  0
  1  4  1  0
  1 12  1  0
  3  2  2  0
  3  8  1  0
  4  3  1  0
  5  4  2  0
  5  6  1  0
  6  7  2  0
  7  2  1  0
  8 10  1  0
  8  9  1  0
 11  8  1  0
 13 12  1  0
 13 15  1  0
 13 14  1  0
 15 14  1  0
 16 20  1  0
 16 15  1  0
 17 16  1  0
 18 17  2  0
 18 19  1  0
 19 20  2  0
  1 21  1  0
  1 22  1  0
  2 23  1  0
  6 24  1  0
 12 25  1  0
 12 26  1  0
 13 27  1  6
 14 28  1  0
 14 29  1  0
 15 30  1  1
 17 31  1  0
 18 32  1  0
 20 33  1  0
M  ISO  8  21   8  22   8  23  14  24  14  25   8  26   8  27  13  28  13
M  ISO  5  29  13  30  13  31  14  32  14  33  14
M  END
>  <minimizedAffinity>  (1) 
-4.22229767

>  <minimizedRMSD>  (1) 
1.97580445

$$$$
