
     RDKit          3D

 50 53  0  0  0  0  0  0  0  0999 V2000
   37.8540   26.5770   31.3400 N   0  0  0  0  0  0  0  0  0  0  0  0
   36.6350   27.1300   31.0420 C   0  0  0  0  0  0  0  0  0  0  0  0
   36.8760   28.1210   30.0870 C   0  0  0  0  0  0  0  0  0  0  0  0
   38.1940   28.1480   29.8350 N   0  0  0  0  0  0  0  0  0  0  0  0
   38.8110   27.2040   30.5980 C   0  0  0  0  0  0  0  0  0  0  0  0
   38.7530   24.2830   33.9190 N   0  0  0  0  0  0  0  0  0  0  0  0
   38.8710   23.5640   32.8040 N   0  0  0  0  0  0  0  0  0  0  0  0
   38.5640   24.2980   31.7370 C   0  0  0  0  0  0  0  0  0  0  0  0
   38.2340   25.5520   32.2200 C   0  0  0  0  0  0  0  0  0  0  0  0
   38.3510   25.5510   33.6070 C   0  0  0  0  0  0  0  0  0  0  0  0
   37.9180   23.6380   36.1020 C   0  0  0  0  0  0  0  0  0  0  0  0
   39.0040   23.8050   35.2290 C   0  0  0  0  0  0  0  0  0  0  0  0
   40.2900   23.5090   35.6360 C   0  0  0  0  0  0  0  0  0  0  0  0
   40.4310   23.0540   36.9190 N   0  0  0  0  0  0  0  0  0  0  0  0
   39.3960   22.8940   37.7540 C   0  0  0  0  0  0  0  0  0  0  0  0
   38.1290   23.1870   37.3470 N   0  0  0  0  0  0  0  0  0  0  0  0
   38.0970   26.6500   34.4410 N   0  0  0  0  0  0  0  0  0  0  0  0
   39.0430   27.1290   35.3960 C   0  0  0  0  0  0  0  0  0  0  0  0
   40.3110   27.0740   35.0040 N   0  0  0  0  0  0  0  0  0  0  0  0
   38.5600   27.6100   36.6460 N   0  0  0  0  0  0  0  0  0  0  0  0
   40.9870   27.4460   35.7070 H   0  0  0  0  0  0  0  0  0  0  0  0
   40.2910   27.0960   30.4460 C   0  0  0  0  0  0  0  0  0  0  0  0
   40.6630   25.9900   29.4590 C   0  0  0  0  0  0  0  0  0  0  0  0
   41.0450   26.8270   31.6890 C   0  0  0  0  0  0  0  0  0  0  0  0
   40.7360   28.3870   29.7660 C   0  0  0  0  0  0  0  0  0  0  0  0
   42.1290   28.6740   29.8450 C   0  0  0  0  0  0  0  0  0  0  0  0
   42.8220   29.3790   30.7760 C   0  0  0  0  0  0  0  0  0  0  0  0
   44.1590   29.5630   30.7050 C   0  0  0  0  0  0  0  0  0  0  0  0
   44.8320   28.9970   29.6230 C   0  0  0  0  0  0  0  0  0  0  0  0
   43.4580   28.1440   28.6410 S   0  0  0  0  0  0  0  0  0  0  0  0
   35.6612   26.8492   31.4697 H   0  0  0  0  0  0  0  0  0  0  0  0
   36.1169   28.7672   29.6221 H   0  0  0  0  0  0  0  0  0  0  0  0
   38.5712   23.9739   30.6858 H   0  0  0  0  0  0  0  0  0  0  0  0
   36.8979   23.8761   35.7663 H   0  0  0  0  0  0  0  0  0  0  0  0
   41.1535   23.6322   34.9658 H   0  0  0  0  0  0  0  0  0  0  0  0
   39.5700   22.5236   38.7751 H   0  0  0  0  0  0  0  0  0  0  0  0
   37.1899   27.1313   34.3607 H   0  0  0  0  0  0  0  0  0  0  0  0
   39.2215   27.9613   37.3530 H   0  0  0  0  0  0  0  0  0  0  0  0
   37.5491   27.6066   36.8433 H   0  0  0  0  0  0  0  0  0  0  0  0
   40.9658   25.0898   30.0140 H   0  0  0  0  0  0  0  0  0  0  0  0
   39.7942   25.7557   28.8263 H   0  0  0  0  0  0  0  0  0  0  0  0
   41.4968   26.3284   28.8263 H   0  0  0  0  0  0  0  0  0  0  0  0
   40.4108   27.0533   32.5588 H   0  0  0  0  0  0  0  0  0  0  0  0
   41.3408   25.7679   31.7165 H   0  0  0  0  0  0  0  0  0  0  0  0
   41.9444   27.4597   31.7165 H   0  0  0  0  0  0  0  0  0  0  0  0
   40.1913   29.2209   30.2329 H   0  0  0  0  0  0  0  0  0  0  0  0
   40.5152   28.2561   28.6964 H   0  0  0  0  0  0  0  0  0  0  0  0
   42.2730   29.8180   31.6221 H   0  0  0  0  0  0  0  0  0  0  0  0
   44.6967   30.1384   31.4730 H   0  0  0  0  0  0  0  0  0  0  0  0
   45.9072   29.0369   29.3944 H   0  0  0  0  0  0  0  0  0  0  0  0
  1  9  1  0
  2  1  1  0
  3  2  2  0
  4  3  1  0
  4  5  2  0
  5  1  1  0
  6 12  1  0
  7  6  1  0
  8  9  1  0
  8  7  2  0
  9 10  2  0
 10  6  1  0
 10 17  1  0
 11 16  2  0
 12 13  2  0
 12 11  1  0
 13 14  1  0
 14 15  2  0
 16 15  1  0
 17 18  1  0
 18 20  1  0
 19 18  2  0
 19 21  1  0
 22  5  1  0
 22 24  1  0
 23 22  1  0
 25 26  1  0
 25 22  1  0
 26 27  2  0
 28 27  1  0
 29 28  2  0
 30 29  1  0
 30 26  1  0
  2 31  1  0
  3 32  1  0
  8 33  1  0
 11 34  1  0
 13 35  1  0
 15 36  1  0
 17 37  1  0
 20 38  1  0
 20 39  1  0
 23 40  1  0
 23 41  1  0
 23 42  1  0
 24 43  1  0
 24 44  1  0
 24 45  1  0
 25 46  1  0
 25 47  1  0
 27 48  1  0
 28 49  1  0
 29 50  1  0
M  ISO  8  31  14  32  14  33  14  34  14  35  14  36  14  40   8  41   8
M  ISO  8  42   8  43   8  44   8  45   8  46   8  47   8  48  14  49  14
M  ISO  1  50  14
M  END
>  <minimizedAffinity>  (1) 
-4.82126951

>  <minimizedRMSD>  (1) 
0.456736058

$$$$
