
     RDKit          3D

 31 34  0  0  1  0  0  0  0  0999 V2000
   38.1050   23.7390   34.4910 C   0  0  0  0  0  0  0  0  0  0  0  0
   38.3050   24.9360   33.8100 C   0  0  0  0  0  0  0  0  0  0  0  0
   37.8600   24.6700   32.5450 N   0  0  0  0  0  0  0  0  0  0  0  0
   37.4360   23.4060   32.5180 C   0  0  0  0  0  0  0  0  0  0  0  0
   37.5770   22.7990   33.7170 N   0  0  0  0  0  0  0  0  0  0  0  0
   38.4330   23.5290   35.8980 C   0  0  0  0  0  0  0  0  0  0  0  0
   39.6530   22.9380   36.2640 C   0  0  0  0  0  0  0  0  0  0  0  0
   39.9280   22.7540   37.6260 C   0  0  0  0  0  0  0  0  0  0  0  0
   39.0080   23.1540   38.5120 N   0  0  0  0  0  0  0  0  0  0  0  0
   37.8320   23.7240   38.1430 C   0  0  0  0  0  0  0  0  0  0  0  0
   37.5340   23.9160   36.8350 N   0  0  0  0  0  0  0  0  0  0  0  0
   37.2070   21.4430   33.9850 C   0  0  1  0  0  0  0  0  0  0  0  0
   36.0020   21.0630   34.6980 C   0  0  0  0  0  0  0  0  0  0  0  0
   35.9670   21.0080   33.1950 C   0  0  2  0  0  0  0  0  0  0  0  0
   36.0590   19.6720   32.6430 N   0  0  0  0  0  0  0  0  0  0  0  0
   36.9640   19.2930   31.7160 C   0  0  0  0  0  0  0  0  0  0  0  0
   36.7800   17.9570   31.4090 C   0  0  0  0  0  0  0  0  0  0  0  0
   35.7420   17.5720   32.1850 N   0  0  0  0  0  0  0  0  0  0  0  0
   35.3030   18.5990   32.9300 C   0  0  0  0  0  0  0  0  0  0  0  0
   38.7233   25.8762   34.1986 H   0  0  0  0  0  0  0  0  0  0  0  0
   37.0206   22.9155   31.6253 H   0  0  0  0  0  0  0  0  0  0  0  0
   40.3779   22.6259   35.4977 H   0  0  0  0  0  0  0  0  0  0  0  0
   40.8713   22.2948   37.9567 H   0  0  0  0  0  0  0  0  0  0  0  0
   37.1125   24.0337   38.9153 H   0  0  0  0  0  0  0  0  0  0  0  0
   38.2519   21.1387   34.1447 H   0  0  0  0  0  0  0  0  0  0  0  0
   35.9854   20.1273   35.2761 H   0  0  0  0  0  0  0  0  0  0  0  0
   35.3779   21.5556   35.4582 H   0  0  0  0  0  0  0  0  0  0  0  0
   35.3375   21.4312   32.3984 H   0  0  0  0  0  0  0  0  0  0  0  0
   37.7301   19.9463   31.2728 H   0  0  0  0  0  0  0  0  0  0  0  0
   37.3500   17.3453   30.6942 H   0  0  0  0  0  0  0  0  0  0  0  0
   34.4709   18.5675   33.6488 H   0  0  0  0  0  0  0  0  0  0  0  0
  1  6  1  0
  2  1  2  0
  3  2  1  0
  4  3  2  0
  4  5  1  0
  5 12  1  0
  5  1  1  0
  6  7  2  0
  6 11  1  0
  7  8  1  0
  8  9  2  0
 10  9  1  0
 11 10  2  0
 12 13  1  0
 14 12  1  0
 14 13  1  0
 15 19  1  0
 15 14  1  0
 16 15  1  0
 17 16  2  0
 17 18  1  0
 18 19  2  0
  2 20  1  0
  4 21  1  0
  7 22  1  0
  8 23  1  0
 10 24  1  0
 12 25  1  1
 13 26  1  0
 13 27  1  0
 14 28  1  6
 16 29  1  0
 17 30  1  0
 19 31  1  0
M  ISO  8  20  14  21  14  22  14  23  14  24  14  25  13  26  13  27  13
M  ISO  4  28  13  29  14  30  14  31  14
M  END
>  <minimizedAffinity>  (1) 
-4.5465517

>  <minimizedRMSD>  (1) 
0.673778355

$$$$
