
     RDKit          3D

 28 31  0  0  0  0  0  0  0  0999 V2000
   37.5260   25.1490   33.7670 C   0  0  0  0  0  0  0  0  0  0  0  0
   37.8820   25.5070   35.0630 C   0  0  0  0  0  0  0  0  0  0  0  0
   37.8330   26.8440   35.3970 C   0  0  0  0  0  0  0  0  0  0  0  0
   37.4480   27.7580   34.4720 N   0  0  0  0  0  0  0  0  0  0  0  0
   37.1060   27.3740   33.2110 C   0  0  0  0  0  0  0  0  0  0  0  0
   37.1450   26.0770   32.8630 N   0  0  0  0  0  0  0  0  0  0  0  0
   37.5400   23.7990   33.3170 N   0  0  0  0  0  0  0  0  0  0  0  0
   37.9320   22.5820   33.7220 C   0  0  0  0  0  0  0  0  0  0  0  0
   37.6300   21.6510   32.7440 C   0  0  0  0  0  0  0  0  0  0  0  0
   37.0520   22.3300   31.7510 N   0  0  0  0  0  0  0  0  0  0  0  0
   36.9900   23.6340   32.0830 C   0  0  0  0  0  0  0  0  0  0  0  0
   38.2710   24.5420   35.9820 N   0  0  0  0  0  0  0  0  0  0  0  0
   37.4890   23.9680   36.9260 C   0  0  0  0  0  0  0  0  0  0  0  0
   38.1670   23.0640   37.6640 N   0  0  0  0  0  0  0  0  0  0  0  0
   39.4250   23.0550   37.1820 C   0  0  0  0  0  0  0  0  0  0  0  0
   40.5610   22.3640   37.5050 C   0  0  0  0  0  0  0  0  0  0  0  0
   41.7430   22.5220   36.8680 N   0  0  0  0  0  0  0  0  0  0  0  0
   41.7450   23.4250   35.8640 C   0  0  0  0  0  0  0  0  0  0  0  0
   40.6410   24.0960   35.5500 N   0  0  0  0  0  0  0  0  0  0  0  0
   39.4720   23.9750   36.1420 C   0  0  0  0  0  0  0  0  0  0  0  0
   38.1057   27.1686   36.4120 H   0  0  0  0  0  0  0  0  0  0  0  0
   36.7963   28.1294   32.4738 H   0  0  0  0  0  0  0  0  0  0  0  0
   38.4184   22.3586   34.6830 H   0  0  0  0  0  0  0  0  0  0  0  0
   37.8267   20.5693   32.7781 H   0  0  0  0  0  0  0  0  0  0  0  0
   36.5647   24.4341   31.4593 H   0  0  0  0  0  0  0  0  0  0  0  0
   36.4262   24.2098   37.0742 H   0  0  0  0  0  0  0  0  0  0  0  0
   40.5096   21.6384   38.3302 H   0  0  0  0  0  0  0  0  0  0  0  0
   42.6711   23.6076   35.2992 H   0  0  0  0  0  0  0  0  0  0  0  0
  1  2  1  0
  2  3  2  0
  2 12  1  0
  4  3  1  0
  5  4  2  0
  6  5  1  0
  6  1  2  0
  7  8  1  0
  7  1  1  0
  9  8  2  0
 10 11  2  0
 10  9  1  0
 11  7  1  0
 12 20  1  0
 12 13  1  0
 13 14  2  0
 15 16  2  0
 15 14  1  0
 17 16  1  0
 18 17  2  0
 19 18  1  0
 19 20  2  0
 20 15  1  0
  3 21  1  0
  5 22  1  0
  8 23  1  0
  9 24  1  0
 11 25  1  0
 13 26  1  0
 16 27  1  0
 18 28  1  0
M  ISO  8  21  14  22  14  23  14  24  14  25  14  26  14  27  14  28  14
M  END
>  <minimizedAffinity>  (1) 
-4.92933369

>  <minimizedRMSD>  (1) 
0.782415986

$$$$
