
     RDKit          3D

 44 47  0  0  0  0  0  0  0  0999 V2000
   37.7380   27.2200   35.0360 C   0  0  0  0  0  0  0  0  0  0  0  0
   38.9740   26.4530   35.0140 C   0  0  0  0  0  0  0  0  0  0  0  0
   40.1110   26.9500   34.3820 C   0  0  0  0  0  0  0  0  0  0  0  0
   41.2920   26.2490   34.3620 C   0  0  0  0  0  0  0  0  0  0  0  0
   41.3870   25.0070   34.9820 C   0  0  0  0  0  0  0  0  0  0  0  0
   40.2610   24.5030   35.6140 C   0  0  0  0  0  0  0  0  0  0  0  0
   40.3360   23.2710   36.2360 C   0  0  0  0  0  0  0  0  0  0  0  0
   39.2510   22.7250   36.8780 C   0  0  0  0  0  0  0  0  0  0  0  0
   38.0510   23.4390   36.8960 C   0  0  0  0  0  0  0  0  0  0  0  0
   38.0010   24.6750   36.2640 C   0  0  0  0  0  0  0  0  0  0  0  0
   39.0850   25.2430   35.6110 C   0  0  0  0  0  0  0  0  0  0  0  0
   36.3150   28.6780   31.9970 C   0  0  0  0  0  0  0  0  0  0  0  0
   35.8570   27.6020   31.2680 C   0  0  0  0  0  0  0  0  0  0  0  0
   36.0350   26.3200   31.8310 C   0  0  0  0  0  0  0  0  0  0  0  0
   36.6420   26.2160   33.0500 N   0  0  0  0  0  0  0  0  0  0  0  0
   37.0620   27.2860   33.7020 C   0  0  0  0  0  0  0  0  0  0  0  0
   36.9020   28.5200   33.1840 N   0  0  0  0  0  0  0  0  0  0  0  0
   35.5750   25.1400   31.1220 C   0  0  0  0  0  0  0  0  0  0  0  0
   34.5500   25.2370   30.3930 O   0  0  0  0  0  0  0  0  0  0  0  0
   37.3450   21.2940   31.2000 C   0  0  0  0  0  0  0  0  0  0  0  0
   38.0290   22.3830   30.7080 C   0  0  0  0  0  0  0  0  0  0  0  0
   37.4660   23.6610   30.6720 C   0  0  0  0  0  0  0  0  0  0  0  0
   36.1810   23.8080   31.1500 C   0  0  0  0  0  0  0  0  0  0  0  0
   35.5110   22.7050   31.6390 C   0  0  0  0  0  0  0  0  0  0  0  0
   36.0710   21.4460   31.6730 C   0  0  0  0  0  0  0  0  0  0  0  0
   38.1390   19.7290   31.2030 S   0  0  0  0  0  0  0  0  0  0  0  0
   39.3460   19.7710   32.1200 O   0  0  0  0  0  0  0  0  0  0  0  0
   37.1790   18.7120   31.7430 O   0  0  0  0  0  0  0  0  0  0  0  0
   37.0489   26.7523   35.7546 H   0  0  0  0  0  0  0  0  0  0  0  0
   37.9970   28.2499   35.3229 H   0  0  0  0  0  0  0  0  0  0  0  0
   40.0620   27.9303   33.8855 H   0  0  0  0  0  0  0  0  0  0  0  0
   42.1696   26.6728   33.8518 H   0  0  0  0  0  0  0  0  0  0  0  0
   42.3299   24.4406   34.9709 H   0  0  0  0  0  0  0  0  0  0  0  0
   41.2852   22.7155   36.2166 H   0  0  0  0  0  0  0  0  0  0  0  0
   39.3261   21.7435   37.3688 H   0  0  0  0  0  0  0  0  0  0  0  0
   37.1629   23.0307   37.4007 H   0  0  0  0  0  0  0  0  0  0  0  0
   37.0527   25.2322   36.2823 H   0  0  0  0  0  0  0  0  0  0  0  0
   36.1934   29.6925   31.5897 H   0  0  0  0  0  0  0  0  0  0  0  0
   35.3734   27.7365   30.2892 H   0  0  0  0  0  0  0  0  0  0  0  0
   39.0526   22.2420   30.3308 H   0  0  0  0  0  0  0  0  0  0  0  0
   38.0280   24.5198   30.2763 H   0  0  0  0  0  0  0  0  0  0  0  0
   34.4866   22.8362   32.0177 H   0  0  0  0  0  0  0  0  0  0  0  0
   35.5089   20.5876   32.0695 H   0  0  0  0  0  0  0  0  0  0  0  0
   38.5314   19.4103   29.9297 H   0  0  0  0  0  0  0  0  0  0  0  0
  2  1  1  0
  2 11  1  0
  3  2  2  0
  4  3  1  0
  4  5  2  0
  5  6  1  0
  6  7  1  0
  7  8  2  0
  8  9  1  0
 10  9  2  0
 11  6  2  0
 11 10  1  0
 12 17  2  0
 13 14  2  0
 13 12  1  0
 14 15  1  0
 15 16  2  0
 16  1  1  0
 17 16  1  0
 18 23  1  0
 18 14  1  0
 19 18  2  0
 20 26  1  0
 20 25  2  0
 21 20  1  0
 22 21  2  0
 22 23  1  0
 23 24  2  0
 24 25  1  0
 26 28  2  0
 26 27  2  0
  1 29  1  0
  1 30  1  0
  3 31  1  0
  4 32  1  0
  5 33  1  0
  7 34  1  0
  8 35  1  0
  9 36  1  0
 10 37  1  0
 12 38  1  0
 13 39  1  0
 21 40  1  0
 22 41  1  0
 24 42  1  0
 25 43  1  0
 26 44  1  0
M  ISO  8  29   8  30   8  31  14  32  14  33  14  34  14  35  14  36  14
M  ISO  8  37  14  38  14  39  14  40  14  41  14  42  14  43  14  44  11
M  END
>  <minimizedAffinity>  (1) 
-6.38022947

>  <minimizedRMSD>  (1) 
3.37409019

$$$$
