
     RDKit          3D

 45 48  0  0  0  0  0  0  0  0999 V2000
   36.1920   28.2540   33.8210 C   0  0  0  0  0  0  0  0  0  0  0  0
   35.8090   29.3340   34.6320 C   0  0  0  0  0  0  0  0  0  0  0  0
   34.9700   30.2370   34.0780 C   0  0  0  0  0  0  0  0  0  0  0  0
   34.5630   30.0370   32.7870 C   0  0  0  0  0  0  0  0  0  0  0  0
   35.4120   28.4450   32.2700 S   0  0  0  0  0  0  0  0  0  0  0  0
   37.8510   27.2510   35.4580 C   0  0  0  0  0  0  0  0  0  0  0  0
   37.0930   27.2000   34.2790 C   0  0  0  0  0  0  0  0  0  0  0  0
   37.1650   26.0870   33.4440 C   0  0  0  0  0  0  0  0  0  0  0  0
   37.9990   25.0970   33.8500 N   0  0  0  0  0  0  0  0  0  0  0  0
   38.7340   25.1590   35.0020 C   0  0  0  0  0  0  0  0  0  0  0  0
   38.6390   26.2440   35.7810 N   0  0  0  0  0  0  0  0  0  0  0  0
   39.5960   24.0290   35.3310 C   0  0  0  0  0  0  0  0  0  0  0  0
   40.3900   23.5860   34.3180 C   0  0  0  0  0  0  0  0  0  0  0  0
   41.3350   22.1590   35.0790 S   0  0  0  0  0  0  0  0  0  0  0  0
   40.3880   22.4800   36.7360 C   0  0  0  0  0  0  0  0  0  0  0  0
   39.7690   23.3380   36.4090 N   0  0  0  0  0  0  0  0  0  0  0  0
   40.6110   21.6950   37.8930 N   0  0  0  0  0  0  0  0  0  0  0  0
   33.7200   30.6980   31.8350 C   0  0  0  0  0  0  0  0  0  0  0  0
   34.1680   31.4330   30.9710 O   0  0  0  0  0  0  0  0  0  0  0  0
   32.2900   30.5040   31.8780 N   0  0  0  0  0  0  0  0  0  0  0  0
   34.2960   31.7090   34.8250 S   0  0  0  0  0  0  0  0  0  0  0  0
   34.7990   35.0040   35.7260 N   0  0  0  0  0  0  0  0  0  0  0  0
   35.8940   34.4120   35.0380 C   0  0  0  0  0  0  0  0  0  0  0  0
   36.4410   33.1530   35.6610 C   0  0  0  0  0  0  0  0  0  0  0  0
   35.3660   32.2490   36.1850 C   0  0  0  0  0  0  0  0  0  0  0  0
   34.5710   33.0950   37.1880 C   0  0  0  0  0  0  0  0  0  0  0  0
   33.8480   34.1200   36.3070 C   0  0  0  0  0  0  0  0  0  0  0  0
   36.1729   29.4397   35.6647 H   0  0  0  0  0  0  0  0  0  0  0  0
   37.7882   28.1318   36.1139 H   0  0  0  0  0  0  0  0  0  0  0  0
   36.5821   26.0155   32.5139 H   0  0  0  0  0  0  0  0  0  0  0  0
   40.4603   23.9753   33.2916 H   0  0  0  0  0  0  0  0  0  0  0  0
   40.0892   21.8936   38.7585 H   0  0  0  0  0  0  0  0  0  0  0  0
   41.2950   20.9253   37.8691 H   0  0  0  0  0  0  0  0  0  0  0  0
   31.6850   30.9795   31.1934 H   0  0  0  0  0  0  0  0  0  0  0  0
   31.8748   29.8901   32.5933 H   0  0  0  0  0  0  0  0  0  0  0  0
   34.2972   35.6028   35.0547 H   0  0  0  0  0  0  0  0  0  0  0  0
   36.7077   35.1510   34.9945 H   0  0  0  0  0  0  0  0  0  0  0  0
   35.5104   34.1204   34.0492 H   0  0  0  0  0  0  0  0  0  0  0  0
   37.0192   32.6074   34.9008 H   0  0  0  0  0  0  0  0  0  0  0  0
   37.0676   33.4513   36.5144 H   0  0  0  0  0  0  0  0  0  0  0  0
   35.7792   31.3448   36.6558 H   0  0  0  0  0  0  0  0  0  0  0  0
   33.8498   32.4742   37.7399 H   0  0  0  0  0  0  0  0  0  0  0  0
   35.2101   33.5641   37.9506 H   0  0  0  0  0  0  0  0  0  0  0  0
   33.1400   34.6959   36.9210 H   0  0  0  0  0  0  0  0  0  0  0  0
   33.3013   33.5956   35.5094 H   0  0  0  0  0  0  0  0  0  0  0  0
  1  7  1  0
  1  2  2  0
  3  2  1  0
  3 21  1  0
  4  3  2  0
  5  4  1  0
  5  1  1  0
  6 11  2  0
  7  6  1  0
  8  9  1  0
  8  7  2  0
  9 10  2  0
 10 12  1  0
 10 11  1  0
 12 16  1  0
 13 14  1  0
 13 12  2  0
 14 15  1  0
 15 17  1  0
 16 15  2  0
 18 20  1  0
 18  4  1  0
 19 18  2  0
 21 25  1  0
 22 27  1  0
 23 24  1  0
 23 22  1  0
 24 25  1  0
 25 26  1  0
 27 26  1  0
  2 28  1  0
  6 29  1  0
  8 30  1  0
 13 31  1  0
 17 32  1  0
 17 33  1  0
 20 34  1  0
 20 35  1  0
 22 36  1  0
 23 37  1  0
 23 38  1  0
 24 39  1  0
 24 40  1  0
 25 41  1  0
 26 42  1  0
 26 43  1  0
 27 44  1  0
 27 45  1  0
M  ISO  8  28  14  29  14  30  14  31  14  36   5  37  13  38  13  39  13
M  ISO  6  40  13  41  13  42  13  43  13  44  13  45  13
M  END
>  <minimizedAffinity>  (1) 
-5.84971142

>  <minimizedRMSD>  (1) 
2.19810915

$$$$
