
     RDKit          3D

 38 41  0  0  0  0  0  0  0  0999 V2000
   39.6710   22.7110   37.4300 C   0  0  0  0  0  0  0  0  0  0  0  0
   38.9480   23.6030   38.2360 C   0  0  0  0  0  0  0  0  0  0  0  0
   37.6050   23.8380   37.8870 C   0  0  0  0  0  0  0  0  0  0  0  0
   37.0910   23.1970   36.8070 N   0  0  0  0  0  0  0  0  0  0  0  0
   37.8370   22.3450   36.0640 C   0  0  0  0  0  0  0  0  0  0  0  0
   39.1120   22.0950   36.3600 N   0  0  0  0  0  0  0  0  0  0  0  0
   37.1200   21.7750   34.9770 N   0  0  0  0  0  0  0  0  0  0  0  0
   37.3820   22.0000   33.6970 C   0  0  0  0  0  0  0  0  0  0  0  0
   36.6480   21.4160   32.7060 C   0  0  0  0  0  0  0  0  0  0  0  0
   36.8810   21.6200   31.2530 C   0  0  0  0  0  0  0  0  0  0  0  0
   35.6040   20.5690   33.0070 C   0  0  0  0  0  0  0  0  0  0  0  0
   34.8760   19.9880   32.1330 O   0  0  0  0  0  0  0  0  0  0  0  0
   35.3140   20.3210   34.2950 N   0  0  0  0  0  0  0  0  0  0  0  0
   36.0850   20.9350   35.2310 C   0  0  0  0  0  0  0  0  0  0  0  0
   35.7910   20.6840   36.4240 O   0  0  0  0  0  0  0  0  0  0  0  0
   40.9670   22.4930   37.7750 O   0  0  0  0  0  0  0  0  0  0  0  0
   42.0420   22.4030   36.9180 C   0  0  0  0  0  0  0  0  0  0  0  0
   42.5170   23.3970   36.0950 C   0  0  0  0  0  0  0  0  0  0  0  0
   43.5770   22.9690   35.3950 N   0  0  0  0  0  0  0  0  0  0  0  0
   43.8470   21.6880   35.7190 C   0  0  0  0  0  0  0  0  0  0  0  0
   44.8100   20.7800   35.3070 C   0  0  0  0  0  0  0  0  0  0  0  0
   44.8260   19.4930   35.8440 C   0  0  0  0  0  0  0  0  0  0  0  0
   43.8700   19.1270   36.7980 C   0  0  0  0  0  0  0  0  0  0  0  0
   42.9080   20.0490   37.2050 C   0  0  0  0  0  0  0  0  0  0  0  0
   42.8980   21.3250   36.6660 C   0  0  0  0  0  0  0  0  0  0  0  0
   39.4106   24.0972   39.1030 H   0  0  0  0  0  0  0  0  0  0  0  0
   36.9843   24.5276   38.4779 H   0  0  0  0  0  0  0  0  0  0  0  0
   38.2097   22.6726   33.4278 H   0  0  0  0  0  0  0  0  0  0  0  0
   37.7016   22.3385   31.1106 H   0  0  0  0  0  0  0  0  0  0  0  0
   37.1486   20.6605   30.7863 H   0  0  0  0  0  0  0  0  0  0  0  0
   35.9653   22.0120   30.7863 H   0  0  0  0  0  0  0  0  0  0  0  0
   34.5418   19.6936   34.5614 H   0  0  0  0  0  0  0  0  0  0  0  0
   42.0857   24.4062   36.0211 H   0  0  0  0  0  0  0  0  0  0  0  0
   44.1049   23.5326   34.7134 H   0  0  0  0  0  0  0  0  0  0  0  0
   45.5601   21.0740   34.5580 H   0  0  0  0  0  0  0  0  0  0  0  0
   45.5871   18.7685   35.5189 H   0  0  0  0  0  0  0  0  0  0  0  0
   43.8780   18.1136   37.2257 H   0  0  0  0  0  0  0  0  0  0  0  0
   42.1557   19.7634   37.9550 H   0  0  0  0  0  0  0  0  0  0  0  0
  1 16  1  0
  1  2  2  0
  3  2  1  0
  4  3  2  0
  5  6  2  0
  5  4  1  0
  6  1  1  0
  7 14  1  0
  7  5  1  0
  8  7  1  0
  9 11  1  0
  9  8  2  0
 10  9  1  0
 11 13  1  0
 12 11  2  0
 13 14  1  0
 14 15  2  0
 17 16  1  0
 18 17  2  0
 19 20  1  0
 19 18  1  0
 20 25  2  0
 21 20  1  0
 21 22  2  0
 22 23  1  0
 23 24  2  0
 25 17  1  0
 25 24  1  0
  2 26  1  0
  3 27  1  0
  8 28  1  0
 10 29  1  0
 10 30  1  0
 10 31  1  0
 13 32  1  0
 18 33  1  0
 19 34  1  0
 21 35  1  0
 22 36  1  0
 23 37  1  0
 24 38  1  0
M  ISO  8  26  14  27  14  28  14  29   8  30   8  31   8  32   9  33  14
M  ISO  5  34   9  35  14  36  14  37  14  38  14
M  END
>  <minimizedAffinity>  (1) 
-6.23643923

>  <minimizedRMSD>  (1) 
1.85826337

$$$$
