
     RDKit          3D

 28 30  0  0  0  0  0  0  0  0999 V2000
   37.4350   21.8610   34.9650 C   0  0  0  0  0  0  0  0  0  0  0  0
   36.2620   21.1500   34.9800 C   0  0  0  0  0  0  0  0  0  0  0  0
   35.7250   20.6990   33.8040 C   0  0  0  0  0  0  0  0  0  0  0  0
   36.3510   20.9580   32.6370 N   0  0  0  0  0  0  0  0  0  0  0  0
   37.5100   21.6590   32.6190 C   0  0  0  0  0  0  0  0  0  0  0  0
   38.0640   22.1200   33.7900 N   0  0  0  0  0  0  0  0  0  0  0  0
   39.8850   22.7630   37.5430 C   0  0  0  0  0  0  0  0  0  0  0  0
   39.0930   23.3660   38.5220 C   0  0  0  0  0  0  0  0  0  0  0  0
   37.7220   23.4450   38.2610 C   0  0  0  0  0  0  0  0  0  0  0  0
   37.2300   22.9440   37.0940 N   0  0  0  0  0  0  0  0  0  0  0  0
   38.0530   22.3640   36.1720 C   0  0  0  0  0  0  0  0  0  0  0  0
   39.3620   22.2810   36.4060 N   0  0  0  0  0  0  0  0  0  0  0  0
   38.1440   21.9080   31.3190 C   0  0  0  0  0  0  0  0  0  0  0  0
   38.5570   20.8240   30.5530 C   0  0  0  0  0  0  0  0  0  0  0  0
   39.1120   21.3530   29.3930 C   0  0  0  0  0  0  0  0  0  0  0  0
   39.0260   22.6930   29.4810 N   0  0  0  0  0  0  0  0  0  0  0  0
   38.4530   23.0380   30.6220 N   0  0  0  0  0  0  0  0  0  0  0  0
   39.4340   23.7600   28.5870 C   0  0  0  0  0  0  0  0  0  0  0  0
   35.7545   20.9429   35.9337 H   0  0  0  0  0  0  0  0  0  0  0  0
   34.7855   20.1269   33.8105 H   0  0  0  0  0  0  0  0  0  0  0  0
   40.9693   22.6809   37.7091 H   0  0  0  0  0  0  0  0  0  0  0  0
   39.5266   23.7596   39.4531 H   0  0  0  0  0  0  0  0  0  0  0  0
   37.0449   23.9088   38.9934 H   0  0  0  0  0  0  0  0  0  0  0  0
   38.4634   19.7593   30.8129 H   0  0  0  0  0  0  0  0  0  0  0  0
   39.5421   20.7814   28.5574 H   0  0  0  0  0  0  0  0  0  0  0  0
   39.7654   24.6267   29.1777 H   0  0  0  0  0  0  0  0  0  0  0  0
   40.2619   23.4104   27.9527 H   0  0  0  0  0  0  0  0  0  0  0  0
   38.5841   24.0520   27.9527 H   0  0  0  0  0  0  0  0  0  0  0  0
  1  2  2  0
  1 11  1  0
  3  2  1  0
  4  3  2  0
  5  4  1  0
  5  6  2  0
  6  1  1  0
  7  8  2  0
  9  8  1  0
 10  9  2  0
 11 12  2  0
 11 10  1  0
 12  7  1  0
 13  5  1  0
 14 13  1  0
 15 16  1  0
 15 14  2  0
 16 17  1  0
 17 13  2  0
 18 16  1  0
  2 19  1  0
  3 20  1  0
  7 21  1  0
  8 22  1  0
  9 23  1  0
 14 24  1  0
 15 25  1  0
 18 26  1  0
 18 27  1  0
 18 28  1  0
M  ISO  8  19  14  20  14  21  14  22  14  23  14  24  14  25  14  26   8
M  ISO  2  27   8  28   8
M  END
>  <minimizedAffinity>  (1) 
-4.22402668

>  <minimizedRMSD>  (1) 
1.058478

$$$$
