
     RDKit          3D

 30 31  0  0  1  0  0  0  0  0999 V2000
   37.7670   25.4540   34.3330 N   0  0  0  0  0  0  0  0  0  0  0  0
   37.1450   25.4020   33.0420 C   0  0  0  0  0  0  0  0  0  0  0  0
   36.8820   26.8360   32.6660 C   0  0  0  0  0  0  0  0  0  0  0  0
   37.4590   27.6460   33.8140 C   0  0  0  0  0  0  0  0  0  0  0  0
   38.5590   26.6580   34.2590 C   0  0  2  0  0  0  0  0  0  0  0  0
   38.6940   24.3820   34.5760 C   0  0  0  0  0  0  0  0  0  0  0  0
   37.9340   24.1540   38.2870 C   0  0  0  0  0  0  0  0  0  0  0  0
   37.8410   24.5180   36.9410 C   0  0  0  0  0  0  0  0  0  0  0  0
   38.7610   24.0170   36.0210 C   0  0  0  0  0  0  0  0  0  0  0  0
   39.7220   23.1780   36.5000 N   0  0  0  0  0  0  0  0  0  0  0  0
   39.7950   22.8400   37.8000 C   0  0  0  0  0  0  0  0  0  0  0  0
   38.9050   23.3270   38.6770 N   0  0  0  0  0  0  0  0  0  0  0  0
   39.5940   26.6200   33.3750 O   0  0  0  0  0  0  0  0  0  0  0  0
   40.8890   27.0890   33.6610 C   0  0  0  0  0  0  0  0  0  0  0  0
   41.4270   26.6490   34.9020 N   0  0  0  0  0  0  0  0  0  0  0  0
   41.5730   27.8350   32.9280 O   0  0  0  0  0  0  0  0  0  0  0  0
   37.8166   24.9293   32.3102 H   0  0  0  0  0  0  0  0  0  0  0  0
   36.2198   24.8072   33.0577 H   0  0  0  0  0  0  0  0  0  0  0  0
   37.3858   27.0882   31.7212 H   0  0  0  0  0  0  0  0  0  0  0  0
   35.8116   27.0367   32.5109 H   0  0  0  0  0  0  0  0  0  0  0  0
   37.8760   28.6060   33.4757 H   0  0  0  0  0  0  0  0  0  0  0  0
   36.7437   27.9480   34.5932 H   0  0  0  0  0  0  0  0  0  0  0  0
   39.0880   26.8928   35.1944 H   0  0  0  0  0  0  0  0  0  0  0  0
   38.3752   23.4998   34.0014 H   0  0  0  0  0  0  0  0  0  0  0  0
   39.6933   24.7202   34.2646 H   0  0  0  0  0  0  0  0  0  0  0  0
   37.2124   24.5463   39.0187 H   0  0  0  0  0  0  0  0  0  0  0  0
   37.0435   25.1985   36.6080 H   0  0  0  0  0  0  0  0  0  0  0  0
   40.5885   22.1609   38.1453 H   0  0  0  0  0  0  0  0  0  0  0  0
   42.3705   26.9464   35.1887 H   0  0  0  0  0  0  0  0  0  0  0  0
   40.8731   26.0330   35.5140 H   0  0  0  0  0  0  0  0  0  0  0  0
  1  6  1  0
  2  1  1  0
  3  2  1  0
  3  4  1  0
  4  5  1  0
  5  1  1  0
  6  9  1  0
  7 12  2  0
  8  7  1  0
  9 10  1  0
  9  8  2  0
 10 11  2  0
 11 12  1  0
 13 14  1  0
 13  5  1  0
 14 15  1  0
 16 14  2  0
  2 17  1  0
  2 18  1  0
  3 19  1  0
  3 20  1  0
  4 21  1  0
  4 22  1  0
  5 23  1  1
  6 24  1  0
  6 25  1  0
  7 26  1  0
  8 27  1  0
 11 28  1  0
 15 29  1  0
 15 30  1  0
M  ISO  8  17  13  18  13  19  13  20  13  21  13  22  13  23  13  24   8
M  ISO  4  25   8  26  14  27  14  28  14
M  END
>  <minimizedAffinity>  (1) 
-4.07954073

>  <minimizedRMSD>  (1) 
0.525443852

$$$$
