
     RDKit          3D

 18 19  0  0  1  0  0  0  0  0999 V2000
   39.7070   22.9970   37.2580 C   0  0  0  0  0  0  0  0  0  0  0  0
   38.8260   23.1840   38.3470 C   0  0  0  0  0  0  0  0  0  0  0  0
   37.9190   24.2510   38.2850 C   0  0  0  0  0  0  0  0  0  0  0  0
   37.9390   25.0460   37.1800 N   0  0  0  0  0  0  0  0  0  0  0  0
   38.8120   24.8250   36.1470 C   0  0  0  0  0  0  0  0  0  0  0  0
   39.6980   23.7900   36.1980 N   0  0  0  0  0  0  0  0  0  0  0  0
   38.7940   25.7360   34.9800 C   0  0  2  0  0  0  0  0  0  0  0  0
   40.0840   26.5350   34.8190 C   0  0  0  0  0  0  0  0  0  0  0  0
   38.7900   27.2000   35.1730 C   0  0  2  0  0  0  0  0  0  0  0  0
   38.7060   27.6140   36.5170 O   0  0  0  0  0  0  0  0  0  0  0  0
   40.4247   22.1641   37.2923 H   0  0  0  0  0  0  0  0  0  0  0  0
   38.8512   22.5121   39.2176 H   0  0  0  0  0  0  0  0  0  0  0  0
   37.2114   24.4405   39.1056 H   0  0  0  0  0  0  0  0  0  0  0  0
   38.1603   25.0690   34.3770 H   0  0  0  0  0  0  0  0  0  0  0  0
   40.8859   26.4494   35.5670 H   0  0  0  0  0  0  0  0  0  0  0  0
   40.8409   26.6564   34.0301 H   0  0  0  0  0  0  0  0  0  0  0  0
   38.2044   28.0282   34.7473 H   0  0  0  0  0  0  0  0  0  0  0  0
   38.8634   26.8383   37.1117 H   0  0  0  0  0  0  0  0  0  0  0  0
  1  2  2  0
  3  2  1  0
  4  3  2  0
  5  6  2  0
  5  4  1  0
  6  1  1  0
  7  9  1  0
  7  5  1  0
  8  7  1  0
  8  9  1  0
  9 10  1  0
  1 11  1  0
  2 12  1  0
  3 13  1  0
  7 14  1  6
  8 15  1  0
  8 16  1  0
  9 17  1  6
 10 18  1  0
M  ISO  8  11  14  12  14  13  14  14  13  15  13  16  13  17  13  18   3
M  END
>  <minimizedAffinity>  (1) 
-3.86669588

>  <minimizedRMSD>  (1) 
0.570706248

$$$$
