
     RDKit          3D

 22 23  0  0  0  0  0  0  0  0999 V2000
   38.4540   23.1480   34.5230 C   0  0  0  0  0  0  0  0  0  0  0  0
   39.7960   22.7530   37.9110 C   0  0  0  0  0  0  0  0  0  0  0  0
   38.9110   23.5010   38.7180 C   0  0  0  0  0  0  0  0  0  0  0  0
   37.8540   24.1360   38.0580 C   0  0  0  0  0  0  0  0  0  0  0  0
   37.7240   24.0090   36.7010 N   0  0  0  0  0  0  0  0  0  0  0  0
   38.5960   23.2850   35.9880 C   0  0  0  0  0  0  0  0  0  0  0  0
   39.6310   22.6530   36.5640 N   0  0  0  0  0  0  0  0  0  0  0  0
   37.4510   22.1510   34.1120 C   0  0  0  0  0  0  0  0  0  0  0  0
   36.7470   21.5550   35.1440 C   0  0  0  0  0  0  0  0  0  0  0  0
   35.7810   20.6010   34.8200 C   0  0  0  0  0  0  0  0  0  0  0  0
   35.5100   20.2360   33.5080 C   0  0  0  0  0  0  0  0  0  0  0  0
   36.2570   20.8750   32.5100 C   0  0  0  0  0  0  0  0  0  0  0  0
   37.1950   21.8050   32.8380 N   0  0  0  0  0  0  0  0  0  0  0  0
   38.1609   24.1247   34.1105 H   0  0  0  0  0  0  0  0  0  0  0  0
   39.4248   22.8018   34.1388 H   0  0  0  0  0  0  0  0  0  0  0  0
   40.6434   22.2361   38.3850 H   0  0  0  0  0  0  0  0  0  0  0  0
   39.0456   23.5800   39.8069 H   0  0  0  0  0  0  0  0  0  0  0  0
   37.1290   24.7359   38.6277 H   0  0  0  0  0  0  0  0  0  0  0  0
   36.9436   21.8260   36.1918 H   0  0  0  0  0  0  0  0  0  0  0  0
   35.2148   20.1217   35.6322 H   0  0  0  0  0  0  0  0  0  0  0  0
   34.7466   19.4824   33.2644 H   0  0  0  0  0  0  0  0  0  0  0  0
   36.0842   20.6232   31.4532 H   0  0  0  0  0  0  0  0  0  0  0  0
  1  6  1  0
  2  3  2  0
  4  3  1  0
  5  4  2  0
  6  7  2  0
  6  5  1  0
  7  2  1  0
  8  1  1  0
  8  9  2  0
 10  9  1  0
 11 10  2  0
 12 13  2  0
 12 11  1  0
 13  8  1  0
  1 14  1  0
  1 15  1  0
  2 16  1  0
  3 17  1  0
  4 18  1  0
  9 19  1  0
 10 20  1  0
 11 21  1  0
 12 22  1  0
M  ISO  8  14   8  15   8  16  14  17  14  18  14  19  14  20  14  21  14
M  ISO  1  22  14
M  END
>  <minimizedAffinity>  (1) 
-3.91780996

>  <minimizedRMSD>  (1) 
1.57834053

$$$$
