
     RDKit          3D

 49 53  0  0  0  0  0  0  0  0999 V2000
   40.4980   22.7930   35.1890 C   0  0  0  0  0  0  0  0  0  0  0  0
   41.6930   22.6180   35.6040 O   0  0  0  0  0  0  0  0  0  0  0  0
   40.0590   22.5080   33.8490 C   0  0  0  0  0  0  0  0  0  0  0  0
   38.8760   21.8100   33.7190 C   0  0  0  0  0  0  0  0  0  0  0  0
   38.4070   21.5110   32.4470 C   0  0  0  0  0  0  0  0  0  0  0  0
   39.1480   21.9230   31.3720 N   0  0  0  0  0  0  0  0  0  0  0  0
   40.2900   22.5970   31.5390 C   0  0  0  0  0  0  0  0  0  0  0  0
   40.7520   22.8920   32.7560 N   0  0  0  0  0  0  0  0  0  0  0  0
   37.2290   20.8120   32.1070 N   0  0  0  0  0  0  0  0  0  0  0  0
   35.9300   21.4070   31.8790 C   0  0  0  0  0  0  0  0  0  0  0  0
   34.9430   20.8580   32.8660 C   0  0  0  0  0  0  0  0  0  0  0  0
   35.4730   19.7290   33.5210 O   0  0  0  0  0  0  0  0  0  0  0  0
   35.8930   18.8220   32.5710 C   0  0  0  0  0  0  0  0  0  0  0  0
   37.1590   19.3550   31.9340 C   0  0  0  0  0  0  0  0  0  0  0  0
   39.6330   23.3170   36.2350 C   0  0  0  0  0  0  0  0  0  0  0  0
   39.5350   22.6910   37.4710 C   0  0  0  0  0  0  0  0  0  0  0  0
   38.6860   23.2440   38.4350 C   0  0  0  0  0  0  0  0  0  0  0  0
   37.9460   24.3870   38.1950 C   0  0  0  0  0  0  0  0  0  0  0  0
   38.0460   25.0060   36.9660 C   0  0  0  0  0  0  0  0  0  0  0  0
   38.8950   24.4490   36.0110 C   0  0  0  0  0  0  0  0  0  0  0  0
   38.9210   25.1670   34.7840 N   0  0  0  0  0  0  0  0  0  0  0  0
   37.8880   25.1920   33.9050 C   0  0  0  0  0  0  0  0  0  0  0  0
   38.1250   25.9350   32.8060 N   0  0  0  0  0  0  0  0  0  0  0  0
   39.3800   26.4190   32.9820 C   0  0  0  0  0  0  0  0  0  0  0  0
   40.2410   27.2430   32.2480 C   0  0  0  0  0  0  0  0  0  0  0  0
   39.8090   27.6740   31.1510 O   0  0  0  0  0  0  0  0  0  0  0  0
   41.4630   27.5250   32.7480 N   0  0  0  0  0  0  0  0  0  0  0  0
   41.9100   27.0560   33.9270 C   0  0  0  0  0  0  0  0  0  0  0  0
   43.2160   27.4290   34.3360 N   0  0  0  0  0  0  0  0  0  0  0  0
   41.0850   26.2520   34.6540 N   0  0  0  0  0  0  0  0  0  0  0  0
   39.8460   25.9420   34.1890 C   0  0  0  0  0  0  0  0  0  0  0  0
   38.3129   21.4951   34.6099 H   0  0  0  0  0  0  0  0  0  0  0  0
   40.8614   22.9154   30.6546 H   0  0  0  0  0  0  0  0  0  0  0  0
   36.0009   22.4979   32.0008 H   0  0  0  0  0  0  0  0  0  0  0  0
   35.5948   21.1707   30.8583 H   0  0  0  0  0  0  0  0  0  0  0  0
   34.7088   21.6319   33.6118 H   0  0  0  0  0  0  0  0  0  0  0  0
   34.0311   20.5603   32.3277 H   0  0  0  0  0  0  0  0  0  0  0  0
   36.0960   17.8514   33.0471 H   0  0  0  0  0  0  0  0  0  0  0  0
   35.1132   18.6833   31.8076 H   0  0  0  0  0  0  0  0  0  0  0  0
   37.1566   19.1146   30.8606 H   0  0  0  0  0  0  0  0  0  0  0  0
   38.0314   18.8901   32.4166 H   0  0  0  0  0  0  0  0  0  0  0  0
   40.1126   21.7801   37.6870 H   0  0  0  0  0  0  0  0  0  0  0  0
   38.6043   22.7536   39.4162 H   0  0  0  0  0  0  0  0  0  0  0  0
   37.2862   24.7974   38.9736 H   0  0  0  0  0  0  0  0  0  0  0  0
   37.4699   25.9167   36.7452 H   0  0  0  0  0  0  0  0  0  0  0  0
   36.9431   24.6548   34.0739 H   0  0  0  0  0  0  0  0  0  0  0  0
   42.0867   28.1320   32.1971 H   0  0  0  0  0  0  0  0  0  0  0  0
   43.5917   27.0889   35.2327 H   0  0  0  0  0  0  0  0  0  0  0  0
   43.7887   28.0400   33.7363 H   0  0  0  0  0  0  0  0  0  0  0  0
  1  2  2  0
  1 15  1  0
  3  1  1  0
  4  3  2  0
  5  4  1  0
  6  7  1  0
  6  5  2  0
  7  8  2  0
  8  3  1  0
  9  5  1  0
 10  9  1  0
 10 11  1  0
 11 12  1  0
 13 12  1  0
 14  9  1  0
 14 13  1  0
 15 16  2  0
 16 17  1  0
 18 17  2  0
 19 18  1  0
 20 15  1  0
 20 19  2  0
 21 20  1  0
 22 21  1  0
 23 24  1  0
 23 22  2  0
 24 31  2  0
 25 27  1  0
 25 24  1  0
 26 25  2  0
 27 28  1  0
 28 29  1  0
 28 30  2  0
 31 30  1  0
 31 21  1  0
  4 32  1  0
  7 33  1  0
 10 34  1  0
 10 35  1  0
 11 36  1  0
 11 37  1  0
 13 38  1  0
 13 39  1  0
 14 40  1  0
 14 41  1  0
 16 42  1  0
 17 43  1  0
 18 44  1  0
 19 45  1  0
 22 46  1  0
 27 47  1  0
 29 48  1  0
 29 49  1  0
M  ISO  8  32  14  33  14  34  13  35  13  36  13  37  13  38  13  39  13
M  ISO  8  40  13  41  13  42  14  43  14  44  14  45  14  46  14  47   9
M  END
>  <minimizedAffinity>  (1) 
-6.5962677

>  <minimizedRMSD>  (1) 
2.76825213

$$$$
