
     RDKit          3D

 45 50  0  0  1  0  0  0  0  0999 V2000
   41.5180   25.2020   33.7830 C   0  0  0  0  0  0  0  0  0  0  0  0
   40.7990   24.4820   34.6250 N   0  0  0  0  0  0  0  0  0  0  0  0
   39.7350   25.1270   34.9900 O   0  0  0  0  0  0  0  0  0  0  0  0
   39.7880   26.3040   34.3500 C   0  0  0  0  0  0  0  0  0  0  0  0
   40.8790   26.4060   33.5830 N   0  0  0  0  0  0  0  0  0  0  0  0
   40.0610   24.4130   29.3500 C   0  0  0  0  0  0  0  0  0  0  0  0
   39.9420   25.7040   28.7910 C   0  0  0  0  0  0  0  0  0  0  0  0
   40.7740   26.7160   29.2450 C   0  0  0  0  0  0  0  0  0  0  0  0
   41.6810   26.4020   30.2270 N   0  0  0  0  0  0  0  0  0  0  0  0
   41.7600   25.1610   30.7290 C   0  0  0  0  0  0  0  0  0  0  0  0
   40.9670   24.1720   30.3050 N   0  0  0  0  0  0  0  0  0  0  0  0
   42.7420   24.9550   31.7460 N   0  0  0  0  0  0  0  0  0  0  0  0
   43.9380   24.7080   31.2880 N   0  0  0  0  0  0  0  0  0  0  0  0
   44.7850   24.5300   32.3260 C   0  0  0  0  0  0  0  0  0  0  0  0
   44.0780   24.6740   33.4650 C   0  0  0  0  0  0  0  0  0  0  0  0
   42.7740   24.9450   33.0920 C   0  0  0  0  0  0  0  0  0  0  0  0
   39.2100   23.3700   28.8880 N   0  0  0  0  0  0  0  0  0  0  0  0
   38.7630   27.4110   34.4540 C   0  0  2  0  0  0  0  0  0  0  0  0
   38.0190   27.5970   35.7350 C   0  0  0  0  0  0  0  0  0  0  0  0
   37.3160   27.0510   34.5080 C   0  0  1  0  0  0  0  0  0  0  0  0
   36.4820   27.9370   33.7280 N   0  0  0  0  0  0  0  0  0  0  0  0
   36.0470   27.7520   32.4500 C   0  0  0  0  0  0  0  0  0  0  0  0
   35.2820   28.7930   32.0400 N   0  0  0  0  0  0  0  0  0  0  0  0
   35.2270   29.6550   33.0680 C   0  0  0  0  0  0  0  0  0  0  0  0
   34.5790   30.8700   33.1690 C   0  0  0  0  0  0  0  0  0  0  0  0
   33.9140   31.3390   32.2230 O   0  0  0  0  0  0  0  0  0  0  0  0
   34.6520   31.5830   34.3000 N   0  0  0  0  0  0  0  0  0  0  0  0
   35.3920   31.0250   35.3000 C   0  0  0  0  0  0  0  0  0  0  0  0
   35.5610   31.6690   36.5660 N   0  0  0  0  0  0  0  0  0  0  0  0
   36.0390   29.8430   35.2400 N   0  0  0  0  0  0  0  0  0  0  0  0
   35.9720   29.1090   34.0970 C   0  0  0  0  0  0  0  0  0  0  0  0
   39.1987   25.9044   28.0053 H   0  0  0  0  0  0  0  0  0  0  0  0
   40.7098   27.7340   28.8332 H   0  0  0  0  0  0  0  0  0  0  0  0
   45.8598   24.3073   32.2544 H   0  0  0  0  0  0  0  0  0  0  0  0
   44.4636   24.5919   34.4919 H   0  0  0  0  0  0  0  0  0  0  0  0
   38.5143   23.5606   28.1528 H   0  0  0  0  0  0  0  0  0  0  0  0
   39.2898   22.4246   29.2889 H   0  0  0  0  0  0  0  0  0  0  0  0
   39.3737   28.0669   33.8161 H   0  0  0  0  0  0  0  0  0  0  0  0
   38.2235   26.9386   36.5922 H   0  0  0  0  0  0  0  0  0  0  0  0
   37.8480   28.4373   36.4240 H   0  0  0  0  0  0  0  0  0  0  0  0
   36.6897   26.1630   34.3372 H   0  0  0  0  0  0  0  0  0  0  0  0
   36.2853   26.8735   31.8324 H   0  0  0  0  0  0  0  0  0  0  0  0
   34.1805   32.4924   34.4074 H   0  0  0  0  0  0  0  0  0  0  0  0
   36.1266   31.2203   37.3006 H   0  0  0  0  0  0  0  0  0  0  0  0
   35.1170   32.5814   36.7430 H   0  0  0  0  0  0  0  0  0  0  0  0
  1  2  2  0
  2  3  1  0
  4 18  1  0
  4  3  1  0
  5  1  1  0
  5  4  2  0
  6 11  2  0
  7  8  2  0
  7  6  1  0
  8  9  1  0
  9 10  2  0
 10 12  1  0
 11 10  1  0
 12 16  1  0
 13 12  1  0
 13 14  2  0
 14 15  1  0
 16 15  2  0
 16  1  1  0
 17  6  1  0
 18 20  1  0
 18 19  1  0
 20 19  1  0
 21 31  1  0
 21 20  1  0
 22 21  1  0
 23 22  2  0
 23 24  1  0
 24 25  1  0
 24 31  2  0
 25 27  1  0
 26 25  2  0
 27 28  1  0
 28 29  1  0
 30 28  2  0
 31 30  1  0
  7 32  1  0
  8 33  1  0
 14 34  1  0
 15 35  1  0
 17 36  1  0
 17 37  1  0
 18 38  1  6
 19 39  1  0
 19 40  1  0
 20 41  1  1
 22 42  1  0
 27 43  1  0
 29 44  1  0
 29 45  1  0
M  ISO  8  32  14  33  14  34  14  35  14  38  13  39  13  40  13  41  13
M  ISO  2  42  14  43   9
M  END
>  <minimizedAffinity>  (1) 
-4.77810287

>  <minimizedRMSD>  (1) 
6.87547112

$$$$
