
     RDKit          3D

 51 57  0  0  0  0  0  0  0  0999 V2000
   38.6330   23.1970   32.7120 C   0  0  0  0  0  0  0  0  0  0  0  0
   38.5170   21.9280   33.2660 C   0  0  0  0  0  0  0  0  0  0  0  0
   37.3260   21.2030   33.2290 C   0  0  0  0  0  0  0  0  0  0  0  0
   36.2040   21.7530   32.6220 C   0  0  0  0  0  0  0  0  0  0  0  0
   36.2930   23.0100   32.0640 C   0  0  0  0  0  0  0  0  0  0  0  0
   35.1890   23.5620   31.4680 C   0  0  0  0  0  0  0  0  0  0  0  0
   35.2100   24.8100   30.9000 C   0  0  0  0  0  0  0  0  0  0  0  0
   36.4130   25.5030   30.9500 C   0  0  0  0  0  0  0  0  0  0  0  0
   37.5140   24.9190   31.5570 C   0  0  0  0  0  0  0  0  0  0  0  0
   37.4980   23.6830   32.1270 C   0  0  0  0  0  0  0  0  0  0  0  0
   38.5520   25.8650   31.3420 N   0  0  0  0  0  0  0  0  0  0  0  0
   39.1590   26.9290   31.8810 C   0  0  0  0  0  0  0  0  0  0  0  0
   40.1150   27.4690   31.1250 N   0  0  0  0  0  0  0  0  0  0  0  0
   40.2270   26.7840   29.9780 C   0  0  0  0  0  0  0  0  0  0  0  0
   41.0310   26.9040   28.8750 C   0  0  0  0  0  0  0  0  0  0  0  0
   41.8570   27.8540   28.9020 O   0  0  0  0  0  0  0  0  0  0  0  0
   40.8670   26.0160   27.8820 N   0  0  0  0  0  0  0  0  0  0  0  0
   39.9460   25.0590   27.9930 C   0  0  0  0  0  0  0  0  0  0  0  0
   39.8210   24.1490   26.9070 N   0  0  0  0  0  0  0  0  0  0  0  0
   39.1600   24.9400   29.0740 N   0  0  0  0  0  0  0  0  0  0  0  0
   39.2550   25.8000   30.1340 C   0  0  0  0  0  0  0  0  0  0  0  0
   39.8710   23.9170   32.7820 C   0  0  0  0  0  0  0  0  0  0  0  0
   40.1960   24.7810   33.8490 C   0  0  0  0  0  0  0  0  0  0  0  0
   41.4360   25.4190   33.8160 C   0  0  0  0  0  0  0  0  0  0  0  0
   42.2860   25.1890   32.7690 N   0  0  0  0  0  0  0  0  0  0  0  0
   41.9410   24.3470   31.7610 C   0  0  0  0  0  0  0  0  0  0  0  0
   40.7740   23.7470   31.7890 N   0  0  0  0  0  0  0  0  0  0  0  0
   39.3080   24.9570   34.8950 N   0  0  0  0  0  0  0  0  0  0  0  0
   38.3140   25.8530   34.9540 C   0  0  0  0  0  0  0  0  0  0  0  0
   37.6250   25.7700   36.1140 N   0  0  0  0  0  0  0  0  0  0  0  0
   38.2140   24.7690   36.8250 C   0  0  0  0  0  0  0  0  0  0  0  0
   37.9760   24.2150   38.0530 C   0  0  0  0  0  0  0  0  0  0  0  0
   38.7010   23.2020   38.5760 N   0  0  0  0  0  0  0  0  0  0  0  0
   39.7090   22.7470   37.7930 C   0  0  0  0  0  0  0  0  0  0  0  0
   39.9260   23.2980   36.6030 N   0  0  0  0  0  0  0  0  0  0  0  0
   39.2460   24.2870   36.0520 C   0  0  0  0  0  0  0  0  0  0  0  0
   39.3961   21.4790   33.7513 H   0  0  0  0  0  0  0  0  0  0  0  0
   37.2754   20.2003   33.6784 H   0  0  0  0  0  0  0  0  0  0  0  0
   35.2578   21.1931   32.5872 H   0  0  0  0  0  0  0  0  0  0  0  0
   34.2535   22.9838   31.4445 H   0  0  0  0  0  0  0  0  0  0  0  0
   34.3160   25.2422   30.4268 H   0  0  0  0  0  0  0  0  0  0  0  0
   36.4914   26.5085   30.5108 H   0  0  0  0  0  0  0  0  0  0  0  0
   38.8900   27.3269   32.8706 H   0  0  0  0  0  0  0  0  0  0  0  0
   41.4516   26.0740   27.0360 H   0  0  0  0  0  0  0  0  0  0  0  0
   39.1232   23.3925   26.9467 H   0  0  0  0  0  0  0  0  0  0  0  0
   40.4283   24.2466   26.0808 H   0  0  0  0  0  0  0  0  0  0  0  0
   41.7285   26.1026   34.6266 H   0  0  0  0  0  0  0  0  0  0  0  0
   42.6351   24.1690   30.9264 H   0  0  0  0  0  0  0  0  0  0  0  0
   38.0854   26.5715   34.1531 H   0  0  0  0  0  0  0  0  0  0  0  0
   37.1449   24.6183   38.6501 H   0  0  0  0  0  0  0  0  0  0  0  0
   40.3474   21.9220   38.1420 H   0  0  0  0  0  0  0  0  0  0  0  0
  1 22  1  0
  1  2  2  0
  3  2  1  0
  4  3  2  0
  5 10  2  0
  5  4  1  0
  6  5  1  0
  7  8  1  0
  7  6  2  0
  8  9  2  0
  9 10  1  0
 10  1  1  0
 11  9  1  0
 11 12  1  0
 13 12  2  0
 14 21  2  0
 14 13  1  0
 15 16  2  0
 15 14  1  0
 17 18  1  0
 17 15  1  0
 18 20  2  0
 19 18  1  0
 20 21  1  0
 21 11  1  0
 22 23  1  0
 23 28  1  0
 24 23  2  0
 25 24  1  0
 26 27  1  0
 26 25  2  0
 27 22  2  0
 28 29  1  0
 28 36  1  0
 29 30  2  0
 30 31  1  0
 31 32  2  0
 32 33  1  0
 34 33  2  0
 35 34  1  0
 36 35  2  0
 36 31  1  0
  2 37  1  0
  3 38  1  0
  4 39  1  0
  6 40  1  0
  7 41  1  0
  8 42  1  0
 12 43  1  0
 17 44  1  0
 19 45  1  0
 19 46  1  0
 24 47  1  0
 26 48  1  0
 29 49  1  0
 32 50  1  0
 34 51  1  0
M  ISO  8  37  14  38  14  39  14  40  14  41  14  42  14  43  14  44   9
M  ISO  5  47  14  48  14  49  14  50  14  51  14
M  END
>  <minimizedAffinity>  (1) 
-6.37701082

>  <minimizedRMSD>  (1) 
1.9306742

$$$$
