
     RDKit          3D

 51 57  0  0  0  0  0  0  0  0999 V2000
   39.1110   23.2650   31.5670 C   0  0  0  0  0  0  0  0  0  0  0  0
   38.5340   24.4840   31.2400 C   0  0  0  0  0  0  0  0  0  0  0  0
   38.3500   25.3540   32.2980 C   0  0  0  0  0  0  0  0  0  0  0  0
   38.7340   24.9540   33.4990 N   0  0  0  0  0  0  0  0  0  0  0  0
   39.2850   23.8030   33.8410 C   0  0  0  0  0  0  0  0  0  0  0  0
   39.4510   22.9910   32.8250 N   0  0  0  0  0  0  0  0  0  0  0  0
   37.7730   26.6400   32.1290 N   0  0  0  0  0  0  0  0  0  0  0  0
   38.1840   27.5910   31.2880 C   0  0  0  0  0  0  0  0  0  0  0  0
   37.4170   28.6620   31.3910 N   0  0  0  0  0  0  0  0  0  0  0  0
   36.4910   28.3990   32.3160 C   0  0  0  0  0  0  0  0  0  0  0  0
   36.7320   27.1490   32.7540 N   0  0  0  0  0  0  0  0  0  0  0  0
   35.3750   29.1530   32.8790 C   0  0  0  0  0  0  0  0  0  0  0  0
   34.1390   29.4660   32.4660 N   0  0  0  0  0  0  0  0  0  0  0  0
   33.5440   30.1770   33.3820 O   0  0  0  0  0  0  0  0  0  0  0  0
   34.3670   30.3410   34.3980 C   0  0  0  0  0  0  0  0  0  0  0  0
   35.5350   29.7060   34.1130 N   0  0  0  0  0  0  0  0  0  0  0  0
   33.9970   31.0790   35.5560 N   0  0  0  0  0  0  0  0  0  0  0  0
   33.1950   30.7500   36.5830 C   0  0  0  0  0  0  0  0  0  0  0  0
   33.1470   31.7910   37.4630 N   0  0  0  0  0  0  0  0  0  0  0  0
   33.9400   32.7680   36.9480 C   0  0  0  0  0  0  0  0  0  0  0  0
   34.2300   34.0350   37.4620 C   0  0  0  0  0  0  0  0  0  0  0  0
   33.7700   34.4640   38.5280 O   0  0  0  0  0  0  0  0  0  0  0  0
   35.0620   34.8620   36.7720 N   0  0  0  0  0  0  0  0  0  0  0  0
   35.5820   34.4150   35.5970 C   0  0  0  0  0  0  0  0  0  0  0  0
   36.4680   35.2120   34.7970 N   0  0  0  0  0  0  0  0  0  0  0  0
   35.2920   33.1970   35.1230 N   0  0  0  0  0  0  0  0  0  0  0  0
   34.4810   32.3190   35.7400 C   0  0  0  0  0  0  0  0  0  0  0  0
   39.7390   23.2580   35.0910 C   0  0  0  0  0  0  0  0  0  0  0  0
   40.7960   22.3500   35.1550 C   0  0  0  0  0  0  0  0  0  0  0  0
   41.2670   21.8020   36.3230 C   0  0  0  0  0  0  0  0  0  0  0  0
   40.6920   22.1390   37.5330 C   0  0  0  0  0  0  0  0  0  0  0  0
   39.6610   23.0180   37.5180 C   0  0  0  0  0  0  0  0  0  0  0  0
   39.0720   23.3670   38.7300 C   0  0  0  0  0  0  0  0  0  0  0  0
   38.0350   24.2390   38.8130 C   0  0  0  0  0  0  0  0  0  0  0  0
   37.5700   24.7850   37.6220 C   0  0  0  0  0  0  0  0  0  0  0  0
   38.1610   24.4310   36.4430 C   0  0  0  0  0  0  0  0  0  0  0  0
   39.1980   23.5610   36.3400 C   0  0  0  0  0  0  0  0  0  0  0  0
   39.2892   22.5180   30.7795 H   0  0  0  0  0  0  0  0  0  0  0  0
   38.2433   24.7400   30.2104 H   0  0  0  0  0  0  0  0  0  0  0  0
   39.0410   27.4966   30.6049 H   0  0  0  0  0  0  0  0  0  0  0  0
   32.6625   29.7941   36.6958 H   0  0  0  0  0  0  0  0  0  0  0  0
   35.2916   35.8003   37.1295 H   0  0  0  0  0  0  0  0  0  0  0  0
   36.8409   34.8375   33.9129 H   0  0  0  0  0  0  0  0  0  0  0  0
   36.7309   36.1584   35.1070 H   0  0  0  0  0  0  0  0  0  0  0  0
   41.2816   22.0550   34.2131 H   0  0  0  0  0  0  0  0  0  0  0  0
   42.1061   21.0913   36.2948 H   0  0  0  0  0  0  0  0  0  0  0  0
   41.0586   21.7084   38.4765 H   0  0  0  0  0  0  0  0  0  0  0  0
   39.4618   22.9190   39.6559 H   0  0  0  0  0  0  0  0  0  0  0  0
   37.5823   24.5021   39.7804 H   0  0  0  0  0  0  0  0  0  0  0  0
   36.7318   25.4973   37.6294 H   0  0  0  0  0  0  0  0  0  0  0  0
   37.7718   24.8797   35.5171 H   0  0  0  0  0  0  0  0  0  0  0  0
  1  6  2  0
  2  1  1  0
  2  3  2  0
  3  4  1  0
  4  5  2  0
  5 28  1  0
  6  5  1  0
  7  3  1  0
  7 11  1  0
  8  9  2  0
  8  7  1  0
  9 10  1  0
 10 11  2  0
 10 12  1  0
 12 16  1  0
 13 12  2  0
 13 14  1  0
 14 15  1  0
 15 17  1  0
 16 15  2  0
 17 27  1  0
 17 18  1  0
 18 19  2  0
 20 21  1  0
 20 19  1  0
 21 22  2  0
 23 21  1  0
 24 23  1  0
 25 24  1  0
 26 24  2  0
 26 27  1  0
 27 20  2  0
 28 29  2  0
 28 37  1  0
 29 30  1  0
 30 31  2  0
 32 31  1  0
 32 33  2  0
 33 34  1  0
 35 34  2  0
 36 35  1  0
 37 36  2  0
 37 32  1  0
  1 38  1  0
  2 39  1  0
  8 40  1  0
 18 41  1  0
 23 42  1  0
 25 43  1  0
 25 44  1  0
 29 45  1  0
 30 46  1  0
 31 47  1  0
 33 48  1  0
 34 49  1  0
 35 50  1  0
 36 51  1  0
M  END
>  <minimizedAffinity>  (1) 
-8.23144436

>  <minimizedRMSD>  (1) 
2.49316931

$$$$
