
     RDKit          3D

 46 49  0  0  0  0  0  0  0  0999 V2000
   38.0840   23.2090   35.2400 C   0  0  0  0  0  0  0  0  0  0  0  0
   37.5920   22.0200   34.7840 C   0  0  0  0  0  0  0  0  0  0  0  0
   37.2280   21.8430   33.4640 C   0  0  0  0  0  0  0  0  0  0  0  0
   37.3620   22.8860   32.5730 C   0  0  0  0  0  0  0  0  0  0  0  0
   37.8600   24.0640   33.0690 C   0  0  0  0  0  0  0  0  0  0  0  0
   38.2520   24.3130   34.4130 C   0  0  0  0  0  0  0  0  0  0  0  0
   39.5070   22.7070   37.3040 C   0  0  0  0  0  0  0  0  0  0  0  0
   38.4030   23.1940   36.6580 C   0  0  0  0  0  0  0  0  0  0  0  0
   37.6140   23.6900   37.6370 N   0  0  0  0  0  0  0  0  0  0  0  0
   38.2290   23.5010   38.8140 C   0  0  0  0  0  0  0  0  0  0  0  0
   39.3900   22.9020   38.6470 N   0  0  0  0  0  0  0  0  0  0  0  0
   42.6780   20.8260   36.7390 C   0  0  0  0  0  0  0  0  0  0  0  0
   41.6030   21.4190   37.4110 C   0  0  0  0  0  0  0  0  0  0  0  0
   40.6430   22.0720   36.6540 C   0  0  0  0  0  0  0  0  0  0  0  0
   40.8040   22.1010   35.2720 N   0  0  0  0  0  0  0  0  0  0  0  0
   41.8580   21.5150   34.6790 C   0  0  0  0  0  0  0  0  0  0  0  0
   42.7840   20.8850   35.4000 N   0  0  0  0  0  0  0  0  0  0  0  0
   42.0040   21.5580   33.2610 N   0  0  0  0  0  0  0  0  0  0  0  0
   42.7120   22.3360   32.4760 N   0  0  0  0  0  0  0  0  0  0  0  0
   42.5230   21.9870   31.1740 C   0  0  0  0  0  0  0  0  0  0  0  0
   41.6320   20.9180   31.1810 C   0  0  0  0  0  0  0  0  0  0  0  0
   41.3100   20.6560   32.5130 C   0  0  0  0  0  0  0  0  0  0  0  0
   38.7710   25.5610   34.8910 C   0  0  0  0  0  0  0  0  0  0  0  0
   38.5060   26.5360   33.7080 C   0  0  0  0  0  0  0  0  0  0  0  0
   38.3000   26.2580   36.0640 C   0  0  0  0  0  0  0  0  0  0  0  0
   40.2930   25.4510   34.9600 C   0  0  0  0  0  0  0  0  0  0  0  0
   37.4827   21.1809   35.4868 H   0  0  0  0  0  0  0  0  0  0  0  0
   36.8329   20.8740   33.1250 H   0  0  0  0  0  0  0  0  0  0  0  0
   37.0829   22.7789   31.5144 H   0  0  0  0  0  0  0  0  0  0  0  0
   37.9664   24.8967   32.3582 H   0  0  0  0  0  0  0  0  0  0  0  0
   37.8187   23.8055   39.7881 H   0  0  0  0  0  0  0  0  0  0  0  0
   40.0663   22.6371   39.3773 H   0  0  0  0  0  0  0  0  0  0  0  0
   43.4519   20.3010   37.3181 H   0  0  0  0  0  0  0  0  0  0  0  0
   41.5224   21.3683   38.5069 H   0  0  0  0  0  0  0  0  0  0  0  0
   42.9829   22.4564   30.2919 H   0  0  0  0  0  0  0  0  0  0  0  0
   41.2522   20.3797   30.3001 H   0  0  0  0  0  0  0  0  0  0  0  0
   40.6302   19.8754   32.8853 H   0  0  0  0  0  0  0  0  0  0  0  0
   38.2367   27.5268   34.1027 H   0  0  0  0  0  0  0  0  0  0  0  0
   39.4137   26.6209   33.0924 H   0  0  0  0  0  0  0  0  0  0  0  0
   37.6803   26.1497   33.0924 H   0  0  0  0  0  0  0  0  0  0  0  0
   38.6522   25.7368   36.9664 H   0  0  0  0  0  0  0  0  0  0  0  0
   38.6886   27.2871   36.0598 H   0  0  0  0  0  0  0  0  0  0  0  0
   37.2003   26.2813   36.0598 H   0  0  0  0  0  0  0  0  0  0  0  0
   40.6116   25.4280   36.0126 H   0  0  0  0  0  0  0  0  0  0  0  0
   40.6170   24.5271   34.4585 H   0  0  0  0  0  0  0  0  0  0  0  0
   40.7464   26.3187   34.4585 H   0  0  0  0  0  0  0  0  0  0  0  0
  1  8  1  0
  2  1  2  0
  3  2  1  0
  4  5  1  0
  4  3  2  0
  5  6  2  0
  6 23  1  0
  6  1  1  0
  7 11  1  0
  8  7  2  0
  8  9  1  0
  9 10  2  0
 11 10  1  0
 12 13  2  0
 14  7  1  0
 14 13  1  0
 15 14  2  0
 16 15  1  0
 16 17  2  0
 17 12  1  0
 18 16  1  0
 19 18  1  0
 20 21  1  0
 20 19  2  0
 21 22  2  0
 22 18  1  0
 23 26  1  0
 23 25  1  0
 24 23  1  0
  2 27  1  0
  3 28  1  0
  4 29  1  0
  5 30  1  0
 10 31  1  0
 11 32  1  0
 12 33  1  0
 13 34  1  0
 20 35  1  0
 21 36  1  0
 22 37  1  0
 24 38  1  0
 24 39  1  0
 24 40  1  0
 25 41  1  0
 25 42  1  0
 25 43  1  0
 26 44  1  0
 26 45  1  0
 26 46  1  0
M  ISO  8  27  14  28  14  29  14  30  14  31  14  32   9  33  14  34  14
M  ISO  8  35  14  36  14  37  14  38   8  39   8  40   8  41   8  42   8
M  ISO  4  43   8  44   8  45   8  46   8
M  END
>  <minimizedAffinity>  (1) 
-5.69909286

>  <minimizedRMSD>  (1) 
0.0804426894

$$$$
