
     RDKit          3D

 48 51  0  0  0  0  0  0  0  0999 V2000
   37.1450   26.7060   34.3080 C   0  0  0  0  0  0  0  0  0  0  0  0
   37.1780   25.7660   33.2800 C   0  0  0  0  0  0  0  0  0  0  0  0
   36.5360   26.0800   32.0650 C   0  0  0  0  0  0  0  0  0  0  0  0
   35.9290   27.2770   31.9840 N   0  0  0  0  0  0  0  0  0  0  0  0
   35.9040   28.1720   32.9810 C   0  0  0  0  0  0  0  0  0  0  0  0
   36.5180   27.8850   34.1550 N   0  0  0  0  0  0  0  0  0  0  0  0
   37.8150   26.3780   35.5720 C   0  0  0  0  0  0  0  0  0  0  0  0
   38.6820   27.1360   36.0240 O   0  0  0  0  0  0  0  0  0  0  0  0
   37.4570   25.2170   36.2350 O   0  0  0  0  0  0  0  0  0  0  0  0
   39.3540   22.9140   38.1320 N   0  0  0  0  0  0  0  0  0  0  0  0
   38.3080   23.7210   37.9110 N   0  0  0  0  0  0  0  0  0  0  0  0
   38.4420   24.3180   36.6940 C   0  0  0  0  0  0  0  0  0  0  0  0
   39.6120   23.8780   36.1240 C   0  0  0  0  0  0  0  0  0  0  0  0
   40.1370   23.0180   37.0440 C   0  0  0  0  0  0  0  0  0  0  0  0
   41.4190   22.2940   36.8480 C   0  0  0  0  0  0  0  0  0  0  0  0
   42.4700   22.9180   36.2040 C   0  0  0  0  0  0  0  0  0  0  0  0
   43.6170   22.1800   36.0650 C   0  0  0  0  0  0  0  0  0  0  0  0
   43.7920   20.9070   36.5030 N   0  0  0  0  0  0  0  0  0  0  0  0
   42.7210   20.3300   37.1350 C   0  0  0  0  0  0  0  0  0  0  0  0
   41.5940   21.0260   37.2840 N   0  0  0  0  0  0  0  0  0  0  0  0
   35.2120   29.4590   32.7950 C   0  0  0  0  0  0  0  0  0  0  0  0
   35.8430   30.4610   33.7250 C   0  0  0  0  0  0  0  0  0  0  0  0
   33.7630   29.2580   33.1760 C   0  0  0  0  0  0  0  0  0  0  0  0
   35.3170   29.9380   31.3440 C   0  0  0  0  0  0  0  0  0  0  0  0
   36.6760   30.1140   31.0980 O   0  0  0  0  0  0  0  0  0  0  0  0
   37.1900   29.8500   29.8370 C   0  0  0  0  0  0  0  0  0  0  0  0
   37.6490   30.8810   29.0500 C   0  0  0  0  0  0  0  0  0  0  0  0
   38.1150   30.3700   27.8350 C   0  0  0  0  0  0  0  0  0  0  0  0
   37.9100   29.0290   27.9480 N   0  0  0  0  0  0  0  0  0  0  0  0
   37.3620   28.7220   29.1350 N   0  0  0  0  0  0  0  0  0  0  0  0
   37.6923   24.8028   33.4133 H   0  0  0  0  0  0  0  0  0  0  0  0
   36.5318   25.3762   31.2197 H   0  0  0  0  0  0  0  0  0  0  0  0
   39.5238   22.3326   38.9651 H   0  0  0  0  0  0  0  0  0  0  0  0
   40.0312   24.1564   35.1459 H   0  0  0  0  0  0  0  0  0  0  0  0
   42.3911   23.9475   35.8247 H   0  0  0  0  0  0  0  0  0  0  0  0
   44.4663   22.6593   35.5561 H   0  0  0  0  0  0  0  0  0  0  0  0
   42.7912   19.3006   37.5162 H   0  0  0  0  0  0  0  0  0  0  0  0
   35.6553   30.1630   34.7671 H   0  0  0  0  0  0  0  0  0  0  0  0
   36.9273   30.4974   33.5437 H   0  0  0  0  0  0  0  0  0  0  0  0
   35.4073   31.4546   33.5437 H   0  0  0  0  0  0  0  0  0  0  0  0
   33.6704   29.2452   34.2720 H   0  0  0  0  0  0  0  0  0  0  0  0
   33.1587   30.0809   32.7666 H   0  0  0  0  0  0  0  0  0  0  0  0
   33.4055   28.3017   32.7666 H   0  0  0  0  0  0  0  0  0  0  0  0
   34.8990   29.1839   30.6609 H   0  0  0  0  0  0  0  0  0  0  0  0
   34.7536   30.8691   31.1842 H   0  0  0  0  0  0  0  0  0  0  0  0
   37.6493   31.9439   29.3332 H   0  0  0  0  0  0  0  0  0  0  0  0
   38.5461   30.9220   26.9868 H   0  0  0  0  0  0  0  0  0  0  0  0
   38.1444   28.3403   27.2189 H   0  0  0  0  0  0  0  0  0  0  0  0
  1  7  1  0
  2  1  2  0
  3  2  1  0
  4  3  2  0
  4  5  1  0
  5  6  2  0
  6  1  1  0
  7  8  2  0
  7  9  1  0
  9 12  1  0
 11 10  1  0
 12 11  2  0
 13 12  1  0
 13 14  2  0
 14 10  1  0
 15 14  1  0
 15 20  1  0
 16 15  2  0
 17 16  1  0
 17 18  2  0
 18 19  1  0
 19 20  2  0
 21  5  1  0
 21 23  1  0
 21 22  1  0
 24 21  1  0
 25 24  1  0
 26 25  1  0
 27 26  1  0
 28 29  1  0
 28 27  2  0
 29 30  1  0
 30 26  2  0
  2 31  1  0
  3 32  1  0
 10 33  1  0
 13 34  1  0
 16 35  1  0
 17 36  1  0
 19 37  1  0
 22 38  1  0
 22 39  1  0
 22 40  1  0
 23 41  1  0
 23 42  1  0
 23 43  1  0
 24 44  1  0
 24 45  1  0
 27 46  1  0
 28 47  1  0
 29 48  1  0
M  ISO  8  31  14  32  14  33   9  34  14  35  14  36  14  37  14  38   8
M  ISO  8  39   8  40   8  41   8  42   8  43   8  44   8  45   8  46  14
M  ISO  2  47  14  48   9
M  END
>  <minimizedAffinity>  (1) 
-5.76464844

>  <minimizedRMSD>  (1) 
0.570724726

$$$$
