
     RDKit          3D

 24 25  0  0  0  0  0  0  0  0999 V2000
   39.7690   23.0140   37.0900 C   0  0  0  0  0  0  0  0  0  0  0  0
   39.2840   23.8000   36.0380 C   0  0  0  0  0  0  0  0  0  0  0  0
   38.2140   24.6680   36.3550 C   0  0  0  0  0  0  0  0  0  0  0  0
   37.7260   24.6930   37.6260 N   0  0  0  0  0  0  0  0  0  0  0  0
   38.2410   23.9060   38.5980 C   0  0  0  0  0  0  0  0  0  0  0  0
   39.2500   23.0760   38.3360 N   0  0  0  0  0  0  0  0  0  0  0  0
   40.8490   22.1750   36.6600 N   0  0  0  0  0  0  0  0  0  0  0  0
   41.2530   22.0300   35.3880 N   0  0  0  0  0  0  0  0  0  0  0  0
   42.2990   21.1610   35.3440 C   0  0  0  0  0  0  0  0  0  0  0  0
   42.5450   20.7560   36.6610 C   0  0  0  0  0  0  0  0  0  0  0  0
   41.6120   21.4130   37.4730 C   0  0  0  0  0  0  0  0  0  0  0  0
   37.6370   25.5220   35.3480 N   0  0  0  0  0  0  0  0  0  0  0  0
   38.0830   26.8790   35.2690 C   0  0  0  0  0  0  0  0  0  0  0  0
   38.6280   27.4830   36.2790 N   0  0  0  0  0  0  0  0  0  0  0  0
   37.8900   27.5190   34.0240 N   0  0  0  0  0  0  0  0  0  0  0  0
   38.9710   28.4600   36.2570 H   0  0  0  0  0  0  0  0  0  0  0  0
   39.7099   23.7455   35.0253 H   0  0  0  0  0  0  0  0  0  0  0  0
   37.8229   23.9515   39.6144 H   0  0  0  0  0  0  0  0  0  0  0  0
   42.8462   20.8386   34.4459 H   0  0  0  0  0  0  0  0  0  0  0  0
   43.3237   20.0545   36.9950 H   0  0  0  0  0  0  0  0  0  0  0  0
   41.5185   21.3251   38.5655 H   0  0  0  0  0  0  0  0  0  0  0  0
   36.9205   25.1640   34.7005 H   0  0  0  0  0  0  0  0  0  0  0  0
   38.1876   28.4967   33.8959 H   0  0  0  0  0  0  0  0  0  0  0  0
   37.4517   27.0078   33.2446 H   0  0  0  0  0  0  0  0  0  0  0  0
  1  6  2  0
  2  3  2  0
  2  1  1  0
  3  4  1  0
  4  5  2  0
  6  5  1  0
  7  1  1  0
  7 11  1  0
  8  7  1  0
  9  8  2  0
  9 10  1  0
 10 11  2  0
 12  3  1  0
 13 12  1  0
 13 14  2  0
 15 13  1  0
 16 14  1  0
  2 17  1  0
  5 18  1  0
  9 19  1  0
 10 20  1  0
 11 21  1  0
 12 22  1  0
 15 23  1  0
 15 24  1  0
M  ISO  5  17  14  18  14  19  14  20  14  21  14
M  END
>  <minimizedAffinity>  (1) 
-4.62438154

>  <minimizedRMSD>  (1) 
0.876630068

$$$$
