
     RDKit          3D

 33 35  0  0  1  0  0  0  0  0999 V2000
   38.3390   25.4570   34.2540 C   0  0  0  0  0  0  0  0  0  0  0  0
   38.5630   24.0810   34.0760 N   0  0  0  0  0  0  0  0  0  0  0  0
   38.7920   23.2740   33.0190 C   0  0  0  0  0  0  0  0  0  0  0  0
   38.9580   21.9490   33.3330 C   0  0  0  0  0  0  0  0  0  0  0  0
   38.8250   21.9220   34.6710 N   0  0  0  0  0  0  0  0  0  0  0  0
   38.5920   23.1860   35.1000 C   0  0  0  0  0  0  0  0  0  0  0  0
   38.4100   23.4350   36.5010 N   0  0  0  0  0  0  0  0  0  0  0  0
   39.3450   22.9540   37.3080 N   0  0  0  0  0  0  0  0  0  0  0  0
   39.0500   23.2600   38.5950 C   0  0  0  0  0  0  0  0  0  0  0  0
   37.8610   23.9670   38.5310 C   0  0  0  0  0  0  0  0  0  0  0  0
   37.4820   24.0640   37.2270 C   0  0  0  0  0  0  0  0  0  0  0  0
   39.3140   26.1060   35.1930 C   0  0  1  0  0  0  0  0  0  0  0  0
   41.9780   27.5190   32.8950 C   0  0  0  0  0  0  0  0  0  0  0  0
   40.7110   27.3180   33.4610 C   0  0  0  0  0  0  0  0  0  0  0  0
   40.6170   26.3850   34.5460 C   0  0  0  0  0  0  0  0  0  0  0  0
   41.7560   25.7540   34.9620 N   0  0  0  0  0  0  0  0  0  0  0  0
   42.9420   25.9690   34.4000 C   0  0  0  0  0  0  0  0  0  0  0  0
   43.0530   26.8620   33.3560 N   0  0  0  0  0  0  0  0  0  0  0  0
   38.7090   27.3600   35.7780 C   0  0  0  0  0  0  0  0  0  0  0  0
   37.3242   25.5955   34.6554 H   0  0  0  0  0  0  0  0  0  0  0  0
   38.4682   25.9355   33.2720 H   0  0  0  0  0  0  0  0  0  0  0  0
   38.8417   23.6493   31.9862 H   0  0  0  0  0  0  0  0  0  0  0  0
   39.1536   21.1078   32.6517 H   0  0  0  0  0  0  0  0  0  0  0  0
   39.6289   23.0028   39.4943 H   0  0  0  0  0  0  0  0  0  0  0  0
   37.3138   24.3813   39.3907 H   0  0  0  0  0  0  0  0  0  0  0  0
   36.5813   24.5658   36.8436 H   0  0  0  0  0  0  0  0  0  0  0  0
   39.5200   25.3973   36.0087 H   0  0  0  0  0  0  0  0  0  0  0  0
   42.0923   28.2262   32.0602 H   0  0  0  0  0  0  0  0  0  0  0  0
   39.8257   27.8539   33.0882 H   0  0  0  0  0  0  0  0  0  0  0  0
   43.8314   25.4359   34.7671 H   0  0  0  0  0  0  0  0  0  0  0  0
   38.7367   27.3026   36.8762 H   0  0  0  0  0  0  0  0  0  0  0  0
   39.2838   28.2356   35.4420 H   0  0  0  0  0  0  0  0  0  0  0  0
   37.6659   27.4551   35.4420 H   0  0  0  0  0  0  0  0  0  0  0  0
  1 12  1  0
  2  1  1  0
  2  6  1  0
  3  4  2  0
  3  2  1  0
  4  5  1  0
  5  6  2  0
  6  7  1  0
  7 11  1  0
  7  8  1  0
  8  9  2  0
 10  9  1  0
 11 10  2  0
 12 19  1  0
 13 18  2  0
 13 14  1  0
 14 15  2  0
 15 16  1  0
 15 12  1  0
 17 16  2  0
 18 17  1  0
  1 20  1  0
  1 21  1  0
  3 22  1  0
  4 23  1  0
  9 24  1  0
 10 25  1  0
 11 26  1  0
 12 27  1  1
 13 28  1  0
 14 29  1  0
 17 30  1  0
 19 31  1  0
 19 32  1  0
 19 33  1  0
M  ISO  8  20   8  21   8  22  14  23  14  24  14  25  14  26  14  27   8
M  ISO  6  28  14  29  14  30  14  31   8  32   8  33   8
M  END
>  <minimizedAffinity>  (1) 
-4.76479673

>  <minimizedRMSD>  (1) 
5.06821108

$$$$
