
     RDKit          3D

 40 43  0  0  1  0  0  0  0  0999 V2000
   37.4060   25.8550   32.9330 N   0  0  0  0  0  0  0  0  0  0  0  0
   36.9280   24.7860   32.2900 C   0  0  0  0  0  0  0  0  0  0  0  0
   35.8860   25.0610   31.4390 C   0  0  0  0  0  0  0  0  0  0  0  0
   35.7080   26.3830   31.5620 N   0  0  0  0  0  0  0  0  0  0  0  0
   36.6190   26.8620   32.4570 C   0  0  0  0  0  0  0  0  0  0  0  0
   36.6560   28.3410   32.7550 C   0  0  1  0  0  0  0  0  0  0  0  0
   35.7390   29.2030   31.9800 C   0  0  0  0  0  0  0  0  0  0  0  0
   35.4120   28.9100   33.4270 C   0  0  2  0  0  0  0  0  0  0  0  0
   35.6690   30.0610   34.2710 N   0  0  0  0  0  0  0  0  0  0  0  0
   35.4120   31.2000   33.6190 N   0  0  0  0  0  0  0  0  0  0  0  0
   35.6650   32.2560   34.4470 C   0  0  0  0  0  0  0  0  0  0  0  0
   36.0970   31.7450   35.6600 C   0  0  0  0  0  0  0  0  0  0  0  0
   36.0890   30.3750   35.5160 C   0  0  0  0  0  0  0  0  0  0  0  0
   38.4230   26.0810   33.8840 C   0  0  0  0  0  0  0  0  0  0  0  0
   37.9470   26.0380   35.2880 C   0  0  1  0  0  0  0  0  0  0  0  0
   38.5350   23.4660   38.0020 C   0  0  0  0  0  0  0  0  0  0  0  0
   37.9350   24.5550   37.3470 C   0  0  0  0  0  0  0  0  0  0  0  0
   38.5060   24.9210   36.0740 C   0  0  0  0  0  0  0  0  0  0  0  0
   39.5830   24.2100   35.5700 N   0  0  0  0  0  0  0  0  0  0  0  0
   40.1070   23.1830   36.2440 C   0  0  0  0  0  0  0  0  0  0  0  0
   39.5840   22.8030   37.4690 N   0  0  0  0  0  0  0  0  0  0  0  0
   38.2230   27.3660   35.9860 C   0  0  0  0  0  0  0  0  0  0  0  0
   37.3339   23.7733   32.4301 H   0  0  0  0  0  0  0  0  0  0  0  0
   35.3269   24.3585   30.8035 H   0  0  0  0  0  0  0  0  0  0  0  0
   37.7361   28.3583   32.9626 H   0  0  0  0  0  0  0  0  0  0  0  0
   36.0574   30.2139   31.6856 H   0  0  0  0  0  0  0  0  0  0  0  0
   35.1960   29.0918   31.0299 H   0  0  0  0  0  0  0  0  0  0  0  0
   34.5714   28.4833   33.9939 H   0  0  0  0  0  0  0  0  0  0  0  0
   35.5470   33.3205   34.1961 H   0  0  0  0  0  0  0  0  0  0  0  0
   36.3869   32.3159   36.5544 H   0  0  0  0  0  0  0  0  0  0  0  0
   36.3788   29.6512   36.2920 H   0  0  0  0  0  0  0  0  0  0  0  0
   39.1961   25.3091   33.7557 H   0  0  0  0  0  0  0  0  0  0  0  0
   38.8092   27.0956   33.7066 H   0  0  0  0  0  0  0  0  0  0  0  0
   36.8624   25.8623   35.2344 H   0  0  0  0  0  0  0  0  0  0  0  0
   38.1390   23.1444   38.9766 H   0  0  0  0  0  0  0  0  0  0  0  0
   37.0806   25.0962   37.7795 H   0  0  0  0  0  0  0  0  0  0  0  0
   40.9618   22.6338   35.8224 H   0  0  0  0  0  0  0  0  0  0  0  0
   38.1928   27.2206   37.0759 H   0  0  0  0  0  0  0  0  0  0  0  0
   39.2170   27.7348   35.6927 H   0  0  0  0  0  0  0  0  0  0  0  0
   37.4583   28.1003   35.6927 H   0  0  0  0  0  0  0  0  0  0  0  0
  1 14  1  0
  2  1  1  0
  3  4  1  0
  3  2  2  0
  4  5  2  0
  5  6  1  0
  5  1  1  0
  6  8  1  0
  7  6  1  0
  7  8  1  0
  8  9  1  0
  9 13  1  0
 10  9  1  0
 10 11  2  0
 11 12  1  0
 13 12  2  0
 14 15  1  0
 15 22  1  0
 15 18  1  0
 17 16  2  0
 18 17  1  0
 19 18  2  0
 19 20  1  0
 20 21  2  0
 21 16  1  0
  2 23  1  0
  3 24  1  0
  6 25  1  1
  7 26  1  0
  7 27  1  0
  8 28  1  6
 11 29  1  0
 12 30  1  0
 13 31  1  0
 14 32  1  0
 14 33  1  0
 15 34  1  6
 16 35  1  0
 17 36  1  0
 20 37  1  0
 22 38  1  0
 22 39  1  0
 22 40  1  0
M  ISO  8  23  14  24  14  25  13  26  13  27  13  28  13  29  14  30  14
M  ISO  8  31  14  32   8  33   8  34   8  35  14  36  14  37  14  38   8
M  ISO  2  39   8  40   8
M  END
>  <minimizedAffinity>  (1) 
-5.29416943

>  <minimizedRMSD>  (1) 
0.671866417

$$$$
