
     RDKit          3D

 40 43  0  0  1  0  0  0  0  0999 V2000
   38.1780   25.5220   34.4620 N   0  0  0  0  0  0  0  0  0  0  0  0
   37.2380   26.4810   35.0100 C   0  0  0  0  0  0  0  0  0  0  0  0
   37.2420   27.6240   34.0540 C   0  0  0  0  0  0  0  0  0  0  0  0
   38.1710   27.1830   32.9380 C   0  0  0  0  0  0  0  0  0  0  0  0
   37.9920   25.6410   33.0530 C   0  0  2  0  0  0  0  0  0  0  0  0
   37.8330   24.1780   34.8290 C   0  0  0  0  0  0  0  0  0  0  0  0
   39.0000   23.2030   38.3010 C   0  0  0  0  0  0  0  0  0  0  0  0
   38.1700   23.6760   37.2830 C   0  0  0  0  0  0  0  0  0  0  0  0
   38.6720   23.6850   35.9640 C   0  0  0  0  0  0  0  0  0  0  0  0
   39.9450   23.2270   35.7700 N   0  0  0  0  0  0  0  0  0  0  0  0
   40.6990   22.7820   36.7930 C   0  0  0  0  0  0  0  0  0  0  0  0
   40.2180   22.7760   38.0410 N   0  0  0  0  0  0  0  0  0  0  0  0
   36.7560   25.2450   32.6370 O   0  0  0  0  0  0  0  0  0  0  0  0
   36.7580   24.2260   31.7160 C   0  0  2  0  0  0  0  0  0  0  0  0
   35.4700   24.0430   30.9610 C   0  0  0  0  0  0  0  0  0  0  0  0
   35.9450   22.9930   31.9250 C   0  0  1  0  0  0  0  0  0  0  0  0
   36.4030   21.7910   31.2590 N   0  0  0  0  0  0  0  0  0  0  0  0
   35.7140   20.6860   30.9640 N   0  0  0  0  0  0  0  0  0  0  0  0
   36.4600   19.7780   30.3460 C   0  0  0  0  0  0  0  0  0  0  0  0
   37.7090   20.3020   30.2220 C   0  0  0  0  0  0  0  0  0  0  0  0
   37.6570   21.5590   30.7960 C   0  0  0  0  0  0  0  0  0  0  0  0
   36.2328   26.0395   35.0788 H   0  0  0  0  0  0  0  0  0  0  0  0
   37.5174   26.7950   36.0265 H   0  0  0  0  0  0  0  0  0  0  0  0
   36.2295   27.8101   33.6663 H   0  0  0  0  0  0  0  0  0  0  0  0
   37.5703   28.5622   34.5252 H   0  0  0  0  0  0  0  0  0  0  0  0
   39.2107   27.4908   33.1232 H   0  0  0  0  0  0  0  0  0  0  0  0
   37.9502   27.6085   31.9479 H   0  0  0  0  0  0  0  0  0  0  0  0
   38.6594   25.0188   32.4387 H   0  0  0  0  0  0  0  0  0  0  0  0
   36.7750   24.1502   35.1287 H   0  0  0  0  0  0  0  0  0  0  0  0
   38.0124   23.5273   33.9604 H   0  0  0  0  0  0  0  0  0  0  0  0
   38.6305   23.1868   39.3369 H   0  0  0  0  0  0  0  0  0  0  0  0
   37.1527   24.0319   37.5029 H   0  0  0  0  0  0  0  0  0  0  0  0
   41.7198   22.4201   36.6006 H   0  0  0  0  0  0  0  0  0  0  0  0
   37.8214   24.3825   31.4820 H   0  0  0  0  0  0  0  0  0  0  0  0
   34.5941   24.6614   31.2067 H   0  0  0  0  0  0  0  0  0  0  0  0
   35.1781   24.0546   29.9005 H   0  0  0  0  0  0  0  0  0  0  0  0
   35.5515   22.4909   32.8211 H   0  0  0  0  0  0  0  0  0  0  0  0
   36.1298   18.7877   29.9993 H   0  0  0  0  0  0  0  0  0  0  0  0
   38.5839   19.8226   29.7586 H   0  0  0  0  0  0  0  0  0  0  0  0
   38.5007   22.2613   30.8663 H   0  0  0  0  0  0  0  0  0  0  0  0
  1  6  1  0
  1  2  1  0
  3  2  1  0
  4  5  1  0
  4  3  1  0
  5  1  1  0
  6  9  1  0
  8  7  2  0
  9  8  1  0
 10  9  2  0
 10 11  1  0
 11 12  2  0
 12  7  1  0
 13  5  1  0
 14 16  1  0
 14 13  1  0
 15 14  1  0
 15 16  1  0
 17 16  1  0
 18 17  1  0
 19 18  2  0
 20 19  1  0
 20 21  2  0
 21 17  1  0
  2 22  1  0
  2 23  1  0
  3 24  1  0
  3 25  1  0
  4 26  1  0
  4 27  1  0
  5 28  1  6
  6 29  1  0
  6 30  1  0
  7 31  1  0
  8 32  1  0
 11 33  1  0
 14 34  1  6
 15 35  1  0
 15 36  1  0
 16 37  1  1
 19 38  1  0
 20 39  1  0
 21 40  1  0
M  ISO  8  22  13  23  13  24  13  25  13  26  13  27  13  28  13  29   8
M  ISO  8  30   8  31  14  32  14  33  14  34  13  35  13  36  13  37  13
M  ISO  3  38  14  39  14  40  14
M  END
>  <minimizedAffinity>  (1) 
-4.68758059

>  <minimizedRMSD>  (1) 
6.0225625

$$$$
