
     RDKit          3D

 43 47  0  0  0  0  0  0  0  0999 V2000
   38.7820   23.1700   38.0520 C   0  0  0  0  0  0  0  0  0  0  0  0
   38.0060   23.2370   36.8820 C   0  0  0  0  0  0  0  0  0  0  0  0
   38.6460   22.8670   35.6980 C   0  0  0  0  0  0  0  0  0  0  0  0
   39.9180   22.4930   35.8070 N   0  0  0  0  0  0  0  0  0  0  0  0
   40.6600   22.4280   36.9220 C   0  0  0  0  0  0  0  0  0  0  0  0
   40.0420   22.7830   38.0590 N   0  0  0  0  0  0  0  0  0  0  0  0
   42.0120   21.9750   36.6680 C   0  0  0  0  0  0  0  0  0  0  0  0
   42.3290   20.6310   36.6760 C   0  0  0  0  0  0  0  0  0  0  0  0
   43.6030   20.1380   36.4410 C   0  0  0  0  0  0  0  0  0  0  0  0
   44.6380   21.0060   36.1810 C   0  0  0  0  0  0  0  0  0  0  0  0
   44.3640   22.3370   36.1650 C   0  0  0  0  0  0  0  0  0  0  0  0
   45.4110   23.1960   35.9030 C   0  0  0  0  0  0  0  0  0  0  0  0
   45.2230   24.5620   35.8680 C   0  0  0  0  0  0  0  0  0  0  0  0
   43.9320   25.0170   36.1080 C   0  0  0  0  0  0  0  0  0  0  0  0
   42.9200   24.1220   36.3640 C   0  0  0  0  0  0  0  0  0  0  0  0
   43.0830   22.7750   36.4040 C   0  0  0  0  0  0  0  0  0  0  0  0
   37.9570   22.8970   34.4480 N   0  0  0  0  0  0  0  0  0  0  0  0
   37.2150   21.8910   34.0340 C   0  0  0  0  0  0  0  0  0  0  0  0
   36.7190   22.2690   32.8120 C   0  0  0  0  0  0  0  0  0  0  0  0
   37.1690   23.4890   32.5150 N   0  0  0  0  0  0  0  0  0  0  0  0
   37.9500   23.8930   33.5390 C   0  0  0  0  0  0  0  0  0  0  0  0
   38.6290   25.1400   33.6240 N   0  0  0  0  0  0  0  0  0  0  0  0
   38.9030   25.9020   32.5960 N   0  0  0  0  0  0  0  0  0  0  0  0
   39.5560   27.0250   32.9890 C   0  0  0  0  0  0  0  0  0  0  0  0
   39.6860   26.9280   34.3770 C   0  0  0  0  0  0  0  0  0  0  0  0
   39.0880   25.7210   34.7500 C   0  0  0  0  0  0  0  0  0  0  0  0
   35.8210   21.5000   31.9090 C   0  0  0  0  0  0  0  0  0  0  0  0
   34.7510   20.9220   32.5510 F   0  0  0  0  0  0  0  0  0  0  0  0
   36.5360   20.4370   31.3200 F   0  0  0  0  0  0  0  0  0  0  0  0
   35.4390   22.2820   30.8310 F   0  0  0  0  0  0  0  0  0  0  0  0
   38.3158   23.4540   39.0070 H   0  0  0  0  0  0  0  0  0  0  0  0
   36.9553   23.5622   36.8985 H   0  0  0  0  0  0  0  0  0  0  0  0
   41.5239   19.9099   36.8807 H   0  0  0  0  0  0  0  0  0  0  0  0
   43.7862   19.0536   36.4624 H   0  0  0  0  0  0  0  0  0  0  0  0
   45.6559   20.6343   35.9919 H   0  0  0  0  0  0  0  0  0  0  0  0
   46.4142   22.7841   35.7186 H   0  0  0  0  0  0  0  0  0  0  0  0
   46.0517   25.2551   35.6609 H   0  0  0  0  0  0  0  0  0  0  0  0
   43.7191   26.0961   36.0931 H   0  0  0  0  0  0  0  0  0  0  0  0
   41.9127   24.5237   36.5484 H   0  0  0  0  0  0  0  0  0  0  0  0
   37.0307   20.9426   34.5598 H   0  0  0  0  0  0  0  0  0  0  0  0
   39.9105   27.8442   32.3462 H   0  0  0  0  0  0  0  0  0  0  0  0
   40.1652   27.6586   35.0453 H   0  0  0  0  0  0  0  0  0  0  0  0
   39.0072   25.3204   35.7713 H   0  0  0  0  0  0  0  0  0  0  0  0
  1  6  2  0
  2  1  1  0
  3  4  1  0
  3  2  2  0
  4  5  2  0
  5  6  1  0
  7  8  2  0
  7  5  1  0
  9  8  1  0
 10  9  2  0
 11 10  1  0
 11 16  2  0
 12 11  1  0
 13 12  2  0
 13 14  1  0
 14 15  2  0
 15 16  1  0
 16  7  1  0
 17  3  1  0
 18 17  1  0
 19 18  2  0
 20 19  1  0
 20 21  2  0
 21 22  1  0
 21 17  1  0
 22 26  1  0
 23 24  2  0
 23 22  1  0
 24 25  1  0
 25 26  2  0
 27 28  1  0
 27 19  1  0
 29 27  1  0
 30 27  1  0
  1 31  1  0
  2 32  1  0
  8 33  1  0
  9 34  1  0
 10 35  1  0
 12 36  1  0
 13 37  1  0
 14 38  1  0
 15 39  1  0
 18 40  1  0
 24 41  1  0
 25 42  1  0
 26 43  1  0
M  END
>  <minimizedAffinity>  (1) 
-7.02742052

>  <minimizedRMSD>  (1) 
3.830024

$$$$
