
     RDKit          3D

 33 36  0  0  0  0  0  0  0  0999 V2000
   38.9860   23.4320   36.1830 C   0  0  0  0  0  0  0  0  0  0  0  0
   39.4180   24.5440   35.4200 C   0  0  0  0  0  0  0  0  0  0  0  0
   40.6860   24.5480   34.8670 C   0  0  0  0  0  0  0  0  0  0  0  0
   41.4420   23.4470   35.1060 N   0  0  0  0  0  0  0  0  0  0  0  0
   40.9990   22.3800   35.8510 C   0  0  0  0  0  0  0  0  0  0  0  0
   39.7850   22.3990   36.3700 N   0  0  0  0  0  0  0  0  0  0  0  0
   41.9620   21.2690   36.0100 C   0  0  0  0  0  0  0  0  0  0  0  0
   42.2530   20.8870   37.2910 C   0  0  0  0  0  0  0  0  0  0  0  0
   43.4780   19.4900   37.0370 S   0  0  0  0  0  0  0  0  0  0  0  0
   43.3380   19.7270   35.1420 C   0  0  0  0  0  0  0  0  0  0  0  0
   42.6030   20.5710   35.0940 N   0  0  0  0  0  0  0  0  0  0  0  0
   44.0230   18.9810   34.1140 N   0  0  0  0  0  0  0  0  0  0  0  0
   44.8470   17.9760   34.4200 C   0  0  0  0  0  0  0  0  0  0  0  0
   45.3570   17.4460   33.2920 N   0  0  0  0  0  0  0  0  0  0  0  0
   44.8260   18.1510   32.2680 C   0  0  0  0  0  0  0  0  0  0  0  0
   44.0120   19.0850   32.8020 N   0  0  0  0  0  0  0  0  0  0  0  0
   38.6090   25.7170   35.1690 C   0  0  0  0  0  0  0  0  0  0  0  0
   38.5960   26.8520   35.9690 C   0  0  0  0  0  0  0  0  0  0  0  0
   37.7790   27.8650   35.5950 C   0  0  0  0  0  0  0  0  0  0  0  0
   37.0150   27.7080   34.4470 C   0  0  0  0  0  0  0  0  0  0  0  0
   37.4750   26.0100   33.8450 S   0  0  0  0  0  0  0  0  0  0  0  0
   36.0800   28.4870   33.7380 C   0  0  0  0  0  0  0  0  0  0  0  0
   35.8400   28.2820   32.5400 O   0  0  0  0  0  0  0  0  0  0  0  0
   35.3670   29.5620   34.4010 N   0  0  0  0  0  0  0  0  0  0  0  0
   37.9777   23.4295   36.6226 H   0  0  0  0  0  0  0  0  0  0  0  0
   41.0589   25.3929   34.2695 H   0  0  0  0  0  0  0  0  0  0  0  0
   41.8650   21.2972   38.2350 H   0  0  0  0  0  0  0  0  0  0  0  0
   45.0749   17.6327   35.4399 H   0  0  0  0  0  0  0  0  0  0  0  0
   45.0215   17.9924   31.1972 H   0  0  0  0  0  0  0  0  0  0  0  0
   39.2236   26.9251   36.8695 H   0  0  0  0  0  0  0  0  0  0  0  0
   37.7222   28.7904   36.1870 H   0  0  0  0  0  0  0  0  0  0  0  0
   34.6846   30.1277   33.8764 H   0  0  0  0  0  0  0  0  0  0  0  0
   35.5431   29.7597   35.3964 H   0  0  0  0  0  0  0  0  0  0  0  0
  1  6  2  0
  2  1  1  0
  3  4  1  0
  3  2  2  0
  4  5  2  0
  5  7  1  0
  5  6  1  0
  7  8  2  0
  9  8  1  0
 10  9  1  0
 11 10  2  0
 11  7  1  0
 12 13  1  0
 12 10  1  0
 14 13  2  0
 15 16  2  0
 15 14  1  0
 16 12  1  0
 17  2  1  0
 17 18  2  0
 19 18  1  0
 20 19  2  0
 21 20  1  0
 21 17  1  0
 22 24  1  0
 22 20  1  0
 23 22  2  0
  1 25  1  0
  3 26  1  0
  8 27  1  0
 13 28  1  0
 15 29  1  0
 18 30  1  0
 19 31  1  0
 24 32  1  0
 24 33  1  0
M  ISO  7  25  14  26  14  27  14  28  14  29  14  30  14  31  14
M  END
>  <minimizedAffinity>  (1) 
-4.42084408

>  <minimizedRMSD>  (1) 
3.14836979

$$$$
