
     RDKit          3D

 23 24  0  0  0  0  0  0  0  0999 V2000
   39.7940   23.0170   37.1050 C   0  0  0  0  0  0  0  0  0  0  0  0
   39.2940   23.7960   36.0560 C   0  0  0  0  0  0  0  0  0  0  0  0
   38.2330   24.6550   36.3710 C   0  0  0  0  0  0  0  0  0  0  0  0
   37.7500   24.6940   37.6460 N   0  0  0  0  0  0  0  0  0  0  0  0
   38.2780   23.9140   38.6210 C   0  0  0  0  0  0  0  0  0  0  0  0
   39.2980   23.0770   38.3490 N   0  0  0  0  0  0  0  0  0  0  0  0
   40.8780   22.1410   36.7770 N   0  0  0  0  0  0  0  0  0  0  0  0
   41.4760   21.9890   35.5810 C   0  0  0  0  0  0  0  0  0  0  0  0
   42.4500   21.0820   35.6520 N   0  0  0  0  0  0  0  0  0  0  0  0
   42.4720   20.6440   36.9310 C   0  0  0  0  0  0  0  0  0  0  0  0
   41.4910   21.3150   37.5990 N   0  0  0  0  0  0  0  0  0  0  0  0
   37.6320   25.5080   35.3760 N   0  0  0  0  0  0  0  0  0  0  0  0
   38.0780   26.8650   35.2720 C   0  0  0  0  0  0  0  0  0  0  0  0
   38.6260   27.4750   36.2780 N   0  0  0  0  0  0  0  0  0  0  0  0
   37.8900   27.5050   34.0210 N   0  0  0  0  0  0  0  0  0  0  0  0
   38.9760   28.4460   36.2670 H   0  0  0  0  0  0  0  0  0  0  0  0
   39.7110   23.7373   35.0398 H   0  0  0  0  0  0  0  0  0  0  0  0
   37.8707   23.9649   39.6415 H   0  0  0  0  0  0  0  0  0  0  0  0
   41.1987   22.5384   34.6692 H   0  0  0  0  0  0  0  0  0  0  0  0
   43.1523   19.8894   37.3526 H   0  0  0  0  0  0  0  0  0  0  0  0
   36.8959   25.1483   34.7518 H   0  0  0  0  0  0  0  0  0  0  0  0
   38.1925   28.4810   33.8912 H   0  0  0  0  0  0  0  0  0  0  0  0
   37.4509   26.9940   33.2419 H   0  0  0  0  0  0  0  0  0  0  0  0
  1  6  2  0
  2  3  2  0
  2  1  1  0
  3  4  1  0
  4  5  2  0
  6  5  1  0
  7  1  1  0
  7 11  1  0
  8  9  2  0
  8  7  1  0
  9 10  1  0
 10 11  2  0
 12  3  1  0
 13 12  1  0
 13 14  2  0
 15 13  1  0
 16 14  1  0
  2 17  1  0
  5 18  1  0
  8 19  1  0
 10 20  1  0
 12 21  1  0
 15 22  1  0
 15 23  1  0
M  ISO  4  17  14  18  14  19  14  20  14
M  END
>  <minimizedAffinity>  (1) 
-4.60233545

>  <minimizedRMSD>  (1) 
0.880113184

$$$$
