
     RDKit          3D

 44 48  0  0  1  0  0  0  0  0999 V2000
   39.7410   22.9140   37.9630 C   0  0  0  0  0  0  0  0  0  0  0  0
   38.4800   23.2920   38.4420 C   0  0  0  0  0  0  0  0  0  0  0  0
   37.6970   24.0910   37.6150 C   0  0  0  0  0  0  0  0  0  0  0  0
   38.2020   24.4500   36.4070 N   0  0  0  0  0  0  0  0  0  0  0  0
   39.4320   24.0660   35.9700 C   0  0  0  0  0  0  0  0  0  0  0  0
   40.1900   23.2940   36.7680 N   0  0  0  0  0  0  0  0  0  0  0  0
   39.8220   24.5160   34.6900 N   0  0  0  0  0  0  0  0  0  0  0  0
   38.8770   24.4240   33.6010 C   0  0  0  0  0  0  0  0  0  0  0  0
   39.3370   25.1100   32.3500 C   0  0  0  0  0  0  0  0  0  0  0  0
   40.2130   26.1870   32.6950 N   0  0  0  0  0  0  0  0  0  0  0  0
   41.4480   25.5640   33.1700 C   0  0  0  0  0  0  0  0  0  0  0  0
   41.1850   25.0500   34.5830 C   0  0  2  0  0  0  0  0  0  0  0  0
   42.1880   24.0490   35.0260 C   0  0  0  0  0  0  0  0  0  0  0  0
   43.1350   24.3940   35.9600 C   0  0  0  0  0  0  0  0  0  0  0  0
   44.1140   23.5630   36.4570 C   0  0  0  0  0  0  0  0  0  0  0  0
   44.1150   22.2640   35.9470 C   0  0  0  0  0  0  0  0  0  0  0  0
   43.1580   21.9320   35.0110 C   0  0  0  0  0  0  0  0  0  0  0  0
   42.2310   22.7930   34.5690 N   0  0  0  0  0  0  0  0  0  0  0  0
   43.2460   20.5860   34.5560 N   0  0  0  0  0  0  0  0  0  0  0  0
   43.3950   20.1590   33.2980 C   0  0  0  0  0  0  0  0  0  0  0  0
   43.4380   18.8130   33.2430 N   0  0  0  0  0  0  0  0  0  0  0  0
   43.3150   18.3560   34.4900 C   0  0  0  0  0  0  0  0  0  0  0  0
   43.2980   17.0560   34.9740 C   0  0  0  0  0  0  0  0  0  0  0  0
   43.1550   16.9430   36.3210 N   0  0  0  0  0  0  0  0  0  0  0  0
   43.0360   18.0110   37.1350 C   0  0  0  0  0  0  0  0  0  0  0  0
   43.0540   19.2840   36.6500 N   0  0  0  0  0  0  0  0  0  0  0  0
   43.1940   19.4730   35.3140 C   0  0  0  0  0  0  0  0  0  0  0  0
   40.3820   22.2820   38.5952 H   0  0  0  0  0  0  0  0  0  0  0  0
   38.1235   22.9702   39.4316 H   0  0  0  0  0  0  0  0  0  0  0  0
   36.6969   24.4226   37.9310 H   0  0  0  0  0  0  0  0  0  0  0  0
   38.7102   23.3607   33.3737 H   0  0  0  0  0  0  0  0  0  0  0  0
   37.9568   24.9303   33.9278 H   0  0  0  0  0  0  0  0  0  0  0  0
   38.4661   25.5047   31.8062 H   0  0  0  0  0  0  0  0  0  0  0  0
   39.8712   24.3912   31.7113 H   0  0  0  0  0  0  0  0  0  0  0  0
   40.4021   26.7732   31.8695 H   0  0  0  0  0  0  0  0  0  0  0  0
   41.7250   24.7279   32.5111 H   0  0  0  0  0  0  0  0  0  0  0  0
   42.2750   26.2893   33.1679 H   0  0  0  0  0  0  0  0  0  0  0  0
   41.2840   25.9094   35.2624 H   0  0  0  0  0  0  0  0  0  0  0  0
   43.1087   25.4243   36.3443 H   0  0  0  0  0  0  0  0  0  0  0  0
   44.8460   23.9003   37.2056 H   0  0  0  0  0  0  0  0  0  0  0  0
   44.8582   21.5256   36.2821 H   0  0  0  0  0  0  0  0  0  0  0  0
   43.4724   20.8199   32.4221 H   0  0  0  0  0  0  0  0  0  0  0  0
   43.3933   16.1801   34.3154 H   0  0  0  0  0  0  0  0  0  0  0  0
   42.9216   17.8507   38.2172 H   0  0  0  0  0  0  0  0  0  0  0  0
  1  2  2  0
  3  2  1  0
  4  3  2  0
  5  4  1  0
  5  6  2  0
  6  1  1  0
  7  5  1  0
  8  7  1  0
  9 10  1  0
  9  8  1  0
 10 11  1  0
 11 12  1  0
 12  7  1  0
 12 13  1  0
 13 14  2  0
 14 15  1  0
 16 15  2  0
 17 16  1  0
 18 17  2  0
 18 13  1  0
 19 17  1  0
 19 27  1  0
 20 19  1  0
 21 20  2  0
 21 22  1  0
 22 23  2  0
 22 27  1  0
 23 24  1  0
 24 25  2  0
 26 25  1  0
 27 26  2  0
  1 28  1  0
  2 29  1  0
  3 30  1  0
  8 31  1  0
  8 32  1  0
  9 33  1  0
  9 34  1  0
 10 35  1  0
 11 36  1  0
 11 37  1  0
 12 38  1  1
 14 39  1  0
 15 40  1  0
 16 41  1  0
 20 42  1  0
 23 43  1  0
 25 44  1  0
M  ISO  8  28  14  29  14  30  14  31  13  32  13  33  13  34  13  35   5
M  ISO  8  36  13  37  13  38  13  39  14  40  14  41  14  42  14  43  14
M  ISO  1  44  14
M  END
>  <minimizedAffinity>  (1) 
-5.20307016

>  <minimizedRMSD>  (1) 
1.57448828

$$$$
