
     RDKit          3D

 33 35  0  0  1  0  0  0  0  0999 V2000
   38.2130   24.4430   36.8980 C   0  0  1  0  0  0  0  0  0  0  0  0
   40.9820   21.9360   37.4180 C   0  0  0  0  0  0  0  0  0  0  0  0
   39.9680   22.8770   37.6800 C   0  0  0  0  0  0  0  0  0  0  0  0
   39.2780   23.4880   36.6060 C   0  0  0  0  0  0  0  0  0  0  0  0
   39.6170   23.1490   35.3350 N   0  0  0  0  0  0  0  0  0  0  0  0
   40.6090   22.2300   35.1180 C   0  0  0  0  0  0  0  0  0  0  0  0
   41.2820   21.6320   36.1550 N   0  0  0  0  0  0  0  0  0  0  0  0
   37.7330   24.4000   38.3390 C   0  0  0  0  0  0  0  0  0  0  0  0
   38.5680   25.8620   36.5530 C   0  0  0  0  0  0  0  0  0  0  0  0
   38.4440   26.1900   35.1130 C   0  0  0  0  0  0  0  0  0  0  0  0
   37.1960   26.1130   34.5740 N   0  0  0  0  0  0  0  0  0  0  0  0
   36.9070   26.3930   33.3050 C   0  0  0  0  0  0  0  0  0  0  0  0
   37.9060   26.7790   32.4820 N   0  0  0  0  0  0  0  0  0  0  0  0
   39.1610   26.8740   32.9530 C   0  0  0  0  0  0  0  0  0  0  0  0
   40.1810   27.2620   32.1100 C   0  0  0  0  0  0  0  0  0  0  0  0
   41.4740   27.3500   32.6100 C   0  0  0  0  0  0  0  0  0  0  0  0
   41.7330   27.0460   33.9520 C   0  0  0  0  0  0  0  0  0  0  0  0
   40.7130   26.6570   34.7960 C   0  0  0  0  0  0  0  0  0  0  0  0
   39.4570   26.5840   34.2690 C   0  0  0  0  0  0  0  0  0  0  0  0
   37.3931   24.1127   36.2433 H   0  0  0  0  0  0  0  0  0  0  0  0
   41.5217   21.4561   38.2477 H   0  0  0  0  0  0  0  0  0  0  0  0
   39.7125   23.1369   38.7179 H   0  0  0  0  0  0  0  0  0  0  0  0
   40.8741   21.9634   34.0842 H   0  0  0  0  0  0  0  0  0  0  0  0
   38.5968   24.4774   39.0157 H   0  0  0  0  0  0  0  0  0  0  0  0
   37.0472   25.2403   38.5223 H   0  0  0  0  0  0  0  0  0  0  0  0
   37.2075   23.4512   38.5223 H   0  0  0  0  0  0  0  0  0  0  0  0
   37.9011   26.5306   37.1171 H   0  0  0  0  0  0  0  0  0  0  0  0
   39.6281   25.9937   36.8154 H   0  0  0  0  0  0  0  0  0  0  0  0
   35.8747   26.3116   32.9339 H   0  0  0  0  0  0  0  0  0  0  0  0
   39.9736   27.4986   31.0560 H   0  0  0  0  0  0  0  0  0  0  0  0
   42.2972   27.6596   31.9494 H   0  0  0  0  0  0  0  0  0  0  0  0
   42.7607   27.1180   34.3376 H   0  0  0  0  0  0  0  0  0  0  0  0
   40.9051   26.4154   35.8518 H   0  0  0  0  0  0  0  0  0  0  0  0
  1  8  1  0
  2  3  2  0
  4  1  1  0
  4  3  1  0
  5  4  2  0
  6  5  1  0
  6  7  2  0
  7  2  1  0
  9  1  1  0
 10  9  1  0
 11 10  2  0
 12 11  1  0
 13 14  1  0
 13 12  2  0
 14 19  2  0
 15 16  2  0
 15 14  1  0
 16 17  1  0
 17 18  2  0
 19 18  1  0
 19 10  1  0
  1 20  1  6
  2 21  1  0
  3 22  1  0
  6 23  1  0
  8 24  1  0
  8 25  1  0
  8 26  1  0
  9 27  1  0
  9 28  1  0
 12 29  1  0
 15 30  1  0
 16 31  1  0
 17 32  1  0
 18 33  1  0
M  ISO  8  20   8  21  14  22  14  23  14  24   8  25   8  26   8  27   8
M  ISO  6  28   8  29  14  30  14  31  14  32  14  33  14
M  END
>  <minimizedAffinity>  (1) 
-4.93839025

>  <minimizedRMSD>  (1) 
1.43993938

$$$$
