
     RDKit          3D

 37 40  0  0  1  0  0  0  0  0999 V2000
   39.9180   26.8600   33.6220 C   0  0  0  0  0  0  0  0  0  0  0  0
   39.6580   25.7690   34.4870 N   0  0  0  0  0  0  0  0  0  0  0  0
   38.5710   25.2830   35.1180 C   0  0  0  0  0  0  0  0  0  0  0  0
   38.8120   24.1600   35.8710 C   0  0  0  0  0  0  0  0  0  0  0  0
   40.1240   23.9400   35.6970 N   0  0  0  0  0  0  0  0  0  0  0  0
   40.6230   24.8950   34.8770 C   0  0  0  0  0  0  0  0  0  0  0  0
   42.0020   24.9090   34.5160 N   0  0  0  0  0  0  0  0  0  0  0  0
   42.3400   25.1560   33.2340 C   0  0  0  0  0  0  0  0  0  0  0  0
   43.6800   25.1200   33.1250 N   0  0  0  0  0  0  0  0  0  0  0  0
   44.2140   24.8510   34.3300 C   0  0  0  0  0  0  0  0  0  0  0  0
   45.4670   24.6820   34.8950 C   0  0  0  0  0  0  0  0  0  0  0  0
   45.6460   24.4080   36.2020 N   0  0  0  0  0  0  0  0  0  0  0  0
   44.5460   24.2990   36.9730 C   0  0  0  0  0  0  0  0  0  0  0  0
   43.2720   24.4490   36.5080 N   0  0  0  0  0  0  0  0  0  0  0  0
   43.1480   24.7210   35.1980 C   0  0  0  0  0  0  0  0  0  0  0  0
   39.4330   26.6170   32.2220 C   0  0  1  0  0  0  0  0  0  0  0  0
   35.8240   26.4810   31.0840 C   0  0  0  0  0  0  0  0  0  0  0  0
   37.1750   26.1230   31.1820 C   0  0  0  0  0  0  0  0  0  0  0  0
   37.9830   26.9080   32.0620 C   0  0  0  0  0  0  0  0  0  0  0  0
   37.4050   27.9480   32.7500 N   0  0  0  0  0  0  0  0  0  0  0  0
   36.1200   28.2510   32.6260 C   0  0  0  0  0  0  0  0  0  0  0  0
   35.3160   27.5100   31.7840 N   0  0  0  0  0  0  0  0  0  0  0  0
   40.2600   27.4030   31.2370 C   0  0  0  0  0  0  0  0  0  0  0  0
   39.4129   27.7526   34.0196 H   0  0  0  0  0  0  0  0  0  0  0  0
   41.0086   26.9962   33.5772 H   0  0  0  0  0  0  0  0  0  0  0  0
   37.5764   25.7458   35.0370 H   0  0  0  0  0  0  0  0  0  0  0  0
   38.0986   23.5788   36.4737 H   0  0  0  0  0  0  0  0  0  0  0  0
   41.6356   25.3543   32.4127 H   0  0  0  0  0  0  0  0  0  0  0  0
   46.3530   24.7753   34.2499 H   0  0  0  0  0  0  0  0  0  0  0  0
   44.6835   24.0757   38.0413 H   0  0  0  0  0  0  0  0  0  0  0  0
   39.5588   25.5444   32.0128 H   0  0  0  0  0  0  0  0  0  0  0  0
   35.1632   25.9063   30.4183 H   0  0  0  0  0  0  0  0  0  0  0  0
   37.5927   25.2808   30.6109 H   0  0  0  0  0  0  0  0  0  0  0  0
   35.6954   29.0921   33.1937 H   0  0  0  0  0  0  0  0  0  0  0  0
   40.9524   28.0611   31.7824 H   0  0  0  0  0  0  0  0  0  0  0  0
   40.8343   26.7097   30.6049 H   0  0  0  0  0  0  0  0  0  0  0  0
   39.5968   28.0118   30.6049 H   0  0  0  0  0  0  0  0  0  0  0  0
  1  2  1  0
  2  6  1  0
  2  3  1  0
  3  4  2  0
  5  4  1  0
  6  5  2  0
  7  6  1  0
  7 15  1  0
  8  7  1  0
  9  8  2  0
  9 10  1  0
 10 11  2  0
 10 15  1  0
 11 12  1  0
 12 13  2  0
 14 13  1  0
 15 14  2  0
 16  1  1  0
 17 18  2  0
 17 22  1  0
 18 19  1  0
 19 16  1  0
 19 20  2  0
 21 20  1  0
 22 21  2  0
 23 16  1  0
  1 24  1  0
  1 25  1  0
  3 26  1  0
  4 27  1  0
  8 28  1  0
 11 29  1  0
 13 30  1  0
 16 31  1  6
 17 32  1  0
 18 33  1  0
 21 34  1  0
 23 35  1  0
 23 36  1  0
 23 37  1  0
M  ISO  8  24   8  25   8  26  14  27  14  28  14  29  14  30  14  31   8
M  ISO  6  32  14  33  14  34  14  35   8  36   8  37   8
M  END
>  <minimizedAffinity>  (1) 
-4.0302124

>  <minimizedRMSD>  (1) 
7.4568162

$$$$
