
     RDKit          3D

 41 46  0  0  0  0  0  0  0  0999 V2000
   40.0010   22.9360   37.3670 C   0  0  0  0  0  0  0  0  0  0  0  0
   39.1870   23.1050   38.5130 C   0  0  0  0  0  0  0  0  0  0  0  0
   37.9380   23.7040   38.3090 C   0  0  0  0  0  0  0  0  0  0  0  0
   37.5640   24.0880   37.0660 N   0  0  0  0  0  0  0  0  0  0  0  0
   38.3790   23.9050   35.9990 C   0  0  0  0  0  0  0  0  0  0  0  0
   39.5900   23.3330   36.1460 N   0  0  0  0  0  0  0  0  0  0  0  0
   38.0190   24.2950   34.6890 N   0  0  0  0  0  0  0  0  0  0  0  0
   38.1430   23.4340   33.6450 C   0  0  0  0  0  0  0  0  0  0  0  0
   37.7220   24.0910   32.5270 N   0  0  0  0  0  0  0  0  0  0  0  0
   37.3410   25.3280   32.8380 C   0  0  0  0  0  0  0  0  0  0  0  0
   36.8350   26.4640   32.2040 C   0  0  0  0  0  0  0  0  0  0  0  0
   36.6620   26.3510   30.9650 O   0  0  0  0  0  0  0  0  0  0  0  0
   36.5580   27.5950   32.9110 N   0  0  0  0  0  0  0  0  0  0  0  0
   36.7590   27.6580   34.2230 C   0  0  0  0  0  0  0  0  0  0  0  0
   36.4160   28.9180   34.8000 N   0  0  0  0  0  0  0  0  0  0  0  0
   37.2500   26.5730   34.8690 N   0  0  0  0  0  0  0  0  0  0  0  0
   37.5280   25.4620   34.2080 C   0  0  0  0  0  0  0  0  0  0  0  0
   36.0310   28.7590   32.2200 C   0  0  0  0  0  0  0  0  0  0  0  0
   36.8320   29.5200   31.3440 C   0  0  0  0  0  0  0  0  0  0  0  0
   35.6780   30.8390   30.7690 S   0  0  0  0  0  0  0  0  0  0  0  0
   34.2890   30.1210   31.8310 C   0  0  0  0  0  0  0  0  0  0  0  0
   34.7960   29.2330   32.3190 N   0  0  0  0  0  0  0  0  0  0  0  0
   32.9210   30.5900   31.9840 N   0  0  0  0  0  0  0  0  0  0  0  0
   32.3730   31.5350   31.2310 C   0  0  0  0  0  0  0  0  0  0  0  0
   31.0860   31.7260   31.6450 N   0  0  0  0  0  0  0  0  0  0  0  0
   30.8380   30.8830   32.6680 C   0  0  0  0  0  0  0  0  0  0  0  0
   29.7350   30.6320   33.4660 C   0  0  0  0  0  0  0  0  0  0  0  0
   29.8400   29.6930   34.4240 N   0  0  0  0  0  0  0  0  0  0  0  0
   30.9820   28.9800   34.6420 C   0  0  0  0  0  0  0  0  0  0  0  0
   32.0520   29.2370   33.8540 N   0  0  0  0  0  0  0  0  0  0  0  0
   32.0100   30.1650   32.8780 C   0  0  0  0  0  0  0  0  0  0  0  0
   40.9915   22.4701   37.4754 H   0  0  0  0  0  0  0  0  0  0  0  0
   39.5184   22.7827   39.5111 H   0  0  0  0  0  0  0  0  0  0  0  0
   37.2596   23.8628   39.1602 H   0  0  0  0  0  0  0  0  0  0  0  0
   38.5140   22.3996   33.6930 H   0  0  0  0  0  0  0  0  0  0  0  0
   36.5346   29.0705   35.8117 H   0  0  0  0  0  0  0  0  0  0  0  0
   36.0499   29.6745   34.2046 H   0  0  0  0  0  0  0  0  0  0  0  0
   37.8862   29.3651   31.0707 H   0  0  0  0  0  0  0  0  0  0  0  0
   32.8714   32.0736   30.4116 H   0  0  0  0  0  0  0  0  0  0  0  0
   28.7961   31.1864   33.3205 H   0  0  0  0  0  0  0  0  0  0  0  0
   31.0320   28.2188   35.4345 H   0  0  0  0  0  0  0  0  0  0  0  0
  1  2  2  0
  3  2  1  0
  4  3  2  0
  5  6  2  0
  5  4  1  0
  6  1  1  0
  7  5  1  0
  8  7  1  0
  9 10  1  0
  9  8  2  0
 10 17  2  0
 11 10  1  0
 11 13  1  0
 12 11  2  0
 13 14  1  0
 14 15  1  0
 14 16  2  0
 17  7  1  0
 17 16  1  0
 18 22  1  0
 18 13  1  0
 19 18  2  0
 20 19  1  0
 20 21  1  0
 21 23  1  0
 21 22  2  0
 23 31  1  0
 24 25  2  0
 24 23  1  0
 25 26  1  0
 26 31  2  0
 26 27  1  0
 27 28  2  0
 28 29  1  0
 30 29  2  0
 31 30  1  0
  1 32  1  0
  2 33  1  0
  3 34  1  0
  8 35  1  0
 15 36  1  0
 15 37  1  0
 19 38  1  0
 24 39  1  0
 27 40  1  0
 29 41  1  0
M  END
>  <minimizedAffinity>  (1) 
-7.25947571

>  <minimizedRMSD>  (1) 
0.162486389

$$$$
