
     RDKit          3D

 40 43  0  0  1  0  0  0  0  0999 V2000
   38.7810   24.9150   34.4060 N   0  0  0  0  0  0  0  0  0  0  0  0
   39.7190   25.8650   33.8520 C   0  0  1  0  0  0  0  0  0  0  0  0
   39.0550   27.2400   33.7390 C   0  0  0  0  0  0  0  0  0  0  0  0
   37.6870   27.1080   33.9240 O   0  0  0  0  0  0  0  0  0  0  0  0
   37.1950   26.1400   33.0460 C   0  0  0  0  0  0  0  0  0  0  0  0
   37.6210   24.7800   33.5750 C   0  0  0  0  0  0  0  0  0  0  0  0
   38.5890   23.6050   37.9140 C   0  0  0  0  0  0  0  0  0  0  0  0
   38.2640   24.3680   36.7850 C   0  0  0  0  0  0  0  0  0  0  0  0
   38.9890   24.2240   35.6060 C   0  0  0  0  0  0  0  0  0  0  0  0
   39.9780   23.3280   35.6540 N   0  0  0  0  0  0  0  0  0  0  0  0
   40.3150   22.5930   36.6930 C   0  0  0  0  0  0  0  0  0  0  0  0
   39.6050   22.7360   37.8470 N   0  0  0  0  0  0  0  0  0  0  0  0
   41.3840   21.6510   36.6850 N   0  0  0  0  0  0  0  0  0  0  0  0
   41.8930   21.0220   37.7620 C   0  0  0  0  0  0  0  0  0  0  0  0
   42.8800   20.2290   37.3000 N   0  0  0  0  0  0  0  0  0  0  0  0
   42.9860   20.3580   35.9640 C   0  0  0  0  0  0  0  0  0  0  0  0
   43.8580   19.7390   35.0640 C   0  0  0  0  0  0  0  0  0  0  0  0
   43.7270   20.0730   33.7640 N   0  0  0  0  0  0  0  0  0  0  0  0
   42.8000   20.9600   33.3490 C   0  0  0  0  0  0  0  0  0  0  0  0
   41.9690   21.5440   34.2380 N   0  0  0  0  0  0  0  0  0  0  0  0
   42.0170   21.2820   35.5560 C   0  0  0  0  0  0  0  0  0  0  0  0
   40.7690   26.0620   34.8180 N   0  0  0  0  0  0  0  0  0  0  0  0
   42.1110   25.8080   34.4170 C   0  0  0  0  0  0  0  0  0  0  0  0
   42.2770   25.6940   33.1270 N   0  0  0  0  0  0  0  0  0  0  0  0
   43.1290   25.6790   35.1750 O   0  0  0  0  0  0  0  0  0  0  0  0
   40.0700   25.4903   32.8792 H   0  0  0  0  0  0  0  0  0  0  0  0
   39.4663   27.9104   34.5081 H   0  0  0  0  0  0  0  0  0  0  0  0
   39.2518   27.6620   32.7424 H   0  0  0  0  0  0  0  0  0  0  0  0
   37.6122   26.2988   32.0407 H   0  0  0  0  0  0  0  0  0  0  0  0
   36.0988   26.2018   32.9780 H   0  0  0  0  0  0  0  0  0  0  0  0
   36.8000   24.3456   34.1643 H   0  0  0  0  0  0  0  0  0  0  0  0
   37.8613   24.1231   32.7260 H   0  0  0  0  0  0  0  0  0  0  0  0
   38.0154   23.7188   38.8457 H   0  0  0  0  0  0  0  0  0  0  0  0
   37.4310   25.0850   36.8307 H   0  0  0  0  0  0  0  0  0  0  0  0
   41.5687   21.1331   38.8072 H   0  0  0  0  0  0  0  0  0  0  0  0
   44.6145   19.0145   35.3998 H   0  0  0  0  0  0  0  0  0  0  0  0
   42.7206   21.2089   32.2805 H   0  0  0  0  0  0  0  0  0  0  0  0
   40.5544   26.3785   35.7744 H   0  0  0  0  0  0  0  0  0  0  0  0
   43.2147   25.5096   32.7427 H   0  0  0  0  0  0  0  0  0  0  0  0
   41.4703   25.7885   32.4936 H   0  0  0  0  0  0  0  0  0  0  0  0
  1  9  1  0
  2  1  1  0
  2 22  1  0
  3  2  1  0
  3  4  1  0
  5  6  1  0
  5  4  1  0
  6  1  1  0
  8  7  2  0
  9 10  2  0
  9  8  1  0
 10 11  1  0
 11 12  2  0
 12  7  1  0
 13 11  1  0
 13 14  1  0
 15 14  2  0
 16 15  1  0
 17 16  2  0
 18 17  1  0
 19 18  2  0
 19 20  1  0
 20 21  2  0
 21 16  1  0
 21 13  1  0
 23 22  1  0
 23 25  2  0
 24 23  1  0
  2 26  1  6
  3 27  1  0
  3 28  1  0
  5 29  1  0
  5 30  1  0
  6 31  1  0
  6 32  1  0
  7 33  1  0
  8 34  1  0
 14 35  1  0
 17 36  1  0
 19 37  1  0
 22 38  1  0
 24 39  1  0
 24 40  1  0
M  ISO  8  26  13  27  13  28  13  29  13  30  13  31  13  32  13  33  14
M  ISO  4  34  14  35  14  36  14  37  14
M  END
>  <minimizedAffinity>  (1) 
-4.72171593

>  <minimizedRMSD>  (1) 
0.988720775

$$$$
