
     RDKit          3D

 17 18  0  0  0  0  0  0  0  0999 V2000
   39.9560   22.7000   37.7160 C   0  0  0  0  0  0  0  0  0  0  0  0
   39.0640   23.3350   38.5860 C   0  0  0  0  0  0  0  0  0  0  0  0
   37.7550   23.5590   38.1280 C   0  0  0  0  0  0  0  0  0  0  0  0
   37.4490   23.1450   36.8780 N   0  0  0  0  0  0  0  0  0  0  0  0
   38.3190   22.5380   36.0600 C   0  0  0  0  0  0  0  0  0  0  0  0
   39.5880   22.3110   36.4790 N   0  0  0  0  0  0  0  0  0  0  0  0
   37.9950   22.1030   34.7420 N   0  0  0  0  0  0  0  0  0  0  0  0
   38.5510   22.1390   33.5120 C   0  0  0  0  0  0  0  0  0  0  0  0
   37.7170   21.5320   32.6460 N   0  0  0  0  0  0  0  0  0  0  0  0
   36.6480   21.1210   33.3420 C   0  0  0  0  0  0  0  0  0  0  0  0
   36.8240   21.4690   34.6100 N   0  0  0  0  0  0  0  0  0  0  0  0
   35.2270   20.2480   32.6630 S   0  0  0  0  0  0  0  0  0  0  0  0
   40.9870   22.5127   38.0506 H   0  0  0  0  0  0  0  0  0  0  0  0
   39.3763   23.6480   39.5932 H   0  0  0  0  0  0  0  0  0  0  0  0
   37.0058   24.0536   38.7637 H   0  0  0  0  0  0  0  0  0  0  0  0
   39.5226   22.5888   33.2595 H   0  0  0  0  0  0  0  0  0  0  0  0
   34.4516   19.7716   33.6871 H   0  0  0  0  0  0  0  0  0  0  0  0
  1  2  2  0
  3  2  1  0
  4  3  2  0
  5  6  2  0
  5  4  1  0
  6  1  1  0
  7  5  1  0
  8  7  1  0
  9 10  1  0
  9  8  2  0
 10 11  2  0
 11  7  1  0
 12 10  1  0
  1 13  1  0
  2 14  1  0
  3 15  1  0
  8 16  1  0
 12 17  1  0
M  ISO  5  13  14  14  14  15  14  16  14  17  11
M  END
>  <minimizedAffinity>  (1) 
-3.81209755

>  <minimizedRMSD>  (1) 
0.975496054

$$$$
