
     RDKit          3D

 37 39  0  0  0  0  0  0  0  0999 V2000
   38.6250   23.8540   31.7840 C   0  0  0  0  0  0  0  0  0  0  0  0
   37.5970   23.2300   32.4440 C   0  0  0  0  0  0  0  0  0  0  0  0
   37.7040   23.1470   33.8210 C   0  0  0  0  0  0  0  0  0  0  0  0
   38.7610   23.6470   34.5310 C   0  0  0  0  0  0  0  0  0  0  0  0
   39.7760   24.2700   33.8100 C   0  0  0  0  0  0  0  0  0  0  0  0
   39.7380   24.3910   32.4240 C   0  0  0  0  0  0  0  0  0  0  0  0
   39.8370   22.8220   37.9390 C   0  0  0  0  0  0  0  0  0  0  0  0
   38.8430   23.4100   38.7270 C   0  0  0  0  0  0  0  0  0  0  0  0
   37.8210   24.0780   38.0730 C   0  0  0  0  0  0  0  0  0  0  0  0
   37.8380   24.1280   36.7200 N   0  0  0  0  0  0  0  0  0  0  0  0
   38.8330   23.5370   35.9850 C   0  0  0  0  0  0  0  0  0  0  0  0
   39.8330   22.8840   36.5800 N   0  0  0  0  0  0  0  0  0  0  0  0
   38.5250   23.9760   30.0560 S   0  0  0  0  0  0  0  0  0  0  0  0
   39.2370   25.1950   29.5170 O   0  0  0  0  0  0  0  0  0  0  0  0
   39.0520   22.7060   29.4800 O   0  0  0  0  0  0  0  0  0  0  0  0
   36.1710   22.5380   31.6620 S   0  0  0  0  0  0  0  0  0  0  0  0
   36.0600   18.0170   32.0210 C   0  0  0  0  0  0  0  0  0  0  0  0
   35.3600   18.7780   32.9430 C   0  0  0  0  0  0  0  0  0  0  0  0
   35.3800   20.1470   32.8520 C   0  0  0  0  0  0  0  0  0  0  0  0
   36.0880   20.7650   31.8560 C   0  0  0  0  0  0  0  0  0  0  0  0
   36.7840   19.9960   30.9380 C   0  0  0  0  0  0  0  0  0  0  0  0
   36.7660   18.6160   31.0280 C   0  0  0  0  0  0  0  0  0  0  0  0
   36.1180   16.2540   32.0220 S   0  0  0  0  0  0  0  0  0  0  0  0
   34.9980   15.7140   32.8630 O   0  0  0  0  0  0  0  0  0  0  0  0
   36.0440   15.8100   30.5970 O   0  0  0  0  0  0  0  0  0  0  0  0
   36.8938   22.6512   34.3758 H   0  0  0  0  0  0  0  0  0  0  0  0
   40.6385   24.6812   34.3550 H   0  0  0  0  0  0  0  0  0  0  0  0
   40.5454   24.8852   31.8638 H   0  0  0  0  0  0  0  0  0  0  0  0
   40.6573   22.2864   38.4392 H   0  0  0  0  0  0  0  0  0  0  0  0
   38.8715   23.3446   39.8247 H   0  0  0  0  0  0  0  0  0  0  0  0
   37.0113   24.5585   38.6417 H   0  0  0  0  0  0  0  0  0  0  0  0
   37.2183   24.1471   29.6816 H   0  0  0  0  0  0  0  0  0  0  0  0
   34.7901   18.2865   33.7453 H   0  0  0  0  0  0  0  0  0  0  0  0
   34.8239   20.7517   33.5835 H   0  0  0  0  0  0  0  0  0  0  0  0
   37.3535   20.4850   30.1339 H   0  0  0  0  0  0  0  0  0  0  0  0
   37.3207   18.0070   30.2990 H   0  0  0  0  0  0  0  0  0  0  0  0
   37.2771   15.7747   32.5730 H   0  0  0  0  0  0  0  0  0  0  0  0
  1  6  2  0
  1  2  1  0
  2  3  2  0
  3  4  1  0
  4 11  1  0
  5  4  2  0
  6  5  1  0
  7  8  2  0
  9  8  1  0
 10  9  2  0
 11 12  2  0
 11 10  1  0
 12  7  1  0
 13  1  1  0
 14 13  2  0
 15 13  2  0
 16 20  1  0
 16  2  1  0
 17 23  1  0
 17 18  2  0
 19 18  1  0
 20 19  2  0
 21 22  2  0
 21 20  1  0
 22 17  1  0
 23 24  2  0
 25 23  2  0
  3 26  1  0
  5 27  1  0
  6 28  1  0
  7 29  1  0
  8 30  1  0
  9 31  1  0
 13 32  1  0
 18 33  1  0
 19 34  1  0
 21 35  1  0
 22 36  1  0
 23 37  1  0
M  ISO  8  26  14  27  14  28  14  29  14  30  14  31  14  32  11  33  14
M  ISO  4  34  14  35  14  36  14  37  11
M  END
>  <minimizedAffinity>  (1) 
-5.17501688

>  <minimizedRMSD>  (1) 
2.65710616

$$$$
