
     RDKit          3D

 28 30  0  0  0  0  0  0  0  0999 V2000
   39.0080   23.3920   36.1360 C   0  0  0  0  0  0  0  0  0  0  0  0
   39.4270   24.5210   35.4310 C   0  0  0  0  0  0  0  0  0  0  0  0
   40.7280   24.5660   34.9100 C   0  0  0  0  0  0  0  0  0  0  0  0
   41.5060   23.4740   35.1390 N   0  0  0  0  0  0  0  0  0  0  0  0
   41.0480   22.3740   35.8440 C   0  0  0  0  0  0  0  0  0  0  0  0
   39.8130   22.3700   36.3200 N   0  0  0  0  0  0  0  0  0  0  0  0
   38.6180   25.6950   35.1780 C   0  0  0  0  0  0  0  0  0  0  0  0
   38.6040   26.8320   35.9790 C   0  0  0  0  0  0  0  0  0  0  0  0
   37.7840   27.8390   35.5860 C   0  0  0  0  0  0  0  0  0  0  0  0
   37.0240   27.6810   34.4350 C   0  0  0  0  0  0  0  0  0  0  0  0
   37.4880   25.9730   33.8330 S   0  0  0  0  0  0  0  0  0  0  0  0
   36.0950   28.4630   33.7280 C   0  0  0  0  0  0  0  0  0  0  0  0
   35.8660   28.2620   32.5270 O   0  0  0  0  0  0  0  0  0  0  0  0
   35.3760   29.5330   34.3940 N   0  0  0  0  0  0  0  0  0  0  0  0
   42.0080   21.2710   36.0050 C   0  0  0  0  0  0  0  0  0  0  0  0
   42.2490   20.8620   37.2890 C   0  0  0  0  0  0  0  0  0  0  0  0
   43.4970   19.4710   37.0470 S   0  0  0  0  0  0  0  0  0  0  0  0
   43.4230   19.7520   35.1720 C   0  0  0  0  0  0  0  0  0  0  0  0
   42.6870   20.5940   35.1110 N   0  0  0  0  0  0  0  0  0  0  0  0
   44.3110   18.8860   33.8330 S   0  0  0  0  0  0  0  0  0  0  0  0
   37.9872   23.3571   36.5443 H   0  0  0  0  0  0  0  0  0  0  0  0
   41.0987   25.4357   34.3476 H   0  0  0  0  0  0  0  0  0  0  0  0
   39.2250   26.9107   36.8835 H   0  0  0  0  0  0  0  0  0  0  0  0
   37.7222   28.7682   36.1715 H   0  0  0  0  0  0  0  0  0  0  0  0
   34.6966   30.1018   33.8688 H   0  0  0  0  0  0  0  0  0  0  0  0
   35.5450   29.7238   35.3920 H   0  0  0  0  0  0  0  0  0  0  0  0
   41.8217   21.2482   38.2262 H   0  0  0  0  0  0  0  0  0  0  0  0
   45.2116   18.0078   34.3758 H   0  0  0  0  0  0  0  0  0  0  0  0
  1  6  2  0
  2  1  1  0
  3  4  1  0
  3  2  2  0
  4  5  2  0
  5 15  1  0
  5  6  1  0
  7  2  1  0
  7  8  2  0
  9  8  1  0
 10  9  2  0
 11 10  1  0
 11  7  1  0
 12 14  1  0
 12 10  1  0
 13 12  2  0
 15 16  2  0
 17 16  1  0
 18 17  1  0
 19 18  2  0
 19 15  1  0
 20 18  1  0
  1 21  1  0
  3 22  1  0
  8 23  1  0
  9 24  1  0
 14 25  1  0
 14 26  1  0
 16 27  1  0
 20 28  1  0
M  ISO  6  21  14  22  14  23  14  24  14  27  14  28  11
M  END
>  <minimizedAffinity>  (1) 
-4.30579901

>  <minimizedRMSD>  (1) 
1.6865977

$$$$
