
     RDKit          3D

 42 44  0  0  1  0  0  0  0  0999 V2000
   37.7970   25.4630   34.3030 N   0  0  0  0  0  0  0  0  0  0  0  0
   37.0930   25.3400   33.0520 C   0  0  0  0  0  0  0  0  0  0  0  0
   36.8220   26.7430   32.5930 C   0  0  0  0  0  0  0  0  0  0  0  0
   37.4530   27.6160   33.6620 C   0  0  0  0  0  0  0  0  0  0  0  0
   38.5830   26.6480   34.1280 C   0  0  2  0  0  0  0  0  0  0  0  0
   38.6940   24.3940   34.5570 C   0  0  0  0  0  0  0  0  0  0  0  0
   37.9300   24.1760   38.2680 C   0  0  0  0  0  0  0  0  0  0  0  0
   37.8350   24.5460   36.9210 C   0  0  0  0  0  0  0  0  0  0  0  0
   38.7490   24.0300   36.0100 C   0  0  0  0  0  0  0  0  0  0  0  0
   39.7180   23.1660   36.4850 N   0  0  0  0  0  0  0  0  0  0  0  0
   39.7780   22.8340   37.7800 C   0  0  0  0  0  0  0  0  0  0  0  0
   38.8900   23.3380   38.6560 N   0  0  0  0  0  0  0  0  0  0  0  0
   39.5540   26.5500   33.1910 O   0  0  0  0  0  0  0  0  0  0  0  0
   40.7530   27.1250   33.4110 C   0  0  0  0  0  0  0  0  0  0  0  0
   41.7970   26.3730   34.1450 C   0  0  0  0  0  0  0  0  0  0  0  0
   43.1250   27.0990   33.9220 C   0  0  0  0  0  0  0  0  0  0  0  0
   43.6710   26.7410   32.5380 C   0  0  0  0  0  0  0  0  0  0  0  0
   42.4570   26.4890   31.6680 C   0  0  0  0  0  0  0  0  0  0  0  0
   41.3390   27.4390   32.0200 C   0  0  0  0  0  0  0  0  0  0  0  0
   37.7130   24.8092   32.3146 H   0  0  0  0  0  0  0  0  0  0  0  0
   36.1619   24.7658   33.1673 H   0  0  0  0  0  0  0  0  0  0  0  0
   37.2868   26.9291   31.6135 H   0  0  0  0  0  0  0  0  0  0  0  0
   35.7479   26.9437   32.4667 H   0  0  0  0  0  0  0  0  0  0  0  0
   37.8560   28.5514   33.2464 H   0  0  0  0  0  0  0  0  0  0  0  0
   36.7718   27.9648   34.4522 H   0  0  0  0  0  0  0  0  0  0  0  0
   39.1549   26.9349   35.0228 H   0  0  0  0  0  0  0  0  0  0  0  0
   38.3666   23.5139   33.9841 H   0  0  0  0  0  0  0  0  0  0  0  0
   39.6999   24.7197   34.2536 H   0  0  0  0  0  0  0  0  0  0  0  0
   37.2152   24.5755   39.0025 H   0  0  0  0  0  0  0  0  0  0  0  0
   37.0465   25.2368   36.5878 H   0  0  0  0  0  0  0  0  0  0  0  0
   40.5593   22.1438   38.1309 H   0  0  0  0  0  0  0  0  0  0  0  0
   40.5261   27.9737   34.0730 H   0  0  0  0  0  0  0  0  0  0  0  0
   41.5578   26.3478   35.2184 H   0  0  0  0  0  0  0  0  0  0  0  0
   41.8556   25.3358   33.7833 H   0  0  0  0  0  0  0  0  0  0  0  0
   42.9647   28.1855   33.9840 H   0  0  0  0  0  0  0  0  0  0  0  0
   43.8467   26.7923   34.6934 H   0  0  0  0  0  0  0  0  0  0  0  0
   44.2658   27.5734   32.1338 H   0  0  0  0  0  0  0  0  0  0  0  0
   44.3301   25.8613   32.5779 H   0  0  0  0  0  0  0  0  0  0  0  0
   42.1130   25.4552   31.8196 H   0  0  0  0  0  0  0  0  0  0  0  0
   42.7375   26.6489   30.6165 H   0  0  0  0  0  0  0  0  0  0  0  0
   41.7294   28.4674   32.0196 H   0  0  0  0  0  0  0  0  0  0  0  0
   40.5394   27.3255   31.2731 H   0  0  0  0  0  0  0  0  0  0  0  0
  1  6  1  0
  2  1  1  0
  3  2  1  0
  3  4  1  0
  4  5  1  0
  5  1  1  0
  6  9  1  0
  7 12  2  0
  8  7  1  0
  9 10  1  0
  9  8  2  0
 10 11  2  0
 11 12  1  0
 13 14  1  0
 13  5  1  0
 14 15  1  0
 16 15  1  0
 17 16  1  0
 18 19  1  0
 18 17  1  0
 19 14  1  0
  2 20  1  0
  2 21  1  0
  3 22  1  0
  3 23  1  0
  4 24  1  0
  4 25  1  0
  5 26  1  1
  6 27  1  0
  6 28  1  0
  7 29  1  0
  8 30  1  0
 11 31  1  0
 14 32  1  0
 15 33  1  0
 15 34  1  0
 16 35  1  0
 16 36  1  0
 17 37  1  0
 17 38  1  0
 18 39  1  0
 18 40  1  0
 19 41  1  0
 19 42  1  0
M  ISO  8  20  13  21  13  22  13  23  13  24  13  25  13  26  13  27   8
M  ISO  8  28   8  29  14  30  14  31  14  32  13  33  13  34  13  35  13
M  ISO  7  36  13  37  13  38  13  39  13  40  13  41  13  42  13
M  END
>  <minimizedAffinity>  (1) 
-4.1145997

>  <minimizedRMSD>  (1) 
0.818400145

$$$$
