
     RDKit          3D

 30 31  0  0  0  0  0  0  0  0999 V2000
   39.8830   22.5370   37.2530 C   0  0  0  0  0  0  0  0  0  0  0  0
   39.2330   23.2200   38.2900 C   0  0  0  0  0  0  0  0  0  0  0  0
   38.0480   23.9000   37.9960 C   0  0  0  0  0  0  0  0  0  0  0  0
   37.5970   23.8600   36.7320 N   0  0  0  0  0  0  0  0  0  0  0  0
   38.2490   23.1880   35.7460 C   0  0  0  0  0  0  0  0  0  0  0  0
   39.3990   22.5250   36.0180 N   0  0  0  0  0  0  0  0  0  0  0  0
   41.1370   21.8020   37.5060 C   0  0  0  0  0  0  0  0  0  0  0  0
   37.7030   23.2060   34.4730 O   0  0  0  0  0  0  0  0  0  0  0  0
   37.4250   21.9650   33.8450 C   0  0  0  0  0  0  0  0  0  0  0  0
   36.3990   21.2530   34.6460 C   0  0  0  0  0  0  0  0  0  0  0  0
   35.5130   20.3040   33.9280 C   0  0  0  0  0  0  0  0  0  0  0  0
   35.8810   20.1300   32.4680 C   0  0  0  0  0  0  0  0  0  0  0  0
   35.8480   21.5620   31.9210 C   0  0  0  0  0  0  0  0  0  0  0  0
   37.1080   22.2110   32.4120 C   0  0  0  0  0  0  0  0  0  0  0  0
   39.6453   23.2208   39.3098 H   0  0  0  0  0  0  0  0  0  0  0  0
   37.5018   24.4509   38.7759 H   0  0  0  0  0  0  0  0  0  0  0  0
   41.2952   21.7093   38.5906 H   0  0  0  0  0  0  0  0  0  0  0  0
   41.0712   20.7995   37.0580 H   0  0  0  0  0  0  0  0  0  0  0  0
   41.9795   22.3492   37.0580 H   0  0  0  0  0  0  0  0  0  0  0  0
   38.2876   21.2828   33.8210 H   0  0  0  0  0  0  0  0  0  0  0  0
   36.9252   20.6864   35.4283 H   0  0  0  0  0  0  0  0  0  0  0  0
   35.7279   22.0438   35.0123 H   0  0  0  0  0  0  0  0  0  0  0  0
   35.5762   19.3239   34.4235 H   0  0  0  0  0  0  0  0  0  0  0  0
   34.4950   20.7193   33.9608 H   0  0  0  0  0  0  0  0  0  0  0  0
   36.8847   19.6920   32.3644 H   0  0  0  0  0  0  0  0  0  0  0  0
   35.2030   19.4495   31.9321 H   0  0  0  0  0  0  0  0  0  0  0  0
   34.9663   22.0982   32.3020 H   0  0  0  0  0  0  0  0  0  0  0  0
   35.7840   21.5767   30.8230 H   0  0  0  0  0  0  0  0  0  0  0  0
   37.9451   21.8319   31.8074 H   0  0  0  0  0  0  0  0  0  0  0  0
   36.9538   23.2956   32.3131 H   0  0  0  0  0  0  0  0  0  0  0  0
  1  7  1  0
  1  2  2  0
  3  2  1  0
  4  3  2  0
  5  6  2  0
  5  4  1  0
  6  1  1  0
  8  5  1  0
  9  8  1  0
  9 10  1  0
 11 10  1  0
 12 11  1  0
 13 14  1  0
 13 12  1  0
 14  9  1  0
  2 15  1  0
  3 16  1  0
  7 17  1  0
  7 18  1  0
  7 19  1  0
  9 20  1  0
 10 21  1  0
 10 22  1  0
 11 23  1  0
 11 24  1  0
 12 25  1  0
 12 26  1  0
 13 27  1  0
 13 28  1  0
 14 29  1  0
 14 30  1  0
M  ISO  8  15  14  16  14  17   8  18   8  19   8  20  13  21  13  22  13
M  ISO  8  23  13  24  13  25  13  26  13  27  13  28  13  29  13  30  13
M  END
>  <minimizedAffinity>  (1) 
-4.3798914

>  <minimizedRMSD>  (1) 
1.74234259

$$$$
