
     RDKit          3D

 26 27  0  0  0  0  0  0  0  0999 V2000
   39.9400   22.7270   37.6920 C   0  0  0  0  0  0  0  0  0  0  0  0
   39.1140   23.3000   38.6630 C   0  0  0  0  0  0  0  0  0  0  0  0
   37.8380   23.6830   38.2700 C   0  0  0  0  0  0  0  0  0  0  0  0
   37.4640   23.4830   36.9770 N   0  0  0  0  0  0  0  0  0  0  0  0
   38.2960   22.9230   36.0670 C   0  0  0  0  0  0  0  0  0  0  0  0
   39.5560   22.5380   36.4310 N   0  0  0  0  0  0  0  0  0  0  0  0
   37.8280   22.7360   34.6880 C   0  0  0  0  0  0  0  0  0  0  0  0
   37.3460   21.5850   34.4640 O   0  0  0  0  0  0  0  0  0  0  0  0
   37.8640   23.6730   33.6450 N   0  0  0  0  0  0  0  0  0  0  0  0
   38.4240   24.9600   33.9680 C   0  0  0  0  0  0  0  0  0  0  0  0
   38.1290   25.9350   32.8460 C   0  0  0  0  0  0  0  0  0  0  0  0
   36.7170   25.7860   32.4910 N   0  0  0  0  0  0  0  0  0  0  0  0
   36.4320   24.5290   31.8590 C   0  0  0  0  0  0  0  0  0  0  0  0
   37.3890   23.4200   32.3210 C   0  0  0  0  0  0  0  0  0  0  0  0
   40.9547   22.4177   37.9830 H   0  0  0  0  0  0  0  0  0  0  0  0
   39.4606   23.4420   39.6973 H   0  0  0  0  0  0  0  0  0  0  0  0
   37.1430   24.1393   38.9903 H   0  0  0  0  0  0  0  0  0  0  0  0
   37.9772   25.3302   34.9025 H   0  0  0  0  0  0  0  0  0  0  0  0
   39.5126   24.8650   34.0946 H   0  0  0  0  0  0  0  0  0  0  0  0
   38.3249   26.9640   33.1819 H   0  0  0  0  0  0  0  0  0  0  0  0
   38.7701   25.7290   31.9762 H   0  0  0  0  0  0  0  0  0  0  0  0
   36.1524   25.8582   33.3495 H   0  0  0  0  0  0  0  0  0  0  0  0
   36.5283   24.6497   30.7699 H   0  0  0  0  0  0  0  0  0  0  0  0
   35.4102   24.2331   32.1389 H   0  0  0  0  0  0  0  0  0  0  0  0
   36.8573   22.4571   32.3073 H   0  0  0  0  0  0  0  0  0  0  0  0
   38.2510   23.3936   31.6382 H   0  0  0  0  0  0  0  0  0  0  0  0
  1  2  2  0
  3  2  1  0
  4  3  2  0
  5  6  2  0
  5  4  1  0
  6  1  1  0
  7  5  1  0
  8  7  2  0
  9 10  1  0
  9  7  1  0
 11 10  1  0
 12 11  1  0
 13 14  1  0
 13 12  1  0
 14  9  1  0
  1 15  1  0
  2 16  1  0
  3 17  1  0
 10 18  1  0
 10 19  1  0
 11 20  1  0
 11 21  1  0
 12 22  1  0
 13 23  1  0
 13 24  1  0
 14 25  1  0
 14 26  1  0
M  ISO  8  15  14  16  14  17  14  18  13  19  13  20  13  21  13  22   5
M  ISO  4  23  13  24  13  25  13  26  13
M  END
>  <minimizedAffinity>  (1) 
-4.01497507

>  <minimizedRMSD>  (1) 
1.61459982

$$$$
