
     RDKit          3D

 41 45  0  0  0  0  0  0  0  0999 V2000
   37.3140   20.1720   30.6460 C   0  0  0  0  0  0  0  0  0  0  0  0
   36.4840   19.2480   30.1710 C   0  0  0  0  0  0  0  0  0  0  0  0
   36.6690   18.6960   28.9430 C   0  0  0  0  0  0  0  0  0  0  0  0
   37.7510   19.1420   28.2310 C   0  0  0  0  0  0  0  0  0  0  0  0
   38.5620   20.4030   29.3270 S   0  0  0  0  0  0  0  0  0  0  0  0
   38.2180   18.7360   26.8690 C   0  0  0  0  0  0  0  0  0  0  0  0
   39.4420   18.1310   26.6360 C   0  0  0  0  0  0  0  0  0  0  0  0
   39.4190   17.9580   25.2960 N   0  0  0  0  0  0  0  0  0  0  0  0
   38.2950   18.4060   24.7310 C   0  0  0  0  0  0  0  0  0  0  0  0
   37.9280   18.3910   23.3740 C   0  0  0  0  0  0  0  0  0  0  0  0
   36.6980   18.9220   23.0550 C   0  0  0  0  0  0  0  0  0  0  0  0
   35.8860   19.4390   24.0470 C   0  0  0  0  0  0  0  0  0  0  0  0
   36.2920   19.4310   25.3660 C   0  0  0  0  0  0  0  0  0  0  0  0
   37.4960   18.9190   25.7380 C   0  0  0  0  0  0  0  0  0  0  0  0
   37.3810   20.8840   31.8050 O   0  0  0  0  0  0  0  0  0  0  0  0
   37.0360   22.2170   31.9320 C   0  0  0  0  0  0  0  0  0  0  0  0
   36.0120   22.4840   31.2830 O   0  0  0  0  0  0  0  0  0  0  0  0
   39.1600   25.0340   32.6700 C   0  0  0  0  0  0  0  0  0  0  0  0
   39.2660   25.0640   34.0640 C   0  0  0  0  0  0  0  0  0  0  0  0
   38.5620   24.0510   34.7750 C   0  0  0  0  0  0  0  0  0  0  0  0
   37.8480   23.1420   34.0700 N   0  0  0  0  0  0  0  0  0  0  0  0
   37.7880   23.1700   32.7280 C   0  0  0  0  0  0  0  0  0  0  0  0
   38.4500   24.1240   32.0290 N   0  0  0  0  0  0  0  0  0  0  0  0
   38.5580   23.9280   36.2160 C   0  0  0  0  0  0  0  0  0  0  0  0
   37.7960   24.5480   37.1190 C   0  0  0  0  0  0  0  0  0  0  0  0
   37.9540   24.2850   38.4590 C   0  0  0  0  0  0  0  0  0  0  0  0
   38.9380   23.3510   38.7860 C   0  0  0  0  0  0  0  0  0  0  0  0
   39.6340   22.8540   37.1840 S   0  0  0  0  0  0  0  0  0  0  0  0
   35.6304   18.9239   30.7845 H   0  0  0  0  0  0  0  0  0  0  0  0
   35.9865   17.9320   28.5423 H   0  0  0  0  0  0  0  0  0  0  0  0
   40.2291   17.8612   27.3555 H   0  0  0  0  0  0  0  0  0  0  0  0
   40.1886   17.5254   24.7654 H   0  0  0  0  0  0  0  0  0  0  0  0
   38.5925   17.9744   22.6027 H   0  0  0  0  0  0  0  0  0  0  0  0
   36.3608   18.9347   22.0080 H   0  0  0  0  0  0  0  0  0  0  0  0
   34.9055   19.8614   23.7822 H   0  0  0  0  0  0  0  0  0  0  0  0
   35.6258   19.8488   26.1351 H   0  0  0  0  0  0  0  0  0  0  0  0
   39.6895   25.7995   32.0838 H   0  0  0  0  0  0  0  0  0  0  0  0
   39.8614   25.8293   34.5835 H   0  0  0  0  0  0  0  0  0  0  0  0
   37.0375   25.2733   36.7895 H   0  0  0  0  0  0  0  0  0  0  0  0
   37.3419   24.7807   39.2269 H   0  0  0  0  0  0  0  0  0  0  0  0
   39.2264   22.9965   39.7866 H   0  0  0  0  0  0  0  0  0  0  0  0
  1 15  1  0
  2  1  2  0
  3  2  1  0
  4  3  2  0
  4  5  1  0
  5  1  1  0
  6  4  1  0
  7  6  2  0
  8  7  1  0
  9  8  1  0
  9 14  2  0
 10  9  1  0
 11 10  2  0
 11 12  1  0
 12 13  2  0
 13 14  1  0
 14  6  1  0
 15 16  1  0
 16 22  1  0
 17 16  2  0
 18 19  2  0
 19 20  1  0
 20 24  1  0
 21 20  2  0
 22 21  1  0
 23 18  1  0
 23 22  2  0
 24 25  2  0
 24 28  1  0
 25 26  1  0
 26 27  2  0
 28 27  1  0
  2 29  1  0
  3 30  1  0
  7 31  1  0
  8 32  1  0
 10 33  1  0
 11 34  1  0
 12 35  1  0
 13 36  1  0
 18 37  1  0
 19 38  1  0
 25 39  1  0
 26 40  1  0
 27 41  1  0
M  ISO  8  29  14  30  14  31  14  32   9  33  14  34  14  35  14  36  14
M  ISO  5  37  14  38  14  39  14  40  14  41  14
M  END
>  <minimizedAffinity>  (1) 
-4.99904299

>  <minimizedRMSD>  (1) 
3.77501464

$$$$
