
     RDKit          3D

 39 41  0  0  0  0  0  0  0  0999 V2000
   39.3970   24.0020   35.3250 C   0  0  0  0  0  0  0  0  0  0  0  0
   39.1850   24.6550   34.1210 C   0  0  0  0  0  0  0  0  0  0  0  0
   40.2660   25.0890   33.3950 C   0  0  0  0  0  0  0  0  0  0  0  0
   41.5070   24.8650   33.8810 N   0  0  0  0  0  0  0  0  0  0  0  0
   41.6990   24.2340   35.0450 C   0  0  0  0  0  0  0  0  0  0  0  0
   40.6700   23.8010   35.7700 N   0  0  0  0  0  0  0  0  0  0  0  0
   40.2460   25.7710   32.1490 N   0  0  0  0  0  0  0  0  0  0  0  0
   40.1820   27.2080   31.9700 C   0  0  0  0  0  0  0  0  0  0  0  0
   38.9200   27.5730   31.2210 C   0  0  0  0  0  0  0  0  0  0  0  0
   38.3490   26.4270   30.6490 O   0  0  0  0  0  0  0  0  0  0  0  0
   39.3210   25.7630   29.8910 C   0  0  0  0  0  0  0  0  0  0  0  0
   40.2870   25.1060   30.8500 C   0  0  0  0  0  0  0  0  0  0  0  0
   38.2350   23.5690   36.0410 C   0  0  0  0  0  0  0  0  0  0  0  0
   37.6840   24.2250   36.9830 O   0  0  0  0  0  0  0  0  0  0  0  0
   37.4070   22.4140   35.9590 N   0  0  0  0  0  0  0  0  0  0  0  0
   37.1170   22.1430   34.5620 C   0  0  0  0  0  0  0  0  0  0  0  0
   36.6130   20.7220   34.4180 C   0  0  0  0  0  0  0  0  0  0  0  0
   35.4050   20.4710   35.1740 N   0  0  0  0  0  0  0  0  0  0  0  0
   35.3600   21.2510   36.3970 C   0  0  0  0  0  0  0  0  0  0  0  0
   36.7950   21.4640   36.8980 C   0  0  0  0  0  0  0  0  0  0  0  0
   38.1626   24.8234   33.7517 H   0  0  0  0  0  0  0  0  0  0  0  0
   42.7241   24.0703   35.4089 H   0  0  0  0  0  0  0  0  0  0  0  0
   40.1780   27.6992   32.9542 H   0  0  0  0  0  0  0  0  0  0  0  0
   41.0572   27.5425   31.3936 H   0  0  0  0  0  0  0  0  0  0  0  0
   38.2015   28.0275   31.9190 H   0  0  0  0  0  0  0  0  0  0  0  0
   39.1698   28.2870   30.4224 H   0  0  0  0  0  0  0  0  0  0  0  0
   38.8448   24.9996   29.2582 H   0  0  0  0  0  0  0  0  0  0  0  0
   39.8507   26.4733   29.2391 H   0  0  0  0  0  0  0  0  0  0  0  0
   40.0107   24.0487   30.9752 H   0  0  0  0  0  0  0  0  0  0  0  0
   41.3050   25.1847   30.4408 H   0  0  0  0  0  0  0  0  0  0  0  0
   36.3475   22.8431   34.2047 H   0  0  0  0  0  0  0  0  0  0  0  0
   38.0328   22.2697   33.9659 H   0  0  0  0  0  0  0  0  0  0  0  0
   36.4075   20.5291   33.3547 H   0  0  0  0  0  0  0  0  0  0  0  0
   37.3930   20.0547   34.8133 H   0  0  0  0  0  0  0  0  0  0  0  0
   34.5911   20.7165   34.5924 H   0  0  0  0  0  0  0  0  0  0  0  0
   34.8891   22.2249   36.1977 H   0  0  0  0  0  0  0  0  0  0  0  0
   34.7720   20.7190   37.1594 H   0  0  0  0  0  0  0  0  0  0  0  0
   37.3473   20.5127   36.8956 H   0  0  0  0  0  0  0  0  0  0  0  0
   36.8125   21.8447   37.9299 H   0  0  0  0  0  0  0  0  0  0  0  0
  1  6  1  0
  1 13  1  0
  2  1  2  0
  3  4  2  0
  3  2  1  0
  4  5  1  0
  5  6  2  0
  7  3  1  0
  8  7  1  0
  9  8  1  0
 10  9  1  0
 11 10  1  0
 11 12  1  0
 12  7  1  0
 13 14  2  0
 15 13  1  0
 15 20  1  0
 16 15  1  0
 17 16  1  0
 17 18  1  0
 18 19  1  0
 19 20  1  0
  2 21  1  0
  5 22  1  0
  8 23  1  0
  8 24  1  0
  9 25  1  0
  9 26  1  0
 11 27  1  0
 11 28  1  0
 12 29  1  0
 12 30  1  0
 16 31  1  0
 16 32  1  0
 17 33  1  0
 17 34  1  0
 18 35  1  0
 19 36  1  0
 19 37  1  0
 20 38  1  0
 20 39  1  0
M  ISO  8  21  14  22  14  23  13  24  13  25  13  26  13  27  13  28  13
M  ISO  8  29  13  30  13  31  13  32  13  33  13  34  13  35   5  36  13
M  ISO  3  37  13  38  13  39  13
M  END
>  <minimizedAffinity>  (1) 
-3.19735479

>  <minimizedRMSD>  (1) 
3.67123699

$$$$
