
     RDKit          3D

 28 31  0  0  0  0  0  0  0  0999 V2000
   37.7160   25.0450   33.6950 C   0  0  0  0  0  0  0  0  0  0  0  0
   37.8470   25.4220   35.0220 C   0  0  0  0  0  0  0  0  0  0  0  0
   37.5870   26.7430   35.3380 C   0  0  0  0  0  0  0  0  0  0  0  0
   37.2220   27.6120   34.3640 N   0  0  0  0  0  0  0  0  0  0  0  0
   37.1050   27.2200   33.0810 C   0  0  0  0  0  0  0  0  0  0  0  0
   37.3490   25.9590   32.7550 N   0  0  0  0  0  0  0  0  0  0  0  0
   38.2660   24.4980   35.9650 N   0  0  0  0  0  0  0  0  0  0  0  0
   37.4950   23.9670   36.9450 C   0  0  0  0  0  0  0  0  0  0  0  0
   38.1810   23.1040   37.7150 N   0  0  0  0  0  0  0  0  0  0  0  0
   39.4310   23.0730   37.2220 C   0  0  0  0  0  0  0  0  0  0  0  0
   40.5900   22.4000   37.5430 C   0  0  0  0  0  0  0  0  0  0  0  0
   41.7510   22.5180   36.8940 N   0  0  0  0  0  0  0  0  0  0  0  0
   41.7480   23.3780   35.8400 C   0  0  0  0  0  0  0  0  0  0  0  0
   40.6360   24.0370   35.5170 N   0  0  0  0  0  0  0  0  0  0  0  0
   39.4800   23.9440   36.1340 C   0  0  0  0  0  0  0  0  0  0  0  0
   37.8350   23.6710   33.1370 C   0  0  0  0  0  0  0  0  0  0  0  0
   37.3110   22.4210   33.5370 C   0  0  0  0  0  0  0  0  0  0  0  0
   37.6020   21.3810   32.7180 C   0  0  0  0  0  0  0  0  0  0  0  0
   38.3560   21.5090   31.5680 C   0  0  0  0  0  0  0  0  0  0  0  0
   38.7150   23.2600   31.5960 S   0  0  0  0  0  0  0  0  0  0  0  0
   37.6763   27.0881   36.3786 H   0  0  0  0  0  0  0  0  0  0  0  0
   36.8082   27.9433   32.3072 H   0  0  0  0  0  0  0  0  0  0  0  0
   36.4331   24.2130   37.0931 H   0  0  0  0  0  0  0  0  0  0  0  0
   40.5560   21.7120   38.4006 H   0  0  0  0  0  0  0  0  0  0  0  0
   42.6658   23.5297   35.2530 H   0  0  0  0  0  0  0  0  0  0  0  0
   36.7088   22.3004   34.4496 H   0  0  0  0  0  0  0  0  0  0  0  0
   37.2182   20.3847   32.9826 H   0  0  0  0  0  0  0  0  0  0  0  0
   38.6538   20.7438   30.8360 H   0  0  0  0  0  0  0  0  0  0  0  0
  1  2  1  0
  2  3  2  0
  2  7  1  0
  4  3  1  0
  5  4  2  0
  6  5  1  0
  6  1  2  0
  7 15  1  0
  7  8  1  0
  8  9  2  0
 10 11  2  0
 10  9  1  0
 12 11  1  0
 13 12  2  0
 14 13  1  0
 14 15  2  0
 15 10  1  0
 16 17  2  0
 16  1  1  0
 18 17  1  0
 19 20  1  0
 19 18  2  0
 20 16  1  0
  3 21  1  0
  5 22  1  0
  8 23  1  0
 11 24  1  0
 13 25  1  0
 17 26  1  0
 18 27  1  0
 19 28  1  0
M  ISO  8  21  14  22  14  23  14  24  14  25  14  26  14  27  14  28  14
M  END
>  <minimizedAffinity>  (1) 
-4.63134432

>  <minimizedRMSD>  (1) 
1.18214166

$$$$
