
     RDKit          3D

 38 40  0  0  0  0  0  0  0  0999 V2000
   39.0320   23.4190   35.6940 C   0  0  0  0  0  0  0  0  0  0  0  0
   40.4050   23.3370   35.4640 C   0  0  0  0  0  0  0  0  0  0  0  0
   41.2380   23.0040   36.5080 C   0  0  0  0  0  0  0  0  0  0  0  0
   40.6910   22.7700   37.7250 N   0  0  0  0  0  0  0  0  0  0  0  0
   39.3670   22.8550   37.9240 C   0  0  0  0  0  0  0  0  0  0  0  0
   38.5380   23.1750   36.9260 N   0  0  0  0  0  0  0  0  0  0  0  0
   42.6480   22.8730   36.4680 N   0  0  0  0  0  0  0  0  0  0  0  0
   43.6070   23.9400   36.6900 C   0  0  0  0  0  0  0  0  0  0  0  0
   44.4550   24.1310   35.4490 C   0  0  0  0  0  0  0  0  0  0  0  0
   44.2880   23.0390   34.5790 O   0  0  0  0  0  0  0  0  0  0  0  0
   44.5190   21.8590   35.2740 C   0  0  0  0  0  0  0  0  0  0  0  0
   43.3450   21.6210   36.1900 C   0  0  0  0  0  0  0  0  0  0  0  0
   38.2260   23.7690   34.5630 C   0  0  0  0  0  0  0  0  0  0  0  0
   37.7570   22.9410   33.7200 O   0  0  0  0  0  0  0  0  0  0  0  0
   37.7950   25.0650   34.1600 N   0  0  0  0  0  0  0  0  0  0  0  0
   37.3210   24.9400   32.7860 C   0  0  0  0  0  0  0  0  0  0  0  0
   36.8140   26.2310   32.2280 C   0  0  0  0  0  0  0  0  0  0  0  0
   37.6090   27.3270   32.4230 O   0  0  0  0  0  0  0  0  0  0  0  0
   38.4420   27.2450   33.5300 C   0  0  0  0  0  0  0  0  0  0  0  0
   37.6430   26.4600   34.5810 C   0  0  0  0  0  0  0  0  0  0  0  0
   40.8162   23.5355   34.4632 H   0  0  0  0  0  0  0  0  0  0  0  0
   38.9569   22.6580   38.9255 H   0  0  0  0  0  0  0  0  0  0  0  0
   43.0700   24.8737   36.9131 H   0  0  0  0  0  0  0  0  0  0  0  0
   44.2563   23.6756   37.5377 H   0  0  0  0  0  0  0  0  0  0  0  0
   44.1481   25.0549   34.9369 H   0  0  0  0  0  0  0  0  0  0  0  0
   45.5130   24.2004   35.7421 H   0  0  0  0  0  0  0  0  0  0  0  0
   44.6165   21.0221   34.5668 H   0  0  0  0  0  0  0  0  0  0  0  0
   45.4493   21.9340   35.8562 H   0  0  0  0  0  0  0  0  0  0  0  0
   42.6483   20.9184   35.7095 H   0  0  0  0  0  0  0  0  0  0  0  0
   43.7141   21.2026   37.1380 H   0  0  0  0  0  0  0  0  0  0  0  0
   38.1528   24.5883   32.1580 H   0  0  0  0  0  0  0  0  0  0  0  0
   36.4822   24.2284   32.7886 H   0  0  0  0  0  0  0  0  0  0  0  0
   35.8384   26.4372   32.6924 H   0  0  0  0  0  0  0  0  0  0  0  0
   36.7752   26.0856   31.1383 H   0  0  0  0  0  0  0  0  0  0  0  0
   39.3703   26.7128   33.2751 H   0  0  0  0  0  0  0  0  0  0  0  0
   38.7358   28.2396   33.8968 H   0  0  0  0  0  0  0  0  0  0  0  0
   36.5845   26.7592   34.5734 H   0  0  0  0  0  0  0  0  0  0  0  0
   37.9978   26.6373   35.6070 H   0  0  0  0  0  0  0  0  0  0  0  0
  1  6  1  0
  2  1  2  0
  2  3  1  0
  3  4  2  0
  4  5  1  0
  6  5  2  0
  7  3  1  0
  7  8  1  0
  9  8  1  0
 10 11  1  0
 10  9  1  0
 11 12  1  0
 12  7  1  0
 13  1  1  0
 14 13  2  0
 15 13  1  0
 15 20  1  0
 16 15  1  0
 17 18  1  0
 17 16  1  0
 18 19  1  0
 19 20  1  0
  2 21  1  0
  5 22  1  0
  8 23  1  0
  8 24  1  0
  9 25  1  0
  9 26  1  0
 11 27  1  0
 11 28  1  0
 12 29  1  0
 12 30  1  0
 16 31  1  0
 16 32  1  0
 17 33  1  0
 17 34  1  0
 19 35  1  0
 19 36  1  0
 20 37  1  0
 20 38  1  0
M  ISO  8  21  14  22  14  23  13  24  13  25  13  26  13  27  13  28  13
M  ISO  8  29  13  30  13  31  13  32  13  33  13  34  13  35  13  36  13
M  ISO  2  37  13  38  13
M  END
>  <minimizedAffinity>  (1) 
-4.37106895

>  <minimizedRMSD>  (1) 
6.10470104

$$$$
