
     RDKit          3D

 54 57  0  0  0  0  0  0  0  0999 V2000
   37.1480   26.6460   34.3020 C   0  0  0  0  0  0  0  0  0  0  0  0
   37.1560   25.6930   33.2960 C   0  0  0  0  0  0  0  0  0  0  0  0
   36.5070   25.9810   32.0840 C   0  0  0  0  0  0  0  0  0  0  0  0
   35.9090   27.1860   31.9730 N   0  0  0  0  0  0  0  0  0  0  0  0
   35.9070   28.0970   32.9460 C   0  0  0  0  0  0  0  0  0  0  0  0
   36.5270   27.8410   34.1280 N   0  0  0  0  0  0  0  0  0  0  0  0
   37.8240   26.3410   35.5630 C   0  0  0  0  0  0  0  0  0  0  0  0
   38.7090   27.1230   35.9880 O   0  0  0  0  0  0  0  0  0  0  0  0
   37.4810   25.2130   36.2560 O   0  0  0  0  0  0  0  0  0  0  0  0
   39.3780   22.8990   38.1440 N   0  0  0  0  0  0  0  0  0  0  0  0
   38.3330   23.7050   37.9320 N   0  0  0  0  0  0  0  0  0  0  0  0
   38.4690   24.3070   36.7110 C   0  0  0  0  0  0  0  0  0  0  0  0
   39.6260   23.8670   36.1460 C   0  0  0  0  0  0  0  0  0  0  0  0
   40.1660   23.0010   37.0510 C   0  0  0  0  0  0  0  0  0  0  0  0
   41.4420   22.2750   36.8520 C   0  0  0  0  0  0  0  0  0  0  0  0
   42.4880   22.9070   36.2070 C   0  0  0  0  0  0  0  0  0  0  0  0
   43.6360   22.1680   36.0640 C   0  0  0  0  0  0  0  0  0  0  0  0
   43.7980   20.8880   36.5060 N   0  0  0  0  0  0  0  0  0  0  0  0
   42.7330   20.3100   37.1370 C   0  0  0  0  0  0  0  0  0  0  0  0
   41.6020   21.0130   37.2880 N   0  0  0  0  0  0  0  0  0  0  0  0
   35.2250   29.3930   32.7360 C   0  0  0  0  0  0  0  0  0  0  0  0
   35.8090   30.3900   33.7250 C   0  0  0  0  0  0  0  0  0  0  0  0
   33.7620   29.2020   33.0310 C   0  0  0  0  0  0  0  0  0  0  0  0
   35.4320   29.9090   31.3150 C   0  0  0  0  0  0  0  0  0  0  0  0
   36.8000   30.0120   31.1300 O   0  0  0  0  0  0  0  0  0  0  0  0
   39.2260   28.8540   27.9320 C   0  0  0  0  0  0  0  0  0  0  0  0
   39.2570   28.2280   29.1620 C   0  0  0  0  0  0  0  0  0  0  0  0
   38.4330   28.6410   30.2060 C   0  0  0  0  0  0  0  0  0  0  0  0
   37.5480   29.7100   30.0280 C   0  0  0  0  0  0  0  0  0  0  0  0
   37.5220   30.3310   28.7960 C   0  0  0  0  0  0  0  0  0  0  0  0
   38.3420   29.9180   27.7620 C   0  0  0  0  0  0  0  0  0  0  0  0
   40.2920   28.2790   26.6640 S   0  0  0  0  0  0  0  0  0  0  0  0
   40.1510   26.7960   26.4320 O   0  0  0  0  0  0  0  0  0  0  0  0
   41.7200   28.5360   27.0900 O   0  0  0  0  0  0  0  0  0  0  0  0
   37.6619   24.7275   33.4440 H   0  0  0  0  0  0  0  0  0  0  0  0
   36.4869   25.2540   31.2588 H   0  0  0  0  0  0  0  0  0  0  0  0
   39.5488   22.3158   38.9756 H   0  0  0  0  0  0  0  0  0  0  0  0
   40.0387   24.1499   35.1664 H   0  0  0  0  0  0  0  0  0  0  0  0
   42.4059   23.9377   35.8317 H   0  0  0  0  0  0  0  0  0  0  0  0
   44.4879   22.6432   35.5555 H   0  0  0  0  0  0  0  0  0  0  0  0
   42.8030   19.2799   37.5166 H   0  0  0  0  0  0  0  0  0  0  0  0
   35.6089   30.0485   34.7513 H   0  0  0  0  0  0  0  0  0  0  0  0
   36.8952   30.4674   33.5695 H   0  0  0  0  0  0  0  0  0  0  0  0
   35.3452   31.3753   33.5695 H   0  0  0  0  0  0  0  0  0  0  0  0
   33.6071   29.1818   34.1199 H   0  0  0  0  0  0  0  0  0  0  0  0
   33.1884   30.0329   32.5944 H   0  0  0  0  0  0  0  0  0  0  0  0
   33.4209   28.2517   32.5944 H   0  0  0  0  0  0  0  0  0  0  0  0
   35.0022   29.2040   30.5882 H   0  0  0  0  0  0  0  0  0  0  0  0
   34.9363   30.8799   31.1681 H   0  0  0  0  0  0  0  0  0  0  0  0
   39.9466   27.3858   29.3207 H   0  0  0  0  0  0  0  0  0  0  0  0
   38.4782   28.1240   31.1759 H   0  0  0  0  0  0  0  0  0  0  0  0
   36.8336   31.1733   28.6328 H   0  0  0  0  0  0  0  0  0  0  0  0
   38.2960   30.4360   26.7927 H   0  0  0  0  0  0  0  0  0  0  0  0
   39.9624   28.9383   25.5092 H   0  0  0  0  0  0  0  0  0  0  0  0
  1  7  1  0
  2  1  2  0
  3  2  1  0
  4  3  2  0
  4  5  1  0
  5  6  2  0
  6  1  1  0
  7  8  2  0
  7  9  1  0
  9 12  1  0
 11 10  1  0
 12 11  2  0
 13 12  1  0
 13 14  2  0
 14 10  1  0
 15 14  1  0
 15 20  1  0
 16 15  2  0
 17 16  1  0
 17 18  2  0
 18 19  1  0
 19 20  2  0
 21  5  1  0
 21 23  1  0
 21 22  1  0
 24 21  1  0
 25 24  1  0
 26 27  2  0
 27 28  1  0
 29 28  2  0
 29 25  1  0
 30 29  1  0
 31 26  1  0
 31 30  2  0
 32 34  2  0
 32 26  1  0
 33 32  2  0
  2 35  1  0
  3 36  1  0
 10 37  1  0
 13 38  1  0
 16 39  1  0
 17 40  1  0
 19 41  1  0
 22 42  1  0
 22 43  1  0
 22 44  1  0
 23 45  1  0
 23 46  1  0
 23 47  1  0
 24 48  1  0
 24 49  1  0
 27 50  1  0
 28 51  1  0
 30 52  1  0
 31 53  1  0
 32 54  1  0
M  ISO  8  35  14  36  14  37   9  38  14  39  14  40  14  41  14  42   8
M  ISO  8  43   8  44   8  45   8  46   8  47   8  48   8  49   8  50  14
M  ISO  4  51  14  52  14  53  14  54  11
M  END
>  <minimizedAffinity>  (1) 
-5.77229261

>  <minimizedRMSD>  (1) 
1.09532619

$$$$
