
     RDKit          3D

 38 41  0  0  1  0  0  0  0  0999 V2000
   37.0210   25.1550   31.7370 C   0  0  0  0  0  0  0  0  0  0  0  0
   37.2110   25.8770   33.0100 C   0  0  0  0  0  0  0  0  0  0  0  0
   36.9840   27.1990   33.3340 C   0  0  0  0  0  0  0  0  0  0  0  0
   37.2080   27.7470   34.5760 C   0  0  0  0  0  0  0  0  0  0  0  0
   37.6980   26.8850   35.5510 C   0  0  0  0  0  0  0  0  0  0  0  0
   37.9160   25.5790   35.2060 C   0  0  0  0  0  0  0  0  0  0  0  0
   37.6850   25.0770   33.9820 N   0  0  0  0  0  0  0  0  0  0  0  0
   38.4310   24.6820   36.2400 C   0  0  0  0  0  0  0  0  0  0  0  0
   39.4340   23.7830   36.0880 C   0  0  0  0  0  0  0  0  0  0  0  0
   39.9210   22.9370   37.0610 C   0  0  0  0  0  0  0  0  0  0  0  0
   39.3370   23.0070   38.3100 C   0  0  0  0  0  0  0  0  0  0  0  0
   38.3140   23.9120   38.4930 C   0  0  0  0  0  0  0  0  0  0  0  0
   37.8970   24.7040   37.4880 N   0  0  0  0  0  0  0  0  0  0  0  0
   39.3250   24.2360   30.8450 C   0  0  2  0  0  0  0  0  0  0  0  0
   38.1830   23.7470   30.0270 C   0  0  0  0  0  0  0  0  0  0  0  0
   37.9910   24.0760   31.4790 C   0  0  2  0  0  0  0  0  0  0  0  0
   40.0590   27.3570   29.0620 C   0  0  0  0  0  0  0  0  0  0  0  0
   40.7790   28.1370   29.9960 C   0  0  0  0  0  0  0  0  0  0  0  0
   40.9950   27.5260   31.2750 C   0  0  0  0  0  0  0  0  0  0  0  0
   40.5090   26.2860   31.4960 N   0  0  0  0  0  0  0  0  0  0  0  0
   39.8170   25.5900   30.5360 C   0  0  0  0  0  0  0  0  0  0  0  0
   39.5890   26.1340   29.3020 N   0  0  0  0  0  0  0  0  0  0  0  0
   36.0136   24.7133   31.7430 H   0  0  0  0  0  0  0  0  0  0  0  0
   37.1694   25.8973   30.9389 H   0  0  0  0  0  0  0  0  0  0  0  0
   36.5972   27.8604   32.5448 H   0  0  0  0  0  0  0  0  0  0  0  0
   37.0104   28.8085   34.7861 H   0  0  0  0  0  0  0  0  0  0  0  0
   37.9044   27.2428   36.5705 H   0  0  0  0  0  0  0  0  0  0  0  0
   39.9033   23.7230   35.0949 H   0  0  0  0  0  0  0  0  0  0  0  0
   40.7413   22.2349   36.8510 H   0  0  0  0  0  0  0  0  0  0  0  0
   39.6774   22.3611   39.1328 H   0  0  0  0  0  0  0  0  0  0  0  0
   37.8298   23.9884   39.4777 H   0  0  0  0  0  0  0  0  0  0  0  0
   40.3318   23.8712   31.0967 H   0  0  0  0  0  0  0  0  0  0  0  0
   37.7432   24.3929   29.2528 H   0  0  0  0  0  0  0  0  0  0  0  0
   37.9966   22.8658   29.3956 H   0  0  0  0  0  0  0  0  0  0  0  0
   37.7055   23.5940   32.4256 H   0  0  0  0  0  0  0  0  0  0  0  0
   39.8741   27.7903   28.0680 H   0  0  0  0  0  0  0  0  0  0  0  0
   41.1487   29.1452   29.7574 H   0  0  0  0  0  0  0  0  0  0  0  0
   41.5475   28.0587   32.0630 H   0  0  0  0  0  0  0  0  0  0  0  0
  1  2  1  0
  2  3  2  0
  2  7  1  0
  3  4  1  0
  4  5  2  0
  6  5  1  0
  6  8  1  0
  7  6  2  0
  8 13  1  0
  9  8  2  0
  9 10  1  0
 10 11  2  0
 11 12  1  0
 13 12  2  0
 14 16  1  0
 15 14  1  0
 15 16  1  0
 16  1  1  0
 17 22  2  0
 17 18  1  0
 18 19  2  0
 19 20  1  0
 21 14  1  0
 21 20  2  0
 22 21  1  0
  1 23  1  0
  1 24  1  0
  3 25  1  0
  4 26  1  0
  5 27  1  0
  9 28  1  0
 10 29  1  0
 11 30  1  0
 12 31  1  0
 14 32  1  1
 15 33  1  0
 15 34  1  0
 16 35  1  1
 17 36  1  0
 18 37  1  0
 19 38  1  0
M  ISO  8  23   8  24   8  25  14  26  14  27  14  28  14  29  14  30  14
M  ISO  8  31  14  32  13  33  13  34  13  35  13  36  14  37  14  38  14
M  END
>  <minimizedAffinity>  (1) 
-4.74346924

>  <minimizedRMSD>  (1) 
7.52092838

$$$$
