
     RDKit          3D

 36 39  0  0  0  0  0  0  0  0999 V2000
   39.0520   24.2390   35.1710 C   0  0  0  0  0  0  0  0  0  0  0  0
   39.9280   25.2820   34.9850 C   0  0  0  0  0  0  0  0  0  0  0  0
   40.1650   25.7650   33.7100 C   0  0  0  0  0  0  0  0  0  0  0  0
   39.5380   25.2200   32.6040 C   0  0  0  0  0  0  0  0  0  0  0  0
   38.6580   24.1660   32.8260 C   0  0  0  0  0  0  0  0  0  0  0  0
   38.4130   23.6770   34.0860 C   0  0  0  0  0  0  0  0  0  0  0  0
   39.5800   22.8700   37.2790 C   0  0  0  0  0  0  0  0  0  0  0  0
   38.8730   23.8110   36.5400 C   0  0  0  0  0  0  0  0  0  0  0  0
   37.9340   24.2730   37.4020 N   0  0  0  0  0  0  0  0  0  0  0  0
   38.0810   23.6390   38.5770 C   0  0  0  0  0  0  0  0  0  0  0  0
   39.0710   22.7830   38.5330 N   0  0  0  0  0  0  0  0  0  0  0  0
   42.6050   20.6920   37.0950 C   0  0  0  0  0  0  0  0  0  0  0  0
   41.5430   21.4190   37.6470 C   0  0  0  0  0  0  0  0  0  0  0  0
   40.7150   22.0880   36.7610 C   0  0  0  0  0  0  0  0  0  0  0  0
   40.9680   22.0110   35.3980 N   0  0  0  0  0  0  0  0  0  0  0  0
   42.0220   21.2820   34.9430 C   0  0  0  0  0  0  0  0  0  0  0  0
   42.8250   20.6370   35.7730 N   0  0  0  0  0  0  0  0  0  0  0  0
   37.4840   22.5660   34.3130 C   0  0  0  0  0  0  0  0  0  0  0  0
   37.1830   21.8950   35.4880 C   0  0  0  0  0  0  0  0  0  0  0  0
   36.2570   20.8790   35.4010 C   0  0  0  0  0  0  0  0  0  0  0  0
   35.6650   20.5520   34.2060 C   0  0  0  0  0  0  0  0  0  0  0  0
   35.9790   21.2350   33.0380 C   0  0  0  0  0  0  0  0  0  0  0  0
   36.8930   22.2280   33.1530 N   0  0  0  0  0  0  0  0  0  0  0  0
   40.4398   25.7320   35.8484 H   0  0  0  0  0  0  0  0  0  0  0  0
   40.8673   26.6005   33.5731 H   0  0  0  0  0  0  0  0  0  0  0  0
   39.7275   25.6043   31.5909 H   0  0  0  0  0  0  0  0  0  0  0  0
   38.1431   23.7106   31.9672 H   0  0  0  0  0  0  0  0  0  0  0  0
   37.4514   23.8159   39.4615 H   0  0  0  0  0  0  0  0  0  0  0  0
   39.3962   22.1699   39.2941 H   0  0  0  0  0  0  0  0  0  0  0  0
   43.2823   20.1471   37.7690 H   0  0  0  0  0  0  0  0  0  0  0  0
   41.3743   21.4569   38.7333 H   0  0  0  0  0  0  0  0  0  0  0  0
   42.2110   21.2275   33.8607 H   0  0  0  0  0  0  0  0  0  0  0  0
   37.6601   22.1608   36.4428 H   0  0  0  0  0  0  0  0  0  0  0  0
   35.9862   20.3180   36.3076 H   0  0  0  0  0  0  0  0  0  0  0  0
   34.9293   19.7349   34.1731 H   0  0  0  0  0  0  0  0  0  0  0  0
   35.5119   20.9837   32.0743 H   0  0  0  0  0  0  0  0  0  0  0  0
  1  8  1  0
  2  1  2  0
  3  2  1  0
  4  5  1  0
  4  3  2  0
  5  6  2  0
  6 18  1  0
  6  1  1  0
  7 11  1  0
  8  7  2  0
  8  9  1  0
  9 10  2  0
 11 10  1  0
 12 13  2  0
 14  7  1  0
 14 13  1  0
 15 14  2  0
 16 15  1  0
 16 17  2  0
 17 12  1  0
 18 19  2  0
 20 19  1  0
 21 20  2  0
 22 23  2  0
 22 21  1  0
 23 18  1  0
  2 24  1  0
  3 25  1  0
  4 26  1  0
  5 27  1  0
 10 28  1  0
 11 29  1  0
 12 30  1  0
 13 31  1  0
 16 32  1  0
 19 33  1  0
 20 34  1  0
 21 35  1  0
 22 36  1  0
M  ISO  8  24  14  25  14  26  14  27  14  28  14  29   9  30  14  31  14
M  ISO  5  32  14  33  14  34  14  35  14  36  14
M  END
>  <minimizedAffinity>  (1) 
-5.74949408

>  <minimizedRMSD>  (1) 
0.371727943

$$$$
