
     RDKit          3D

 26 27  0  0  1  0  0  0  0  0999 V2000
   38.0670   23.4090   36.6570 C   0  0  1  0  0  0  0  0  0  0  0  0
   38.3090   25.9050   33.8270 C   0  0  0  0  0  0  0  0  0  0  0  0
   38.1950   24.6800   34.4970 C   0  0  0  0  0  0  0  0  0  0  0  0
   38.1880   24.6730   35.9210 C   0  0  0  0  0  0  0  0  0  0  0  0
   38.2960   25.8850   36.5720 N   0  0  0  0  0  0  0  0  0  0  0  0
   38.4040   27.0450   35.8780 C   0  0  0  0  0  0  0  0  0  0  0  0
   38.4120   27.0640   34.5120 N   0  0  0  0  0  0  0  0  0  0  0  0
   38.1360   22.2040   35.7430 C   0  0  0  0  0  0  0  0  0  0  0  0
   39.1050   23.2580   37.7410 C   0  0  0  0  0  0  0  0  0  0  0  0
   40.3940   22.7840   37.2150 C   0  0  0  0  0  0  0  0  0  0  0  0
   41.2370   23.3440   36.2850 C   0  0  0  0  0  0  0  0  0  0  0  0
   42.3160   22.4990   36.1440 C   0  0  0  0  0  0  0  0  0  0  0  0
   42.1200   21.4460   36.9820 N   0  0  0  0  0  0  0  0  0  0  0  0
   40.9750   21.6220   37.6140 N   0  0  0  0  0  0  0  0  0  0  0  0
   37.0736   23.4513   37.1275 H   0  0  0  0  0  0  0  0  0  0  0  0
   38.3147   25.9229   32.7272 H   0  0  0  0  0  0  0  0  0  0  0  0
   38.1123   23.7394   33.9327 H   0  0  0  0  0  0  0  0  0  0  0  0
   38.4872   27.9938   36.4283 H   0  0  0  0  0  0  0  0  0  0  0  0
   38.1885   21.2871   36.3484 H   0  0  0  0  0  0  0  0  0  0  0  0
   37.2381   22.1734   35.1083 H   0  0  0  0  0  0  0  0  0  0  0  0
   39.0315   22.2760   35.1083 H   0  0  0  0  0  0  0  0  0  0  0  0
   39.2572   24.2345   38.2240 H   0  0  0  0  0  0  0  0  0  0  0  0
   38.7374   22.5091   38.4580 H   0  0  0  0  0  0  0  0  0  0  0  0
   41.0791   24.2928   35.7512 H   0  0  0  0  0  0  0  0  0  0  0  0
   43.1774   22.6485   35.4765 H   0  0  0  0  0  0  0  0  0  0  0  0
   42.7576   20.6462   37.1030 H   0  0  0  0  0  0  0  0  0  0  0  0
  1  9  1  0
  2  3  2  0
  2  7  1  0
  3  4  1  0
  4  5  2  0
  4  1  1  0
  6  5  1  0
  7  6  2  0
  8  1  1  0
 10 14  2  0
 10  9  1  0
 11 10  1  0
 12 11  2  0
 12 13  1  0
 13 14  1  0
  1 15  1  1
  2 16  1  0
  3 17  1  0
  6 18  1  0
  8 19  1  0
  8 20  1  0
  8 21  1  0
  9 22  1  0
  9 23  1  0
 11 24  1  0
 12 25  1  0
 13 26  1  0
M  ISO  8  15   8  16  14  17  14  18  14  19   8  20   8  21   8  22   8
M  ISO  4  23   8  24  14  25  14  26   9
M  END
>  <minimizedAffinity>  (1) 
-3.66508627

>  <minimizedRMSD>  (1) 
4.51291609

$$$$
