
     RDKit          3D

 30 32  0  0  0  0  0  0  0  0999 V2000
   37.8130   27.6320   35.6090 C   0  0  0  0  0  0  0  0  0  0  0  0
   37.0900   27.4850   34.4270 C   0  0  0  0  0  0  0  0  0  0  0  0
   37.1060   26.2660   33.7460 C   0  0  0  0  0  0  0  0  0  0  0  0
   37.8480   25.2650   34.2940 N   0  0  0  0  0  0  0  0  0  0  0  0
   38.5440   25.4300   35.4480 C   0  0  0  0  0  0  0  0  0  0  0  0
   38.5190   26.6090   36.0920 N   0  0  0  0  0  0  0  0  0  0  0  0
   36.2910   28.5280   33.8290 C   0  0  0  0  0  0  0  0  0  0  0  0
   35.7000   29.5940   34.4800 C   0  0  0  0  0  0  0  0  0  0  0  0
   34.9890   30.4780   33.7480 C   0  0  0  0  0  0  0  0  0  0  0  0
   34.8910   30.2630   32.3680 C   0  0  0  0  0  0  0  0  0  0  0  0
   35.8680   28.7190   32.1110 S   0  0  0  0  0  0  0  0  0  0  0  0
   34.2600   30.9360   31.3080 C   0  0  0  0  0  0  0  0  0  0  0  0
   33.0330   31.0340   31.2610 O   0  0  0  0  0  0  0  0  0  0  0  0
   34.9890   31.5330   30.2450 N   0  0  0  0  0  0  0  0  0  0  0  0
   39.3360   24.3360   36.0190 C   0  0  0  0  0  0  0  0  0  0  0  0
   38.9030   23.7810   37.2290 C   0  0  0  0  0  0  0  0  0  0  0  0
   39.6430   22.7440   37.7810 C   0  0  0  0  0  0  0  0  0  0  0  0
   40.7650   22.3370   37.0850 C   0  0  0  0  0  0  0  0  0  0  0  0
   41.1950   22.8740   35.9010 C   0  0  0  0  0  0  0  0  0  0  0  0
   40.4410   23.8820   35.4020 N   0  0  0  0  0  0  0  0  0  0  0  0
   37.8014   28.5929   36.1443 H   0  0  0  0  0  0  0  0  0  0  0  0
   36.5454   26.1215   32.8107 H   0  0  0  0  0  0  0  0  0  0  0  0
   35.8062   29.7192   35.5677 H   0  0  0  0  0  0  0  0  0  0  0  0
   34.5008   31.3422   34.2221 H   0  0  0  0  0  0  0  0  0  0  0  0
   34.4890   32.0176   29.4860 H   0  0  0  0  0  0  0  0  0  0  0  0
   36.0176   31.4813   30.2332 H   0  0  0  0  0  0  0  0  0  0  0  0
   37.9989   24.1572   37.7301 H   0  0  0  0  0  0  0  0  0  0  0  0
   39.3496   22.2685   38.7285 H   0  0  0  0  0  0  0  0  0  0  0  0
   41.3593   21.5176   37.5156 H   0  0  0  0  0  0  0  0  0  0  0  0
   42.0967   22.5093   35.3873 H   0  0  0  0  0  0  0  0  0  0  0  0
  1  6  2  0
  2  1  1  0
  3  4  1  0
  3  2  2  0
  4  5  2  0
  5 15  1  0
  5  6  1  0
  7  2  1  0
  7  8  2  0
  9  8  1  0
 10  9  2  0
 11 10  1  0
 11  7  1  0
 12 10  1  0
 13 12  2  0
 14 12  1  0
 15 16  2  0
 16 17  1  0
 18 17  2  0
 19 18  1  0
 20 19  2  0
 20 15  1  0
  1 21  1  0
  3 22  1  0
  8 23  1  0
  9 24  1  0
 14 25  1  0
 14 26  1  0
 16 27  1  0
 17 28  1  0
 18 29  1  0
 19 30  1  0
M  ISO  8  21  14  22  14  23  14  24  14  27  14  28  14  29  14  30  14
M  END
>  <minimizedAffinity>  (1) 
-5.05536079

>  <minimizedRMSD>  (1) 
4.07064724

$$$$
