
     RDKit          3D

 42 45  0  0  1  0  0  0  0  0999 V2000
   43.2030   23.0820   34.0560 C   0  0  1  0  0  0  0  0  0  0  0  0
   42.5850   22.3710   32.8840 C   0  0  0  0  0  0  0  0  0  0  0  0
   42.9530   22.9410   31.5590 C   0  0  0  0  0  0  0  0  0  0  0  0
   43.0030   24.4410   31.5900 C   0  0  0  0  0  0  0  0  0  0  0  0
   42.2770   24.9790   32.7700 C   0  0  0  0  0  0  0  0  0  0  0  0
   42.9330   24.5620   34.0540 C   0  0  2  0  0  0  0  0  0  0  0  0
   42.6200   21.0030   36.9990 C   0  0  0  0  0  0  0  0  0  0  0  0
   41.4090   21.4720   37.4970 C   0  0  0  0  0  0  0  0  0  0  0  0
   40.7780   22.5060   36.8300 C   0  0  0  0  0  0  0  0  0  0  0  0
   41.3870   23.0090   35.7100 N   0  0  0  0  0  0  0  0  0  0  0  0
   42.5530   22.5250   35.2690 C   0  0  0  0  0  0  0  0  0  0  0  0
   43.1640   21.5390   35.8970 N   0  0  0  0  0  0  0  0  0  0  0  0
   39.5010   23.0010   37.3480 C   0  0  0  0  0  0  0  0  0  0  0  0
   38.5910   23.7560   36.5990 C   0  0  0  0  0  0  0  0  0  0  0  0
   37.5490   24.0060   37.4420 N   0  0  0  0  0  0  0  0  0  0  0  0
   37.8470   23.4240   38.6160 C   0  0  0  0  0  0  0  0  0  0  0  0
   39.0050   22.8140   38.5990 N   0  0  0  0  0  0  0  0  0  0  0  0
   44.1110   25.3900   34.4090 C   0  0  0  0  0  0  0  0  0  0  0  0
   44.1910   26.7510   34.2530 C   0  0  0  0  0  0  0  0  0  0  0  0
   45.2650   27.5300   34.5840 C   0  0  0  0  0  0  0  0  0  0  0  0
   46.3800   26.9440   35.1220 C   0  0  0  0  0  0  0  0  0  0  0  0
   46.3180   25.5770   35.2870 C   0  0  0  0  0  0  0  0  0  0  0  0
   45.2430   24.8460   34.9490 N   0  0  0  0  0  0  0  0  0  0  0  0
   44.2929   22.9381   34.0175 H   0  0  0  0  0  0  0  0  0  0  0  0
   42.9085   21.3200   32.9089 H   0  0  0  0  0  0  0  0  0  0  0  0
   41.4956   22.4851   32.9847 H   0  0  0  0  0  0  0  0  0  0  0  0
   42.2059   22.6252   30.8160 H   0  0  0  0  0  0  0  0  0  0  0  0
   43.9549   22.5716   31.2951 H   0  0  0  0  0  0  0  0  0  0  0  0
   44.0534   24.7640   31.6372 H   0  0  0  0  0  0  0  0  0  0  0  0
   42.5197   24.8244   30.6793 H   0  0  0  0  0  0  0  0  0  0  0  0
   42.2669   26.0775   32.7136 H   0  0  0  0  0  0  0  0  0  0  0  0
   41.2528   24.5779   32.7585 H   0  0  0  0  0  0  0  0  0  0  0  0
   42.2211   24.7578   34.8694 H   0  0  0  0  0  0  0  0  0  0  0  0
   43.1381   20.1818   37.5159 H   0  0  0  0  0  0  0  0  0  0  0  0
   40.9634   21.0306   38.4007 H   0  0  0  0  0  0  0  0  0  0  0  0
   38.6945   24.0790   35.5526 H   0  0  0  0  0  0  0  0  0  0  0  0
   37.1886   23.4567   39.4966 H   0  0  0  0  0  0  0  0  0  0  0  0
   39.4482   22.2991   39.3732 H   0  0  0  0  0  0  0  0  0  0  0  0
   43.3149   27.2596   33.8244 H   0  0  0  0  0  0  0  0  0  0  0  0
   45.2338   28.6172   34.4197 H   0  0  0  0  0  0  0  0  0  0  0  0
   47.2687   27.5274   35.4045 H   0  0  0  0  0  0  0  0  0  0  0  0
   47.1896   25.0605   35.7155 H   0  0  0  0  0  0  0  0  0  0  0  0
  1 11  1  0
  2  1  1  0
  3  4  1  0
  3  2  1  0
  4  5  1  0
  5  6  1  0
  6  1  1  0
  6 18  1  0
  7  8  2  0
  9 13  1  0
  9  8  1  0
 10  9  2  0
 11 10  1  0
 11 12  2  0
 12  7  1  0
 13 17  1  0
 14 13  2  0
 14 15  1  0
 15 16  2  0
 17 16  1  0
 18 23  1  0
 19 18  2  0
 19 20  1  0
 20 21  2  0
 21 22  1  0
 23 22  2  0
  1 24  1  1
  2 25  1  0
  2 26  1  0
  3 27  1  0
  3 28  1  0
  4 29  1  0
  4 30  1  0
  5 31  1  0
  5 32  1  0
  6 33  1  1
  7 34  1  0
  8 35  1  0
 14 36  1  0
 16 37  1  0
 17 38  1  0
 19 39  1  0
 20 40  1  0
 21 41  1  0
 22 42  1  0
M  ISO  8  24  13  25  13  26  13  27  13  28  13  29  13  30  13  31  13
M  ISO  8  32  13  33  13  34  14  35  14  36  14  37  14  38   9  39  14
M  ISO  3  40  14  41  14  42  14
M  END
>  <minimizedAffinity>  (1) 
-4.57712269

>  <minimizedRMSD>  (1) 
2.23032475

$$$$
