
     RDKit          3D

 31 33  0  0  1  0  0  0  0  0999 V2000
   37.7380   25.4590   34.3600 N   0  0  0  0  0  0  0  0  0  0  0  0
   37.1380   25.4280   33.0670 C   0  0  0  0  0  0  0  0  0  0  0  0
   36.8320   26.8590   32.7200 C   0  0  0  0  0  0  0  0  0  0  0  0
   37.2120   27.6470   33.9750 C   0  0  0  0  0  0  0  0  0  0  0  0
   38.3250   26.7500   34.4690 C   0  0  2  0  0  0  0  0  0  0  0  0
   39.6030   26.9440   33.7470 C   0  0  0  0  0  0  0  0  0  0  0  0
   39.6910   27.1560   32.2490 C   0  0  0  0  0  0  0  0  0  0  0  0
   41.4120   27.3110   32.0290 S   0  0  0  0  0  0  0  0  0  0  0  0
   41.8340   27.0900   33.8530 C   0  0  0  0  0  0  0  0  0  0  0  0
   40.6300   26.9060   34.5640 N   0  0  0  0  0  0  0  0  0  0  0  0
   38.7190   24.4550   34.6160 C   0  0  0  0  0  0  0  0  0  0  0  0
   37.9370   24.1320   38.3130 C   0  0  0  0  0  0  0  0  0  0  0  0
   37.8390   24.5350   36.9790 C   0  0  0  0  0  0  0  0  0  0  0  0
   38.7710   24.0590   36.0600 C   0  0  0  0  0  0  0  0  0  0  0  0
   39.7530   23.2080   36.5130 N   0  0  0  0  0  0  0  0  0  0  0  0
   39.8080   22.8430   37.8200 C   0  0  0  0  0  0  0  0  0  0  0  0
   38.9010   23.3080   38.7070 N   0  0  0  0  0  0  0  0  0  0  0  0
   37.8340   24.9966   32.3325 H   0  0  0  0  0  0  0  0  0  0  0  0
   36.2299   24.8073   33.0580 H   0  0  0  0  0  0  0  0  0  0  0  0
   37.4320   27.1870   31.8584 H   0  0  0  0  0  0  0  0  0  0  0  0
   35.7790   27.0049   32.4373 H   0  0  0  0  0  0  0  0  0  0  0  0
   37.5696   28.6597   33.7370 H   0  0  0  0  0  0  0  0  0  0  0  0
   36.3959   27.8354   34.6881 H   0  0  0  0  0  0  0  0  0  0  0  0
   38.6544   26.9618   35.4970 H   0  0  0  0  0  0  0  0  0  0  0  0
   38.8850   27.2001   31.5017 H   0  0  0  0  0  0  0  0  0  0  0  0
   42.8445   27.1024   34.2875 H   0  0  0  0  0  0  0  0  0  0  0  0
   38.4789   23.5657   34.0147 H   0  0  0  0  0  0  0  0  0  0  0  0
   39.7013   24.8712   34.3479 H   0  0  0  0  0  0  0  0  0  0  0  0
   37.2059   24.5022   39.0468 H   0  0  0  0  0  0  0  0  0  0  0  0
   37.0380   25.2178   36.6593 H   0  0  0  0  0  0  0  0  0  0  0  0
   40.6006   22.1605   38.1606 H   0  0  0  0  0  0  0  0  0  0  0  0
  1  5  1  0
  1 11  1  0
  2  1  1  0
  3  2  1  0
  3  4  1  0
  4  5  1  0
  6  5  1  0
  6 10  1  0
  7  6  2  0
  8  7  1  0
  8  9  1  0
  9 10  2  0
 11 14  1  0
 12 17  2  0
 13 12  1  0
 14 15  1  0
 14 13  2  0
 15 16  2  0
 16 17  1  0
  2 18  1  0
  2 19  1  0
  3 20  1  0
  3 21  1  0
  4 22  1  0
  4 23  1  0
  5 24  1  1
  7 25  1  0
  9 26  1  0
 11 27  1  0
 11 28  1  0
 12 29  1  0
 13 30  1  0
 16 31  1  0
M  ISO  8  18  13  19  13  20  13  21  13  22  13  23  13  24  13  25  14
M  ISO  6  26  14  27   8  28   8  29  14  30  14  31  14
M  END
>  <minimizedAffinity>  (1) 
-4.36964655

>  <minimizedRMSD>  (1) 
0.624500751

$$$$
