
     RDKit          3D

 26 27  0  0  0  0  0  0  0  0999 V2000
   43.1290   23.3290   36.5200 C   0  0  0  0  0  0  0  0  0  0  0  0
   41.7330   23.0870   36.3990 C   0  0  0  0  0  0  0  0  0  0  0  0
   41.1960   24.0600   35.6190 C   0  0  0  0  0  0  0  0  0  0  0  0
   41.9080   25.0990   35.0530 N   0  0  0  0  0  0  0  0  0  0  0  0
   43.2150   25.2380   35.2270 C   0  0  0  0  0  0  0  0  0  0  0  0
   43.8300   24.3360   35.9730 N   0  0  0  0  0  0  0  0  0  0  0  0
   41.2340   21.9500   37.0800 C   0  0  0  0  0  0  0  0  0  0  0  0
   40.4850   22.3400   38.2500 F   0  0  0  0  0  0  0  0  0  0  0  0
   42.0340   21.1760   37.8360 F   0  0  0  0  0  0  0  0  0  0  0  0
   40.1020   21.3150   36.5540 F   0  0  0  0  0  0  0  0  0  0  0  0
   39.7970   23.9040   35.4200 C   0  0  0  0  0  0  0  0  0  0  0  0
   39.0000   25.0780   35.6770 C   0  0  0  0  0  0  0  0  0  0  0  0
   37.7540   24.6900   36.4860 C   0  0  0  0  0  0  0  0  0  0  0  0
   38.0150   24.3610   37.9300 C   0  0  0  0  0  0  0  0  0  0  0  0
   37.5750   23.2970   36.9490 C   0  0  0  0  0  0  0  0  0  0  0  0
   43.6983   22.6117   37.1294 H   0  0  0  0  0  0  0  0  0  0  0  0
   43.7666   26.0718   34.7683 H   0  0  0  0  0  0  0  0  0  0  0  0
   39.6344   23.6061   34.3737 H   0  0  0  0  0  0  0  0  0  0  0  0
   39.4696   23.1500   36.1509 H   0  0  0  0  0  0  0  0  0  0  0  0
   39.5948   25.8060   36.2481 H   0  0  0  0  0  0  0  0  0  0  0  0
   38.6894   25.5242   34.7208 H   0  0  0  0  0  0  0  0  0  0  0  0
   37.1025   25.3747   35.9232 H   0  0  0  0  0  0  0  0  0  0  0  0
   39.0432   24.3623   38.3209 H   0  0  0  0  0  0  0  0  0  0  0  0
   37.6515   24.7346   38.8987 H   0  0  0  0  0  0  0  0  0  0  0  0
   36.5647   22.8679   37.0210 H   0  0  0  0  0  0  0  0  0  0  0  0
   37.9697   22.3189   36.6366 H   0  0  0  0  0  0  0  0  0  0  0  0
  2  1  2  0
  2  7  1  0
  3  2  1  0
  4  5  1  0
  4  3  2  0
  5  6  2  0
  6  1  1  0
  7  9  1  0
  7  8  1  0
 10  7  1  0
 11  3  1  0
 11 12  1  0
 12 13  1  0
 13 15  1  0
 13 14  1  0
 15 14  1  0
  1 16  1  0
  5 17  1  0
 11 18  1  0
 11 19  1  0
 12 20  1  0
 12 21  1  0
 13 22  1  0
 14 23  1  0
 14 24  1  0
 15 25  1  0
 15 26  1  0
M  ISO  8  16  14  17  14  18   8  19   8  20   8  21   8  22  13  23  13
M  ISO  3  24  13  25  13  26  13
M  END
>  <minimizedAffinity>  (1) 
-3.84690619

>  <minimizedRMSD>  (1) 
3.07995081

$$$$
