
     RDKit          3D

 29 31  0  0  1  0  0  0  0  0999 V2000
   39.8980   23.5740   35.9320 C   0  0  1  0  0  0  0  0  0  0  0  0
   41.3910   23.5990   35.8940 C   0  0  0  0  0  0  0  0  0  0  0  0
   41.8430   22.6490   37.0020 C   0  0  1  0  0  0  0  0  0  0  0  0
   40.5830   21.9720   37.4820 C   0  0  0  0  0  0  0  0  0  0  0  0
   39.6280   23.1600   37.3820 C   0  0  0  0  0  0  0  0  0  0  0  0
   37.8870   25.0960   35.7720 C   0  0  0  0  0  0  0  0  0  0  0  0
   39.2460   24.8420   35.5820 C   0  0  0  0  0  0  0  0  0  0  0  0
   40.0460   25.8640   35.0050 C   0  0  0  0  0  0  0  0  0  0  0  0
   39.4640   27.0340   34.6660 N   0  0  0  0  0  0  0  0  0  0  0  0
   38.1360   27.2490   34.8650 C   0  0  0  0  0  0  0  0  0  0  0  0
   37.3840   26.2810   35.4110 N   0  0  0  0  0  0  0  0  0  0  0  0
   42.8580   21.6890   36.5120 C   0  0  0  0  0  0  0  0  0  0  0  0
   43.8870   22.0680   35.5200 C   0  0  0  0  0  0  0  0  0  0  0  0
   44.7860   20.5260   35.3380 S   0  0  0  0  0  0  0  0  0  0  0  0
   43.7020   19.6170   36.5700 C   0  0  0  0  0  0  0  0  0  0  0  0
   42.8860   20.4310   36.9490 N   0  0  0  0  0  0  0  0  0  0  0  0
   39.4771   22.8967   35.1743 H   0  0  0  0  0  0  0  0  0  0  0  0
   41.7566   23.2514   34.9165 H   0  0  0  0  0  0  0  0  0  0  0  0
   41.7862   24.6150   36.0409 H   0  0  0  0  0  0  0  0  0  0  0  0
   42.3407   23.1802   37.8267 H   0  0  0  0  0  0  0  0  0  0  0  0
   40.2824   21.1434   36.8239 H   0  0  0  0  0  0  0  0  0  0  0  0
   40.6468   21.4953   38.4713 H   0  0  0  0  0  0  0  0  0  0  0  0
   39.8887   23.9580   38.0927 H   0  0  0  0  0  0  0  0  0  0  0  0
   38.5769   22.9393   37.6198 H   0  0  0  0  0  0  0  0  0  0  0  0
   37.2355   24.3282   36.2148 H   0  0  0  0  0  0  0  0  0  0  0  0
   41.1214   25.7049   34.8372 H   0  0  0  0  0  0  0  0  0  0  0  0
   37.6816   28.2095   34.5804 H   0  0  0  0  0  0  0  0  0  0  0  0
   44.0560   23.0361   35.0259 H   0  0  0  0  0  0  0  0  0  0  0  0
   43.7881   18.5661   36.8832 H   0  0  0  0  0  0  0  0  0  0  0  0
  1  5  1  0
  2  1  1  0
  2  3  1  0
  3  4  1  0
  5  4  1  0
  7  6  2  0
  7  1  1  0
  8  7  1  0
  9 10  1  0
  9  8  2  0
 10 11  2  0
 11  6  1  0
 12 16  1  0
 12  3  1  0
 13 12  2  0
 14 13  1  0
 14 15  1  0
 15 16  2  0
  1 17  1  6
  2 18  1  0
  2 19  1  0
  3 20  1  1
  4 21  1  0
  4 22  1  0
  5 23  1  0
  5 24  1  0
  6 25  1  0
  8 26  1  0
 10 27  1  0
 13 28  1  0
 15 29  1  0
M  ISO  8  17  13  18  13  19  13  20  13  21  13  22  13  23  13  24  13
M  ISO  5  25  14  26  14  27  14  28  14  29  14
M  END
>  <minimizedAffinity>  (1) 
-3.85949802

>  <minimizedRMSD>  (1) 
0.552907884

$$$$
