
     RDKit          3D

 24 26  0  0  0  0  0  0  0  0999 V2000
   39.4340   22.8740   37.2740 C   0  0  0  0  0  0  0  0  0  0  0  0
   38.5660   23.6570   36.5270 C   0  0  0  0  0  0  0  0  0  0  0  0
   37.6500   24.1240   37.4090 N   0  0  0  0  0  0  0  0  0  0  0  0
   37.9680   23.6330   38.6310 C   0  0  0  0  0  0  0  0  0  0  0  0
   39.0480   22.8720   38.5700 N   0  0  0  0  0  0  0  0  0  0  0  0
   42.5440   20.8130   37.0410 C   0  0  0  0  0  0  0  0  0  0  0  0
   41.4390   21.4910   37.5600 C   0  0  0  0  0  0  0  0  0  0  0  0
   40.5790   22.1750   36.7050 C   0  0  0  0  0  0  0  0  0  0  0  0
   40.8590   22.1570   35.3540 N   0  0  0  0  0  0  0  0  0  0  0  0
   41.9330   21.4920   34.8980 C   0  0  0  0  0  0  0  0  0  0  0  0
   42.7560   20.8370   35.7130 N   0  0  0  0  0  0  0  0  0  0  0  0
   38.5290   23.9880   35.1070 C   0  0  0  0  0  0  0  0  0  0  0  0
   39.0210   24.9930   34.2970 C   0  0  0  0  0  0  0  0  0  0  0  0
   38.6400   24.7440   32.9960 C   0  0  0  0  0  0  0  0  0  0  0  0
   37.9160   23.5740   33.0610 C   0  0  0  0  0  0  0  0  0  0  0  0
   37.8700   23.1580   34.3050 O   0  0  0  0  0  0  0  0  0  0  0  0
   37.4029   23.8398   39.5518 H   0  0  0  0  0  0  0  0  0  0  0  0
   39.5028   22.3781   39.3511 H   0  0  0  0  0  0  0  0  0  0  0  0
   43.2295   20.2685   37.7070 H   0  0  0  0  0  0  0  0  0  0  0  0
   41.2482   21.4847   38.6433 H   0  0  0  0  0  0  0  0  0  0  0  0
   42.1387   21.4887   33.8174 H   0  0  0  0  0  0  0  0  0  0  0  0
   39.6193   25.8519   34.6351 H   0  0  0  0  0  0  0  0  0  0  0  0
   38.8644   25.3463   32.1033 H   0  0  0  0  0  0  0  0  0  0  0  0
   37.4490   23.0671   32.2037 H   0  0  0  0  0  0  0  0  0  0  0  0
  1  5  1  0
  2  1  2  0
  2  3  1  0
  3  4  2  0
  5  4  1  0
  6  7  2  0
  8  1  1  0
  8  7  1  0
  9  8  2  0
 10  9  1  0
 10 11  2  0
 11  6  1  0
 12  2  1  0
 13 12  2  0
 14 15  2  0
 14 13  1  0
 15 16  1  0
 16 12  1  0
  4 17  1  0
  5 18  1  0
  6 19  1  0
  7 20  1  0
 10 21  1  0
 13 22  1  0
 14 23  1  0
 15 24  1  0
M  ISO  8  17  14  18   9  19  14  20  14  21  14  22  14  23  14  24  14
M  END
>  <minimizedAffinity>  (1) 
-4.47678089

>  <minimizedRMSD>  (1) 
0.354330838

$$$$
