
     RDKit          3D

 32 35  0  0  0  0  0  0  0  0999 V2000
   40.4840   21.9700   37.1820 O   0  0  0  0  0  0  0  0  0  0  0  0
   41.7650   22.1070   36.7180 C   0  0  0  0  0  0  0  0  0  0  0  0
   42.3170   23.2480   36.1700 C   0  0  0  0  0  0  0  0  0  0  0  0
   43.6030   23.0380   35.8160 N   0  0  0  0  0  0  0  0  0  0  0  0
   43.9450   21.7580   36.1150 C   0  0  0  0  0  0  0  0  0  0  0  0
   45.1120   21.0370   35.9650 C   0  0  0  0  0  0  0  0  0  0  0  0
   45.1560   19.7060   36.3790 C   0  0  0  0  0  0  0  0  0  0  0  0
   44.0300   19.1220   36.9360 C   0  0  0  0  0  0  0  0  0  0  0  0
   42.8570   19.8670   37.0800 C   0  0  0  0  0  0  0  0  0  0  0  0
   42.8080   21.1960   36.6690 C   0  0  0  0  0  0  0  0  0  0  0  0
   39.5460   22.9520   37.2640 C   0  0  0  0  0  0  0  0  0  0  0  0
   39.0300   23.2240   38.5360 C   0  0  0  0  0  0  0  0  0  0  0  0
   38.0640   24.2340   38.6310 C   0  0  0  0  0  0  0  0  0  0  0  0
   37.6840   24.8850   37.5160 N   0  0  0  0  0  0  0  0  0  0  0  0
   38.2040   24.5970   36.3040 C   0  0  0  0  0  0  0  0  0  0  0  0
   39.1250   23.6400   36.1760 N   0  0  0  0  0  0  0  0  0  0  0  0
   37.8260   25.2730   35.0650 C   0  0  0  0  0  0  0  0  0  0  0  0
   37.4300   26.6040   35.1370 C   0  0  0  0  0  0  0  0  0  0  0  0
   37.1260   27.0130   33.8390 C   0  0  0  0  0  0  0  0  0  0  0  0
   37.3620   25.8820   33.0490 C   0  0  0  0  0  0  0  0  0  0  0  0
   37.7720   24.8850   33.8150 O   0  0  0  0  0  0  0  0  0  0  0  0
   41.7812   24.1998   36.0394 H   0  0  0  0  0  0  0  0  0  0  0  0
   44.2258   23.7375   35.3873 H   0  0  0  0  0  0  0  0  0  0  0  0
   46.0014   21.5088   35.5219 H   0  0  0  0  0  0  0  0  0  0  0  0
   46.0811   19.1222   36.2637 H   0  0  0  0  0  0  0  0  0  0  0  0
   44.0595   18.0726   37.2646 H   0  0  0  0  0  0  0  0  0  0  0  0
   41.9647   19.3995   37.5218 H   0  0  0  0  0  0  0  0  0  0  0  0
   39.3684   22.6686   39.4231 H   0  0  0  0  0  0  0  0  0  0  0  0
   37.6216   24.4918   39.6046 H   0  0  0  0  0  0  0  0  0  0  0  0
   37.3682   27.2188   36.0470 H   0  0  0  0  0  0  0  0  0  0  0  0
   36.7784   28.0033   33.5096 H   0  0  0  0  0  0  0  0  0  0  0  0
   37.2272   25.8304   31.9585 H   0  0  0  0  0  0  0  0  0  0  0  0
  1 11  1  0
  2  1  1  0
  3  2  2  0
  4  5  1  0
  4  3  1  0
  5 10  2  0
  6  5  1  0
  6  7  2  0
  7  8  1  0
  8  9  2  0
 10  2  1  0
 10  9  1  0
 11 12  2  0
 12 13  1  0
 14 13  2  0
 15 14  1  0
 16 15  2  0
 16 11  1  0
 17 18  2  0
 17 15  1  0
 19 18  1  0
 20 21  1  0
 20 19  2  0
 21 17  1  0
  3 22  1  0
  4 23  1  0
  6 24  1  0
  7 25  1  0
  8 26  1  0
  9 27  1  0
 12 28  1  0
 13 29  1  0
 18 30  1  0
 19 31  1  0
 20 32  1  0
M  ISO  8  22  14  23   9  24  14  25  14  26  14  27  14  28  14  29  14
M  ISO  3  30  14  31  14  32  14
M  END
>  <minimizedAffinity>  (1) 
-5.11646414

>  <minimizedRMSD>  (1) 
1.40142345

$$$$
