
     RDKit          3D

 33 35  0  0  1  0  0  0  0  0999 V2000
   37.9300   26.3530   35.9320 C   0  0  1  0  0  0  0  0  0  0  0  0
   38.7160   27.3000   35.0870 C   0  0  0  0  0  0  0  0  0  0  0  0
   37.4810   26.6550   34.5680 C   0  0  1  0  0  0  0  0  0  0  0  0
   37.6620   25.8800   33.3930 N   0  0  0  0  0  0  0  0  0  0  0  0
   37.4640   24.5490   33.2140 C   0  0  0  0  0  0  0  0  0  0  0  0
   37.6690   23.8800   32.0490 C   0  0  0  0  0  0  0  0  0  0  0  0
   38.1140   24.5930   30.9380 C   0  0  0  0  0  0  0  0  0  0  0  0
   38.3190   24.0250   29.8390 O   0  0  0  0  0  0  0  0  0  0  0  0
   38.3330   25.9270   31.0380 N   0  0  0  0  0  0  0  0  0  0  0  0
   38.0990   26.4910   32.2430 C   0  0  0  0  0  0  0  0  0  0  0  0
   38.3120   27.7490   32.3200 O   0  0  0  0  0  0  0  0  0  0  0  0
   38.7970   26.7450   29.9330 C   0  0  0  0  0  0  0  0  0  0  0  0
   40.3070   26.7710   29.8080 C   0  0  0  0  0  0  0  0  0  0  0  0
   38.5240   25.0560   36.3500 C   0  0  0  0  0  0  0  0  0  0  0  0
   37.8890   24.4030   37.4060 C   0  0  0  0  0  0  0  0  0  0  0  0
   38.3990   23.1890   37.8450 C   0  0  0  0  0  0  0  0  0  0  0  0
   39.5070   22.7040   37.2030 N   0  0  0  0  0  0  0  0  0  0  0  0
   40.0850   23.3740   36.1880 C   0  0  0  0  0  0  0  0  0  0  0  0
   39.6100   24.5410   35.7520 N   0  0  0  0  0  0  0  0  0  0  0  0
   37.4299   26.3791   36.9114 H   0  0  0  0  0  0  0  0  0  0  0  0
   38.7219   28.3749   35.3206 H   0  0  0  0  0  0  0  0  0  0  0  0
   39.7622   27.3704   34.7547 H   0  0  0  0  0  0  0  0  0  0  0  0
   36.4728   26.9087   34.2086 H   0  0  0  0  0  0  0  0  0  0  0  0
   37.1105   23.9674   34.0782 H   0  0  0  0  0  0  0  0  0  0  0  0
   37.4872   22.7970   31.9845 H   0  0  0  0  0  0  0  0  0  0  0  0
   38.3749   26.3448   28.9994 H   0  0  0  0  0  0  0  0  0  0  0  0
   38.4652   27.7760   30.1252 H   0  0  0  0  0  0  0  0  0  0  0  0
   40.7579   26.7788   30.8113 H   0  0  0  0  0  0  0  0  0  0  0  0
   40.6451   25.8785   29.2610 H   0  0  0  0  0  0  0  0  0  0  0  0
   40.6141   27.6746   29.2610 H   0  0  0  0  0  0  0  0  0  0  0  0
   37.0000   24.8421   37.8824 H   0  0  0  0  0  0  0  0  0  0  0  0
   37.9320   22.6387   38.6751 H   0  0  0  0  0  0  0  0  0  0  0  0
   40.9753   22.9459   35.7043 H   0  0  0  0  0  0  0  0  0  0  0  0
  1 14  1  0
  2  1  1  0
  3  2  1  0
  3  1  1  0
  4  3  1  0
  5  4  1  0
  6  5  2  0
  7  9  1  0
  7  6  1  0
  8  7  2  0
  9 10  1  0
 10 11  2  0
 10  4  1  0
 12  9  1  0
 13 12  1  0
 14 15  2  0
 15 16  1  0
 17 16  2  0
 18 17  1  0
 19 18  2  0
 19 14  1  0
  1 20  1  1
  2 21  1  0
  2 22  1  0
  3 23  1  1
  5 24  1  0
  6 25  1  0
 12 26  1  0
 12 27  1  0
 13 28  1  0
 13 29  1  0
 13 30  1  0
 15 31  1  0
 16 32  1  0
 18 33  1  0
M  ISO  8  20  13  21  13  22  13  23  13  24  14  25  14  26   8  27   8
M  ISO  6  28   8  29   8  30   8  31  14  32  14  33  14
M  END
>  <minimizedAffinity>  (1) 
-4.23966551

>  <minimizedRMSD>  (1) 
0.852359951

$$$$
