
     RDKit          3D

 32 34  0  0  0  0  0  0  0  0999 V2000
   39.4620   22.9230   36.5410 C   0  0  0  0  0  0  0  0  0  0  0  0
   39.9160   23.8180   35.5950 C   0  0  0  0  0  0  0  0  0  0  0  0
   41.2660   23.8910   35.3420 C   0  0  0  0  0  0  0  0  0  0  0  0
   42.1010   23.0740   36.0410 N   0  0  0  0  0  0  0  0  0  0  0  0
   41.6340   22.2150   36.9530 C   0  0  0  0  0  0  0  0  0  0  0  0
   40.3270   22.1240   37.2160 N   0  0  0  0  0  0  0  0  0  0  0  0
   41.9280   24.7370   34.4170 N   0  0  0  0  0  0  0  0  0  0  0  0
   42.4240   26.0680   34.6970 C   0  0  0  0  0  0  0  0  0  0  0  0
   41.7250   27.0660   33.7910 C   0  0  0  0  0  0  0  0  0  0  0  0
   41.0460   26.4010   32.7690 O   0  0  0  0  0  0  0  0  0  0  0  0
   41.9250   25.5480   32.1110 C   0  0  0  0  0  0  0  0  0  0  0  0
   42.2100   24.3800   33.0280 C   0  0  0  0  0  0  0  0  0  0  0  0
   38.0490   22.8860   36.7670 C   0  0  0  0  0  0  0  0  0  0  0  0
   37.4080   23.4420   37.6920 O   0  0  0  0  0  0  0  0  0  0  0  0
   37.2670   22.0800   35.7680 C   0  0  0  0  0  0  0  0  0  0  0  0
   36.1190   21.2560   36.1200 C   0  0  0  0  0  0  0  0  0  0  0  0
   35.5720   20.6180   35.0370 C   0  0  0  0  0  0  0  0  0  0  0  0
   36.0460   20.7400   33.7790 C   0  0  0  0  0  0  0  0  0  0  0  0
   37.5160   21.9430   34.0740 S   0  0  0  0  0  0  0  0  0  0  0  0
   39.2099   24.4630   35.0516 H   0  0  0  0  0  0  0  0  0  0  0  0
   42.3397   21.5704   37.4976 H   0  0  0  0  0  0  0  0  0  0  0  0
   42.2217   26.3217   35.7481 H   0  0  0  0  0  0  0  0  0  0  0  0
   43.5083   26.1025   34.5153 H   0  0  0  0  0  0  0  0  0  0  0  0
   41.0061   27.6516   34.3829 H   0  0  0  0  0  0  0  0  0  0  0  0
   42.4781   27.7324   33.3451 H   0  0  0  0  0  0  0  0  0  0  0  0
   41.4683   25.1878   31.1773 H   0  0  0  0  0  0  0  0  0  0  0  0
   42.8570   26.0758   31.8604 H   0  0  0  0  0  0  0  0  0  0  0  0
   41.5764   23.5291   32.7375 H   0  0  0  0  0  0  0  0  0  0  0  0
   43.2727   24.1102   32.9395 H   0  0  0  0  0  0  0  0  0  0  0  0
   35.7323   21.1563   37.1449 H   0  0  0  0  0  0  0  0  0  0  0  0
   34.6982   19.9706   35.2023 H   0  0  0  0  0  0  0  0  0  0  0  0
   35.6903   20.2795   32.8455 H   0  0  0  0  0  0  0  0  0  0  0  0
  1 13  1  0
  1  6  1  0
  2  1  2  0
  3  2  1  0
  3  4  2  0
  4  5  1  0
  5  6  2  0
  7  8  1  0
  7  3  1  0
  9  8  1  0
 10  9  1  0
 11 10  1  0
 11 12  1  0
 12  7  1  0
 13 14  2  0
 15 16  2  0
 15 13  1  0
 17 16  1  0
 18 19  1  0
 18 17  2  0
 19 15  1  0
  2 20  1  0
  5 21  1  0
  8 22  1  0
  8 23  1  0
  9 24  1  0
  9 25  1  0
 11 26  1  0
 11 27  1  0
 12 28  1  0
 12 29  1  0
 16 30  1  0
 17 31  1  0
 18 32  1  0
M  ISO  8  20  14  21  14  22  13  23  13  24  13  25  13  26  13  27  13
M  ISO  5  28  13  29  13  30  14  31  14  32  14
M  END
>  <minimizedAffinity>  (1) 
-4.31536102

>  <minimizedRMSD>  (1) 
3.82846761

$$$$
