
     RDKit          3D

 30 31  0  0  0  0  0  0  0  0999 V2000
   38.0880   21.1700   31.9160 C   0  0  0  0  0  0  0  0  0  0  0  0
   36.9910   21.4540   32.6810 C   0  0  0  0  0  0  0  0  0  0  0  0
   37.2470   21.8630   33.9680 C   0  0  0  0  0  0  0  0  0  0  0  0
   38.4900   22.0040   34.5270 C   0  0  0  0  0  0  0  0  0  0  0  0
   39.5840   21.7050   33.7150 C   0  0  0  0  0  0  0  0  0  0  0  0
   39.4020   21.2830   32.3940 C   0  0  0  0  0  0  0  0  0  0  0  0
   39.9520   22.7400   37.8040 C   0  0  0  0  0  0  0  0  0  0  0  0
   38.8720   23.3360   38.4980 C   0  0  0  0  0  0  0  0  0  0  0  0
   37.6620   23.4680   37.8120 C   0  0  0  0  0  0  0  0  0  0  0  0
   37.6090   23.0180   36.5380 N   0  0  0  0  0  0  0  0  0  0  0  0
   38.6740   22.4500   35.9070 C   0  0  0  0  0  0  0  0  0  0  0  0
   39.8390   22.3040   36.5180 N   0  0  0  0  0  0  0  0  0  0  0  0
   37.8720   20.6460   30.2790 S   0  0  0  0  0  0  0  0  0  0  0  0
   38.9630   21.0780   29.3570 O   0  0  0  0  0  0  0  0  0  0  0  0
   37.7720   19.1370   30.3170 O   0  0  0  0  0  0  0  0  0  0  0  0
   35.3430   21.3420   32.0860 S   0  0  0  0  0  0  0  0  0  0  0  0
   34.6270   19.7180   32.0470 C   0  0  0  0  0  0  0  0  0  0  0  0
   35.3880   18.7190   32.8820 C   0  0  0  0  0  0  0  0  0  0  0  0
   36.3801   22.0971   34.6034 H   0  0  0  0  0  0  0  0  0  0  0  0
   40.6026   21.8023   34.1186 H   0  0  0  0  0  0  0  0  0  0  0  0
   40.2621   21.0471   31.7502 H   0  0  0  0  0  0  0  0  0  0  0  0
   40.9162   22.6248   38.3208 H   0  0  0  0  0  0  0  0  0  0  0  0
   38.9810   23.6817   39.5366 H   0  0  0  0  0  0  0  0  0  0  0  0
   36.7827   23.9224   38.2919 H   0  0  0  0  0  0  0  0  0  0  0  0
   36.7392   21.2277   29.7737 H   0  0  0  0  0  0  0  0  0  0  0  0
   33.5965   19.7799   32.4269 H   0  0  0  0  0  0  0  0  0  0  0  0
   34.6597   19.3686   31.0045 H   0  0  0  0  0  0  0  0  0  0  0  0
   35.2251   18.9329   33.9486 H   0  0  0  0  0  0  0  0  0  0  0  0
   35.0325   17.7035   32.6532 H   0  0  0  0  0  0  0  0  0  0  0  0
   36.4615   18.7920   32.6532 H   0  0  0  0  0  0  0  0  0  0  0  0
  1  6  2  0
  1  2  1  0
  2  3  2  0
  3  4  1  0
  4 11  1  0
  5  4  2  0
  6  5  1  0
  7  8  2  0
  9  8  1  0
 10  9  2  0
 11 12  2  0
 11 10  1  0
 12  7  1  0
 13 15  2  0
 13  1  1  0
 14 13  2  0
 16  2  1  0
 17 16  1  0
 17 18  1  0
  3 19  1  0
  5 20  1  0
  6 21  1  0
  7 22  1  0
  8 23  1  0
  9 24  1  0
 13 25  1  0
 17 26  1  0
 17 27  1  0
 18 28  1  0
 18 29  1  0
 18 30  1  0
M  ISO  8  19  14  20  14  21  14  22  14  23  14  24  14  25  11  26   8
M  ISO  4  27   8  28   8  29   8  30   8
M  END
>  <minimizedAffinity>  (1) 
-4.20543528

>  <minimizedRMSD>  (1) 
1.05173671

$$$$
