
     RDKit          3D

 43 47  0  0  0  0  0  0  0  0999 V2000
   37.0090   21.8270   35.4290 C   0  0  0  0  0  0  0  0  0  0  0  0
   35.9120   21.0970   35.3100 C   0  0  0  0  0  0  0  0  0  0  0  0
   35.6640   20.3900   34.1670 C   0  0  0  0  0  0  0  0  0  0  0  0
   36.6150   20.4960   33.1810 C   0  0  0  0  0  0  0  0  0  0  0  0
   37.9070   21.6210   33.8670 S   0  0  0  0  0  0  0  0  0  0  0  0
   36.6300   19.8520   31.8320 C   0  0  0  0  0  0  0  0  0  0  0  0
   35.7220   18.8670   31.4390 C   0  0  0  0  0  0  0  0  0  0  0  0
   36.1130   18.5960   30.1770 N   0  0  0  0  0  0  0  0  0  0  0  0
   37.1720   19.3370   29.7970 C   0  0  0  0  0  0  0  0  0  0  0  0
   37.8620   19.3380   28.5620 C   0  0  0  0  0  0  0  0  0  0  0  0
   38.9250   20.2020   28.4330 C   0  0  0  0  0  0  0  0  0  0  0  0
   39.2680   21.0130   29.4850 C   0  0  0  0  0  0  0  0  0  0  0  0
   38.5760   20.9890   30.6760 C   0  0  0  0  0  0  0  0  0  0  0  0
   37.5240   20.1580   30.8560 C   0  0  0  0  0  0  0  0  0  0  0  0
   37.5210   22.6240   36.4250 O   0  0  0  0  0  0  0  0  0  0  0  0
   38.4890   23.5850   36.2440 C   0  0  0  0  0  0  0  0  0  0  0  0
   39.5830   23.1980   36.6550 O   0  0  0  0  0  0  0  0  0  0  0  0
   38.1380   27.1630   36.0200 C   0  0  0  0  0  0  0  0  0  0  0  0
   37.7770   27.4140   34.6830 C   0  0  0  0  0  0  0  0  0  0  0  0
   37.6510   26.2810   33.8170 C   0  0  0  0  0  0  0  0  0  0  0  0
   37.8870   25.0480   34.3490 N   0  0  0  0  0  0  0  0  0  0  0  0
   38.2300   24.8820   35.6430 C   0  0  0  0  0  0  0  0  0  0  0  0
   38.3560   25.9430   36.4830 N   0  0  0  0  0  0  0  0  0  0  0  0
   37.2920   26.4960   32.4590 C   0  0  0  0  0  0  0  0  0  0  0  0
   36.2280   27.0830   32.1740 O   0  0  0  0  0  0  0  0  0  0  0  0
   38.1110   26.0650   31.2810 C   0  0  0  0  0  0  0  0  0  0  0  0
   38.2470   24.7510   30.7490 C   0  0  0  0  0  0  0  0  0  0  0  0
   39.0470   24.7040   29.6690 C   0  0  0  0  0  0  0  0  0  0  0  0
   39.6710   25.7670   29.1200 C   0  0  0  0  0  0  0  0  0  0  0  0
   39.1400   27.1930   30.2090 S   0  0  0  0  0  0  0  0  0  0  0  0
   35.1915   21.0587   36.1403 H   0  0  0  0  0  0  0  0  0  0  0  0
   34.7603   19.7750   34.0442 H   0  0  0  0  0  0  0  0  0  0  0  0
   34.8957   18.4236   32.0139 H   0  0  0  0  0  0  0  0  0  0  0  0
   35.6536   17.9007   29.5718 H   0  0  0  0  0  0  0  0  0  0  0  0
   37.5607   18.6746   27.7379 H   0  0  0  0  0  0  0  0  0  0  0  0
   39.4955   20.2422   27.4934 H   0  0  0  0  0  0  0  0  0  0  0  0
   40.1189   21.7013   29.3745 H   0  0  0  0  0  0  0  0  0  0  0  0
   38.8841   21.6567   31.4941 H   0  0  0  0  0  0  0  0  0  0  0  0
   38.2431   28.0153   36.7075 H   0  0  0  0  0  0  0  0  0  0  0  0
   37.5993   28.4367   34.3191 H   0  0  0  0  0  0  0  0  0  0  0  0
   37.7501   23.8676   31.1764 H   0  0  0  0  0  0  0  0  0  0  0  0
   39.2049   23.7232   29.1967 H   0  0  0  0  0  0  0  0  0  0  0  0
   40.3335   25.7898   28.2421 H   0  0  0  0  0  0  0  0  0  0  0  0
  1 15  1  0
  2  1  2  0
  3  2  1  0
  4  5  1  0
  4  3  2  0
  5  1  1  0
  6  4  1  0
  7  6  2  0
  8  7  1  0
  9  8  1  0
  9 14  2  0
 10  9  1  0
 11 10  2  0
 11 12  1  0
 12 13  2  0
 13 14  1  0
 14  6  1  0
 16 15  1  0
 16 17  2  0
 18 23  2  0
 19 18  1  0
 20 21  1  0
 20 19  2  0
 21 22  2  0
 22 16  1  0
 22 23  1  0
 24 20  1  0
 25 24  2  0
 26 24  1  0
 27 26  2  0
 28 27  1  0
 29 28  2  0
 29 30  1  0
 30 26  1  0
  2 31  1  0
  3 32  1  0
  7 33  1  0
  8 34  1  0
 10 35  1  0
 11 36  1  0
 12 37  1  0
 13 38  1  0
 18 39  1  0
 19 40  1  0
 27 41  1  0
 28 42  1  0
 29 43  1  0
M  ISO  8  31  14  32  14  33  14  34   9  35  14  36  14  37  14  38  14
M  ISO  5  39  14  40  14  41  14  42  14  43  14
M  END
>  <minimizedAffinity>  (1) 
-5.46892166

>  <minimizedRMSD>  (1) 
0.586090982

$$$$
