
     RDKit          3D

 38 42  0  0  0  0  0  0  0  0999 V2000
   38.5740   23.7250   36.3850 C   0  0  0  0  0  0  0  0  0  0  0  0
   37.8330   23.5580   37.5560 C   0  0  0  0  0  0  0  0  0  0  0  0
   38.6420   23.0550   38.4950 N   0  0  0  0  0  0  0  0  0  0  0  0
   39.8820   22.8960   37.9590 C   0  0  0  0  0  0  0  0  0  0  0  0
   39.8030   23.3070   36.6920 N   0  0  0  0  0  0  0  0  0  0  0  0
   40.9450   23.2690   35.8440 C   0  0  0  0  0  0  0  0  0  0  0  0
   41.1340   22.1480   35.0600 C   0  0  0  0  0  0  0  0  0  0  0  0
   42.6920   22.5830   34.1830 S   0  0  0  0  0  0  0  0  0  0  0  0
   42.7920   24.2510   35.0760 C   0  0  0  0  0  0  0  0  0  0  0  0
   41.8640   24.1750   35.7030 N   0  0  0  0  0  0  0  0  0  0  0  0
   43.8020   25.2740   34.9340 N   0  0  0  0  0  0  0  0  0  0  0  0
   44.6730   25.9050   35.7690 C   0  0  0  0  0  0  0  0  0  0  0  0
   45.3580   26.7700   35.0130 N   0  0  0  0  0  0  0  0  0  0  0  0
   44.9570   26.7080   33.7470 C   0  0  0  0  0  0  0  0  0  0  0  0
   43.9880   25.7720   33.7140 N   0  0  0  0  0  0  0  0  0  0  0  0
   37.4830   23.8720   32.8860 C   0  0  0  0  0  0  0  0  0  0  0  0
   37.1850   25.2320   32.7270 C   0  0  0  0  0  0  0  0  0  0  0  0
   37.3630   26.0600   33.8150 C   0  0  0  0  0  0  0  0  0  0  0  0
   37.8140   25.5440   34.9850 N   0  0  0  0  0  0  0  0  0  0  0  0
   38.0990   24.2370   35.1320 C   0  0  0  0  0  0  0  0  0  0  0  0
   37.9350   23.3820   34.0750 N   0  0  0  0  0  0  0  0  0  0  0  0
   37.0690   27.4710   33.7260 C   0  0  0  0  0  0  0  0  0  0  0  0
   36.8340   28.1590   34.7340 O   0  0  0  0  0  0  0  0  0  0  0  0
   37.0610   28.0480   32.4180 C   0  0  0  0  0  0  0  0  0  0  0  0
   36.0870   28.8760   31.9620 C   0  0  0  0  0  0  0  0  0  0  0  0
   36.0370   29.4380   30.7510 C   0  0  0  0  0  0  0  0  0  0  0  0
   37.1400   29.0850   29.9270 C   0  0  0  0  0  0  0  0  0  0  0  0
   38.1680   27.9230   31.0660 S   0  0  0  0  0  0  0  0  0  0  0  0
   36.7674   23.7986   37.6845 H   0  0  0  0  0  0  0  0  0  0  0  0
   40.7745   22.5054   38.4697 H   0  0  0  0  0  0  0  0  0  0  0  0
   40.5188   21.2396   34.9810 H   0  0  0  0  0  0  0  0  0  0  0  0
   44.7900   25.7369   36.8498 H   0  0  0  0  0  0  0  0  0  0  0  0
   45.3377   27.2989   32.9009 H   0  0  0  0  0  0  0  0  0  0  0  0
   37.3497   23.1872   32.0356 H   0  0  0  0  0  0  0  0  0  0  0  0
   36.8213   25.6258   31.7664 H   0  0  0  0  0  0  0  0  0  0  0  0
   35.2627   29.1055   32.6533 H   0  0  0  0  0  0  0  0  0  0  0  0
   35.2256   30.1054   30.4251 H   0  0  0  0  0  0  0  0  0  0  0  0
   37.3532   29.3983   28.8943 H   0  0  0  0  0  0  0  0  0  0  0  0
  1  5  1  0
  1  2  2  0
  2  3  1  0
  4  3  2  0
  5  4  1  0
  6  5  1  0
  7  6  2  0
  8  7  1  0
  8  9  1  0
  9 10  2  0
 10  6  1  0
 11  9  1  0
 11 12  1  0
 13 12  2  0
 14 13  1  0
 15 14  2  0
 15 11  1  0
 16 21  2  0
 17 16  1  0
 17 18  2  0
 18 19  1  0
 19 20  2  0
 20  1  1  0
 21 20  1  0
 22 18  1  0
 22 23  2  0
 24 22  1  0
 25 24  2  0
 26 25  1  0
 27 26  2  0
 27 28  1  0
 28 24  1  0
  2 29  1  0
  4 30  1  0
  7 31  1  0
 12 32  1  0
 14 33  1  0
 16 34  1  0
 17 35  1  0
 25 36  1  0
 26 37  1  0
 27 38  1  0
M  ISO  8  29  14  30  14  31  14  32  14  33  14  34  14  35  14  36  14
M  ISO  2  37  14  38  14
M  END
>  <minimizedAffinity>  (1) 
-5.57317352

>  <minimizedRMSD>  (1) 
0.717234552

$$$$
