
     RDKit          3D

 38 42  0  0  1  0  0  0  0  0999 V2000
   38.4510   23.5300   32.4280 C   0  0  1  0  0  0  0  0  0  0  0  0
   39.6800   24.2550   32.1920 C   0  0  0  0  0  0  0  0  0  0  0  0
   38.9760   24.4520   33.5320 C   0  0  2  0  0  0  0  0  0  0  0  0
   39.7150   23.7960   34.6400 C   0  0  0  0  0  0  0  0  0  0  0  0
   40.9360   23.3570   34.2140 N   0  0  0  0  0  0  0  0  0  0  0  0
   41.7720   22.7680   35.1200 C   0  0  0  0  0  0  0  0  0  0  0  0
   41.4330   22.6000   36.4300 N   0  0  0  0  0  0  0  0  0  0  0  0
   40.2310   23.0310   36.8490 C   0  0  0  0  0  0  0  0  0  0  0  0
   39.7660   22.9090   38.1440 C   0  0  0  0  0  0  0  0  0  0  0  0
   38.5100   23.3680   38.4900 C   0  0  0  0  0  0  0  0  0  0  0  0
   37.6530   23.9700   37.5630 C   0  0  0  0  0  0  0  0  0  0  0  0
   38.1220   24.0900   36.2700 C   0  0  0  0  0  0  0  0  0  0  0  0
   39.3670   23.6280   35.9600 C   0  0  0  0  0  0  0  0  0  0  0  0
   36.0550   23.2800   31.6840 C   0  0  0  0  0  0  0  0  0  0  0  0
   35.0410   24.1060   31.2150 C   0  0  0  0  0  0  0  0  0  0  0  0
   35.6050   25.3380   31.1970 N   0  0  0  0  0  0  0  0  0  0  0  0
   36.8530   25.2230   31.6260 C   0  0  0  0  0  0  0  0  0  0  0  0
   37.1660   23.9540   31.9380 N   0  0  0  0  0  0  0  0  0  0  0  0
   35.9280   21.8390   31.8800 C   0  0  0  0  0  0  0  0  0  0  0  0
   35.5850   21.3210   33.1330 C   0  0  0  0  0  0  0  0  0  0  0  0
   35.4700   19.9350   33.2930 C   0  0  0  0  0  0  0  0  0  0  0  0
   35.6990   19.1730   32.2130 N   0  0  0  0  0  0  0  0  0  0  0  0
   36.0300   19.6850   31.0040 C   0  0  0  0  0  0  0  0  0  0  0  0
   36.1440   21.0120   30.8360 N   0  0  0  0  0  0  0  0  0  0  0  0
   38.2230   22.4667   32.2627 H   0  0  0  0  0  0  0  0  0  0  0  0
   40.6348   23.7102   32.1534 H   0  0  0  0  0  0  0  0  0  0  0  0
   40.0280   24.9365   31.4018 H   0  0  0  0  0  0  0  0  0  0  0  0
   38.5459   25.2710   34.1272 H   0  0  0  0  0  0  0  0  0  0  0  0
   42.7568   22.4156   34.7794 H   0  0  0  0  0  0  0  0  0  0  0  0
   40.4034   22.4409   38.9086 H   0  0  0  0  0  0  0  0  0  0  0  0
   38.1720   23.2562   39.5308 H   0  0  0  0  0  0  0  0  0  0  0  0
   36.6541   24.3303   37.8501 H   0  0  0  0  0  0  0  0  0  0  0  0
   37.4954   24.5553   35.4949 H   0  0  0  0  0  0  0  0  0  0  0  0
   34.0177   23.8250   30.9254 H   0  0  0  0  0  0  0  0  0  0  0  0
   37.5517   26.0678   31.7163 H   0  0  0  0  0  0  0  0  0  0  0  0
   35.4075   21.9954   33.9837 H   0  0  0  0  0  0  0  0  0  0  0  0
   35.2033   19.4898   34.2629 H   0  0  0  0  0  0  0  0  0  0  0  0
   36.2066   19.0093   30.1541 H   0  0  0  0  0  0  0  0  0  0  0  0
  1  3  1  0
  2  1  1  0
  2  3  1  0
  3  4  1  0
  4 13  1  0
  5  4  2  0
  5  6  1  0
  6  7  2  0
  7  8  1  0
  8  9  2  0
  9 10  1  0
 11 10  2  0
 12 11  1  0
 13 12  2  0
 13  8  1  0
 14 19  1  0
 14 18  1  0
 15 14  2  0
 16 15  1  0
 16 17  2  0
 17 18  1  0
 18  1  1  0
 19 20  2  0
 20 21  1  0
 22 21  2  0
 23 22  1  0
 24 23  2  0
 24 19  1  0
  1 25  1  1
  2 26  1  0
  2 27  1  0
  3 28  1  1
  6 29  1  0
  9 30  1  0
 10 31  1  0
 11 32  1  0
 12 33  1  0
 15 34  1  0
 17 35  1  0
 20 36  1  0
 21 37  1  0
 23 38  1  0
M  ISO  8  25  13  26  13  27  13  28  13  29  14  30  14  31  14  32  14
M  ISO  6  33  14  34  14  35  14  36  14  37  14  38  14
M  END
>  <minimizedAffinity>  (1) 
-5.67245245

>  <minimizedRMSD>  (1) 
6.95173168

$$$$
