
     RDKit          3D

 36 38  0  0  1  0  0  0  0  0999 V2000
   38.3660   25.2730   34.3350 N   0  0  0  0  0  0  0  0  0  0  0  0
   37.3310   26.2620   34.4300 C   0  0  0  0  0  0  0  0  0  0  0  0
   37.2940   26.9420   33.0920 C   0  0  0  0  0  0  0  0  0  0  0  0
   38.3220   26.2060   32.2570 C   0  0  0  0  0  0  0  0  0  0  0  0
   38.2630   24.8250   32.9530 C   0  0  2  0  0  0  0  0  0  0  0  0
   38.1480   24.1210   35.1550 C   0  0  0  0  0  0  0  0  0  0  0  0
   41.8000   23.5030   35.9240 C   0  0  0  0  0  0  0  0  0  0  0  0
   40.6610   23.9820   35.2790 C   0  0  0  0  0  0  0  0  0  0  0  0
   39.4010   23.6410   35.7980 C   0  0  0  0  0  0  0  0  0  0  0  0
   39.3790   22.8530   36.9140 N   0  0  0  0  0  0  0  0  0  0  0  0
   40.4960   22.4120   37.5070 C   0  0  0  0  0  0  0  0  0  0  0  0
   41.7080   22.7410   37.0050 N   0  0  0  0  0  0  0  0  0  0  0  0
   37.1010   24.1740   32.6800 O   0  0  0  0  0  0  0  0  0  0  0  0
   37.0010   22.9810   32.0020 C   0  0  0  0  0  0  0  0  0  0  0  0
   37.9680   22.2300   31.3660 C   0  0  0  0  0  0  0  0  0  0  0  0
   37.6740   21.0560   30.7380 C   0  0  0  0  0  0  0  0  0  0  0  0
   36.3540   20.6070   30.7420 C   0  0  0  0  0  0  0  0  0  0  0  0
   35.3490   21.3210   31.3640 C   0  0  0  0  0  0  0  0  0  0  0  0
   35.6870   22.5070   31.9900 C   0  0  0  0  0  0  0  0  0  0  0  0
   36.3633   25.7849   34.6445 H   0  0  0  0  0  0  0  0  0  0  0  0
   37.5261   26.9767   35.2431 H   0  0  0  0  0  0  0  0  0  0  0  0
   36.2945   26.8560   32.6408 H   0  0  0  0  0  0  0  0  0  0  0  0
   37.5115   28.0177   33.1661 H   0  0  0  0  0  0  0  0  0  0  0  0
   39.3193   26.6637   32.3344 H   0  0  0  0  0  0  0  0  0  0  0  0
   38.1299   26.1964   31.1739 H   0  0  0  0  0  0  0  0  0  0  0  0
   39.0230   24.0902   32.6490 H   0  0  0  0  0  0  0  0  0  0  0  0
   37.4229   24.3783   35.9412 H   0  0  0  0  0  0  0  0  0  0  0  0
   37.7705   23.3145   34.5092 H   0  0  0  0  0  0  0  0  0  0  0  0
   42.7934   23.7620   35.5289 H   0  0  0  0  0  0  0  0  0  0  0  0
   40.7470   24.6137   34.3826 H   0  0  0  0  0  0  0  0  0  0  0  0
   40.4274   21.7804   38.4050 H   0  0  0  0  0  0  0  0  0  0  0  0
   39.0077   22.5893   31.3656 H   0  0  0  0  0  0  0  0  0  0  0  0
   38.4627   20.4746   30.2381 H   0  0  0  0  0  0  0  0  0  0  0  0
   36.1073   19.6612   30.2375 H   0  0  0  0  0  0  0  0  0  0  0  0
   34.3108   20.9574   31.3617 H   0  0  0  0  0  0  0  0  0  0  0  0
   34.9014   23.0917   32.4910 H   0  0  0  0  0  0  0  0  0  0  0  0
  1  2  1  0
  1  6  1  0
  3  2  1  0
  4  5  1  0
  4  3  1  0
  5  1  1  0
  6  9  1  0
  7 12  2  0
  8  9  2  0
  8  7  1  0
  9 10  1  0
 10 11  2  0
 12 11  1  0
 13  5  1  0
 14 13  1  0
 15 14  2  0
 16 17  2  0
 16 15  1  0
 17 18  1  0
 18 19  2  0
 19 14  1  0
  2 20  1  0
  2 21  1  0
  3 22  1  0
  3 23  1  0
  4 24  1  0
  4 25  1  0
  5 26  1  6
  6 27  1  0
  6 28  1  0
  7 29  1  0
  8 30  1  0
 11 31  1  0
 15 32  1  0
 16 33  1  0
 17 34  1  0
 18 35  1  0
 19 36  1  0
M  ISO  8  20  13  21  13  22  13  23  13  24  13  25  13  26  13  27   8
M  ISO  8  28   8  29  14  30  14  31  14  32  14  33  14  34  14  35  14
M  ISO  1  36  14
M  END
>  <minimizedAffinity>  (1) 
-4.28764439

>  <minimizedRMSD>  (1) 
5.49087095

$$$$
