
     RDKit          3D

 34 37  0  0  0  0  0  0  0  0999 V2000
   39.8230   22.6040   38.4070 N   0  0  0  0  0  0  0  0  0  0  0  0
   38.6980   23.3120   38.2240 N   0  0  0  0  0  0  0  0  0  0  0  0
   38.6590   23.7220   36.9410 C   0  0  0  0  0  0  0  0  0  0  0  0
   39.7920   23.2370   36.3700 C   0  0  0  0  0  0  0  0  0  0  0  0
   40.5190   22.5380   37.2900 C   0  0  0  0  0  0  0  0  0  0  0  0
   41.7720   21.9800   36.8230 C   0  0  0  0  0  0  0  0  0  0  0  0
   41.9460   20.6720   36.5950 N   0  0  0  0  0  0  0  0  0  0  0  0
   43.0330   20.0710   36.1650 C   0  0  0  0  0  0  0  0  0  0  0  0
   44.1470   20.7590   35.8970 N   0  0  0  0  0  0  0  0  0  0  0  0
   44.1100   22.1040   36.0840 C   0  0  0  0  0  0  0  0  0  0  0  0
   45.2340   22.8400   35.8120 C   0  0  0  0  0  0  0  0  0  0  0  0
   45.2470   24.2050   35.9780 C   0  0  0  0  0  0  0  0  0  0  0  0
   44.0780   24.7860   36.4310 C   0  0  0  0  0  0  0  0  0  0  0  0
   42.9930   23.9960   36.6850 C   0  0  0  0  0  0  0  0  0  0  0  0
   42.9320   22.6380   36.5350 C   0  0  0  0  0  0  0  0  0  0  0  0
   37.6410   24.4840   36.3820 O   0  0  0  0  0  0  0  0  0  0  0  0
   37.8790   25.7840   35.9260 C   0  0  0  0  0  0  0  0  0  0  0  0
   38.3800   26.6490   36.6480 O   0  0  0  0  0  0  0  0  0  0  0  0
   37.5160   26.1160   34.5430 C   0  0  0  0  0  0  0  0  0  0  0  0
   37.7760   25.1630   33.5440 C   0  0  0  0  0  0  0  0  0  0  0  0
   37.4340   25.4670   32.2230 C   0  0  0  0  0  0  0  0  0  0  0  0
   36.8710   26.6690   31.9990 N   0  0  0  0  0  0  0  0  0  0  0  0
   36.6300   27.5670   32.9710 C   0  0  0  0  0  0  0  0  0  0  0  0
   36.9420   27.3170   34.2530 N   0  0  0  0  0  0  0  0  0  0  0  0
   40.1041   22.1714   39.2985 H   0  0  0  0  0  0  0  0  0  0  0  0
   40.0816   23.3858   35.3193 H   0  0  0  0  0  0  0  0  0  0  0  0
   43.0257   18.9802   36.0229 H   0  0  0  0  0  0  0  0  0  0  0  0
   46.1409   22.3301   35.4549 H   0  0  0  0  0  0  0  0  0  0  0  0
   46.1434   24.8045   35.7610 H   0  0  0  0  0  0  0  0  0  0  0  0
   44.0217   25.8736   36.5855 H   0  0  0  0  0  0  0  0  0  0  0  0
   42.0831   24.4992   37.0438 H   0  0  0  0  0  0  0  0  0  0  0  0
   38.2391   24.1976   33.7960 H   0  0  0  0  0  0  0  0  0  0  0  0
   37.6167   24.7561   31.4037 H   0  0  0  0  0  0  0  0  0  0  0  0
   36.1661   28.5295   32.7094 H   0  0  0  0  0  0  0  0  0  0  0  0
  2  1  1  0
  3  2  2  0
  4  3  1  0
  4  5  2  0
  5  1  1  0
  6  5  1  0
  7  6  2  0
  8  7  1  0
  9 10  1  0
  9  8  2  0
 10 15  2  0
 11 12  2  0
 11 10  1  0
 12 13  1  0
 13 14  2  0
 15 14  1  0
 15  6  1  0
 16  3  1  0
 17 16  1  0
 17 18  2  0
 19 17  1  0
 20 19  2  0
 21 20  1  0
 22 21  2  0
 22 23  1  0
 23 24  2  0
 24 19  1  0
  1 25  1  0
  4 26  1  0
  8 27  1  0
 11 28  1  0
 12 29  1  0
 13 30  1  0
 14 31  1  0
 20 32  1  0
 21 33  1  0
 23 34  1  0
M  ISO  8  25   9  26  14  27  14  28  14  29  14  30  14  31  14  32  14
M  ISO  2  33  14  34  14
M  END
>  <minimizedAffinity>  (1) 
-5.69445467

>  <minimizedRMSD>  (1) 
1.66319048

$$$$
