
     RDKit          3D

 45 48  0  0  1  0  0  0  0  0999 V2000
   37.6960   25.3340   33.9420 N   0  0  0  0  0  0  0  0  0  0  0  0
   37.4050   26.6330   33.9960 N   0  0  0  0  0  0  0  0  0  0  0  0
   36.7520   27.0120   32.8980 C   0  0  0  0  0  0  0  0  0  0  0  0
   36.6140   25.9130   32.0990 C   0  0  0  0  0  0  0  0  0  0  0  0
   37.2160   24.8510   32.7670 C   0  0  0  0  0  0  0  0  0  0  0  0
   40.3980   23.6430   35.7840 C   0  0  0  0  0  0  0  0  0  0  0  0
   39.7340   24.5100   34.9060 C   0  0  0  0  0  0  0  0  0  0  0  0
   38.3670   24.4460   34.8390 C   0  0  0  0  0  0  0  0  0  0  0  0
   37.7150   23.5390   35.6350 N   0  0  0  0  0  0  0  0  0  0  0  0
   38.3730   22.7230   36.4640 C   0  0  0  0  0  0  0  0  0  0  0  0
   39.7180   22.7780   36.5370 N   0  0  0  0  0  0  0  0  0  0  0  0
   40.5470   25.3890   34.1530 N   0  0  0  0  0  0  0  0  0  0  0  0
   41.1040   25.2650   32.9090 C   0  0  0  0  0  0  0  0  0  0  0  0
   41.8030   26.4000   32.6430 N   0  0  0  0  0  0  0  0  0  0  0  0
   41.6750   27.2140   33.7150 C   0  0  0  0  0  0  0  0  0  0  0  0
   40.9020   26.5710   34.6250 N   0  0  0  0  0  0  0  0  0  0  0  0
   37.2710   23.4810   32.1950 C   0  0  2  0  0  0  0  0  0  0  0  0
   38.4660   23.2340   31.3470 C   0  0  0  0  0  0  0  0  0  0  0  0
   35.9540   23.2440   31.4600 C   0  0  0  0  0  0  0  0  0  0  0  0
   35.3930   21.9590   32.0010 C   0  0  0  0  0  0  0  0  0  0  0  0
   35.6130   20.8010   31.0280 C   0  0  0  0  0  0  0  0  0  0  0  0
   35.3480   19.5910   31.8970 C   0  0  0  0  0  0  0  0  0  0  0  0
   35.5730   20.0480   33.3250 C   0  0  0  0  0  0  0  0  0  0  0  0
   36.1570   21.4480   33.2000 C   0  0  0  0  0  0  0  0  0  0  0  0
   36.3897   28.0265   32.6754 H   0  0  0  0  0  0  0  0  0  0  0  0
   36.1215   25.8747   31.1161 H   0  0  0  0  0  0  0  0  0  0  0  0
   41.4953   23.6765   35.8529 H   0  0  0  0  0  0  0  0  0  0  0  0
   37.8172   22.0066   37.0867 H   0  0  0  0  0  0  0  0  0  0  0  0
   41.0034   24.3973   32.2404 H   0  0  0  0  0  0  0  0  0  0  0  0
   42.1171   28.2149   33.8283 H   0  0  0  0  0  0  0  0  0  0  0  0
   37.3873   22.7490   33.0078 H   0  0  0  0  0  0  0  0  0  0  0  0
   39.3404   23.0533   31.9894 H   0  0  0  0  0  0  0  0  0  0  0  0
   38.2893   22.3534   30.7119 H   0  0  0  0  0  0  0  0  0  0  0  0
   38.6529   24.1125   30.7119 H   0  0  0  0  0  0  0  0  0  0  0  0
   36.1323   23.1559   30.3781 H   0  0  0  0  0  0  0  0  0  0  0  0
   35.2556   24.0801   31.6123 H   0  0  0  0  0  0  0  0  0  0  0  0
   34.3417   22.2065   32.2096 H   0  0  0  0  0  0  0  0  0  0  0  0
   36.6431   20.7958   30.6421 H   0  0  0  0  0  0  0  0  0  0  0  0
   34.9722   20.8495   30.1352 H   0  0  0  0  0  0  0  0  0  0  0  0
   34.3125   19.2443   31.7648 H   0  0  0  0  0  0  0  0  0  0  0  0
   36.0079   18.7515   31.6328 H   0  0  0  0  0  0  0  0  0  0  0  0
   34.6223   20.0730   33.8778 H   0  0  0  0  0  0  0  0  0  0  0  0
   36.2392   19.3689   33.8773 H   0  0  0  0  0  0  0  0  0  0  0  0
   37.2401   21.4207   33.0099 H   0  0  0  0  0  0  0  0  0  0  0  0
   36.0597   22.0676   34.1037 H   0  0  0  0  0  0  0  0  0  0  0  0
  1  2  1  0
  1  8  1  0
  3  2  2  0
  4  5  2  0
  4  3  1  0
  5  1  1  0
  6 11  2  0
  7  6  1  0
  8  7  2  0
  8  9  1  0
  9 10  2  0
 10 11  1  0
 12 16  1  0
 12  7  1  0
 13 12  1  0
 14 13  2  0
 14 15  1  0
 15 16  2  0
 17  5  1  0
 18 17  1  0
 19 20  1  0
 19 17  1  0
 20 24  1  0
 21 22  1  0
 21 20  1  0
 22 23  1  0
 24 23  1  0
  3 25  1  0
  4 26  1  0
  6 27  1  0
 10 28  1  0
 13 29  1  0
 15 30  1  0
 17 31  1  1
 18 32  1  0
 18 33  1  0
 18 34  1  0
 19 35  1  0
 19 36  1  0
 20 37  1  0
 21 38  1  0
 21 39  1  0
 22 40  1  0
 22 41  1  0
 23 42  1  0
 23 43  1  0
 24 44  1  0
 24 45  1  0
M  ISO  8  25  14  26  14  27  14  28  14  29  14  30  14  31   8  32   8
M  ISO  8  33   8  34   8  35   8  36   8  37  13  38  13  39  13  40  13
M  ISO  5  41  13  42  13  43  13  44  13  45  13
M  END
>  <minimizedAffinity>  (1) 
-5.00118256

>  <minimizedRMSD>  (1) 
4.700562

$$$$
