
     RDKit          3D

 50 55  0  0  0  0  0  0  0  0999 V2000
   38.1640   23.6920   37.8810 C   0  0  0  0  0  0  0  0  0  0  0  0
   37.6480   24.1820   36.6670 C   0  0  0  0  0  0  0  0  0  0  0  0
   38.4580   24.0330   35.5270 C   0  0  0  0  0  0  0  0  0  0  0  0
   39.6180   23.4440   35.7410 N   0  0  0  0  0  0  0  0  0  0  0  0
   40.1270   22.9710   36.8870 C   0  0  0  0  0  0  0  0  0  0  0  0
   39.3490   23.1200   37.9540 N   0  0  0  0  0  0  0  0  0  0  0  0
   41.4470   22.3830   36.7220 C   0  0  0  0  0  0  0  0  0  0  0  0
   41.6610   21.0390   36.9610 C   0  0  0  0  0  0  0  0  0  0  0  0
   42.8810   20.4140   36.8240 C   0  0  0  0  0  0  0  0  0  0  0  0
   43.9880   21.1470   36.4230 C   0  0  0  0  0  0  0  0  0  0  0  0
   43.8100   22.4690   36.1810 C   0  0  0  0  0  0  0  0  0  0  0  0
   44.9190   23.1950   35.7620 C   0  0  0  0  0  0  0  0  0  0  0  0
   44.8250   24.5420   35.4770 C   0  0  0  0  0  0  0  0  0  0  0  0
   43.5720   25.1300   35.6290 C   0  0  0  0  0  0  0  0  0  0  0  0
   42.4970   24.3760   36.0470 C   0  0  0  0  0  0  0  0  0  0  0  0
   42.5650   23.0490   36.3320 C   0  0  0  0  0  0  0  0  0  0  0  0
   38.0340   24.4960   34.2470 N   0  0  0  0  0  0  0  0  0  0  0  0
   37.6700   25.7670   34.0590 C   0  0  0  0  0  0  0  0  0  0  0  0
   37.3560   25.8640   32.7410 C   0  0  0  0  0  0  0  0  0  0  0  0
   37.5330   24.6850   32.1800 N   0  0  0  0  0  0  0  0  0  0  0  0
   37.9600   23.8010   33.1100 C   0  0  0  0  0  0  0  0  0  0  0  0
   38.2440   22.4300   32.7650 C   0  0  0  0  0  0  0  0  0  0  0  0
   39.4350   21.8460   32.6160 N   0  0  0  0  0  0  0  0  0  0  0  0
   39.6540   20.5780   32.2820 C   0  0  0  0  0  0  0  0  0  0  0  0
   38.6420   19.7300   32.0520 N   0  0  0  0  0  0  0  0  0  0  0  0
   37.3770   20.2260   32.1750 C   0  0  0  0  0  0  0  0  0  0  0  0
   36.3670   19.3350   31.9150 C   0  0  0  0  0  0  0  0  0  0  0  0
   35.0630   19.7540   31.9950 C   0  0  0  0  0  0  0  0  0  0  0  0
   34.8010   21.0610   32.3360 C   0  0  0  0  0  0  0  0  0  0  0  0
   35.8940   21.8610   32.5750 C   0  0  0  0  0  0  0  0  0  0  0  0
   37.2270   21.5360   32.5210 C   0  0  0  0  0  0  0  0  0  0  0  0
   36.8710   27.0450   31.9750 C   0  0  0  0  0  0  0  0  0  0  0  0
   37.3570   27.0710   30.6740 F   0  0  0  0  0  0  0  0  0  0  0  0
   37.3240   28.2360   32.5820 F   0  0  0  0  0  0  0  0  0  0  0  0
   35.4900   27.1250   32.0270 F   0  0  0  0  0  0  0  0  0  0  0  0
   37.5607   23.7892   38.7957 H   0  0  0  0  0  0  0  0  0  0  0  0
   36.6582   24.6589   36.6123 H   0  0  0  0  0  0  0  0  0  0  0  0
   40.8029   20.4296   37.2809 H   0  0  0  0  0  0  0  0  0  0  0  0
   42.9768   19.3381   37.0318 H   0  0  0  0  0  0  0  0  0  0  0  0
   44.9738   20.6733   36.3057 H   0  0  0  0  0  0  0  0  0  0  0  0
   45.8887   22.6867   35.6557 H   0  0  0  0  0  0  0  0  0  0  0  0
   45.6981   25.1233   35.1456 H   0  0  0  0  0  0  0  0  0  0  0  0
   43.4397   26.2008   35.4145 H   0  0  0  0  0  0  0  0  0  0  0  0
   41.5248   24.8788   36.1566 H   0  0  0  0  0  0  0  0  0  0  0  0
   37.6324   26.5671   34.8129 H   0  0  0  0  0  0  0  0  0  0  0  0
   40.6891   20.2167   32.1924 H   0  0  0  0  0  0  0  0  0  0  0  0
   36.6003   18.2945   31.6449 H   0  0  0  0  0  0  0  0  0  0  0  0
   34.2388   19.0551   31.7895 H   0  0  0  0  0  0  0  0  0  0  0  0
   33.7732   21.4452   32.4133 H   0  0  0  0  0  0  0  0  0  0  0  0
   35.6697   22.9031   32.8464 H   0  0  0  0  0  0  0  0  0  0  0  0
  1  6  2  0
  2  1  1  0
  3  4  1  0
  3  2  2  0
  4  5  2  0
  5  6  1  0
  7  5  1  0
  7  8  2  0
  9  8  1  0
 10  9  2  0
 11 16  2  0
 11 10  1  0
 12 11  1  0
 13 14  1  0
 13 12  2  0
 14 15  2  0
 15 16  1  0
 16  7  1  0
 17  3  1  0
 18 17  1  0
 19 18  2  0
 20 19  1  0
 20 21  2  0
 21 17  1  0
 22 21  1  0
 23 22  2  0
 24 23  1  0
 25 26  1  0
 25 24  2  0
 26 31  2  0
 27 28  2  0
 27 26  1  0
 28 29  1  0
 29 30  2  0
 31 30  1  0
 31 22  1  0
 32 35  1  0
 32 34  1  0
 32 19  1  0
 33 32  1  0
  1 36  1  0
  2 37  1  0
  8 38  1  0
  9 39  1  0
 10 40  1  0
 12 41  1  0
 13 42  1  0
 14 43  1  0
 15 44  1  0
 18 45  1  0
 24 46  1  0
 27 47  1  0
 28 48  1  0
 29 49  1  0
 30 50  1  0
M  END
>  <minimizedAffinity>  (1) 
-7.42448473

>  <minimizedRMSD>  (1) 
5.33528852

$$$$
