
     RDKit          3D

 32 35  0  0  0  0  0  0  0  0999 V2000
   43.9940   20.0060   36.4910 C   0  0  0  0  0  0  0  0  0  0  0  0
   42.6520   20.3400   36.6400 C   0  0  0  0  0  0  0  0  0  0  0  0
   42.2770   21.6370   36.3590 C   0  0  0  0  0  0  0  0  0  0  0  0
   43.2750   22.4540   35.9620 N   0  0  0  0  0  0  0  0  0  0  0  0
   44.5450   22.1810   35.8090 C   0  0  0  0  0  0  0  0  0  0  0  0
   44.9060   20.8900   36.0920 N   0  0  0  0  0  0  0  0  0  0  0  0
   45.6570   23.0170   35.3900 C   0  0  0  0  0  0  0  0  0  0  0  0
   46.2500   22.8560   34.1980 N   0  0  0  0  0  0  0  0  0  0  0  0
   47.2700   23.6130   33.7970 C   0  0  0  0  0  0  0  0  0  0  0  0
   47.8070   24.6050   34.5290 N   0  0  0  0  0  0  0  0  0  0  0  0
   47.2650   24.8310   35.7410 C   0  0  0  0  0  0  0  0  0  0  0  0
   47.7830   25.8360   36.5250 C   0  0  0  0  0  0  0  0  0  0  0  0
   47.2600   26.1030   37.7720 C   0  0  0  0  0  0  0  0  0  0  0  0
   46.1950   25.3160   38.1980 C   0  0  0  0  0  0  0  0  0  0  0  0
   45.7150   24.3230   37.3740 C   0  0  0  0  0  0  0  0  0  0  0  0
   46.2130   24.0330   36.1290 C   0  0  0  0  0  0  0  0  0  0  0  0
   40.9020   22.1050   36.4890 C   0  0  0  0  0  0  0  0  0  0  0  0
   39.8060   22.1240   35.6790 N   0  0  0  0  0  0  0  0  0  0  0  0
   38.8170   22.6760   36.3140 O   0  0  0  0  0  0  0  0  0  0  0  0
   39.2080   23.0300   37.5280 C   0  0  0  0  0  0  0  0  0  0  0  0
   40.4920   22.6810   37.6420 N   0  0  0  0  0  0  0  0  0  0  0  0
   38.3950   23.6860   38.5690 C   0  0  0  0  0  0  0  0  0  0  0  0
   39.1870   23.9020   39.6970 F   0  0  0  0  0  0  0  0  0  0  0  0
   37.3380   22.8900   38.9680 F   0  0  0  0  0  0  0  0  0  0  0  0
   37.9520   24.9150   38.1310 F   0  0  0  0  0  0  0  0  0  0  0  0
   44.3126   18.9763   36.7103 H   0  0  0  0  0  0  0  0  0  0  0  0
   41.9142   19.5943   36.9710 H   0  0  0  0  0  0  0  0  0  0  0  0
   47.7002   23.4141   32.8044 H   0  0  0  0  0  0  0  0  0  0  0  0
   48.6266   26.4350   36.1513 H   0  0  0  0  0  0  0  0  0  0  0  0
   47.6680   26.9054   38.4043 H   0  0  0  0  0  0  0  0  0  0  0  0
   45.7401   25.4857   39.1851 H   0  0  0  0  0  0  0  0  0  0  0  0
   44.8718   23.7189   37.7401 H   0  0  0  0  0  0  0  0  0  0  0  0
  1  2  2  0
  3 17  1  0
  3  2  1  0
  4  3  2  0
  5  4  1  0
  5  6  2  0
  6  1  1  0
  7  5  1  0
  7 16  1  0
  8  7  2  0
  9  8  1  0
  9 10  2  0
 10 11  1  0
 11 16  2  0
 11 12  1  0
 12 13  2  0
 13 14  1  0
 15 14  2  0
 16 15  1  0
 17 21  1  0
 18 19  1  0
 18 17  2  0
 19 20  1  0
 20 21  2  0
 20 22  1  0
 22 24  1  0
 22 23  1  0
 25 22  1  0
  1 26  1  0
  2 27  1  0
  9 28  1  0
 12 29  1  0
 13 30  1  0
 14 31  1  0
 15 32  1  0
M  ISO  7  26  14  27  14  28  14  29  14  30  14  31  14  32  14
M  END
>  <minimizedAffinity>  (1) 
-5.56360531

>  <minimizedRMSD>  (1) 
3.79059219

$$$$
