
     RDKit          3D

 45 49  0  0  0  0  0  0  0  0999 V2000
   38.1050   25.4130   34.9750 C   0  0  0  0  0  0  0  0  0  0  0  0
   38.0580   24.1060   38.4620 C   0  0  0  0  0  0  0  0  0  0  0  0
   39.0590   23.1470   38.4120 C   0  0  0  0  0  0  0  0  0  0  0  0
   39.7330   22.9600   37.1970 C   0  0  0  0  0  0  0  0  0  0  0  0
   39.3750   23.7200   36.1380 N   0  0  0  0  0  0  0  0  0  0  0  0
   38.3800   24.6600   36.2230 C   0  0  0  0  0  0  0  0  0  0  0  0
   37.7310   24.8500   37.3700 N   0  0  0  0  0  0  0  0  0  0  0  0
   40.7860   21.9510   37.1410 C   0  0  0  0  0  0  0  0  0  0  0  0
   42.1190   22.5340   36.7820 C   0  0  0  0  0  0  0  0  0  0  0  0
   42.6730   22.4620   35.4310 C   0  0  0  0  0  0  0  0  0  0  0  0
   43.1720   21.4690   36.4420 C   0  0  0  0  0  0  0  0  0  0  0  0
   37.5020   26.7410   35.2850 C   0  0  0  0  0  0  0  0  0  0  0  0
   37.1910   27.5020   34.0290 C   0  0  0  0  0  0  0  0  0  0  0  0
   36.1660   28.3490   33.8980 N   0  0  0  0  0  0  0  0  0  0  0  0
   36.1620   28.8500   32.6930 O   0  0  0  0  0  0  0  0  0  0  0  0
   37.1450   28.3710   32.0120 C   0  0  0  0  0  0  0  0  0  0  0  0
   37.8100   27.5150   32.8360 N   0  0  0  0  0  0  0  0  0  0  0  0
   37.5910   28.5900   30.6450 C   0  0  0  0  0  0  0  0  0  0  0  0
   38.3420   27.8010   29.7910 C   0  0  0  0  0  0  0  0  0  0  0  0
   38.4630   28.5180   28.5980 C   0  0  0  0  0  0  0  0  0  0  0  0
   37.7720   29.7070   28.8070 C   0  0  0  0  0  0  0  0  0  0  0  0
   37.2740   29.7210   30.0100 O   0  0  0  0  0  0  0  0  0  0  0  0
   37.6560   30.7600   27.7770 C   0  0  0  0  0  0  0  0  0  0  0  0
   36.9960   31.9620   27.9310 C   0  0  0  0  0  0  0  0  0  0  0  0
   37.1260   32.6380   26.7550 N   0  0  0  0  0  0  0  0  0  0  0  0
   37.8520   31.8260   25.9440 C   0  0  0  0  0  0  0  0  0  0  0  0
   38.1930   30.6610   26.5470 N   0  0  0  0  0  0  0  0  0  0  0  0
   37.4068   24.8358   34.3510 H   0  0  0  0  0  0  0  0  0  0  0  0
   39.0530   25.5704   34.4398 H   0  0  0  0  0  0  0  0  0  0  0  0
   37.5162   24.2689   39.4054 H   0  0  0  0  0  0  0  0  0  0  0  0
   39.3164   22.5507   39.2997 H   0  0  0  0  0  0  0  0  0  0  0  0
   40.8655   21.4686   38.1264 H   0  0  0  0  0  0  0  0  0  0  0  0
   40.5151   21.2274   36.3580 H   0  0  0  0  0  0  0  0  0  0  0  0
   41.9871   23.3866   37.4645 H   0  0  0  0  0  0  0  0  0  0  0  0
   43.3430   23.2586   35.0754 H   0  0  0  0  0  0  0  0  0  0  0  0
   42.2302   22.3734   34.4280 H   0  0  0  0  0  0  0  0  0  0  0  0
   42.8880   20.4089   36.3683 H   0  0  0  0  0  0  0  0  0  0  0  0
   44.1524   21.1689   36.8404 H   0  0  0  0  0  0  0  0  0  0  0  0
   36.5719   26.5892   35.8523 H   0  0  0  0  0  0  0  0  0  0  0  0
   38.2253   27.3230   35.8750 H   0  0  0  0  0  0  0  0  0  0  0  0
   38.7603   26.8071   30.0084 H   0  0  0  0  0  0  0  0  0  0  0  0
   38.9931   28.2076   27.6855 H   0  0  0  0  0  0  0  0  0  0  0  0
   36.4664   32.3082   28.8308 H   0  0  0  0  0  0  0  0  0  0  0  0
   38.1322   32.0850   24.9123 H   0  0  0  0  0  0  0  0  0  0  0  0
   38.7376   29.8799   26.1543 H   0  0  0  0  0  0  0  0  0  0  0  0
  1 12  1  0
  1  6  1  0
  3  2  2  0
  4  3  1  0
  5  6  1  0
  5  4  2  0
  6  7  2  0
  7  2  1  0
  8  4  1  0
  9  8  1  0
 10 11  1  0
 10  9  1  0
 11  9  1  0
 13 12  1  0
 14 13  2  0
 15 14  1  0
 16 15  1  0
 16 17  2  0
 17 13  1  0
 18 16  1  0
 19 18  2  0
 20 21  2  0
 20 19  1  0
 21 22  1  0
 22 18  1  0
 23 24  2  0
 23 21  1  0
 25 24  1  0
 26 27  1  0
 26 25  2  0
 27 23  1  0
  1 28  1  0
  1 29  1  0
  2 30  1  0
  3 31  1  0
  8 32  1  0
  8 33  1  0
  9 34  1  0
 10 35  1  0
 10 36  1  0
 11 37  1  0
 11 38  1  0
 12 39  1  0
 12 40  1  0
 19 41  1  0
 20 42  1  0
 24 43  1  0
 26 44  1  0
 27 45  1  0
M  ISO  8  28   8  29   8  30  14  31  14  32   8  33   8  34  13  35  13
M  ISO  8  36  13  37  13  38  13  39   8  40   8  41  14  42  14  43  14
M  ISO  2  44  14  45   9
M  END
>  <minimizedAffinity>  (1) 
-5.37128592

>  <minimizedRMSD>  (1) 
1.03775144

$$$$
