
     RDKit          3D

 23 24  0  0  0  0  0  0  0  0999 V2000
   39.6150   23.4360   36.3230 C   0  0  0  0  0  0  0  0  0  0  0  0
   38.5990   24.0430   37.0820 C   0  0  0  0  0  0  0  0  0  0  0  0
   37.7110   24.9080   36.4340 C   0  0  0  0  0  0  0  0  0  0  0  0
   37.8670   25.1290   35.0940 N   0  0  0  0  0  0  0  0  0  0  0  0
   38.8630   24.5210   34.4050 C   0  0  0  0  0  0  0  0  0  0  0  0
   39.7060   23.7030   35.0000 N   0  0  0  0  0  0  0  0  0  0  0  0
   38.9500   24.8200   32.9710 C   0  0  0  0  0  0  0  0  0  0  0  0
   37.8580   25.0910   32.1490 C   0  0  0  0  0  0  0  0  0  0  0  0
   38.3790   25.3100   30.9160 N   0  0  0  0  0  0  0  0  0  0  0  0
   39.7260   25.1790   30.9810 C   0  0  0  0  0  0  0  0  0  0  0  0
   40.0900   24.8730   32.2600 N   0  0  0  0  0  0  0  0  0  0  0  0
   38.4450   23.7930   38.5260 C   0  0  0  0  0  0  0  0  0  0  0  0
   39.6840   23.8590   39.1050 F   0  0  0  0  0  0  0  0  0  0  0  0
   37.8820   22.6160   38.8370 F   0  0  0  0  0  0  0  0  0  0  0  0
   37.7570   24.8830   39.1270 F   0  0  0  0  0  0  0  0  0  0  0  0
   40.6460   22.5000   36.8160 C   0  0  0  0  0  0  0  0  0  0  0  0
   41.0450   21.6340   35.8180 F   0  0  0  0  0  0  0  0  0  0  0  0
   41.7380   23.1920   37.3310 F   0  0  0  0  0  0  0  0  0  0  0  0
   40.2220   21.7210   37.8530 F   0  0  0  0  0  0  0  0  0  0  0  0
   36.9019   25.4014   36.9925 H   0  0  0  0  0  0  0  0  0  0  0  0
   36.7973   25.1210   32.4389 H   0  0  0  0  0  0  0  0  0  0  0  0
   40.4182   25.3004   30.1347 H   0  0  0  0  0  0  0  0  0  0  0  0
   41.0456   24.7145   32.6102 H   0  0  0  0  0  0  0  0  0  0  0  0
  1 16  1  0
  1  2  2  0
  2 12  1  0
  3  2  1  0
  4  3  2  0
  5  6  2  0
  5  4  1  0
  6  1  1  0
  7  5  1  0
  8  7  2  0
  9 10  2  0
  9  8  1  0
 10 11  1  0
 11  7  1  0
 12 14  1  0
 12 13  1  0
 12 15  1  0
 16 18  1  0
 16 19  1  0
 17 16  1  0
  3 20  1  0
  8 21  1  0
 10 22  1  0
 11 23  1  0
M  ISO  4  20  14  21  14  22  14  23   9
M  END
>  <minimizedAffinity>  (1) 
-4.57723045

>  <minimizedRMSD>  (1) 
0.14651002

$$$$
