
     RDKit          3D

 53 56  0  0  0  0  0  0  0  0999 V2000
   37.8280   26.5910   31.3520 N   0  0  0  0  0  0  0  0  0  0  0  0
   36.6000   27.1270   31.0550 C   0  0  0  0  0  0  0  0  0  0  0  0
   36.8230   28.1280   30.1150 C   0  0  0  0  0  0  0  0  0  0  0  0
   38.1400   28.1850   29.8620 N   0  0  0  0  0  0  0  0  0  0  0  0
   38.7730   27.2400   30.6200 C   0  0  0  0  0  0  0  0  0  0  0  0
   38.7600   24.2900   33.9090 N   0  0  0  0  0  0  0  0  0  0  0  0
   38.8810   23.5780   32.7890 N   0  0  0  0  0  0  0  0  0  0  0  0
   38.5630   24.3120   31.7320 C   0  0  0  0  0  0  0  0  0  0  0  0
   38.2220   25.5640   32.2210 C   0  0  0  0  0  0  0  0  0  0  0  0
   38.3450   25.5570   33.6060 C   0  0  0  0  0  0  0  0  0  0  0  0
   37.9450   23.6310   36.0980 C   0  0  0  0  0  0  0  0  0  0  0  0
   39.0230   23.8070   35.2170 C   0  0  0  0  0  0  0  0  0  0  0  0
   40.3120   23.5170   35.6110 C   0  0  0  0  0  0  0  0  0  0  0  0
   40.4700   23.0570   36.8890 N   0  0  0  0  0  0  0  0  0  0  0  0
   39.4460   22.8870   37.7350 C   0  0  0  0  0  0  0  0  0  0  0  0
   38.1720   23.1750   37.3390 N   0  0  0  0  0  0  0  0  0  0  0  0
   38.0840   26.6480   34.4460 N   0  0  0  0  0  0  0  0  0  0  0  0
   39.0330   27.1290   35.4030 C   0  0  0  0  0  0  0  0  0  0  0  0
   40.2960   27.0860   35.0080 N   0  0  0  0  0  0  0  0  0  0  0  0
   38.5490   27.5980   36.6580 N   0  0  0  0  0  0  0  0  0  0  0  0
   40.9710   27.4520   35.7100 H   0  0  0  0  0  0  0  0  0  0  0  0
   40.2610   27.1580   30.4630 C   0  0  0  0  0  0  0  0  0  0  0  0
   40.6430   26.0570   29.4880 C   0  0  0  0  0  0  0  0  0  0  0  0
   41.0100   26.9020   31.7070 C   0  0  0  0  0  0  0  0  0  0  0  0
   40.6750   28.4670   29.7970 C   0  0  0  0  0  0  0  0  0  0  0  0
   42.0800   28.8220   29.9170 C   0  0  0  0  0  0  0  0  0  0  0  0
   42.8650   29.2830   30.9500 C   0  0  0  0  0  0  0  0  0  0  0  0
   44.2050   29.5660   30.7980 C   0  0  0  0  0  0  0  0  0  0  0  0
   44.8440   29.4040   29.5880 C   0  0  0  0  0  0  0  0  0  0  0  0
   44.0990   28.9460   28.5310 C   0  0  0  0  0  0  0  0  0  0  0  0
   42.7460   28.6610   28.6900 C   0  0  0  0  0  0  0  0  0  0  0  0
   35.6303   26.8246   31.4771 H   0  0  0  0  0  0  0  0  0  0  0  0
   36.0515   28.7644   29.6571 H   0  0  0  0  0  0  0  0  0  0  0  0
   38.5685   23.9925   30.6795 H   0  0  0  0  0  0  0  0  0  0  0  0
   36.9206   23.8654   35.7731 H   0  0  0  0  0  0  0  0  0  0  0  0
   41.1682   23.6487   34.9330 H   0  0  0  0  0  0  0  0  0  0  0  0
   39.6323   22.5139   38.7529 H   0  0  0  0  0  0  0  0  0  0  0  0
   37.1729   27.1225   34.3716 H   0  0  0  0  0  0  0  0  0  0  0  0
   39.2094   27.9499   37.3658 H   0  0  0  0  0  0  0  0  0  0  0  0
   37.5386   27.5853   36.8577 H   0  0  0  0  0  0  0  0  0  0  0  0
   40.9533   25.1626   30.0481 H   0  0  0  0  0  0  0  0  0  0  0  0
   39.7776   25.8113   28.8550 H   0  0  0  0  0  0  0  0  0  0  0  0
   41.4746   26.4001   28.8550 H   0  0  0  0  0  0  0  0  0  0  0  0
   40.3683   27.1213   32.5731 H   0  0  0  0  0  0  0  0  0  0  0  0
   41.3198   25.8470   31.7380 H   0  0  0  0  0  0  0  0  0  0  0  0
   41.9007   27.5467   31.7380 H   0  0  0  0  0  0  0  0  0  0  0  0
   40.0827   29.2769   30.2477 H   0  0  0  0  0  0  0  0  0  0  0  0
   40.4938   28.3250   28.7214 H   0  0  0  0  0  0  0  0  0  0  0  0
   42.4034   29.4315   31.9374 H   0  0  0  0  0  0  0  0  0  0  0  0
   44.7783   29.9300   31.6634 H   0  0  0  0  0  0  0  0  0  0  0  0
   45.9136   29.6338   29.4736 H   0  0  0  0  0  0  0  0  0  0  0  0
   44.5749   28.8028   27.5497 H   0  0  0  0  0  0  0  0  0  0  0  0
   42.1765   28.2960   27.8226 H   0  0  0  0  0  0  0  0  0  0  0  0
  1  9  1  0
  2  1  1  0
  3  2  2  0
  4  3  1  0
  4  5  2  0
  5  1  1  0
  6 12  1  0
  7  6  1  0
  8  9  1  0
  8  7  2  0
  9 10  2  0
 10  6  1  0
 10 17  1  0
 11 16  2  0
 12 13  2  0
 12 11  1  0
 13 14  1  0
 14 15  2  0
 16 15  1  0
 17 18  1  0
 18 20  1  0
 19 18  2  0
 19 21  1  0
 22  5  1  0
 22 24  1  0
 23 22  1  0
 25 26  1  0
 25 22  1  0
 26 27  2  0
 28 27  1  0
 29 28  2  0
 30 31  2  0
 30 29  1  0
 31 26  1  0
  2 32  1  0
  3 33  1  0
  8 34  1  0
 11 35  1  0
 13 36  1  0
 15 37  1  0
 17 38  1  0
 20 39  1  0
 20 40  1  0
 23 41  1  0
 23 42  1  0
 23 43  1  0
 24 44  1  0
 24 45  1  0
 24 46  1  0
 25 47  1  0
 25 48  1  0
 27 49  1  0
 28 50  1  0
 29 51  1  0
 30 52  1  0
 31 53  1  0
M  ISO  8  32  14  33  14  34  14  35  14  36  14  37  14  41   8  42   8
M  ISO  8  43   8  44   8  45   8  46   8  47   8  48   8  49  14  50  14
M  ISO  3  51  14  52  14  53  14
M  END
>  <minimizedAffinity>  (1) 
-4.93121862

>  <minimizedRMSD>  (1) 
0.487264037

$$$$
