
     RDKit          3D

 24 25  0  0  0  0  0  0  0  0999 V2000
   39.7790   23.0800   37.3900 C   0  0  0  0  0  0  0  0  0  0  0  0
   39.4360   23.8220   36.2340 C   0  0  0  0  0  0  0  0  0  0  0  0
   38.2930   24.6580   36.3300 C   0  0  0  0  0  0  0  0  0  0  0  0
   37.6080   24.7030   37.4910 N   0  0  0  0  0  0  0  0  0  0  0  0
   37.9820   23.9710   38.5670 C   0  0  0  0  0  0  0  0  0  0  0  0
   39.0490   23.1760   38.5100 N   0  0  0  0  0  0  0  0  0  0  0  0
   37.8870   25.4370   35.2040 N   0  0  0  0  0  0  0  0  0  0  0  0
   38.3050   26.7950   35.0900 C   0  0  0  0  0  0  0  0  0  0  0  0
   38.6830   27.4670   36.1170 N   0  0  0  0  0  0  0  0  0  0  0  0
   38.2780   27.3540   33.7830 N   0  0  0  0  0  0  0  0  0  0  0  0
   39.0320   28.4430   36.0850 H   0  0  0  0  0  0  0  0  0  0  0  0
   40.9570   22.2280   37.2650 C   0  0  0  0  0  0  0  0  0  0  0  0
   42.0320   22.5480   36.4600 C   0  0  0  0  0  0  0  0  0  0  0  0
   42.9710   21.5720   36.5470 N   0  0  0  0  0  0  0  0  0  0  0  0
   42.4690   20.6620   37.4010 C   0  0  0  0  0  0  0  0  0  0  0  0
   41.2460   21.0480   37.8450 N   0  0  0  0  0  0  0  0  0  0  0  0
   40.0257   23.7540   35.3079 H   0  0  0  0  0  0  0  0  0  0  0  0
   37.3987   24.0336   39.4975 H   0  0  0  0  0  0  0  0  0  0  0  0
   37.2925   25.0178   34.4747 H   0  0  0  0  0  0  0  0  0  0  0  0
   38.5683   28.3311   33.6347 H   0  0  0  0  0  0  0  0  0  0  0  0
   37.9682   26.7819   32.9845 H   0  0  0  0  0  0  0  0  0  0  0  0
   42.1147   23.4548   35.8429 H   0  0  0  0  0  0  0  0  0  0  0  0
   42.9790   19.7338   37.6982 H   0  0  0  0  0  0  0  0  0  0  0  0
   40.6476   20.5319   38.5057 H   0  0  0  0  0  0  0  0  0  0  0  0
  1  6  2  0
  2  3  2  0
  2  1  1  0
  3  4  1  0
  4  5  2  0
  6  5  1  0
  7  3  1  0
  8  7  1  0
  8  9  2  0
 10  8  1  0
 11  9  1  0
 12  1  1  0
 12 16  1  0
 13 14  1  0
 13 12  2  0
 14 15  2  0
 15 16  1  0
  2 17  1  0
  5 18  1  0
  7 19  1  0
 10 20  1  0
 10 21  1  0
 13 22  1  0
 15 23  1  0
 16 24  1  0
M  ISO  5  17  14  18  14  22  14  23  14  24   9
M  END
>  <minimizedAffinity>  (1) 
-4.81674194

>  <minimizedRMSD>  (1) 
1.25035679

$$$$
