
     RDKit          3D

 28 31  0  0  0  0  0  0  0  0999 V2000
   39.7710   22.7770   37.9290 C   0  0  0  0  0  0  0  0  0  0  0  0
   38.8930   23.5220   38.7520 C   0  0  0  0  0  0  0  0  0  0  0  0
   37.8820   24.2610   38.1330 C   0  0  0  0  0  0  0  0  0  0  0  0
   37.8190   24.2050   36.7650 N   0  0  0  0  0  0  0  0  0  0  0  0
   38.6620   23.4920   36.0140 C   0  0  0  0  0  0  0  0  0  0  0  0
   39.6330   22.7830   36.6040 N   0  0  0  0  0  0  0  0  0  0  0  0
   38.4750   23.5280   34.6040 N   0  0  0  0  0  0  0  0  0  0  0  0
   38.8070   22.5120   33.7740 C   0  0  0  0  0  0  0  0  0  0  0  0
   38.5070   22.8530   32.4930 N   0  0  0  0  0  0  0  0  0  0  0  0
   37.9750   24.1010   32.4860 C   0  0  0  0  0  0  0  0  0  0  0  0
   37.4840   24.9820   31.5300 C   0  0  0  0  0  0  0  0  0  0  0  0
   37.0150   26.1840   31.8700 N   0  0  0  0  0  0  0  0  0  0  0  0
   37.0240   26.5350   33.1700 C   0  0  0  0  0  0  0  0  0  0  0  0
   37.4870   25.7190   34.1290 N   0  0  0  0  0  0  0  0  0  0  0  0
   37.9660   24.5030   33.8120 C   0  0  0  0  0  0  0  0  0  0  0  0
   37.5570   24.4350   30.2090 N   0  0  0  0  0  0  0  0  0  0  0  0
   36.5190   27.8400   33.5820 C   0  0  0  0  0  0  0  0  0  0  0  0
   36.3940   28.5650   34.7070 N   0  0  0  0  0  0  0  0  0  0  0  0
   35.8370   29.7060   34.4150 O   0  0  0  0  0  0  0  0  0  0  0  0
   35.5790   29.7790   33.1260 C   0  0  0  0  0  0  0  0  0  0  0  0
   36.0020   28.6140   32.5980 N   0  0  0  0  0  0  0  0  0  0  0  0
   40.5768   22.1861   38.3889 H   0  0  0  0  0  0  0  0  0  0  0  0
   39.0034   23.5192   39.8464 H   0  0  0  0  0  0  0  0  0  0  0  0
   37.1686   24.8608   38.7172 H   0  0  0  0  0  0  0  0  0  0  0  0
   39.2517   21.5562   34.0881 H   0  0  0  0  0  0  0  0  0  0  0  0
   37.9403   23.4901   30.0633 H   0  0  0  0  0  0  0  0  0  0  0  0
   37.2262   24.9863   29.4043 H   0  0  0  0  0  0  0  0  0  0  0  0
   35.1134   30.6192   32.5900 H   0  0  0  0  0  0  0  0  0  0  0  0
  1  2  2  0
  3  2  1  0
  4  3  2  0
  5  6  2  0
  5  4  1  0
  6  1  1  0
  7  5  1  0
  8  7  1  0
  9  8  2  0
 10  9  1  0
 10 15  2  0
 11 12  2  0
 11 10  1  0
 12 13  1  0
 13 17  1  0
 13 14  2  0
 15 14  1  0
 15  7  1  0
 16 11  1  0
 17 18  2  0
 19 18  1  0
 20 19  1  0
 21 20  2  0
 21 17  1  0
  1 22  1  0
  2 23  1  0
  3 24  1  0
  8 25  1  0
 16 26  1  0
 16 27  1  0
 20 28  1  0
M  ISO  5  22  14  23  14  24  14  25  14  28  14
M  END
>  <minimizedAffinity>  (1) 
-5.56260824

>  <minimizedRMSD>  (1) 
1.55080235

$$$$
