
     RDKit          3D

 21 22  0  0  0  0  0  0  0  0999 V2000
   38.2070   24.3840   37.1770 C   0  0  0  0  0  0  0  0  0  0  0  0
   38.8810   24.8100   35.9550 C   0  0  0  0  0  0  0  0  0  0  0  0
   40.0140   24.0970   35.6680 C   0  0  0  0  0  0  0  0  0  0  0  0
   40.4330   23.0590   36.5030 N   0  0  0  0  0  0  0  0  0  0  0  0
   39.7720   22.7170   37.6020 C   0  0  0  0  0  0  0  0  0  0  0  0
   38.6670   23.3570   37.9610 N   0  0  0  0  0  0  0  0  0  0  0  0
   38.0880   25.8580   35.3260 C   0  0  0  0  0  0  0  0  0  0  0  0
   37.3980   25.7590   34.1960 N   0  0  0  0  0  0  0  0  0  0  0  0
   36.8610   26.8780   33.8880 O   0  0  0  0  0  0  0  0  0  0  0  0
   37.1540   27.7710   34.7750 C   0  0  0  0  0  0  0  0  0  0  0  0
   37.9120   27.1410   35.6630 N   0  0  0  0  0  0  0  0  0  0  0  0
   40.6540   24.6370   34.4320 C   0  0  0  0  0  0  0  0  0  0  0  0
   41.8540   25.4840   34.8950 C   0  0  0  0  0  0  0  0  0  0  0  0
   37.2902   24.9093   37.4827 H   0  0  0  0  0  0  0  0  0  0  0  0
   40.1461   21.8906   38.2243 H   0  0  0  0  0  0  0  0  0  0  0  0
   36.8422   28.8258   34.7904 H   0  0  0  0  0  0  0  0  0  0  0  0
   39.9396   25.2621   33.8762 H   0  0  0  0  0  0  0  0  0  0  0  0
   40.9749   23.8249   33.7630 H   0  0  0  0  0  0  0  0  0  0  0  0
   41.8850   25.5059   35.9943 H   0  0  0  0  0  0  0  0  0  0  0  0
   42.7850   25.0418   34.5107 H   0  0  0  0  0  0  0  0  0  0  0  0
   41.7491   26.5093   34.5107 H   0  0  0  0  0  0  0  0  0  0  0  0
  1  6  2  0
  2  1  1  0
  3  2  2  0
  3  4  1  0
  4  5  2  0
  5  6  1  0
  7 11  1  0
  7  2  1  0
  8  7  2  0
  9  8  1  0
  9 10  1  0
 10 11  2  0
 12 13  1  0
 12  3  1  0
  1 14  1  0
  5 15  1  0
 10 16  1  0
 12 17  1  0
 12 18  1  0
 13 19  1  0
 13 20  1  0
 13 21  1  0
M  ISO  8  14  14  15  14  16  14  17   8  18   8  19   8  20   8  21   8
M  END
>  <minimizedAffinity>  (1) 
-3.42446065

>  <minimizedRMSD>  (1) 
5.35528421

$$$$
