
     RDKit          3D

 33 36  0  0  0  0  0  0  0  0999 V2000
   43.6260   19.7230   37.0900 C   0  0  0  0  0  0  0  0  0  0  0  0
   42.4840   20.4980   37.3100 C   0  0  0  0  0  0  0  0  0  0  0  0
   41.9570   21.2120   36.2420 C   0  0  0  0  0  0  0  0  0  0  0  0
   42.6040   21.1070   35.0250 N   0  0  0  0  0  0  0  0  0  0  0  0
   43.6860   20.3580   34.8630 C   0  0  0  0  0  0  0  0  0  0  0  0
   44.2090   19.6600   35.8930 N   0  0  0  0  0  0  0  0  0  0  0  0
   44.3440   20.2850   33.5260 C   0  0  0  0  0  0  0  0  0  0  0  0
   45.7190   20.0280   33.3660 C   0  0  0  0  0  0  0  0  0  0  0  0
   46.2010   19.9880   32.0960 C   0  0  0  0  0  0  0  0  0  0  0  0
   45.3700   20.1940   30.9980 C   0  0  0  0  0  0  0  0  0  0  0  0
   43.7430   20.4720   31.8200 S   0  0  0  0  0  0  0  0  0  0  0  0
   45.4920   20.2290   29.6150 C   0  0  0  0  0  0  0  0  0  0  0  0
   44.3820   20.4740   28.8320 C   0  0  0  0  0  0  0  0  0  0  0  0
   44.5660   20.4970   27.4450 C   0  0  0  0  0  0  0  0  0  0  0  0
   45.7700   20.2880   26.9120 N   0  0  0  0  0  0  0  0  0  0  0  0
   46.8300   20.0520   27.7140 C   0  0  0  0  0  0  0  0  0  0  0  0
   46.6890   20.0220   29.0720 N   0  0  0  0  0  0  0  0  0  0  0  0
   40.7620   22.0560   36.3680 C   0  0  0  0  0  0  0  0  0  0  0  0
   39.9220   22.6520   35.4960 N   0  0  0  0  0  0  0  0  0  0  0  0
   39.0110   23.2950   36.1650 O   0  0  0  0  0  0  0  0  0  0  0  0
   39.2230   23.1400   37.4760 C   0  0  0  0  0  0  0  0  0  0  0  0
   40.3010   22.3780   37.5940 N   0  0  0  0  0  0  0  0  0  0  0  0
   38.4180   23.7060   38.5700 C   0  0  0  0  0  0  0  0  0  0  0  0
   39.2410   23.8820   39.6850 F   0  0  0  0  0  0  0  0  0  0  0  0
   37.3940   22.8770   38.9320 F   0  0  0  0  0  0  0  0  0  0  0  0
   37.9430   24.9580   38.2270 F   0  0  0  0  0  0  0  0  0  0  0  0
   44.0546   19.1505   37.9258 H   0  0  0  0  0  0  0  0  0  0  0  0
   42.0146   20.5413   38.3039 H   0  0  0  0  0  0  0  0  0  0  0  0
   46.3761   19.8662   34.2332 H   0  0  0  0  0  0  0  0  0  0  0  0
   47.2703   19.7887   31.9320 H   0  0  0  0  0  0  0  0  0  0  0  0
   43.3921   20.6444   29.2805 H   0  0  0  0  0  0  0  0  0  0  0  0
   43.7065   20.6899   26.7862 H   0  0  0  0  0  0  0  0  0  0  0  0
   47.8208   19.8815   27.2675 H   0  0  0  0  0  0  0  0  0  0  0  0
  1  2  2  0
  3 18  1  0
  3  2  1  0
  4  3  2  0
  5  4  1  0
  5  6  2  0
  6  1  1  0
  7  5  1  0
  8  7  2  0
  9  8  1  0
 10 11  1  0
 10  9  2  0
 11  7  1  0
 12 10  1  0
 13 12  2  0
 14 13  1  0
 15 14  2  0
 15 16  1  0
 16 17  2  0
 17 12  1  0
 18 22  1  0
 19 20  1  0
 19 18  2  0
 20 21  1  0
 21 22  2  0
 21 23  1  0
 23 25  1  0
 23 24  1  0
 26 23  1  0
  1 27  1  0
  2 28  1  0
  8 29  1  0
  9 30  1  0
 13 31  1  0
 14 32  1  0
 16 33  1  0
M  ISO  7  27  14  28  14  29  14  30  14  31  14  32  14  33  14
M  END
>  <minimizedAffinity>  (1) 
-3.88306975

>  <minimizedRMSD>  (1) 
0.0126108145

$$$$
