
     RDKit          3D

 37 40  0  0  1  0  0  0  0  0999 V2000
   36.6530   25.7260   32.2570 C   0  0  0  0  0  0  0  0  0  0  0  0
   36.4790   27.1920   32.1950 C   0  0  0  0  0  0  0  0  0  0  0  0
   35.9170   28.0700   33.0980 C   0  0  0  0  0  0  0  0  0  0  0  0
   35.8290   29.4300   32.8940 C   0  0  0  0  0  0  0  0  0  0  0  0
   36.3360   29.9260   31.7170 C   0  0  0  0  0  0  0  0  0  0  0  0
   36.8900   29.0360   30.8360 C   0  0  0  0  0  0  0  0  0  0  0  0
   36.9660   27.7110   31.0520 N   0  0  0  0  0  0  0  0  0  0  0  0
   37.4330   29.5510   29.5780 C   0  0  0  0  0  0  0  0  0  0  0  0
   38.3630   28.9020   28.8050 C   0  0  0  0  0  0  0  0  0  0  0  0
   38.8830   29.3740   27.6190 C   0  0  0  0  0  0  0  0  0  0  0  0
   38.4290   30.5880   27.1890 N   0  0  0  0  0  0  0  0  0  0  0  0
   37.5230   31.2280   27.9380 C   0  0  0  0  0  0  0  0  0  0  0  0
   37.0370   30.7390   29.0870 N   0  0  0  0  0  0  0  0  0  0  0  0
   37.3580   23.6580   30.7770 C   0  0  2  0  0  0  0  0  0  0  0  0
   38.5400   24.4400   31.2300 C   0  0  0  0  0  0  0  0  0  0  0  0
   37.2150   25.1120   31.0410 C   0  0  2  0  0  0  0  0  0  0  0  0
   36.9870   21.4880   33.7140 C   0  0  0  0  0  0  0  0  0  0  0  0
   35.7280   20.8690   33.5430 C   0  0  0  0  0  0  0  0  0  0  0  0
   35.0130   21.2460   32.3560 C   0  0  0  0  0  0  0  0  0  0  0  0
   35.5730   22.1380   31.5120 N   0  0  0  0  0  0  0  0  0  0  0  0
   36.8040   22.6970   31.7490 C   0  0  0  0  0  0  0  0  0  0  0  0
   37.5220   22.3680   32.8660 N   0  0  0  0  0  0  0  0  0  0  0  0
   37.3262   25.4978   33.0965 H   0  0  0  0  0  0  0  0  0  0  0  0
   35.6450   25.3023   32.3767 H   0  0  0  0  0  0  0  0  0  0  0  0
   35.5153   27.6604   34.0365 H   0  0  0  0  0  0  0  0  0  0  0  0
   35.3711   30.0922   33.6435 H   0  0  0  0  0  0  0  0  0  0  0  0
   36.2981   31.0017   31.4902 H   0  0  0  0  0  0  0  0  0  0  0  0
   38.7228   27.9254   29.1610 H   0  0  0  0  0  0  0  0  0  0  0  0
   39.6273   28.8008   27.0468 H   0  0  0  0  0  0  0  0  0  0  0  0
   37.1583   32.2065   27.5923 H   0  0  0  0  0  0  0  0  0  0  0  0
   37.1152   23.0156   29.9177 H   0  0  0  0  0  0  0  0  0  0  0  0
   38.9433   24.2921   32.2426 H   0  0  0  0  0  0  0  0  0  0  0  0
   39.5590   24.6041   30.8496 H   0  0  0  0  0  0  0  0  0  0  0  0
   36.7463   25.9025   30.4364 H   0  0  0  0  0  0  0  0  0  0  0  0
   37.5674   21.2253   34.6107 H   0  0  0  0  0  0  0  0  0  0  0  0
   35.3237   20.1482   34.2690 H   0  0  0  0  0  0  0  0  0  0  0  0
   34.0248   20.8147   32.1382 H   0  0  0  0  0  0  0  0  0  0  0  0
  2  1  1  0
  2  3  2  0
  4  3  1  0
  5  4  2  0
  6  7  2  0
  6  5  1  0
  7  2  1  0
  8  6  1  0
  9  8  2  0
 10  9  1  0
 11 10  2  0
 11 12  1  0
 12 13  2  0
 13  8  1  0
 14 16  1  0
 14 15  1  0
 14 21  1  0
 16 15  1  0
 16  1  1  0
 18 17  2  0
 19 18  1  0
 20 21  1  0
 20 19  2  0
 21 22  2  0
 22 17  1  0
  1 23  1  0
  1 24  1  0
  3 25  1  0
  4 26  1  0
  5 27  1  0
  9 28  1  0
 10 29  1  0
 12 30  1  0
 14 31  1  6
 15 32  1  0
 15 33  1  0
 16 34  1  6
 17 35  1  0
 18 36  1  0
 19 37  1  0
M  ISO  8  23   8  24   8  25  14  26  14  27  14  28  14  29  14  30  14
M  ISO  7  31  13  32  13  33  13  34  13  35  14  36  14  37  14
M  END
>  <minimizedAffinity>  (1) 
-4.46650124

>  <minimizedRMSD>  (1) 
0.808541894

$$$$
