
     RDKit          3D

 59 63  0  0  1  0  0  0  0  0999 V2000
   38.4920   26.0730   34.8170 C   0  0  2  0  0  0  0  0  0  0  0  0
   37.8990   22.9760   36.7210 C   0  0  0  0  0  0  0  0  0  0  0  0
   37.8800   23.3900   38.0420 C   0  0  0  0  0  0  0  0  0  0  0  0
   38.0740   24.7360   38.2450 C   0  0  0  0  0  0  0  0  0  0  0  0
   38.2700   25.5720   37.1950 N   0  0  0  0  0  0  0  0  0  0  0  0
   38.2820   25.1310   35.9190 C   0  0  0  0  0  0  0  0  0  0  0  0
   38.0900   23.8010   35.7030 N   0  0  0  0  0  0  0  0  0  0  0  0
   37.6580   22.4240   39.0370 N   0  0  0  0  0  0  0  0  0  0  0  0
   38.8610   27.4350   35.3370 C   0  0  0  0  0  0  0  0  0  0  0  0
   37.2040   26.1240   34.0330 C   0  0  0  0  0  0  0  0  0  0  0  0
   36.8370   27.4000   33.4970 N   0  0  0  0  0  0  0  0  0  0  0  0
   36.2290   28.2440   34.3590 C   0  0  0  0  0  0  0  0  0  0  0  0
   35.8170   29.5140   33.9910 C   0  0  0  0  0  0  0  0  0  0  0  0
   36.0460   29.9090   32.6930 C   0  0  0  0  0  0  0  0  0  0  0  0
   35.6140   31.2170   32.3450 N   0  0  0  0  0  0  0  0  0  0  0  0
   36.6530   29.0640   31.8350 N   0  0  0  0  0  0  0  0  0  0  0  0
   37.0270   27.8510   32.2530 C   0  0  0  0  0  0  0  0  0  0  0  0
   37.5860   27.0650   31.4660 O   0  0  0  0  0  0  0  0  0  0  0  0
   35.1510   30.3830   34.9750 C   0  0  0  0  0  0  0  0  0  0  0  0
   35.8580   31.2700   35.7390 C   0  0  0  0  0  0  0  0  0  0  0  0
   35.2290   32.0830   36.6630 C   0  0  0  0  0  0  0  0  0  0  0  0
   33.8810   31.9550   36.7700 C   0  0  0  0  0  0  0  0  0  0  0  0
   33.1260   31.0860   36.0310 C   0  0  0  0  0  0  0  0  0  0  0  0
   33.7720   30.2710   35.1030 C   0  0  0  0  0  0  0  0  0  0  0  0
   39.5960   25.5830   33.8800 C   0  0  0  0  0  0  0  0  0  0  0  0
   40.9520   25.5260   34.3740 C   0  0  0  0  0  0  0  0  0  0  0  0
   41.6340   26.6960   33.9580 C   0  0  0  0  0  0  0  0  0  0  0  0
   42.8950   26.7230   34.4870 N   0  0  0  0  0  0  0  0  0  0  0  0
   43.0860   25.6110   35.2450 C   0  0  0  0  0  0  0  0  0  0  0  0
   44.0660   25.0040   35.9980 C   0  0  0  0  0  0  0  0  0  0  0  0
   43.8350   23.7670   36.6050 C   0  0  0  0  0  0  0  0  0  0  0  0
   42.6140   23.1210   36.4630 C   0  0  0  0  0  0  0  0  0  0  0  0
   41.6150   23.7090   35.7150 C   0  0  0  0  0  0  0  0  0  0  0  0
   41.9160   24.9300   35.1490 C   0  0  0  0  0  0  0  0  0  0  0  0
   37.7478   21.9078   36.5063 H   0  0  0  0  0  0  0  0  0  0  0  0
   38.0702   25.1387   39.2686 H   0  0  0  0  0  0  0  0  0  0  0  0
   37.6383   22.7013   40.0288 H   0  0  0  0  0  0  0  0  0  0  0  0
   37.5149   21.4382   38.7750 H   0  0  0  0  0  0  0  0  0  0  0  0
   38.8572   27.4210   36.4369 H   0  0  0  0  0  0  0  0  0  0  0  0
   39.8647   27.7053   34.9772 H   0  0  0  0  0  0  0  0  0  0  0  0
   38.1310   28.1750   34.9772 H   0  0  0  0  0  0  0  0  0  0  0  0
   37.2958   25.4211   33.1918 H   0  0  0  0  0  0  0  0  0  0  0  0
   36.4123   25.8701   34.7532 H   0  0  0  0  0  0  0  0  0  0  0  0
   36.0545   27.9098   35.3924 H   0  0  0  0  0  0  0  0  0  0  0  0
   35.7578   31.5693   31.3879 H   0  0  0  0  0  0  0  0  0  0  0  0
   35.1570   31.8130   33.0499 H   0  0  0  0  0  0  0  0  0  0  0  0
   36.9490   31.3378   35.6157 H   0  0  0  0  0  0  0  0  0  0  0  0
   35.7920   32.7980   37.2809 H   0  0  0  0  0  0  0  0  0  0  0  0
   33.3615   32.5931   37.5000 H   0  0  0  0  0  0  0  0  0  0  0  0
   32.0356   31.0317   36.1658 H   0  0  0  0  0  0  0  0  0  0  0  0
   33.2046   29.5573   34.4876 H   0  0  0  0  0  0  0  0  0  0  0  0
   39.3238   24.5652   33.5638 H   0  0  0  0  0  0  0  0  0  0  0  0
   39.6324   26.3465   33.0889 H   0  0  0  0  0  0  0  0  0  0  0  0
   41.2101   27.4717   33.3033 H   0  0  0  0  0  0  0  0  0  0  0  0
   43.5898   27.4680   34.3351 H   0  0  0  0  0  0  0  0  0  0  0  0
   45.0408   25.4981   36.1229 H   0  0  0  0  0  0  0  0  0  0  0  0
   44.6306   23.2988   37.2031 H   0  0  0  0  0  0  0  0  0  0  0  0
   42.4444   22.1464   36.9440 H   0  0  0  0  0  0  0  0  0  0  0  0
   40.6339   23.2309   35.5778 H   0  0  0  0  0  0  0  0  0  0  0  0
  1 25  1  6
  1  9  1  0
  1  6  1  0
  2  3  2  0
  3  4  1  0
  3  8  1  0
  5  4  2  0
  6  5  1  0
  7  6  2  0
  7  2  1  0
 10  1  1  0
 11 10  1  0
 11 12  1  0
 13 12  2  0
 13 19  1  0
 14 13  1  0
 15 14  1  0
 16 17  1  0
 16 14  2  0
 17 11  1  0
 18 17  2  0
 19 24  1  0
 19 20  2  0
 20 21  1  0
 21 22  2  0
 23 22  1  0
 24 23  2  0
 25 26  1  0
 26 34  1  0
 27 26  2  0
 27 28  1  0
 28 29  1  0
 29 30  2  0
 30 31  1  0
 32 31  2  0
 33 32  1  0
 34 29  1  0
 34 33  2  0
  2 35  1  0
  4 36  1  0
  8 37  1  0
  8 38  1  0
  9 39  1  0
  9 40  1  0
  9 41  1  0
 10 42  1  0
 10 43  1  0
 12 44  1  0
 15 45  1  0
 15 46  1  0
 20 47  1  0
 21 48  1  0
 22 49  1  0
 23 50  1  0
 24 51  1  0
 25 52  1  0
 25 53  1  0
 27 54  1  0
 28 55  1  0
 30 56  1  0
 31 57  1  0
 32 58  1  0
 33 59  1  0
M  END
>  <minimizedAffinity>  (1) 
-7.75999689

>  <minimizedRMSD>  (1) 
1.08439457

$$$$
