
     RDKit          3D

 46 50  0  0  1  0  0  0  0  0999 V2000
   38.4930   22.7970   32.0300 N   0  0  0  0  0  0  0  0  0  0  0  0
   39.1970   22.1270   31.1280 N   0  0  0  0  0  0  0  0  0  0  0  0
   39.0450   22.6440   29.9020 C   0  0  0  0  0  0  0  0  0  0  0  0
   38.1960   23.7070   30.0200 C   0  0  0  0  0  0  0  0  0  0  0  0
   37.8540   23.7940   31.3650 C   0  0  0  0  0  0  0  0  0  0  0  0
   37.1230   21.7110   35.2570 C   0  0  0  0  0  0  0  0  0  0  0  0
   37.3090   21.8450   33.8760 C   0  0  0  0  0  0  0  0  0  0  0  0
   38.3110   22.6700   33.4330 C   0  0  0  0  0  0  0  0  0  0  0  0
   39.0820   23.3240   34.3630 N   0  0  0  0  0  0  0  0  0  0  0  0
   38.8770   23.1740   35.6710 C   0  0  0  0  0  0  0  0  0  0  0  0
   37.8970   22.3670   36.1260 N   0  0  0  0  0  0  0  0  0  0  0  0
   36.4300   21.1020   33.0420 N   0  0  0  0  0  0  0  0  0  0  0  0
   35.1650   21.3680   32.6040 C   0  0  0  0  0  0  0  0  0  0  0  0
   34.7700   20.3290   31.8270 N   0  0  0  0  0  0  0  0  0  0  0  0
   35.7860   19.4340   31.7940 C   0  0  0  0  0  0  0  0  0  0  0  0
   36.7960   19.9310   32.5480 N   0  0  0  0  0  0  0  0  0  0  0  0
   36.9170   24.8430   31.8590 C   0  0  2  0  0  0  0  0  0  0  0  0
   35.6010   24.8590   31.1710 C   0  0  0  0  0  0  0  0  0  0  0  0
   37.6440   26.1810   31.7920 C   0  0  0  0  0  0  0  0  0  0  0  0
   37.0300   27.2260   32.6170 C   0  0  0  0  0  0  0  0  0  0  0  0
   37.0000   27.1300   34.0040 C   0  0  0  0  0  0  0  0  0  0  0  0
   36.4110   28.1670   34.5920 N   0  0  0  0  0  0  0  0  0  0  0  0
   36.0350   28.9820   33.5760 C   0  0  0  0  0  0  0  0  0  0  0  0
   35.3840   30.2000   33.5580 C   0  0  0  0  0  0  0  0  0  0  0  0
   35.1380   30.7910   32.3400 C   0  0  0  0  0  0  0  0  0  0  0  0
   35.5100   30.2300   31.1250 C   0  0  0  0  0  0  0  0  0  0  0  0
   36.1680   28.9990   31.1380 C   0  0  0  0  0  0  0  0  0  0  0  0
   36.4100   28.4120   32.3700 C   0  0  0  0  0  0  0  0  0  0  0  0
   39.5148   22.2813   28.9759 H   0  0  0  0  0  0  0  0  0  0  0  0
   37.8503   24.3656   29.2096 H   0  0  0  0  0  0  0  0  0  0  0  0
   36.3252   21.0538   35.6333 H   0  0  0  0  0  0  0  0  0  0  0  0
   39.5138   23.7140   36.3872 H   0  0  0  0  0  0  0  0  0  0  0  0
   34.5722   22.2643   32.8390 H   0  0  0  0  0  0  0  0  0  0  0  0
   35.7904   18.4764   31.2527 H   0  0  0  0  0  0  0  0  0  0  0  0
   36.6448   24.6135   32.8998 H   0  0  0  0  0  0  0  0  0  0  0  0
   34.7957   24.8688   31.9202 H   0  0  0  0  0  0  0  0  0  0  0  0
   35.5272   25.7581   30.5416 H   0  0  0  0  0  0  0  0  0  0  0  0
   35.5054   23.9620   30.5416 H   0  0  0  0  0  0  0  0  0  0  0  0
   38.6789   26.0317   32.1337 H   0  0  0  0  0  0  0  0  0  0  0  0
   37.5927   26.5234   30.7479 H   0  0  0  0  0  0  0  0  0  0  0  0
   37.4220   26.2798   34.5600 H   0  0  0  0  0  0  0  0  0  0  0  0
   36.2708   28.3183   35.6011 H   0  0  0  0  0  0  0  0  0  0  0  0
   35.0701   30.6854   34.4939 H   0  0  0  0  0  0  0  0  0  0  0  0
   34.6185   31.7605   32.3278 H   0  0  0  0  0  0  0  0  0  0  0  0
   35.2916   30.7428   30.1766 H   0  0  0  0  0  0  0  0  0  0  0  0
   36.4833   28.5120   30.2034 H   0  0  0  0  0  0  0  0  0  0  0  0
  1  8  1  0
  2  1  1  0
  3  4  1  0
  3  2  2  0
  4  5  2  0
  5 17  1  0
  5  1  1  0
  6 11  2  0
  7  6  1  0
  8  7  2  0
  8  9  1  0
  9 10  2  0
 10 11  1  0
 12  7  1  0
 13 12  1  0
 14 13  2  0
 15 14  1  0
 15 16  2  0
 16 12  1  0
 18 17  1  0
 19 17  1  0
 19 20  1  0
 20 21  2  0
 21 22  1  0
 23 22  1  0
 24 23  2  0
 25 24  1  0
 26 27  1  0
 26 25  2  0
 27 28  2  0
 28 20  1  0
 28 23  1  0
  3 29  1  0
  4 30  1  0
  6 31  1  0
 10 32  1  0
 13 33  1  0
 15 34  1  0
 17 35  1  1
 18 36  1  0
 18 37  1  0
 18 38  1  0
 19 39  1  0
 19 40  1  0
 21 41  1  0
 22 42  1  0
 24 43  1  0
 25 44  1  0
 26 45  1  0
 27 46  1  0
M  ISO  8  29  14  30  14  31  14  32  14  33  14  34  14  35   8  36   8
M  ISO  8  37   8  38   8  39   8  40   8  41  14  42   9  43  14  44  14
M  ISO  2  45  14  46  14
M  END
>  <minimizedAffinity>  (1) 
-5.45950699

>  <minimizedRMSD>  (1) 
2.71606731

$$$$
