
     RDKit          3D

 32 35  0  0  1  0  0  0  0  0999 V2000
   38.0830   23.7630   34.4500 C   0  0  0  0  0  0  0  0  0  0  0  0
   38.2740   24.9590   33.7760 C   0  0  0  0  0  0  0  0  0  0  0  0
   37.8190   24.6930   32.5140 N   0  0  0  0  0  0  0  0  0  0  0  0
   37.4020   23.4460   32.4770 C   0  0  0  0  0  0  0  0  0  0  0  0
   37.5530   22.8310   33.6760 N   0  0  0  0  0  0  0  0  0  0  0  0
   38.4210   23.5410   35.8560 C   0  0  0  0  0  0  0  0  0  0  0  0
   39.6430   22.9480   36.1950 C   0  0  0  0  0  0  0  0  0  0  0  0
   39.9310   22.7520   37.5630 C   0  0  0  0  0  0  0  0  0  0  0  0
   39.0170   23.1460   38.4620 N   0  0  0  0  0  0  0  0  0  0  0  0
   37.8400   23.7200   38.1000 C   0  0  0  0  0  0  0  0  0  0  0  0
   37.5420   23.9170   36.8040 N   0  0  0  0  0  0  0  0  0  0  0  0
   37.1830   21.4620   33.9330 C   0  0  1  0  0  0  0  0  0  0  0  0
   36.0170   21.0850   34.7180 C   0  0  0  0  0  0  0  0  0  0  0  0
   35.9010   21.0530   33.2190 C   0  0  2  0  0  0  0  0  0  0  0  0
   36.0450   19.7620   32.4930 C   0  0  0  0  0  0  0  0  0  0  0  0
   35.3830   18.6370   32.9630 C   0  0  0  0  0  0  0  0  0  0  0  0
   35.5480   17.4520   32.2520 C   0  0  0  0  0  0  0  0  0  0  0  0
   36.3090   17.3440   31.1410 N   0  0  0  0  0  0  0  0  0  0  0  0
   36.9310   18.4850   30.7320 C   0  0  0  0  0  0  0  0  0  0  0  0
   36.8060   19.6700   31.3870 N   0  0  0  0  0  0  0  0  0  0  0  0
   38.6924   25.8993   34.1642 H   0  0  0  0  0  0  0  0  0  0  0  0
   36.9823   22.9615   31.5831 H   0  0  0  0  0  0  0  0  0  0  0  0
   40.3587   22.6433   35.4172 H   0  0  0  0  0  0  0  0  0  0  0  0
   40.8768   22.2899   37.8821 H   0  0  0  0  0  0  0  0  0  0  0  0
   37.1231   24.0269   38.8758 H   0  0  0  0  0  0  0  0  0  0  0  0
   38.2323   21.1422   34.0145 H   0  0  0  0  0  0  0  0  0  0  0  0
   36.0233   20.1418   35.2839 H   0  0  0  0  0  0  0  0  0  0  0  0
   35.4436   21.5718   35.5207 H   0  0  0  0  0  0  0  0  0  0  0  0
   35.1678   21.4702   32.5131 H   0  0  0  0  0  0  0  0  0  0  0  0
   34.7520   18.6800   33.8630 H   0  0  0  0  0  0  0  0  0  0  0  0
   35.0294   16.5525   32.6152 H   0  0  0  0  0  0  0  0  0  0  0  0
   37.5623   18.4459   29.8320 H   0  0  0  0  0  0  0  0  0  0  0  0
  1  6  1  0
  2  1  2  0
  3  2  1  0
  4  3  2  0
  4  5  1  0
  5 12  1  0
  5  1  1  0
  6  7  2  0
  6 11  1  0
  7  8  1  0
  8  9  2  0
 10  9  1  0
 11 10  2  0
 12 13  1  0
 14 12  1  0
 14 13  1  0
 15 16  2  0
 15 14  1  0
 17 16  1  0
 18 17  2  0
 19 18  1  0
 19 20  2  0
 20 15  1  0
  2 21  1  0
  4 22  1  0
  7 23  1  0
  8 24  1  0
 10 25  1  0
 12 26  1  6
 13 27  1  0
 13 28  1  0
 14 29  1  1
 16 30  1  0
 17 31  1  0
 19 32  1  0
M  ISO  8  21  14  22  14  23  14  24  14  25  14  26  13  27  13  28  13
M  ISO  4  29  13  30  14  31  14  32  14
M  END
>  <minimizedAffinity>  (1) 
-4.86491108

>  <minimizedRMSD>  (1) 
1.01306784

$$$$
