
     RDKit          3D

 54 58  0  0  0  0  0  0  0  0999 V2000
   37.2390   26.5880   34.5860 C   0  0  0  0  0  0  0  0  0  0  0  0
   37.2980   25.6950   33.5190 C   0  0  0  0  0  0  0  0  0  0  0  0
   36.6900   26.0560   32.2990 C   0  0  0  0  0  0  0  0  0  0  0  0
   36.0850   27.2560   32.2510 N   0  0  0  0  0  0  0  0  0  0  0  0
   36.0420   28.1020   33.2980 C   0  0  0  0  0  0  0  0  0  0  0  0
   36.6150   27.7850   34.4770 N   0  0  0  0  0  0  0  0  0  0  0  0
   37.8770   26.1910   35.8360 C   0  0  0  0  0  0  0  0  0  0  0  0
   38.6720   26.9730   36.3840 O   0  0  0  0  0  0  0  0  0  0  0  0
   37.5940   24.9710   36.3870 O   0  0  0  0  0  0  0  0  0  0  0  0
   39.6160   22.6970   38.1750 N   0  0  0  0  0  0  0  0  0  0  0  0
   38.5390   23.4710   38.0120 N   0  0  0  0  0  0  0  0  0  0  0  0
   38.6290   24.0880   36.7930 C   0  0  0  0  0  0  0  0  0  0  0  0
   39.7800   23.6940   36.1820 C   0  0  0  0  0  0  0  0  0  0  0  0
   40.3660   22.8330   37.0660 C   0  0  0  0  0  0  0  0  0  0  0  0
   41.6660   22.1490   36.8080 C   0  0  0  0  0  0  0  0  0  0  0  0
   42.6910   22.8420   36.2020 C   0  0  0  0  0  0  0  0  0  0  0  0
   43.8490   22.1110   36.0110 C   0  0  0  0  0  0  0  0  0  0  0  0
   44.0330   20.8130   36.3670 N   0  0  0  0  0  0  0  0  0  0  0  0
   42.9880   20.1850   36.9600 C   0  0  0  0  0  0  0  0  0  0  0  0
   41.8470   20.8520   37.1650 N   0  0  0  0  0  0  0  0  0  0  0  0
   35.3350   29.4000   33.1040 C   0  0  0  0  0  0  0  0  0  0  0  0
   34.6790   29.7150   34.4640 C   0  0  0  0  0  0  0  0  0  0  0  0
   34.2330   29.1900   32.1080 C   0  0  0  0  0  0  0  0  0  0  0  0
   36.2600   30.5150   32.7300 C   0  0  0  0  0  0  0  0  0  0  0  0
   36.4800   30.7130   31.2980 C   0  0  0  0  0  0  0  0  0  0  0  0
   35.8440   31.7710   30.6340 C   0  0  0  0  0  0  0  0  0  0  0  0
   36.1790   31.8140   29.3320 N   0  0  0  0  0  0  0  0  0  0  0  0
   37.0350   30.8010   29.1000 C   0  0  0  0  0  0  0  0  0  0  0  0
   37.7050   30.3460   27.9600 C   0  0  0  0  0  0  0  0  0  0  0  0
   38.5240   29.2410   28.0800 C   0  0  0  0  0  0  0  0  0  0  0  0
   38.6920   28.5860   29.2840 C   0  0  0  0  0  0  0  0  0  0  0  0
   38.0330   29.0300   30.4100 C   0  0  0  0  0  0  0  0  0  0  0  0
   37.2160   30.1330   30.2940 C   0  0  0  0  0  0  0  0  0  0  0  0
   37.8090   24.7268   33.6258 H   0  0  0  0  0  0  0  0  0  0  0  0
   36.7097   25.3866   31.4264 H   0  0  0  0  0  0  0  0  0  0  0  0
   39.8309   22.1089   38.9928 H   0  0  0  0  0  0  0  0  0  0  0  0
   40.1552   24.0011   35.1946 H   0  0  0  0  0  0  0  0  0  0  0  0
   42.5957   23.8938   35.8944 H   0  0  0  0  0  0  0  0  0  0  0  0
   44.6940   22.6247   35.5293 H   0  0  0  0  0  0  0  0  0  0  0  0
   43.0780   19.1336   37.2706 H   0  0  0  0  0  0  0  0  0  0  0  0
   35.3474   29.3941   35.2766 H   0  0  0  0  0  0  0  0  0  0  0  0
   34.4997   30.7974   34.5427 H   0  0  0  0  0  0  0  0  0  0  0  0
   33.7221   29.1781   34.5427 H   0  0  0  0  0  0  0  0  0  0  0  0
   33.2873   29.0098   32.6401 H   0  0  0  0  0  0  0  0  0  0  0  0
   34.1337   30.0854   31.4768 H   0  0  0  0  0  0  0  0  0  0  0  0
   34.4700   28.3208   31.4768 H   0  0  0  0  0  0  0  0  0  0  0  0
   35.8448   31.4480   33.1388 H   0  0  0  0  0  0  0  0  0  0  0  0
   37.2405   30.2384   33.1450 H   0  0  0  0  0  0  0  0  0  0  0  0
   35.1555   32.4792   31.1182 H   0  0  0  0  0  0  0  0  0  0  0  0
   35.8421   32.4973   28.6388 H   0  0  0  0  0  0  0  0  0  0  0  0
   37.5827   30.8553   26.9927 H   0  0  0  0  0  0  0  0  0  0  0  0
   39.0576   28.8721   27.1917 H   0  0  0  0  0  0  0  0  0  0  0  0
   39.3527   27.7086   29.3444 H   0  0  0  0  0  0  0  0  0  0  0  0
   38.1561   28.5174   31.3754 H   0  0  0  0  0  0  0  0  0  0  0  0
  1  7  1  0
  2  1  2  0
  3  2  1  0
  4  3  2  0
  4  5  1  0
  5  6  2  0
  6  1  1  0
  7  8  2  0
  7  9  1  0
  9 12  1  0
 11 10  1  0
 12 11  2  0
 13 12  1  0
 13 14  2  0
 14 10  1  0
 15 14  1  0
 15 20  1  0
 16 15  2  0
 17 16  1  0
 17 18  2  0
 18 19  1  0
 19 20  2  0
 21  5  1  0
 21 22  1  0
 23 21  1  0
 24 21  1  0
 25 24  1  0
 26 25  2  0
 27 26  1  0
 28 27  1  0
 28 33  2  0
 29 30  2  0
 29 28  1  0
 30 31  1  0
 31 32  2  0
 33 32  1  0
 33 25  1  0
  2 34  1  0
  3 35  1  0
 10 36  1  0
 13 37  1  0
 16 38  1  0
 17 39  1  0
 19 40  1  0
 22 41  1  0
 22 42  1  0
 22 43  1  0
 23 44  1  0
 23 45  1  0
 23 46  1  0
 24 47  1  0
 24 48  1  0
 26 49  1  0
 27 50  1  0
 29 51  1  0
 30 52  1  0
 31 53  1  0
 32 54  1  0
M  ISO  8  34  14  35  14  36   9  37  14  38  14  39  14  40  14  41   8
M  ISO  8  42   8  43   8  44   8  45   8  46   8  47   8  48   8  49  14
M  ISO  5  50   9  51  14  52  14  53  14  54  14
M  END
>  <minimizedAffinity>  (1) 
-6.14729595

>  <minimizedRMSD>  (1) 
1.21234596

$$$$
