
     RDKit          3D

 45 50  0  0  0  0  0  0  0  0999 V2000
   39.2510   23.4560   32.4370 C   0  0  0  0  0  0  0  0  0  0  0  0
   40.0580   22.3690   32.7540 C   0  0  0  0  0  0  0  0  0  0  0  0
   39.6110   21.0490   32.6560 C   0  0  0  0  0  0  0  0  0  0  0  0
   38.3150   20.7970   32.2300 C   0  0  0  0  0  0  0  0  0  0  0  0
   37.4920   21.8570   31.9090 C   0  0  0  0  0  0  0  0  0  0  0  0
   36.2140   21.6200   31.4810 C   0  0  0  0  0  0  0  0  0  0  0  0
   35.3530   22.6300   31.1420 C   0  0  0  0  0  0  0  0  0  0  0  0
   35.8310   23.9390   31.2490 C   0  0  0  0  0  0  0  0  0  0  0  0
   37.1280   24.1380   31.6840 C   0  0  0  0  0  0  0  0  0  0  0  0
   37.9870   23.1410   32.0240 C   0  0  0  0  0  0  0  0  0  0  0  0
   39.7530   24.7930   32.5560 C   0  0  0  0  0  0  0  0  0  0  0  0
   39.7110   25.5160   33.7650 C   0  0  0  0  0  0  0  0  0  0  0  0
   40.2390   26.8140   33.7650 C   0  0  0  0  0  0  0  0  0  0  0  0
   40.7670   27.3240   32.6150 N   0  0  0  0  0  0  0  0  0  0  0  0
   40.7950   26.6030   31.4750 C   0  0  0  0  0  0  0  0  0  0  0  0
   40.3000   25.3850   31.4700 N   0  0  0  0  0  0  0  0  0  0  0  0
   39.1780   24.9410   34.9050 N   0  0  0  0  0  0  0  0  0  0  0  0
   37.9280   25.1030   35.3720 C   0  0  0  0  0  0  0  0  0  0  0  0
   37.7240   24.3970   36.5060 N   0  0  0  0  0  0  0  0  0  0  0  0
   38.8840   23.7620   36.7730 C   0  0  0  0  0  0  0  0  0  0  0  0
   39.3010   22.9140   37.7660 C   0  0  0  0  0  0  0  0  0  0  0  0
   40.5510   22.3840   37.8300 N   0  0  0  0  0  0  0  0  0  0  0  0
   41.4000   22.7470   36.8260 C   0  0  0  0  0  0  0  0  0  0  0  0
   40.9760   23.5710   35.8720 N   0  0  0  0  0  0  0  0  0  0  0  0
   39.7700   24.1100   35.7730 C   0  0  0  0  0  0  0  0  0  0  0  0
   37.2630   25.5790   31.6240 C   0  0  0  0  0  0  0  0  0  0  0  0
   36.7210   26.2810   32.7410 C   0  0  0  0  0  0  0  0  0  0  0  0
   36.6770   27.6610   32.9770 C   0  0  0  0  0  0  0  0  0  0  0  0
   37.2220   28.4140   32.0140 N   0  0  0  0  0  0  0  0  0  0  0  0
   37.7480   27.8150   30.9400 C   0  0  0  0  0  0  0  0  0  0  0  0
   37.7460   26.4980   30.8000 N   0  0  0  0  0  0  0  0  0  0  0  0
   41.0871   22.5554   33.0948 H   0  0  0  0  0  0  0  0  0  0  0  0
   40.2814   20.2161   32.9146 H   0  0  0  0  0  0  0  0  0  0  0  0
   37.9475   19.7634   32.1490 H   0  0  0  0  0  0  0  0  0  0  0  0
   35.8651   20.5795   31.4064 H   0  0  0  0  0  0  0  0  0  0  0  0
   34.3288   22.4198   30.8001 H   0  0  0  0  0  0  0  0  0  0  0  0
   35.1880   24.7938   30.9922 H   0  0  0  0  0  0  0  0  0  0  0  0
   40.2279   27.4170   34.6849 H   0  0  0  0  0  0  0  0  0  0  0  0
   41.2279   27.0302   30.5584 H   0  0  0  0  0  0  0  0  0  0  0  0
   37.1653   25.7326   34.8905 H   0  0  0  0  0  0  0  0  0  0  0  0
   38.5833   22.6473   38.5558 H   0  0  0  0  0  0  0  0  0  0  0  0
   42.4296   22.3604   36.8055 H   0  0  0  0  0  0  0  0  0  0  0  0
   36.2760   25.6516   33.5257 H   0  0  0  0  0  0  0  0  0  0  0  0
   36.2289   28.0927   33.8841 H   0  0  0  0  0  0  0  0  0  0  0  0
   38.1957   28.4348   30.1492 H   0  0  0  0  0  0  0  0  0  0  0  0
  1 11  1  0
  1  2  2  0
  3  2  1  0
  4  3  2  0
  5 10  2  0
  5  4  1  0
  6  5  1  0
  7  8  1  0
  7  6  2  0
  8  9  2  0
  9 10  1  0
 10  1  1  0
 11 12  1  0
 12 17  1  0
 13 12  2  0
 14 13  1  0
 15 14  2  0
 16 15  1  0
 16 11  2  0
 17 18  1  0
 17 25  1  0
 18 19  2  0
 19 20  1  0
 20 21  2  0
 21 22  1  0
 23 22  2  0
 24 23  1  0
 25 24  2  0
 25 20  1  0
 26  9  1  0
 26 27  2  0
 27 28  1  0
 29 28  2  0
 30 29  1  0
 31 30  2  0
 31 26  1  0
  2 32  1  0
  3 33  1  0
  4 34  1  0
  6 35  1  0
  7 36  1  0
  8 37  1  0
 13 38  1  0
 15 39  1  0
 18 40  1  0
 21 41  1  0
 23 42  1  0
 27 43  1  0
 28 44  1  0
 30 45  1  0
M  ISO  8  32  14  33  14  34  14  35  14  36  14  37  14  38  14  39  14
M  ISO  6  40  14  41  14  42  14  43  14  44  14  45  14
M  END
>  <minimizedAffinity>  (1) 
-6.18742466

>  <minimizedRMSD>  (1) 
1.53344059

$$$$
