
     RDKit          3D

 25 26  0  0  0  0  0  0  0  0999 V2000
   39.7980   23.0260   36.9180 C   0  0  0  0  0  0  0  0  0  0  0  0
   39.1920   23.8740   35.9860 C   0  0  0  0  0  0  0  0  0  0  0  0
   38.1580   24.7040   36.4510 C   0  0  0  0  0  0  0  0  0  0  0  0
   37.7950   24.6530   37.7620 N   0  0  0  0  0  0  0  0  0  0  0  0
   38.4160   23.8130   38.6270 C   0  0  0  0  0  0  0  0  0  0  0  0
   39.3980   23.0180   38.2070 N   0  0  0  0  0  0  0  0  0  0  0  0
   37.4550   25.6200   35.5890 N   0  0  0  0  0  0  0  0  0  0  0  0
   37.9030   26.9600   35.4880 C   0  0  0  0  0  0  0  0  0  0  0  0
   38.5830   27.5160   36.4320 N   0  0  0  0  0  0  0  0  0  0  0  0
   37.5690   27.6630   34.3020 N   0  0  0  0  0  0  0  0  0  0  0  0
   38.9200   28.4970   36.4300 H   0  0  0  0  0  0  0  0  0  0  0  0
   40.8590   22.1660   36.4690 C   0  0  0  0  0  0  0  0  0  0  0  0
   41.5780   21.4140   37.3980 C   0  0  0  0  0  0  0  0  0  0  0  0
   42.5980   20.5770   37.0370 C   0  0  0  0  0  0  0  0  0  0  0  0
   42.9130   20.4820   35.7130 N   0  0  0  0  0  0  0  0  0  0  0  0
   42.1980   21.2240   34.8350 C   0  0  0  0  0  0  0  0  0  0  0  0
   41.1840   22.0580   35.1810 N   0  0  0  0  0  0  0  0  0  0  0  0
   39.5112   23.8907   34.9335 H   0  0  0  0  0  0  0  0  0  0  0  0
   38.1064   23.7884   39.6822 H   0  0  0  0  0  0  0  0  0  0  0  0
   36.6351   25.3036   35.0518 H   0  0  0  0  0  0  0  0  0  0  0  0
   37.8714   28.6400   34.1800 H   0  0  0  0  0  0  0  0  0  0  0  0
   37.0241   27.1964   33.5629 H   0  0  0  0  0  0  0  0  0  0  0  0
   41.3145   21.4973   38.4627 H   0  0  0  0  0  0  0  0  0  0  0  0
   43.1484   19.9972   37.7926 H   0  0  0  0  0  0  0  0  0  0  0  0
   42.4561   21.1459   33.7686 H   0  0  0  0  0  0  0  0  0  0  0  0
  1  6  2  0
  2  3  2  0
  2  1  1  0
  3  4  1  0
  4  5  2  0
  6  5  1  0
  7  3  1  0
  8  7  1  0
  8  9  2  0
 10  8  1  0
 11  9  1  0
 12  1  1  0
 12 13  2  0
 14 13  1  0
 15 14  2  0
 16 17  2  0
 16 15  1  0
 17 12  1  0
  2 18  1  0
  5 19  1  0
  7 20  1  0
 10 21  1  0
 10 22  1  0
 13 23  1  0
 14 24  1  0
 16 25  1  0
M  ISO  5  18  14  19  14  23  14  24  14  25  14
M  END
>  <minimizedAffinity>  (1) 
-4.66279507

>  <minimizedRMSD>  (1) 
0.781403124

$$$$
