
     RDKit          3D

 48 51  0  0  1  0  0  0  0  0999 V2000
   38.1670   23.8460   35.7360 C   0  0  0  0  0  0  0  0  0  0  0  0
   38.1800   24.5410   36.9540 C   0  0  0  0  0  0  0  0  0  0  0  0
   38.1390   25.9410   36.9080 C   0  0  0  0  0  0  0  0  0  0  0  0
   38.0910   26.5470   35.6980 N   0  0  0  0  0  0  0  0  0  0  0  0
   38.0790   25.8700   34.5620 C   0  0  0  0  0  0  0  0  0  0  0  0
   38.1180   24.5400   34.5870 N   0  0  0  0  0  0  0  0  0  0  0  0
   38.0150   26.6000   33.3420 N   0  0  0  0  0  0  0  0  0  0  0  0
   38.6550   26.0500   32.1830 C   0  0  0  0  0  0  0  0  0  0  0  0
   38.9000   27.1920   31.2360 C   0  0  0  0  0  0  0  0  0  0  0  0
   37.6670   27.9410   30.8520 C   0  0  0  0  0  0  0  0  0  0  0  0
   36.6940   28.1640   31.9550 C   0  0  0  0  0  0  0  0  0  0  0  0
   37.3140   27.8400   33.2770 C   0  0  1  0  0  0  0  0  0  0  0  0
   38.2330   23.8510   38.2590 C   0  0  0  0  0  0  0  0  0  0  0  0
   39.4530   23.2620   38.3740 F   0  0  0  0  0  0  0  0  0  0  0  0
   37.2670   22.9040   38.4250 F   0  0  0  0  0  0  0  0  0  0  0  0
   38.1840   24.7930   39.3020 F   0  0  0  0  0  0  0  0  0  0  0  0
   38.2100   22.3770   35.5570 C   0  0  0  0  0  0  0  0  0  0  0  0
   38.2980   22.0400   34.2130 F   0  0  0  0  0  0  0  0  0  0  0  0
   39.2910   21.8310   36.2390 F   0  0  0  0  0  0  0  0  0  0  0  0
   37.1420   21.7220   36.0720 F   0  0  0  0  0  0  0  0  0  0  0  0
   36.2750   28.0170   34.3550 C   0  0  0  0  0  0  0  0  0  0  0  0
   35.3850   29.1990   33.9840 C   0  0  0  0  0  0  0  0  0  0  0  0
   34.4170   29.2400   33.0000 C   0  0  0  0  0  0  0  0  0  0  0  0
   33.8690   30.4690   32.9950 N   0  0  0  0  0  0  0  0  0  0  0  0
   34.4510   31.2250   33.9430 C   0  0  0  0  0  0  0  0  0  0  0  0
   34.3050   32.5230   34.3860 C   0  0  0  0  0  0  0  0  0  0  0  0
   35.0330   33.1020   35.4050 C   0  0  0  0  0  0  0  0  0  0  0  0
   35.9800   32.2800   36.0100 C   0  0  0  0  0  0  0  0  0  0  0  0
   36.1840   30.9660   35.6180 C   0  0  0  0  0  0  0  0  0  0  0  0
   35.4060   30.4650   34.5840 C   0  0  0  0  0  0  0  0  0  0  0  0
   38.1457   26.5344   37.8342 H   0  0  0  0  0  0  0  0  0  0  0  0
   39.6092   25.5808   32.4647 H   0  0  0  0  0  0  0  0  0  0  0  0
   38.0261   25.2784   31.7149 H   0  0  0  0  0  0  0  0  0  0  0  0
   39.5961   27.8956   31.7161 H   0  0  0  0  0  0  0  0  0  0  0  0
   39.3068   26.7558   30.3117 H   0  0  0  0  0  0  0  0  0  0  0  0
   37.9725   28.9237   30.4634 H   0  0  0  0  0  0  0  0  0  0  0  0
   37.1491   27.3172   30.1086 H   0  0  0  0  0  0  0  0  0  0  0  0
   36.3792   29.2180   31.9519 H   0  0  0  0  0  0  0  0  0  0  0  0
   35.8254   27.5072   31.8000 H   0  0  0  0  0  0  0  0  0  0  0  0
   38.1325   28.5562   33.4418 H   0  0  0  0  0  0  0  0  0  0  0  0
   35.6653   27.1050   34.4353 H   0  0  0  0  0  0  0  0  0  0  0  0
   36.7649   28.2045   35.3219 H   0  0  0  0  0  0  0  0  0  0  0  0
   34.1409   28.4094   32.3337 H   0  0  0  0  0  0  0  0  0  0  0  0
   33.1191   30.7826   32.3624 H   0  0  0  0  0  0  0  0  0  0  0  0
   33.5480   33.1461   33.8873 H   0  0  0  0  0  0  0  0  0  0  0  0
   34.8756   34.1445   35.7188 H   0  0  0  0  0  0  0  0  0  0  0  0
   36.5892   32.6885   36.8298 H   0  0  0  0  0  0  0  0  0  0  0  0
   36.9406   30.3388   36.1122 H   0  0  0  0  0  0  0  0  0  0  0  0
  1  2  2  0
  2 13  1  0
  3  2  1  0
  4  3  2  0
  5  6  2  0
  5  4  1  0
  6  1  1  0
  7  5  1  0
  8  7  1  0
  9  8  1  0
 10  9  1  0
 10 11  1  0
 11 12  1  0
 12  7  1  0
 12 21  1  0
 13 14  1  0
 13 15  1  0
 13 16  1  0
 17  1  1  0
 17 20  1  0
 17 19  1  0
 18 17  1  0
 22 21  1  0
 22 30  1  0
 23 22  2  0
 24 23  1  0
 24 25  1  0
 25 26  2  0
 25 30  1  0
 26 27  1  0
 27 28  2  0
 29 28  1  0
 30 29  2  0
  3 31  1  0
  8 32  1  0
  8 33  1  0
  9 34  1  0
  9 35  1  0
 10 36  1  0
 10 37  1  0
 11 38  1  0
 11 39  1  0
 12 40  1  1
 21 41  1  0
 21 42  1  0
 23 43  1  0
 24 44  1  0
 26 45  1  0
 27 46  1  0
 28 47  1  0
 29 48  1  0
M  END
>  <minimizedAffinity>  (1) 
-7.374753

>  <minimizedRMSD>  (1) 
1.61246669

$$$$
