
     RDKit          3D

 40 43  0  0  1  0  0  0  0  0999 V2000
   37.3830   25.8640   32.9250 N   0  0  0  0  0  0  0  0  0  0  0  0
   36.8870   24.7830   32.3230 C   0  0  0  0  0  0  0  0  0  0  0  0
   35.8420   25.0480   31.4610 C   0  0  0  0  0  0  0  0  0  0  0  0
   35.6860   26.3690   31.5390 N   0  0  0  0  0  0  0  0  0  0  0  0
   36.6100   26.8670   32.4170 C   0  0  0  0  0  0  0  0  0  0  0  0
   36.6750   28.3530   32.6710 C   0  0  1  0  0  0  0  0  0  0  0  0
   35.6620   29.2030   32.0120 C   0  0  0  0  0  0  0  0  0  0  0  0
   35.5060   28.9200   33.4870 C   0  0  2  0  0  0  0  0  0  0  0  0
   35.7560   30.1020   34.3460 C   0  0  0  0  0  0  0  0  0  0  0  0
   35.5820   31.4210   33.9750 C   0  0  0  0  0  0  0  0  0  0  0  0
   35.9420   32.1450   35.1070 C   0  0  0  0  0  0  0  0  0  0  0  0
   36.3120   31.2820   36.0970 N   0  0  0  0  0  0  0  0  0  0  0  0
   36.1940   30.0380   35.6160 N   0  0  0  0  0  0  0  0  0  0  0  0
   38.4070   26.1030   33.8620 C   0  0  0  0  0  0  0  0  0  0  0  0
   37.9510   26.0700   35.2690 C   0  0  1  0  0  0  0  0  0  0  0  0
   38.5230   23.4640   37.9520 C   0  0  0  0  0  0  0  0  0  0  0  0
   37.9390   24.5600   37.3020 C   0  0  0  0  0  0  0  0  0  0  0  0
   38.5040   24.9340   36.0440 C   0  0  0  0  0  0  0  0  0  0  0  0
   39.5750   24.2190   35.5320 N   0  0  0  0  0  0  0  0  0  0  0  0
   40.0910   23.1860   36.1890 C   0  0  0  0  0  0  0  0  0  0  0  0
   39.5670   22.7990   37.4090 N   0  0  0  0  0  0  0  0  0  0  0  0
   38.2840   27.3900   35.9640 C   0  0  0  0  0  0  0  0  0  0  0  0
   37.2762   23.7691   32.4978 H   0  0  0  0  0  0  0  0  0  0  0  0
   35.2701   24.3336   30.8506 H   0  0  0  0  0  0  0  0  0  0  0  0
   37.7729   28.3824   32.7318 H   0  0  0  0  0  0  0  0  0  0  0  0
   35.9341   30.2148   31.6770 H   0  0  0  0  0  0  0  0  0  0  0  0
   35.0107   29.0797   31.1341 H   0  0  0  0  0  0  0  0  0  0  0  0
   34.7579   28.4748   34.1594 H   0  0  0  0  0  0  0  0  0  0  0  0
   35.2374   31.8102   33.0056 H   0  0  0  0  0  0  0  0  0  0  0  0
   35.9302   33.2417   35.1909 H   0  0  0  0  0  0  0  0  0  0  0  0
   36.6255   31.5408   37.0434 H   0  0  0  0  0  0  0  0  0  0  0  0
   39.1827   25.3342   33.7311 H   0  0  0  0  0  0  0  0  0  0  0  0
   38.7834   27.1190   33.6718 H   0  0  0  0  0  0  0  0  0  0  0  0
   36.8610   25.9252   35.2369 H   0  0  0  0  0  0  0  0  0  0  0  0
   38.1235   23.1384   38.9238 H   0  0  0  0  0  0  0  0  0  0  0  0
   37.0887   25.1047   37.7383 H   0  0  0  0  0  0  0  0  0  0  0  0
   40.9407   22.6348   35.7598 H   0  0  0  0  0  0  0  0  0  0  0  0
   38.2485   27.2494   37.0544 H   0  0  0  0  0  0  0  0  0  0  0  0
   39.2924   27.7156   35.6689 H   0  0  0  0  0  0  0  0  0  0  0  0
   37.5507   28.1550   35.6689 H   0  0  0  0  0  0  0  0  0  0  0  0
  1 14  1  0
  2  1  1  0
  3  4  1  0
  3  2  2  0
  4  5  2  0
  5  6  1  0
  5  1  1  0
  6  8  1  0
  7  6  1  0
  7  8  1  0
  8  9  1  0
  9 13  2  0
 10  9  1  0
 10 11  2  0
 11 12  1  0
 13 12  1  0
 14 15  1  0
 15 22  1  0
 15 18  1  0
 17 16  2  0
 18 17  1  0
 19 18  2  0
 19 20  1  0
 20 21  2  0
 21 16  1  0
  2 23  1  0
  3 24  1  0
  6 25  1  1
  7 26  1  0
  7 27  1  0
  8 28  1  6
 10 29  1  0
 11 30  1  0
 12 31  1  0
 14 32  1  0
 14 33  1  0
 15 34  1  6
 16 35  1  0
 17 36  1  0
 20 37  1  0
 22 38  1  0
 22 39  1  0
 22 40  1  0
M  ISO  8  23  14  24  14  25  13  26  13  27  13  28  13  29  14  30  14
M  ISO  8  31   9  32   8  33   8  34   8  35  14  36  14  37  14  38   8
M  ISO  2  39   8  40   8
M  END
>  <minimizedAffinity>  (1) 
-5.33924627

>  <minimizedRMSD>  (1) 
0.668285608

$$$$
