
     RDKit          3D

 35 37  0  0  1  0  0  0  0  0999 V2000
   38.1540   24.5500   36.9790 C   0  0  1  0  0  0  0  0  0  0  0  0
   40.9210   21.9890   37.3800 C   0  0  0  0  0  0  0  0  0  0  0  0
   39.9280   22.9210   37.7170 C   0  0  0  0  0  0  0  0  0  0  0  0
   39.2060   23.5630   36.6760 C   0  0  0  0  0  0  0  0  0  0  0  0
   39.5330   23.2250   35.3840 N   0  0  0  0  0  0  0  0  0  0  0  0
   40.4840   22.3330   35.0940 C   0  0  0  0  0  0  0  0  0  0  0  0
   41.1810   21.7130   36.0930 N   0  0  0  0  0  0  0  0  0  0  0  0
   37.6720   24.4460   38.4090 C   0  0  0  0  0  0  0  0  0  0  0  0
   38.5960   25.9710   36.7310 C   0  0  0  0  0  0  0  0  0  0  0  0
   38.3480   26.3790   35.3370 C   0  0  0  0  0  0  0  0  0  0  0  0
   37.0920   26.5140   34.7650 C   0  0  0  0  0  0  0  0  0  0  0  0
   36.8260   26.9070   33.4850 C   0  0  0  0  0  0  0  0  0  0  0  0
   37.8850   27.2040   32.6550 C   0  0  0  0  0  0  0  0  0  0  0  0
   39.1720   27.0970   33.1420 C   0  0  0  0  0  0  0  0  0  0  0  0
   40.2060   27.3890   32.2910 C   0  0  0  0  0  0  0  0  0  0  0  0
   41.5090   27.2860   32.7210 C   0  0  0  0  0  0  0  0  0  0  0  0
   41.7560   26.8840   34.0160 C   0  0  0  0  0  0  0  0  0  0  0  0
   40.6740   26.6030   34.8310 C   0  0  0  0  0  0  0  0  0  0  0  0
   39.3530   26.6930   34.4470 C   0  0  0  0  0  0  0  0  0  0  0  0
   37.3311   24.3066   36.2908 H   0  0  0  0  0  0  0  0  0  0  0  0
   41.4888   21.4824   38.1743 H   0  0  0  0  0  0  0  0  0  0  0  0
   39.7120   23.1509   38.7708 H   0  0  0  0  0  0  0  0  0  0  0  0
   40.7079   22.0956   34.0435 H   0  0  0  0  0  0  0  0  0  0  0  0
   38.5135   24.6276   39.0937 H   0  0  0  0  0  0  0  0  0  0  0  0
   36.8865   25.1953   38.5866 H   0  0  0  0  0  0  0  0  0  0  0  0
   37.2654   23.4395   38.5866 H   0  0  0  0  0  0  0  0  0  0  0  0
   38.0400   26.6407   37.4036 H   0  0  0  0  0  0  0  0  0  0  0  0
   39.6776   26.0339   36.9214 H   0  0  0  0  0  0  0  0  0  0  0  0
   36.2271   26.2822   35.4039 H   0  0  0  0  0  0  0  0  0  0  0  0
   35.7897   26.9848   33.1244 H   0  0  0  0  0  0  0  0  0  0  0  0
   37.7069   27.5224   31.6173 H   0  0  0  0  0  0  0  0  0  0  0  0
   39.9932   27.7071   31.2597 H   0  0  0  0  0  0  0  0  0  0  0  0
   42.3413   27.5210   32.0412 H   0  0  0  0  0  0  0  0  0  0  0  0
   42.7856   26.7892   34.3914 H   0  0  0  0  0  0  0  0  0  0  0  0
   40.8834   26.2839   35.8627 H   0  0  0  0  0  0  0  0  0  0  0  0
  1  8  1  0
  2  3  2  0
  4  1  1  0
  4  3  1  0
  5  4  2  0
  6  5  1  0
  6  7  2  0
  7  2  1  0
  9  1  1  0
 10  9  1  0
 11 10  2  0
 12 11  1  0
 13 14  1  0
 13 12  2  0
 14 19  2  0
 15 16  2  0
 15 14  1  0
 16 17  1  0
 17 18  2  0
 19 18  1  0
 19 10  1  0
  1 20  1  6
  2 21  1  0
  3 22  1  0
  6 23  1  0
  8 24  1  0
  8 25  1  0
  8 26  1  0
  9 27  1  0
  9 28  1  0
 11 29  1  0
 12 30  1  0
 13 31  1  0
 15 32  1  0
 16 33  1  0
 17 34  1  0
 18 35  1  0
M  ISO  8  20   8  21  14  22  14  23  14  24   8  25   8  26   8  27   8
M  ISO  8  28   8  29  14  30  14  31  14  32  14  33  14  34  14  35  14
M  END
>  <minimizedAffinity>  (1) 
-5.15708685

>  <minimizedRMSD>  (1) 
1.21319926

$$$$
