
     RDKit          3D

 23 25  0  0  0  0  0  0  0  0999 V2000
   37.4400   23.8160   37.1020 C   0  0  0  0  0  0  0  0  0  0  0  0
   38.4670   23.1630   36.3730 C   0  0  0  0  0  0  0  0  0  0  0  0
   39.6440   22.8170   37.0230 C   0  0  0  0  0  0  0  0  0  0  0  0
   39.7490   23.1370   38.3510 N   0  0  0  0  0  0  0  0  0  0  0  0
   38.7740   23.7530   39.0240 C   0  0  0  0  0  0  0  0  0  0  0  0
   37.6190   24.0930   38.4020 N   0  0  0  0  0  0  0  0  0  0  0  0
   38.1970   22.9450   35.0040 N   0  0  0  0  0  0  0  0  0  0  0  0
   38.4040   23.7410   33.8940 C   0  0  0  0  0  0  0  0  0  0  0  0
   37.9660   23.0700   32.7970 N   0  0  0  0  0  0  0  0  0  0  0  0
   37.4880   21.8590   33.2480 C   0  0  0  0  0  0  0  0  0  0  0  0
   37.6330   21.7870   34.6170 N   0  0  0  0  0  0  0  0  0  0  0  0
   40.6960   22.1140   36.3390 C   0  0  0  0  0  0  0  0  0  0  0  0
   41.6340   21.3660   37.0500 C   0  0  0  0  0  0  0  0  0  0  0  0
   42.5540   20.7690   36.2470 C   0  0  0  0  0  0  0  0  0  0  0  0
   42.1970   21.1390   35.0260 N   0  0  0  0  0  0  0  0  0  0  0  0
   41.1350   21.9060   35.0930 N   0  0  0  0  0  0  0  0  0  0  0  0
   36.5001   24.0942   36.6028 H   0  0  0  0  0  0  0  0  0  0  0  0
   38.9092   23.9860   40.0905 H   0  0  0  0  0  0  0  0  0  0  0  0
   38.8481   24.7474   33.8978 H   0  0  0  0  0  0  0  0  0  0  0  0
   37.0569   21.0708   32.6132 H   0  0  0  0  0  0  0  0  0  0  0  0
   41.6298   21.2693   38.1457 H   0  0  0  0  0  0  0  0  0  0  0  0
   43.3980   20.1282   36.5421 H   0  0  0  0  0  0  0  0  0  0  0  0
   42.6792   20.8663   34.1577 H   0  0  0  0  0  0  0  0  0  0  0  0
  1  6  2  0
  2  3  2  0
  2  1  1  0
  3  4  1  0
  4  5  2  0
  6  5  1  0
  7  2  1  0
  8  7  1  0
  9 10  1  0
  9  8  2  0
 10 11  2  0
 11  7  1  0
 12  3  1  0
 12 13  1  0
 14 13  2  0
 15 16  1  0
 15 14  1  0
 16 12  2  0
  1 17  1  0
  5 18  1  0
  8 19  1  0
 10 20  1  0
 13 21  1  0
 14 22  1  0
 15 23  1  0
M  ISO  7  17  14  18  14  19  14  20  14  21  14  22  14  23   9
M  END
>  <minimizedAffinity>  (1) 
-3.89656591

>  <minimizedRMSD>  (1) 
1.61073017

$$$$
