
     RDKit          3D

 50 53  0  0  0  0  0  0  0  0999 V2000
   37.3090   26.4740   34.6810 C   0  0  0  0  0  0  0  0  0  0  0  0
   37.4750   25.5910   33.6170 C   0  0  0  0  0  0  0  0  0  0  0  0
   36.9990   25.9770   32.3540 C   0  0  0  0  0  0  0  0  0  0  0  0
   36.4140   27.1780   32.2570 N   0  0  0  0  0  0  0  0  0  0  0  0
   36.2640   28.0180   33.2970 C   0  0  0  0  0  0  0  0  0  0  0  0
   36.7100   27.6770   34.5250 N   0  0  0  0  0  0  0  0  0  0  0  0
   37.8080   26.0620   35.9940 C   0  0  0  0  0  0  0  0  0  0  0  0
   38.4580   26.8880   36.6830 O   0  0  0  0  0  0  0  0  0  0  0  0
   37.5640   24.8020   36.4510 O   0  0  0  0  0  0  0  0  0  0  0  0
   39.6730   22.6110   38.2450 N   0  0  0  0  0  0  0  0  0  0  0  0
   38.5840   23.3580   38.0860 N   0  0  0  0  0  0  0  0  0  0  0  0
   38.6140   23.9530   36.8640 C   0  0  0  0  0  0  0  0  0  0  0  0
   39.7630   23.5690   36.2310 C   0  0  0  0  0  0  0  0  0  0  0  0
   40.3990   22.7380   37.1130 C   0  0  0  0  0  0  0  0  0  0  0  0
   41.7010   22.0760   36.8420 C   0  0  0  0  0  0  0  0  0  0  0  0
   42.7060   22.7890   36.2190 C   0  0  0  0  0  0  0  0  0  0  0  0
   43.8760   22.0750   36.0180 C   0  0  0  0  0  0  0  0  0  0  0  0
   44.0890   20.7950   36.3710 N   0  0  0  0  0  0  0  0  0  0  0  0
   43.0730   20.1410   36.9780 C   0  0  0  0  0  0  0  0  0  0  0  0
   41.9130   20.7910   37.1980 N   0  0  0  0  0  0  0  0  0  0  0  0
   35.5990   29.3230   33.0630 C   0  0  0  0  0  0  0  0  0  0  0  0
   35.6750   30.0970   34.3720 C   0  0  0  0  0  0  0  0  0  0  0  0
   34.1330   29.0480   32.7580 C   0  0  0  0  0  0  0  0  0  0  0  0
   36.2210   30.1020   31.9450 C   0  0  0  0  0  0  0  0  0  0  0  0
   35.7950   31.4960   31.8280 C   0  0  0  0  0  0  0  0  0  0  0  0
   34.6430   31.7400   31.0720 C   0  0  0  0  0  0  0  0  0  0  0  0
   34.1340   33.0080   30.8820 C   0  0  0  0  0  0  0  0  0  0  0  0
   34.8070   34.0610   31.4720 C   0  0  0  0  0  0  0  0  0  0  0  0
   35.9520   33.8850   32.2340 C   0  0  0  0  0  0  0  0  0  0  0  0
   36.4220   32.5890   32.3930 C   0  0  0  0  0  0  0  0  0  0  0  0
   37.9658   24.6174   33.7623 H   0  0  0  0  0  0  0  0  0  0  0  0
   37.1024   25.3191   31.4785 H   0  0  0  0  0  0  0  0  0  0  0  0
   39.9156   22.0455   39.0710 H   0  0  0  0  0  0  0  0  0  0  0  0
   40.1035   23.8646   35.2277 H   0  0  0  0  0  0  0  0  0  0  0  0
   42.5874   23.8374   35.9080 H   0  0  0  0  0  0  0  0  0  0  0  0
   44.7058   22.6028   35.5251 H   0  0  0  0  0  0  0  0  0  0  0  0
   43.1917   19.0923   37.2881 H   0  0  0  0  0  0  0  0  0  0  0  0
   35.6062   29.3961   35.2170 H   0  0  0  0  0  0  0  0  0  0  0  0
   36.6307   30.6393   34.4224 H   0  0  0  0  0  0  0  0  0  0  0  0
   34.8430   30.8148   34.4224 H   0  0  0  0  0  0  0  0  0  0  0  0
   33.5757   28.9435   33.7006 H   0  0  0  0  0  0  0  0  0  0  0  0
   33.7164   29.8837   32.1765 H   0  0  0  0  0  0  0  0  0  0  0  0
   34.0476   28.1182   32.1765 H   0  0  0  0  0  0  0  0  0  0  0  0
   37.3110   30.0933   32.0929 H   0  0  0  0  0  0  0  0  0  0  0  0
   35.8919   29.6097   31.0180 H   0  0  0  0  0  0  0  0  0  0  0  0
   34.1229   30.8873   30.6112 H   0  0  0  0  0  0  0  0  0  0  0  0
   33.2264   33.1747   30.2833 H   0  0  0  0  0  0  0  0  0  0  0  0
   34.4185   35.0804   31.3314 H   0  0  0  0  0  0  0  0  0  0  0  0
   36.4681   34.7401   32.6949 H   0  0  0  0  0  0  0  0  0  0  0  0
   37.3297   32.4259   32.9926 H   0  0  0  0  0  0  0  0  0  0  0  0
  1  7  1  0
  2  1  2  0
  3  2  1  0
  4  3  2  0
  4  5  1  0
  5  6  2  0
  6  1  1  0
  7  9  1  0
  7  8  2  0
  9 12  1  0
 11 10  1  0
 12 11  2  0
 13 12  1  0
 13 14  2  0
 14 10  1  0
 15 14  1  0
 15 20  1  0
 16 15  2  0
 17 16  1  0
 17 18  2  0
 18 19  1  0
 19 20  2  0
 21  5  1  0
 21 22  1  0
 23 21  1  0
 24 21  1  0
 25 24  1  0
 25 30  1  0
 26 25  2  0
 27 26  1  0
 27 28  2  0
 28 29  1  0
 29 30  2  0
  2 31  1  0
  3 32  1  0
 10 33  1  0
 13 34  1  0
 16 35  1  0
 17 36  1  0
 19 37  1  0
 22 38  1  0
 22 39  1  0
 22 40  1  0
 23 41  1  0
 23 42  1  0
 23 43  1  0
 24 44  1  0
 24 45  1  0
 26 46  1  0
 27 47  1  0
 28 48  1  0
 29 49  1  0
 30 50  1  0
M  ISO  8  31  14  32  14  33   9  34  14  35  14  36  14  37  14  38   8
M  ISO  8  39   8  40   8  41   8  42   8  43   8  44   8  45   8  46  14
M  ISO  4  47  14  48  14  49  14  50  14
M  END
>  <minimizedAffinity>  (1) 
-5.83697176

>  <minimizedRMSD>  (1) 
0.268206477

$$$$
