
     RDKit          3D

 40 43  0  0  1  0  0  0  0  0999 V2000
   37.6920   25.3280   34.1780 N   0  0  0  0  0  0  0  0  0  0  0  0
   37.1620   25.2720   32.8320 C   0  0  0  0  0  0  0  0  0  0  0  0
   36.8730   26.6880   32.4590 C   0  0  0  0  0  0  0  0  0  0  0  0
   37.3300   27.4900   33.6680 C   0  0  0  0  0  0  0  0  0  0  0  0
   38.4430   26.5420   34.1940 C   0  0  2  0  0  0  0  0  0  0  0  0
   38.6030   24.2550   34.4300 C   0  0  0  0  0  0  0  0  0  0  0  0
   37.8550   24.0450   38.1310 C   0  0  0  0  0  0  0  0  0  0  0  0
   37.7240   24.3920   36.7870 C   0  0  0  0  0  0  0  0  0  0  0  0
   38.6950   23.9160   35.8760 C   0  0  0  0  0  0  0  0  0  0  0  0
   39.7020   23.1430   36.3800 N   0  0  0  0  0  0  0  0  0  0  0  0
   39.7710   22.8430   37.6930 C   0  0  0  0  0  0  0  0  0  0  0  0
   38.8490   23.2950   38.5510 N   0  0  0  0  0  0  0  0  0  0  0  0
   39.5270   26.5070   33.3580 O   0  0  0  0  0  0  0  0  0  0  0  0
   40.5700   27.3050   33.7550 C   0  0  2  0  0  0  0  0  0  0  0  0
   41.7020   27.4520   32.7870 C   0  0  0  0  0  0  0  0  0  0  0  0
   41.8930   26.7710   34.1120 C   0  0  2  0  0  0  0  0  0  0  0  0
   42.3450   25.3680   34.0350 C   0  0  0  0  0  0  0  0  0  0  0  0
   43.6910   24.8670   34.2820 C   0  0  0  0  0  0  0  0  0  0  0  0
   42.7520   24.7910   35.4150 C   0  0  0  0  0  0  0  0  0  0  0  0
   37.9025   24.8368   32.1449 H   0  0  0  0  0  0  0  0  0  0  0  0
   36.2620   24.6423   32.7733 H   0  0  0  0  0  0  0  0  0  0  0  0
   37.4382   26.9786   31.5612 H   0  0  0  0  0  0  0  0  0  0  0  0
   35.8124   26.8535   32.2186 H   0  0  0  0  0  0  0  0  0  0  0  0
   37.7298   28.4738   33.3813 H   0  0  0  0  0  0  0  0  0  0  0  0
   36.5410   27.7360   34.3939 H   0  0  0  0  0  0  0  0  0  0  0  0
   38.8964   26.8094   35.1599 H   0  0  0  0  0  0  0  0  0  0  0  0
   38.2620   23.3656   33.8798 H   0  0  0  0  0  0  0  0  0  0  0  0
   39.6007   24.5773   34.0972 H   0  0  0  0  0  0  0  0  0  0  0  0
   37.1104   24.4068   38.8553 H   0  0  0  0  0  0  0  0  0  0  0  0
   36.8877   25.0192   36.4446 H   0  0  0  0  0  0  0  0  0  0  0  0
   40.5968   22.2180   38.0638 H   0  0  0  0  0  0  0  0  0  0  0  0
   39.8733   27.9635   34.2944 H   0  0  0  0  0  0  0  0  0  0  0  0
   41.7142   26.8655   31.8565 H   0  0  0  0  0  0  0  0  0  0  0  0
   42.1798   28.2905   32.2591 H   0  0  0  0  0  0  0  0  0  0  0  0
   42.4646   26.8773   35.0458 H   0  0  0  0  0  0  0  0  0  0  0  0
   41.6715   25.1885   33.1840 H   0  0  0  0  0  0  0  0  0  0  0  0
   44.0193   23.9391   33.7909 H   0  0  0  0  0  0  0  0  0  0  0  0
   44.6929   25.3046   34.1606 H   0  0  0  0  0  0  0  0  0  0  0  0
   42.8720   25.4560   36.2829 H   0  0  0  0  0  0  0  0  0  0  0  0
   42.3802   24.0007   36.0837 H   0  0  0  0  0  0  0  0  0  0  0  0
  1  5  1  0
  1  6  1  0
  2  1  1  0
  3  2  1  0
  3  4  1  0
  4  5  1  0
  6  9  1  0
  7 12  2  0
  8  7  1  0
  9 10  1  0
  9  8  2  0
 10 11  2  0
 11 12  1  0
 13 14  1  0
 13  5  1  0
 14 16  1  0
 15 14  1  0
 15 16  1  0
 17 16  1  0
 17 18  1  0
 17 19  1  0
 18 19  1  0
  2 20  1  0
  2 21  1  0
  3 22  1  0
  3 23  1  0
  4 24  1  0
  4 25  1  0
  5 26  1  1
  6 27  1  0
  6 28  1  0
  7 29  1  0
  8 30  1  0
 11 31  1  0
 14 32  1  1
 15 33  1  0
 15 34  1  0
 16 35  1  1
 17 36  1  0
 18 37  1  0
 18 38  1  0
 19 39  1  0
 19 40  1  0
M  ISO  8  20  13  21  13  22  13  23  13  24  13  25  13  26  13  27   8
M  ISO  8  28   8  29  14  30  14  31  14  32  13  33  13  34  13  35  13
M  ISO  5  36  13  37  13  38  13  39  13  40  13
M  END
>  <minimizedAffinity>  (1) 
-4.20343637

>  <minimizedRMSD>  (1) 
0.993332684

$$$$
