
     RDKit          3D

 40 43  0  0  1  0  0  0  0  0999 V2000
   38.4440   25.9660   33.9130 C   0  0  0  0  0  0  0  0  0  0  0  0
   37.4440   25.7140   32.9590 N   0  0  0  0  0  0  0  0  0  0  0  0
   36.9760   24.6280   32.3410 C   0  0  0  0  0  0  0  0  0  0  0  0
   35.9400   24.8720   31.4650 C   0  0  0  0  0  0  0  0  0  0  0  0
   35.7600   26.1870   31.5470 N   0  0  0  0  0  0  0  0  0  0  0  0
   36.6610   26.7010   32.4420 C   0  0  0  0  0  0  0  0  0  0  0  0
   36.6790   28.1970   32.6930 C   0  0  1  0  0  0  0  0  0  0  0  0
   35.5100   28.9450   32.1740 C   0  0  0  0  0  0  0  0  0  0  0  0
   35.6430   28.7280   33.6700 C   0  0  2  0  0  0  0  0  0  0  0  0
   35.8210   30.0490   34.3650 C   0  0  0  0  0  0  0  0  0  0  0  0
   35.4090   31.3450   33.8450 C   0  0  0  0  0  0  0  0  0  0  0  0
   34.7140   30.7140   35.0680 C   0  0  0  0  0  0  0  0  0  0  0  0
   37.9470   25.9680   35.3130 C   0  0  1  0  0  0  0  0  0  0  0  0
   38.5360   23.4720   38.0970 C   0  0  0  0  0  0  0  0  0  0  0  0
   37.9400   24.5370   37.4030 C   0  0  0  0  0  0  0  0  0  0  0  0
   38.5170   24.8720   36.1290 C   0  0  0  0  0  0  0  0  0  0  0  0
   39.6010   24.1510   35.6590 N   0  0  0  0  0  0  0  0  0  0  0  0
   40.1250   23.1510   36.3610 C   0  0  0  0  0  0  0  0  0  0  0  0
   39.5860   22.8070   37.5940 N   0  0  0  0  0  0  0  0  0  0  0  0
   38.2310   27.3130   35.9700 C   0  0  0  0  0  0  0  0  0  0  0  0
   38.8868   26.9502   33.7003 H   0  0  0  0  0  0  0  0  0  0  0  0
   39.1772   25.1498   33.8334 H   0  0  0  0  0  0  0  0  0  0  0  0
   37.3832   23.6213   32.5161 H   0  0  0  0  0  0  0  0  0  0  0  0
   35.3911   24.1488   30.8440 H   0  0  0  0  0  0  0  0  0  0  0  0
   37.7707   28.2942   32.5994 H   0  0  0  0  0  0  0  0  0  0  0  0
   35.6473   29.9517   31.7524 H   0  0  0  0  0  0  0  0  0  0  0  0
   34.7276   28.7361   31.4296 H   0  0  0  0  0  0  0  0  0  0  0  0
   35.1285   28.2424   34.5123 H   0  0  0  0  0  0  0  0  0  0  0  0
   36.8053   29.6536   34.6561 H   0  0  0  0  0  0  0  0  0  0  0  0
   36.0589   32.2237   33.9697 H   0  0  0  0  0  0  0  0  0  0  0  0
   35.0821   31.7318   32.8685 H   0  0  0  0  0  0  0  0  0  0  0  0
   33.6887   30.3242   34.9853 H   0  0  0  0  0  0  0  0  0  0  0  0
   34.5051   31.0196   36.1038 H   0  0  0  0  0  0  0  0  0  0  0  0
   36.8611   25.7988   35.2651 H   0  0  0  0  0  0  0  0  0  0  0  0
   38.1320   23.1762   39.0764 H   0  0  0  0  0  0  0  0  0  0  0  0
   37.0784   25.0854   37.8115 H   0  0  0  0  0  0  0  0  0  0  0  0
   40.9873   22.5948   35.9645 H   0  0  0  0  0  0  0  0  0  0  0  0
   38.2070   27.1991   37.0638 H   0  0  0  0  0  0  0  0  0  0  0  0
   39.2243   27.6699   35.6603 H   0  0  0  0  0  0  0  0  0  0  0  0
   37.4668   28.0410   35.6603 H   0  0  0  0  0  0  0  0  0  0  0  0
  1 13  1  0
  2  1  1  0
  3  2  1  0
  4  5  1  0
  4  3  2  0
  5  6  2  0
  6  7  1  0
  6  2  1  0
  7  9  1  0
  8  7  1  0
  8  9  1  0
  9 10  1  0
 10 12  1  0
 11 10  1  0
 11 12  1  0
 13 20  1  0
 13 16  1  0
 15 14  2  0
 16 15  1  0
 17 16  2  0
 17 18  1  0
 18 19  2  0
 19 14  1  0
  1 21  1  0
  1 22  1  0
  3 23  1  0
  4 24  1  0
  7 25  1  1
  8 26  1  0
  8 27  1  0
  9 28  1  1
 10 29  1  0
 11 30  1  0
 11 31  1  0
 12 32  1  0
 12 33  1  0
 13 34  1  6
 14 35  1  0
 15 36  1  0
 18 37  1  0
 20 38  1  0
 20 39  1  0
 20 40  1  0
M  ISO  8  21   8  22   8  23  14  24  14  25  13  26  13  27  13  28  13
M  ISO  8  29  13  30  13  31  13  32  13  33  13  34   8  35  14  36  14
M  ISO  4  37  14  38   8  39   8  40   8
M  END
>  <minimizedAffinity>  (1) 
-5.08583879

>  <minimizedRMSD>  (1) 
0.700708032

$$$$
