
     RDKit          3D

 51 54  0  0  0  0  0  0  0  0999 V2000
   42.0740   24.1680   33.4450 C   0  0  0  0  0  0  0  0  0  0  0  0
   41.2330   25.0000   32.5410 N   0  0  0  0  0  0  0  0  0  0  0  0
   41.6120   26.2240   32.0820 C   0  0  0  0  0  0  0  0  0  0  0  0
   40.6390   26.7210   31.2840 N   0  0  0  0  0  0  0  0  0  0  0  0
   39.6390   25.8170   31.2310 C   0  0  0  0  0  0  0  0  0  0  0  0
   38.3980   25.6960   30.6230 C   0  0  0  0  0  0  0  0  0  0  0  0
   37.6300   24.5990   30.8040 N   0  0  0  0  0  0  0  0  0  0  0  0
   38.0330   23.5740   31.5790 C   0  0  0  0  0  0  0  0  0  0  0  0
   39.2430   23.6750   32.1820 N   0  0  0  0  0  0  0  0  0  0  0  0
   40.0150   24.7690   32.0050 C   0  0  0  0  0  0  0  0  0  0  0  0
   37.9940   26.8040   29.8000 N   0  0  0  0  0  0  0  0  0  0  0  0
   37.2010   22.3780   31.7770 C   0  0  0  0  0  0  0  0  0  0  0  0
   35.7090   22.6700   31.6270 C   0  0  0  0  0  0  0  0  0  0  0  0
   35.0130   21.5140   32.3230 C   0  0  0  0  0  0  0  0  0  0  0  0
   35.3800   20.1990   31.7050 C   0  0  0  0  0  0  0  0  0  0  0  0
   36.8160   20.0260   31.3560 C   0  0  0  0  0  0  0  0  0  0  0  0
   37.4760   21.2660   30.7820 C   0  0  0  0  0  0  0  0  0  0  0  0
   41.8870   24.6080   34.8440 C   0  0  0  0  0  0  0  0  0  0  0  0
   42.4290   21.5590   36.9020 C   0  0  0  0  0  0  0  0  0  0  0  0
   42.6720   22.6050   36.0000 C   0  0  0  0  0  0  0  0  0  0  0  0
   41.6600   23.5110   35.7490 C   0  0  0  0  0  0  0  0  0  0  0  0
   40.4830   23.3440   36.3840 N   0  0  0  0  0  0  0  0  0  0  0  0
   40.2720   22.3320   37.2460 C   0  0  0  0  0  0  0  0  0  0  0  0
   41.2290   21.4440   37.5080 N   0  0  0  0  0  0  0  0  0  0  0  0
   40.8370   25.7190   35.0090 C   0  0  0  0  0  0  0  0  0  0  0  0
   43.1710   25.3700   35.2910 C   0  0  0  0  0  0  0  0  0  0  0  0
   43.1320   24.2788   33.1651 H   0  0  0  0  0  0  0  0  0  0  0  0
   41.7760   23.1133   33.3518 H   0  0  0  0  0  0  0  0  0  0  0  0
   42.5593   26.7291   32.3218 H   0  0  0  0  0  0  0  0  0  0  0  0
   38.6146   27.6190   29.6927 H   0  0  0  0  0  0  0  0  0  0  0  0
   37.0841   26.7826   29.3179 H   0  0  0  0  0  0  0  0  0  0  0  0
   37.4648   22.0658   32.7982 H   0  0  0  0  0  0  0  0  0  0  0  0
   35.4509   23.6242   32.1095 H   0  0  0  0  0  0  0  0  0  0  0  0
   35.4085   22.7601   30.5727 H   0  0  0  0  0  0  0  0  0  0  0  0
   35.3076   21.5054   33.3828 H   0  0  0  0  0  0  0  0  0  0  0  0
   33.9267   21.6526   32.2194 H   0  0  0  0  0  0  0  0  0  0  0  0
   35.1071   19.4045   32.4151 H   0  0  0  0  0  0  0  0  0  0  0  0
   34.8332   20.1539   30.7516 H   0  0  0  0  0  0  0  0  0  0  0  0
   37.3593   19.7381   32.2681 H   0  0  0  0  0  0  0  0  0  0  0  0
   36.8575   19.2566   30.5709 H   0  0  0  0  0  0  0  0  0  0  0  0
   38.5592   21.1081   30.6735 H   0  0  0  0  0  0  0  0  0  0  0  0
   37.0827   21.5091   29.7839 H   0  0  0  0  0  0  0  0  0  0  0  0
   43.2219   20.8275   37.1169 H   0  0  0  0  0  0  0  0  0  0  0  0
   43.6483   22.7019   35.5027 H   0  0  0  0  0  0  0  0  0  0  0  0
   39.2945   22.2371   37.7414 H   0  0  0  0  0  0  0  0  0  0  0  0
   40.6630   25.9031   36.0795 H   0  0  0  0  0  0  0  0  0  0  0  0
   41.2011   26.6413   34.5328 H   0  0  0  0  0  0  0  0  0  0  0  0
   39.8956   25.4075   34.5328 H   0  0  0  0  0  0  0  0  0  0  0  0
   43.2173   25.3975   36.3897 H   0  0  0  0  0  0  0  0  0  0  0  0
   44.0593   24.8528   34.8994 H   0  0  0  0  0  0  0  0  0  0  0  0
   43.1426   26.3975   34.8994 H   0  0  0  0  0  0  0  0  0  0  0  0
  1 18  1  0
  2  1  1  0
  3  2  1  0
  4  3  2  0
  5  4  1  0
  5 10  2  0
  6  7  2  0
  6  5  1  0
  7  8  1  0
  8 12  1  0
  8  9  2  0
 10  9  1  0
 10  2  1  0
 11  6  1  0
 13 12  1  0
 13 14  1  0
 15 14  1  0
 16 15  1  0
 17 16  1  0
 17 12  1  0
 18 25  1  0
 18 26  1  0
 18 21  1  0
 19 24  2  0
 20 19  1  0
 21 20  2  0
 21 22  1  0
 22 23  2  0
 23 24  1  0
  1 27  1  0
  1 28  1  0
  3 29  1  0
 11 30  1  0
 11 31  1  0
 12 32  1  0
 13 33  1  0
 13 34  1  0
 14 35  1  0
 14 36  1  0
 15 37  1  0
 15 38  1  0
 16 39  1  0
 16 40  1  0
 17 41  1  0
 17 42  1  0
 19 43  1  0
 20 44  1  0
 23 45  1  0
 25 46  1  0
 25 47  1  0
 25 48  1  0
 26 49  1  0
 26 50  1  0
 26 51  1  0
M  ISO  8  27   8  28   8  29  14  32  13  33  13  34  13  35  13  36  13
M  ISO  8  37  13  38  13  39  13  40  13  41  13  42  13  43  14  44  14
M  ISO  7  45  14  46   8  47   8  48   8  49   8  50   8  51   8
M  END
>  <minimizedAffinity>  (1) 
-5.02095079

>  <minimizedRMSD>  (1) 
7.90117407

$$$$
