
     RDKit          3D

 49 52  0  0  1  0  0  0  0  0999 V2000
   38.0300   25.0960   34.3110 N   0  0  0  0  0  0  0  0  0  0  0  0
   37.8220   25.2310   32.8850 C   0  0  0  0  0  0  0  0  0  0  0  0
   38.2340   26.6250   32.5540 C   0  0  0  0  0  0  0  0  0  0  0  0
   38.7060   27.2030   33.8740 C   0  0  0  0  0  0  0  0  0  0  0  0
   39.1850   25.8910   34.5660 C   0  0  2  0  0  0  0  0  0  0  0  0
   38.3440   23.7460   34.6770 C   0  0  0  0  0  0  0  0  0  0  0  0
   37.8310   24.0000   38.4240 C   0  0  0  0  0  0  0  0  0  0  0  0
   37.6040   24.1670   37.0580 C   0  0  0  0  0  0  0  0  0  0  0  0
   38.5300   23.6040   36.1550 C   0  0  0  0  0  0  0  0  0  0  0  0
   39.5930   22.9290   36.6850 N   0  0  0  0  0  0  0  0  0  0  0  0
   39.7610   22.8000   38.0090 C   0  0  0  0  0  0  0  0  0  0  0  0
   38.8790   23.3370   38.8660 N   0  0  0  0  0  0  0  0  0  0  0  0
   40.3170   25.4010   33.9860 O   0  0  0  0  0  0  0  0  0  0  0  0
   41.4300   25.4080   34.7760 C   0  0  2  0  0  0  0  0  0  0  0  0
   42.7400   25.2680   34.0390 C   0  0  0  0  0  0  0  0  0  0  0  0
   42.2610   24.1820   34.9610 C   0  0  1  0  0  0  0  0  0  0  0  0
   43.1010   24.0170   36.1950 C   0  0  0  0  0  0  0  0  0  0  0  0
   43.6350   22.6370   36.3800 C   0  0  0  0  0  0  0  0  0  0  0  0
   45.0380   22.4310   35.9510 C   0  0  0  0  0  0  0  0  0  0  0  0
   46.0040   23.5200   36.2360 C   0  0  0  0  0  0  0  0  0  0  0  0
   45.3970   24.6850   36.9410 C   0  0  0  0  0  0  0  0  0  0  0  0
   44.1760   25.0780   36.1400 C   0  0  0  0  0  0  0  0  0  0  0  0
   38.4409   24.5063   32.3357 H   0  0  0  0  0  0  0  0  0  0  0  0
   36.7764   25.0363   32.6043 H   0  0  0  0  0  0  0  0  0  0  0  0
   39.0493   26.6248   31.8155 H   0  0  0  0  0  0  0  0  0  0  0  0
   37.4151   27.2096   32.1095 H   0  0  0  0  0  0  0  0  0  0  0  0
   39.5288   27.9203   33.7381 H   0  0  0  0  0  0  0  0  0  0  0  0
   37.9532   27.7805   34.4306 H   0  0  0  0  0  0  0  0  0  0  0  0
   39.4750   25.9673   35.6243 H   0  0  0  0  0  0  0  0  0  0  0  0
   37.5222   23.0890   34.3561 H   0  0  0  0  0  0  0  0  0  0  0  0
   39.2866   23.4666   34.1836 H   0  0  0  0  0  0  0  0  0  0  0  0
   37.1210   24.4304   39.1456 H   0  0  0  0  0  0  0  0  0  0  0  0
   36.7268   24.7226   36.6948 H   0  0  0  0  0  0  0  0  0  0  0  0
   40.6304   22.2486   38.3965 H   0  0  0  0  0  0  0  0  0  0  0  0
   40.9683   26.1049   35.4909 H   0  0  0  0  0  0  0  0  0  0  0  0
   42.7463   25.1051   32.9511 H   0  0  0  0  0  0  0  0  0  0  0  0
   43.6557   25.8712   33.9516 H   0  0  0  0  0  0  0  0  0  0  0  0
   42.0209   23.1104   34.8980 H   0  0  0  0  0  0  0  0  0  0  0  0
   42.4783   24.1556   37.0911 H   0  0  0  0  0  0  0  0  0  0  0  0
   43.5682   22.3887   37.4495 H   0  0  0  0  0  0  0  0  0  0  0  0
   43.0244   21.9888   35.7342 H   0  0  0  0  0  0  0  0  0  0  0  0
   45.0307   22.2724   34.8625 H   0  0  0  0  0  0  0  0  0  0  0  0
   45.3924   21.5765   36.5462 H   0  0  0  0  0  0  0  0  0  0  0  0
   46.8103   23.1143   36.8647 H   0  0  0  0  0  0  0  0  0  0  0  0
   46.3740   23.8857   35.2668 H   0  0  0  0  0  0  0  0  0  0  0  0
   45.1066   24.4021   37.9636 H   0  0  0  0  0  0  0  0  0  0  0  0
   46.1091   25.5198   37.0192 H   0  0  0  0  0  0  0  0  0  0  0  0
   44.4722   25.2303   35.0916 H   0  0  0  0  0  0  0  0  0  0  0  0
   43.7660   26.0018   36.5742 H   0  0  0  0  0  0  0  0  0  0  0  0
  1  5  1  0
  1  6  1  0
  2  1  1  0
  3  2  1  0
  3  4  1  0
  4  5  1  0
  6  9  1  0
  7 12  2  0
  8  7  1  0
  9 10  1  0
  9  8  2  0
 10 11  2  0
 11 12  1  0
 13  5  1  0
 13 14  1  0
 14 16  1  0
 15 14  1  0
 15 16  1  0
 16 17  1  0
 17 18  1  0
 19 20  1  0
 19 18  1  0
 20 21  1  0
 22 17  1  0
 22 21  1  0
  2 23  1  0
  2 24  1  0
  3 25  1  0
  3 26  1  0
  4 27  1  0
  4 28  1  0
  5 29  1  1
  6 30  1  0
  6 31  1  0
  7 32  1  0
  8 33  1  0
 11 34  1  0
 14 35  1  1
 15 36  1  0
 15 37  1  0
 16 38  1  6
 17 39  1  0
 18 40  1  0
 18 41  1  0
 19 42  1  0
 19 43  1  0
 20 44  1  0
 20 45  1  0
 21 46  1  0
 21 47  1  0
 22 48  1  0
 22 49  1  0
M  ISO  8  23  13  24  13  25  13  26  13  27  13  28  13  29  13  30   8
M  ISO  8  31   8  32  14  33  14  34  14  35  13  36  13  37  13  38  13
M  ISO  8  39  13  40  13  41  13  42  13  43  13  44  13  45  13  46  13
M  ISO  3  47  13  48  13  49  13
M  END
>  <minimizedAffinity>  (1) 
-4.85918522

>  <minimizedRMSD>  (1) 
2.33703947

$$$$
