
     RDKit          3D

 45 48  0  0  1  0  0  0  0  0999 V2000
   37.4210   26.2340   32.8120 C   0  0  0  0  0  0  0  0  0  0  0  0
   36.8880   27.6060   32.6300 C   0  0  0  0  0  0  0  0  0  0  0  0
   36.9140   28.4240   31.5150 C   0  0  0  0  0  0  0  0  0  0  0  0
   36.3740   29.6880   31.4870 C   0  0  0  0  0  0  0  0  0  0  0  0
   35.7720   30.1490   32.6540 C   0  0  0  0  0  0  0  0  0  0  0  0
   35.7670   29.3090   33.7340 C   0  0  0  0  0  0  0  0  0  0  0  0
   36.2980   28.0790   33.7470 N   0  0  0  0  0  0  0  0  0  0  0  0
   35.1030   29.8930   34.9330 C   0  0  0  0  0  0  0  0  0  0  0  0
   35.8430   31.1970   35.2230 C   0  0  0  0  0  0  0  0  0  0  0  0
   35.2930   31.8660   36.4630 C   0  0  0  0  0  0  0  0  0  0  0  0
   33.8790   32.3060   36.1440 C   0  0  0  0  0  0  0  0  0  0  0  0
   33.3750   31.7190   34.8570 C   0  0  0  0  0  0  0  0  0  0  0  0
   33.6620   30.2500   34.7140 C   0  0  0  0  0  0  0  0  0  0  0  0
   36.9150   23.7230   32.1790 C   0  0  2  0  0  0  0  0  0  0  0  0
   37.4240   24.4980   31.0170 C   0  0  0  0  0  0  0  0  0  0  0  0
   36.6620   25.1840   32.1110 C   0  0  2  0  0  0  0  0  0  0  0  0
   40.1480   22.7800   33.6450 C   0  0  0  0  0  0  0  0  0  0  0  0
   39.8210   22.2480   34.9130 C   0  0  0  0  0  0  0  0  0  0  0  0
   38.4420   22.2380   35.2290 C   0  0  0  0  0  0  0  0  0  0  0  0
   37.5550   22.7180   34.3330 N   0  0  0  0  0  0  0  0  0  0  0  0
   37.9390   23.2200   33.1180 C   0  0  0  0  0  0  0  0  0  0  0  0
   39.2600   23.2520   32.7700 N   0  0  0  0  0  0  0  0  0  0  0  0
   38.4560   26.2157   32.4400 H   0  0  0  0  0  0  0  0  0  0  0  0
   37.3450   26.0096   33.8862 H   0  0  0  0  0  0  0  0  0  0  0  0
   37.3927   28.0425   30.6011 H   0  0  0  0  0  0  0  0  0  0  0  0
   36.4160   30.3090   30.5801 H   0  0  0  0  0  0  0  0  0  0  0  0
   35.3180   31.1496   32.7061 H   0  0  0  0  0  0  0  0  0  0  0  0
   35.1349   29.1487   35.7423 H   0  0  0  0  0  0  0  0  0  0  0  0
   36.9105   30.9791   35.3748 H   0  0  0  0  0  0  0  0  0  0  0  0
   35.7069   31.8757   34.3681 H   0  0  0  0  0  0  0  0  0  0  0  0
   35.2864   31.1559   37.3030 H   0  0  0  0  0  0  0  0  0  0  0  0
   35.9145   32.7267   36.7509 H   0  0  0  0  0  0  0  0  0  0  0  0
   33.2163   31.9864   36.9618 H   0  0  0  0  0  0  0  0  0  0  0  0
   33.8842   33.4006   36.0348 H   0  0  0  0  0  0  0  0  0  0  0  0
   32.2860   31.8671   34.8098 H   0  0  0  0  0  0  0  0  0  0  0  0
   33.9020   32.2324   34.0393 H   0  0  0  0  0  0  0  0  0  0  0  0
   33.0532   29.7040   35.4497 H   0  0  0  0  0  0  0  0  0  0  0  0
   33.4161   29.9737   33.6781 H   0  0  0  0  0  0  0  0  0  0  0  0
   36.2650   22.8474   32.3233 H   0  0  0  0  0  0  0  0  0  0  0  0
   36.9669   24.3679   30.0250 H   0  0  0  0  0  0  0  0  0  0  0  0
   38.4069   24.6394   30.5439 H   0  0  0  0  0  0  0  0  0  0  0  0
   35.7334   25.7510   32.2727 H   0  0  0  0  0  0  0  0  0  0  0  0
   41.2101   22.8064   33.3601 H   0  0  0  0  0  0  0  0  0  0  0  0
   40.5859   21.8680   35.6062 H   0  0  0  0  0  0  0  0  0  0  0  0
   38.0965   21.8428   36.1957 H   0  0  0  0  0  0  0  0  0  0  0  0
  2  1  1  0
  2  7  1  0
  3  2  2  0
  4  3  1  0
  4  5  2  0
  5  6  1  0
  6  7  2  0
  6  8  1  0
  8  9  1  0
  9 10  1  0
 11 10  1  0
 12 11  1  0
 13 12  1  0
 13  8  1  0
 14 21  1  0
 15 16  1  0
 15 14  1  0
 16 14  1  0
 16  1  1  0
 17 18  2  0
 18 19  1  0
 20 19  2  0
 21 20  1  0
 22 21  2  0
 22 17  1  0
  1 23  1  0
  1 24  1  0
  3 25  1  0
  4 26  1  0
  5 27  1  0
  8 28  1  0
  9 29  1  0
  9 30  1  0
 10 31  1  0
 10 32  1  0
 11 33  1  0
 11 34  1  0
 12 35  1  0
 12 36  1  0
 13 37  1  0
 13 38  1  0
 14 39  1  6
 15 40  1  0
 15 41  1  0
 16 42  1  6
 17 43  1  0
 18 44  1  0
 19 45  1  0
M  ISO  8  23   8  24   8  25  14  26  14  27  14  28  13  29  13  30  13
M  ISO  8  31  13  32  13  33  13  34  13  35  13  36  13  37  13  38  13
M  ISO  7  39  13  40  13  41  13  42  13  43  14  44  14  45  14
M  END
>  <minimizedAffinity>  (1) 
-4.70630693

>  <minimizedRMSD>  (1) 
5.05803299

$$$$
