
     RDKit          3D

 50 54  0  0  1  0  0  0  0  0999 V2000
   44.9300   24.8530   37.2280 N   0  0  0  0  0  0  0  0  0  0  0  0
   44.5640   25.5870   38.2630 N   0  0  0  0  0  0  0  0  0  0  0  0
   45.5340   25.7620   39.1370 C   0  0  0  0  0  0  0  0  0  0  0  0
   46.6430   25.1040   38.6790 C   0  0  0  0  0  0  0  0  0  0  0  0
   46.2340   24.5350   37.4660 C   0  0  0  0  0  0  0  0  0  0  0  0
   47.1270   23.7080   36.5900 C   0  0  0  0  0  0  0  0  0  0  0  0
   47.8590   24.3190   35.5270 C   0  0  0  0  0  0  0  0  0  0  0  0
   48.7340   22.9020   34.8280 S   0  0  0  0  0  0  0  0  0  0  0  0
   47.9710   21.6970   36.0870 C   0  0  0  0  0  0  0  0  0  0  0  0
   47.3350   22.3990   36.6830 N   0  0  0  0  0  0  0  0  0  0  0  0
   47.8450   25.7160   35.1600 C   0  0  1  0  0  0  0  0  0  0  0  0
   48.2410   26.6820   36.2160 C   0  0  0  0  0  0  0  0  0  0  0  0
   49.6050   26.4360   36.7740 C   0  0  0  0  0  0  0  0  0  0  0  0
   50.6280   25.9520   35.8180 C   0  0  0  0  0  0  0  0  0  0  0  0
   50.2340   25.7690   34.4040 C   0  0  0  0  0  0  0  0  0  0  0  0
   48.8150   25.9300   34.0240 C   0  0  0  0  0  0  0  0  0  0  0  0
   48.2740   20.2490   36.0990 C   0  0  0  0  0  0  0  0  0  0  0  0
   48.1210   19.6920   34.8350 F   0  0  0  0  0  0  0  0  0  0  0  0
   47.3470   19.6880   36.9490 F   0  0  0  0  0  0  0  0  0  0  0  0
   49.5380   19.9940   36.6250 F   0  0  0  0  0  0  0  0  0  0  0  0
   44.1760   24.4360   36.0700 C   0  0  0  0  0  0  0  0  0  0  0  0
   41.0450   22.5290   36.9990 C   0  0  0  0  0  0  0  0  0  0  0  0
   41.9110   23.5370   36.6940 C   0  0  0  0  0  0  0  0  0  0  0  0
   43.2540   23.2960   36.4010 C   0  0  0  0  0  0  0  0  0  0  0  0
   43.6450   21.9840   36.4380 N   0  0  0  0  0  0  0  0  0  0  0  0
   42.7840   20.9880   36.7400 C   0  0  0  0  0  0  0  0  0  0  0  0
   41.4990   21.2940   37.0140 N   0  0  0  0  0  0  0  0  0  0  0  0
   39.6470   22.8560   37.2980 C   0  0  0  0  0  0  0  0  0  0  0  0
   38.6250   22.8090   36.3770 C   0  0  0  0  0  0  0  0  0  0  0  0
   37.5260   23.1880   37.0980 C   0  0  0  0  0  0  0  0  0  0  0  0
   37.8890   23.4460   38.3880 C   0  0  0  0  0  0  0  0  0  0  0  0
   39.1980   23.2290   38.4630 O   0  0  0  0  0  0  0  0  0  0  0  0
   45.4646   26.3370   40.0722 H   0  0  0  0  0  0  0  0  0  0  0  0
   47.6321   25.0370   39.1556 H   0  0  0  0  0  0  0  0  0  0  0  0
   46.7912   25.9164   34.9165 H   0  0  0  0  0  0  0  0  0  0  0  0
   48.2189   27.6944   35.7865 H   0  0  0  0  0  0  0  0  0  0  0  0
   47.5281   26.5622   37.0451 H   0  0  0  0  0  0  0  0  0  0  0  0
   49.9675   27.3822   37.2022 H   0  0  0  0  0  0  0  0  0  0  0  0
   49.4804   25.6243   37.5059 H   0  0  0  0  0  0  0  0  0  0  0  0
   51.6536   25.7344   36.1509 H   0  0  0  0  0  0  0  0  0  0  0  0
   50.9883   25.5161   33.6444 H   0  0  0  0  0  0  0  0  0  0  0  0
   48.6745   26.9502   33.6373 H   0  0  0  0  0  0  0  0  0  0  0  0
   48.5983   25.1571   33.2719 H   0  0  0  0  0  0  0  0  0  0  0  0
   44.8750   24.1150   35.2837 H   0  0  0  0  0  0  0  0  0  0  0  0
   43.5682   25.2860   35.7265 H   0  0  0  0  0  0  0  0  0  0  0  0
   41.5396   24.5723   36.6784 H   0  0  0  0  0  0  0  0  0  0  0  0
   43.1256   19.9426   36.7622 H   0  0  0  0  0  0  0  0  0  0  0  0
   38.6792   22.5324   35.3137 H   0  0  0  0  0  0  0  0  0  0  0  0
   36.5045   23.2721   36.6986 H   0  0  0  0  0  0  0  0  0  0  0  0
   37.2279   23.7700   39.2053 H   0  0  0  0  0  0  0  0  0  0  0  0
  1  5  1  0
  1  2  1  0
  2  3  2  0
  4  3  1  0
  5  4  2  0
  6 10  1  0
  6  5  1  0
  7  6  2  0
  8  7  1  0
  8  9  1  0
  9 17  1  0
  9 10  2  0
 11  7  1  0
 11 12  1  0
 12 13  1  0
 14 13  1  0
 15 14  2  0
 16 15  1  0
 16 11  1  0
 17 20  1  0
 17 19  1  0
 18 17  1  0
 21 24  1  0
 21  1  1  0
 22 27  1  0
 22 28  1  0
 23 22  2  0
 24 25  2  0
 24 23  1  0
 25 26  1  0
 26 27  2  0
 28 32  1  0
 29 30  1  0
 29 28  2  0
 30 31  2  0
 31 32  1  0
  3 33  1  0
  4 34  1  0
 11 35  1  6
 12 36  1  0
 12 37  1  0
 13 38  1  0
 13 39  1  0
 14 40  1  0
 15 41  1  0
 16 42  1  0
 16 43  1  0
 21 44  1  0
 21 45  1  0
 23 46  1  0
 26 47  1  0
 29 48  1  0
 30 49  1  0
 31 50  1  0
M  ISO  8  33  14  34  14  35  13  36  13  37  13  38  13  39  13  40  13
M  ISO  8  41  13  42  13  43  13  44   8  45   8  46  14  47  14  48  14
M  ISO  2  49  14  50  14
M  END
>  <minimizedAffinity>  (1) 
-5.21789169

>  <minimizedRMSD>  (1) 
0.514154196

$$$$
