
     RDKit          3D

 50 55  0  0  0  0  0  0  0  0999 V2000
   38.7190   24.5260   32.2360 C   0  0  0  0  0  0  0  0  0  0  0  0
   39.1830   23.2170   32.3090 C   0  0  0  0  0  0  0  0  0  0  0  0
   38.3860   22.1140   31.9970 C   0  0  0  0  0  0  0  0  0  0  0  0
   37.0700   22.3200   31.5950 C   0  0  0  0  0  0  0  0  0  0  0  0
   36.5880   23.6110   31.5160 C   0  0  0  0  0  0  0  0  0  0  0  0
   35.3240   23.8450   31.0960 C   0  0  0  0  0  0  0  0  0  0  0  0
   34.7930   25.0800   30.9560 C   0  0  0  0  0  0  0  0  0  0  0  0
   35.6240   26.1560   31.2770 C   0  0  0  0  0  0  0  0  0  0  0  0
   36.9290   25.9310   31.7160 C   0  0  0  0  0  0  0  0  0  0  0  0
   37.4200   24.6600   31.8370 C   0  0  0  0  0  0  0  0  0  0  0  0
   39.6040   25.5950   32.5460 C   0  0  0  0  0  0  0  0  0  0  0  0
   39.8450   26.0150   33.8940 C   0  0  0  0  0  0  0  0  0  0  0  0
   40.7400   27.0700   34.0610 C   0  0  0  0  0  0  0  0  0  0  0  0
   41.3430   27.6510   32.9900 N   0  0  0  0  0  0  0  0  0  0  0  0
   41.0960   27.2200   31.7360 C   0  0  0  0  0  0  0  0  0  0  0  0
   40.2590   26.2320   31.5440 N   0  0  0  0  0  0  0  0  0  0  0  0
   39.2120   25.3840   34.9340 N   0  0  0  0  0  0  0  0  0  0  0  0
   37.9810   25.6420   35.3800 C   0  0  0  0  0  0  0  0  0  0  0  0
   37.6450   24.8440   36.4220 N   0  0  0  0  0  0  0  0  0  0  0  0
   38.7240   24.0460   36.6390 C   0  0  0  0  0  0  0  0  0  0  0  0
   38.9990   23.0510   37.5360 C   0  0  0  0  0  0  0  0  0  0  0  0
   40.1640   22.3780   37.5700 N   0  0  0  0  0  0  0  0  0  0  0  0
   41.0810   22.7510   36.6380 C   0  0  0  0  0  0  0  0  0  0  0  0
   40.8000   23.7200   35.7720 N   0  0  0  0  0  0  0  0  0  0  0  0
   39.6720   24.4030   35.7060 C   0  0  0  0  0  0  0  0  0  0  0  0
   37.5330   27.1990   31.9860 C   0  0  0  0  0  0  0  0  0  0  0  0
   36.5610   27.9680   32.9280 C   0  0  0  0  0  0  0  0  0  0  0  0
   36.4220   29.3410   32.3890 C   0  0  0  0  0  0  0  0  0  0  0  0
   36.6440   29.2150   30.9350 C   0  0  0  0  0  0  0  0  0  0  0  0
   37.3940   27.9770   30.6500 C   0  0  0  0  0  0  0  0  0  0  0  0
   40.2219   23.0433   32.6260 H   0  0  0  0  0  0  0  0  0  0  0  0
   38.7934   21.0947   32.0681 H   0  0  0  0  0  0  0  0  0  0  0  0
   36.4231   21.4665   31.3438 H   0  0  0  0  0  0  0  0  0  0  0  0
   34.6905   22.9789   30.8540 H   0  0  0  0  0  0  0  0  0  0  0  0
   33.7605   25.2300   30.6075 H   0  0  0  0  0  0  0  0  0  0  0  0
   35.2477   27.1854   31.1832 H   0  0  0  0  0  0  0  0  0  0  0  0
   40.9617   27.4379   35.0737 H   0  0  0  0  0  0  0  0  0  0  0  0
   41.5952   27.6962   30.8793 H   0  0  0  0  0  0  0  0  0  0  0  0
   37.3190   26.4099   34.9531 H   0  0  0  0  0  0  0  0  0  0  0  0
   38.2246   22.7859   38.2709 H   0  0  0  0  0  0  0  0  0  0  0  0
   42.0591   22.2492   36.6003 H   0  0  0  0  0  0  0  0  0  0  0  0
   38.5534   27.1015   32.3851 H   0  0  0  0  0  0  0  0  0  0  0  0
   35.5807   27.4694   32.9461 H   0  0  0  0  0  0  0  0  0  0  0  0
   36.9505   27.9902   33.9565 H   0  0  0  0  0  0  0  0  0  0  0  0
   35.4149   29.7341   32.5920 H   0  0  0  0  0  0  0  0  0  0  0  0
   37.1359   30.0372   32.8533 H   0  0  0  0  0  0  0  0  0  0  0  0
   35.6732   29.1810   30.4189 H   0  0  0  0  0  0  0  0  0  0  0  0
   37.2224   30.0804   30.5793 H   0  0  0  0  0  0  0  0  0  0  0  0
   36.8476   27.3674   29.9153 H   0  0  0  0  0  0  0  0  0  0  0  0
   38.3844   28.2109   30.2325 H   0  0  0  0  0  0  0  0  0  0  0  0
  1  2  2  0
  1 11  1  0
  3  2  1  0
  4  3  2  0
  5  4  1  0
  5 10  2  0
  6  5  1  0
  7  6  2  0
  7  8  1  0
  8  9  2  0
  9 10  1  0
  9 26  1  0
 10  1  1  0
 11 12  1  0
 12 13  2  0
 12 17  1  0
 14 13  1  0
 15 14  2  0
 16 15  1  0
 16 11  2  0
 17 18  1  0
 17 25  1  0
 18 19  2  0
 19 20  1  0
 20 21  2  0
 21 22  1  0
 23 22  2  0
 24 23  1  0
 25 24  2  0
 25 20  1  0
 26 27  1  0
 28 27  1  0
 29 28  1  0
 30 29  1  0
 30 26  1  0
  2 31  1  0
  3 32  1  0
  4 33  1  0
  6 34  1  0
  7 35  1  0
  8 36  1  0
 13 37  1  0
 15 38  1  0
 18 39  1  0
 21 40  1  0
 23 41  1  0
 26 42  1  0
 27 43  1  0
 27 44  1  0
 28 45  1  0
 28 46  1  0
 29 47  1  0
 29 48  1  0
 30 49  1  0
 30 50  1  0
M  ISO  8  31  14  32  14  33  14  34  14  35  14  36  14  37  14  38  14
M  ISO  8  39  14  40  14  41  14  42  13  43  13  44  13  45  13  46  13
M  ISO  4  47  13  48  13  49  13  50  13
M  END
>  <minimizedAffinity>  (1) 
-6.6033721

>  <minimizedRMSD>  (1) 
0.16479595

$$$$
