
     RDKit          3D

 46 49  0  0  1  0  0  0  0  0999 V2000
   39.7150   22.9330   37.9710 C   0  0  0  0  0  0  0  0  0  0  0  0
   38.4530   23.3130   38.4220 C   0  0  0  0  0  0  0  0  0  0  0  0
   37.6650   24.0830   37.5590 C   0  0  0  0  0  0  0  0  0  0  0  0
   38.1850   24.4050   36.3480 N   0  0  0  0  0  0  0  0  0  0  0  0
   39.4220   24.0180   35.9370 C   0  0  0  0  0  0  0  0  0  0  0  0
   40.1730   23.2800   36.7680 N   0  0  0  0  0  0  0  0  0  0  0  0
   39.8280   24.4290   34.6500 N   0  0  0  0  0  0  0  0  0  0  0  0
   38.9040   24.2930   33.5520 C   0  0  0  0  0  0  0  0  0  0  0  0
   39.3590   24.9670   32.2970 C   0  0  0  0  0  0  0  0  0  0  0  0
   40.2250   26.0530   32.6210 N   0  0  0  0  0  0  0  0  0  0  0  0
   41.4670   25.4400   33.1180 C   0  0  0  0  0  0  0  0  0  0  0  0
   41.1890   24.9670   34.5430 C   0  0  2  0  0  0  0  0  0  0  0  0
   42.1880   23.9830   35.0230 C   0  0  0  0  0  0  0  0  0  0  0  0
   43.1180   24.3520   35.9680 C   0  0  0  0  0  0  0  0  0  0  0  0
   44.0940   23.5410   36.5000 C   0  0  0  0  0  0  0  0  0  0  0  0
   44.1160   22.2360   36.0190 C   0  0  0  0  0  0  0  0  0  0  0  0
   43.1750   21.8750   35.0680 C   0  0  0  0  0  0  0  0  0  0  0  0
   42.2490   22.7170   34.5910 N   0  0  0  0  0  0  0  0  0  0  0  0
   43.1460   20.4960   34.5140 C   0  0  0  0  0  0  0  0  0  0  0  0
   44.2750   20.2110   33.5710 C   0  0  0  0  0  0  0  0  0  0  0  0
   45.1080   19.1010   34.1700 C   0  0  0  0  0  0  0  0  0  0  0  0
   44.1990   18.4160   35.1760 C   0  0  0  0  0  0  0  0  0  0  0  0
   43.2810   19.5220   35.6640 C   0  0  0  0  0  0  0  0  0  0  0  0
   40.3547   22.3267   38.6291 H   0  0  0  0  0  0  0  0  0  0  0  0
   38.0899   23.0192   39.4179 H   0  0  0  0  0  0  0  0  0  0  0  0
   36.6585   24.4158   37.8525 H   0  0  0  0  0  0  0  0  0  0  0  0
   38.7696   23.2217   33.3418 H   0  0  0  0  0  0  0  0  0  0  0  0
   37.9669   24.7813   33.8578 H   0  0  0  0  0  0  0  0  0  0  0  0
   38.4846   25.3477   31.7488 H   0  0  0  0  0  0  0  0  0  0  0  0
   39.9013   24.2431   31.6709 H   0  0  0  0  0  0  0  0  0  0  0  0
   40.4157   26.6219   31.7838 H   0  0  0  0  0  0  0  0  0  0  0  0
   41.7474   24.5860   32.4839 H   0  0  0  0  0  0  0  0  0  0  0  0
   42.2975   26.1610   33.0975 H   0  0  0  0  0  0  0  0  0  0  0  0
   41.2761   25.8467   35.1977 H   0  0  0  0  0  0  0  0  0  0  0  0
   43.0774   25.3896   36.3310 H   0  0  0  0  0  0  0  0  0  0  0  0
   44.8088   23.9005   37.2549 H   0  0  0  0  0  0  0  0  0  0  0  0
   44.8591   21.5113   36.3831 H   0  0  0  0  0  0  0  0  0  0  0  0
   42.2002   20.3931   33.9618 H   0  0  0  0  0  0  0  0  0  0  0  0
   44.8911   21.1130   33.4414 H   0  0  0  0  0  0  0  0  0  0  0  0
   43.8870   19.9117   32.5862 H   0  0  0  0  0  0  0  0  0  0  0  0
   45.4232   18.3920   33.3902 H   0  0  0  0  0  0  0  0  0  0  0  0
   46.0251   19.4848   34.6407 H   0  0  0  0  0  0  0  0  0  0  0  0
   43.6208   17.6130   34.6955 H   0  0  0  0  0  0  0  0  0  0  0  0
   44.7596   17.9423   35.9953 H   0  0  0  0  0  0  0  0  0  0  0  0
   43.7198   20.0236   36.5391 H   0  0  0  0  0  0  0  0  0  0  0  0
   42.3020   19.1247   35.9701 H   0  0  0  0  0  0  0  0  0  0  0  0
  1  2  2  0
  3  2  1  0
  4  3  2  0
  5  4  1  0
  5  6  2  0
  6  1  1  0
  7  5  1  0
  8  7  1  0
  9 10  1  0
  9  8  1  0
 10 11  1  0
 11 12  1  0
 12  7  1  0
 12 13  1  0
 13 14  2  0
 14 15  1  0
 16 15  2  0
 17 16  1  0
 18 13  1  0
 18 17  2  0
 19 17  1  0
 19 23  1  0
 20 21  1  0
 20 19  1  0
 21 22  1  0
 22 23  1  0
  1 24  1  0
  2 25  1  0
  3 26  1  0
  8 27  1  0
  8 28  1  0
  9 29  1  0
  9 30  1  0
 10 31  1  0
 11 32  1  0
 11 33  1  0
 12 34  1  1
 14 35  1  0
 15 36  1  0
 16 37  1  0
 19 38  1  0
 20 39  1  0
 20 40  1  0
 21 41  1  0
 21 42  1  0
 22 43  1  0
 22 44  1  0
 23 45  1  0
 23 46  1  0
M  ISO  8  24  14  25  14  26  14  27  13  28  13  29  13  30  13  31   5
M  ISO  8  32  13  33  13  34  13  35  14  36  14  37  14  38  13  39  13
M  ISO  7  40  13  41  13  42  13  43  13  44  13  45  13  46  13
M  END
>  <minimizedAffinity>  (1) 
-4.4045229

>  <minimizedRMSD>  (1) 
1.55754697

$$$$
