
     RDKit          3D

 34 37  0  0  0  0  0  0  0  0999 V2000
   37.6420   25.2530   33.6810 C   0  0  0  0  0  0  0  0  0  0  0  0
   37.8430   25.5840   35.0220 C   0  0  0  0  0  0  0  0  0  0  0  0
   37.6550   26.9070   35.4310 C   0  0  0  0  0  0  0  0  0  0  0  0
   37.2820   27.8180   34.4860 N   0  0  0  0  0  0  0  0  0  0  0  0
   37.0930   27.4800   33.1910 C   0  0  0  0  0  0  0  0  0  0  0  0
   37.2710   26.2030   32.7880 N   0  0  0  0  0  0  0  0  0  0  0  0
   38.2360   24.6030   35.9190 N   0  0  0  0  0  0  0  0  0  0  0  0
   37.4490   24.0100   36.8490 C   0  0  0  0  0  0  0  0  0  0  0  0
   38.1170   23.0920   37.5680 N   0  0  0  0  0  0  0  0  0  0  0  0
   39.3830   23.0880   37.0880 C   0  0  0  0  0  0  0  0  0  0  0  0
   40.5210   22.3890   37.3950 C   0  0  0  0  0  0  0  0  0  0  0  0
   41.6950   22.5520   36.7770 N   0  0  0  0  0  0  0  0  0  0  0  0
   41.7150   23.4810   35.7900 C   0  0  0  0  0  0  0  0  0  0  0  0
   40.6130   24.1560   35.4920 N   0  0  0  0  0  0  0  0  0  0  0  0
   39.4280   24.0290   36.0750 C   0  0  0  0  0  0  0  0  0  0  0  0
   37.7540   23.9190   33.0650 C   0  0  0  0  0  0  0  0  0  0  0  0
   36.5390   23.7450   32.1710 C   0  0  0  0  0  0  0  0  0  0  0  0
   37.0570   24.0910   30.8150 C   0  0  0  0  0  0  0  0  0  0  0  0
   38.4350   23.4670   30.8380 C   0  0  0  0  0  0  0  0  0  0  0  0
   38.9770   23.7930   32.1920 C   0  0  0  0  0  0  0  0  0  0  0  0
   37.8028   27.2041   36.4798 H   0  0  0  0  0  0  0  0  0  0  0  0
   36.7931   28.2477   32.4625 H   0  0  0  0  0  0  0  0  0  0  0  0
   36.3864   24.2520   36.9982 H   0  0  0  0  0  0  0  0  0  0  0  0
   40.4647   21.6448   38.2031 H   0  0  0  0  0  0  0  0  0  0  0  0
   42.6454   23.6750   35.2362 H   0  0  0  0  0  0  0  0  0  0  0  0
   37.8233   23.1657   33.8636 H   0  0  0  0  0  0  0  0  0  0  0  0
   36.1737   22.7078   32.2003 H   0  0  0  0  0  0  0  0  0  0  0  0
   35.6865   24.3687   32.4778 H   0  0  0  0  0  0  0  0  0  0  0  0
   37.1136   25.1805   30.6745 H   0  0  0  0  0  0  0  0  0  0  0  0
   36.4210   23.7331   29.9919 H   0  0  0  0  0  0  0  0  0  0  0  0
   38.3699   22.3779   30.6982 H   0  0  0  0  0  0  0  0  0  0  0  0
   39.0774   23.8473   30.0301 H   0  0  0  0  0  0  0  0  0  0  0  0
   39.6320   22.9866   32.5536 H   0  0  0  0  0  0  0  0  0  0  0  0
   39.5871   24.7083   32.1902 H   0  0  0  0  0  0  0  0  0  0  0  0
  1  2  1  0
  2  3  2  0
  2  7  1  0
  4  3  1  0
  5  4  2  0
  6  5  1  0
  6  1  2  0
  7 15  1  0
  7  8  1  0
  8  9  2  0
 10 11  2  0
 10  9  1  0
 12 11  1  0
 13 12  2  0
 14 13  1  0
 14 15  2  0
 15 10  1  0
 16  1  1  0
 17 16  1  0
 18 19  1  0
 18 17  1  0
 19 20  1  0
 20 16  1  0
  3 21  1  0
  5 22  1  0
  8 23  1  0
 11 24  1  0
 13 25  1  0
 16 26  1  0
 17 27  1  0
 17 28  1  0
 18 29  1  0
 18 30  1  0
 19 31  1  0
 19 32  1  0
 20 33  1  0
 20 34  1  0
M  ISO  8  21  14  22  14  23  14  24  14  25  14  26  13  27  13  28  13
M  ISO  6  29  13  30  13  31  13  32  13  33  13  34  13
M  END
>  <minimizedAffinity>  (1) 
-4.80797005

>  <minimizedRMSD>  (1) 
2.06787562

$$$$
