
     RDKit          3D

 33 35  0  0  0  0  0  0  0  0999 V2000
   36.9220   21.5030   34.4410 O   0  0  0  0  0  0  0  0  0  0  0  0
   36.5830   21.1910   33.1640 C   0  0  0  0  0  0  0  0  0  0  0  0
   35.6180   21.6010   32.3330 C   0  0  0  0  0  0  0  0  0  0  0  0
   35.4860   21.1270   31.0710 C   0  0  0  0  0  0  0  0  0  0  0  0
   36.4190   20.1810   30.6870 C   0  0  0  0  0  0  0  0  0  0  0  0
   37.5340   19.9470   32.1650 S   0  0  0  0  0  0  0  0  0  0  0  0
   36.7000   19.3920   29.4790 C   0  0  0  0  0  0  0  0  0  0  0  0
   36.7540   17.9420   29.8730 C   0  0  0  0  0  0  0  0  0  0  0  0
   37.3910   17.3120   28.6480 C   0  0  0  0  0  0  0  0  0  0  0  0
   38.2750   18.3860   28.0640 C   0  0  0  0  0  0  0  0  0  0  0  0
   38.0710   19.6200   28.9120 C   0  0  0  0  0  0  0  0  0  0  0  0
   37.8820   22.4820   34.7570 C   0  0  0  0  0  0  0  0  0  0  0  0
   38.3490   23.0240   33.7440 O   0  0  0  0  0  0  0  0  0  0  0  0
   39.9470   22.7260   37.7130 C   0  0  0  0  0  0  0  0  0  0  0  0
   39.1440   23.3470   38.6760 C   0  0  0  0  0  0  0  0  0  0  0  0
   37.8170   23.6960   38.2660 C   0  0  0  0  0  0  0  0  0  0  0  0
   37.4320   23.4090   37.0030 N   0  0  0  0  0  0  0  0  0  0  0  0
   38.2620   22.8030   36.1160 C   0  0  0  0  0  0  0  0  0  0  0  0
   39.5270   22.4600   36.4730 N   0  0  0  0  0  0  0  0  0  0  0  0
   34.9012   22.3552   32.6898 H   0  0  0  0  0  0  0  0  0  0  0  0
   34.6890   21.4718   30.3958 H   0  0  0  0  0  0  0  0  0  0  0  0
   35.9221   19.6749   28.7545 H   0  0  0  0  0  0  0  0  0  0  0  0
   37.3748   17.7930   30.7688 H   0  0  0  0  0  0  0  0  0  0  0  0
   35.7751   17.5147   30.1361 H   0  0  0  0  0  0  0  0  0  0  0  0
   37.9885   16.4335   28.9329 H   0  0  0  0  0  0  0  0  0  0  0  0
   36.6373   16.9632   27.9267 H   0  0  0  0  0  0  0  0  0  0  0  0
   39.3284   18.0712   28.0988 H   0  0  0  0  0  0  0  0  0  0  0  0
   38.0208   18.5808   27.0117 H   0  0  0  0  0  0  0  0  0  0  0  0
   38.8263   19.6856   29.7090 H   0  0  0  0  0  0  0  0  0  0  0  0
   38.1660   20.5617   28.3514 H   0  0  0  0  0  0  0  0  0  0  0  0
   40.9733   22.4433   37.9902 H   0  0  0  0  0  0  0  0  0  0  0  0
   39.5116   23.5555   39.6916 H   0  0  0  0  0  0  0  0  0  0  0  0
   37.1249   24.1879   38.9653 H   0  0  0  0  0  0  0  0  0  0  0  0
  1 12  1  0
  2  1  1  0
  3  2  2  0
  4  3  1  0
  5  4  2  0
  5  6  1  0
  6  2  1  0
  7  8  1  0
  7  5  1  0
  9  8  1  0
 10  9  1  0
 10 11  1  0
 11  7  1  0
 12 18  1  0
 13 12  2  0
 14 15  2  0
 16 15  1  0
 17 16  2  0
 18 19  2  0
 18 17  1  0
 19 14  1  0
  3 20  1  0
  4 21  1  0
  7 22  1  0
  8 23  1  0
  8 24  1  0
  9 25  1  0
  9 26  1  0
 10 27  1  0
 10 28  1  0
 11 29  1  0
 11 30  1  0
 14 31  1  0
 15 32  1  0
 16 33  1  0
M  ISO  8  20  14  21  14  22  13  23  13  24  13  25  13  26  13  27  13
M  ISO  6  28  13  29  13  30  13  31  14  32  14  33  14
M  END
>  <minimizedAffinity>  (1) 
-4.46060228

>  <minimizedRMSD>  (1) 
0.858992875

$$$$
