
     RDKit          3D

 30 31  0  0  0  0  0  0  0  0999 V2000
   39.9740   23.1240   36.9550 C   0  0  0  0  0  0  0  0  0  0  0  0
   39.3610   23.9610   36.0140 C   0  0  0  0  0  0  0  0  0  0  0  0
   38.2380   24.6820   36.4550 C   0  0  0  0  0  0  0  0  0  0  0  0
   37.8100   24.5380   37.7330 N   0  0  0  0  0  0  0  0  0  0  0  0
   38.4440   23.7100   38.6050 C   0  0  0  0  0  0  0  0  0  0  0  0
   39.5250   23.0050   38.2090 N   0  0  0  0  0  0  0  0  0  0  0  0
   37.5360   25.5710   35.5670 N   0  0  0  0  0  0  0  0  0  0  0  0
   37.9210   26.9400   35.5000 C   0  0  0  0  0  0  0  0  0  0  0  0
   38.5570   27.5050   36.4720 N   0  0  0  0  0  0  0  0  0  0  0  0
   37.5660   27.6320   34.3120 N   0  0  0  0  0  0  0  0  0  0  0  0
   38.8880   28.4930   36.4530 H   0  0  0  0  0  0  0  0  0  0  0  0
   41.1450   22.3760   36.4850 C   0  0  0  0  0  0  0  0  0  0  0  0
   41.5640   21.2230   37.3260 C   0  0  0  0  0  0  0  0  0  0  0  0
   42.9890   20.9600   36.8600 C   0  0  0  0  0  0  0  0  0  0  0  0
   43.3950   22.1530   36.0150 C   0  0  0  0  0  0  0  0  0  0  0  0
   42.4160   23.2350   36.4960 C   0  0  0  0  0  0  0  0  0  0  0  0
   39.7384   24.0494   34.9846 H   0  0  0  0  0  0  0  0  0  0  0  0
   38.0749   23.6141   39.6368 H   0  0  0  0  0  0  0  0  0  0  0  0
   36.7620   25.2199   34.9852 H   0  0  0  0  0  0  0  0  0  0  0  0
   37.8153   28.6251   34.2004 H   0  0  0  0  0  0  0  0  0  0  0  0
   37.0592   27.1408   33.5618 H   0  0  0  0  0  0  0  0  0  0  0  0
   40.7987   22.0488   35.4935 H   0  0  0  0  0  0  0  0  0  0  0  0
   41.5390   21.4832   38.3945 H   0  0  0  0  0  0  0  0  0  0  0  0
   40.9052   20.3482   37.2219 H   0  0  0  0  0  0  0  0  0  0  0  0
   43.6598   20.8624   37.7263 H   0  0  0  0  0  0  0  0  0  0  0  0
   43.0521   20.0253   36.2835 H   0  0  0  0  0  0  0  0  0  0  0  0
   43.2655   21.9454   34.9425 H   0  0  0  0  0  0  0  0  0  0  0  0
   44.4532   22.4332   36.1236 H   0  0  0  0  0  0  0  0  0  0  0  0
   42.3539   24.0833   35.7984 H   0  0  0  0  0  0  0  0  0  0  0  0
   42.6632   23.7270   37.4483 H   0  0  0  0  0  0  0  0  0  0  0  0
  1  6  2  0
  2  3  2  0
  2  1  1  0
  3  4  1  0
  4  5  2  0
  6  5  1  0
  7  3  1  0
  8  7  1  0
  8  9  2  0
 10  8  1  0
 11  9  1  0
 12 16  1  0
 12  1  1  0
 12 13  1  0
 14 13  1  0
 15 16  1  0
 15 14  1  0
  2 17  1  0
  5 18  1  0
  7 19  1  0
 10 20  1  0
 10 21  1  0
 12 22  1  0
 13 23  1  0
 13 24  1  0
 14 25  1  0
 14 26  1  0
 15 27  1  0
 15 28  1  0
 16 29  1  0
 16 30  1  0
M  ISO  8  17  14  18  14  22  13  23  13  24  13  25  13  26  13  27  13
M  ISO  3  28  13  29  13  30  13
M  END
>  <minimizedAffinity>  (1) 
-4.80776882

>  <minimizedRMSD>  (1) 
0.479068011

$$$$
