
     RDKit          3D

 50 55  0  0  0  0  0  0  0  0999 V2000
   36.6590   22.7140   31.9140 C   0  0  0  0  0  0  0  0  0  0  0  0
   36.2120   23.9750   31.5540 C   0  0  0  0  0  0  0  0  0  0  0  0
   36.8030   25.0180   32.2360 C   0  0  0  0  0  0  0  0  0  0  0  0
   37.7270   24.7310   33.1570 N   0  0  0  0  0  0  0  0  0  0  0  0
   38.1640   23.5480   33.5120 C   0  0  0  0  0  0  0  0  0  0  0  0
   37.5920   22.5550   32.8540 N   0  0  0  0  0  0  0  0  0  0  0  0
   36.4520   26.3700   31.9820 N   0  0  0  0  0  0  0  0  0  0  0  0
   36.4750   26.9960   30.7990 C   0  0  0  0  0  0  0  0  0  0  0  0
   36.0860   28.2500   30.9290 N   0  0  0  0  0  0  0  0  0  0  0  0
   35.8030   28.4480   32.2200 C   0  0  0  0  0  0  0  0  0  0  0  0
   36.0380   27.2720   32.8450 N   0  0  0  0  0  0  0  0  0  0  0  0
   39.1450   23.1020   34.4790 C   0  0  0  0  0  0  0  0  0  0  0  0
   40.3300   22.5080   34.1000 C   0  0  0  0  0  0  0  0  0  0  0  0
   41.2900   22.0700   34.9770 C   0  0  0  0  0  0  0  0  0  0  0  0
   41.0980   22.2130   36.3390 C   0  0  0  0  0  0  0  0  0  0  0  0
   39.9510   22.7900   36.7560 C   0  0  0  0  0  0  0  0  0  0  0  0
   39.7490   22.9370   38.1160 C   0  0  0  0  0  0  0  0  0  0  0  0
   38.6300   23.5050   38.6350 C   0  0  0  0  0  0  0  0  0  0  0  0
   37.6600   23.9460   37.7340 C   0  0  0  0  0  0  0  0  0  0  0  0
   37.8910   23.7840   36.3860 C   0  0  0  0  0  0  0  0  0  0  0  0
   39.0080   23.2180   35.8470 C   0  0  0  0  0  0  0  0  0  0  0  0
   35.3360   29.5830   32.9960 C   0  0  0  0  0  0  0  0  0  0  0  0
   34.3530   30.5040   32.8620 N   0  0  0  0  0  0  0  0  0  0  0  0
   34.3750   31.3250   33.8810 O   0  0  0  0  0  0  0  0  0  0  0  0
   35.3560   30.9660   34.6910 C   0  0  0  0  0  0  0  0  0  0  0  0
   35.9700   29.8770   34.1560 N   0  0  0  0  0  0  0  0  0  0  0  0
   35.7780   31.6000   35.9910 C   0  0  0  0  0  0  0  0  0  0  0  0
   34.5460   31.8490   36.8500 C   0  0  0  0  0  0  0  0  0  0  0  0
   34.5460   33.3210   37.1920 C   0  0  0  0  0  0  0  0  0  0  0  0
   35.4310   33.9840   36.1860 C   0  0  0  0  0  0  0  0  0  0  0  0
   36.3960   32.9280   35.6900 C   0  0  0  0  0  0  0  0  0  0  0  0
   36.2372   21.8285   31.4160 H   0  0  0  0  0  0  0  0  0  0  0  0
   35.4438   24.1324   30.7826 H   0  0  0  0  0  0  0  0  0  0  0  0
   36.7766   26.5294   29.8496 H   0  0  0  0  0  0  0  0  0  0  0  0
   40.5181   22.3766   33.0242 H   0  0  0  0  0  0  0  0  0  0  0  0
   42.2118   21.6054   34.5969 H   0  0  0  0  0  0  0  0  0  0  0  0
   41.8549   21.8680   37.0588 H   0  0  0  0  0  0  0  0  0  0  0  0
   40.5271   22.5790   38.8062 H   0  0  0  0  0  0  0  0  0  0  0  0
   38.4938   23.6130   39.7212 H   0  0  0  0  0  0  0  0  0  0  0  0
   36.7309   24.4130   38.0927 H   0  0  0  0  0  0  0  0  0  0  0  0
   37.1152   24.1383   35.6913 H   0  0  0  0  0  0  0  0  0  0  0  0
   36.4855   30.9398   36.5141 H   0  0  0  0  0  0  0  0  0  0  0  0
   33.6350   31.5897   36.2907 H   0  0  0  0  0  0  0  0  0  0  0  0
   34.5663   31.2312   37.7599 H   0  0  0  0  0  0  0  0  0  0  0  0
   33.5257   33.7271   37.1284 H   0  0  0  0  0  0  0  0  0  0  0  0
   34.9054   33.4939   38.2171 H   0  0  0  0  0  0  0  0  0  0  0  0
   34.8303   34.3710   35.3497 H   0  0  0  0  0  0  0  0  0  0  0  0
   35.9696   34.8329   36.6324 H   0  0  0  0  0  0  0  0  0  0  0  0
   37.3608   33.0229   36.2098 H   0  0  0  0  0  0  0  0  0  0  0  0
   36.5829   33.0403   34.6118 H   0  0  0  0  0  0  0  0  0  0  0  0
  1  6  2  0
  2  1  1  0
  2  3  2  0
  3  4  1  0
  4  5  2  0
  5 12  1  0
  6  5  1  0
  7  3  1  0
  7 11  1  0
  8  9  2  0
  8  7  1  0
  9 10  1  0
 10 11  2  0
 10 22  1  0
 12 21  1  0
 13 12  2  0
 13 14  1  0
 14 15  2  0
 15 16  1  0
 16 17  2  0
 17 18  1  0
 19 18  2  0
 20 19  1  0
 21 20  2  0
 21 16  1  0
 22 26  1  0
 23 22  2  0
 23 24  1  0
 24 25  1  0
 25 27  1  0
 26 25  2  0
 27 28  1  0
 28 29  1  0
 30 29  1  0
 31 27  1  0
 31 30  1  0
  1 32  1  0
  2 33  1  0
  8 34  1  0
 13 35  1  0
 14 36  1  0
 15 37  1  0
 17 38  1  0
 18 39  1  0
 19 40  1  0
 20 41  1  0
 27 42  1  0
 28 43  1  0
 28 44  1  0
 29 45  1  0
 29 46  1  0
 30 47  1  0
 30 48  1  0
 31 49  1  0
 31 50  1  0
M  END
>  <minimizedAffinity>  (1) 
-7.65045309

>  <minimizedRMSD>  (1) 
1.87088621

$$$$
