
     RDKit          3D

 47 52  0  0  0  0  0  0  0  0999 V2000
   39.3130   23.4040   32.4600 C   0  0  0  0  0  0  0  0  0  0  0  0
   40.1500   22.3410   32.7720 C   0  0  0  0  0  0  0  0  0  0  0  0
   39.7300   21.0110   32.6920 C   0  0  0  0  0  0  0  0  0  0  0  0
   38.4300   20.7220   32.2880 C   0  0  0  0  0  0  0  0  0  0  0  0
   37.5770   21.7610   31.9720 C   0  0  0  0  0  0  0  0  0  0  0  0
   36.3000   21.4920   31.5700 C   0  0  0  0  0  0  0  0  0  0  0  0
   35.4120   22.4800   31.2340 C   0  0  0  0  0  0  0  0  0  0  0  0
   35.8670   23.7980   31.3140 C   0  0  0  0  0  0  0  0  0  0  0  0
   37.1680   24.0290   31.7260 C   0  0  0  0  0  0  0  0  0  0  0  0
   38.0530   23.0570   32.0690 C   0  0  0  0  0  0  0  0  0  0  0  0
   37.2900   25.4670   31.5930 C   0  0  0  0  0  0  0  0  0  0  0  0
   36.7010   26.1390   32.7230 C   0  0  0  0  0  0  0  0  0  0  0  0
   36.6610   27.5140   32.9930 C   0  0  0  0  0  0  0  0  0  0  0  0
   37.2670   28.3070   32.0470 C   0  0  0  0  0  0  0  0  0  0  0  0
   37.8560   27.7570   30.9350 C   0  0  0  0  0  0  0  0  0  0  0  0
   37.8350   26.4060   30.7750 C   0  0  0  0  0  0  0  0  0  0  0  0
   39.7770   24.7540   32.5740 C   0  0  0  0  0  0  0  0  0  0  0  0
   39.7000   25.4970   33.7730 C   0  0  0  0  0  0  0  0  0  0  0  0
   40.2000   26.8050   33.7680 C   0  0  0  0  0  0  0  0  0  0  0  0
   40.7360   27.3080   32.6140 N   0  0  0  0  0  0  0  0  0  0  0  0
   40.7980   26.5700   31.4830 C   0  0  0  0  0  0  0  0  0  0  0  0
   40.3280   25.3410   31.4890 N   0  0  0  0  0  0  0  0  0  0  0  0
   39.1820   24.9180   34.9140 N   0  0  0  0  0  0  0  0  0  0  0  0
   37.9410   25.0670   35.3950 C   0  0  0  0  0  0  0  0  0  0  0  0
   37.7400   24.3680   36.5250 N   0  0  0  0  0  0  0  0  0  0  0  0
   38.9170   23.7350   36.7850 C   0  0  0  0  0  0  0  0  0  0  0  0
   39.3360   22.8900   37.7830 C   0  0  0  0  0  0  0  0  0  0  0  0
   40.5750   22.3690   37.8440 N   0  0  0  0  0  0  0  0  0  0  0  0
   41.4140   22.7330   36.8410 C   0  0  0  0  0  0  0  0  0  0  0  0
   40.9940   23.5530   35.8820 N   0  0  0  0  0  0  0  0  0  0  0  0
   39.7880   24.0910   35.7760 C   0  0  0  0  0  0  0  0  0  0  0  0
   41.1802   22.5536   33.0935 H   0  0  0  0  0  0  0  0  0  0  0  0
   40.4235   20.1961   32.9471 H   0  0  0  0  0  0  0  0  0  0  0  0
   38.0863   19.6792   32.2212 H   0  0  0  0  0  0  0  0  0  0  0  0
   35.9721   20.4435   31.5138 H   0  0  0  0  0  0  0  0  0  0  0  0
   34.3857   22.2453   30.9152 H   0  0  0  0  0  0  0  0  0  0  0  0
   35.2040   24.6365   31.0545 H   0  0  0  0  0  0  0  0  0  0  0  0
   36.2209   25.4897   33.4700 H   0  0  0  0  0  0  0  0  0  0  0  0
   36.1815   27.9270   33.8927 H   0  0  0  0  0  0  0  0  0  0  0  0
   37.2802   29.3985   32.1830 H   0  0  0  0  0  0  0  0  0  0  0  0
   38.3382   28.3999   30.1839 H   0  0  0  0  0  0  0  0  0  0  0  0
   38.3222   26.0241   29.8658 H   0  0  0  0  0  0  0  0  0  0  0  0
   40.1624   27.4197   34.6794 H   0  0  0  0  0  0  0  0  0  0  0  0
   41.2369   26.9926   30.5671 H   0  0  0  0  0  0  0  0  0  0  0  0
   37.1717   25.6921   34.9181 H   0  0  0  0  0  0  0  0  0  0  0  0
   38.6203   22.6248   38.5751 H   0  0  0  0  0  0  0  0  0  0  0  0
   42.4444   22.3485   36.8214 H   0  0  0  0  0  0  0  0  0  0  0  0
  1 17  1  0
  1  2  2  0
  3  2  1  0
  4  3  2  0
  5 10  2  0
  5  4  1  0
  6  5  1  0
  7  8  1  0
  7  6  2  0
  8  9  2  0
  9 10  1  0
 10  1  1  0
 11  9  1  0
 11 12  2  0
 12 13  1  0
 14 13  2  0
 15 14  1  0
 16 15  2  0
 16 11  1  0
 17 18  1  0
 18 23  1  0
 19 18  2  0
 20 19  1  0
 21 22  1  0
 21 20  2  0
 22 17  2  0
 23 24  1  0
 23 31  1  0
 24 25  2  0
 25 26  1  0
 26 27  2  0
 27 28  1  0
 29 28  2  0
 30 29  1  0
 31 30  2  0
 31 26  1  0
  2 32  1  0
  3 33  1  0
  4 34  1  0
  6 35  1  0
  7 36  1  0
  8 37  1  0
 12 38  1  0
 13 39  1  0
 14 40  1  0
 15 41  1  0
 16 42  1  0
 19 43  1  0
 21 44  1  0
 24 45  1  0
 27 46  1  0
 29 47  1  0
M  ISO  8  32  14  33  14  34  14  35  14  36  14  37  14  38  14  39  14
M  ISO  8  40  14  41  14  42  14  43  14  44  14  45  14  46  14  47  14
M  END
>  <minimizedAffinity>  (1) 
-6.31828451

>  <minimizedRMSD>  (1) 
1.54583824

$$$$
