
     RDKit          3D

 30 32  0  0  0  0  0  0  0  0999 V2000
   39.6670   22.6470   38.2500 N   0  0  0  0  0  0  0  0  0  0  0  0
   38.5650   23.3900   38.1050 N   0  0  0  0  0  0  0  0  0  0  0  0
   38.5920   23.9800   36.8750 C   0  0  0  0  0  0  0  0  0  0  0  0
   39.7440   23.5920   36.2380 C   0  0  0  0  0  0  0  0  0  0  0  0
   40.3840   22.7640   37.1250 C   0  0  0  0  0  0  0  0  0  0  0  0
   41.6620   22.1090   36.8720 C   0  0  0  0  0  0  0  0  0  0  0  0
   42.6880   22.7430   36.2040 C   0  0  0  0  0  0  0  0  0  0  0  0
   43.8910   22.1080   35.9740 C   0  0  0  0  0  0  0  0  0  0  0  0
   44.1070   20.8070   36.4070 C   0  0  0  0  0  0  0  0  0  0  0  0
   43.0860   20.1560   37.0800 C   0  0  0  0  0  0  0  0  0  0  0  0
   41.9090   20.8200   37.2890 C   0  0  0  0  0  0  0  0  0  0  0  0
   37.5500   24.8250   36.4480 O   0  0  0  0  0  0  0  0  0  0  0  0
   37.8290   26.0910   35.9320 C   0  0  0  0  0  0  0  0  0  0  0  0
   38.4770   26.9360   36.5830 O   0  0  0  0  0  0  0  0  0  0  0  0
   37.3490   26.4400   34.5900 C   0  0  0  0  0  0  0  0  0  0  0  0
   37.4620   25.4830   33.5900 C   0  0  0  0  0  0  0  0  0  0  0  0
   37.0060   25.8090   32.3040 C   0  0  0  0  0  0  0  0  0  0  0  0
   36.4850   27.0390   32.1300 N   0  0  0  0  0  0  0  0  0  0  0  0
   36.3880   27.9390   33.1080 C   0  0  0  0  0  0  0  0  0  0  0  0
   36.8170   27.6540   34.3460 N   0  0  0  0  0  0  0  0  0  0  0  0
   39.9187   22.0865   39.0767 H   0  0  0  0  0  0  0  0  0  0  0  0
   40.0817   23.8825   35.2322 H   0  0  0  0  0  0  0  0  0  0  0  0
   42.5448   23.7739   35.8479 H   0  0  0  0  0  0  0  0  0  0  0  0
   44.6912   22.6408   35.4393 H   0  0  0  0  0  0  0  0  0  0  0  0
   45.0673   20.3042   36.2200 H   0  0  0  0  0  0  0  0  0  0  0  0
   43.2195   19.1249   37.4393 H   0  0  0  0  0  0  0  0  0  0  0  0
   41.1076   20.2902   37.8249 H   0  0  0  0  0  0  0  0  0  0  0  0
   37.8977   24.4952   33.8008 H   0  0  0  0  0  0  0  0  0  0  0  0
   37.0711   25.0909   31.4732 H   0  0  0  0  0  0  0  0  0  0  0  0
   35.9513   28.9264   32.8974 H   0  0  0  0  0  0  0  0  0  0  0  0
  2  1  1  0
  3  2  2  0
  4  3  1  0
  4  5  2  0
  5  1  1  0
  6  5  1  0
  6 11  1  0
  7  6  2  0
  8  7  1  0
  8  9  2  0
  9 10  1  0
 10 11  2  0
 12  3  1  0
 13 12  1  0
 13 14  2  0
 15 13  1  0
 16 15  2  0
 17 16  1  0
 18 17  2  0
 18 19  1  0
 19 20  2  0
 20 15  1  0
  1 21  1  0
  4 22  1  0
  7 23  1  0
  8 24  1  0
  9 25  1  0
 10 26  1  0
 11 27  1  0
 16 28  1  0
 17 29  1  0
 19 30  1  0
M  ISO  8  21   9  22  14  23  14  24  14  25  14  26  14  27  14  28  14
M  ISO  2  29  14  30  14
M  END
>  <minimizedAffinity>  (1) 
-5.28353167

>  <minimizedRMSD>  (1) 
1.17035782

$$$$
