
     RDKit          3D

 47 50  0  0  1  0  0  0  0  0999 V2000
   40.3940   22.1040   34.1240 C   0  0  0  0  0  0  0  0  0  0  0  0
   39.0860   22.0450   33.6720 C   0  0  0  0  0  0  0  0  0  0  0  0
   38.7500   21.1250   32.7010 C   0  0  0  0  0  0  0  0  0  0  0  0
   39.7300   20.3000   32.2160 N   0  0  0  0  0  0  0  0  0  0  0  0
   40.9840   20.3890   32.6790 C   0  0  0  0  0  0  0  0  0  0  0  0
   41.3210   21.2700   33.6140 N   0  0  0  0  0  0  0  0  0  0  0  0
   37.4830   20.9090   32.1150 N   0  0  0  0  0  0  0  0  0  0  0  0
   36.9710   21.5690   30.9400 C   0  0  0  0  0  0  0  0  0  0  0  0
   35.7300   22.3320   31.2720 C   0  0  0  0  0  0  0  0  0  0  0  0
   35.2550   21.9520   32.5520 O   0  0  0  0  0  0  0  0  0  0  0  0
   35.1060   20.5810   32.5890 C   0  0  0  0  0  0  0  0  0  0  0  0
   36.4880   19.9570   32.6350 C   0  0  0  0  0  0  0  0  0  0  0  0
   40.6910   23.0790   35.1320 C   0  0  0  0  0  0  0  0  0  0  0  0
   41.8090   23.7070   35.2200 O   0  0  0  0  0  0  0  0  0  0  0  0
   39.7670   23.4800   36.1810 C   0  0  0  0  0  0  0  0  0  0  0  0
   39.6840   22.7840   37.3810 C   0  0  0  0  0  0  0  0  0  0  0  0
   38.7780   23.1940   38.3530 C   0  0  0  0  0  0  0  0  0  0  0  0
   37.9530   24.2790   38.1570 C   0  0  0  0  0  0  0  0  0  0  0  0
   38.0320   24.9770   36.9580 C   0  0  0  0  0  0  0  0  0  0  0  0
   38.9500   24.5570   35.9830 C   0  0  0  0  0  0  0  0  0  0  0  0
   38.8850   25.4560   34.8400 C   0  0  0  0  0  0  0  0  0  0  0  0
   39.8020   26.4300   34.4540 C   0  0  0  0  0  0  0  0  0  0  0  0
   39.5940   27.2060   33.3360 C   0  0  0  0  0  0  0  0  0  0  0  0
   38.4910   27.0720   32.5410 C   0  0  0  0  0  0  0  0  0  0  0  0
   37.5510   26.1350   32.8620 C   0  0  0  0  0  0  0  0  0  0  0  0
   37.7780   25.3700   33.9860 C   0  0  0  0  0  0  0  0  0  0  0  0
   38.3242   22.7240   34.0827 H   0  0  0  0  0  0  0  0  0  0  0  0
   41.7539   19.7154   32.2746 H   0  0  0  0  0  0  0  0  0  0  0  0
   36.7392   20.8156   30.1728 H   0  0  0  0  0  0  0  0  0  0  0  0
   37.7312   22.2693   30.5636 H   0  0  0  0  0  0  0  0  0  0  0  0
   35.9535   23.4091   31.2714 H   0  0  0  0  0  0  0  0  0  0  0  0
   34.9581   22.1106   30.5202 H   0  0  0  0  0  0  0  0  0  0  0  0
   34.5366   20.2920   33.4847 H   0  0  0  0  0  0  0  0  0  0  0  0
   34.5606   20.2331   31.6993 H   0  0  0  0  0  0  0  0  0  0  0  0
   36.4978   19.0457   32.0190 H   0  0  0  0  0  0  0  0  0  0  0  0
   36.7374   19.7037   33.6760 H   0  0  0  0  0  0  0  0  0  0  0  0
   41.0856   22.2853   35.7835 H   0  0  0  0  0  0  0  0  0  0  0  0
   42.0403   23.8369   36.1738 H   0  0  0  0  0  0  0  0  0  0  0  0
   40.3316   21.9133   37.5610 H   0  0  0  0  0  0  0  0  0  0  0  0
   38.7190   22.6386   39.3007 H   0  0  0  0  0  0  0  0  0  0  0  0
   37.2424   24.5884   38.9375 H   0  0  0  0  0  0  0  0  0  0  0  0
   37.3839   25.8469   36.7756 H   0  0  0  0  0  0  0  0  0  0  0  0
   40.7110   26.5826   35.0544 H   0  0  0  0  0  0  0  0  0  0  0  0
   40.3460   27.9643   33.0722 H   0  0  0  0  0  0  0  0  0  0  0  0
   38.3619   27.7102   31.6544 H   0  0  0  0  0  0  0  0  0  0  0  0
   36.6488   25.9962   32.2482 H   0  0  0  0  0  0  0  0  0  0  0  0
   37.0151   24.6183   34.2369 H   0  0  0  0  0  0  0  0  0  0  0  0
  1 13  1  0
  2  1  2  0
  3  2  1  0
  4  5  1  0
  4  3  2  0
  5  6  2  0
  6  1  1  0
  7 12  1  0
  7  3  1  0
  8  9  1  0
  8  7  1  0
  9 10  1  0
 10 11  1  0
 11 12  1  0
 13 14  1  0
 13 15  1  0
 15 16  2  0
 16 17  1  0
 18 17  2  0
 19 18  1  0
 20 15  1  0
 20 19  2  0
 21 20  1  0
 22 21  2  0
 23 22  1  0
 24 25  1  0
 24 23  2  0
 25 26  2  0
 26 21  1  0
  2 27  1  0
  5 28  1  0
  8 29  1  0
  8 30  1  0
  9 31  1  0
  9 32  1  0
 11 33  1  0
 11 34  1  0
 12 35  1  0
 12 36  1  0
 13 37  1  0
 14 38  1  0
 16 39  1  0
 17 40  1  0
 18 41  1  0
 19 42  1  0
 22 43  1  0
 23 44  1  0
 24 45  1  0
 25 46  1  0
 26 47  1  0
M  ISO  8  27  14  28  14  29  13  30  13  31  13  32  13  33  13  34  13
M  ISO  8  35  13  36  13  37   8  38   3  39  14  40  14  41  14  42  14
M  ISO  5  43  14  44  14  45  14  46  14  47  14
M  END
>  <minimizedAffinity>  (1) 
-5.96885633

>  <minimizedRMSD>  (1) 
2.65017629

$$$$
