
     RDKit          3D

 35 37  0  0  1  0  0  0  0  0999 V2000
   38.0120   24.2590   38.4900 C   0  0  0  0  0  0  0  0  0  0  0  0
   38.0540   25.0620   37.3440 C   0  0  0  0  0  0  0  0  0  0  0  0
   38.8400   24.6130   36.2590 C   0  0  0  0  0  0  0  0  0  0  0  0
   39.5100   23.4300   36.3890 N   0  0  0  0  0  0  0  0  0  0  0  0
   39.4340   22.6830   37.5290 C   0  0  0  0  0  0  0  0  0  0  0  0
   38.6890   23.1040   38.5660 N   0  0  0  0  0  0  0  0  0  0  0  0
   38.9540   25.3410   35.0570 N   0  0  0  0  0  0  0  0  0  0  0  0
   40.1300   25.9000   34.4080 C   0  0  0  0  0  0  0  0  0  0  0  0
   39.5060   27.2340   33.9490 C   0  0  0  0  0  0  0  0  0  0  0  0
   38.3410   26.6410   33.1760 C   0  0  1  0  0  0  0  0  0  0  0  0
   37.8110   25.6630   34.2220 C   0  0  0  0  0  0  0  0  0  0  0  0
   35.4870   29.6130   32.0710 C   0  0  0  0  0  0  0  0  0  0  0  0
   35.5210   29.1690   33.3920 C   0  0  0  0  0  0  0  0  0  0  0  0
   36.4450   28.2100   33.7410 C   0  0  0  0  0  0  0  0  0  0  0  0
   37.3450   27.6710   32.8130 C   0  0  0  0  0  0  0  0  0  0  0  0
   37.2790   28.1420   31.5010 C   0  0  0  0  0  0  0  0  0  0  0  0
   36.3600   29.1040   31.1250 C   0  0  0  0  0  0  0  0  0  0  0  0
   34.3490   30.8310   31.5240 S   0  0  0  0  0  0  0  0  0  0  0  0
   33.6720   31.5340   32.6660 O   0  0  0  0  0  0  0  0  0  0  0  0
   35.1000   31.8660   30.7120 O   0  0  0  0  0  0  0  0  0  0  0  0
   37.4082   24.5838   39.3502 H   0  0  0  0  0  0  0  0  0  0  0  0
   37.4954   26.0081   37.2901 H   0  0  0  0  0  0  0  0  0  0  0  0
   39.9843   21.7331   37.5995 H   0  0  0  0  0  0  0  0  0  0  0  0
   40.9628   26.0493   35.1110 H   0  0  0  0  0  0  0  0  0  0  0  0
   40.5862   25.2832   33.6197 H   0  0  0  0  0  0  0  0  0  0  0  0
   39.1764   27.8565   34.7939 H   0  0  0  0  0  0  0  0  0  0  0  0
   40.1646   27.9195   33.3955 H   0  0  0  0  0  0  0  0  0  0  0  0
   38.5999   26.1854   32.2088 H   0  0  0  0  0  0  0  0  0  0  0  0
   37.0161   26.1319   34.8206 H   0  0  0  0  0  0  0  0  0  0  0  0
   37.3735   24.7654   33.7606 H   0  0  0  0  0  0  0  0  0  0  0  0
   34.8244   29.5762   34.1396 H   0  0  0  0  0  0  0  0  0  0  0  0
   36.4775   27.8558   34.7819 H   0  0  0  0  0  0  0  0  0  0  0  0
   37.9736   27.7389   30.7493 H   0  0  0  0  0  0  0  0  0  0  0  0
   36.3229   29.4611   30.0852 H   0  0  0  0  0  0  0  0  0  0  0  0
   33.3876   30.1978   30.7813 H   0  0  0  0  0  0  0  0  0  0  0  0
  1  6  2  0
  2  1  1  0
  3  4  1  0
  3  2  2  0
  4  5  2  0
  5  6  1  0
  7  3  1  0
  8  7  1  0
  9  8  1  0
 10  9  1  0
 10 11  1  0
 11  7  1  0
 12 13  2  0
 13 14  1  0
 15 10  1  0
 15 14  2  0
 16 15  1  0
 17 16  2  0
 17 12  1  0
 18 12  1  0
 18 19  2  0
 20 18  2  0
  1 21  1  0
  2 22  1  0
  5 23  1  0
  8 24  1  0
  8 25  1  0
  9 26  1  0
  9 27  1  0
 10 28  1  6
 11 29  1  0
 11 30  1  0
 13 31  1  0
 14 32  1  0
 16 33  1  0
 17 34  1  0
 18 35  1  0
M  ISO  8  21  14  22  14  23  14  24  13  25  13  26  13  27  13  28  13
M  ISO  7  29  13  30  13  31  14  32  14  33  14  34  14  35  11
M  END
>  <minimizedAffinity>  (1) 
-5.06781244

>  <minimizedRMSD>  (1) 
3.90204692

$$$$
