
     RDKit          3D

 46 49  0  0  1  0  0  0  0  0999 V2000
   37.6430   25.4450   34.5400 N   0  0  0  0  0  0  0  0  0  0  0  0
   37.1830   25.7040   33.1920 C   0  0  0  0  0  0  0  0  0  0  0  0
   37.2550   27.1820   33.0230 C   0  0  0  0  0  0  0  0  0  0  0  0
   37.8110   27.6850   34.3440 C   0  0  0  0  0  0  0  0  0  0  0  0
   38.6460   26.4380   34.7580 C   0  0  2  0  0  0  0  0  0  0  0  0
   38.2700   24.1600   34.6470 C   0  0  0  0  0  0  0  0  0  0  0  0
   37.9360   23.7040   38.3940 C   0  0  0  0  0  0  0  0  0  0  0  0
   37.6070   24.0620   37.0910 C   0  0  0  0  0  0  0  0  0  0  0  0
   38.5560   23.8040   36.0740 C   0  0  0  0  0  0  0  0  0  0  0  0
   39.7340   23.2170   36.4420 N   0  0  0  0  0  0  0  0  0  0  0  0
   39.9890   22.8950   37.7270 C   0  0  0  0  0  0  0  0  0  0  0  0
   39.0860   23.1430   38.6860 N   0  0  0  0  0  0  0  0  0  0  0  0
   39.7420   26.2780   33.9620 O   0  0  0  0  0  0  0  0  0  0  0  0
   40.9480   26.4810   34.5720 C   0  0  2  0  0  0  0  0  0  0  0  0
   41.9700   27.2090   33.7390 C   0  0  0  0  0  0  0  0  0  0  0  0
   42.1740   25.7610   34.1020 C   0  0  1  0  0  0  0  0  0  0  0  0
   45.4380   25.2000   36.8240 C   0  0  0  0  0  0  0  0  0  0  0  0
   44.2390   24.4910   36.9350 C   0  0  0  0  0  0  0  0  0  0  0  0
   43.1870   24.6700   36.0600 C   0  0  0  0  0  0  0  0  0  0  0  0
   43.3110   25.5760   35.0370 C   0  0  0  0  0  0  0  0  0  0  0  0
   44.5070   26.2770   34.9350 C   0  0  0  0  0  0  0  0  0  0  0  0
   45.5670   26.1120   35.7980 C   0  0  0  0  0  0  0  0  0  0  0  0
   46.7060   24.8950   37.9880 S   0  0  0  0  0  0  0  0  0  0  0  0
   46.2210   25.1180   39.3900 O   0  0  0  0  0  0  0  0  0  0  0  0
   47.8980   25.7870   37.7330 O   0  0  0  0  0  0  0  0  0  0  0  0
   37.8333   25.2015   32.4609 H   0  0  0  0  0  0  0  0  0  0  0  0
   36.1636   25.3242   33.0291 H   0  0  0  0  0  0  0  0  0  0  0  0
   37.9254   27.4469   32.1921 H   0  0  0  0  0  0  0  0  0  0  0  0
   36.2774   27.6253   32.7828 H   0  0  0  0  0  0  0  0  0  0  0  0
   38.4417   28.5765   34.2117 H   0  0  0  0  0  0  0  0  0  0  0  0
   37.0582   28.0107   35.0770 H   0  0  0  0  0  0  0  0  0  0  0  0
   39.0841   26.4497   35.7669 H   0  0  0  0  0  0  0  0  0  0  0  0
   37.6019   23.3997   34.2162 H   0  0  0  0  0  0  0  0  0  0  0  0
   39.2253   24.1965   34.1030 H   0  0  0  0  0  0  0  0  0  0  0  0
   37.2135   23.8961   39.2009 H   0  0  0  0  0  0  0  0  0  0  0  0
   36.6395   24.5309   36.8585 H   0  0  0  0  0  0  0  0  0  0  0  0
   40.9476   22.4242   37.9904 H   0  0  0  0  0  0  0  0  0  0  0  0
   40.4839   26.5912   35.5632 H   0  0  0  0  0  0  0  0  0  0  0  0
   42.6010   27.9858   34.1956 H   0  0  0  0  0  0  0  0  0  0  0  0
   41.9464   27.7821   32.8004 H   0  0  0  0  0  0  0  0  0  0  0  0
   42.3112   24.7982   33.5880 H   0  0  0  0  0  0  0  0  0  0  0  0
   44.1295   23.7620   37.7514 H   0  0  0  0  0  0  0  0  0  0  0  0
   42.2587   24.0924   36.1814 H   0  0  0  0  0  0  0  0  0  0  0  0
   44.6126   27.0056   34.1177 H   0  0  0  0  0  0  0  0  0  0  0  0
   46.4927   26.6927   35.6722 H   0  0  0  0  0  0  0  0  0  0  0  0
   47.0783   23.5844   37.8448 H   0  0  0  0  0  0  0  0  0  0  0  0
  1  6  1  0
  1  5  1  0
  2  1  1  0
  3  2  1  0
  3  4  1  0
  4  5  1  0
  6  9  1  0
  7 12  2  0
  8  7  1  0
  9 10  1  0
  9  8  2  0
 10 11  2  0
 11 12  1  0
 13 14  1  0
 13  5  1  0
 15 16  1  0
 15 14  1  0
 16 14  1  0
 16 20  1  0
 17 18  2  0
 17 23  1  0
 19 18  1  0
 20 19  2  0
 21 20  1  0
 21 22  2  0
 22 17  1  0
 23 24  2  0
 25 23  2  0
  2 26  1  0
  2 27  1  0
  3 28  1  0
  3 29  1  0
  4 30  1  0
  4 31  1  0
  5 32  1  1
  6 33  1  0
  6 34  1  0
  7 35  1  0
  8 36  1  0
 11 37  1  0
 14 38  1  1
 15 39  1  0
 15 40  1  0
 16 41  1  6
 18 42  1  0
 19 43  1  0
 21 44  1  0
 22 45  1  0
 23 46  1  0
M  ISO  8  26  13  27  13  28  13  29  13  30  13  31  13  32  13  33   8
M  ISO  8  34   8  35  14  36  14  37  14  38  13  39  13  40  13  41  13
M  ISO  5  42  14  43  14  44  14  45  14  46  11
M  END
>  <minimizedAffinity>  (1) 
-5.47610807

>  <minimizedRMSD>  (1) 
1.44346368

$$$$
