
     RDKit          3D

 51 56  0  0  0  0  0  0  0  0999 V2000
   38.9660   24.0400   32.3500 C   0  0  0  0  0  0  0  0  0  0  0  0
   39.6060   22.8100   32.4590 C   0  0  0  0  0  0  0  0  0  0  0  0
   38.9570   21.6030   32.1920 C   0  0  0  0  0  0  0  0  0  0  0  0
   37.6220   21.6120   31.8030 C   0  0  0  0  0  0  0  0  0  0  0  0
   36.9660   22.8270   31.6870 C   0  0  0  0  0  0  0  0  0  0  0  0
   35.6470   22.8500   31.3070 C   0  0  0  0  0  0  0  0  0  0  0  0
   34.9430   24.0110   31.1730 C   0  0  0  0  0  0  0  0  0  0  0  0
   35.6270   25.2090   31.4410 C   0  0  0  0  0  0  0  0  0  0  0  0
   36.9590   25.1320   31.8230 C   0  0  0  0  0  0  0  0  0  0  0  0
   37.6570   23.9740   31.9610 C   0  0  0  0  0  0  0  0  0  0  0  0
   39.6680   25.2560   32.6470 C   0  0  0  0  0  0  0  0  0  0  0  0
   39.7910   25.7690   33.9530 C   0  0  0  0  0  0  0  0  0  0  0  0
   40.5140   26.9560   34.1250 C   0  0  0  0  0  0  0  0  0  0  0  0
   41.0690   27.5640   33.0350 N   0  0  0  0  0  0  0  0  0  0  0  0
   40.9340   27.0410   31.7910 C   0  0  0  0  0  0  0  0  0  0  0  0
   40.2550   25.9290   31.6310 N   0  0  0  0  0  0  0  0  0  0  0  0
   39.2300   25.0930   35.0210 N   0  0  0  0  0  0  0  0  0  0  0  0
   37.9790   25.2240   35.4780 C   0  0  0  0  0  0  0  0  0  0  0  0
   37.7340   24.4240   36.5370 N   0  0  0  0  0  0  0  0  0  0  0  0
   38.8920   23.7490   36.7640 C   0  0  0  0  0  0  0  0  0  0  0  0
   39.2740   22.8030   37.6820 C   0  0  0  0  0  0  0  0  0  0  0  0
   40.5070   22.2500   37.7220 N   0  0  0  0  0  0  0  0  0  0  0  0
   41.3740   22.6940   36.7790 C   0  0  0  0  0  0  0  0  0  0  0  0
   40.9870   23.6100   35.8960 N   0  0  0  0  0  0  0  0  0  0  0  0
   39.7960   24.1780   35.8180 C   0  0  0  0  0  0  0  0  0  0  0  0
   37.2570   26.5050   31.9850 N   0  0  0  0  0  0  0  0  0  0  0  0
   37.4140   27.6010   32.8960 C   0  0  0  0  0  0  0  0  0  0  0  0
   36.3640   28.7030   32.5850 C   0  0  0  0  0  0  0  0  0  0  0  0
   36.8450   29.4080   31.4300 N   0  0  0  0  0  0  0  0  0  0  0  0
   37.7560   28.5870   30.6990 C   0  0  0  0  0  0  0  0  0  0  0  0
   37.4740   27.1420   30.6520 C   0  0  0  0  0  0  0  0  0  0  0  0
   40.6618   22.7873   32.7667 H   0  0  0  0  0  0  0  0  0  0  0  0
   39.4986   20.6505   32.2888 H   0  0  0  0  0  0  0  0  0  0  0  0
   37.0953   20.6699   31.5908 H   0  0  0  0  0  0  0  0  0  0  0  0
   35.1384   21.8962   31.1028 H   0  0  0  0  0  0  0  0  0  0  0  0
   33.8860   24.0094   30.8684 H   0  0  0  0  0  0  0  0  0  0  0  0
   35.1205   26.1812   31.3505 H   0  0  0  0  0  0  0  0  0  0  0  0
   40.6336   27.3939   35.1269 H   0  0  0  0  0  0  0  0  0  0  0  0
   41.3889   27.5436   30.9247 H   0  0  0  0  0  0  0  0  0  0  0  0
   37.2352   25.9060   35.0404 H   0  0  0  0  0  0  0  0  0  0  0  0
   38.5346   22.4760   38.4279 H   0  0  0  0  0  0  0  0  0  0  0  0
   42.3989   22.2960   36.7442 H   0  0  0  0  0  0  0  0  0  0  0  0
   37.2717   27.2421   33.9260 H   0  0  0  0  0  0  0  0  0  0  0  0
   38.4241   28.0221   32.7847 H   0  0  0  0  0  0  0  0  0  0  0  0
   35.3858   28.2471   32.3722 H   0  0  0  0  0  0  0  0  0  0  0  0
   36.2336   29.3820   33.4406 H   0  0  0  0  0  0  0  0  0  0  0  0
   36.0485   29.6551   30.8254 H   0  0  0  0  0  0  0  0  0  0  0  0
   37.7731   28.9543   29.6623 H   0  0  0  0  0  0  0  0  0  0  0  0
   38.7096   28.6714   31.2407 H   0  0  0  0  0  0  0  0  0  0  0  0
   36.5677   26.9892   30.0476 H   0  0  0  0  0  0  0  0  0  0  0  0
   38.3668   26.6650   30.2214 H   0  0  0  0  0  0  0  0  0  0  0  0
  1  2  2  0
  1 11  1  0
  3  2  1  0
  4  3  2  0
  5  4  1  0
  5 10  2  0
  6  5  1  0
  7  6  2  0
  7  8  1  0
  8  9  2  0
  9 10  1  0
  9 26  1  0
 10  1  1  0
 11 12  1  0
 12 13  2  0
 12 17  1  0
 14 13  1  0
 15 14  2  0
 16 15  1  0
 16 11  2  0
 17 18  1  0
 17 25  1  0
 18 19  2  0
 19 20  1  0
 20 21  2  0
 21 22  1  0
 23 22  2  0
 24 23  1  0
 25 24  2  0
 25 20  1  0
 26 27  1  0
 28 27  1  0
 29 28  1  0
 30 29  1  0
 31 30  1  0
 31 26  1  0
  2 32  1  0
  3 33  1  0
  4 34  1  0
  6 35  1  0
  7 36  1  0
  8 37  1  0
 13 38  1  0
 15 39  1  0
 18 40  1  0
 21 41  1  0
 23 42  1  0
 27 43  1  0
 27 44  1  0
 28 45  1  0
 28 46  1  0
 29 47  1  0
 30 48  1  0
 30 49  1  0
 31 50  1  0
 31 51  1  0
M  ISO  8  32  14  33  14  34  14  35  14  36  14  37  14  38  14  39  14
M  ISO  8  40  14  41  14  42  14  43  13  44  13  45  13  46  13  47   5
M  ISO  4  48  13  49  13  50  13  51  13
M  END
>  <minimizedAffinity>  (1) 
-6.22899342

>  <minimizedRMSD>  (1) 
0.70916748

$$$$
