
     RDKit          3D

 51 55  0  0  1  0  0  0  0  0999 V2000
   40.3860   26.8530   32.6660 C   0  0  0  0  0  0  0  0  0  0  0  0
   39.7980   27.3220   33.7680 N   0  0  0  0  0  0  0  0  0  0  0  0
   40.1670   26.6340   34.7990 O   0  0  0  0  0  0  0  0  0  0  0  0
   41.0120   25.7040   34.3440 C   0  0  0  0  0  0  0  0  0  0  0  0
   41.1860   25.7960   33.0180 N   0  0  0  0  0  0  0  0  0  0  0  0
   36.8760   24.1460   31.0460 C   0  0  0  0  0  0  0  0  0  0  0  0
   35.7110   24.8520   31.3770 C   0  0  0  0  0  0  0  0  0  0  0  0
   35.7570   26.2300   31.4380 C   0  0  0  0  0  0  0  0  0  0  0  0
   36.9550   26.8360   31.1650 N   0  0  0  0  0  0  0  0  0  0  0  0
   38.0500   26.1060   30.8500 C   0  0  0  0  0  0  0  0  0  0  0  0
   38.0180   24.7900   30.7900 N   0  0  0  0  0  0  0  0  0  0  0  0
   39.2380   26.8710   30.5840 N   0  0  0  0  0  0  0  0  0  0  0  0
   39.3160   27.3100   29.3590 N   0  0  0  0  0  0  0  0  0  0  0  0
   40.4590   28.0040   29.2160 C   0  0  0  0  0  0  0  0  0  0  0  0
   41.1160   27.9930   30.4100 C   0  0  0  0  0  0  0  0  0  0  0  0
   40.3140   27.2610   31.2700 C   0  0  0  0  0  0  0  0  0  0  0  0
   36.8220   22.7140   30.9850 N   0  0  0  0  0  0  0  0  0  0  0  0
   41.7030   24.6670   35.1830 C   0  0  2  0  0  0  0  0  0  0  0  0
   42.8950   23.9480   34.6340 C   0  0  0  0  0  0  0  0  0  0  0  0
   41.5770   23.2230   34.8460 C   0  0  1  0  0  0  0  0  0  0  0  0
   41.6030   22.1470   35.8840 C   0  0  0  0  0  0  0  0  0  0  0  0
   40.9960   22.6070   37.2140 C   0  0  0  0  0  0  0  0  0  0  0  0
   39.5780   22.4430   37.1380 N   0  0  0  0  0  0  0  0  0  0  0  0
   38.9990   22.3520   35.8390 C   0  0  0  0  0  0  0  0  0  0  0  0
   37.5640   21.8870   35.8930 C   0  0  0  0  0  0  0  0  0  0  0  0
   36.8800   22.3880   37.0680 N   0  0  0  0  0  0  0  0  0  0  0  0
   37.5180   23.6540   37.4230 C   0  0  0  0  0  0  0  0  0  0  0  0
   38.8580   23.3110   38.0320 C   0  0  0  0  0  0  0  0  0  0  0  0
   34.7736   24.3153   31.5851 H   0  0  0  0  0  0  0  0  0  0  0  0
   34.8651   26.8197   31.6962 H   0  0  0  0  0  0  0  0  0  0  0  0
   40.8041   28.4956   28.2945 H   0  0  0  0  0  0  0  0  0  0  0  0
   42.0814   28.4665   30.6422 H   0  0  0  0  0  0  0  0  0  0  0  0
   37.6669   22.1766   30.7436 H   0  0  0  0  0  0  0  0  0  0  0  0
   35.9383   22.2231   31.1826 H   0  0  0  0  0  0  0  0  0  0  0  0
   41.5055   25.2633   36.0860 H   0  0  0  0  0  0  0  0  0  0  0  0
   43.7559   23.7301   35.2831 H   0  0  0  0  0  0  0  0  0  0  0  0
   43.5777   24.0989   33.7848 H   0  0  0  0  0  0  0  0  0  0  0  0
   40.8375   22.6678   34.2503 H   0  0  0  0  0  0  0  0  0  0  0  0
   41.0302   21.2841   35.5134 H   0  0  0  0  0  0  0  0  0  0  0  0
   42.6547   21.8821   36.0678 H   0  0  0  0  0  0  0  0  0  0  0  0
   41.3977   21.9979   38.0372 H   0  0  0  0  0  0  0  0  0  0  0  0
   41.2471   23.6613   37.4019 H   0  0  0  0  0  0  0  0  0  0  0  0
   39.5819   21.6375   35.2392 H   0  0  0  0  0  0  0  0  0  0  0  0
   39.0153   23.3551   35.3878 H   0  0  0  0  0  0  0  0  0  0  0  0
   37.0393   22.2461   34.9954 H   0  0  0  0  0  0  0  0  0  0  0  0
   37.5622   20.7880   35.9388 H   0  0  0  0  0  0  0  0  0  0  0  0
   35.8829   22.5401   36.8595 H   0  0  0  0  0  0  0  0  0  0  0  0
   37.6575   24.2730   36.5244 H   0  0  0  0  0  0  0  0  0  0  0  0
   36.8974   24.2247   38.1295 H   0  0  0  0  0  0  0  0  0  0  0  0
   38.7046   22.8015   38.9948 H   0  0  0  0  0  0  0  0  0  0  0  0
   39.4355   24.2328   38.1956 H   0  0  0  0  0  0  0  0  0  0  0  0
  1  5  1  0
  1  2  2  0
  2  3  1  0
  4  3  1  0
  4 18  1  0
  5  4  2  0
  6  7  2  0
  7  8  1  0
  9  8  2  0
 10  9  1  0
 11 10  2  0
 11  6  1  0
 12 10  1  0
 12 16  1  0
 13 12  1  0
 14 13  2  0
 14 15  1  0
 15 16  2  0
 16  1  1  0
 17  6  1  0
 19 20  1  0
 19 18  1  0
 20 18  1  0
 20 21  1  0
 21 22  1  0
 23 22  1  0
 23 28  1  0
 24 25  1  0
 24 23  1  0
 25 26  1  0
 26 27  1  0
 27 28  1  0
  7 29  1  0
  8 30  1  0
 14 31  1  0
 15 32  1  0
 17 33  1  0
 17 34  1  0
 18 35  1  1
 19 36  1  0
 19 37  1  0
 20 38  1  6
 21 39  1  0
 21 40  1  0
 22 41  1  0
 22 42  1  0
 24 43  1  0
 24 44  1  0
 25 45  1  0
 25 46  1  0
 26 47  1  0
 27 48  1  0
 27 49  1  0
 28 50  1  0
 28 51  1  0
M  ISO  8  29  14  30  14  31  14  32  14  35  13  36  13  37  13  38  13
M  ISO  8  39   8  40   8  41   8  42   8  43  13  44  13  45  13  46  13
M  ISO  5  47   5  48  13  49  13  50  13  51  13
M  END
>  <minimizedAffinity>  (1) 
-5.36041403

>  <minimizedRMSD>  (1) 
3.03085208

$$$$
