
     RDKit          3D

 49 53  0  0  0  0  0  0  0  0999 V2000
   42.6720   22.5160   36.4750 C   0  0  0  0  0  0  0  0  0  0  0  0
   42.6920   23.9030   36.5860 C   0  0  0  0  0  0  0  0  0  0  0  0
   43.9280   24.3680   36.2510 N   0  0  0  0  0  0  0  0  0  0  0  0
   44.7310   23.3390   35.9200 C   0  0  0  0  0  0  0  0  0  0  0  0
   46.0440   23.2470   35.5090 C   0  0  0  0  0  0  0  0  0  0  0  0
   46.6090   22.0200   35.2290 C   0  0  0  0  0  0  0  0  0  0  0  0
   45.8220   20.8580   35.3690 C   0  0  0  0  0  0  0  0  0  0  0  0
   44.4910   20.9690   35.7880 C   0  0  0  0  0  0  0  0  0  0  0  0
   43.9600   22.2080   36.0580 C   0  0  0  0  0  0  0  0  0  0  0  0
   43.8030   19.7050   35.9070 N   0  0  0  0  0  0  0  0  0  0  0  0
   43.0530   19.0820   34.8330 C   0  0  0  0  0  0  0  0  0  0  0  0
   43.1530   17.5820   34.8450 C   0  0  0  0  0  0  0  0  0  0  0  0
   42.9330   17.1770   36.2270 N   0  0  0  0  0  0  0  0  0  0  0  0
   43.9730   17.6360   37.0970 C   0  0  0  0  0  0  0  0  0  0  0  0
   43.9590   19.1420   37.2460 C   0  0  0  0  0  0  0  0  0  0  0  0
   41.5910   21.7200   36.7330 O   0  0  0  0  0  0  0  0  0  0  0  0
   40.2750   22.1200   36.7560 C   0  0  0  0  0  0  0  0  0  0  0  0
   39.8640   22.8680   37.8630 C   0  0  0  0  0  0  0  0  0  0  0  0
   38.5140   23.2800   37.8900 C   0  0  0  0  0  0  0  0  0  0  0  0
   37.6990   22.9410   36.8700 N   0  0  0  0  0  0  0  0  0  0  0  0
   38.1550   22.2130   35.8240 C   0  0  0  0  0  0  0  0  0  0  0  0
   39.4190   21.8150   35.7770 N   0  0  0  0  0  0  0  0  0  0  0  0
   37.3620   21.8130   34.7090 N   0  0  0  0  0  0  0  0  0  0  0  0
   37.7640   22.0770   33.4280 C   0  0  0  0  0  0  0  0  0  0  0  0
   36.9380   21.6560   32.3900 C   0  0  0  0  0  0  0  0  0  0  0  0
   35.7450   20.9900   32.6330 C   0  0  0  0  0  0  0  0  0  0  0  0
   35.0060   20.6150   31.6830 O   0  0  0  0  0  0  0  0  0  0  0  0
   35.3910   20.7530   33.9020 N   0  0  0  0  0  0  0  0  0  0  0  0
   36.1900   21.1600   34.9220 C   0  0  0  0  0  0  0  0  0  0  0  0
   35.8700   20.9440   36.1060 O   0  0  0  0  0  0  0  0  0  0  0  0
   41.8413   24.5275   36.8963 H   0  0  0  0  0  0  0  0  0  0  0  0
   44.2068   25.3595   36.2509 H   0  0  0  0  0  0  0  0  0  0  0  0
   46.6469   24.1610   35.4033 H   0  0  0  0  0  0  0  0  0  0  0  0
   47.6568   21.9490   34.9017 H   0  0  0  0  0  0  0  0  0  0  0  0
   46.2520   19.8695   35.1500 H   0  0  0  0  0  0  0  0  0  0  0  0
   43.4413   19.4522   33.8727 H   0  0  0  0  0  0  0  0  0  0  0  0
   41.9940   19.3440   34.9739 H   0  0  0  0  0  0  0  0  0  0  0  0
   42.3856   17.1423   34.1909 H   0  0  0  0  0  0  0  0  0  0  0  0
   44.1309   17.2400   34.4753 H   0  0  0  0  0  0  0  0  0  0  0  0
   42.0355   17.5672   36.5482 H   0  0  0  0  0  0  0  0  0  0  0  0
   43.8353   17.1791   38.0881 H   0  0  0  0  0  0  0  0  0  0  0  0
   44.9387   17.3454   36.6576 H   0  0  0  0  0  0  0  0  0  0  0  0
   44.9039   19.4858   37.6921 H   0  0  0  0  0  0  0  0  0  0  0  0
   43.1375   19.4626   37.9035 H   0  0  0  0  0  0  0  0  0  0  0  0
   40.5601   23.1237   38.6754 H   0  0  0  0  0  0  0  0  0  0  0  0
   38.1305   23.8716   38.7344 H   0  0  0  0  0  0  0  0  0  0  0  0
   38.7080   22.6041   33.2255 H   0  0  0  0  0  0  0  0  0  0  0  0
   37.2383   21.8562   31.3509 H   0  0  0  0  0  0  0  0  0  0  0  0
   34.5097   20.2603   34.1056 H   0  0  0  0  0  0  0  0  0  0  0  0
  1  2  2  0
  1 16  1  0
  3  2  1  0
  4  9  2  0
  4  3  1  0
  5  4  1  0
  6  7  1  0
  6  5  2  0
  7  8  2  0
  8 10  1  0
  8  9  1  0
  9  1  1  0
 10 15  1  0
 11 12  1  0
 11 10  1  0
 12 13  1  0
 13 14  1  0
 14 15  1  0
 16 17  1  0
 17 18  2  0
 18 19  1  0
 20 19  2  0
 21 20  1  0
 22 21  2  0
 22 17  1  0
 23 29  1  0
 23 21  1  0
 24 23  1  0
 25 26  1  0
 25 24  2  0
 26 28  1  0
 27 26  2  0
 28 29  1  0
 29 30  2  0
  2 31  1  0
  3 32  1  0
  5 33  1  0
  6 34  1  0
  7 35  1  0
 11 36  1  0
 11 37  1  0
 12 38  1  0
 12 39  1  0
 13 40  1  0
 14 41  1  0
 14 42  1  0
 15 43  1  0
 15 44  1  0
 18 45  1  0
 19 46  1  0
 24 47  1  0
 25 48  1  0
 28 49  1  0
M  ISO  8  31  14  32   9  33  14  34  14  35  14  36  13  37  13  38  13
M  ISO  8  39  13  40   5  41  13  42  13  43  13  44  13  45  14  46  14
M  ISO  3  47  14  48  14  49   9
M  END
>  <minimizedAffinity>  (1) 
-5.61244106

>  <minimizedRMSD>  (1) 
2.50034332

$$$$
