
     RDKit          3D

 45 48  0  0  0  0  0  0  0  0999 V2000
   37.4830   27.1550   32.4990 C   0  0  0  0  0  0  0  0  0  0  0  0
   37.0120   27.9030   33.5710 C   0  0  0  0  0  0  0  0  0  0  0  0
   36.9110   27.3800   34.8450 C   0  0  0  0  0  0  0  0  0  0  0  0
   37.2800   26.1110   35.0380 N   0  0  0  0  0  0  0  0  0  0  0  0
   37.7350   25.3930   33.9920 C   0  0  0  0  0  0  0  0  0  0  0  0
   37.8550   25.8620   32.7200 N   0  0  0  0  0  0  0  0  0  0  0  0
   38.3770   28.1540   29.2120 C   0  0  0  0  0  0  0  0  0  0  0  0
   37.1710   28.8620   29.3310 C   0  0  0  0  0  0  0  0  0  0  0  0
   36.6810   28.5670   30.6060 C   0  0  0  0  0  0  0  0  0  0  0  0
   37.5810   27.7270   31.1680 C   0  0  0  0  0  0  0  0  0  0  0  0
   38.5630   27.5030   30.3300 O   0  0  0  0  0  0  0  0  0  0  0  0
   39.4800   29.4220   27.3410 C   0  0  0  0  0  0  0  0  0  0  0  0
   39.1720   28.2240   28.0020 C   0  0  0  0  0  0  0  0  0  0  0  0
   39.6670   27.0450   27.4560 C   0  0  0  0  0  0  0  0  0  0  0  0
   40.4280   27.0890   26.3060 N   0  0  0  0  0  0  0  0  0  0  0  0
   40.6920   28.2750   25.7110 C   0  0  0  0  0  0  0  0  0  0  0  0
   40.2200   29.4060   26.2330 N   0  0  0  0  0  0  0  0  0  0  0  0
   38.1540   23.9690   34.1580 C   0  0  0  0  0  0  0  0  0  0  0  0
   39.6360   23.9890   34.4750 C   0  0  0  0  0  0  0  0  0  0  0  0
   39.9110   23.8980   35.8840 N   0  0  0  0  0  0  0  0  0  0  0  0
   38.8990   23.2650   36.6670 C   0  0  0  0  0  0  0  0  0  0  0  0
   39.5160   22.9610   38.0360 C   0  0  0  0  0  0  0  0  0  0  0  0
   40.4050   21.8300   37.8440 N   0  0  0  0  0  0  0  0  0  0  0  0
   41.0440   21.9080   36.5650 C   0  0  0  0  0  0  0  0  0  0  0  0
   41.2210   23.3450   36.0980 C   0  0  0  0  0  0  0  0  0  0  0  0
   36.7095   28.9465   33.3991 H   0  0  0  0  0  0  0  0  0  0  0  0
   36.5366   27.9922   35.6787 H   0  0  0  0  0  0  0  0  0  0  0  0
   36.7073   29.5144   28.5764 H   0  0  0  0  0  0  0  0  0  0  0  0
   35.7521   28.9416   31.0607 H   0  0  0  0  0  0  0  0  0  0  0  0
   39.1093   30.3783   27.7387 H   0  0  0  0  0  0  0  0  0  0  0  0
   39.4526   26.0804   27.9393 H   0  0  0  0  0  0  0  0  0  0  0  0
   41.2981   28.3054   24.7936 H   0  0  0  0  0  0  0  0  0  0  0  0
   37.5955   23.5025   34.9829 H   0  0  0  0  0  0  0  0  0  0  0  0
   37.9505   23.3864   33.2474 H   0  0  0  0  0  0  0  0  0  0  0  0
   40.1142   23.1374   33.9689 H   0  0  0  0  0  0  0  0  0  0  0  0
   40.0345   24.9522   34.1237 H   0  0  0  0  0  0  0  0  0  0  0  0
   38.0355   23.9366   36.7826 H   0  0  0  0  0  0  0  0  0  0  0  0
   38.5469   22.3428   36.1818 H   0  0  0  0  0  0  0  0  0  0  0  0
   40.0814   23.8315   38.4000 H   0  0  0  0  0  0  0  0  0  0  0  0
   38.7394   22.7351   38.7816 H   0  0  0  0  0  0  0  0  0  0  0  0
   41.1228   21.8335   38.5827 H   0  0  0  0  0  0  0  0  0  0  0  0
   42.0340   21.4334   36.6340 H   0  0  0  0  0  0  0  0  0  0  0  0
   40.4029   21.3921   35.8350 H   0  0  0  0  0  0  0  0  0  0  0  0
   41.7948   23.3663   35.1598 H   0  0  0  0  0  0  0  0  0  0  0  0
   41.7689   23.9307   36.8508 H   0  0  0  0  0  0  0  0  0  0  0  0
  1  6  1  0
  1  2  2  0
  2  3  1  0
  3  4  2  0
  5 18  1  0
  5  4  1  0
  6  5  2  0
  7  8  2  0
  7 11  1  0
  8  9  1  0
  9 10  2  0
 10  1  1  0
 11 10  1  0
 12 13  2  0
 13  7  1  0
 14 13  1  0
 15 14  2  0
 16 17  2  0
 16 15  1  0
 17 12  1  0
 18 19  1  0
 19 20  1  0
 20 25  1  0
 20 21  1  0
 21 22  1  0
 23 22  1  0
 24 23  1  0
 25 24  1  0
  2 26  1  0
  3 27  1  0
  8 28  1  0
  9 29  1  0
 12 30  1  0
 14 31  1  0
 16 32  1  0
 18 33  1  0
 18 34  1  0
 19 35  1  0
 19 36  1  0
 21 37  1  0
 21 38  1  0
 22 39  1  0
 22 40  1  0
 23 41  1  0
 24 42  1  0
 24 43  1  0
 25 44  1  0
 25 45  1  0
M  ISO  8  26  14  27  14  28  14  29  14  30  14  31  14  32  14  33   8
M  ISO  8  34   8  35   8  36   8  37  13  38  13  39  13  40  13  41   5
M  ISO  4  42  13  43  13  44  13  45  13
M  END
>  <minimizedAffinity>  (1) 
-5.15549564

>  <minimizedRMSD>  (1) 
8.66296577

$$$$
