
     RDKit          3D

 31 33  0  0  0  0  0  0  0  0999 V2000
   40.3330   23.0840   36.9160 C   0  0  0  0  0  0  0  0  0  0  0  0
   39.7130   23.8960   35.9530 C   0  0  0  0  0  0  0  0  0  0  0  0
   38.5050   24.5250   36.3210 C   0  0  0  0  0  0  0  0  0  0  0  0
   38.0080   24.3170   37.5680 N   0  0  0  0  0  0  0  0  0  0  0  0
   38.6440   23.5270   38.4550 C   0  0  0  0  0  0  0  0  0  0  0  0
   39.7980   22.9130   38.1350 N   0  0  0  0  0  0  0  0  0  0  0  0
   41.5830   22.4390   36.5180 C   0  0  0  0  0  0  0  0  0  0  0  0
   41.7960   21.1480   36.1040 C   0  0  0  0  0  0  0  0  0  0  0  0
   43.1050   20.9310   35.8230 N   0  0  0  0  0  0  0  0  0  0  0  0
   43.7810   22.0910   36.0510 C   0  0  0  0  0  0  0  0  0  0  0  0
   45.1300   22.4430   35.9310 C   0  0  0  0  0  0  0  0  0  0  0  0
   45.5190   23.7300   36.2440 C   0  0  0  0  0  0  0  0  0  0  0  0
   44.6130   24.7030   36.6800 C   0  0  0  0  0  0  0  0  0  0  0  0
   43.3060   24.2710   36.7710 C   0  0  0  0  0  0  0  0  0  0  0  0
   42.8400   23.0080   36.4760 C   0  0  0  0  0  0  0  0  0  0  0  0
   37.8180   25.3700   35.3850 N   0  0  0  0  0  0  0  0  0  0  0  0
   38.1050   26.7640   35.3800 C   0  0  0  0  0  0  0  0  0  0  0  0
   38.6270   27.3660   36.3980 N   0  0  0  0  0  0  0  0  0  0  0  0
   37.7810   27.4530   34.1830 N   0  0  0  0  0  0  0  0  0  0  0  0
   38.8580   28.3710   36.4190 H   0  0  0  0  0  0  0  0  0  0  0  0
   40.1507   24.0359   34.9536 H   0  0  0  0  0  0  0  0  0  0  0  0
   38.2132   23.3816   39.4566 H   0  0  0  0  0  0  0  0  0  0  0  0
   41.0068   20.3873   36.0119 H   0  0  0  0  0  0  0  0  0  0  0  0
   43.5154   20.0451   35.4950 H   0  0  0  0  0  0  0  0  0  0  0  0
   45.8707   21.7039   35.5917 H   0  0  0  0  0  0  0  0  0  0  0  0
   46.5808   24.0006   36.1470 H   0  0  0  0  0  0  0  0  0  0  0  0
   44.9183   25.7298   36.9301 H   0  0  0  0  0  0  0  0  0  0  0  0
   42.5630   25.0067   37.1125 H   0  0  0  0  0  0  0  0  0  0  0  0
   37.1297   24.9743   34.7289 H   0  0  0  0  0  0  0  0  0  0  0  0
   37.9606   28.4643   34.1061 H   0  0  0  0  0  0  0  0  0  0  0  0
   37.3661   26.9420   33.3908 H   0  0  0  0  0  0  0  0  0  0  0  0
  1  6  2  0
  2  3  2  0
  2  1  1  0
  3  4  1  0
  4  5  2  0
  6  5  1  0
  7  1  1  0
  8  7  2  0
  9 10  1  0
  9  8  1  0
 10 15  2  0
 11 10  1  0
 11 12  2  0
 12 13  1  0
 13 14  2  0
 15  7  1  0
 15 14  1  0
 16  3  1  0
 17 16  1  0
 17 18  2  0
 18 20  1  0
 19 17  1  0
  2 21  1  0
  5 22  1  0
  8 23  1  0
  9 24  1  0
 11 25  1  0
 12 26  1  0
 13 27  1  0
 14 28  1  0
 16 29  1  0
 19 30  1  0
 19 31  1  0
M  ISO  8  21  14  22  14  23  14  24   9  25  14  26  14  27  14  28  14
M  END
>  <minimizedAffinity>  (1) 
-5.17286921

>  <minimizedRMSD>  (1) 
1.89856184

$$$$
