
     RDKit          3D

 38 41  0  0  0  0  0  0  0  0999 V2000
   38.0790   23.9800   34.5320 N   0  0  0  0  0  0  0  0  0  0  0  0
   38.0170   23.0830   33.5440 N   0  0  0  0  0  0  0  0  0  0  0  0
   37.6950   23.6450   32.3860 C   0  0  0  0  0  0  0  0  0  0  0  0
   37.5430   24.9890   32.6620 C   0  0  0  0  0  0  0  0  0  0  0  0
   37.7870   25.1880   34.0180 C   0  0  0  0  0  0  0  0  0  0  0  0
   37.1830   25.9800   31.6440 C   0  0  0  0  0  0  0  0  0  0  0  0
   35.9840   26.3430   31.0660 C   0  0  0  0  0  0  0  0  0  0  0  0
   36.1940   27.3220   30.1680 N   0  0  0  0  0  0  0  0  0  0  0  0
   37.5250   27.6040   30.1540 C   0  0  0  0  0  0  0  0  0  0  0  0
   38.1810   28.5470   29.3740 C   0  0  0  0  0  0  0  0  0  0  0  0
   39.5290   28.6760   29.5080 C   0  0  0  0  0  0  0  0  0  0  0  0
   40.2100   27.8770   30.4050 C   0  0  0  0  0  0  0  0  0  0  0  0
   39.5370   26.9460   31.1680 C   0  0  0  0  0  0  0  0  0  0  0  0
   38.1680   26.7860   31.0600 C   0  0  0  0  0  0  0  0  0  0  0  0
   37.4730   23.9330   36.8790 C   0  0  0  0  0  0  0  0  0  0  0  0
   38.3940   23.7010   35.8730 C   0  0  0  0  0  0  0  0  0  0  0  0
   39.6590   23.1820   36.1880 C   0  0  0  0  0  0  0  0  0  0  0  0
   39.8930   22.9350   37.5170 N   0  0  0  0  0  0  0  0  0  0  0  0
   38.9920   23.1650   38.4730 C   0  0  0  0  0  0  0  0  0  0  0  0
   37.7650   23.6710   38.1510 N   0  0  0  0  0  0  0  0  0  0  0  0
   37.7280   26.4500   34.6890 N   0  0  0  0  0  0  0  0  0  0  0  0
   38.8590   27.0570   35.3220 C   0  0  0  0  0  0  0  0  0  0  0  0
   39.9990   26.8750   34.7130 N   0  0  0  0  0  0  0  0  0  0  0  0
   38.6070   27.7820   36.5310 N   0  0  0  0  0  0  0  0  0  0  0  0
   40.8160   27.3200   35.1920 H   0  0  0  0  0  0  0  0  0  0  0  0
   37.5748   23.1461   31.4130 H   0  0  0  0  0  0  0  0  0  0  0  0
   35.0057   25.8995   31.3033 H   0  0  0  0  0  0  0  0  0  0  0  0
   35.4729   27.7786   29.5914 H   0  0  0  0  0  0  0  0  0  0  0  0
   37.6236   29.1755   28.6639 H   0  0  0  0  0  0  0  0  0  0  0  0
   40.0749   29.4150   28.9032 H   0  0  0  0  0  0  0  0  0  0  0  0
   41.2995   27.9841   30.5120 H   0  0  0  0  0  0  0  0  0  0  0  0
   40.0997   26.3192   31.8755 H   0  0  0  0  0  0  0  0  0  0  0  0
   36.4837   24.3405   36.6236 H   0  0  0  0  0  0  0  0  0  0  0  0
   40.4173   22.9851   35.4159 H   0  0  0  0  0  0  0  0  0  0  0  0
   39.2376   22.9468   39.5228 H   0  0  0  0  0  0  0  0  0  0  0  0
   36.8262   26.9468   34.7180 H   0  0  0  0  0  0  0  0  0  0  0  0
   39.3842   28.2392   37.0289 H   0  0  0  0  0  0  0  0  0  0  0  0
   37.6486   27.8463   36.9027 H   0  0  0  0  0  0  0  0  0  0  0  0
  1 16  1  0
  2  1  1  0
  3  4  1  0
  3  2  2  0
  4  5  2  0
  5  1  1  0
  5 21  1  0
  6  4  1  0
  7  6  2  0
  8  7  1  0
  9  8  1  0
  9 14  2  0
 10 11  2  0
 10  9  1  0
 11 12  1  0
 12 13  2  0
 14 13  1  0
 14  6  1  0
 15 20  2  0
 16 17  2  0
 16 15  1  0
 17 18  1  0
 18 19  2  0
 20 19  1  0
 21 22  1  0
 22 24  1  0
 23 25  1  0
 23 22  2  0
  3 26  1  0
  7 27  1  0
  8 28  1  0
 10 29  1  0
 11 30  1  0
 12 31  1  0
 13 32  1  0
 15 33  1  0
 17 34  1  0
 19 35  1  0
 21 36  1  0
 24 37  1  0
 24 38  1  0
M  ISO  8  26  14  27  14  28   9  29  14  30  14  31  14  32  14  33  14
M  ISO  2  34  14  35  14
M  END
>  <minimizedAffinity>  (1) 
-6.04381609

>  <minimizedRMSD>  (1) 
0.937877595

$$$$
