
     RDKit          3D

 51 57  0  0  0  0  0  0  0  0999 V2000
   38.6500   23.1930   32.7290 C   0  0  0  0  0  0  0  0  0  0  0  0
   38.5350   21.9240   33.2840 C   0  0  0  0  0  0  0  0  0  0  0  0
   37.3410   21.1970   33.2380 C   0  0  0  0  0  0  0  0  0  0  0  0
   36.2240   21.7460   32.6240 C   0  0  0  0  0  0  0  0  0  0  0  0
   36.3150   23.0040   32.0670 C   0  0  0  0  0  0  0  0  0  0  0  0
   35.2140   23.5440   31.4630 C   0  0  0  0  0  0  0  0  0  0  0  0
   35.2420   24.7970   30.8870 C   0  0  0  0  0  0  0  0  0  0  0  0
   36.4470   25.4990   30.9400 C   0  0  0  0  0  0  0  0  0  0  0  0
   37.5360   24.9080   31.5630 C   0  0  0  0  0  0  0  0  0  0  0  0
   37.5150   23.6750   32.1390 C   0  0  0  0  0  0  0  0  0  0  0  0
   38.6000   25.8720   31.3300 C   0  0  0  0  0  0  0  0  0  0  0  0
   39.2030   26.9790   31.8890 C   0  0  0  0  0  0  0  0  0  0  0  0
   40.1690   27.4850   31.1140 N   0  0  0  0  0  0  0  0  0  0  0  0
   40.3220   26.7920   29.9740 C   0  0  0  0  0  0  0  0  0  0  0  0
   41.1320   26.8930   28.8990 C   0  0  0  0  0  0  0  0  0  0  0  0
   41.0160   25.9840   27.8760 C   0  0  0  0  0  0  0  0  0  0  0  0
   40.0930   24.9830   27.9360 C   0  0  0  0  0  0  0  0  0  0  0  0
   39.2860   24.9010   29.0310 C   0  0  0  0  0  0  0  0  0  0  0  0
   39.3460   25.7920   30.1130 C   0  0  0  0  0  0  0  0  0  0  0  0
   39.8860   23.9140   32.8100 C   0  0  0  0  0  0  0  0  0  0  0  0
   40.2010   24.7880   33.8720 C   0  0  0  0  0  0  0  0  0  0  0  0
   41.4460   25.4330   33.8440 C   0  0  0  0  0  0  0  0  0  0  0  0
   42.2960   25.1880   32.8010 N   0  0  0  0  0  0  0  0  0  0  0  0
   41.9670   24.3420   31.8010 C   0  0  0  0  0  0  0  0  0  0  0  0
   40.7970   23.7390   31.8280 N   0  0  0  0  0  0  0  0  0  0  0  0
   39.3090   24.9580   34.9150 N   0  0  0  0  0  0  0  0  0  0  0  0
   38.3130   25.8470   34.9740 C   0  0  0  0  0  0  0  0  0  0  0  0
   37.6230   25.7580   36.1330 N   0  0  0  0  0  0  0  0  0  0  0  0
   38.2100   24.7610   36.8460 C   0  0  0  0  0  0  0  0  0  0  0  0
   37.9560   24.2160   38.0730 C   0  0  0  0  0  0  0  0  0  0  0  0
   38.6820   23.2030   38.5960 N   0  0  0  0  0  0  0  0  0  0  0  0
   39.6950   22.7500   37.8150 C   0  0  0  0  0  0  0  0  0  0  0  0
   39.9260   23.2920   36.6300 N   0  0  0  0  0  0  0  0  0  0  0  0
   39.2430   24.2870   36.0740 C   0  0  0  0  0  0  0  0  0  0  0  0
   39.4116   21.4768   33.7755 H   0  0  0  0  0  0  0  0  0  0  0  0
   37.2875   20.1941   33.6867 H   0  0  0  0  0  0  0  0  0  0  0  0
   35.2787   21.1850   32.5823 H   0  0  0  0  0  0  0  0  0  0  0  0
   34.2801   22.9634   31.4356 H   0  0  0  0  0  0  0  0  0  0  0  0
   34.3507   25.2255   30.4054 H   0  0  0  0  0  0  0  0  0  0  0  0
   36.5314   26.5019   30.4961 H   0  0  0  0  0  0  0  0  0  0  0  0
   38.9207   27.3999   32.8653 H   0  0  0  0  0  0  0  0  0  0  0  0
   40.7310   28.3114   31.3632 H   0  0  0  0  0  0  0  0  0  0  0  0
   41.8798   27.6977   28.8427 H   0  0  0  0  0  0  0  0  0  0  0  0
   41.6750   26.0647   26.9990 H   0  0  0  0  0  0  0  0  0  0  0  0
   40.0012   24.2553   27.1163 H   0  0  0  0  0  0  0  0  0  0  0  0
   38.5446   24.0892   29.0687 H   0  0  0  0  0  0  0  0  0  0  0  0
   41.7344   26.1254   34.6486 H   0  0  0  0  0  0  0  0  0  0  0  0
   42.6684   24.1589   30.9736 H   0  0  0  0  0  0  0  0  0  0  0  0
   38.0820   26.5660   34.1742 H   0  0  0  0  0  0  0  0  0  0  0  0
   37.1208   24.6210   38.6633 H   0  0  0  0  0  0  0  0  0  0  0  0
   40.3299   21.9249   38.1701 H   0  0  0  0  0  0  0  0  0  0  0  0
  1 20  1  0
  1  2  2  0
  3  2  1  0
  4  3  2  0
  5 10  2  0
  5  4  1  0
  6  5  1  0
  7  8  1  0
  7  6  2  0
  8  9  2  0
  9 10  1  0
 10  1  1  0
 11  9  1  0
 11 12  2  0
 13 12  1  0
 14 19  2  0
 14 13  1  0
 15 14  1  0
 16 17  1  0
 16 15  2  0
 17 18  2  0
 18 19  1  0
 19 11  1  0
 20 21  1  0
 21 26  1  0
 22 21  2  0
 23 22  1  0
 24 25  1  0
 24 23  2  0
 25 20  2  0
 26 27  1  0
 26 34  1  0
 27 28  2  0
 28 29  1  0
 29 30  2  0
 30 31  1  0
 32 31  2  0
 33 32  1  0
 34 33  2  0
 34 29  1  0
  2 35  1  0
  3 36  1  0
  4 37  1  0
  6 38  1  0
  7 39  1  0
  8 40  1  0
 12 41  1  0
 13 42  1  0
 15 43  1  0
 16 44  1  0
 17 45  1  0
 18 46  1  0
 22 47  1  0
 24 48  1  0
 27 49  1  0
 30 50  1  0
 32 51  1  0
M  ISO  8  35  14  36  14  37  14  38  14  39  14  40  14  41  14  42   9
M  ISO  8  43  14  44  14  45  14  46  14  47  14  48  14  49  14  50  14
M  ISO  1  51  14
M  END
>  <minimizedAffinity>  (1) 
-6.16527939

>  <minimizedRMSD>  (1) 
1.91243207

$$$$
