
     RDKit          3D

 39 42  0  0  1  0  0  0  0  0999 V2000
   37.7450   22.9010   32.2150 N   0  0  0  0  0  0  0  0  0  0  0  0
   37.1660   22.3750   30.9940 C   0  0  0  0  0  0  0  0  0  0  0  0
   37.3440   20.8740   31.1230 C   0  0  0  0  0  0  0  0  0  0  0  0
   37.9030   20.6680   32.5430 C   0  0  0  0  0  0  0  0  0  0  0  0
   37.3340   21.9510   33.1760 C   0  0  1  0  0  0  0  0  0  0  0  0
   37.8260   22.0440   34.5500 C   0  0  0  0  0  0  0  0  0  0  0  0
   37.3380   22.0680   35.8330 C   0  0  0  0  0  0  0  0  0  0  0  0
   38.2650   22.2090   36.7920 N   0  0  0  0  0  0  0  0  0  0  0  0
   39.4230   22.2860   36.1570 C   0  0  0  0  0  0  0  0  0  0  0  0
   40.6800   22.4370   36.7070 C   0  0  0  0  0  0  0  0  0  0  0  0
   41.7810   22.4980   35.8820 C   0  0  0  0  0  0  0  0  0  0  0  0
   41.6060   22.4060   34.5200 C   0  0  0  0  0  0  0  0  0  0  0  0
   40.3440   22.2570   33.9970 C   0  0  0  0  0  0  0  0  0  0  0  0
   39.2030   22.1900   34.8010 C   0  0  0  0  0  0  0  0  0  0  0  0
   37.1150   24.1650   32.5740 C   0  0  0  0  0  0  0  0  0  0  0  0
   40.1000   26.3070   31.7220 C   0  0  0  0  0  0  0  0  0  0  0  0
   39.3270   25.1910   32.0620 C   0  0  0  0  0  0  0  0  0  0  0  0
   37.9530   25.3280   32.2120 C   0  0  0  0  0  0  0  0  0  0  0  0
   37.4200   26.5750   32.0120 N   0  0  0  0  0  0  0  0  0  0  0  0
   38.1780   27.6380   31.6840 C   0  0  0  0  0  0  0  0  0  0  0  0
   39.5200   27.4910   31.5420 N   0  0  0  0  0  0  0  0  0  0  0  0
   37.6992   22.7579   30.1114 H   0  0  0  0  0  0  0  0  0  0  0  0
   36.1138   22.6677   30.8630 H   0  0  0  0  0  0  0  0  0  0  0  0
   36.3798   20.3575   31.0068 H   0  0  0  0  0  0  0  0  0  0  0  0
   38.0111   20.4657   30.3495 H   0  0  0  0  0  0  0  0  0  0  0  0
   37.5102   19.7574   33.0189 H   0  0  0  0  0  0  0  0  0  0  0  0
   38.9914   20.5289   32.6213 H   0  0  0  0  0  0  0  0  0  0  0  0
   36.2516   22.0564   33.3410 H   0  0  0  0  0  0  0  0  0  0  0  0
   36.2650   21.9781   36.0580 H   0  0  0  0  0  0  0  0  0  0  0  0
   38.1082   22.2489   37.8092 H   0  0  0  0  0  0  0  0  0  0  0  0
   40.8016   22.5082   37.7979 H   0  0  0  0  0  0  0  0  0  0  0  0
   42.7885   22.6188   36.3067 H   0  0  0  0  0  0  0  0  0  0  0  0
   42.4769   22.4518   33.8496 H   0  0  0  0  0  0  0  0  0  0  0  0
   40.2277   22.1879   32.9054 H   0  0  0  0  0  0  0  0  0  0  0  0
   36.1527   24.2437   32.0469 H   0  0  0  0  0  0  0  0  0  0  0  0
   36.9752   24.1754   33.6650 H   0  0  0  0  0  0  0  0  0  0  0  0
   41.1888   26.2052   31.6034 H   0  0  0  0  0  0  0  0  0  0  0  0
   39.8047   24.2112   32.2096 H   0  0  0  0  0  0  0  0  0  0  0  0
   37.7115   28.6224   31.5316 H   0  0  0  0  0  0  0  0  0  0  0  0
  1 15  1  0
  1  5  1  0
  2  3  1  0
  2  1  1  0
  3  4  1  0
  4  5  1  0
  5  6  1  0
  6 14  1  0
  6  7  2  0
  7  8  1  0
  9 10  2  0
  9  8  1  0
 11 10  1  0
 12 11  2  0
 13 12  1  0
 13 14  2  0
 14  9  1  0
 16 17  2  0
 17 18  1  0
 18 15  1  0
 19 18  2  0
 20 19  1  0
 21 20  2  0
 21 16  1  0
  2 22  1  0
  2 23  1  0
  3 24  1  0
  3 25  1  0
  4 26  1  0
  4 27  1  0
  5 28  1  1
  7 29  1  0
  8 30  1  0
 10 31  1  0
 11 32  1  0
 12 33  1  0
 13 34  1  0
 15 35  1  0
 15 36  1  0
 16 37  1  0
 17 38  1  0
 20 39  1  0
M  ISO  8  22  13  23  13  24  13  25  13  26  13  27  13  28  13  29  14
M  ISO  8  30   9  31  14  32  14  33  14  34  14  35   8  36   8  37  14
M  ISO  2  38  14  39  14
M  END
>  <minimizedAffinity>  (1) 
-4.15404224

>  <minimizedRMSD>  (1) 
6.56165504

$$$$
