
     RDKit          3D

 32 35  0  0  0  0  0  0  0  0999 V2000
   40.1050   22.2900   34.6590 C   0  0  0  0  0  0  0  0  0  0  0  0
   39.7120   21.7950   33.4090 C   0  0  0  0  0  0  0  0  0  0  0  0
   40.6160   21.0330   32.6730 C   0  0  0  0  0  0  0  0  0  0  0  0
   41.8430   20.8160   33.2260 N   0  0  0  0  0  0  0  0  0  0  0  0
   42.2040   21.2950   34.4230 C   0  0  0  0  0  0  0  0  0  0  0  0
   41.3270   22.0230   35.1150 N   0  0  0  0  0  0  0  0  0  0  0  0
   39.2060   23.1100   35.5060 C   0  0  0  0  0  0  0  0  0  0  0  0
   38.3530   22.4220   36.3440 C   0  0  0  0  0  0  0  0  0  0  0  0
   37.4530   23.0790   37.1840 C   0  0  0  0  0  0  0  0  0  0  0  0
   37.4680   24.4600   37.1250 C   0  0  0  0  0  0  0  0  0  0  0  0
   38.3070   25.1760   36.2980 C   0  0  0  0  0  0  0  0  0  0  0  0
   38.3300   26.5530   36.2340 C   0  0  0  0  0  0  0  0  0  0  0  0
   39.1880   27.2460   35.3930 C   0  0  0  0  0  0  0  0  0  0  0  0
   40.0640   26.5380   34.5770 C   0  0  0  0  0  0  0  0  0  0  0  0
   40.0410   25.1560   34.6430 C   0  0  0  0  0  0  0  0  0  0  0  0
   39.1830   24.4890   35.4840 C   0  0  0  0  0  0  0  0  0  0  0  0
   38.3930   22.1080   32.9760 N   0  0  0  0  0  0  0  0  0  0  0  0
   37.8610   23.1840   32.3430 C   0  0  0  0  0  0  0  0  0  0  0  0
   36.5300   22.9660   32.1620 N   0  0  0  0  0  0  0  0  0  0  0  0
   36.2450   21.7520   32.6870 C   0  0  0  0  0  0  0  0  0  0  0  0
   37.4090   21.2310   33.1880 N   0  0  0  0  0  0  0  0  0  0  0  0
   40.3511   20.6235   31.6870 H   0  0  0  0  0  0  0  0  0  0  0  0
   43.2062   21.0916   34.8283 H   0  0  0  0  0  0  0  0  0  0  0  0
   38.3832   21.3224   36.3502 H   0  0  0  0  0  0  0  0  0  0  0  0
   36.7728   22.5311   37.8527 H   0  0  0  0  0  0  0  0  0  0  0  0
   36.7741   25.0168   37.7719 H   0  0  0  0  0  0  0  0  0  0  0  0
   37.6415   27.1239   36.8744 H   0  0  0  0  0  0  0  0  0  0  0  0
   39.1758   28.3457   35.3716 H   0  0  0  0  0  0  0  0  0  0  0  0
   40.7546   27.0612   33.8993 H   0  0  0  0  0  0  0  0  0  0  0  0
   40.7264   24.5771   34.0066 H   0  0  0  0  0  0  0  0  0  0  0  0
   38.4132   24.0820   32.0288 H   0  0  0  0  0  0  0  0  0  0  0  0
   35.2565   21.2699   32.7079 H   0  0  0  0  0  0  0  0  0  0  0  0
  1  6  1  0
  1  7  1  0
  2  1  2  0
  3  4  2  0
  3  2  1  0
  4  5  1  0
  5  6  2  0
  7  8  2  0
  8  9  1  0
 10  9  2  0
 11 10  1  0
 12 11  2  0
 13 12  1  0
 14 15  1  0
 14 13  2  0
 15 16  2  0
 16  7  1  0
 16 11  1  0
 17 21  1  0
 17  2  1  0
 18 17  1  0
 19 18  2  0
 19 20  1  0
 20 21  2  0
  3 22  1  0
  5 23  1  0
  8 24  1  0
  9 25  1  0
 10 26  1  0
 12 27  1  0
 13 28  1  0
 14 29  1  0
 15 30  1  0
 18 31  1  0
 20 32  1  0
M  ISO  8  22  14  23  14  24  14  25  14  26  14  27  14  28  14  29  14
M  ISO  3  30  14  31  14  32  14
M  END
>  <minimizedAffinity>  (1) 
-4.88079357

>  <minimizedRMSD>  (1) 
4.12194681

$$$$
