
     RDKit          3D

 49 53  0  0  1  0  0  0  0  0999 V2000
   37.8350   25.6070   34.3990 N   0  0  0  0  0  0  0  0  0  0  0  0
   37.1030   25.4600   33.1570 C   0  0  0  0  0  0  0  0  0  0  0  0
   36.8390   26.8490   32.6830 C   0  0  0  0  0  0  0  0  0  0  0  0
   37.5060   27.7320   33.7250 C   0  0  0  0  0  0  0  0  0  0  0  0
   38.6370   26.7650   34.1830 C   0  0  2  0  0  0  0  0  0  0  0  0
   38.7240   24.5030   34.6220 C   0  0  0  0  0  0  0  0  0  0  0  0
   37.9510   24.2750   38.3260 C   0  0  0  0  0  0  0  0  0  0  0  0
   37.8710   24.6880   36.9980 C   0  0  0  0  0  0  0  0  0  0  0  0
   38.7550   24.1100   36.0680 C   0  0  0  0  0  0  0  0  0  0  0  0
   39.6390   23.1800   36.5280 N   0  0  0  0  0  0  0  0  0  0  0  0
   39.6710   22.8210   37.8250 C   0  0  0  0  0  0  0  0  0  0  0  0
   38.8260   23.3720   38.7130 N   0  0  0  0  0  0  0  0  0  0  0  0
   39.5810   26.5890   33.2150 O   0  0  0  0  0  0  0  0  0  0  0  0
   40.8380   27.0220   33.5570 C   0  0  2  0  0  0  0  0  0  0  0  0
   41.6490   27.6060   32.4310 C   0  0  0  0  0  0  0  0  0  0  0  0
   42.0590   26.3060   33.0600 C   0  0  1  0  0  0  0  0  0  0  0  0
   43.2310   26.3520   33.9180 C   0  0  0  0  0  0  0  0  0  0  0  0
   44.1520   27.3790   33.9220 C   0  0  0  0  0  0  0  0  0  0  0  0
   45.2580   27.4430   34.7530 C   0  0  0  0  0  0  0  0  0  0  0  0
   45.5060   26.4380   35.6590 C   0  0  0  0  0  0  0  0  0  0  0  0
   44.6170   25.3850   35.6960 C   0  0  0  0  0  0  0  0  0  0  0  0
   44.9010   24.3870   36.6030 C   0  0  0  0  0  0  0  0  0  0  0  0
   44.0740   23.2900   36.6980 C   0  0  0  0  0  0  0  0  0  0  0  0
   42.9840   23.2550   35.8580 C   0  0  0  0  0  0  0  0  0  0  0  0
   42.7270   24.2690   34.9620 C   0  0  0  0  0  0  0  0  0  0  0  0
   43.5220   25.3700   34.8400 C   0  0  0  0  0  0  0  0  0  0  0  0
   37.7050   24.9099   32.4188 H   0  0  0  0  0  0  0  0  0  0  0  0
   36.1710   24.8928   33.2974 H   0  0  0  0  0  0  0  0  0  0  0  0
   37.2833   27.0134   31.6902 H   0  0  0  0  0  0  0  0  0  0  0  0
   35.7648   27.0608   32.5767 H   0  0  0  0  0  0  0  0  0  0  0  0
   37.9080   28.6565   33.2848 H   0  0  0  0  0  0  0  0  0  0  0  0
   36.8458   28.0976   34.5253 H   0  0  0  0  0  0  0  0  0  0  0  0
   39.2399   27.0888   35.0442 H   0  0  0  0  0  0  0  0  0  0  0  0
   38.3847   23.6439   34.0247 H   0  0  0  0  0  0  0  0  0  0  0  0
   39.7378   24.8090   34.3244 H   0  0  0  0  0  0  0  0  0  0  0  0
   37.2673   24.7137   39.0677 H   0  0  0  0  0  0  0  0  0  0  0  0
   37.1370   25.4451   36.6849 H   0  0  0  0  0  0  0  0  0  0  0  0
   40.3978   22.0673   38.1622 H   0  0  0  0  0  0  0  0  0  0  0  0
   40.5079   27.3279   34.5607 H   0  0  0  0  0  0  0  0  0  0  0  0
   42.2501   28.5120   32.5979 H   0  0  0  0  0  0  0  0  0  0  0  0
   41.4306   27.9404   31.4061 H   0  0  0  0  0  0  0  0  0  0  0  0
   42.2660   25.2914   32.6890 H   0  0  0  0  0  0  0  0  0  0  0  0
   43.9967   28.2066   33.2142 H   0  0  0  0  0  0  0  0  0  0  0  0
   45.9419   28.3021   34.6882 H   0  0  0  0  0  0  0  0  0  0  0  0
   46.3790   26.4732   36.3274 H   0  0  0  0  0  0  0  0  0  0  0  0
   45.7870   24.4666   37.2501 H   0  0  0  0  0  0  0  0  0  0  0  0
   44.2753   22.4785   37.4128 H   0  0  0  0  0  0  0  0  0  0  0  0
   42.3002   22.3945   35.9035 H   0  0  0  0  0  0  0  0  0  0  0  0
   41.8406   24.1869   34.3158 H   0  0  0  0  0  0  0  0  0  0  0  0
  1  6  1  0
  2  1  1  0
  3  2  1  0
  3  4  1  0
  4  5  1  0
  5  1  1  0
  6  9  1  0
  7 12  2  0
  8  7  1  0
  9 10  1  0
  9  8  2  0
 10 11  2  0
 11 12  1  0
 13 14  1  0
 13  5  1  0
 15 16  1  0
 15 14  1  0
 16 14  1  0
 16 17  1  0
 17 18  2  0
 17 26  1  0
 18 19  1  0
 19 20  2  0
 20 21  1  0
 21 22  2  0
 22 23  1  0
 24 23  2  0
 25 24  1  0
 26 25  2  0
 26 21  1  0
  2 27  1  0
  2 28  1  0
  3 29  1  0
  3 30  1  0
  4 31  1  0
  4 32  1  0
  5 33  1  1
  6 34  1  0
  6 35  1  0
  7 36  1  0
  8 37  1  0
 11 38  1  0
 14 39  1  1
 15 40  1  0
 15 41  1  0
 16 42  1  6
 18 43  1  0
 19 44  1  0
 20 45  1  0
 22 46  1  0
 23 47  1  0
 24 48  1  0
 25 49  1  0
M  ISO  8  27  13  28  13  29  13  30  13  31  13  32  13  33  13  34   8
M  ISO  8  35   8  36  14  37  14  38  14  39  13  40  13  41  13  42  13
M  ISO  7  43  14  44  14  45  14  46  14  47  14  48  14  49  14
M  END
>  <minimizedAffinity>  (1) 
-5.36529636

>  <minimizedRMSD>  (1) 
1.47261381

$$$$
