
     RDKit          3D

 53 59  0  0  0  0  0  0  0  0999 V2000
   38.6740   23.0480   32.7690 C   0  0  0  0  0  0  0  0  0  0  0  0
   38.4910   21.8060   33.3630 C   0  0  0  0  0  0  0  0  0  0  0  0
   37.2670   21.1310   33.3290 C   0  0  0  0  0  0  0  0  0  0  0  0
   36.1810   21.7100   32.6800 C   0  0  0  0  0  0  0  0  0  0  0  0
   36.3400   22.9450   32.0810 C   0  0  0  0  0  0  0  0  0  0  0  0
   35.2740   23.5150   31.4450 C   0  0  0  0  0  0  0  0  0  0  0  0
   35.3700   24.7440   30.8240 C   0  0  0  0  0  0  0  0  0  0  0  0
   36.6120   25.3920   30.8680 C   0  0  0  0  0  0  0  0  0  0  0  0
   37.6560   24.7650   31.5280 C   0  0  0  0  0  0  0  0  0  0  0  0
   37.5700   23.5580   32.1470 C   0  0  0  0  0  0  0  0  0  0  0  0
   38.7650   25.6540   31.2430 C   0  0  0  0  0  0  0  0  0  0  0  0
   39.3490   26.7510   31.8170 C   0  0  0  0  0  0  0  0  0  0  0  0
   40.3880   27.4890   31.3300 C   0  0  0  0  0  0  0  0  0  0  0  0
   40.9510   27.1340   30.1270 C   0  0  0  0  0  0  0  0  0  0  0  0
   40.4550   26.0480   29.4460 C   0  0  0  0  0  0  0  0  0  0  0  0
   41.0410   25.7310   28.2580 C   0  0  0  0  0  0  0  0  0  0  0  0
   40.5690   24.6510   27.5510 C   0  0  0  0  0  0  0  0  0  0  0  0
   39.5280   23.8970   28.0200 C   0  0  0  0  0  0  0  0  0  0  0  0
   38.9880   24.2670   29.2110 C   0  0  0  0  0  0  0  0  0  0  0  0
   39.4020   25.3470   29.9970 C   0  0  0  0  0  0  0  0  0  0  0  0
   39.9390   23.7130   32.8430 C   0  0  0  0  0  0  0  0  0  0  0  0
   40.2820   24.6080   33.8790 C   0  0  0  0  0  0  0  0  0  0  0  0
   41.5560   25.1950   33.8530 C   0  0  0  0  0  0  0  0  0  0  0  0
   42.4090   24.8730   32.8320 N   0  0  0  0  0  0  0  0  0  0  0  0
   42.0530   24.0080   31.8580 C   0  0  0  0  0  0  0  0  0  0  0  0
   40.8570   23.4610   31.8840 N   0  0  0  0  0  0  0  0  0  0  0  0
   39.3850   24.8510   34.9070 N   0  0  0  0  0  0  0  0  0  0  0  0
   38.4270   25.7810   34.9230 C   0  0  0  0  0  0  0  0  0  0  0  0
   37.7200   25.7610   36.0710 N   0  0  0  0  0  0  0  0  0  0  0  0
   38.2560   24.7640   36.8280 C   0  0  0  0  0  0  0  0  0  0  0  0
   37.9700   24.2690   38.0720 C   0  0  0  0  0  0  0  0  0  0  0  0
   38.6460   23.2500   38.6390 N   0  0  0  0  0  0  0  0  0  0  0  0
   39.6490   22.7300   37.8910 C   0  0  0  0  0  0  0  0  0  0  0  0
   39.9110   23.2240   36.6850 N   0  0  0  0  0  0  0  0  0  0  0  0
   39.2790   24.2200   36.0870 C   0  0  0  0  0  0  0  0  0  0  0  0
   39.3408   21.3358   33.8795 H   0  0  0  0  0  0  0  0  0  0  0  0
   37.1633   20.1483   33.8123 H   0  0  0  0  0  0  0  0  0  0  0  0
   35.2109   21.1926   32.6443 H   0  0  0  0  0  0  0  0  0  0  0  0
   34.3130   22.9801   31.4272 H   0  0  0  0  0  0  0  0  0  0  0  0
   34.5063   25.1967   30.3150 H   0  0  0  0  0  0  0  0  0  0  0  0
   36.7540   26.3729   30.3909 H   0  0  0  0  0  0  0  0  0  0  0  0
   38.9325   27.0748   32.7822 H   0  0  0  0  0  0  0  0  0  0  0  0
   40.7694   28.3548   31.8912 H   0  0  0  0  0  0  0  0  0  0  0  0
   41.7899   27.7132   29.7137 H   0  0  0  0  0  0  0  0  0  0  0  0
   41.8785   26.3297   27.8706 H   0  0  0  0  0  0  0  0  0  0  0  0
   41.0366   24.3880   26.5907 H   0  0  0  0  0  0  0  0  0  0  0  0
   39.1459   23.0314   27.4590 H   0  0  0  0  0  0  0  0  0  0  0  0
   38.1506   23.6631   29.5906 H   0  0  0  0  0  0  0  0  0  0  0  0
   41.8637   25.9009   34.6385 H   0  0  0  0  0  0  0  0  0  0  0  0
   42.7574   23.7628   31.0495 H   0  0  0  0  0  0  0  0  0  0  0  0
   38.2368   26.4814   34.0964 H   0  0  0  0  0  0  0  0  0  0  0  0
   37.1455   24.7268   38.6383 H   0  0  0  0  0  0  0  0  0  0  0  0
   40.2489   21.8956   38.2833 H   0  0  0  0  0  0  0  0  0  0  0  0
  1 21  1  0
  1  2  2  0
  3  2  1  0
  4  3  2  0
  5 10  2  0
  5  4  1  0
  6  5  1  0
  7  8  1  0
  7  6  2  0
  8  9  2  0
  9 10  1  0
 10  1  1  0
 11  9  1  0
 11 12  2  0
 13 12  1  0
 14 13  2  0
 15 20  2  0
 15 14  1  0
 16 15  1  0
 17 18  1  0
 17 16  2  0
 18 19  2  0
 19 20  1  0
 20 11  1  0
 21 22  1  0
 22 27  1  0
 23 22  2  0
 24 23  1  0
 25 26  1  0
 25 24  2  0
 26 21  2  0
 27 28  1  0
 27 35  1  0
 28 29  2  0
 29 30  1  0
 30 31  2  0
 31 32  1  0
 33 32  2  0
 34 33  1  0
 35 34  2  0
 35 30  1  0
  2 36  1  0
  3 37  1  0
  4 38  1  0
  6 39  1  0
  7 40  1  0
  8 41  1  0
 12 42  1  0
 13 43  1  0
 14 44  1  0
 16 45  1  0
 17 46  1  0
 18 47  1  0
 19 48  1  0
 23 49  1  0
 25 50  1  0
 28 51  1  0
 31 52  1  0
 33 53  1  0
M  ISO  8  36  14  37  14  38  14  39  14  40  14  41  14  42  14  43  14
M  ISO  8  44  14  45  14  46  14  47  14  48  14  49  14  50  14  51  14
M  ISO  2  52  14  53  14
M  END
>  <minimizedAffinity>  (1) 
-6.40047455

>  <minimizedRMSD>  (1) 
2.14510155

$$$$
