
     RDKit          3D

 49 53  0  0  1  0  0  0  0  0999 V2000
   37.3290   26.1510   32.8350 N   0  0  0  0  0  0  0  0  0  0  0  0
   36.9060   25.1840   32.0190 C   0  0  0  0  0  0  0  0  0  0  0  0
   35.8360   25.5350   31.2300 C   0  0  0  0  0  0  0  0  0  0  0  0
   35.5770   26.7910   31.5710 N   0  0  0  0  0  0  0  0  0  0  0  0
   36.4730   27.1700   32.5380 C   0  0  0  0  0  0  0  0  0  0  0  0
   36.4150   28.5850   33.0950 C   0  0  1  0  0  0  0  0  0  0  0  0
   35.4310   29.4860   32.4570 C   0  0  0  0  0  0  0  0  0  0  0  0
   35.1490   28.9390   33.8480 C   0  0  2  0  0  0  0  0  0  0  0  0
   35.0910   30.0630   34.8140 C   0  0  0  0  0  0  0  0  0  0  0  0
   36.0750   30.9160   35.1820 C   0  0  0  0  0  0  0  0  0  0  0  0
   35.9860   31.9750   36.0530 C   0  0  0  0  0  0  0  0  0  0  0  0
   34.7610   32.2200   36.6360 C   0  0  0  0  0  0  0  0  0  0  0  0
   33.7010   31.4010   36.3210 C   0  0  0  0  0  0  0  0  0  0  0  0
   32.5180   31.7150   36.9530 C   0  0  0  0  0  0  0  0  0  0  0  0
   31.4130   30.9340   36.6920 C   0  0  0  0  0  0  0  0  0  0  0  0
   31.5080   29.8730   35.8170 C   0  0  0  0  0  0  0  0  0  0  0  0
   32.7260   29.6250   35.2270 C   0  0  0  0  0  0  0  0  0  0  0  0
   33.8720   30.3580   35.4360 C   0  0  0  0  0  0  0  0  0  0  0  0
   38.3440   26.2710   33.8050 C   0  0  0  0  0  0  0  0  0  0  0  0
   37.8520   26.1370   35.1980 C   0  0  1  0  0  0  0  0  0  0  0  0
   38.5010   23.4560   37.7880 C   0  0  0  0  0  0  0  0  0  0  0  0
   37.9470   24.6140   37.2220 C   0  0  0  0  0  0  0  0  0  0  0  0
   38.3910   24.9450   35.8910 C   0  0  0  0  0  0  0  0  0  0  0  0
   39.3140   24.1320   35.2530 N   0  0  0  0  0  0  0  0  0  0  0  0
   39.8010   23.0430   35.8500 C   0  0  0  0  0  0  0  0  0  0  0  0
   39.3880   22.7050   37.1320 N   0  0  0  0  0  0  0  0  0  0  0  0
   38.1820   27.3940   35.9900 C   0  0  0  0  0  0  0  0  0  0  0  0
   37.3740   24.1893   31.9806 H   0  0  0  0  0  0  0  0  0  0  0  0
   35.3138   24.9158   30.4858 H   0  0  0  0  0  0  0  0  0  0  0  0
   37.4907   28.6489   33.3159 H   0  0  0  0  0  0  0  0  0  0  0  0
   35.6687   30.5519   32.3249 H   0  0  0  0  0  0  0  0  0  0  0  0
   34.8878   29.4859   31.5005 H   0  0  0  0  0  0  0  0  0  0  0  0
   34.4403   28.3012   34.3967 H   0  0  0  0  0  0  0  0  0  0  0  0
   37.0627   30.7409   34.7306 H   0  0  0  0  0  0  0  0  0  0  0  0
   36.8601   32.6042   36.2769 H   0  0  0  0  0  0  0  0  0  0  0  0
   34.6332   33.0552   37.3404 H   0  0  0  0  0  0  0  0  0  0  0  0
   32.4570   32.5661   37.6472 H   0  0  0  0  0  0  0  0  0  0  0  0
   30.4541   31.1575   37.1824 H   0  0  0  0  0  0  0  0  0  0  0  0
   30.6343   29.2421   35.5966 H   0  0  0  0  0  0  0  0  0  0  0  0
   32.7888   28.7735   34.5334 H   0  0  0  0  0  0  0  0  0  0  0  0
   39.0931   25.4862   33.6236 H   0  0  0  0  0  0  0  0  0  0  0  0
   38.7660   27.2821   33.7074 H   0  0  0  0  0  0  0  0  0  0  0  0
   36.7616   26.0043   35.1389 H   0  0  0  0  0  0  0  0  0  0  0  0
   38.1954   23.1584   38.8019 H   0  0  0  0  0  0  0  0  0  0  0  0
   37.2162   25.2335   37.7625 H   0  0  0  0  0  0  0  0  0  0  0  0
   40.5321   22.4107   35.3250 H   0  0  0  0  0  0  0  0  0  0  0  0
   38.1245   27.1748   37.0664 H   0  0  0  0  0  0  0  0  0  0  0  0
   39.1987   27.7298   35.7380 H   0  0  0  0  0  0  0  0  0  0  0  0
   37.4613   28.1859   35.7380 H   0  0  0  0  0  0  0  0  0  0  0  0
  1 19  1  0
  2  1  1  0
  3  4  1  0
  3  2  2  0
  4  5  2  0
  5  1  1  0
  5  6  1  0
  6  8  1  0
  7  6  1  0
  7  8  1  0
  8  9  1  0
  9 10  2  0
  9 18  1  0
 10 11  1  0
 11 12  2  0
 13 12  1  0
 13 14  2  0
 15 14  1  0
 16 15  2  0
 17 18  2  0
 17 16  1  0
 18 13  1  0
 19 20  1  0
 20 23  1  0
 20 27  1  0
 22 21  2  0
 23 22  1  0
 24 25  1  0
 24 23  2  0
 25 26  2  0
 26 21  1  0
  2 28  1  0
  3 29  1  0
  6 30  1  1
  7 31  1  0
  7 32  1  0
  8 33  1  6
 10 34  1  0
 11 35  1  0
 12 36  1  0
 14 37  1  0
 15 38  1  0
 16 39  1  0
 17 40  1  0
 19 41  1  0
 19 42  1  0
 20 43  1  6
 21 44  1  0
 22 45  1  0
 25 46  1  0
 27 47  1  0
 27 48  1  0
 27 49  1  0
M  ISO  8  28  14  29  14  30  13  31  13  32  13  33  13  34  14  35  14
M  ISO  8  36  14  37  14  38  14  39  14  40  14  41   8  42   8  43   8
M  ISO  6  44  14  45  14  46  14  47   8  48   8  49   8
M  END
>  <minimizedAffinity>  (1) 
-6.77089214

>  <minimizedRMSD>  (1) 
1.30406272

$$$$
