
     RDKit          3D

 36 38  0  0  1  0  0  0  0  0999 V2000
   41.7920   23.1920   35.0330 C   0  0  0  0  0  0  0  0  0  0  0  0
   42.8180   24.1450   35.6670 C   0  0  2  0  0  0  0  0  0  0  0  0
   43.6190   24.9310   34.6800 C   0  0  0  0  0  0  0  0  0  0  0  0
   44.2340   23.9450   35.6280 C   0  0  1  0  0  0  0  0  0  0  0  0
   44.9510   24.5510   36.8300 C   0  0  0  0  0  0  0  0  0  0  0  0
   44.2750   25.4000   37.6790 C   0  0  0  0  0  0  0  0  0  0  0  0
   44.8330   25.9850   38.7930 C   0  0  0  0  0  0  0  0  0  0  0  0
   46.1510   25.7070   39.0830 C   0  0  0  0  0  0  0  0  0  0  0  0
   46.8760   24.8650   38.2690 C   0  0  0  0  0  0  0  0  0  0  0  0
   46.2740   24.3160   37.1810 C   0  0  0  0  0  0  0  0  0  0  0  0
   40.6920   23.9850   34.5200 C   0  0  0  0  0  0  0  0  0  0  0  0
   37.9190   25.1780   36.4470 C   0  0  0  0  0  0  0  0  0  0  0  0
   39.0470   25.2610   35.5840 C   0  0  0  0  0  0  0  0  0  0  0  0
   39.5800   24.0500   35.3880 C   0  0  0  0  0  0  0  0  0  0  0  0
   39.0640   22.8960   35.9750 N   0  0  0  0  0  0  0  0  0  0  0  0
   38.0140   22.8980   36.7650 C   0  0  0  0  0  0  0  0  0  0  0  0
   37.4350   24.0550   37.0040 N   0  0  0  0  0  0  0  0  0  0  0  0
   39.3580   26.5650   35.1160 C   0  0  0  0  0  0  0  0  0  0  0  0
   40.7360   26.8660   35.2630 F   0  0  0  0  0  0  0  0  0  0  0  0
   39.0380   27.6690   35.8190 F   0  0  0  0  0  0  0  0  0  0  0  0
   39.4240   26.7840   33.7460 F   0  0  0  0  0  0  0  0  0  0  0  0
   42.2623   22.6322   34.2111 H   0  0  0  0  0  0  0  0  0  0  0  0
   41.4258   22.4754   35.7829 H   0  0  0  0  0  0  0  0  0  0  0  0
   42.1507   24.3268   36.5223 H   0  0  0  0  0  0  0  0  0  0  0  0
   43.7734   26.0110   34.8206 H   0  0  0  0  0  0  0  0  0  0  0  0
   43.6079   25.0855   33.5910 H   0  0  0  0  0  0  0  0  0  0  0  0
   44.9047   23.0832   35.4958 H   0  0  0  0  0  0  0  0  0  0  0  0
   43.2224   25.6246   37.4521 H   0  0  0  0  0  0  0  0  0  0  0  0
   44.2428   26.6562   39.4343 H   0  0  0  0  0  0  0  0  0  0  0  0
   46.6254   26.1586   39.9668 H   0  0  0  0  0  0  0  0  0  0  0  0
   47.9284   24.6398   38.4964 H   0  0  0  0  0  0  0  0  0  0  0  0
   46.8689   23.6471   36.5418 H   0  0  0  0  0  0  0  0  0  0  0  0
   41.0550   25.0085   34.3449 H   0  0  0  0  0  0  0  0  0  0  0  0
   40.3484   23.4951   33.5970 H   0  0  0  0  0  0  0  0  0  0  0  0
   37.3961   26.1175   36.6791 H   0  0  0  0  0  0  0  0  0  0  0  0
   37.6332   21.9669   37.2100 H   0  0  0  0  0  0  0  0  0  0  0  0
  1  2  1  0
  3  4  1  0
  3  2  1  0
  4  2  1  0
  4  5  1  0
  5 10  1  0
  5  6  2  0
  6  7  1  0
  7  8  2  0
  9  8  1  0
 10  9  2  0
 11  1  1  0
 11 14  1  0
 12 17  2  0
 13 12  1  0
 14 13  2  0
 14 15  1  0
 15 16  2  0
 16 17  1  0
 18 19  1  0
 18 13  1  0
 18 20  1  0
 21 18  1  0
  1 22  1  0
  1 23  1  0
  2 24  1  1
  3 25  1  0
  3 26  1  0
  4 27  1  6
  6 28  1  0
  7 29  1  0
  8 30  1  0
  9 31  1  0
 10 32  1  0
 11 33  1  0
 11 34  1  0
 12 35  1  0
 16 36  1  0
M  ISO  8  22   8  23   8  24  13  25  13  26  13  27  13  28  14  29  14
M  ISO  7  30  14  31  14  32  14  33   8  34   8  35  14  36  14
M  END
>  <minimizedAffinity>  (1) 
-5.54510212

>  <minimizedRMSD>  (1) 
7.55311966

$$$$
