
     RDKit          3D

 41 44  0  0  0  0  0  0  0  0999 V2000
   37.3060   22.8820   33.1630 C   0  0  0  0  0  0  0  0  0  0  0  0
   36.9880   21.6440   32.7190 N   0  0  0  0  0  0  0  0  0  0  0  0
   36.1650   21.3910   31.6840 C   0  0  0  0  0  0  0  0  0  0  0  0
   35.5900   22.3920   31.0070 N   0  0  0  0  0  0  0  0  0  0  0  0
   35.8510   23.6660   31.3820 C   0  0  0  0  0  0  0  0  0  0  0  0
   35.2340   24.6520   30.6530 C   0  0  0  0  0  0  0  0  0  0  0  0
   35.4650   25.9630   30.9990 C   0  0  0  0  0  0  0  0  0  0  0  0
   36.3170   26.2170   32.0760 C   0  0  0  0  0  0  0  0  0  0  0  0
   36.8980   25.1600   32.7550 C   0  0  0  0  0  0  0  0  0  0  0  0
   36.6990   23.8650   32.4460 C   0  0  0  0  0  0  0  0  0  0  0  0
   39.0460   23.5330   36.4120 C   0  0  0  0  0  0  0  0  0  0  0  0
   40.3710   23.5420   35.9880 C   0  0  0  0  0  0  0  0  0  0  0  0
   40.5740   23.3320   34.6410 C   0  0  0  0  0  0  0  0  0  0  0  0
   39.4850   23.1390   33.8700 N   0  0  0  0  0  0  0  0  0  0  0  0
   38.2100   23.1310   34.2720 C   0  0  0  0  0  0  0  0  0  0  0  0
   38.0600   23.3360   35.5740 N   0  0  0  0  0  0  0  0  0  0  0  0
   41.8730   23.3340   34.0790 N   0  0  0  0  0  0  0  0  0  0  0  0
   42.5280   22.1530   33.6210 C   0  0  0  0  0  0  0  0  0  0  0  0
   41.7630   21.3500   32.9060 N   0  0  0  0  0  0  0  0  0  0  0  0
   43.9160   21.9960   33.9940 N   0  0  0  0  0  0  0  0  0  0  0  0
   42.1910   20.4710   32.5730 H   0  0  0  0  0  0  0  0  0  0  0  0
   37.6770   25.8000   33.7980 C   0  0  0  0  0  0  0  0  0  0  0  0
   38.9310   26.1640   33.2480 C   0  0  0  0  0  0  0  0  0  0  0  0
   39.9460   26.7540   34.0150 C   0  0  0  0  0  0  0  0  0  0  0  0
   39.7390   26.9970   35.3550 C   0  0  0  0  0  0  0  0  0  0  0  0
   38.5270   26.6510   35.9090 C   0  0  0  0  0  0  0  0  0  0  0  0
   37.5450   26.0750   35.1430 C   0  0  0  0  0  0  0  0  0  0  0  0
   35.9630   20.3500   31.3916 H   0  0  0  0  0  0  0  0  0  0  0  0
   34.5708   24.3997   29.8124 H   0  0  0  0  0  0  0  0  0  0  0  0
   34.9927   26.7869   30.4439 H   0  0  0  0  0  0  0  0  0  0  0  0
   36.5254   27.2524   32.3833 H   0  0  0  0  0  0  0  0  0  0  0  0
   38.8217   23.6953   37.4766 H   0  0  0  0  0  0  0  0  0  0  0  0
   41.2057   23.7067   36.6852 H   0  0  0  0  0  0  0  0  0  0  0  0
   42.3696   24.2326   33.9968 H   0  0  0  0  0  0  0  0  0  0  0  0
   44.4395   21.1623   33.6911 H   0  0  0  0  0  0  0  0  0  0  0  0
   44.3813   22.7178   34.5626 H   0  0  0  0  0  0  0  0  0  0  0  0
   39.1152   25.9769   32.1798 H   0  0  0  0  0  0  0  0  0  0  0  0
   40.9051   27.0221   33.5477 H   0  0  0  0  0  0  0  0  0  0  0  0
   40.5260   27.4581   35.9699 H   0  0  0  0  0  0  0  0  0  0  0  0
   38.3439   26.8384   36.9773 H   0  0  0  0  0  0  0  0  0  0  0  0
   36.5940   25.8167   35.6318 H   0  0  0  0  0  0  0  0  0  0  0  0
  1 15  1  0
  2  1  2  0
  3  2  1  0
  4  5  1  0
  4  3  2  0
  5 10  2  0
  6  7  2  0
  6  5  1  0
  7  8  1  0
  8  9  2  0
  9 22  1  0
 10  9  1  0
 10  1  1  0
 12 11  2  0
 13 12  1  0
 14 15  1  0
 14 13  2  0
 15 16  2  0
 16 11  1  0
 17 13  1  0
 18 20  1  0
 18 17  1  0
 19 18  2  0
 21 19  1  0
 22 27  1  0
 23 22  2  0
 23 24  1  0
 24 25  2  0
 25 26  1  0
 27 26  2  0
  3 28  1  0
  6 29  1  0
  7 30  1  0
  8 31  1  0
 11 32  1  0
 12 33  1  0
 17 34  1  0
 20 35  1  0
 20 36  1  0
 23 37  1  0
 24 38  1  0
 25 39  1  0
 26 40  1  0
 27 41  1  0
M  ISO  8  28  14  29  14  30  14  31  14  32  14  33  14  37  14  38  14
M  ISO  3  39  14  40  14  41  14
M  END
>  <minimizedAffinity>  (1) 
-5.70633888

>  <minimizedRMSD>  (1) 
4.61739731

$$$$
