
     RDKit          3D

 37 40  0  0  0  0  0  0  0  0999 V2000
   44.4740   24.0730   36.0290 C   0  0  0  0  0  0  0  0  0  0  0  0
   41.2030   22.4280   37.0060 C   0  0  0  0  0  0  0  0  0  0  0  0
   42.1340   23.3970   36.6760 C   0  0  0  0  0  0  0  0  0  0  0  0
   43.4530   23.0330   36.3890 C   0  0  0  0  0  0  0  0  0  0  0  0
   43.7550   21.6990   36.4550 N   0  0  0  0  0  0  0  0  0  0  0  0
   42.8340   20.7640   36.7800 C   0  0  0  0  0  0  0  0  0  0  0  0
   41.5760   21.1610   37.0470 N   0  0  0  0  0  0  0  0  0  0  0  0
   39.8390   22.8500   37.2960 C   0  0  0  0  0  0  0  0  0  0  0  0
   38.8350   22.9860   36.3580 C   0  0  0  0  0  0  0  0  0  0  0  0
   37.7450   23.3970   37.0750 C   0  0  0  0  0  0  0  0  0  0  0  0
   38.1130   23.4980   38.4060 C   0  0  0  0  0  0  0  0  0  0  0  0
   39.3900   23.1560   38.4860 O   0  0  0  0  0  0  0  0  0  0  0  0
   44.9210   24.8080   37.1810 N   0  0  0  0  0  0  0  0  0  0  0  0
   44.3300   25.7300   37.9130 N   0  0  0  0  0  0  0  0  0  0  0  0
   45.0680   26.1720   38.9110 C   0  0  0  0  0  0  0  0  0  0  0  0
   46.2760   25.4850   38.8500 C   0  0  0  0  0  0  0  0  0  0  0  0
   46.1360   24.6370   37.7430 C   0  0  0  0  0  0  0  0  0  0  0  0
   47.2960   23.7890   37.4750 C   0  0  0  0  0  0  0  0  0  0  0  0
   47.3920   22.7700   36.5520 C   0  0  0  0  0  0  0  0  0  0  0  0
   48.5320   22.0180   36.3880 C   0  0  0  0  0  0  0  0  0  0  0  0
   49.6540   22.2540   37.1530 C   0  0  0  0  0  0  0  0  0  0  0  0
   49.6480   23.2540   38.1020 C   0  0  0  0  0  0  0  0  0  0  0  0
   48.4750   23.9670   38.2130 C   0  0  0  0  0  0  0  0  0  0  0  0
   45.3396   23.5762   35.5665 H   0  0  0  0  0  0  0  0  0  0  0  0
   44.0052   24.7837   35.3325 H   0  0  0  0  0  0  0  0  0  0  0  0
   41.8359   24.4552   36.6394 H   0  0  0  0  0  0  0  0  0  0  0  0
   43.1075   19.6995   36.8253 H   0  0  0  0  0  0  0  0  0  0  0  0
   38.8977   22.8043   35.2749 H   0  0  0  0  0  0  0  0  0  0  0  0
   36.7471   23.6107   36.6645 H   0  0  0  0  0  0  0  0  0  0  0  0
   37.4658   23.8049   39.2408 H   0  0  0  0  0  0  0  0  0  0  0  0
   44.7839   26.9362   39.6494 H   0  0  0  0  0  0  0  0  0  0  0  0
   47.1438   25.5847   39.5186 H   0  0  0  0  0  0  0  0  0  0  0  0
   46.5197   22.5486   35.9195 H   0  0  0  0  0  0  0  0  0  0  0  0
   48.5485   21.2163   35.6350 H   0  0  0  0  0  0  0  0  0  0  0  0
   50.5567   21.6428   37.0059 H   0  0  0  0  0  0  0  0  0  0  0  0
   50.5247   23.4688   38.7308 H   0  0  0  0  0  0  0  0  0  0  0  0
   48.4614   24.7679   38.9669 H   0  0  0  0  0  0  0  0  0  0  0  0
  1  4  1  0
  1 13  1  0
  2  7  1  0
  2  8  1  0
  3  2  2  0
  4  5  2  0
  4  3  1  0
  5  6  1  0
  6  7  2  0
  8 12  1  0
  9 10  1  0
  9  8  2  0
 10 11  2  0
 11 12  1  0
 13 17  1  0
 13 14  1  0
 14 15  2  0
 16 15  1  0
 17 16  2  0
 18 17  1  0
 18 23  1  0
 19 18  2  0
 20 19  1  0
 20 21  2  0
 21 22  1  0
 22 23  2  0
  1 24  1  0
  1 25  1  0
  3 26  1  0
  6 27  1  0
  9 28  1  0
 10 29  1  0
 11 30  1  0
 15 31  1  0
 16 32  1  0
 19 33  1  0
 20 34  1  0
 21 35  1  0
 22 36  1  0
 23 37  1  0
M  ISO  8  24   8  25   8  26  14  27  14  28  14  29  14  30  14  31  14
M  ISO  6  32  14  33  14  34  14  35  14  36  14  37  14
M  END
>  <minimizedAffinity>  (1) 
-5.2834568

>  <minimizedRMSD>  (1) 
0.800838828

$$$$
