
     RDKit          3D

 34 35  0  0  1  0  0  0  0  0999 V2000
   38.1920   24.1700   36.7810 C   0  0  1  0  0  0  0  0  0  0  0  0
   41.1070   21.8510   37.5100 C   0  0  0  0  0  0  0  0  0  0  0  0
   39.9950   22.6990   37.7400 C   0  0  0  0  0  0  0  0  0  0  0  0
   39.3550   23.2570   36.6110 C   0  0  0  0  0  0  0  0  0  0  0  0
   39.8400   22.9520   35.3530 N   0  0  0  0  0  0  0  0  0  0  0  0
   40.8970   22.1430   35.1880 C   0  0  0  0  0  0  0  0  0  0  0  0
   41.5320   21.5910   36.2640 N   0  0  0  0  0  0  0  0  0  0  0  0
   37.9340   24.4520   38.2490 C   0  0  0  0  0  0  0  0  0  0  0  0
   38.3950   25.5100   36.0920 C   0  0  0  0  0  0  0  0  0  0  0  0
   37.3770   25.7610   35.0940 N   0  0  0  0  0  0  0  0  0  0  0  0
   37.6600   25.1730   33.8100 C   0  0  0  0  0  0  0  0  0  0  0  0
   38.8380   25.8600   33.1120 C   0  0  0  0  0  0  0  0  0  0  0  0
   38.3980   27.2770   32.8290 C   0  0  0  0  0  0  0  0  0  0  0  0
   37.1290   27.6590   33.5530 C   0  0  0  0  0  0  0  0  0  0  0  0
   37.1140   27.1700   34.9790 C   0  0  0  0  0  0  0  0  0  0  0  0
   37.3382   23.6498   36.3221 H   0  0  0  0  0  0  0  0  0  0  0  0
   41.6297   21.3991   38.3659 H   0  0  0  0  0  0  0  0  0  0  0  0
   39.6433   22.9147   38.7597 H   0  0  0  0  0  0  0  0  0  0  0  0
   41.2573   21.9211   34.1726 H   0  0  0  0  0  0  0  0  0  0  0  0
   38.5491   23.7797   38.8651 H   0  0  0  0  0  0  0  0  0  0  0  0
   38.1956   25.4967   38.4732 H   0  0  0  0  0  0  0  0  0  0  0  0
   36.8702   24.2841   38.4732 H   0  0  0  0  0  0  0  0  0  0  0  0
   38.3572   26.3083   36.8478 H   0  0  0  0  0  0  0  0  0  0  0  0
   39.3718   25.4901   35.5865 H   0  0  0  0  0  0  0  0  0  0  0  0
   37.9024   24.1095   33.9520 H   0  0  0  0  0  0  0  0  0  0  0  0
   36.7698   25.2967   33.1757 H   0  0  0  0  0  0  0  0  0  0  0  0
   39.7214   25.8596   33.7674 H   0  0  0  0  0  0  0  0  0  0  0  0
   39.1138   25.3353   32.1854 H   0  0  0  0  0  0  0  0  0  0  0  0
   39.1997   27.9618   33.1427 H   0  0  0  0  0  0  0  0  0  0  0  0
   38.1943   27.3480   31.7504 H   0  0  0  0  0  0  0  0  0  0  0  0
   37.0388   28.7553   33.5541 H   0  0  0  0  0  0  0  0  0  0  0  0
   36.2864   27.1869   33.0267 H   0  0  0  0  0  0  0  0  0  0  0  0
   37.8824   27.7171   35.5450 H   0  0  0  0  0  0  0  0  0  0  0  0
   36.1043   27.3492   35.3770 H   0  0  0  0  0  0  0  0  0  0  0  0
  1  8  1  0
  2  3  2  0
  4  1  1  0
  4  3  1  0
  5  4  2  0
  6  5  1  0
  6  7  2  0
  7  2  1  0
  9  1  1  0
 10  9  1  0
 11 10  1  0
 12 11  1  0
 13 12  1  0
 13 14  1  0
 14 15  1  0
 15 10  1  0
  1 16  1  6
  2 17  1  0
  3 18  1  0
  6 19  1  0
  8 20  1  0
  8 21  1  0
  8 22  1  0
  9 23  1  0
  9 24  1  0
 11 25  1  0
 11 26  1  0
 12 27  1  0
 12 28  1  0
 13 29  1  0
 13 30  1  0
 14 31  1  0
 14 32  1  0
 15 33  1  0
 15 34  1  0
M  ISO  8  16   8  17  14  18  14  19  14  20   8  21   8  22   8  23   8
M  ISO  8  24   8  25  13  26  13  27  13  28  13  29  13  30  13  31  13
M  ISO  3  32  13  33  13  34  13
M  END
>  <minimizedAffinity>  (1) 
-4.06454563

>  <minimizedRMSD>  (1) 
1.65750575

$$$$
