
     RDKit          3D

 43 46  0  0  0  0  0  0  0  0999 V2000
   37.6580   24.6320   36.5050 O   0  0  0  0  0  0  0  0  0  0  0  0
   39.8440   22.4980   38.2580 N   0  0  0  0  0  0  0  0  0  0  0  0
   38.7340   23.2290   38.1270 N   0  0  0  0  0  0  0  0  0  0  0  0
   38.7250   23.8060   36.8980 C   0  0  0  0  0  0  0  0  0  0  0  0
   39.8680   23.4280   36.2330 C   0  0  0  0  0  0  0  0  0  0  0  0
   40.5380   22.6160   37.1090 C   0  0  0  0  0  0  0  0  0  0  0  0
   41.8350   21.9700   36.8190 C   0  0  0  0  0  0  0  0  0  0  0  0
   42.8260   22.6960   36.2070 C   0  0  0  0  0  0  0  0  0  0  0  0
   44.0000   22.0100   35.9750 C   0  0  0  0  0  0  0  0  0  0  0  0
   44.2350   20.7190   36.2980 N   0  0  0  0  0  0  0  0  0  0  0  0
   43.2190   20.0420   36.9050 C   0  0  0  0  0  0  0  0  0  0  0  0
   42.0530   20.6780   37.1480 N   0  0  0  0  0  0  0  0  0  0  0  0
   37.8770   25.8970   35.9750 C   0  0  0  0  0  0  0  0  0  0  0  0
   38.4060   26.7940   36.6570 O   0  0  0  0  0  0  0  0  0  0  0  0
   37.4690   26.1620   34.5820 C   0  0  0  0  0  0  0  0  0  0  0  0
   37.5500   25.1360   33.6660 C   0  0  0  0  0  0  0  0  0  0  0  0
   37.1620   25.3910   32.3440 C   0  0  0  0  0  0  0  0  0  0  0  0
   36.7300   26.6560   32.0740 N   0  0  0  0  0  0  0  0  0  0  0  0
   36.6660   27.6130   32.9770 C   0  0  0  0  0  0  0  0  0  0  0  0
   37.0280   27.4070   34.2500 N   0  0  0  0  0  0  0  0  0  0  0  0
   36.2050   28.9100   32.6240 N   0  0  0  0  0  0  0  0  0  0  0  0
   36.6640   29.5810   31.4070 C   0  0  0  0  0  0  0  0  0  0  0  0
   35.5190   30.4760   30.9700 C   0  0  0  0  0  0  0  0  0  0  0  0
   35.2910   31.6030   31.9550 C   0  0  0  0  0  0  0  0  0  0  0  0
   35.5940   31.1370   33.3690 C   0  0  0  0  0  0  0  0  0  0  0  0
   35.2630   29.6580   33.4290 C   0  0  0  0  0  0  0  0  0  0  0  0
   40.1185   21.9467   39.0836 H   0  0  0  0  0  0  0  0  0  0  0  0
   40.1772   23.7156   35.2173 H   0  0  0  0  0  0  0  0  0  0  0  0
   42.6935   23.7501   35.9218 H   0  0  0  0  0  0  0  0  0  0  0  0
   44.8156   22.5616   35.4846 H   0  0  0  0  0  0  0  0  0  0  0  0
   43.3479   18.9884   37.1938 H   0  0  0  0  0  0  0  0  0  0  0  0
   37.9105   24.1408   33.9653 H   0  0  0  0  0  0  0  0  0  0  0  0
   37.2036   24.6137   31.5668 H   0  0  0  0  0  0  0  0  0  0  0  0
   37.5613   30.1819   31.6163 H   0  0  0  0  0  0  0  0  0  0  0  0
   36.9335   28.8575   30.6234 H   0  0  0  0  0  0  0  0  0  0  0  0
   35.7556   30.9043   29.9848 H   0  0  0  0  0  0  0  0  0  0  0  0
   34.6036   29.8680   30.9220 H   0  0  0  0  0  0  0  0  0  0  0  0
   35.9510   32.4456   31.7014 H   0  0  0  0  0  0  0  0  0  0  0  0
   34.2387   31.9187   31.9001 H   0  0  0  0  0  0  0  0  0  0  0  0
   36.6579   31.2957   33.5992 H   0  0  0  0  0  0  0  0  0  0  0  0
   35.0017   31.7019   34.1039 H   0  0  0  0  0  0  0  0  0  0  0  0
   34.2452   29.4960   33.0445 H   0  0  0  0  0  0  0  0  0  0  0  0
   35.3250   29.3147   34.4722 H   0  0  0  0  0  0  0  0  0  0  0  0
  1  4  1  0
  3  2  1  0
  4  3  2  0
  5  4  1  0
  5  6  2  0
  6  2  1  0
  7  6  1  0
  7 12  1  0
  8  7  2  0
  9  8  1  0
  9 10  2  0
 10 11  1  0
 11 12  2  0
 13  1  1  0
 13 14  2  0
 15 13  1  0
 16 15  2  0
 17 16  1  0
 18 17  2  0
 18 19  1  0
 19 20  2  0
 20 15  1  0
 21 19  1  0
 21 26  1  0
 22 21  1  0
 23 22  1  0
 23 24  1  0
 24 25  1  0
 25 26  1  0
  2 27  1  0
  5 28  1  0
  8 29  1  0
  9 30  1  0
 11 31  1  0
 16 32  1  0
 17 33  1  0
 22 34  1  0
 22 35  1  0
 23 36  1  0
 23 37  1  0
 24 38  1  0
 24 39  1  0
 25 40  1  0
 25 41  1  0
 26 42  1  0
 26 43  1  0
M  ISO  8  27   9  28  14  29  14  30  14  31  14  32  14  33  14  34  13
M  ISO  8  35  13  36  13  37  13  38  13  39  13  40  13  41  13  42  13
M  ISO  1  43  13
M  END
>  <minimizedAffinity>  (1) 
-6.07219839

>  <minimizedRMSD>  (1) 
0.559640527

$$$$
