
     RDKit          3D

 46 50  0  0  1  0  0  0  0  0999 V2000
   37.9920   26.3710   36.4990 C   0  0  1  0  0  0  0  0  0  0  0  0
   38.7740   27.3240   35.6780 C   0  0  0  0  0  0  0  0  0  0  0  0
   37.4950   26.7410   35.1540 C   0  0  1  0  0  0  0  0  0  0  0  0
   37.6210   26.0490   33.9370 N   0  0  0  0  0  0  0  0  0  0  0  0
   37.7070   24.7210   33.7490 C   0  0  0  0  0  0  0  0  0  0  0  0
   37.8350   24.1030   32.5340 C   0  0  0  0  0  0  0  0  0  0  0  0
   37.8780   24.9040   31.3840 C   0  0  0  0  0  0  0  0  0  0  0  0
   37.9930   24.3990   30.2420 O   0  0  0  0  0  0  0  0  0  0  0  0
   37.7930   26.2590   31.4950 N   0  0  0  0  0  0  0  0  0  0  0  0
   37.6710   26.7540   32.7450 C   0  0  0  0  0  0  0  0  0  0  0  0
   37.5930   28.0270   32.8260 O   0  0  0  0  0  0  0  0  0  0  0  0
   37.1240   28.4840   28.7900 N   0  0  0  0  0  0  0  0  0  0  0  0
   36.7420   27.7480   29.8100 N   0  0  0  0  0  0  0  0  0  0  0  0
   37.8110   27.1330   30.3740 C   0  0  0  0  0  0  0  0  0  0  0  0
   38.9050   27.5170   29.6550 C   0  0  0  0  0  0  0  0  0  0  0  0
   38.4700   28.3650   28.6620 C   0  0  0  0  0  0  0  0  0  0  0  0
   38.5470   25.0310   36.8160 C   0  0  0  0  0  0  0  0  0  0  0  0
   38.0200   24.3790   37.9260 C   0  0  0  0  0  0  0  0  0  0  0  0
   38.4650   23.1330   38.2970 C   0  0  0  0  0  0  0  0  0  0  0  0
   39.4350   22.5950   37.5210 N   0  0  0  0  0  0  0  0  0  0  0  0
   39.9390   23.2460   36.4410 C   0  0  0  0  0  0  0  0  0  0  0  0
   39.5100   24.4470   36.0840 N   0  0  0  0  0  0  0  0  0  0  0  0
   40.9580   22.6110   35.6760 N   0  0  0  0  0  0  0  0  0  0  0  0
   41.9630   21.6630   36.1780 C   0  0  0  0  0  0  0  0  0  0  0  0
   42.5660   21.0580   34.9550 C   0  0  0  0  0  0  0  0  0  0  0  0
   41.5800   21.3840   33.8320 C   0  0  0  0  0  0  0  0  0  0  0  0
   41.2030   22.7820   34.2350 C   0  0  0  0  0  0  0  0  0  0  0  0
   37.5379   26.3785   37.5009 H   0  0  0  0  0  0  0  0  0  0  0  0
   38.8206   28.3860   35.9607 H   0  0  0  0  0  0  0  0  0  0  0  0
   39.8126   27.3757   35.3194 H   0  0  0  0  0  0  0  0  0  0  0  0
   36.4783   27.0223   34.8423 H   0  0  0  0  0  0  0  0  0  0  0  0
   37.6718   24.0798   34.6421 H   0  0  0  0  0  0  0  0  0  0  0  0
   37.9023   23.0074   32.4620 H   0  0  0  0  0  0  0  0  0  0  0  0
   36.5083   29.0527   28.1914 H   0  0  0  0  0  0  0  0  0  0  0  0
   39.9445   27.2058   29.8358 H   0  0  0  0  0  0  0  0  0  0  0  0
   39.0978   28.8561   27.9039 H   0  0  0  0  0  0  0  0  0  0  0  0
   37.2329   24.8697   38.5174 H   0  0  0  0  0  0  0  0  0  0  0  0
   38.0577   22.6047   39.1716 H   0  0  0  0  0  0  0  0  0  0  0  0
   42.7290   22.1876   36.7680 H   0  0  0  0  0  0  0  0  0  0  0  0
   41.5213   20.9039   36.8403 H   0  0  0  0  0  0  0  0  0  0  0  0
   43.5505   21.5026   34.7476 H   0  0  0  0  0  0  0  0  0  0  0  0
   42.7288   19.9756   35.0639 H   0  0  0  0  0  0  0  0  0  0  0  0
   40.7130   20.7070   33.8371 H   0  0  0  0  0  0  0  0  0  0  0  0
   41.9794   21.2811   32.8122 H   0  0  0  0  0  0  0  0  0  0  0  0
   42.0235   23.4902   34.0474 H   0  0  0  0  0  0  0  0  0  0  0  0
   40.3489   23.1961   33.6790 H   0  0  0  0  0  0  0  0  0  0  0  0
  1 17  1  0
  2  1  1  0
  3  2  1  0
  3  1  1  0
  4  3  1  0
  5  4  1  0
  6  5  2  0
  7  9  1  0
  7  6  1  0
  8  7  2  0
  9 10  1  0
 10 11  2  0
 10  4  1  0
 12 13  1  0
 13 14  2  0
 14  9  1  0
 15 14  1  0
 16 12  1  0
 16 15  2  0
 17 18  2  0
 18 19  1  0
 20 19  2  0
 21 20  1  0
 22 21  2  0
 22 17  1  0
 23 24  1  0
 23 21  1  0
 25 24  1  0
 26 27  1  0
 26 25  1  0
 27 23  1  0
  1 28  1  1
  2 29  1  0
  2 30  1  0
  3 31  1  1
  5 32  1  0
  6 33  1  0
 12 34  1  0
 15 35  1  0
 16 36  1  0
 18 37  1  0
 19 38  1  0
 24 39  1  0
 24 40  1  0
 25 41  1  0
 25 42  1  0
 26 43  1  0
 26 44  1  0
 27 45  1  0
 27 46  1  0
M  ISO  8  28  13  29  13  30  13  31  13  32  14  33  14  34   9  35  14
M  ISO  8  36  14  37  14  38  14  39  13  40  13  41  13  42  13  43  13
M  ISO  3  44  13  45  13  46  13
M  END
>  <minimizedAffinity>  (1) 
-5.90245008

>  <minimizedRMSD>  (1) 
0.147918805

$$$$
