
     RDKit          3D

 49 52  0  0  1  0  0  0  0  0999 V2000
   39.6940   22.2530   34.5570 C   0  0  0  0  0  0  0  0  0  0  0  0
   38.4860   21.9900   33.9370 C   0  0  0  0  0  0  0  0  0  0  0  0
   38.4590   21.1560   32.8370 C   0  0  0  0  0  0  0  0  0  0  0  0
   39.6340   20.6200   32.4040 N   0  0  0  0  0  0  0  0  0  0  0  0
   40.7830   20.8950   33.0260 C   0  0  0  0  0  0  0  0  0  0  0  0
   40.8270   21.6950   34.0850 N   0  0  0  0  0  0  0  0  0  0  0  0
   37.3280   20.7710   32.0750 N   0  0  0  0  0  0  0  0  0  0  0  0
   36.8170   21.4710   30.9190 C   0  0  0  0  0  0  0  0  0  0  0  0
   35.4030   21.9150   31.1820 C   0  0  0  0  0  0  0  0  0  0  0  0
   34.8920   21.2820   32.3430 O   0  0  0  0  0  0  0  0  0  0  0  0
   35.0390   19.9190   32.2080 C   0  0  0  0  0  0  0  0  0  0  0  0
   36.5120   19.5830   32.3700 C   0  0  0  0  0  0  0  0  0  0  0  0
   39.6710   23.1270   35.6940 C   0  0  0  0  0  0  0  0  0  0  0  0
   39.9260   22.7490   36.8960 O   0  0  0  0  0  0  0  0  0  0  0  0
   39.3560   24.5450   35.6260 C   0  0  0  0  0  0  0  0  0  0  0  0
   38.1330   25.0340   36.0380 C   0  0  0  0  0  0  0  0  0  0  0  0
   37.8860   26.4000   35.9480 C   0  0  0  0  0  0  0  0  0  0  0  0
   38.8190   27.2890   35.4630 C   0  0  0  0  0  0  0  0  0  0  0  0
   40.0430   26.7990   35.0510 C   0  0  0  0  0  0  0  0  0  0  0  0
   40.2870   25.4210   35.1430 C   0  0  0  0  0  0  0  0  0  0  0  0
   41.6030   25.1230   34.6890 N   0  0  0  0  0  0  0  0  0  0  0  0
   42.9090   24.7690   35.2730 C   0  0  0  0  0  0  0  0  0  0  0  0
   43.8410   25.8470   34.7390 C   0  0  0  0  0  0  0  0  0  0  0  0
   43.3360   25.9460   33.3050 C   0  0  0  0  0  0  0  0  0  0  0  0
   42.0730   25.0980   33.2930 C   0  0  0  0  0  0  0  0  0  0  0  0
   37.5568   22.4404   34.3162 H   0  0  0  0  0  0  0  0  0  0  0  0
   41.7159   20.4480   32.6521 H   0  0  0  0  0  0  0  0  0  0  0  0
   36.8339   20.7999   30.0476 H   0  0  0  0  0  0  0  0  0  0  0  0
   37.4450   22.3514   30.7179 H   0  0  0  0  0  0  0  0  0  0  0  0
   35.3869   23.0052   31.3273 H   0  0  0  0  0  0  0  0  0  0  0  0
   34.7770   21.6381   30.3209 H   0  0  0  0  0  0  0  0  0  0  0  0
   34.4518   19.4025   32.9816 H   0  0  0  0  0  0  0  0  0  0  0  0
   34.6811   19.5938   31.2200 H   0  0  0  0  0  0  0  0  0  0  0  0
   36.7807   18.7734   31.6755 H   0  0  0  0  0  0  0  0  0  0  0  0
   36.6999   19.2603   33.4047 H   0  0  0  0  0  0  0  0  0  0  0  0
   38.6061   22.8985   35.8481 H   0  0  0  0  0  0  0  0  0  0  0  0
   39.5034   23.3754   37.5356 H   0  0  0  0  0  0  0  0  0  0  0  0
   37.3642   24.3531   36.4321 H   0  0  0  0  0  0  0  0  0  0  0  0
   36.9090   26.7843   36.2765 H   0  0  0  0  0  0  0  0  0  0  0  0
   38.5948   28.3644   35.4050 H   0  0  0  0  0  0  0  0  0  0  0  0
   40.8135   27.4783   34.6573 H   0  0  0  0  0  0  0  0  0  0  0  0
   42.8680   24.7938   36.3720 H   0  0  0  0  0  0  0  0  0  0  0  0
   43.2347   23.7520   35.0092 H   0  0  0  0  0  0  0  0  0  0  0  0
   43.7200   26.7965   35.2810 H   0  0  0  0  0  0  0  0  0  0  0  0
   44.9134   25.6233   34.8383 H   0  0  0  0  0  0  0  0  0  0  0  0
   43.1073   26.9897   33.0434 H   0  0  0  0  0  0  0  0  0  0  0  0
   44.0806   25.6020   32.5721 H   0  0  0  0  0  0  0  0  0  0  0  0
   41.3187   25.5322   32.6203 H   0  0  0  0  0  0  0  0  0  0  0  0
   42.2571   24.0760   32.9303 H   0  0  0  0  0  0  0  0  0  0  0  0
  1 13  1  0
  2  1  2  0
  3  2  1  0
  4  3  2  0
  4  5  1  0
  5  6  2  0
  6  1  1  0
  7 12  1  0
  7  3  1  0
  8  9  1  0
  8  7  1  0
  9 10  1  0
 11 10  1  0
 11 12  1  0
 13 14  1  0
 15 13  1  0
 15 16  2  0
 17 16  1  0
 18 17  2  0
 19 20  2  0
 19 18  1  0
 20 15  1  0
 21 20  1  0
 21 22  1  0
 23 22  1  0
 24 23  1  0
 25 24  1  0
 25 21  1  0
  2 26  1  0
  5 27  1  0
  8 28  1  0
  8 29  1  0
  9 30  1  0
  9 31  1  0
 11 32  1  0
 11 33  1  0
 12 34  1  0
 12 35  1  0
 13 36  1  0
 14 37  1  0
 16 38  1  0
 17 39  1  0
 18 40  1  0
 19 41  1  0
 22 42  1  0
 22 43  1  0
 23 44  1  0
 23 45  1  0
 24 46  1  0
 24 47  1  0
 25 48  1  0
 25 49  1  0
M  ISO  8  26  14  27  14  28  13  29  13  30  13  31  13  32  13  33  13
M  ISO  8  34  13  35  13  36   8  37   3  38  14  39  14  40  14  41  14
M  ISO  8  42  13  43  13  44  13  45  13  46  13  47  13  48  13  49  13
M  END
>  <minimizedAffinity>  (1) 
-5.25349808

>  <minimizedRMSD>  (1) 
0.40704456

$$$$
