
     RDKit          3D

 29 30  0  0  1  0  0  0  0  0999 V2000
   37.6020   25.2740   34.1110 N   0  0  0  0  0  0  0  0  0  0  0  0
   37.0510   25.3000   32.7790 C   0  0  0  0  0  0  0  0  0  0  0  0
   36.8720   26.7440   32.4330 C   0  0  0  0  0  0  0  0  0  0  0  0
   37.3610   27.4920   33.6600 C   0  0  0  0  0  0  0  0  0  0  0  0
   38.4100   26.4540   34.1650 C   0  0  2  0  0  0  0  0  0  0  0  0
   38.4410   24.1440   34.3340 C   0  0  0  0  0  0  0  0  0  0  0  0
   37.8900   24.0280   38.0930 C   0  0  0  0  0  0  0  0  0  0  0  0
   37.6880   24.3290   36.7510 C   0  0  0  0  0  0  0  0  0  0  0  0
   38.6100   23.8560   35.7960 C   0  0  0  0  0  0  0  0  0  0  0  0
   39.6630   23.1180   36.2660 N   0  0  0  0  0  0  0  0  0  0  0  0
   39.8200   22.8520   37.5720 C   0  0  0  0  0  0  0  0  0  0  0  0
   38.9410   23.3040   38.4710 N   0  0  0  0  0  0  0  0  0  0  0  0
   39.5040   26.4340   33.3660 O   0  0  0  0  0  0  0  0  0  0  0  0
   40.6240   26.8200   34.0770 C   0  0  0  0  0  0  0  0  0  0  0  0
   40.3520   27.0660   35.4080 F   0  0  0  0  0  0  0  0  0  0  0  0
   41.3260   27.8420   33.4920 F   0  0  0  0  0  0  0  0  0  0  0  0
   41.4870   25.7140   34.0440 F   0  0  0  0  0  0  0  0  0  0  0  0
   37.7422   24.8204   32.0704 H   0  0  0  0  0  0  0  0  0  0  0  0
   36.0981   24.7530   32.7273 H   0  0  0  0  0  0  0  0  0  0  0  0
   37.4726   27.0098   31.5506 H   0  0  0  0  0  0  0  0  0  0  0  0
   35.8291   26.9880   32.1823 H   0  0  0  0  0  0  0  0  0  0  0  0
   37.8239   28.4554   33.4002 H   0  0  0  0  0  0  0  0  0  0  0  0
   36.5846   27.7763   34.3855 H   0  0  0  0  0  0  0  0  0  0  0  0
   38.8567   26.6347   35.1539 H   0  0  0  0  0  0  0  0  0  0  0  0
   37.9919   23.2655   33.8476 H   0  0  0  0  0  0  0  0  0  0  0  0
   39.4325   24.3656   33.9122 H   0  0  0  0  0  0  0  0  0  0  0  0
   37.1765   24.3906   38.8476 H   0  0  0  0  0  0  0  0  0  0  0  0
   36.8201   24.9284   36.4387 H   0  0  0  0  0  0  0  0  0  0  0  0
   40.6817   22.2554   37.9059 H   0  0  0  0  0  0  0  0  0  0  0  0
  1  5  1  0
  1  6  1  0
  2  1  1  0
  3  2  1  0
  3  4  1  0
  4  5  1  0
  6  9  1  0
  7 12  2  0
  8  7  1  0
  9 10  1  0
  9  8  2  0
 10 11  2  0
 11 12  1  0
 13 14  1  0
 13  5  1  0
 14 15  1  0
 16 14  1  0
 17 14  1  0
  2 18  1  0
  2 19  1  0
  3 20  1  0
  3 21  1  0
  4 22  1  0
  4 23  1  0
  5 24  1  1
  6 25  1  0
  6 26  1  0
  7 27  1  0
  8 28  1  0
 11 29  1  0
M  ISO  8  18  13  19  13  20  13  21  13  22  13  23  13  24  13  25   8
M  ISO  4  26   8  27  14  28  14  29  14
M  END
>  <minimizedAffinity>  (1) 
-4.23741007

>  <minimizedRMSD>  (1) 
0.862280786

$$$$
