
     RDKit          3D

 39 41  0  0  0  0  0  0  0  0999 V2000
   38.2720   24.6770   33.3790 C   0  0  0  0  0  0  0  0  0  0  0  0
   37.5220   25.7410   32.9770 C   0  0  0  0  0  0  0  0  0  0  0  0
   36.4620   25.6530   32.1190 C   0  0  0  0  0  0  0  0  0  0  0  0
   36.1420   24.4270   31.6410 N   0  0  0  0  0  0  0  0  0  0  0  0
   36.8550   23.3490   32.0110 C   0  0  0  0  0  0  0  0  0  0  0  0
   37.8840   23.4620   32.8500 N   0  0  0  0  0  0  0  0  0  0  0  0
   36.6190   22.0000   31.5780 N   0  0  0  0  0  0  0  0  0  0  0  0
   37.5860   21.5470   30.7180 C   0  0  0  0  0  0  0  0  0  0  0  0
   37.5030   20.2650   30.2100 C   0  0  0  0  0  0  0  0  0  0  0  0
   36.4550   19.4890   30.5850 C   0  0  0  0  0  0  0  0  0  0  0  0
   36.3710   18.1740   30.0610 N   0  0  0  0  0  0  0  0  0  0  0  0
   35.5340   19.9480   31.4150 N   0  0  0  0  0  0  0  0  0  0  0  0
   35.6070   21.1900   31.9130 C   0  0  0  0  0  0  0  0  0  0  0  0
   34.8000   21.7300   32.7020 O   0  0  0  0  0  0  0  0  0  0  0  0
   39.4250   24.7370   34.3060 C   0  0  0  0  0  0  0  0  0  0  0  0
   37.7510   24.2140   37.6930 C   0  0  0  0  0  0  0  0  0  0  0  0
   38.0220   24.7190   36.3850 C   0  0  0  0  0  0  0  0  0  0  0  0
   39.1090   24.2310   35.6790 C   0  0  0  0  0  0  0  0  0  0  0  0
   39.8870   23.2710   36.2790 N   0  0  0  0  0  0  0  0  0  0  0  0
   39.6020   22.8240   37.5030 C   0  0  0  0  0  0  0  0  0  0  0  0
   38.5590   23.2770   38.2040 N   0  0  0  0  0  0  0  0  0  0  0  0
   40.4690   21.8250   38.0400 N   0  0  0  0  0  0  0  0  0  0  0  0
   41.5690   21.3460   37.3000 C   0  0  0  0  0  0  0  0  0  0  0  0
   41.8210   21.8710   36.1470 N   0  0  0  0  0  0  0  0  0  0  0  0
   42.3550   20.3020   37.8600 N   0  0  0  0  0  0  0  0  0  0  0  0
   42.6430   21.4900   35.6280 H   0  0  0  0  0  0  0  0  0  0  0  0
   37.7866   26.7345   33.3681 H   0  0  0  0  0  0  0  0  0  0  0  0
   35.8894   26.5457   31.8272 H   0  0  0  0  0  0  0  0  0  0  0  0
   38.4236   22.2010   30.4340 H   0  0  0  0  0  0  0  0  0  0  0  0
   38.2680   19.8826   29.5182 H   0  0  0  0  0  0  0  0  0  0  0  0
   35.5865   17.5623   30.3281 H   0  0  0  0  0  0  0  0  0  0  0  0
   37.0945   17.8305   29.4133 H   0  0  0  0  0  0  0  0  0  0  0  0
   40.2404   24.1279   33.8887 H   0  0  0  0  0  0  0  0  0  0  0  0
   39.7072   25.7954   34.4062 H   0  0  0  0  0  0  0  0  0  0  0  0
   36.8931   24.5885   38.2707 H   0  0  0  0  0  0  0  0  0  0  0  0
   37.3731   25.4889   35.9421 H   0  0  0  0  0  0  0  0  0  0  0  0
   40.2882   21.4488   38.9817 H   0  0  0  0  0  0  0  0  0  0  0  0
   43.1647   19.9323   37.3418 H   0  0  0  0  0  0  0  0  0  0  0  0
   42.1147   19.9153   38.7839 H   0  0  0  0  0  0  0  0  0  0  0  0
  1 15  1  0
  2  1  2  0
  3  2  1  0
  4  5  1  0
  4  3  2  0
  5  6  2  0
  6  1  1  0
  7 13  1  0
  7  5  1  0
  8  7  1  0
  9 10  1  0
  9  8  2  0
 10 12  2  0
 11 10  1  0
 12 13  1  0
 13 14  2  0
 15 18  1  0
 16 21  2  0
 17 16  1  0
 18 19  1  0
 18 17  2  0
 19 20  2  0
 20 22  1  0
 20 21  1  0
 23 25  1  0
 23 22  1  0
 24 23  2  0
 26 24  1  0
  2 27  1  0
  3 28  1  0
  8 29  1  0
  9 30  1  0
 11 31  1  0
 11 32  1  0
 15 33  1  0
 15 34  1  0
 16 35  1  0
 17 36  1  0
 22 37  1  0
 25 38  1  0
 25 39  1  0
M  END
>  <minimizedAffinity>  (1) 
-7.28130484

>  <minimizedRMSD>  (1) 
0.297001898

$$$$
