
     RDKit          3D

 35 36  0  0  1  0  0  0  0  0999 V2000
   37.6050   25.3340   34.1340 N   0  0  0  0  0  0  0  0  0  0  0  0
   37.0470   25.3640   32.8080 C   0  0  0  0  0  0  0  0  0  0  0  0
   36.8080   26.8150   32.4990 C   0  0  0  0  0  0  0  0  0  0  0  0
   37.3190   27.5510   33.7240 C   0  0  0  0  0  0  0  0  0  0  0  0
   38.3940   26.5270   34.1890 C   0  0  2  0  0  0  0  0  0  0  0  0
   38.4810   24.2390   34.3590 C   0  0  0  0  0  0  0  0  0  0  0  0
   37.8780   24.0220   38.0940 C   0  0  0  0  0  0  0  0  0  0  0  0
   37.6980   24.3570   36.7480 C   0  0  0  0  0  0  0  0  0  0  0  0
   38.6230   23.9120   35.8140 C   0  0  0  0  0  0  0  0  0  0  0  0
   39.6880   23.1520   36.2650 N   0  0  0  0  0  0  0  0  0  0  0  0
   39.8270   22.8520   37.5610 C   0  0  0  0  0  0  0  0  0  0  0  0
   38.9210   23.2900   38.4660 N   0  0  0  0  0  0  0  0  0  0  0  0
   39.4740   26.5390   33.3690 O   0  0  0  0  0  0  0  0  0  0  0  0
   40.6180   27.1210   33.8270 C   0  0  0  0  0  0  0  0  0  0  0  0
   41.5150   26.2850   34.6720 C   0  0  0  0  0  0  0  0  0  0  0  0
   41.4380   27.4530   32.5590 C   0  0  0  0  0  0  0  0  0  0  0  0
   37.7530   24.9293   32.0851 H   0  0  0  0  0  0  0  0  0  0  0  0
   36.1184   24.7777   32.7454 H   0  0  0  0  0  0  0  0  0  0  0  0
   37.3663   27.1189   31.6013 H   0  0  0  0  0  0  0  0  0  0  0  0
   35.7495   27.0307   32.2915 H   0  0  0  0  0  0  0  0  0  0  0  0
   37.7607   28.5249   33.4662 H   0  0  0  0  0  0  0  0  0  0  0  0
   36.5566   27.8110   34.4731 H   0  0  0  0  0  0  0  0  0  0  0  0
   38.8586   26.7005   35.1708 H   0  0  0  0  0  0  0  0  0  0  0  0
   38.0851   23.3563   33.8354 H   0  0  0  0  0  0  0  0  0  0  0  0
   39.4744   24.5203   33.9796 H   0  0  0  0  0  0  0  0  0  0  0  0
   37.1532   24.3661   38.8465 H   0  0  0  0  0  0  0  0  0  0  0  0
   36.8360   24.9642   36.4344 H   0  0  0  0  0  0  0  0  0  0  0  0
   40.6826   22.2458   37.8932 H   0  0  0  0  0  0  0  0  0  0  0  0
   40.3003   27.9591   34.4647 H   0  0  0  0  0  0  0  0  0  0  0  0
   41.3054   26.4804   35.7340 H   0  0  0  0  0  0  0  0  0  0  0  0
   41.3388   25.2215   34.4531 H   0  0  0  0  0  0  0  0  0  0  0  0
   42.5635   26.5356   34.4531 H   0  0  0  0  0  0  0  0  0  0  0  0
   42.4208   27.8509   32.8517 H   0  0  0  0  0  0  0  0  0  0  0  0
   41.5753   26.5396   31.9616 H   0  0  0  0  0  0  0  0  0  0  0  0
   40.9012   28.2046   31.9616 H   0  0  0  0  0  0  0  0  0  0  0  0
  1  5  1  0
  1  6  1  0
  2  1  1  0
  3  2  1  0
  3  4  1  0
  4  5  1  0
  6  9  1  0
  7 12  2  0
  8  7  1  0
  9 10  1  0
  9  8  2  0
 10 11  2  0
 11 12  1  0
 13 14  1  0
 13  5  1  0
 14 15  1  0
 16 14  1  0
  2 17  1  0
  2 18  1  0
  3 19  1  0
  3 20  1  0
  4 21  1  0
  4 22  1  0
  5 23  1  1
  6 24  1  0
  6 25  1  0
  7 26  1  0
  8 27  1  0
 11 28  1  0
 14 29  1  0
 15 30  1  0
 15 31  1  0
 15 32  1  0
 16 33  1  0
 16 34  1  0
 16 35  1  0
M  ISO  8  17  13  18  13  19  13  20  13  21  13  22  13  23  13  24   8
M  ISO  8  25   8  26  14  27  14  28  14  29   8  30   8  31   8  32   8
M  ISO  3  33   8  34   8  35   8
M  END
>  <minimizedAffinity>  (1) 
-3.92446637

>  <minimizedRMSD>  (1) 
0.635988176

$$$$
