
     RDKit          3D

 42 44  0  0  0  0  0  0  0  0999 V2000
   39.8500   22.4300   34.6220 C   0  0  0  0  0  0  0  0  0  0  0  0
   38.6340   22.1950   34.0140 C   0  0  0  0  0  0  0  0  0  0  0  0
   38.5630   21.3540   32.9270 C   0  0  0  0  0  0  0  0  0  0  0  0
   39.7180   20.7700   32.4810 N   0  0  0  0  0  0  0  0  0  0  0  0
   40.8900   21.0190   33.0960 C   0  0  0  0  0  0  0  0  0  0  0  0
   40.9600   21.8300   34.1460 N   0  0  0  0  0  0  0  0  0  0  0  0
   37.4130   20.9960   32.1810 N   0  0  0  0  0  0  0  0  0  0  0  0
   36.9030   21.6850   31.0280 C   0  0  0  0  0  0  0  0  0  0  0  0
   35.5160   22.1810   31.2980 C   0  0  0  0  0  0  0  0  0  0  0  0
   35.0000   21.5830   32.4690 O   0  0  0  0  0  0  0  0  0  0  0  0
   35.1010   20.2140   32.3580 C   0  0  0  0  0  0  0  0  0  0  0  0
   36.5620   19.8410   32.4940 C   0  0  0  0  0  0  0  0  0  0  0  0
   39.8760   23.3160   35.7440 C   0  0  0  0  0  0  0  0  0  0  0  0
   40.2430   22.9820   36.9270 O   0  0  0  0  0  0  0  0  0  0  0  0
   39.4830   24.7210   35.6700 C   0  0  0  0  0  0  0  0  0  0  0  0
   38.4140   25.2080   36.4080 C   0  0  0  0  0  0  0  0  0  0  0  0
   38.0280   26.5300   36.3460 C   0  0  0  0  0  0  0  0  0  0  0  0
   38.7290   27.4120   35.5170 C   0  0  0  0  0  0  0  0  0  0  0  0
   39.7820   26.9300   34.7900 C   0  0  0  0  0  0  0  0  0  0  0  0
   40.1600   25.5960   34.8640 C   0  0  0  0  0  0  0  0  0  0  0  0
   41.3100   25.2760   34.0990 N   0  0  0  0  0  0  0  0  0  0  0  0
   42.6040   25.8390   34.2210 C   0  0  0  0  0  0  0  0  0  0  0  0
   42.6180   27.1320   34.4660 N   0  0  0  0  0  0  0  0  0  0  0  0
   43.8480   25.1150   34.0940 N   0  0  0  0  0  0  0  0  0  0  0  0
   43.5350   27.6070   34.5670 H   0  0  0  0  0  0  0  0  0  0  0  0
   37.7234   22.6787   34.3972 H   0  0  0  0  0  0  0  0  0  0  0  0
   41.8075   20.5414   32.7215 H   0  0  0  0  0  0  0  0  0  0  0  0
   36.8826   20.9954   30.1713 H   0  0  0  0  0  0  0  0  0  0  0  0
   37.5548   22.5419   30.8026 H   0  0  0  0  0  0  0  0  0  0  0  0
   35.5403   23.2729   31.4288 H   0  0  0  0  0  0  0  0  0  0  0  0
   34.8702   21.9172   30.4475 H   0  0  0  0  0  0  0  0  0  0  0  0
   34.5164   19.7306   33.1546 H   0  0  0  0  0  0  0  0  0  0  0  0
   34.7096   19.8791   31.3860 H   0  0  0  0  0  0  0  0  0  0  0  0
   36.7935   19.0205   31.7989 H   0  0  0  0  0  0  0  0  0  0  0  0
   36.7558   19.5232   33.5291 H   0  0  0  0  0  0  0  0  0  0  0  0
   37.8583   24.5194   37.0615 H   0  0  0  0  0  0  0  0  0  0  0  0
   37.1764   26.8880   36.9431 H   0  0  0  0  0  0  0  0  0  0  0  0
   38.4392   28.4711   35.4513 H   0  0  0  0  0  0  0  0  0  0  0  0
   40.3409   27.6129   34.1333 H   0  0  0  0  0  0  0  0  0  0  0  0
   41.1913   24.5540   33.3741 H   0  0  0  0  0  0  0  0  0  0  0  0
   44.7451   25.6102   34.1988 H   0  0  0  0  0  0  0  0  0  0  0  0
   43.8377   24.1037   33.8986 H   0  0  0  0  0  0  0  0  0  0  0  0
  1 13  1  0
  2  1  2  0
  3  2  1  0
  4  3  2  0
  4  5  1  0
  5  6  2  0
  6  1  1  0
  7 12  1  0
  7  3  1  0
  8  9  1  0
  8  7  1  0
  9 10  1  0
 11 10  1  0
 11 12  1  0
 13 14  2  0
 15 13  1  0
 15 16  2  0
 17 16  1  0
 18 17  2  0
 19 20  2  0
 19 18  1  0
 20 15  1  0
 21 22  1  0
 21 20  1  0
 22 23  2  0
 23 25  1  0
 24 22  1  0
  2 26  1  0
  5 27  1  0
  8 28  1  0
  8 29  1  0
  9 30  1  0
  9 31  1  0
 11 32  1  0
 11 33  1  0
 12 34  1  0
 12 35  1  0
 16 36  1  0
 17 37  1  0
 18 38  1  0
 19 39  1  0
 21 40  1  0
 24 41  1  0
 24 42  1  0
M  ISO  8  26  14  27  14  28  13  29  13  30  13  31  13  32  13  33  13
M  ISO  6  34  13  35  13  36  14  37  14  38  14  39  14
M  END
>  <minimizedAffinity>  (1) 
-5.39552498

>  <minimizedRMSD>  (1) 
0.225128323

$$$$
