
     RDKit          3D

 26 26  0  0  0  0  0  0  0  0999 V2000
   38.6930   24.3530   34.6010 C   0  0  0  0  0  0  0  0  0  0  0  0
   38.6370   27.2670   32.5550 C   0  0  0  0  0  0  0  0  0  0  0  0
   39.1680   26.3330   33.5010 C   0  0  0  0  0  0  0  0  0  0  0  0
   38.2480   25.3640   33.6810 C   0  0  0  0  0  0  0  0  0  0  0  0
   37.0130   25.2940   33.0590 N   0  0  0  0  0  0  0  0  0  0  0  0
   36.6180   26.2130   32.1970 C   0  0  0  0  0  0  0  0  0  0  0  0
   37.4360   27.2030   31.9480 N   0  0  0  0  0  0  0  0  0  0  0  0
   40.4590   26.6330   34.0070 C   0  0  0  0  0  0  0  0  0  0  0  0
   40.3800   27.0270   35.3890 F   0  0  0  0  0  0  0  0  0  0  0  0
   41.0970   27.7740   33.6780 F   0  0  0  0  0  0  0  0  0  0  0  0
   41.2790   25.5390   34.3370 F   0  0  0  0  0  0  0  0  0  0  0  0
   38.1380   24.4650   35.9280 C   0  0  0  0  0  0  0  0  0  0  0  0
   38.4730   23.3740   36.8240 N   0  0  0  0  0  0  0  0  0  0  0  0
   38.2050   23.6630   38.1990 C   0  0  0  0  0  0  0  0  0  0  0  0
   37.9910   24.8490   38.6170 N   0  0  0  0  0  0  0  0  0  0  0  0
   38.1680   22.5780   39.1550 N   0  0  0  0  0  0  0  0  0  0  0  0
   37.7960   25.0310   39.6310 H   0  0  0  0  0  0  0  0  0  0  0  0
   39.7882   24.4186   34.6801 H   0  0  0  0  0  0  0  0  0  0  0  0
   38.3476   23.3896   34.1979 H   0  0  0  0  0  0  0  0  0  0  0  0
   39.2751   28.1251   32.2972 H   0  0  0  0  0  0  0  0  0  0  0  0
   35.6359   26.1484   31.7057 H   0  0  0  0  0  0  0  0  0  0  0  0
   38.5070   25.3999   36.3750 H   0  0  0  0  0  0  0  0  0  0  0  0
   37.0448   24.4416   35.8083 H   0  0  0  0  0  0  0  0  0  0  0  0
   38.8657   22.4782   36.5012 H   0  0  0  0  0  0  0  0  0  0  0  0
   37.9761   22.7729   40.1480 H   0  0  0  0  0  0  0  0  0  0  0  0
   38.3336   21.6106   38.8427 H   0  0  0  0  0  0  0  0  0  0  0  0
  1 12  1  0
  2  3  2  0
  3  4  1  0
  3  8  1  0
  4  1  1  0
  5  4  2  0
  6  5  1  0
  7  6  2  0
  7  2  1  0
  8 11  1  0
  8  9  1  0
 10  8  1  0
 12 13  1  0
 13 14  1  0
 14 15  2  0
 14 16  1  0
 15 17  1  0
  1 18  1  0
  1 19  1  0
  2 20  1  0
  6 21  1  0
 12 22  1  0
 12 23  1  0
 13 24  1  0
 16 25  1  0
 16 26  1  0
M  ISO  6  18   8  19   8  20  14  21  14  22   8  23   8
M  END
>  <minimizedAffinity>  (1) 
-4.11933661

>  <minimizedRMSD>  (1) 
3.83130074

$$$$
