
     RDKit          3D

 30 31  0  0  1  0  0  0  0  0999 V2000
   39.6000   22.7590   37.5990 C   0  0  0  0  0  0  0  0  0  0  0  0
   38.9680   23.7920   36.9000 C   0  0  0  0  0  0  0  0  0  0  0  0
   39.5620   24.2590   35.7270 C   0  0  0  0  0  0  0  0  0  0  0  0
   40.7200   23.6910   35.3200 N   0  0  0  0  0  0  0  0  0  0  0  0
   41.3100   22.6990   36.0050 C   0  0  0  0  0  0  0  0  0  0  0  0
   40.7680   22.2290   37.1330 N   0  0  0  0  0  0  0  0  0  0  0  0
   39.0630   25.2960   34.8920 N   0  0  0  0  0  0  0  0  0  0  0  0
   39.3880   26.7110   35.0630 C   0  0  2  0  0  0  0  0  0  0  0  0
   38.1180   27.4890   35.3080 C   0  0  0  0  0  0  0  0  0  0  0  0
   37.0010   26.6890   35.0030 O   0  0  0  0  0  0  0  0  0  0  0  0
   37.1050   26.1400   33.7370 C   0  0  0  0  0  0  0  0  0  0  0  0
   38.1740   25.0690   33.7730 C   0  0  0  0  0  0  0  0  0  0  0  0
   40.1790   27.2060   33.9750 N   0  0  0  0  0  0  0  0  0  0  0  0
   41.5900   27.0440   34.0810 C   0  0  0  0  0  0  0  0  0  0  0  0
   42.2300   26.4290   35.0320 N   0  0  0  0  0  0  0  0  0  0  0  0
   42.4600   27.5800   33.0890 N   0  0  0  0  0  0  0  0  0  0  0  0
   41.7690   25.9730   35.8430 H   0  0  0  0  0  0  0  0  0  0  0  0
   39.1543   22.3724   38.5274 H   0  0  0  0  0  0  0  0  0  0  0  0
   38.0257   24.2258   37.2659 H   0  0  0  0  0  0  0  0  0  0  0  0
   42.2512   22.2674   35.6336 H   0  0  0  0  0  0  0  0  0  0  0  0
   40.0244   26.8442   35.9503 H   0  0  0  0  0  0  0  0  0  0  0  0
   38.0731   27.7908   36.3648 H   0  0  0  0  0  0  0  0  0  0  0  0
   38.1104   28.3822   34.6661 H   0  0  0  0  0  0  0  0  0  0  0  0
   37.3842   26.9208   33.0142 H   0  0  0  0  0  0  0  0  0  0  0  0
   36.1419   25.7058   33.4306 H   0  0  0  0  0  0  0  0  0  0  0  0
   37.6985   24.0828   33.8795 H   0  0  0  0  0  0  0  0  0  0  0  0
   38.7529   25.1044   32.8383 H   0  0  0  0  0  0  0  0  0  0  0  0
   39.7476   27.6573   33.1557 H   0  0  0  0  0  0  0  0  0  0  0  0
   43.4788   27.4565   33.1764 H   0  0  0  0  0  0  0  0  0  0  0  0
   42.0704   28.0912   32.2841 H   0  0  0  0  0  0  0  0  0  0  0  0
  2  1  2  0
  3  2  1  0
  4  3  2  0
  4  5  1  0
  5  6  2  0
  6  1  1  0
  7  8  1  0
  7  3  1  0
  8  9  1  0
 10  9  1  0
 11 12  1  0
 11 10  1  0
 12  7  1  0
 13 14  1  0
 13  8  1  0
 14 15  2  0
 15 17  1  0
 16 14  1  0
  1 18  1  0
  2 19  1  0
  5 20  1  0
  8 21  1  1
  9 22  1  0
  9 23  1  0
 11 24  1  0
 11 25  1  0
 12 26  1  0
 12 27  1  0
 13 28  1  0
 16 29  1  0
 16 30  1  0
M  ISO  8  18  14  19  14  20  14  21  13  22  13  23  13  24  13  25  13
M  ISO  2  26  13  27  13
M  END
>  <minimizedAffinity>  (1) 
-4.41499805

>  <minimizedRMSD>  (1) 
0.465254754

$$$$
