
     RDKit          3D

 36 38  0  0  1  0  0  0  0  0999 V2000
   38.3860   25.9920   33.8240 C   0  0  0  0  0  0  0  0  0  0  0  0
   37.3740   25.6960   32.8810 N   0  0  0  0  0  0  0  0  0  0  0  0
   36.8800   24.5780   32.3480 C   0  0  0  0  0  0  0  0  0  0  0  0
   35.8580   24.7890   31.4530 C   0  0  0  0  0  0  0  0  0  0  0  0
   35.7140   26.1140   31.4330 N   0  0  0  0  0  0  0  0  0  0  0  0
   36.6270   26.6620   32.2920 C   0  0  0  0  0  0  0  0  0  0  0  0
   36.6960   28.1570   32.4350 C   0  0  1  0  0  0  0  0  0  0  0  0
   35.7350   28.9590   31.6500 C   0  0  0  0  0  0  0  0  0  0  0  0
   35.5150   28.8140   33.1400 C   0  0  2  0  0  0  0  0  0  0  0  0
   35.7360   30.0920   33.8760 C   0  0  0  0  0  0  0  0  0  0  0  0
   35.9420   30.0850   35.1200 O   0  0  0  0  0  0  0  0  0  0  0  0
   35.7110   31.2880   33.1700 O   0  0  0  0  0  0  0  0  0  0  0  0
   37.9030   26.0050   35.2270 C   0  0  1  0  0  0  0  0  0  0  0  0
   38.5090   23.5360   38.0250 C   0  0  0  0  0  0  0  0  0  0  0  0
   37.9040   24.5950   37.3270 C   0  0  0  0  0  0  0  0  0  0  0  0
   38.4800   24.9160   36.0470 C   0  0  0  0  0  0  0  0  0  0  0  0
   39.5630   24.1960   35.5740 N   0  0  0  0  0  0  0  0  0  0  0  0
   40.0900   23.2030   36.2850 C   0  0  0  0  0  0  0  0  0  0  0  0
   39.5620   22.8660   37.5220 N   0  0  0  0  0  0  0  0  0  0  0  0
   38.1970   27.3570   35.8700 C   0  0  0  0  0  0  0  0  0  0  0  0
   38.8010   26.9834   33.5896 H   0  0  0  0  0  0  0  0  0  0  0  0
   39.1406   25.1952   33.7492 H   0  0  0  0  0  0  0  0  0  0  0  0
   37.2567   23.5761   32.6018 H   0  0  0  0  0  0  0  0  0  0  0  0
   35.2901   24.0377   30.8846 H   0  0  0  0  0  0  0  0  0  0  0  0
   37.7891   28.1723   32.5568 H   0  0  0  0  0  0  0  0  0  0  0  0
   36.0439   29.9298   31.2352 H   0  0  0  0  0  0  0  0  0  0  0  0
   35.1198   28.7680   30.7584 H   0  0  0  0  0  0  0  0  0  0  0  0
   34.7440   28.4374   33.8283 H   0  0  0  0  0  0  0  0  0  0  0  0
   35.8559   32.1454   33.6434 H   0  0  0  0  0  0  0  0  0  0  0  0
   36.8167   25.8355   35.1912 H   0  0  0  0  0  0  0  0  0  0  0  0
   38.1111   23.2470   39.0090 H   0  0  0  0  0  0  0  0  0  0  0  0
   37.0427   25.1453   37.7338 H   0  0  0  0  0  0  0  0  0  0  0  0
   40.9511   22.6450   35.8887 H   0  0  0  0  0  0  0  0  0  0  0  0
   38.1748   27.2548   36.9650 H   0  0  0  0  0  0  0  0  0  0  0  0
   39.1917   27.7046   35.5543 H   0  0  0  0  0  0  0  0  0  0  0  0
   37.4365   28.0863   35.5543 H   0  0  0  0  0  0  0  0  0  0  0  0
  1 13  1  0
  2  1  1  0
  3  2  1  0
  4  3  2  0
  5  4  1  0
  5  6  2  0
  6  7  1  0
  6  2  1  0
  7  9  1  0
  8  7  1  0
  8  9  1  0
  9 10  1  0
 10 11  2  0
 12 10  1  0
 13 20  1  0
 13 16  1  0
 15 14  2  0
 16 15  1  0
 17 16  2  0
 17 18  1  0
 18 19  2  0
 19 14  1  0
  1 21  1  0
  1 22  1  0
  3 23  1  0
  4 24  1  0
  7 25  1  1
  8 26  1  0
  8 27  1  0
  9 28  1  6
 12 29  1  0
 13 30  1  6
 14 31  1  0
 15 32  1  0
 18 33  1  0
 20 34  1  0
 20 35  1  0
 20 36  1  0
M  ISO  8  21   8  22   8  23  14  24  14  25  13  26  13  27  13  28  13
M  ISO  8  29   3  30   8  31  14  32  14  33  14  34   8  35   8  36   8
M  END
>  <minimizedAffinity>  (1) 
-4.80051136

>  <minimizedRMSD>  (1) 
0.571419418

$$$$
