
     RDKit          3D

 27 29  0  0  1  0  0  0  0  0999 V2000
   37.8210   23.4440   33.8510 C   0  0  0  0  0  0  0  0  0  0  0  0
   37.8840   24.6620   33.1850 C   0  0  0  0  0  0  0  0  0  0  0  0
   37.1650   24.4420   32.0400 N   0  0  0  0  0  0  0  0  0  0  0  0
   36.7360   23.1990   32.0630 C   0  0  0  0  0  0  0  0  0  0  0  0
   37.1190   22.5380   33.1710 N   0  0  0  0  0  0  0  0  0  0  0  0
   38.4470   23.1680   35.1440 C   0  0  0  0  0  0  0  0  0  0  0  0
   39.6600   22.4780   35.2080 C   0  0  0  0  0  0  0  0  0  0  0  0
   40.2210   22.2380   36.4820 C   0  0  0  0  0  0  0  0  0  0  0  0
   39.5560   22.6850   37.5550 N   0  0  0  0  0  0  0  0  0  0  0  0
   38.3740   23.3550   37.4600 C   0  0  0  0  0  0  0  0  0  0  0  0
   37.8170   23.5970   36.2570 N   0  0  0  0  0  0  0  0  0  0  0  0
   36.7930   21.1710   33.4580 C   0  0  1  0  0  0  0  0  0  0  0  0
   35.7030   20.7710   34.3310 C   0  0  0  0  0  0  0  0  0  0  0  0
   35.4930   20.7180   32.8220 C   0  0  2  0  0  0  0  0  0  0  0  0
   35.5530   19.3340   32.2450 C   0  0  0  0  0  0  0  0  0  0  0  0
   36.6720   18.7780   32.0560 O   0  0  0  0  0  0  0  0  0  0  0  0
   34.3570   18.6920   31.9280 O   0  0  0  0  0  0  0  0  0  0  0  0
   38.3914   25.5849   33.5024 H   0  0  0  0  0  0  0  0  0  0  0  0
   36.1298   22.7484   31.2633 H   0  0  0  0  0  0  0  0  0  0  0  0
   40.1634   22.1318   34.2933 H   0  0  0  0  0  0  0  0  0  0  0  0
   41.1747   21.7005   36.5894 H   0  0  0  0  0  0  0  0  0  0  0  0
   37.8693   23.7018   38.3738 H   0  0  0  0  0  0  0  0  0  0  0  0
   37.8537   20.8798   33.4722 H   0  0  0  0  0  0  0  0  0  0  0  0
   35.7778   19.8361   34.9057 H   0  0  0  0  0  0  0  0  0  0  0  0
   35.1704   21.2478   35.1670 H   0  0  0  0  0  0  0  0  0  0  0  0
   34.7683   21.1303   32.1045 H   0  0  0  0  0  0  0  0  0  0  0  0
   34.3715   17.7787   31.5462 H   0  0  0  0  0  0  0  0  0  0  0  0
  1  6  1  0
  2  1  2  0
  3  4  2  0
  3  2  1  0
  4  5  1  0
  5 12  1  0
  5  1  1  0
  6  7  2  0
  6 11  1  0
  7  8  1  0
  8  9  2  0
 10  9  1  0
 11 10  2  0
 12 13  1  0
 14 12  1  0
 14 13  1  0
 15 14  1  0
 16 15  2  0
 17 15  1  0
  2 18  1  0
  4 19  1  0
  7 20  1  0
  8 21  1  0
 10 22  1  0
 12 23  1  6
 13 24  1  0
 13 25  1  0
 14 26  1  1
 17 27  1  0
M  ISO  8  18  14  19  14  20  14  21  14  22  14  23  13  24  13  25  13
M  ISO  2  26  13  27   3
M  END
>  <minimizedAffinity>  (1) 
-4.49066067

>  <minimizedRMSD>  (1) 
1.11367595

$$$$
