
     RDKit          3D

 23 24  0  0  0  0  0  0  0  0999 V2000
   39.8860   22.7120   37.0900 C   0  0  0  0  0  0  0  0  0  0  0  0
   39.2770   23.3820   38.1890 C   0  0  0  0  0  0  0  0  0  0  0  0
   37.8790   23.4460   38.2050 C   0  0  0  0  0  0  0  0  0  0  0  0
   37.1820   22.8770   37.1880 N   0  0  0  0  0  0  0  0  0  0  0  0
   37.8120   22.2460   36.1530 C   0  0  0  0  0  0  0  0  0  0  0  0
   39.1540   22.1600   36.1000 N   0  0  0  0  0  0  0  0  0  0  0  0
   37.0790   21.6480   35.0860 N   0  0  0  0  0  0  0  0  0  0  0  0
   37.5830   21.8450   33.8310 C   0  0  0  0  0  0  0  0  0  0  0  0
   36.8790   21.2690   32.7830 C   0  0  0  0  0  0  0  0  0  0  0  0
   35.7280   20.5400   33.0420 C   0  0  0  0  0  0  0  0  0  0  0  0
   35.1030   20.0260   32.0790 O   0  0  0  0  0  0  0  0  0  0  0  0
   35.2920   20.3870   34.2960 N   0  0  0  0  0  0  0  0  0  0  0  0
   35.9660   20.9420   35.3330 C   0  0  0  0  0  0  0  0  0  0  0  0
   35.6130   20.8380   36.5290 O   0  0  0  0  0  0  0  0  0  0  0  0
   37.4140   21.4780   31.4430 C   0  0  0  0  0  0  0  0  0  0  0  0
   37.8240   22.5800   30.9920 O   0  0  0  0  0  0  0  0  0  0  0  0
   37.5360   20.4770   30.4990 O   0  0  0  0  0  0  0  0  0  0  0  0
   40.9830   22.6425   37.0469 H   0  0  0  0  0  0  0  0  0  0  0  0
   39.8802   23.8306   38.9920 H   0  0  0  0  0  0  0  0  0  0  0  0
   37.3527   23.9497   39.0292 H   0  0  0  0  0  0  0  0  0  0  0  0
   38.4990   22.4297   33.6605 H   0  0  0  0  0  0  0  0  0  0  0  0
   34.4364   19.8426   34.4761 H   0  0  0  0  0  0  0  0  0  0  0  0
   37.9077   20.6826   29.6048 H   0  0  0  0  0  0  0  0  0  0  0  0
  1  2  2  0
  2  3  1  0
  4  3  2  0
  5  4  1  0
  6  5  2  0
  6  1  1  0
  7 13  1  0
  7  5  1  0
  8  7  1  0
  9 10  1  0
  9  8  2  0
 10 12  1  0
 11 10  2  0
 12 13  1  0
 13 14  2  0
 15  9  1  0
 16 15  2  0
 17 15  1  0
  1 18  1  0
  2 19  1  0
  3 20  1  0
  8 21  1  0
 12 22  1  0
 17 23  1  0
M  ISO  6  18  14  19  14  20  14  21  14  22   9  23   3
M  END
>  <minimizedAffinity>  (1) 
-4.98129606

>  <minimizedRMSD>  (1) 
0.251634926

$$$$
