
     RDKit          3D

 26 27  0  0  0  0  0  0  0  0999 V2000
   38.1300   21.0480   32.0000 C   0  0  0  0  0  0  0  0  0  0  0  0
   37.0470   21.1550   32.8160 C   0  0  0  0  0  0  0  0  0  0  0  0
   37.2290   21.6200   34.0980 C   0  0  0  0  0  0  0  0  0  0  0  0
   38.4580   21.9800   34.5820 C   0  0  0  0  0  0  0  0  0  0  0  0
   39.5130   21.8530   33.7180 C   0  0  0  0  0  0  0  0  0  0  0  0
   39.4040   21.3930   32.4200 C   0  0  0  0  0  0  0  0  0  0  0  0
   39.9400   22.7790   37.8470 C   0  0  0  0  0  0  0  0  0  0  0  0
   38.8440   23.3680   38.5360 C   0  0  0  0  0  0  0  0  0  0  0  0
   37.6270   23.4770   37.8520 C   0  0  0  0  0  0  0  0  0  0  0  0
   37.5580   23.0180   36.5810 N   0  0  0  0  0  0  0  0  0  0  0  0
   38.6240   22.4640   35.9630 C   0  0  0  0  0  0  0  0  0  0  0  0
   39.8220   22.3320   36.5700 N   0  0  0  0  0  0  0  0  0  0  0  0
   37.8860   20.4470   30.3950 S   0  0  0  0  0  0  0  0  0  0  0  0
   39.1670   20.4750   29.5910 O   0  0  0  0  0  0  0  0  0  0  0  0
   37.3890   19.0170   30.5090 O   0  0  0  0  0  0  0  0  0  0  0  0
   35.6750   20.8600   32.5230 C   0  0  0  0  0  0  0  0  0  0  0  0
   34.6890   21.6370   32.4960 O   0  0  0  0  0  0  0  0  0  0  0  0
   34.7430   19.9240   32.1850 O   0  0  0  0  0  0  0  0  0  0  0  0
   36.3540   21.7058   34.7591 H   0  0  0  0  0  0  0  0  0  0  0  0
   40.5121   22.1357   34.0812 H   0  0  0  0  0  0  0  0  0  0  0  0
   40.2784   21.3057   31.7583 H   0  0  0  0  0  0  0  0  0  0  0  0
   40.9076   22.6831   38.3614 H   0  0  0  0  0  0  0  0  0  0  0  0
   38.9488   23.7257   39.5709 H   0  0  0  0  0  0  0  0  0  0  0  0
   36.7473   23.9255   38.3368 H   0  0  0  0  0  0  0  0  0  0  0  0
   36.9766   21.2405   29.7468 H   0  0  0  0  0  0  0  0  0  0  0  0
   33.7956   20.1875   32.0709 H   0  0  0  0  0  0  0  0  0  0  0  0
  1  6  2  0
  1  2  1  0
  2  3  2  0
  3  4  1  0
  4 11  1  0
  5  4  2  0
  6  5  1  0
  7  8  2  0
  9  8  1  0
 10  9  2  0
 11 12  2  0
 11 10  1  0
 12  7  1  0
 13 15  2  0
 13  1  1  0
 14 13  2  0
 16  2  1  0
 17 16  2  0
 18 16  1  0
  3 19  1  0
  5 20  1  0
  6 21  1  0
  7 22  1  0
  8 23  1  0
  9 24  1  0
 13 25  1  0
 18 26  1  0
M  ISO  8  19  14  20  14  21  14  22  14  23  14  24  14  25  11  26   3
M  END
>  <minimizedAffinity>  (1) 
-4.15307236

>  <minimizedRMSD>  (1) 
2.13716483

$$$$
