
     RDKit          3D

 35 37  0  0  0  0  0  0  0  0999 V2000
   39.0770   20.9830   31.5940 C   0  0  0  0  0  0  0  0  0  0  0  0
   37.9370   20.9120   32.3250 C   0  0  0  0  0  0  0  0  0  0  0  0
   37.9080   21.3650   33.6240 C   0  0  0  0  0  0  0  0  0  0  0  0
   39.0190   21.9010   34.2320 C   0  0  0  0  0  0  0  0  0  0  0  0
   40.2010   21.9790   33.4840 C   0  0  0  0  0  0  0  0  0  0  0  0
   40.2540   21.5310   32.1730 C   0  0  0  0  0  0  0  0  0  0  0  0
   39.8760   22.7400   37.7030 C   0  0  0  0  0  0  0  0  0  0  0  0
   38.7330   23.3720   38.1630 C   0  0  0  0  0  0  0  0  0  0  0  0
   37.6860   23.5010   37.2730 C   0  0  0  0  0  0  0  0  0  0  0  0
   37.8130   23.0140   36.0110 N   0  0  0  0  0  0  0  0  0  0  0  0
   38.9820   22.3930   35.6140 C   0  0  0  0  0  0  0  0  0  0  0  0
   39.9900   22.2570   36.4370 N   0  0  0  0  0  0  0  0  0  0  0  0
   39.1890   20.2840   30.0550 S   0  0  0  0  0  0  0  0  0  0  0  0
   39.0790   21.4110   28.9850 O   0  0  0  0  0  0  0  0  0  0  0  0
   40.5130   19.6070   29.9780 O   0  0  0  0  0  0  0  0  0  0  0  0
   38.3280   19.0390   29.3860 C   0  0  0  0  0  0  0  0  0  0  0  0
   38.3840   17.6900   29.8110 C   0  0  0  0  0  0  0  0  0  0  0  0
   37.6900   16.6260   29.2890 C   0  0  0  0  0  0  0  0  0  0  0  0
   36.8810   16.8940   28.2820 N   0  0  0  0  0  0  0  0  0  0  0  0
   36.7630   18.1230   27.8200 C   0  0  0  0  0  0  0  0  0  0  0  0
   37.4420   19.1270   28.3390 N   0  0  0  0  0  0  0  0  0  0  0  0
   36.4260   20.2920   31.6290 S   0  0  0  0  0  0  0  0  0  0  0  0
   34.9660   20.9370   32.4580 C   0  0  0  0  0  0  0  0  0  0  0  0
   33.8140   20.3540   32.0120 F   0  0  0  0  0  0  0  0  0  0  0  0
   35.0770   20.5670   33.7920 F   0  0  0  0  0  0  0  0  0  0  0  0
   34.9390   22.3050   32.4490 F   0  0  0  0  0  0  0  0  0  0  0  0
   36.9689   21.2964   34.1926 H   0  0  0  0  0  0  0  0  0  0  0  0
   41.1045   22.4039   33.9457 H   0  0  0  0  0  0  0  0  0  0  0  0
   41.1865   21.5981   31.5935 H   0  0  0  0  0  0  0  0  0  0  0  0
   40.7270   22.6239   38.3902 H   0  0  0  0  0  0  0  0  0  0  0  0
   38.6626   23.7543   39.1920 H   0  0  0  0  0  0  0  0  0  0  0  0
   36.7538   23.9954   37.5837 H   0  0  0  0  0  0  0  0  0  0  0  0
   39.0577   17.4695   30.6522 H   0  0  0  0  0  0  0  0  0  0  0  0
   37.8024   15.6072   29.6883 H   0  0  0  0  0  0  0  0  0  0  0  0
   36.0802   18.3160   26.9795 H   0  0  0  0  0  0  0  0  0  0  0  0
  1  6  1  0
  1  2  2  0
  2  3  1  0
  3  4  2  0
  4 11  1  0
  5  4  1  0
  6  5  2  0
  7  8  2  0
  9  8  1  0
 10  9  2  0
 11 10  1  0
 11 12  2  0
 12  7  1  0
 13  1  1  0
 14 13  2  0
 15 13  2  0
 16 17  2  0
 16 13  1  0
 18 17  1  0
 19 18  2  0
 20 19  1  0
 20 21  2  0
 21 16  1  0
 22  2  1  0
 22 23  1  0
 23 25  1  0
 24 23  1  0
 26 23  1  0
  3 27  1  0
  5 28  1  0
  6 29  1  0
  7 30  1  0
  8 31  1  0
  9 32  1  0
 17 33  1  0
 18 34  1  0
 20 35  1  0
M  ISO  8  27  14  28  14  29  14  30  14  31  14  32  14  33  14  34  14
M  ISO  1  35  14
M  END
>  <minimizedAffinity>  (1) 
-4.66532755

>  <minimizedRMSD>  (1) 
1.85523522

$$$$
