
     RDKit          3D

 27 29  0  0  0  0  0  0  0  0999 V2000
   41.9250   22.0780   36.8890 C   0  0  0  0  0  0  0  0  0  0  0  0
   42.5200   23.2130   36.3490 C   0  0  0  0  0  0  0  0  0  0  0  0
   43.7600   22.9410   35.9420 N   0  0  0  0  0  0  0  0  0  0  0  0
   44.0550   21.6490   36.1790 C   0  0  0  0  0  0  0  0  0  0  0  0
   45.1710   20.8580   35.9630 C   0  0  0  0  0  0  0  0  0  0  0  0
   45.1690   19.5240   36.3270 C   0  0  0  0  0  0  0  0  0  0  0  0
   44.0270   18.9760   36.9200 C   0  0  0  0  0  0  0  0  0  0  0  0
   42.9170   19.7760   37.1330 C   0  0  0  0  0  0  0  0  0  0  0  0
   42.9190   21.1080   36.7680 C   0  0  0  0  0  0  0  0  0  0  0  0
   40.6540   21.9810   37.4100 O   0  0  0  0  0  0  0  0  0  0  0  0
   39.6670   22.9060   37.2700 C   0  0  0  0  0  0  0  0  0  0  0  0
   38.9810   23.2610   38.4530 C   0  0  0  0  0  0  0  0  0  0  0  0
   37.9510   24.2230   38.3310 C   0  0  0  0  0  0  0  0  0  0  0  0
   37.6850   24.7360   37.1130 N   0  0  0  0  0  0  0  0  0  0  0  0
   38.3780   24.3550   36.0160 C   0  0  0  0  0  0  0  0  0  0  0  0
   39.3540   23.4600   36.0680 N   0  0  0  0  0  0  0  0  0  0  0  0
   38.0290   24.9590   34.7330 C   0  0  0  0  0  0  0  0  0  0  0  0
   37.3260   25.9680   34.5560 O   0  0  0  0  0  0  0  0  0  0  0  0
   42.0354   24.1973   36.2689 H   0  0  0  0  0  0  0  0  0  0  0  0
   44.4003   23.6215   35.5085 H   0  0  0  0  0  0  0  0  0  0  0  0
   46.0670   21.2948   35.4977 H   0  0  0  0  0  0  0  0  0  0  0  0
   46.0574   18.8995   36.1518 H   0  0  0  0  0  0  0  0  0  0  0  0
   44.0107   17.9165   37.2152 H   0  0  0  0  0  0  0  0  0  0  0  0
   42.0197   19.3439   37.6002 H   0  0  0  0  0  0  0  0  0  0  0  0
   39.2359   22.8104   39.4236 H   0  0  0  0  0  0  0  0  0  0  0  0
   37.3783   24.5462   39.2128 H   0  0  0  0  0  0  0  0  0  0  0  0
   38.4291   24.4711   33.8319 H   0  0  0  0  0  0  0  0  0  0  0  0
  1 10  1  0
  2  1  2  0
  3  4  1  0
  3  2  1  0
  4  9  2  0
  5  4  1  0
  5  6  2  0
  6  7  1  0
  7  8  2  0
  9  1  1  0
  9  8  1  0
 11 10  1  0
 11 12  2  0
 13 12  1  0
 14 13  2  0
 15 16  2  0
 15 14  1  0
 16 11  1  0
 17 15  1  0
 18 17  2  0
  2 19  1  0
  3 20  1  0
  5 21  1  0
  6 22  1  0
  7 23  1  0
  8 24  1  0
 12 25  1  0
 13 26  1  0
 17 27  1  0
M  ISO  8  19  14  20   9  21  14  22  14  23  14  24  14  25  14  26  14
M  ISO  1  27   6
M  END
>  <minimizedAffinity>  (1) 
-4.38001251

>  <minimizedRMSD>  (1) 
0.756374836

$$$$
