
     RDKit          3D

 51 55  0  0  0  0  0  0  0  0999 V2000
   61.5020   57.9700   26.1710 C   0  0  0  0  0  0  0  0  0  0  0  0
   65.1020   56.7390   26.0240 C   0  0  0  0  0  0  0  0  0  0  0  0
   63.8160   57.0930   25.5900 C   0  0  0  0  0  0  0  0  0  0  0  0
   62.8850   57.5700   26.5270 C   0  0  0  0  0  0  0  0  0  0  0  0
   63.3110   57.6610   27.8410 N   0  0  0  0  0  0  0  0  0  0  0  0
   64.5580   57.3080   28.2050 C   0  0  0  0  0  0  0  0  0  0  0  0
   65.4530   56.8500   27.3120 N   0  0  0  0  0  0  0  0  0  0  0  0
   64.9380   57.4300   29.6120 C   0  0  0  0  0  0  0  0  0  0  0  0
   64.0860   58.0240   30.5150 C   0  0  0  0  0  0  0  0  0  0  0  0
   64.4980   58.1110   31.8270 C   0  0  0  0  0  0  0  0  0  0  0  0
   65.6960   57.6340   32.2310 N   0  0  0  0  0  0  0  0  0  0  0  0
   66.5050   57.0620   31.3380 C   0  0  0  0  0  0  0  0  0  0  0  0
   66.1330   56.9580   30.0360 N   0  0  0  0  0  0  0  0  0  0  0  0
   60.6320   56.8090   25.8230 C   0  0  0  0  0  0  0  0  0  0  0  0
   61.5750   58.8740   24.9560 C   0  0  0  0  0  0  0  0  0  0  0  0
   60.8770   58.7570   27.3090 C   0  0  0  0  0  0  0  0  0  0  0  0
   60.0820   59.9050   26.8730 C   0  0  0  0  0  0  0  0  0  0  0  0
   60.3380   61.1830   27.3300 C   0  0  0  0  0  0  0  0  0  0  0  0
   59.4130   62.0220   26.7280 C   0  0  0  0  0  0  0  0  0  0  0  0
   58.6260   61.2910   25.9400 N   0  0  0  0  0  0  0  0  0  0  0  0
   59.0490   60.0600   26.0520 N   0  0  0  0  0  0  0  0  0  0  0  0
   57.5420   61.7380   25.1320 C   0  0  0  0  0  0  0  0  0  0  0  0
   57.4570   61.0930   23.9630 N   0  0  0  0  0  0  0  0  0  0  0  0
   56.4510   61.4420   23.1100 C   0  0  0  0  0  0  0  0  0  0  0  0
   55.5200   62.3920   23.3340 N   0  0  0  0  0  0  0  0  0  0  0  0
   55.6240   63.0380   24.5310 C   0  0  0  0  0  0  0  0  0  0  0  0
   54.7250   64.0370   24.8840 C   0  0  0  0  0  0  0  0  0  0  0  0
   54.8460   64.6880   26.1090 C   0  0  0  0  0  0  0  0  0  0  0  0
   55.8780   64.3280   26.9840 C   0  0  0  0  0  0  0  0  0  0  0  0
   56.7860   63.3300   26.6470 C   0  0  0  0  0  0  0  0  0  0  0  0
   56.6270   62.7140   25.4220 C   0  0  0  0  0  0  0  0  0  0  0  0
   65.8347   56.3639   25.2943 H   0  0  0  0  0  0  0  0  0  0  0  0
   63.5403   56.9982   24.5293 H   0  0  0  0  0  0  0  0  0  0  0  0
   63.1080   58.4165   30.1996 H   0  0  0  0  0  0  0  0  0  0  0  0
   63.8332   58.5819   32.5661 H   0  0  0  0  0  0  0  0  0  0  0  0
   67.4819   56.6712   31.6589 H   0  0  0  0  0  0  0  0  0  0  0  0
   60.2731   56.3301   26.7460 H   0  0  0  0  0  0  0  0  0  0  0  0
   59.7720   57.1590   25.2332 H   0  0  0  0  0  0  0  0  0  0  0  0
   61.2095   56.0819   25.2332 H   0  0  0  0  0  0  0  0  0  0  0  0
   61.6595   59.9210   25.2825 H   0  0  0  0  0  0  0  0  0  0  0  0
   62.4544   58.6061   24.3520 H   0  0  0  0  0  0  0  0  0  0  0  0
   60.6640   58.7507   24.3520 H   0  0  0  0  0  0  0  0  0  0  0  0
   60.2235   58.0804   27.8793 H   0  0  0  0  0  0  0  0  0  0  0  0
   61.7056   59.1550   27.9131 H   0  0  0  0  0  0  0  0  0  0  0  0
   61.1265   61.4790   28.0376 H   0  0  0  0  0  0  0  0  0  0  0  0
   59.3409   63.1096   26.8762 H   0  0  0  0  0  0  0  0  0  0  0  0
   56.3941   60.9003   22.1543 H   0  0  0  0  0  0  0  0  0  0  0  0
   53.9150   64.3145   24.1934 H   0  0  0  0  0  0  0  0  0  0  0  0
   54.1353   65.4801   26.3875 H   0  0  0  0  0  0  0  0  0  0  0  0
   55.9720   64.8420   27.9520 H   0  0  0  0  0  0  0  0  0  0  0  0
   57.5991   63.0427   27.3299 H   0  0  0  0  0  0  0  0  0  0  0  0
  1  4  1  0
  1 16  1  0
  2  7  2  0
  3  2  1  0
  3  4  2  0
  4  5  1  0
  5  6  2  0
  6  8  1  0
  7  6  1  0
  8 13  1  0
  8  9  2  0
  9 10  1  0
 10 11  2  0
 12 11  1  0
 13 12  2  0
 14  1  1  0
 15  1  1  0
 17 16  1  0
 17 18  1  0
 19 18  2  0
 20 21  1  0
 20 19  1  0
 21 17  2  0
 22 31  1  0
 22 20  1  0
 23 22  2  0
 24 25  2  0
 24 23  1  0
 25 26  1  0
 26 27  1  0
 26 31  2  0
 27 28  2  0
 28 29  1  0
 30 29  2  0
 31 30  1  0
  2 32  1  0
  3 33  1  0
  9 34  1  0
 10 35  1  0
 12 36  1  0
 14 37  1  0
 14 38  1  0
 14 39  1  0
 15 40  1  0
 15 41  1  0
 15 42  1  0
 16 43  1  0
 16 44  1  0
 18 45  1  0
 19 46  1  0
 24 47  1  0
 27 48  1  0
 28 49  1  0
 29 50  1  0
 30 51  1  0
M  END
>  <Score>  (1) 
-7.53723

$$$$
