
     RDKit          3D

 47 52  0  0  1  0  0  0  0  0999 V2000
   61.7680   56.9490   26.3900 N   0  0  0  0  0  0  0  0  0  0  0  0
   61.3250   55.6560   25.8870 C   0  0  0  0  0  0  0  0  0  0  0  0
   60.3390   55.9900   24.8100 C   0  0  0  0  0  0  0  0  0  0  0  0
   59.6830   57.2280   25.4060 C   0  0  0  0  0  0  0  0  0  0  0  0
   61.0620   57.9930   25.7720 C   0  0  1  0  0  0  0  0  0  0  0  0
   64.1170   57.3080   27.0490 C   0  0  0  0  0  0  0  0  0  0  0  0
   62.7540   57.1050   27.3830 C   0  0  0  0  0  0  0  0  0  0  0  0
   62.4580   57.0910   28.7460 C   0  0  0  0  0  0  0  0  0  0  0  0
   63.4420   57.2680   29.6410 N   0  0  0  0  0  0  0  0  0  0  0  0
   64.7050   57.4560   29.2780 C   0  0  0  0  0  0  0  0  0  0  0  0
   65.0640   57.4790   27.9910 N   0  0  0  0  0  0  0  0  0  0  0  0
   65.7070   57.6380   30.2720 N   0  0  0  0  0  0  0  0  0  0  0  0
   66.6450   56.7790   30.7270 C   0  0  0  0  0  0  0  0  0  0  0  0
   67.3990   57.3740   31.6870 N   0  0  0  0  0  0  0  0  0  0  0  0
   66.9720   58.6320   31.8790 C   0  0  0  0  0  0  0  0  0  0  0  0
   67.2660   59.7380   32.6580 C   0  0  0  0  0  0  0  0  0  0  0  0
   66.5680   60.8930   32.5580 N   0  0  0  0  0  0  0  0  0  0  0  0
   65.5470   61.0070   31.6820 C   0  0  0  0  0  0  0  0  0  0  0  0
   65.2600   59.9340   30.9250 N   0  0  0  0  0  0  0  0  0  0  0  0
   65.9300   58.7640   30.9940 C   0  0  0  0  0  0  0  0  0  0  0  0
   60.6980   59.1640   26.5520 C   0  0  0  0  0  0  0  0  0  0  0  0
   60.9810   59.5880   27.8540 C   0  0  0  0  0  0  0  0  0  0  0  0
   60.4220   60.7980   28.1060 N   0  0  0  0  0  0  0  0  0  0  0  0
   59.7810   61.1820   26.9950 C   0  0  0  0  0  0  0  0  0  0  0  0
   59.0840   62.3470   26.7990 C   0  0  0  0  0  0  0  0  0  0  0  0
   58.4990   62.5930   25.5950 C   0  0  0  0  0  0  0  0  0  0  0  0
   58.6350   61.6530   24.6230 C   0  0  0  0  0  0  0  0  0  0  0  0
   59.3400   60.4800   24.8370 C   0  0  0  0  0  0  0  0  0  0  0  0
   59.9350   60.2100   26.0350 C   0  0  0  0  0  0  0  0  0  0  0  0
   62.1723   55.0878   25.4757 H   0  0  0  0  0  0  0  0  0  0  0  0
   60.8855   55.0285   26.6764 H   0  0  0  0  0  0  0  0  0  0  0  0
   59.6121   55.1783   24.6594 H   0  0  0  0  0  0  0  0  0  0  0  0
   60.7822   56.1411   23.8146 H   0  0  0  0  0  0  0  0  0  0  0  0
   59.0729   57.7789   24.6751 H   0  0  0  0  0  0  0  0  0  0  0  0
   58.9651   57.0700   26.2243 H   0  0  0  0  0  0  0  0  0  0  0  0
   61.6930   58.4253   24.9814 H   0  0  0  0  0  0  0  0  0  0  0  0
   64.4096   57.3263   25.9888 H   0  0  0  0  0  0  0  0  0  0  0  0
   61.4233   56.9357   29.0855 H   0  0  0  0  0  0  0  0  0  0  0  0
   66.7787   55.7467   30.3713 H   0  0  0  0  0  0  0  0  0  0  0  0
   68.0928   59.6760   33.3809 H   0  0  0  0  0  0  0  0  0  0  0  0
   64.9728   61.9409   31.5914 H   0  0  0  0  0  0  0  0  0  0  0  0
   61.5785   59.0155   28.5788 H   0  0  0  0  0  0  0  0  0  0  0  0
   60.4800   61.3244   28.9894 H   0  0  0  0  0  0  0  0  0  0  0  0
   58.9980   63.0812   27.6136 H   0  0  0  0  0  0  0  0  0  0  0  0
   57.9357   63.5205   25.4149 H   0  0  0  0  0  0  0  0  0  0  0  0
   58.1730   61.8283   23.6402 H   0  0  0  0  0  0  0  0  0  0  0  0
   59.4223   59.7475   24.0205 H   0  0  0  0  0  0  0  0  0  0  0  0
  1  7  1  0
  2  1  1  0
  3  4  1  0
  3  2  1  0
  4  5  1  0
  5  1  1  0
  5 21  1  0
  6  7  2  0
  6 11  1  0
  7  8  1  0
  8  9  2  0
 10  9  1  0
 10 12  1  0
 11 10  2  0
 12 13  1  0
 12 20  1  0
 13 14  2  0
 14 15  1  0
 15 16  2  0
 17 16  1  0
 18 17  2  0
 19 20  2  0
 19 18  1  0
 20 15  1  0
 21 22  2  0
 22 23  1  0
 24 23  1  0
 25 24  2  0
 26 25  1  0
 27 28  1  0
 27 26  2  0
 28 29  2  0
 29 21  1  0
 29 24  1  0
  2 30  1  0
  2 31  1  0
  3 32  1  0
  3 33  1  0
  4 34  1  0
  4 35  1  0
  5 36  1  6
  6 37  1  0
  8 38  1  0
 13 39  1  0
 16 40  1  0
 18 41  1  0
 22 42  1  0
 23 43  1  0
 25 44  1  0
 26 45  1  0
 27 46  1  0
 28 47  1  0
M  END
>  <Score>  (1) 
-7.46191

$$$$
