
     RDKit          3D

 48 51  0  0  1  0  0  0  0  0999 V2000
   60.8330   56.7850   25.0230 C   0  0  0  0  0  0  0  0  0  0  0  0
   59.4280   56.5440   24.8540 N   0  0  0  0  0  0  0  0  0  0  0  0
   59.0470   55.1930   24.9630 C   0  0  0  0  0  0  0  0  0  0  0  0
   57.5690   55.1030   24.5720 C   0  0  0  0  0  0  0  0  0  0  0  0
   56.7740   55.9660   25.2940 O   0  0  0  0  0  0  0  0  0  0  0  0
   57.1830   57.2740   25.2920 C   0  0  0  0  0  0  0  0  0  0  0  0
   58.6160   57.3970   25.7360 C   0  0  2  0  0  0  0  0  0  0  0  0
   59.0930   58.7880   25.7260 C   0  0  0  0  0  0  0  0  0  0  0  0
   59.8570   59.4080   26.6990 C   0  0  0  0  0  0  0  0  0  0  0  0
   60.2060   60.7200   26.5390 C   0  0  0  0  0  0  0  0  0  0  0  0
   59.8270   61.4590   25.4450 N   0  0  0  0  0  0  0  0  0  0  0  0
   59.0850   60.8210   24.5220 C   0  0  0  0  0  0  0  0  0  0  0  0
   58.7170   59.5270   24.6380 N   0  0  0  0  0  0  0  0  0  0  0  0
   61.3740   55.9520   26.1650 C   0  0  0  0  0  0  0  0  0  0  0  0
   65.0390   56.7550   26.0070 C   0  0  0  0  0  0  0  0  0  0  0  0
   63.7170   56.3510   25.6460 C   0  0  0  0  0  0  0  0  0  0  0  0
   62.7170   56.3750   26.5990 C   0  0  0  0  0  0  0  0  0  0  0  0
   63.0520   56.7930   27.8620 N   0  0  0  0  0  0  0  0  0  0  0  0
   64.2990   57.1640   28.1680 C   0  0  0  0  0  0  0  0  0  0  0  0
   65.2830   57.1560   27.2860 N   0  0  0  0  0  0  0  0  0  0  0  0
   64.6100   57.5930   29.4900 N   0  0  0  0  0  0  0  0  0  0  0  0
   65.7320   57.1030   30.0680 C   0  0  0  0  0  0  0  0  0  0  0  0
   66.0980   57.4600   31.3230 C   0  0  0  0  0  0  0  0  0  0  0  0
   65.3400   58.3460   32.0730 C   0  0  0  0  0  0  0  0  0  0  0  0
   65.7590   58.6940   33.3810 N   0  0  0  0  0  0  0  0  0  0  0  0
   64.2390   58.8090   31.4690 N   0  0  0  0  0  0  0  0  0  0  0  0
   63.8750   58.4530   30.2210 C   0  0  0  0  0  0  0  0  0  0  0  0
   62.8320   58.9040   29.6740 O   0  0  0  0  0  0  0  0  0  0  0  0
   60.9948   57.8507   25.2425 H   0  0  0  0  0  0  0  0  0  0  0  0
   61.3581   56.5076   24.0971 H   0  0  0  0  0  0  0  0  0  0  0  0
   59.6539   54.5750   24.2850 H   0  0  0  0  0  0  0  0  0  0  0  0
   59.2012   54.8267   25.9887 H   0  0  0  0  0  0  0  0  0  0  0  0
   57.4723   55.3462   23.5036 H   0  0  0  0  0  0  0  0  0  0  0  0
   57.2300   54.0793   24.7888 H   0  0  0  0  0  0  0  0  0  0  0  0
   57.0870   57.6784   24.2735 H   0  0  0  0  0  0  0  0  0  0  0  0
   56.5512   57.8376   25.9943 H   0  0  0  0  0  0  0  0  0  0  0  0
   58.7039   57.0670   26.7816 H   0  0  0  0  0  0  0  0  0  0  0  0
   60.1799   58.8514   27.5912 H   0  0  0  0  0  0  0  0  0  0  0  0
   60.8147   61.2032   27.3175 H   0  0  0  0  0  0  0  0  0  0  0  0
   58.7629   61.3797   23.6309 H   0  0  0  0  0  0  0  0  0  0  0  0
   60.6860   56.0386   27.0189 H   0  0  0  0  0  0  0  0  0  0  0  0
   61.4548   54.9150   25.8070 H   0  0  0  0  0  0  0  0  0  0  0  0
   65.8487   56.7425   25.2625 H   0  0  0  0  0  0  0  0  0  0  0  0
   63.4974   56.0239   24.6190 H   0  0  0  0  0  0  0  0  0  0  0  0
   66.3617   56.3981   29.5053 H   0  0  0  0  0  0  0  0  0  0  0  0
   67.0167   57.0375   31.7561 H   0  0  0  0  0  0  0  0  0  0  0  0
   65.2000   59.3517   33.9430 H   0  0  0  0  0  0  0  0  0  0  0  0
   66.6226   58.2893   33.7699 H   0  0  0  0  0  0  0  0  0  0  0  0
  1 14  1  0
  2  3  1  0
  2  1  1  0
  2  7  1  0
  4  3  1  0
  4  5  1  0
  6  5  1  0
  6  7  1  0
  8  7  1  0
  8  9  2  0
 10  9  1  0
 11 10  2  0
 12 13  2  0
 12 11  1  0
 13  8  1  0
 14 17  1  0
 15 20  2  0
 16 15  1  0
 16 17  2  0
 17 18  1  0
 18 19  2  0
 19 21  1  0
 20 19  1  0
 21 22  1  0
 21 27  1  0
 22 23  2  0
 23 24  1  0
 24 25  1  0
 26 24  2  0
 27 26  1  0
 28 27  2  0
  1 29  1  0
  1 30  1  0
  3 31  1  0
  3 32  1  0
  4 33  1  0
  4 34  1  0
  6 35  1  0
  6 36  1  0
  7 37  1  1
  9 38  1  0
 10 39  1  0
 12 40  1  0
 14 41  1  0
 14 42  1  0
 15 43  1  0
 16 44  1  0
 22 45  1  0
 23 46  1  0
 25 47  1  0
 25 48  1  0
M  END
>  <Score>  (1) 
-7.04329

$$$$
