
     RDKit          3D

 52 56  0  0  0  0  0  0  0  0999 V2000
   63.1940   57.3630   28.0800 C   0  0  0  0  0  0  0  0  0  0  0  0
   63.8770   56.9150   26.9590 C   0  0  0  0  0  0  0  0  0  0  0  0
   63.2950   57.1800   25.7070 C   0  0  0  0  0  0  0  0  0  0  0  0
   62.1100   57.8530   25.6440 N   0  0  0  0  0  0  0  0  0  0  0  0
   61.4770   58.2730   26.7710 C   0  0  0  0  0  0  0  0  0  0  0  0
   62.0310   58.0210   27.9700 N   0  0  0  0  0  0  0  0  0  0  0  0
   60.2420   58.9720   26.6680 N   0  0  0  0  0  0  0  0  0  0  0  0
   59.8870   59.9500   27.6750 C   0  0  0  0  0  0  0  0  0  0  0  0
   58.4480   60.2550   27.7780 C   0  0  0  0  0  0  0  0  0  0  0  0
   57.6970   60.1890   26.5640 N   0  0  0  0  0  0  0  0  0  0  0  0
   58.4780   59.9290   25.3900 C   0  0  0  0  0  0  0  0  0  0  0  0
   59.3520   58.7080   25.5690 C   0  0  0  0  0  0  0  0  0  0  0  0
   63.7610   57.1060   29.3010 O   0  0  0  0  0  0  0  0  0  0  0  0
   64.4560   57.9730   30.1110 C   0  0  0  0  0  0  0  0  0  0  0  0
   64.8850   57.4720   31.3120 C   0  0  0  0  0  0  0  0  0  0  0  0
   65.5950   58.2280   32.2220 C   0  0  0  0  0  0  0  0  0  0  0  0
   65.8500   59.5270   31.8580 N   0  0  0  0  0  0  0  0  0  0  0  0
   65.4330   60.0250   30.6880 C   0  0  0  0  0  0  0  0  0  0  0  0
   64.7550   59.2580   29.8430 N   0  0  0  0  0  0  0  0  0  0  0  0
   66.0620   57.8940   33.5410 C   0  0  0  0  0  0  0  0  0  0  0  0
   65.3620   58.4410   34.6240 C   0  0  0  0  0  0  0  0  0  0  0  0
   65.6590   58.2520   35.9560 C   0  0  0  0  0  0  0  0  0  0  0  0
   66.7330   57.4620   36.2720 C   0  0  0  0  0  0  0  0  0  0  0  0
   67.4780   56.8890   35.2670 C   0  0  0  0  0  0  0  0  0  0  0  0
   68.5700   56.1320   35.5860 C   0  0  0  0  0  0  0  0  0  0  0  0
   69.3810   55.5610   34.5980 C   0  0  0  0  0  0  0  0  0  0  0  0
   69.0070   55.8150   33.2740 C   0  0  0  0  0  0  0  0  0  0  0  0
   67.8990   56.5820   33.0140 C   0  0  0  0  0  0  0  0  0  0  0  0
   67.1030   57.1360   33.9730 C   0  0  0  0  0  0  0  0  0  0  0  0
   65.7100   61.4280   30.2960 C   0  0  0  0  0  0  0  0  0  0  0  0
   64.5660   62.1320   30.0320 F   0  0  0  0  0  0  0  0  0  0  0  0
   66.4880   61.5000   29.1410 F   0  0  0  0  0  0  0  0  0  0  0  0
   66.5220   61.9950   31.2720 F   0  0  0  0  0  0  0  0  0  0  0  0
   64.8320   56.3761   27.0458 H   0  0  0  0  0  0  0  0  0  0  0  0
   63.7920   56.8468   24.7840 H   0  0  0  0  0  0  0  0  0  0  0  0
   60.2247   59.5708   28.6508 H   0  0  0  0  0  0  0  0  0  0  0  0
   60.3758   60.8881   27.3734 H   0  0  0  0  0  0  0  0  0  0  0  0
   58.0039   59.5396   28.4858 H   0  0  0  0  0  0  0  0  0  0  0  0
   58.3938   61.3057   28.0989 H   0  0  0  0  0  0  0  0  0  0  0  0
   56.9997   59.4369   26.6586 H   0  0  0  0  0  0  0  0  0  0  0  0
   59.1176   60.8002   25.1852 H   0  0  0  0  0  0  0  0  0  0  0  0
   57.7913   59.7436   24.5509 H   0  0  0  0  0  0  0  0  0  0  0  0
   58.7290   57.8295   25.7927 H   0  0  0  0  0  0  0  0  0  0  0  0
   59.9207   58.5000   24.6507 H   0  0  0  0  0  0  0  0  0  0  0  0
   64.6542   56.4256   31.5605 H   0  0  0  0  0  0  0  0  0  0  0  0
   64.4971   59.0791   34.3899 H   0  0  0  0  0  0  0  0  0  0  0  0
   65.0513   58.7219   36.7433 H   0  0  0  0  0  0  0  0  0  0  0  0
   66.9986   57.2865   37.3249 H   0  0  0  0  0  0  0  0  0  0  0  0
   68.8179   55.9673   36.6450 H   0  0  0  0  0  0  0  0  0  0  0  0
   70.2602   54.9489   34.8479 H   0  0  0  0  0  0  0  0  0  0  0  0
   69.5990   55.4014   32.4443 H   0  0  0  0  0  0  0  0  0  0  0  0
   67.6352   56.7620   31.9614 H   0  0  0  0  0  0  0  0  0  0  0  0
  1 13  1  0
  2  1  2  0
  3  2  1  0
  4  3  2  0
  4  5  1  0
  5  6  2  0
  6  1  1  0
  7  5  1  0
  7  8  1  0
  8  9  1  0
 10  9  1  0
 11 12  1  0
 11 10  1  0
 12  7  1  0
 13 14  1  0
 14 15  2  0
 15 16  1  0
 16 20  1  0
 17 16  2  0
 18 17  1  0
 19 14  1  0
 19 18  2  0
 20 29  1  0
 20 21  2  0
 21 22  1  0
 22 23  2  0
 24 25  2  0
 24 23  1  0
 26 25  1  0
 27 26  2  0
 28 27  1  0
 28 29  2  0
 29 24  1  0
 30 18  1  0
 30 33  1  0
 31 30  1  0
 32 30  1  0
  2 34  1  0
  3 35  1  0
  8 36  1  0
  8 37  1  0
  9 38  1  0
  9 39  1  0
 10 40  1  0
 11 41  1  0
 11 42  1  0
 12 43  1  0
 12 44  1  0
 15 45  1  0
 21 46  1  0
 22 47  1  0
 23 48  1  0
 25 49  1  0
 26 50  1  0
 27 51  1  0
 28 52  1  0
M  END
>  <Score>  (1) 
-7.28468

$$$$
