
     RDKit          3D

 53 57  0  0  0  0  0  0  0  0999 V2000
   65.3570   56.7420   26.0200 C   0  0  0  0  0  0  0  0  0  0  0  0
   64.0180   56.6830   25.5480 C   0  0  0  0  0  0  0  0  0  0  0  0
   62.9850   56.8780   26.4320 C   0  0  0  0  0  0  0  0  0  0  0  0
   63.2930   57.1240   27.7450 N   0  0  0  0  0  0  0  0  0  0  0  0
   64.5660   57.1740   28.1620 C   0  0  0  0  0  0  0  0  0  0  0  0
   65.6080   56.9890   27.3310 N   0  0  0  0  0  0  0  0  0  0  0  0
   64.8040   57.4470   29.5960 C   0  0  0  0  0  0  0  0  0  0  0  0
   63.9590   58.0200   30.4950 C   0  0  0  0  0  0  0  0  0  0  0  0
   64.4120   58.1630   31.7760 C   0  0  0  0  0  0  0  0  0  0  0  0
   65.6940   57.7110   32.0420 C   0  0  0  0  0  0  0  0  0  0  0  0
   66.2540   57.0930   30.5100 S   0  0  0  0  0  0  0  0  0  0  0  0
   66.4150   57.7190   33.2490 N   0  0  0  0  0  0  0  0  0  0  0  0
   67.6320   57.0700   33.3840 C   0  0  0  0  0  0  0  0  0  0  0  0
   67.8880   55.9500   32.8060 N   0  0  0  0  0  0  0  0  0  0  0  0
   68.6110   57.7190   34.2210 N   0  0  0  0  0  0  0  0  0  0  0  0
   67.1990   55.4540   32.2470 H   0  0  0  0  0  0  0  0  0  0  0  0
   61.5970   56.8280   25.9830 C   0  0  0  0  0  0  0  0  0  0  0  0
   60.7970   55.7290   26.0020 C   0  0  0  0  0  0  0  0  0  0  0  0
   59.5740   56.1760   25.4770 C   0  0  0  0  0  0  0  0  0  0  0  0
   59.7160   57.5130   25.1740 C   0  0  0  0  0  0  0  0  0  0  0  0
   60.9430   57.8170   25.5060 O   0  0  0  0  0  0  0  0  0  0  0  0
   58.8560   58.4830   24.6340 N   0  0  0  0  0  0  0  0  0  0  0  0
   59.3860   59.7450   24.5530 C   0  0  0  0  0  0  0  0  0  0  0  0
   58.4290   60.5820   24.0250 C   0  0  0  0  0  0  0  0  0  0  0  0
   57.3300   59.8010   23.7930 N   0  0  0  0  0  0  0  0  0  0  0  0
   57.6320   58.5540   24.1740 C   0  0  0  0  0  0  0  0  0  0  0  0
   56.7460   57.4540   24.1290 N   0  0  0  0  0  0  0  0  0  0  0  0
   56.2970   56.4010   25.0270 C   0  0  0  0  0  0  0  0  0  0  0  0
   56.7050   55.0240   24.5510 C   0  0  0  0  0  0  0  0  0  0  0  0
   56.5850   54.8250   23.0730 C   0  0  0  0  0  0  0  0  0  0  0  0
   56.8680   56.0370   22.2530 C   0  0  0  0  0  0  0  0  0  0  0  0
   56.1010   57.2490   22.8190 C   0  0  0  0  0  0  0  0  0  0  0  0
   66.1923   56.5871   25.3212 H   0  0  0  0  0  0  0  0  0  0  0  0
   63.8110   56.4833   24.4863 H   0  0  0  0  0  0  0  0  0  0  0  0
   62.9526   58.3544   30.2027 H   0  0  0  0  0  0  0  0  0  0  0  0
   63.7874   58.6162   32.5599 H   0  0  0  0  0  0  0  0  0  0  0  0
   66.0263   58.2233   34.0587 H   0  0  0  0  0  0  0  0  0  0  0  0
   69.5355   57.2874   34.3617 H   0  0  0  0  0  0  0  0  0  0  0  0
   68.3856   58.6141   34.6780 H   0  0  0  0  0  0  0  0  0  0  0  0
   61.0508   54.7170   26.3504 H   0  0  0  0  0  0  0  0  0  0  0  0
   58.6675   55.5696   25.3336 H   0  0  0  0  0  0  0  0  0  0  0  0
   60.4015   60.0383   24.8576 H   0  0  0  0  0  0  0  0  0  0  0  0
   58.5279   61.6599   23.8294 H   0  0  0  0  0  0  0  0  0  0  0  0
   56.7338   56.5748   26.0215 H   0  0  0  0  0  0  0  0  0  0  0  0
   55.1979   56.4330   25.0583 H   0  0  0  0  0  0  0  0  0  0  0  0
   57.7538   54.8568   24.8375 H   0  0  0  0  0  0  0  0  0  0  0  0
   56.0148   54.3093   25.0230 H   0  0  0  0  0  0  0  0  0  0  0  0
   57.2932   54.0377   22.7753 H   0  0  0  0  0  0  0  0  0  0  0  0
   55.5348   54.5602   22.8810 H   0  0  0  0  0  0  0  0  0  0  0  0
   56.5499   55.8570   21.2155 H   0  0  0  0  0  0  0  0  0  0  0  0
   57.9472   56.2478   22.2817 H   0  0  0  0  0  0  0  0  0  0  0  0
   56.2220   58.1320   22.1742 H   0  0  0  0  0  0  0  0  0  0  0  0
   55.0151   57.0872   22.8863 H   0  0  0  0  0  0  0  0  0  0  0  0
  1  6  2  0
  2  1  1  0
  2  3  2  0
  3  4  1  0
  4  5  2  0
  5  7  1  0
  6  5  1  0
  7  8  2  0
  7 11  1  0
  8  9  1  0
  9 10  2  0
 10 12  1  0
 11 10  1  0
 12 13  1  0
 13 15  1  0
 14 13  2  0
 16 14  1  0
 17 18  2  0
 17  3  1  0
 19 18  1  0
 20 19  2  0
 20 21  1  0
 21 17  1  0
 22 20  1  0
 23 22  1  0
 24 23  2  0
 25 24  1  0
 25 26  2  0
 26 22  1  0
 27 26  1  0
 27 28  1  0
 29 28  1  0
 30 29  1  0
 31 32  1  0
 31 30  1  0
 32 27  1  0
  1 33  1  0
  2 34  1  0
  8 35  1  0
  9 36  1  0
 12 37  1  0
 15 38  1  0
 15 39  1  0
 18 40  1  0
 19 41  1  0
 23 42  1  0
 24 43  1  0
 28 44  1  0
 28 45  1  0
 29 46  1  0
 29 47  1  0
 30 48  1  0
 30 49  1  0
 31 50  1  0
 31 51  1  0
 32 52  1  0
 32 53  1  0
M  END
>  <Score>  (1) 
-7.58812

$$$$
