
     RDKit          3D

 44 47  0  0  0  0  0  0  0  0999 V2000
   65.2850   56.7260   25.9390 C   0  0  0  0  0  0  0  0  0  0  0  0
   63.9550   56.6420   25.4670 C   0  0  0  0  0  0  0  0  0  0  0  0
   62.9270   56.8270   26.3410 C   0  0  0  0  0  0  0  0  0  0  0  0
   63.2300   57.0880   27.6540 N   0  0  0  0  0  0  0  0  0  0  0  0
   64.4940   57.1620   28.0790 C   0  0  0  0  0  0  0  0  0  0  0  0
   65.5280   56.9890   27.2560 N   0  0  0  0  0  0  0  0  0  0  0  0
   64.7220   57.4510   29.5090 C   0  0  0  0  0  0  0  0  0  0  0  0
   63.8760   58.0460   30.4070 C   0  0  0  0  0  0  0  0  0  0  0  0
   64.3270   58.2020   31.6870 C   0  0  0  0  0  0  0  0  0  0  0  0
   65.6020   57.7490   31.9700 C   0  0  0  0  0  0  0  0  0  0  0  0
   66.1620   57.1010   30.4330 S   0  0  0  0  0  0  0  0  0  0  0  0
   66.3200   57.7770   33.1760 N   0  0  0  0  0  0  0  0  0  0  0  0
   67.5460   57.1360   33.3250 C   0  0  0  0  0  0  0  0  0  0  0  0
   67.8000   56.0200   32.7770 N   0  0  0  0  0  0  0  0  0  0  0  0
   68.5430   57.7790   34.1290 N   0  0  0  0  0  0  0  0  0  0  0  0
   67.1110   55.4950   32.2180 H   0  0  0  0  0  0  0  0  0  0  0  0
   61.5360   56.7630   25.9110 C   0  0  0  0  0  0  0  0  0  0  0  0
   60.7180   55.6750   25.9900 C   0  0  0  0  0  0  0  0  0  0  0  0
   59.4860   56.0540   25.4740 C   0  0  0  0  0  0  0  0  0  0  0  0
   59.6270   57.3840   25.1030 C   0  0  0  0  0  0  0  0  0  0  0  0
   60.8650   57.7480   25.3860 O   0  0  0  0  0  0  0  0  0  0  0  0
   58.9070   58.4950   24.5270 N   0  0  0  0  0  0  0  0  0  0  0  0
   59.3820   59.8810   24.5310 C   0  0  0  0  0  0  0  0  0  0  0  0
   58.3530   60.6520   23.6970 C   0  0  0  0  0  0  0  0  0  0  0  0
   58.2090   60.0130   22.4500 O   0  0  0  0  0  0  0  0  0  0  0  0
   57.4730   58.8400   22.5470 C   0  0  0  0  0  0  0  0  0  0  0  0
   57.6160   58.2580   23.9090 C   0  0  0  0  0  0  0  0  0  0  0  0
   66.1249   56.5792   25.2440 H   0  0  0  0  0  0  0  0  0  0  0  0
   63.7529   56.4298   24.4067 H   0  0  0  0  0  0  0  0  0  0  0  0
   62.8728   58.3849   30.1092 H   0  0  0  0  0  0  0  0  0  0  0  0
   63.7008   58.6693   32.4613 H   0  0  0  0  0  0  0  0  0  0  0  0
   65.9259   58.2895   33.9778 H   0  0  0  0  0  0  0  0  0  0  0  0
   69.4626   57.3346   34.2621 H   0  0  0  0  0  0  0  0  0  0  0  0
   68.3400   58.6856   34.5738 H   0  0  0  0  0  0  0  0  0  0  0  0
   60.9839   54.6843   26.3874 H   0  0  0  0  0  0  0  0  0  0  0  0
   58.5852   55.4298   25.3790 H   0  0  0  0  0  0  0  0  0  0  0  0
   59.4209   60.2740   25.5577 H   0  0  0  0  0  0  0  0  0  0  0  0
   60.3990   59.9717   24.1217 H   0  0  0  0  0  0  0  0  0  0  0  0
   57.3858   60.6627   24.2208 H   0  0  0  0  0  0  0  0  0  0  0  0
   58.6922   61.6879   23.5492 H   0  0  0  0  0  0  0  0  0  0  0  0
   56.4124   59.0590   22.3544 H   0  0  0  0  0  0  0  0  0  0  0  0
   57.8466   58.1181   21.8059 H   0  0  0  0  0  0  0  0  0  0  0  0
   56.8398   58.6957   24.5539 H   0  0  0  0  0  0  0  0  0  0  0  0
   57.5152   57.1683   23.7981 H   0  0  0  0  0  0  0  0  0  0  0  0
  1  6  2  0
  2  1  1  0
  2  3  2  0
  3  4  1  0
  4  5  2  0
  5  7  1  0
  6  5  1  0
  7  8  2  0
  7 11  1  0
  8  9  1  0
  9 10  2  0
 10 12  1  0
 11 10  1  0
 12 13  1  0
 13 15  1  0
 14 13  2  0
 16 14  1  0
 17 18  2  0
 17  3  1  0
 19 18  1  0
 20 21  1  0
 20 19  2  0
 21 17  1  0
 22 23  1  0
 22 20  1  0
 24 23  1  0
 25 26  1  0
 25 24  1  0
 26 27  1  0
 27 22  1  0
  1 28  1  0
  2 29  1  0
  8 30  1  0
  9 31  1  0
 12 32  1  0
 15 33  1  0
 15 34  1  0
 18 35  1  0
 19 36  1  0
 23 37  1  0
 23 38  1  0
 24 39  1  0
 24 40  1  0
 26 41  1  0
 26 42  1  0
 27 43  1  0
 27 44  1  0
M  END
>  <Score>  (1) 
-7.0337

$$$$
