
     RDKit          3D

 46 50  0  0  1  0  0  0  0  0999 V2000
   60.1340   59.1280   26.7720 C   0  0  2  0  0  0  0  0  0  0  0  0
   60.2540   58.3670   25.5250 C   0  0  0  0  0  0  0  0  0  0  0  0
   60.7500   59.1680   24.3510 C   0  0  0  0  0  0  0  0  0  0  0  0
   59.8160   60.3300   24.1870 C   0  0  0  0  0  0  0  0  0  0  0  0
   59.8540   61.2390   25.3420 C   0  0  0  0  0  0  0  0  0  0  0  0
   60.0200   60.5940   26.6840 C   0  0  0  0  0  0  0  0  0  0  0  0
   62.3950   59.0060   29.6780 C   0  0  0  0  0  0  0  0  0  0  0  0
   63.3200   58.0100   29.3190 C   0  0  0  0  0  0  0  0  0  0  0  0
   63.1620   57.3740   28.0670 C   0  0  0  0  0  0  0  0  0  0  0  0
   62.1190   57.7740   27.2930 N   0  0  0  0  0  0  0  0  0  0  0  0
   61.2430   58.7400   27.6690 C   0  0  0  0  0  0  0  0  0  0  0  0
   61.4100   59.3220   28.8470 N   0  0  0  0  0  0  0  0  0  0  0  0
   60.0270   61.6000   27.7140 C   0  0  0  0  0  0  0  0  0  0  0  0
   61.1140   62.3370   28.0640 C   0  0  0  0  0  0  0  0  0  0  0  0
   61.1160   63.3130   29.0340 C   0  0  0  0  0  0  0  0  0  0  0  0
   59.9450   63.5610   29.6900 N   0  0  0  0  0  0  0  0  0  0  0  0
   58.8520   62.8730   29.3910 C   0  0  0  0  0  0  0  0  0  0  0  0
   58.9580   61.9500   28.4390 N   0  0  0  0  0  0  0  0  0  0  0  0
   57.5500   63.0510   30.0270 C   0  0  0  0  0  0  0  0  0  0  0  0
   57.0460   62.4070   31.1630 C   0  0  0  0  0  0  0  0  0  0  0  0
   55.8110   62.8850   31.3790 N   0  0  0  0  0  0  0  0  0  0  0  0
   55.5320   63.7860   30.4390 C   0  0  0  0  0  0  0  0  0  0  0  0
   54.3750   64.5220   30.2840 C   0  0  0  0  0  0  0  0  0  0  0  0
   54.2410   65.4190   29.2530 C   0  0  0  0  0  0  0  0  0  0  0  0
   55.2910   65.5790   28.3610 C   0  0  0  0  0  0  0  0  0  0  0  0
   56.4380   64.8310   28.5390 C   0  0  0  0  0  0  0  0  0  0  0  0
   56.5890   63.9370   29.5550 C   0  0  0  0  0  0  0  0  0  0  0  0
   59.1469   58.8487   27.1691 H   0  0  0  0  0  0  0  0  0  0  0  0
   60.9550   57.5365   25.6952 H   0  0  0  0  0  0  0  0  0  0  0  0
   59.2401   58.0275   25.2665 H   0  0  0  0  0  0  0  0  0  0  0  0
   61.7712   59.5285   24.5440 H   0  0  0  0  0  0  0  0  0  0  0  0
   60.7757   58.5533   23.4391 H   0  0  0  0  0  0  0  0  0  0  0  0
   60.1027   60.8907   23.2851 H   0  0  0  0  0  0  0  0  0  0  0  0
   58.7937   59.9329   24.1027 H   0  0  0  0  0  0  0  0  0  0  0  0
   59.7657   62.3294   25.2274 H   0  0  0  0  0  0  0  0  0  0  0  0
   62.4876   59.5219   30.6451 H   0  0  0  0  0  0  0  0  0  0  0  0
   64.1436   57.7335   29.9937 H   0  0  0  0  0  0  0  0  0  0  0  0
   63.8547   56.5876   27.7327 H   0  0  0  0  0  0  0  0  0  0  0  0
   62.0580   62.1395   27.5350 H   0  0  0  0  0  0  0  0  0  0  0  0
   62.0311   63.8748   29.2729 H   0  0  0  0  0  0  0  0  0  0  0  0
   57.5663   61.6491   31.7671 H   0  0  0  0  0  0  0  0  0  0  0  0
   55.1830   62.6020   32.1448 H   0  0  0  0  0  0  0  0  0  0  0  0
   53.5480   64.3881   30.9968 H   0  0  0  0  0  0  0  0  0  0  0  0
   53.3153   66.0016   29.1363 H   0  0  0  0  0  0  0  0  0  0  0  0
   55.2113   66.2901   27.5255 H   0  0  0  0  0  0  0  0  0  0  0  0
   57.2670   64.9633   27.8281 H   0  0  0  0  0  0  0  0  0  0  0  0
  1 11  1  0
  2  1  1  0
  3  2  1  0
  4  3  1  0
  4  5  1  0
  5  6  2  0
  6  1  1  0
  6 13  1  0
  8  7  2  0
  9  8  1  0
 10 11  1  0
 10  9  2  0
 11 12  2  0
 12  7  1  0
 13 14  2  0
 13 18  1  0
 14 15  1  0
 15 16  2  0
 17 16  1  0
 17 19  1  0
 18 17  2  0
 19 20  2  0
 20 21  1  0
 22 21  1  0
 23 22  2  0
 24 23  1  0
 25 26  1  0
 25 24  2  0
 26 27  2  0
 27 19  1  0
 27 22  1  0
  1 28  1  1
  2 29  1  0
  2 30  1  0
  3 31  1  0
  3 32  1  0
  4 33  1  0
  4 34  1  0
  5 35  1  0
  7 36  1  0
  8 37  1  0
  9 38  1  0
 14 39  1  0
 15 40  1  0
 20 41  1  0
 21 42  1  0
 23 43  1  0
 24 44  1  0
 25 45  1  0
 26 46  1  0
M  END
>  <Score>  (1) 
-7.08634

$$$$
