
     RDKit          3D

 42 45  0  0  0  0  0  0  0  0999 V2000
   65.3170   56.7090   26.0310 C   0  0  0  0  0  0  0  0  0  0  0  0
   63.9960   56.7100   25.5580 C   0  0  0  0  0  0  0  0  0  0  0  0
   62.9630   56.9590   26.4400 C   0  0  0  0  0  0  0  0  0  0  0  0
   63.2840   57.1930   27.7470 N   0  0  0  0  0  0  0  0  0  0  0  0
   64.5640   57.1850   28.1700 C   0  0  0  0  0  0  0  0  0  0  0  0
   65.5900   56.9500   27.3530 N   0  0  0  0  0  0  0  0  0  0  0  0
   64.8010   57.4500   29.6020 C   0  0  0  0  0  0  0  0  0  0  0  0
   63.9670   58.0250   30.5250 C   0  0  0  0  0  0  0  0  0  0  0  0
   64.4250   58.1620   31.7970 C   0  0  0  0  0  0  0  0  0  0  0  0
   65.7120   57.7040   32.0530 C   0  0  0  0  0  0  0  0  0  0  0  0
   66.2690   57.0820   30.5040 S   0  0  0  0  0  0  0  0  0  0  0  0
   66.4400   57.7160   33.2500 N   0  0  0  0  0  0  0  0  0  0  0  0
   67.6540   57.0760   33.3850 C   0  0  0  0  0  0  0  0  0  0  0  0
   67.8950   55.9460   32.8130 N   0  0  0  0  0  0  0  0  0  0  0  0
   68.6720   57.6960   34.1890 N   0  0  0  0  0  0  0  0  0  0  0  0
   67.1980   55.4460   32.2660 H   0  0  0  0  0  0  0  0  0  0  0  0
   61.5740   56.9710   25.9990 C   0  0  0  0  0  0  0  0  0  0  0  0
   60.7390   55.8900   25.9560 C   0  0  0  0  0  0  0  0  0  0  0  0
   59.5200   56.3740   25.4710 C   0  0  0  0  0  0  0  0  0  0  0  0
   59.7030   57.7370   25.2510 C   0  0  0  0  0  0  0  0  0  0  0  0
   60.9520   58.0390   25.5840 O   0  0  0  0  0  0  0  0  0  0  0  0
   58.8560   58.7790   24.7700 N   0  0  0  0  0  0  0  0  0  0  0  0
   57.9830   59.4990   25.4850 C   0  0  0  0  0  0  0  0  0  0  0  0
   57.2390   60.4790   24.8360 C   0  0  0  0  0  0  0  0  0  0  0  0
   57.3880   60.7150   23.4890 C   0  0  0  0  0  0  0  0  0  0  0  0
   56.6210   61.7200   22.8350 N   0  0  0  0  0  0  0  0  0  0  0  0
   58.2790   59.9590   22.8290 N   0  0  0  0  0  0  0  0  0  0  0  0
   59.0220   58.9910   23.4370 C   0  0  0  0  0  0  0  0  0  0  0  0
   59.8190   58.3580   22.6980 O   0  0  0  0  0  0  0  0  0  0  0  0
   66.1439   56.5125   25.3327 H   0  0  0  0  0  0  0  0  0  0  0  0
   63.7855   56.5146   24.4962 H   0  0  0  0  0  0  0  0  0  0  0  0
   62.9589   58.3648   30.2451 H   0  0  0  0  0  0  0  0  0  0  0  0
   63.8066   58.6139   32.5865 H   0  0  0  0  0  0  0  0  0  0  0  0
   66.0538   58.2220   34.0598 H   0  0  0  0  0  0  0  0  0  0  0  0
   69.5870   57.2375   34.3050 H   0  0  0  0  0  0  0  0  0  0  0  0
   68.4863   58.5987   34.6490 H   0  0  0  0  0  0  0  0  0  0  0  0
   60.9763   54.8550   26.2431 H   0  0  0  0  0  0  0  0  0  0  0  0
   58.6011   55.7946   25.2980 H   0  0  0  0  0  0  0  0  0  0  0  0
   57.8566   59.3196   26.5629 H   0  0  0  0  0  0  0  0  0  0  0  0
   56.5171   61.0772   25.4114 H   0  0  0  0  0  0  0  0  0  0  0  0
   56.7430   61.8858   21.8258 H   0  0  0  0  0  0  0  0  0  0  0  0
   55.9439   62.2815   23.3710 H   0  0  0  0  0  0  0  0  0  0  0  0
  1  6  2  0
  2  1  1  0
  2  3  2  0
  3  4  1  0
  4  5  2  0
  5  7  1  0
  6  5  1  0
  7 11  1  0
  7  8  2  0
  8  9  1  0
  9 10  2  0
 10 12  1  0
 11 10  1  0
 12 13  1  0
 13 15  1  0
 14 13  2  0
 16 14  1  0
 17  3  1  0
 18 17  2  0
 19 18  1  0
 20 19  2  0
 20 21  1  0
 21 17  1  0
 22 20  1  0
 22 23  1  0
 24 23  2  0
 25 24  1  0
 26 25  1  0
 27 28  1  0
 27 25  2  0
 28 22  1  0
 29 28  2  0
  1 30  1  0
  2 31  1  0
  8 32  1  0
  9 33  1  0
 12 34  1  0
 15 35  1  0
 15 36  1  0
 18 37  1  0
 19 38  1  0
 23 39  1  0
 24 40  1  0
 26 41  1  0
 26 42  1  0
M  END
>  <Score>  (1) 
-7.48743

$$$$
