
     RDKit          3D

 51 55  0  0  0  0  0  0  0  0999 V2000
   65.3100   56.8390   26.0180 C   0  0  0  0  0  0  0  0  0  0  0  0
   63.9770   56.6910   25.5650 C   0  0  0  0  0  0  0  0  0  0  0  0
   62.9560   56.7970   26.4600 C   0  0  0  0  0  0  0  0  0  0  0  0
   63.2490   57.0470   27.7800 N   0  0  0  0  0  0  0  0  0  0  0  0
   64.5340   57.1830   28.1680 C   0  0  0  0  0  0  0  0  0  0  0  0
   65.5600   57.0870   27.3360 N   0  0  0  0  0  0  0  0  0  0  0  0
   64.7720   57.4530   29.6090 C   0  0  0  0  0  0  0  0  0  0  0  0
   63.9300   58.0260   30.5090 C   0  0  0  0  0  0  0  0  0  0  0  0
   64.3760   58.1740   31.7920 C   0  0  0  0  0  0  0  0  0  0  0  0
   65.6660   57.7190   32.0530 C   0  0  0  0  0  0  0  0  0  0  0  0
   66.2240   57.0970   30.5170 S   0  0  0  0  0  0  0  0  0  0  0  0
   66.4000   57.7300   33.2480 N   0  0  0  0  0  0  0  0  0  0  0  0
   67.6050   57.0930   33.3860 C   0  0  0  0  0  0  0  0  0  0  0  0
   67.8680   55.9710   32.8080 N   0  0  0  0  0  0  0  0  0  0  0  0
   68.5990   57.7170   34.2140 N   0  0  0  0  0  0  0  0  0  0  0  0
   67.1750   55.4700   32.2570 H   0  0  0  0  0  0  0  0  0  0  0  0
   61.5720   56.6520   26.0390 C   0  0  0  0  0  0  0  0  0  0  0  0
   60.8640   55.4770   25.9820 C   0  0  0  0  0  0  0  0  0  0  0  0
   59.5920   55.8480   25.5220 C   0  0  0  0  0  0  0  0  0  0  0  0
   59.6010   57.2180   25.3280 C   0  0  0  0  0  0  0  0  0  0  0  0
   60.8010   57.5920   25.6570 O   0  0  0  0  0  0  0  0  0  0  0  0
   58.6590   58.1450   24.8930 N   0  0  0  0  0  0  0  0  0  0  0  0
   59.1560   59.3170   24.4030 C   0  0  0  0  0  0  0  0  0  0  0  0
   58.0520   60.0850   23.9910 C   0  0  0  0  0  0  0  0  0  0  0  0
   56.9410   59.3410   24.2530 N   0  0  0  0  0  0  0  0  0  0  0  0
   57.3380   58.1870   24.7940 C   0  0  0  0  0  0  0  0  0  0  0  0
   56.4280   57.1120   25.2490 C   0  0  0  0  0  0  0  0  0  0  0  0
   55.7700   56.4170   24.0590 C   0  0  0  0  0  0  0  0  0  0  0  0
   56.4300   55.0840   23.9390 C   0  0  0  0  0  0  0  0  0  0  0  0
   56.7430   54.7350   25.3800 C   0  0  0  0  0  0  0  0  0  0  0  0
   57.2550   56.0260   25.9330 C   0  0  0  0  0  0  0  0  0  0  0  0
   66.1448   56.7540   25.3068 H   0  0  0  0  0  0  0  0  0  0  0  0
   63.7685   56.4928   24.5033 H   0  0  0  0  0  0  0  0  0  0  0  0
   62.9239   58.3592   30.2146 H   0  0  0  0  0  0  0  0  0  0  0  0
   63.7508   58.6274   32.5753 H   0  0  0  0  0  0  0  0  0  0  0  0
   66.0164   58.2391   34.0570 H   0  0  0  0  0  0  0  0  0  0  0  0
   69.5175   57.2689   34.3424 H   0  0  0  0  0  0  0  0  0  0  0  0
   68.3933   58.6126   34.6793 H   0  0  0  0  0  0  0  0  0  0  0  0
   61.2165   54.4675   26.2401 H   0  0  0  0  0  0  0  0  0  0  0  0
   58.7416   55.1725   25.3472 H   0  0  0  0  0  0  0  0  0  0  0  0
   60.2157   59.6058   24.3419 H   0  0  0  0  0  0  0  0  0  0  0  0
   58.0801   61.0899   23.5445 H   0  0  0  0  0  0  0  0  0  0  0  0
   55.6765   57.5678   25.9105 H   0  0  0  0  0  0  0  0  0  0  0  0
   54.6916   56.2940   24.2377 H   0  0  0  0  0  0  0  0  0  0  0  0
   55.8848   57.0058   23.1370 H   0  0  0  0  0  0  0  0  0  0  0  0
   55.7507   54.3442   23.4905 H   0  0  0  0  0  0  0  0  0  0  0  0
   57.3181   55.0940   23.2900 H   0  0  0  0  0  0  0  0  0  0  0  0
   55.8384   54.4072   25.9132 H   0  0  0  0  0  0  0  0  0  0  0  0
   57.4584   53.9055   25.4804 H   0  0  0  0  0  0  0  0  0  0  0  0
   58.3226   56.1494   25.6986 H   0  0  0  0  0  0  0  0  0  0  0  0
   57.1632   56.0687   27.0283 H   0  0  0  0  0  0  0  0  0  0  0  0
  1  6  2  0
  2  1  1  0
  2  3  2  0
  3  4  1  0
  4  5  2  0
  5  7  1  0
  6  5  1  0
  7  8  2  0
  7 11  1  0
  8  9  1  0
  9 10  2  0
 10 12  1  0
 11 10  1  0
 12 13  1  0
 13 15  1  0
 14 13  2  0
 16 14  1  0
 17  3  1  0
 18 17  2  0
 19 18  1  0
 20 19  2  0
 20 21  1  0
 21 17  1  0
 22 20  1  0
 23 22  1  0
 24 25  1  0
 24 23  2  0
 25 26  2  0
 26 22  1  0
 26 27  1  0
 27 31  1  0
 28 27  1  0
 29 28  1  0
 29 30  1  0
 30 31  1  0
  1 32  1  0
  2 33  1  0
  8 34  1  0
  9 35  1  0
 12 36  1  0
 15 37  1  0
 15 38  1  0
 18 39  1  0
 19 40  1  0
 23 41  1  0
 24 42  1  0
 27 43  1  0
 28 44  1  0
 28 45  1  0
 29 46  1  0
 29 47  1  0
 30 48  1  0
 30 49  1  0
 31 50  1  0
 31 51  1  0
M  END
>  <Score>  (1) 
-7.40308

$$$$
