
     RDKit          3D

 46 50  0  0  0  0  0  0  0  0999 V2000
   65.1700   57.9860   30.7300 C   0  0  0  0  0  0  0  0  0  0  0  0
   64.3590   57.9310   31.8800 C   0  0  0  0  0  0  0  0  0  0  0  0
   65.0150   58.2890   33.0490 C   0  0  0  0  0  0  0  0  0  0  0  0
   66.3360   58.6550   33.0160 C   0  0  0  0  0  0  0  0  0  0  0  0
   67.0860   58.6960   31.8800 C   0  0  0  0  0  0  0  0  0  0  0  0
   66.4630   58.3490   30.7320 N   0  0  0  0  0  0  0  0  0  0  0  0
   64.8340   57.1070   27.1860 C   0  0  0  0  0  0  0  0  0  0  0  0
   63.4590   56.9570   27.0090 C   0  0  0  0  0  0  0  0  0  0  0  0
   62.6710   57.1710   28.1460 C   0  0  0  0  0  0  0  0  0  0  0  0
   63.2550   57.5010   29.3330 N   0  0  0  0  0  0  0  0  0  0  0  0
   64.5820   57.6290   29.4390 C   0  0  0  0  0  0  0  0  0  0  0  0
   65.3580   57.4310   28.3640 N   0  0  0  0  0  0  0  0  0  0  0  0
   65.6930   56.9010   26.0580 N   0  0  0  0  0  0  0  0  0  0  0  0
   68.4910   59.0910   31.8810 C   0  0  0  0  0  0  0  0  0  0  0  0
   69.3820   58.4340   32.6770 C   0  0  0  0  0  0  0  0  0  0  0  0
   70.7180   58.7980   32.6890 C   0  0  0  0  0  0  0  0  0  0  0  0
   71.0640   59.8280   31.8750 C   0  0  0  0  0  0  0  0  0  0  0  0
   70.1610   60.4960   31.0630 C   0  0  0  0  0  0  0  0  0  0  0  0
   68.8950   60.0840   31.1110 N   0  0  0  0  0  0  0  0  0  0  0  0
   70.3920   61.6420   30.2120 C   0  0  0  0  0  0  0  0  0  0  0  0
   69.5430   62.7520   30.3560 C   0  0  0  0  0  0  0  0  0  0  0  0
   69.6090   63.9040   29.6270 C   0  0  0  0  0  0  0  0  0  0  0  0
   70.5770   64.0250   28.6580 C   0  0  0  0  0  0  0  0  0  0  0  0
   71.4390   62.9800   28.4590 C   0  0  0  0  0  0  0  0  0  0  0  0
   72.3910   63.0680   27.4680 C   0  0  0  0  0  0  0  0  0  0  0  0
   73.2760   62.0250   27.1840 C   0  0  0  0  0  0  0  0  0  0  0  0
   73.1300   60.8800   27.9770 C   0  0  0  0  0  0  0  0  0  0  0  0
   72.1700   60.8250   28.9590 C   0  0  0  0  0  0  0  0  0  0  0  0
   71.3140   61.8550   29.2270 C   0  0  0  0  0  0  0  0  0  0  0  0
   63.3009   57.6313   31.8538 H   0  0  0  0  0  0  0  0  0  0  0  0
   64.4731   58.2792   34.0062 H   0  0  0  0  0  0  0  0  0  0  0  0
   66.8192   58.9323   33.9645 H   0  0  0  0  0  0  0  0  0  0  0  0
   63.0209   56.6874   26.0367 H   0  0  0  0  0  0  0  0  0  0  0  0
   61.5773   57.0726   28.0816 H   0  0  0  0  0  0  0  0  0  0  0  0
   65.2910   56.6499   25.1436 H   0  0  0  0  0  0  0  0  0  0  0  0
   66.7126   57.0041   26.1615 H   0  0  0  0  0  0  0  0  0  0  0  0
   69.0365   57.6075   33.3153 H   0  0  0  0  0  0  0  0  0  0  0  0
   71.4560   58.2826   33.3213 H   0  0  0  0  0  0  0  0  0  0  0  0
   72.1160   60.1491   31.8591 H   0  0  0  0  0  0  0  0  0  0  0  0
   68.7569   62.6871   31.1227 H   0  0  0  0  0  0  0  0  0  0  0  0
   68.8986   64.7232   29.8119 H   0  0  0  0  0  0  0  0  0  0  0  0
   70.6572   64.9418   28.0555 H   0  0  0  0  0  0  0  0  0  0  0  0
   72.4571   63.9940   26.8780 H   0  0  0  0  0  0  0  0  0  0  0  0
   74.0355   62.0981   26.3917 H   0  0  0  0  0  0  0  0  0  0  0  0
   73.7904   60.0159   27.8123 H   0  0  0  0  0  0  0  0  0  0  0  0
   72.0870   59.9064   29.5585 H   0  0  0  0  0  0  0  0  0  0  0  0
  1  6  1  0
  1  2  2  0
  2  3  1  0
  4  3  2  0
  5 14  1  0
  5  4  1  0
  6  5  2  0
  7 12  2  0
  8  7  1  0
  8  9  2  0
  9 10  1  0
 10 11  2  0
 11  1  1  0
 12 11  1  0
 13  7  1  0
 14 15  2  0
 15 16  1  0
 17 16  2  0
 18 19  2  0
 18 17  1  0
 19 14  1  0
 20 21  2  0
 20 18  1  0
 22 21  1  0
 23 22  2  0
 24 23  1  0
 24 29  2  0
 25 24  1  0
 26 25  2  0
 26 27  1  0
 27 28  2  0
 28 29  1  0
 29 20  1  0
  2 30  1  0
  3 31  1  0
  4 32  1  0
  8 33  1  0
  9 34  1  0
 13 35  1  0
 13 36  1  0
 15 37  1  0
 16 38  1  0
 17 39  1  0
 21 40  1  0
 22 41  1  0
 23 42  1  0
 25 43  1  0
 26 44  1  0
 27 45  1  0
 28 46  1  0
M  END
>  <Score>  (1) 
-7.40579

$$$$
