
     RDKit          3D

 44 48  0  0  0  0  0  0  0  0999 V2000
   60.2400   58.4760   25.4320 C   0  0  0  0  0  0  0  0  0  0  0  0
   61.0610   59.2680   24.6590 C   0  0  0  0  0  0  0  0  0  0  0  0
   60.2760   59.9210   23.7030 C   0  0  0  0  0  0  0  0  0  0  0  0
   58.9940   59.4690   23.9680 C   0  0  0  0  0  0  0  0  0  0  0  0
   59.0330   58.6500   24.9600 O   0  0  0  0  0  0  0  0  0  0  0  0
   57.8300   59.9000   23.1970 C   0  0  0  0  0  0  0  0  0  0  0  0
   57.1280   59.2070   22.2280 C   0  0  0  0  0  0  0  0  0  0  0  0
   56.1330   59.9560   21.7710 N   0  0  0  0  0  0  0  0  0  0  0  0
   56.1360   61.1320   22.3960 C   0  0  0  0  0  0  0  0  0  0  0  0
   55.3050   62.2180   22.2580 C   0  0  0  0  0  0  0  0  0  0  0  0
   55.5620   63.3130   23.0600 C   0  0  0  0  0  0  0  0  0  0  0  0
   56.5940   63.3810   23.9800 C   0  0  0  0  0  0  0  0  0  0  0  0
   57.3910   62.2500   24.0660 C   0  0  0  0  0  0  0  0  0  0  0  0
   57.2030   61.1240   23.3080 C   0  0  0  0  0  0  0  0  0  0  0  0
   60.6330   57.6540   26.5050 O   0  0  0  0  0  0  0  0  0  0  0  0
   61.5590   56.6390   26.2010 C   0  0  0  0  0  0  0  0  0  0  0  0
   61.2500   55.6090   25.5810 O   0  0  0  0  0  0  0  0  0  0  0  0
   65.3000   56.9400   26.1910 C   0  0  0  0  0  0  0  0  0  0  0  0
   63.9660   56.7620   25.7510 C   0  0  0  0  0  0  0  0  0  0  0  0
   62.9290   56.8190   26.6390 C   0  0  0  0  0  0  0  0  0  0  0  0
   63.2310   57.0500   27.9410 N   0  0  0  0  0  0  0  0  0  0  0  0
   64.5040   57.2190   28.3550 C   0  0  0  0  0  0  0  0  0  0  0  0
   65.5220   57.1650   27.5010 N   0  0  0  0  0  0  0  0  0  0  0  0
   64.7580   57.4590   29.7340 N   0  0  0  0  0  0  0  0  0  0  0  0
   65.7930   56.9250   30.3960 C   0  0  0  0  0  0  0  0  0  0  0  0
   65.9990   57.1920   31.7530 C   0  0  0  0  0  0  0  0  0  0  0  0
   65.1050   58.0220   32.3960 C   0  0  0  0  0  0  0  0  0  0  0  0
   65.2200   58.3140   33.6250 O   0  0  0  0  0  0  0  0  0  0  0  0
   64.0540   58.5740   31.7600 N   0  0  0  0  0  0  0  0  0  0  0  0
   63.9480   58.2530   30.4540 C   0  0  0  0  0  0  0  0  0  0  0  0
   62.9620   58.7620   29.8230 O   0  0  0  0  0  0  0  0  0  0  0  0
   62.1502   59.3696   24.7743 H   0  0  0  0  0  0  0  0  0  0  0  0
   60.6004   60.6270   22.9244 H   0  0  0  0  0  0  0  0  0  0  0  0
   57.3599   58.1872   21.8871 H   0  0  0  0  0  0  0  0  0  0  0  0
   55.4610   59.6716   21.0441 H   0  0  0  0  0  0  0  0  0  0  0  0
   54.4715   62.2153   21.5402 H   0  0  0  0  0  0  0  0  0  0  0  0
   54.9033   64.1884   22.9610 H   0  0  0  0  0  0  0  0  0  0  0  0
   56.7698   64.2720   24.6007 H   0  0  0  0  0  0  0  0  0  0  0  0
   58.2234   62.2568   24.7851 H   0  0  0  0  0  0  0  0  0  0  0  0
   66.1372   56.8956   25.4788 H   0  0  0  0  0  0  0  0  0  0  0  0
   63.7628   56.5764   24.6860 H   0  0  0  0  0  0  0  0  0  0  0  0
   66.4930   56.2650   29.8628 H   0  0  0  0  0  0  0  0  0  0  0  0
   66.8506   56.7521   32.2927 H   0  0  0  0  0  0  0  0  0  0  0  0
   63.3823   59.1940   32.2346 H   0  0  0  0  0  0  0  0  0  0  0  0
  1 15  1  0
  2  1  2  0
  3  4  2  0
  3  2  1  0
  4  5  1  0
  5  1  1  0
  6 14  1  0
  6  4  1  0
  7  6  2  0
  8  7  1  0
  8  9  1  0
  9 14  2  0
 10  9  1  0
 10 11  2  0
 11 12  1  0
 12 13  2  0
 14 13  1  0
 16 15  1  0
 16 20  1  0
 17 16  2  0
 18 23  2  0
 19 18  1  0
 19 20  2  0
 20 21  1  0
 21 22  2  0
 22 24  1  0
 23 22  1  0
 24 25  1  0
 24 30  1  0
 25 26  2  0
 26 27  1  0
 27 28  2  0
 29 27  1  0
 30 29  1  0
 31 30  2  0
  2 32  1  0
  3 33  1  0
  7 34  1  0
  8 35  1  0
 10 36  1  0
 11 37  1  0
 12 38  1  0
 13 39  1  0
 18 40  1  0
 19 41  1  0
 25 42  1  0
 26 43  1  0
 29 44  1  0
M  END
>  <Score>  (1) 
-7.65724

$$$$
