
     RDKit          3D

 43 46  0  0  1  0  0  0  0  0999 V2000
   62.3890   56.6160   28.2120 C   0  0  0  0  0  0  0  0  0  0  0  0
   63.6420   56.9000   28.8870 N   0  0  0  0  0  0  0  0  0  0  0  0
   64.7290   57.2330   28.1920 C   0  0  0  0  0  0  0  0  0  0  0  0
   65.7570   57.3310   29.0270 N   0  0  0  0  0  0  0  0  0  0  0  0
   65.2400   57.3390   30.2820 C   0  0  2  0  0  0  0  0  0  0  0  0
   63.9250   57.1070   30.1610 N   0  0  0  0  0  0  0  0  0  0  0  0
   65.6660   57.5220   31.6890 C   0  0  0  0  0  0  0  0  0  0  0  0
   64.9910   58.2720   32.6340 C   0  0  0  0  0  0  0  0  0  0  0  0
   65.5120   58.3490   33.9090 C   0  0  0  0  0  0  0  0  0  0  0  0
   66.6840   57.6750   34.1910 C   0  0  0  0  0  0  0  0  0  0  0  0
   67.3690   56.9210   33.2560 C   0  0  0  0  0  0  0  0  0  0  0  0
   66.8360   56.8450   31.9610 C   0  0  0  0  0  0  0  0  0  0  0  0
   62.5970   56.0510   26.8150 C   0  0  0  0  0  0  0  0  0  0  0  0
   61.4110   56.4750   26.0120 C   0  0  0  0  0  0  0  0  0  0  0  0
   61.3090   57.7120   25.3290 C   0  0  0  0  0  0  0  0  0  0  0  0
   60.1300   57.9250   24.6380 C   0  0  0  0  0  0  0  0  0  0  0  0
   59.1590   56.9930   24.6320 N   0  0  0  0  0  0  0  0  0  0  0  0
   59.2820   55.8340   25.2840 C   0  0  0  0  0  0  0  0  0  0  0  0
   60.4260   55.5830   25.9780 N   0  0  0  0  0  0  0  0  0  0  0  0
   58.1970   54.9120   25.2170 N   0  0  0  0  0  0  0  0  0  0  0  0
   56.9460   54.9280   25.6610 N   0  0  0  0  0  0  0  0  0  0  0  0
   56.3210   53.7880   25.3290 C   0  0  0  0  0  0  0  0  0  0  0  0
   57.2370   53.0060   24.6330 C   0  0  0  0  0  0  0  0  0  0  0  0
   58.4160   53.7350   24.5730 C   0  0  0  0  0  0  0  0  0  0  0  0
   61.8246   55.8841   28.8085 H   0  0  0  0  0  0  0  0  0  0  0  0
   61.8401   57.5640   28.1117 H   0  0  0  0  0  0  0  0  0  0  0  0
   64.9373   56.4594   27.4382 H   0  0  0  0  0  0  0  0  0  0  0  0
   64.5675   58.1948   27.6833 H   0  0  0  0  0  0  0  0  0  0  0  0
   66.3888   56.5262   28.9084 H   0  0  0  0  0  0  0  0  0  0  0  0
   65.4270   56.2583   30.3659 H   0  0  0  0  0  0  0  0  0  0  0  0
   63.3971   57.9221   30.5044 H   0  0  0  0  0  0  0  0  0  0  0  0
   64.0590   58.7958   32.3750 H   0  0  0  0  0  0  0  0  0  0  0  0
   65.0031   58.9367   34.6872 H   0  0  0  0  0  0  0  0  0  0  0  0
   67.0928   57.7413   35.2100 H   0  0  0  0  0  0  0  0  0  0  0  0
   68.3005   56.3984   33.5190 H   0  0  0  0  0  0  0  0  0  0  0  0
   67.3404   56.2581   31.1793 H   0  0  0  0  0  0  0  0  0  0  0  0
   63.5201   56.4552   26.3740 H   0  0  0  0  0  0  0  0  0  0  0  0
   62.6950   54.9556   26.8366 H   0  0  0  0  0  0  0  0  0  0  0  0
   62.1178   58.4573   25.3471 H   0  0  0  0  0  0  0  0  0  0  0  0
   59.9843   58.8661   24.0875 H   0  0  0  0  0  0  0  0  0  0  0  0
   55.2797   53.5218   25.5632 H   0  0  0  0  0  0  0  0  0  0  0  0
   57.0610   52.0050   24.2123 H   0  0  0  0  0  0  0  0  0  0  0  0
   59.3541   53.4191   24.0932 H   0  0  0  0  0  0  0  0  0  0  0  0
  1  2  1  0
  2  6  1  0
  3  2  1  0
  3  4  1  0
  4  5  1  0
  5  7  1  0
  6  5  1  0
  7 12  1  0
  7  8  2  0
  8  9  1  0
  9 10  2  0
 11 10  1  0
 12 11  2  0
 13  1  1  0
 14 13  1  0
 15 14  2  0
 16 15  1  0
 17 16  2  0
 17 18  1  0
 18 19  2  0
 19 14  1  0
 20 18  1  0
 20 21  1  0
 22 21  2  0
 23 22  1  0
 24 23  2  0
 24 20  1  0
  1 25  1  0
  1 26  1  0
  3 27  1  0
  3 28  1  0
  4 29  1  0
  5 30  1  1
  6 31  1  0
  8 32  1  0
  9 33  1  0
 10 34  1  0
 11 35  1  0
 12 36  1  0
 13 37  1  0
 13 38  1  0
 15 39  1  0
 16 40  1  0
 22 41  1  0
 23 42  1  0
 24 43  1  0
M  END
>  <Score>  (1) 
-7.03659

$$$$
