
     RDKit          3D

 42 45  0  0  1  0  0  0  0  0999 V2000
   61.3640   56.7580   26.7980 C   0  0  2  0  0  0  0  0  0  0  0  0
   61.3190   55.5350   25.8890 C   0  0  0  0  0  0  0  0  0  0  0  0
   59.8680   55.3190   25.5400 C   0  0  0  0  0  0  0  0  0  0  0  0
   59.5140   56.4760   24.5840 C   0  0  0  0  0  0  0  0  0  0  0  0
   59.6110   57.7780   25.3290 C   0  0  0  0  0  0  0  0  0  0  0  0
   60.9240   57.9720   26.0240 C   0  0  1  0  0  0  0  0  0  0  0  0
   60.7630   59.0920   26.9350 C   0  0  0  0  0  0  0  0  0  0  0  0
   61.2060   59.1830   28.2310 C   0  0  0  0  0  0  0  0  0  0  0  0
   61.0470   60.2580   29.0790 C   0  0  0  0  0  0  0  0  0  0  0  0
   60.3800   61.3690   28.6080 C   0  0  0  0  0  0  0  0  0  0  0  0
   59.9120   61.3520   27.3340 C   0  0  0  0  0  0  0  0  0  0  0  0
   59.2530   62.4900   26.9230 C   0  0  0  0  0  0  0  0  0  0  0  0
   58.7410   62.5680   25.6490 C   0  0  0  0  0  0  0  0  0  0  0  0
   58.8970   61.4930   24.7980 C   0  0  0  0  0  0  0  0  0  0  0  0
   59.5650   60.3800   25.2610 C   0  0  0  0  0  0  0  0  0  0  0  0
   60.0970   60.2510   26.5250 C   0  0  0  0  0  0  0  0  0  0  0  0
   63.8500   57.2160   26.5060 C   0  0  0  0  0  0  0  0  0  0  0  0
   62.7190   56.9490   27.3060 C   0  0  0  0  0  0  0  0  0  0  0  0
   62.9490   56.8670   28.6820 C   0  0  0  0  0  0  0  0  0  0  0  0
   64.2010   57.0430   29.1610 N   0  0  0  0  0  0  0  0  0  0  0  0
   65.2520   57.2980   28.3460 C   0  0  0  0  0  0  0  0  0  0  0  0
   65.0820   57.3880   26.9960 N   0  0  0  0  0  0  0  0  0  0  0  0
   60.6856   56.6070   27.6507 H   0  0  0  0  0  0  0  0  0  0  0  0
   61.9069   55.7165   24.9772 H   0  0  0  0  0  0  0  0  0  0  0  0
   61.7459   54.6517   26.3865 H   0  0  0  0  0  0  0  0  0  0  0  0
   59.7302   54.3485   25.0409 H   0  0  0  0  0  0  0  0  0  0  0  0
   59.2246   55.3071   26.4321 H   0  0  0  0  0  0  0  0  0  0  0  0
   58.4889   56.3424   24.2080 H   0  0  0  0  0  0  0  0  0  0  0  0
   60.2136   56.4821   23.7352 H   0  0  0  0  0  0  0  0  0  0  0  0
   59.4715   58.6006   24.6122 H   0  0  0  0  0  0  0  0  0  0  0  0
   58.8323   57.7653   26.1058 H   0  0  0  0  0  0  0  0  0  0  0  0
   61.7006   58.1563   25.2671 H   0  0  0  0  0  0  0  0  0  0  0  0
   61.7417   58.3105   28.6332 H   0  0  0  0  0  0  0  0  0  0  0  0
   61.4421   60.2302   30.1052 H   0  0  0  0  0  0  0  0  0  0  0  0
   60.2305   62.2494   29.2503 H   0  0  0  0  0  0  0  0  0  0  0  0
   59.1362   63.3373   27.6148 H   0  0  0  0  0  0  0  0  0  0  0  0
   58.2149   63.4739   25.3133 H   0  0  0  0  0  0  0  0  0  0  0  0
   58.4974   61.5237   23.7736 H   0  0  0  0  0  0  0  0  0  0  0  0
   59.6820   59.5321   24.5701 H   0  0  0  0  0  0  0  0  0  0  0  0
   63.7102   57.2867   25.4172 H   0  0  0  0  0  0  0  0  0  0  0  0
   62.1167   56.6606   29.3710 H   0  0  0  0  0  0  0  0  0  0  0  0
   66.2544   57.4341   28.7780 H   0  0  0  0  0  0  0  0  0  0  0  0
  1 18  1  0
  2  1  1  0
  3  2  1  0
  4  5  1  0
  4  3  1  0
  5  6  1  0
  6  1  1  0
  6  7  1  0
  7  8  2  0
  8  9  1  0
 10  9  2  0
 11 10  1  0
 12 11  2  0
 13 12  1  0
 14 15  1  0
 14 13  2  0
 15 16  2  0
 16  7  1  0
 16 11  1  0
 17 22  2  0
 17 18  1  0
 18 19  2  0
 19 20  1  0
 21 20  2  0
 22 21  1  0
  1 23  1  1
  2 24  1  0
  2 25  1  0
  3 26  1  0
  3 27  1  0
  4 28  1  0
  4 29  1  0
  5 30  1  0
  5 31  1  0
  6 32  1  6
  8 33  1  0
  9 34  1  0
 10 35  1  0
 12 36  1  0
 13 37  1  0
 14 38  1  0
 15 39  1  0
 17 40  1  0
 19 41  1  0
 21 42  1  0
M  END
>  <Score>  (1) 
-7.26431

$$$$
