
     RDKit          3D

 49 52  0  0  0  0  0  0  0  0999 V2000
   62.0330   58.0890   28.4450 C   0  0  0  0  0  0  0  0  0  0  0  0
   62.6160   56.8250   28.3510 C   0  0  0  0  0  0  0  0  0  0  0  0
   62.4400   56.1350   27.1370 C   0  0  0  0  0  0  0  0  0  0  0  0
   61.7250   56.7170   26.1290 N   0  0  0  0  0  0  0  0  0  0  0  0
   61.1800   57.9490   26.2780 C   0  0  0  0  0  0  0  0  0  0  0  0
   61.3390   58.6310   27.4400 N   0  0  0  0  0  0  0  0  0  0  0  0
   60.4380   58.5310   25.2040 N   0  0  0  0  0  0  0  0  0  0  0  0
   60.4150   59.9670   25.0460 C   0  0  0  0  0  0  0  0  0  0  0  0
   59.2820   60.4900   24.2640 C   0  0  0  0  0  0  0  0  0  0  0  0
   58.8160   59.6740   23.1920 N   0  0  0  0  0  0  0  0  0  0  0  0
   59.5580   58.4570   22.9940 C   0  0  0  0  0  0  0  0  0  0  0  0
   59.7170   57.6840   24.2870 C   0  0  0  0  0  0  0  0  0  0  0  0
   62.2170   58.7530   29.6490 O   0  0  0  0  0  0  0  0  0  0  0  0
   63.3940   59.2550   30.1460 C   0  0  0  0  0  0  0  0  0  0  0  0
   64.1660   58.3390   30.8260 C   0  0  0  0  0  0  0  0  0  0  0  0
   65.3890   58.7140   31.3860 C   0  0  0  0  0  0  0  0  0  0  0  0
   65.7810   60.0130   31.2320 N   0  0  0  0  0  0  0  0  0  0  0  0
   65.0230   60.8830   30.5730 C   0  0  0  0  0  0  0  0  0  0  0  0
   63.8480   60.5270   30.0350 N   0  0  0  0  0  0  0  0  0  0  0  0
   66.2280   57.8150   32.0970 N   0  0  0  0  0  0  0  0  0  0  0  0
   66.3430   58.0730   33.4280 C   0  0  0  0  0  0  0  0  0  0  0  0
   67.1110   57.3170   34.3030 C   0  0  0  0  0  0  0  0  0  0  0  0
   67.1890   57.6610   35.7460 C   0  0  0  0  0  0  0  0  0  0  0  0
   67.7730   56.2540   33.7250 C   0  0  0  0  0  0  0  0  0  0  0  0
   68.4870   55.5410   34.5070 O   0  0  0  0  0  0  0  0  0  0  0  0
   67.6630   55.9920   32.4090 N   0  0  0  0  0  0  0  0  0  0  0  0
   66.9030   56.7600   31.6110 C   0  0  0  0  0  0  0  0  0  0  0  0
   66.7730   56.5560   30.3930 O   0  0  0  0  0  0  0  0  0  0  0  0
   65.4310   62.2960   30.3950 C   0  0  0  0  0  0  0  0  0  0  0  0
   64.8080   62.9080   29.3390 F   0  0  0  0  0  0  0  0  0  0  0  0
   66.7990   62.4150   30.1630 F   0  0  0  0  0  0  0  0  0  0  0  0
   65.2430   62.9530   31.6160 F   0  0  0  0  0  0  0  0  0  0  0  0
   63.1854   56.3889   29.1850 H   0  0  0  0  0  0  0  0  0  0  0  0
   62.8752   55.1340   27.0008 H   0  0  0  0  0  0  0  0  0  0  0  0
   60.3759   60.4197   26.0477 H   0  0  0  0  0  0  0  0  0  0  0  0
   61.3232   60.2285   24.4831 H   0  0  0  0  0  0  0  0  0  0  0  0
   58.4412   60.6437   24.9564 H   0  0  0  0  0  0  0  0  0  0  0  0
   59.6571   61.4080   23.7880 H   0  0  0  0  0  0  0  0  0  0  0  0
   57.8351   59.4240   23.3825 H   0  0  0  0  0  0  0  0  0  0  0  0
   59.0249   57.8284   22.2656 H   0  0  0  0  0  0  0  0  0  0  0  0
   60.5603   58.7213   22.6257 H   0  0  0  0  0  0  0  0  0  0  0  0
   58.7289   57.4352   24.7013 H   0  0  0  0  0  0  0  0  0  0  0  0
   60.2602   56.7430   24.1152 H   0  0  0  0  0  0  0  0  0  0  0  0
   63.8155   57.3014   30.9289 H   0  0  0  0  0  0  0  0  0  0  0  0
   65.7933   58.9340   33.8360 H   0  0  0  0  0  0  0  0  0  0  0  0
   66.9855   56.7634   36.3484 H   0  0  0  0  0  0  0  0  0  0  0  0
   68.1956   58.0385   35.9791 H   0  0  0  0  0  0  0  0  0  0  0  0
   66.4437   58.4358   35.9791 H   0  0  0  0  0  0  0  0  0  0  0  0
   68.1696   55.1900   32.0078 H   0  0  0  0  0  0  0  0  0  0  0  0
  1 13  1  0
  2  1  2  0
  3  2  1  0
  4  5  1  0
  4  3  2  0
  5  6  2  0
  6  1  1  0
  7  5  1  0
  8  7  1  0
  9  8  1  0
 10  9  1  0
 11 10  1  0
 11 12  1  0
 12  7  1  0
 13 14  1  0
 14 15  2  0
 15 16  1  0
 16 20  1  0
 17 16  2  0
 18 17  1  0
 19 14  1  0
 19 18  2  0
 20 21  1  0
 21 22  2  0
 22 23  1  0
 24 22  1  0
 24 25  2  0
 26 24  1  0
 27 20  1  0
 27 26  1  0
 28 27  2  0
 29 18  1  0
 29 32  1  0
 30 29  1  0
 31 29  1  0
  2 33  1  0
  3 34  1  0
  8 35  1  0
  8 36  1  0
  9 37  1  0
  9 38  1  0
 10 39  1  0
 11 40  1  0
 11 41  1  0
 12 42  1  0
 12 43  1  0
 15 44  1  0
 21 45  1  0
 23 46  1  0
 23 47  1  0
 23 48  1  0
 26 49  1  0
M  END
>  <Score>  (1) 
-7.56372

$$$$
