
     RDKit          3D

 48 52  0  0  0  0  0  0  0  0999 V2000
   62.1410   55.8900   25.9440 C   0  0  0  0  0  0  0  0  0  0  0  0
   60.9710   56.7110   25.5070 C   0  0  0  0  0  0  0  0  0  0  0  0
   60.9320   58.1140   25.5090 C   0  0  0  0  0  0  0  0  0  0  0  0
   59.7710   58.7230   25.0730 C   0  0  0  0  0  0  0  0  0  0  0  0
   58.7450   57.9560   24.6700 N   0  0  0  0  0  0  0  0  0  0  0  0
   58.8040   56.6170   24.6770 C   0  0  0  0  0  0  0  0  0  0  0  0
   59.9210   55.9870   25.0960 N   0  0  0  0  0  0  0  0  0  0  0  0
   57.6410   55.9490   24.2230 N   0  0  0  0  0  0  0  0  0  0  0  0
   57.1900   54.8850   24.9330 C   0  0  0  0  0  0  0  0  0  0  0  0
   56.0800   54.3640   24.3720 N   0  0  0  0  0  0  0  0  0  0  0  0
   55.8000   55.1010   23.2790 C   0  0  0  0  0  0  0  0  0  0  0  0
   54.8570   55.1280   22.2880 C   0  0  0  0  0  0  0  0  0  0  0  0
   53.9490   54.2660   22.3090 O   0  0  0  0  0  0  0  0  0  0  0  0
   54.9400   56.0780   21.3290 N   0  0  0  0  0  0  0  0  0  0  0  0
   55.9070   57.0240   21.2770 C   0  0  0  0  0  0  0  0  0  0  0  0
   55.7830   57.9130   20.1750 N   0  0  0  0  0  0  0  0  0  0  0  0
   56.8470   57.0120   22.2480 N   0  0  0  0  0  0  0  0  0  0  0  0
   56.7780   56.0680   23.2140 C   0  0  0  0  0  0  0  0  0  0  0  0
   62.0830   55.8270   27.4590 C   0  0  0  0  0  0  0  0  0  0  0  0
   63.2110   56.5010   28.0710 N   0  0  0  0  0  0  0  0  0  0  0  0
   64.1310   57.1250   27.3360 C   0  0  0  0  0  0  0  0  0  0  0  0
   65.1550   57.4570   28.1040 N   0  0  0  0  0  0  0  0  0  0  0  0
   64.7630   57.2590   29.3900 C   0  0  0  0  0  0  0  0  0  0  0  0
   63.5750   56.6430   29.3350 N   0  0  0  0  0  0  0  0  0  0  0  0
   65.2170   57.4980   30.7820 C   0  0  0  0  0  0  0  0  0  0  0  0
   64.4910   58.1300   31.7610 C   0  0  0  0  0  0  0  0  0  0  0  0
   65.0450   58.2800   33.0130 C   0  0  0  0  0  0  0  0  0  0  0  0
   66.3120   57.7880   33.2340 C   0  0  0  0  0  0  0  0  0  0  0  0
   67.0660   57.1440   32.2570 C   0  0  0  0  0  0  0  0  0  0  0  0
   66.4870   57.0010   30.9910 C   0  0  0  0  0  0  0  0  0  0  0  0
   63.0794   56.3631   25.6192 H   0  0  0  0  0  0  0  0  0  0  0  0
   62.1065   54.8829   25.5029 H   0  0  0  0  0  0  0  0  0  0  0  0
   61.7949   58.7074   25.8456 H   0  0  0  0  0  0  0  0  0  0  0  0
   59.6883   59.8198   25.0562 H   0  0  0  0  0  0  0  0  0  0  0  0
   57.6667   54.4982   25.8458 H   0  0  0  0  0  0  0  0  0  0  0  0
   54.2215   56.0820   20.5910 H   0  0  0  0  0  0  0  0  0  0  0  0
   56.4692   58.6699   20.0442 H   0  0  0  0  0  0  0  0  0  0  0  0
   55.0069   57.8003   19.5072 H   0  0  0  0  0  0  0  0  0  0  0  0
   61.1540   56.3074   27.7997 H   0  0  0  0  0  0  0  0  0  0  0  0
   62.1146   54.7689   27.7579 H   0  0  0  0  0  0  0  0  0  0  0  0
   64.4756   56.4559   26.5337 H   0  0  0  0  0  0  0  0  0  0  0  0
   63.6943   58.0323   26.8931 H   0  0  0  0  0  0  0  0  0  0  0  0
   63.0295   56.3286   30.1502 H   0  0  0  0  0  0  0  0  0  0  0  0
   63.4813   58.5111   31.5485 H   0  0  0  0  0  0  0  0  0  0  0  0
   64.4880   58.7815   33.8181 H   0  0  0  0  0  0  0  0  0  0  0  0
   66.7513   57.9103   34.2350 H   0  0  0  0  0  0  0  0  0  0  0  0
   68.0755   56.7631   32.4713 H   0  0  0  0  0  0  0  0  0  0  0  0
   67.0342   56.5017   30.1778 H   0  0  0  0  0  0  0  0  0  0  0  0
  1 19  1  0
  2  3  2  0
  2  1  1  0
  4  3  1  0
  5  6  1  0
  5  4  2  0
  6  7  2  0
  7  2  1  0
  8  6  1  0
  8  9  1  0
 10  9  2  0
 11 10  1  0
 12 13  2  0
 12 11  1  0
 14 12  1  0
 15 14  1  0
 15 17  2  0
 16 15  1  0
 17 18  1  0
 18 11  2  0
 18  8  1  0
 19 20  1  0
 20 24  1  0
 21 20  1  0
 21 22  1  0
 22 23  2  0
 23 25  1  0
 24 23  1  0
 25 30  1  0
 25 26  2  0
 26 27  1  0
 27 28  2  0
 29 28  1  0
 30 29  2  0
  1 31  1  0
  1 32  1  0
  3 33  1  0
  4 34  1  0
  9 35  1  0
 14 36  1  0
 16 37  1  0
 16 38  1  0
 19 39  1  0
 19 40  1  0
 21 41  1  0
 21 42  1  0
 24 43  1  0
 26 44  1  0
 27 45  1  0
 28 46  1  0
 29 47  1  0
 30 48  1  0
M  END
>  <Score>  (1) 
-7.8113

$$$$
