
     RDKit          3D

 47 51  0  0  1  0  0  0  0  0999 V2000
   61.8340   57.1170   26.8620 N   0  0  0  0  0  0  0  0  0  0  0  0
   61.4940   55.7360   26.5420 C   0  0  0  0  0  0  0  0  0  0  0  0
   60.6270   55.8360   25.3220 C   0  0  0  0  0  0  0  0  0  0  0  0
   59.8540   57.1180   25.6360 C   0  0  0  0  0  0  0  0  0  0  0  0
   61.1210   57.9920   26.0320 C   0  0  1  0  0  0  0  0  0  0  0  0
   64.1180   57.2450   27.7910 C   0  0  0  0  0  0  0  0  0  0  0  0
   62.7290   57.5020   27.8750 C   0  0  0  0  0  0  0  0  0  0  0  0
   62.3250   58.1730   29.0180 C   0  0  0  0  0  0  0  0  0  0  0  0
   63.2090   58.5400   29.9560 N   0  0  0  0  0  0  0  0  0  0  0  0
   64.5060   58.2730   29.8260 C   0  0  0  0  0  0  0  0  0  0  0  0
   64.9780   57.6290   28.7570 N   0  0  0  0  0  0  0  0  0  0  0  0
   65.5060   58.6310   30.7750 N   0  0  0  0  0  0  0  0  0  0  0  0
   65.4100   59.8100   31.4180 C   0  0  0  0  0  0  0  0  0  0  0  0
   66.4240   60.1010   32.3370 C   0  0  0  0  0  0  0  0  0  0  0  0
   67.4680   59.2100   32.5630 C   0  0  0  0  0  0  0  0  0  0  0  0
   68.5180   59.4660   33.4870 N   0  0  0  0  0  0  0  0  0  0  0  0
   67.4860   58.0540   31.8770 N   0  0  0  0  0  0  0  0  0  0  0  0
   66.5070   57.7500   30.9740 C   0  0  0  0  0  0  0  0  0  0  0  0
   66.6010   56.6470   30.3770 O   0  0  0  0  0  0  0  0  0  0  0  0
   60.6440   59.2540   26.5610 C   0  0  0  0  0  0  0  0  0  0  0  0
   60.8200   59.9460   27.7180 C   0  0  0  0  0  0  0  0  0  0  0  0
   60.2290   61.1480   27.7240 N   0  0  0  0  0  0  0  0  0  0  0  0
   59.6290   61.2750   26.5390 C   0  0  0  0  0  0  0  0  0  0  0  0
   58.8380   62.3050   26.0750 C   0  0  0  0  0  0  0  0  0  0  0  0
   58.2380   62.2400   24.8420 C   0  0  0  0  0  0  0  0  0  0  0  0
   58.4570   61.1060   24.0830 C   0  0  0  0  0  0  0  0  0  0  0  0
   59.2510   60.0880   24.5590 C   0  0  0  0  0  0  0  0  0  0  0  0
   59.8620   60.1430   25.8080 C   0  0  0  0  0  0  0  0  0  0  0  0
   62.4011   55.1519   26.3276 H   0  0  0  0  0  0  0  0  0  0  0  0
   60.9874   55.2261   27.3747 H   0  0  0  0  0  0  0  0  0  0  0  0
   59.9559   54.9695   25.2282 H   0  0  0  0  0  0  0  0  0  0  0  0
   61.1759   55.8526   24.3689 H   0  0  0  0  0  0  0  0  0  0  0  0
   59.3209   57.5168   24.7603 H   0  0  0  0  0  0  0  0  0  0  0  0
   59.0461   57.0446   26.3789 H   0  0  0  0  0  0  0  0  0  0  0  0
   61.8088   58.3302   25.2430 H   0  0  0  0  0  0  0  0  0  0  0  0
   64.5091   56.7152   26.9099 H   0  0  0  0  0  0  0  0  0  0  0  0
   61.2597   58.4087   29.1580 H   0  0  0  0  0  0  0  0  0  0  0  0
   64.5795   60.5066   31.2310 H   0  0  0  0  0  0  0  0  0  0  0  0
   66.3951   61.0511   32.8906 H   0  0  0  0  0  0  0  0  0  0  0  0
   69.2689   58.7733   33.6182 H   0  0  0  0  0  0  0  0  0  0  0  0
   68.5277   60.3442   34.0252 H   0  0  0  0  0  0  0  0  0  0  0  0
   61.3947   59.5549   28.5705 H   0  0  0  0  0  0  0  0  0  0  0  0
   60.2363   61.8365   28.4901 H   0  0  0  0  0  0  0  0  0  0  0  0
   58.6852   63.1944   26.7040 H   0  0  0  0  0  0  0  0  0  0  0  0
   57.6060   63.0606   24.4716 H   0  0  0  0  0  0  0  0  0  0  0  0
   57.9926   61.0165   23.0899 H   0  0  0  0  0  0  0  0  0  0  0  0
   59.4083   59.1994   23.9300 H   0  0  0  0  0  0  0  0  0  0  0  0
  1  7  1  0
  2  1  1  0
  3  4  1  0
  3  2  1  0
  4  5  1  0
  5 20  1  0
  5  1  1  0
  6  7  2  0
  6 11  1  0
  7  8  1  0
  8  9  2  0
 10  9  1  0
 10 12  1  0
 11 10  2  0
 12 18  1  0
 12 13  1  0
 13 14  2  0
 14 15  1  0
 15 16  1  0
 17 15  2  0
 18 17  1  0
 19 18  2  0
 20 21  2  0
 21 22  1  0
 23 22  1  0
 24 23  2  0
 25 24  1  0
 26 27  1  0
 26 25  2  0
 27 28  2  0
 28 23  1  0
 28 20  1  0
  2 29  1  0
  2 30  1  0
  3 31  1  0
  3 32  1  0
  4 33  1  0
  4 34  1  0
  5 35  1  6
  6 36  1  0
  8 37  1  0
 13 38  1  0
 14 39  1  0
 16 40  1  0
 16 41  1  0
 21 42  1  0
 22 43  1  0
 24 44  1  0
 25 45  1  0
 26 46  1  0
 27 47  1  0
M  END
>  <Score>  (1) 
-7.3256

$$$$
