
     RDKit          3D

 56 58  0  0  1  0  0  0  0  0999 V2000
   60.8180   60.1890   24.4710 N   0  0  0  0  0  0  0  0  0  0  0  0
   59.9170   59.6260   23.6380 C   0  0  0  0  0  0  0  0  0  0  0  0
   59.5990   58.1970   24.0230 C   0  0  0  0  0  0  0  0  0  0  0  0
   59.3910   57.9640   25.4730 C   0  0  2  0  0  0  0  0  0  0  0  0
   60.3150   58.7210   26.3260 C   0  0  0  0  0  0  0  0  0  0  0  0
   60.5150   60.1350   25.8590 C   0  0  2  0  0  0  0  0  0  0  0  0
   59.5890   56.5440   25.6870 N   0  0  0  0  0  0  0  0  0  0  0  0
   60.8160   56.0170   25.3770 C   0  0  0  0  0  0  0  0  0  0  0  0
   61.4970   55.5580   26.6420 C   0  0  0  0  0  0  0  0  0  0  0  0
   64.8980   57.0420   26.1450 C   0  0  0  0  0  0  0  0  0  0  0  0
   63.6440   56.4400   25.9220 C   0  0  0  0  0  0  0  0  0  0  0  0
   62.7930   56.1860   26.9440 C   0  0  0  0  0  0  0  0  0  0  0  0
   63.1940   56.5330   28.1800 N   0  0  0  0  0  0  0  0  0  0  0  0
   64.3790   57.1060   28.4200 C   0  0  0  0  0  0  0  0  0  0  0  0
   65.2270   57.3590   27.4070 N   0  0  0  0  0  0  0  0  0  0  0  0
   64.8260   57.4830   29.7250 N   0  0  0  0  0  0  0  0  0  0  0  0
   65.9020   56.9680   30.3210 C   0  0  0  0  0  0  0  0  0  0  0  0
   66.2600   57.3960   31.5930 C   0  0  0  0  0  0  0  0  0  0  0  0
   65.4400   58.3550   32.1540 C   0  0  0  0  0  0  0  0  0  0  0  0
   65.7290   58.8520   33.4530 N   0  0  0  0  0  0  0  0  0  0  0  0
   64.3560   58.8620   31.5310 N   0  0  0  0  0  0  0  0  0  0  0  0
   64.0390   58.4140   30.2810 C   0  0  0  0  0  0  0  0  0  0  0  0
   63.0190   58.9290   29.7660 O   0  0  0  0  0  0  0  0  0  0  0  0
   59.5220   61.1200   26.3740 C   0  0  0  0  0  0  0  0  0  0  0  0
   60.0250   62.1370   27.3420 C   0  0  0  0  0  0  0  0  0  0  0  0
   58.9740   61.9280   25.1770 C   0  0  0  0  0  0  0  0  0  0  0  0
   58.3630   60.4120   26.9850 C   0  0  0  0  0  0  0  0  0  0  0  0
   60.9105   61.1807   24.2087 H   0  0  0  0  0  0  0  0  0  0  0  0
   60.3245   59.6355   22.6163 H   0  0  0  0  0  0  0  0  0  0  0  0
   58.9863   60.2088   23.7026 H   0  0  0  0  0  0  0  0  0  0  0  0
   58.6809   57.8989   23.4955 H   0  0  0  0  0  0  0  0  0  0  0  0
   60.4807   57.6022   23.7421 H   0  0  0  0  0  0  0  0  0  0  0  0
   58.3826   58.3053   25.7498 H   0  0  0  0  0  0  0  0  0  0  0  0
   59.9107   58.7428   27.3488 H   0  0  0  0  0  0  0  0  0  0  0  0
   61.2921   58.2175   26.2832 H   0  0  0  0  0  0  0  0  0  0  0  0
   61.4227   60.5101   26.3544 H   0  0  0  0  0  0  0  0  0  0  0  0
   59.4172   56.3566   26.6851 H   0  0  0  0  0  0  0  0  0  0  0  0
   60.6871   55.1612   24.6981 H   0  0  0  0  0  0  0  0  0  0  0  0
   61.4321   56.7840   24.8850 H   0  0  0  0  0  0  0  0  0  0  0  0
   60.8190   55.7654   27.4830 H   0  0  0  0  0  0  0  0  0  0  0  0
   61.7143   54.4904   26.4899 H   0  0  0  0  0  0  0  0  0  0  0  0
   65.5858   57.2458   25.3111 H   0  0  0  0  0  0  0  0  0  0  0  0
   63.3503   56.1708   24.8967 H   0  0  0  0  0  0  0  0  0  0  0  0
   66.5050   56.2056   29.8062 H   0  0  0  0  0  0  0  0  0  0  0  0
   67.1396   56.9969   32.1193 H   0  0  0  0  0  0  0  0  0  0  0  0
   65.1217   59.5674   33.8776 H   0  0  0  0  0  0  0  0  0  0  0  0
   66.5459   58.4970   33.9703 H   0  0  0  0  0  0  0  0  0  0  0  0
   59.8502   61.7837   28.3689 H   0  0  0  0  0  0  0  0  0  0  0  0
   61.1029   62.2905   27.1855 H   0  0  0  0  0  0  0  0  0  0  0  0
   59.4928   63.0869   27.1855 H   0  0  0  0  0  0  0  0  0  0  0  0
   58.3928   62.7849   25.5484 H   0  0  0  0  0  0  0  0  0  0  0  0
   59.8128   62.2914   24.5651 H   0  0  0  0  0  0  0  0  0  0  0  0
   58.3262   61.2831   24.5651 H   0  0  0  0  0  0  0  0  0  0  0  0
   58.4407   60.4595   28.0812 H   0  0  0  0  0  0  0  0  0  0  0  0
   57.4279   60.8932   26.6625 H   0  0  0  0  0  0  0  0  0  0  0  0
   58.3643   59.3603   26.6625 H   0  0  0  0  0  0  0  0  0  0  0  0
  1  6  1  0
  2  3  1  0
  2  1  1  0
  3  4  1  0
  4  7  1  0
  4  5  1  0
  6  5  1  0
  6 24  1  0
  8  7  1  0
  8  9  1  0
  9 12  1  0
 10 15  2  0
 11 10  1  0
 11 12  2  0
 12 13  1  0
 13 14  2  0
 14 16  1  0
 15 14  1  0
 16 22  1  0
 16 17  1  0
 17 18  2  0
 18 19  1  0
 19 20  1  0
 21 19  2  0
 22 21  1  0
 23 22  2  0
 24 27  1  0
 24 25  1  0
 26 24  1  0
  1 28  1  0
  2 29  1  0
  2 30  1  0
  3 31  1  0
  3 32  1  0
  4 33  1  1
  5 34  1  0
  5 35  1  0
  6 36  1  1
  7 37  1  0
  8 38  1  0
  8 39  1  0
  9 40  1  0
  9 41  1  0
 10 42  1  0
 11 43  1  0
 17 44  1  0
 18 45  1  0
 20 46  1  0
 20 47  1  0
 25 48  1  0
 25 49  1  0
 25 50  1  0
 26 51  1  0
 26 52  1  0
 26 53  1  0
 27 54  1  0
 27 55  1  0
 27 56  1  0
M  END
>  <Score>  (1) 
-7.11274

$$$$
