
     RDKit          3D

 47 52  0  0  0  0  0  0  0  0999 V2000
   60.6610   57.6390   26.4250 O   0  0  0  0  0  0  0  0  0  0  0  0
   60.3380   58.5570   25.4190 C   0  0  0  0  0  0  0  0  0  0  0  0
   61.2110   59.2630   24.6140 C   0  0  0  0  0  0  0  0  0  0  0  0
   60.4810   60.0690   23.7420 C   0  0  0  0  0  0  0  0  0  0  0  0
   59.1690   59.7990   24.0760 C   0  0  0  0  0  0  0  0  0  0  0  0
   59.1430   58.9340   25.0350 O   0  0  0  0  0  0  0  0  0  0  0  0
   58.0230   60.4280   23.4140 C   0  0  0  0  0  0  0  0  0  0  0  0
   57.4190   60.0800   22.2190 C   0  0  0  0  0  0  0  0  0  0  0  0
   56.4110   60.9110   21.9800 N   0  0  0  0  0  0  0  0  0  0  0  0
   56.3130   61.8070   22.9720 C   0  0  0  0  0  0  0  0  0  0  0  0
   55.4260   62.8260   23.1210 C   0  0  0  0  0  0  0  0  0  0  0  0
   55.5710   63.5950   24.2610 C   0  0  0  0  0  0  0  0  0  0  0  0
   56.5490   63.3890   25.2390 C   0  0  0  0  0  0  0  0  0  0  0  0
   57.4040   62.3310   25.0010 C   0  0  0  0  0  0  0  0  0  0  0  0
   57.3180   61.5180   23.8800 C   0  0  0  0  0  0  0  0  0  0  0  0
   61.6290   56.6680   26.0920 C   0  0  0  0  0  0  0  0  0  0  0  0
   61.3760   55.6990   25.3770 O   0  0  0  0  0  0  0  0  0  0  0  0
   65.3610   56.7270   26.4350 C   0  0  0  0  0  0  0  0  0  0  0  0
   64.0770   56.5510   25.8610 C   0  0  0  0  0  0  0  0  0  0  0  0
   62.9790   56.8290   26.6230 C   0  0  0  0  0  0  0  0  0  0  0  0
   63.1800   57.2590   27.8830 N   0  0  0  0  0  0  0  0  0  0  0  0
   64.4040   57.4270   28.4300 C   0  0  0  0  0  0  0  0  0  0  0  0
   65.4900   57.1610   27.7040 N   0  0  0  0  0  0  0  0  0  0  0  0
   64.5210   57.8870   29.7740 N   0  0  0  0  0  0  0  0  0  0  0  0
   63.7000   58.7850   30.3840 C   0  0  0  0  0  0  0  0  0  0  0  0
   64.0900   59.0040   31.6690 N   0  0  0  0  0  0  0  0  0  0  0  0
   65.1710   58.2250   31.8440 C   0  0  0  0  0  0  0  0  0  0  0  0
   66.0550   57.9470   32.8660 C   0  0  0  0  0  0  0  0  0  0  0  0
   67.0780   57.0860   32.7320 N   0  0  0  0  0  0  0  0  0  0  0  0
   67.2850   56.4400   31.5550 C   0  0  0  0  0  0  0  0  0  0  0  0
   66.4630   56.6590   30.5090 N   0  0  0  0  0  0  0  0  0  0  0  0
   65.4580   57.5180   30.6740 C   0  0  0  0  0  0  0  0  0  0  0  0
   65.8800   58.6000   34.1170 N   0  0  0  0  0  0  0  0  0  0  0  0
   62.3084   59.1992   24.6547 H   0  0  0  0  0  0  0  0  0  0  0  0
   60.8600   60.7564   22.9714 H   0  0  0  0  0  0  0  0  0  0  0  0
   57.7252   59.2467   21.5695 H   0  0  0  0  0  0  0  0  0  0  0  0
   55.7958   60.8726   21.1548 H   0  0  0  0  0  0  0  0  0  0  0  0
   54.6395   63.0270   22.3787 H   0  0  0  0  0  0  0  0  0  0  0  0
   54.8674   64.4275   24.4090 H   0  0  0  0  0  0  0  0  0  0  0  0
   56.6313   64.0240   26.1335 H   0  0  0  0  0  0  0  0  0  0  0  0
   58.1936   62.1221   25.7378 H   0  0  0  0  0  0  0  0  0  0  0  0
   66.2595   56.5075   25.8396 H   0  0  0  0  0  0  0  0  0  0  0  0
   63.9678   56.1983   24.8248 H   0  0  0  0  0  0  0  0  0  0  0  0
   62.8372   59.2687   29.9028 H   0  0  0  0  0  0  0  0  0  0  0  0
   68.1250   55.7368   31.4552 H   0  0  0  0  0  0  0  0  0  0  0  0
   66.5284   58.4072   34.8937 H   0  0  0  0  0  0  0  0  0  0  0  0
   65.1048   59.2658   34.2464 H   0  0  0  0  0  0  0  0  0  0  0  0
  2  1  1  0
  3  2  2  0
  4  5  2  0
  4  3  1  0
  5  6  1  0
  6  2  1  0
  7 15  1  0
  7  5  1  0
  8  7  2  0
  9  8  1  0
  9 10  1  0
 10 11  2  0
 10 15  1  0
 11 12  1  0
 12 13  2  0
 14 13  1  0
 15 14  2  0
 16  1  1  0
 16 20  1  0
 17 16  2  0
 18 23  2  0
 19 18  1  0
 19 20  2  0
 20 21  1  0
 21 22  2  0
 22 24  1  0
 23 22  1  0
 24 25  1  0
 24 32  1  0
 25 26  2  0
 26 27  1  0
 27 28  2  0
 28 33  1  0
 29 28  1  0
 30 29  2  0
 31 32  2  0
 31 30  1  0
 32 27  1  0
  3 34  1  0
  4 35  1  0
  8 36  1  0
  9 37  1  0
 11 38  1  0
 12 39  1  0
 13 40  1  0
 14 41  1  0
 18 42  1  0
 19 43  1  0
 25 44  1  0
 30 45  1  0
 33 46  1  0
 33 47  1  0
M  END
>  <Score>  (1) 
-7.69056

$$$$
