
     RDKit          3D

 50 54  0  0  0  0  0  0  0  0999 V2000
   63.3540   57.3700   28.3320 C   0  0  0  0  0  0  0  0  0  0  0  0
   64.3590   56.9230   27.4630 C   0  0  0  0  0  0  0  0  0  0  0  0
   64.0790   56.9900   26.0850 C   0  0  0  0  0  0  0  0  0  0  0  0
   62.8720   57.4750   25.6710 N   0  0  0  0  0  0  0  0  0  0  0  0
   61.9390   57.8930   26.5600 C   0  0  0  0  0  0  0  0  0  0  0  0
   62.1920   57.8350   27.8800 N   0  0  0  0  0  0  0  0  0  0  0  0
   60.6730   58.4000   26.1020 N   0  0  0  0  0  0  0  0  0  0  0  0
   59.9670   59.3950   26.8790 C   0  0  0  0  0  0  0  0  0  0  0  0
   58.5280   59.5090   26.6070 C   0  0  0  0  0  0  0  0  0  0  0  0
   58.0910   59.1980   25.2900 N   0  0  0  0  0  0  0  0  0  0  0  0
   59.1710   58.9780   24.3520 C   0  0  0  0  0  0  0  0  0  0  0  0
   60.1190   57.9100   24.8660 C   0  0  0  0  0  0  0  0  0  0  0  0
   63.6510   57.2950   29.6850 O   0  0  0  0  0  0  0  0  0  0  0  0
   64.3970   58.1930   30.4100 C   0  0  0  0  0  0  0  0  0  0  0  0
   64.8400   57.7220   31.6420 C   0  0  0  0  0  0  0  0  0  0  0  0
   65.6030   58.5200   32.4780 C   0  0  0  0  0  0  0  0  0  0  0  0
   65.8990   59.7800   32.0460 N   0  0  0  0  0  0  0  0  0  0  0  0
   65.4750   60.2290   30.8690 C   0  0  0  0  0  0  0  0  0  0  0  0
   64.7390   59.4520   30.0660 N   0  0  0  0  0  0  0  0  0  0  0  0
   66.0680   58.0280   33.7700 C   0  0  0  0  0  0  0  0  0  0  0  0
   65.5300   58.3750   34.9910 C   0  0  0  0  0  0  0  0  0  0  0  0
   66.2410   57.7090   35.9200 N   0  0  0  0  0  0  0  0  0  0  0  0
   67.1890   56.9720   35.2980 C   0  0  0  0  0  0  0  0  0  0  0  0
   68.1510   56.1320   35.8190 C   0  0  0  0  0  0  0  0  0  0  0  0
   69.0420   55.4600   34.9920 C   0  0  0  0  0  0  0  0  0  0  0  0
   68.9380   55.6580   33.6320 C   0  0  0  0  0  0  0  0  0  0  0  0
   67.9880   56.4910   33.0780 C   0  0  0  0  0  0  0  0  0  0  0  0
   67.1160   57.1460   33.9280 C   0  0  0  0  0  0  0  0  0  0  0  0
   65.7880   61.5890   30.3890 C   0  0  0  0  0  0  0  0  0  0  0  0
   64.6600   62.3410   30.1280 F   0  0  0  0  0  0  0  0  0  0  0  0
   66.5330   61.5860   29.2210 F   0  0  0  0  0  0  0  0  0  0  0  0
   66.6340   62.1900   31.3350 F   0  0  0  0  0  0  0  0  0  0  0  0
   65.3187   56.5390   27.8391 H   0  0  0  0  0  0  0  0  0  0  0  0
   64.8251   56.6550   25.3494 H   0  0  0  0  0  0  0  0  0  0  0  0
   60.0915   59.1446   27.9429 H   0  0  0  0  0  0  0  0  0  0  0  0
   60.4044   60.3638   26.5960 H   0  0  0  0  0  0  0  0  0  0  0  0
   58.0054   58.8314   27.2982 H   0  0  0  0  0  0  0  0  0  0  0  0
   58.2972   60.5764   26.7388 H   0  0  0  0  0  0  0  0  0  0  0  0
   57.5180   58.3431   25.3315 H   0  0  0  0  0  0  0  0  0  0  0  0
   59.7262   59.9175   24.2139 H   0  0  0  0  0  0  0  0  0  0  0  0
   58.7452   58.6420   23.3950 H   0  0  0  0  0  0  0  0  0  0  0  0
   59.5719   56.9722   25.0425 H   0  0  0  0  0  0  0  0  0  0  0  0
   60.9134   57.7039   24.1335 H   0  0  0  0  0  0  0  0  0  0  0  0
   64.5803   56.7005   31.9567 H   0  0  0  0  0  0  0  0  0  0  0  0
   64.6878   59.0595   35.1703 H   0  0  0  0  0  0  0  0  0  0  0  0
   66.0881   57.7535   36.9376 H   0  0  0  0  0  0  0  0  0  0  0  0
   68.2137   55.9918   36.9082 H   0  0  0  0  0  0  0  0  0  0  0  0
   69.8077   54.7899   35.4100 H   0  0  0  0  0  0  0  0  0  0  0  0
   69.6373   55.1332   32.9646 H   0  0  0  0  0  0  0  0  0  0  0  0
   67.9259   56.6304   31.9886 H   0  0  0  0  0  0  0  0  0  0  0  0
  1 13  1  0
  2  1  2  0
  3  2  1  0
  4  3  2  0
  4  5  1  0
  5  6  2  0
  6  1  1  0
  7  5  1  0
  7  8  1  0
  9  8  1  0
 10  9  1  0
 11 12  1  0
 11 10  1  0
 12  7  1  0
 13 14  1  0
 14 15  2  0
 15 16  1  0
 16 20  1  0
 17 16  2  0
 18 17  1  0
 19 14  1  0
 19 18  2  0
 20 28  1  0
 20 21  2  0
 21 22  1  0
 23 24  2  0
 23 22  1  0
 25 24  1  0
 26 25  2  0
 27 26  1  0
 27 28  2  0
 28 23  1  0
 29 18  1  0
 29 32  1  0
 30 29  1  0
 31 29  1  0
  2 33  1  0
  3 34  1  0
  8 35  1  0
  8 36  1  0
  9 37  1  0
  9 38  1  0
 10 39  1  0
 11 40  1  0
 11 41  1  0
 12 42  1  0
 12 43  1  0
 15 44  1  0
 21 45  1  0
 22 46  1  0
 24 47  1  0
 25 48  1  0
 26 49  1  0
 27 50  1  0
M  END
>  <Score>  (1) 
-7.4383

$$$$
