
     RDKit          3D

 49 52  0  0  1  0  0  0  0  0999 V2000
   62.2770   56.4530   28.1950 C   0  0  0  0  0  0  0  0  0  0  0  0
   63.5370   56.8070   28.8190 N   0  0  0  0  0  0  0  0  0  0  0  0
   64.5690   57.2470   28.1080 C   0  0  0  0  0  0  0  0  0  0  0  0
   65.6150   57.3770   28.9080 N   0  0  0  0  0  0  0  0  0  0  0  0
   65.1430   57.3190   30.1830 C   0  0  2  0  0  0  0  0  0  0  0  0
   63.8560   56.9590   30.0950 N   0  0  0  0  0  0  0  0  0  0  0  0
   65.5980   57.5240   31.5800 C   0  0  0  0  0  0  0  0  0  0  0  0
   64.9470   58.2730   32.5250 C   0  0  0  0  0  0  0  0  0  0  0  0
   65.4940   58.3710   33.7870 C   0  0  0  0  0  0  0  0  0  0  0  0
   66.6720   57.7150   34.0460 C   0  0  0  0  0  0  0  0  0  0  0  0
   67.3470   56.9530   33.1040 C   0  0  0  0  0  0  0  0  0  0  0  0
   66.7830   56.8580   31.8240 C   0  0  0  0  0  0  0  0  0  0  0  0
   62.4630   55.9930   26.7620 C   0  0  0  0  0  0  0  0  0  0  0  0
   61.5570   56.8290   25.9250 C   0  0  0  0  0  0  0  0  0  0  0  0
   61.8050   58.1460   25.5310 C   0  0  0  0  0  0  0  0  0  0  0  0
   60.8520   58.7760   24.7500 C   0  0  0  0  0  0  0  0  0  0  0  0
   59.7450   58.1030   24.4070 N   0  0  0  0  0  0  0  0  0  0  0  0
   59.5130   56.8290   24.7910 C   0  0  0  0  0  0  0  0  0  0  0  0
   60.4420   56.1990   25.5590 N   0  0  0  0  0  0  0  0  0  0  0  0
   58.2890   56.1930   24.3690 N   0  0  0  0  0  0  0  0  0  0  0  0
   57.9310   55.0550   24.9890 C   0  0  0  0  0  0  0  0  0  0  0  0
   56.7500   54.4560   24.5710 C   0  0  0  0  0  0  0  0  0  0  0  0
   56.2430   53.1960   25.1740 C   0  0  0  0  0  0  0  0  0  0  0  0
   56.0730   55.1000   23.5580 C   0  0  0  0  0  0  0  0  0  0  0  0
   54.9870   54.5620   23.1630 O   0  0  0  0  0  0  0  0  0  0  0  0
   56.4270   56.2340   22.9380 N   0  0  0  0  0  0  0  0  0  0  0  0
   57.5920   56.7890   23.3810 C   0  0  0  0  0  0  0  0  0  0  0  0
   57.9670   57.8510   22.8320 O   0  0  0  0  0  0  0  0  0  0  0  0
   61.8111   55.6402   28.7714 H   0  0  0  0  0  0  0  0  0  0  0  0
   61.6391   57.3491   28.1844 H   0  0  0  0  0  0  0  0  0  0  0  0
   64.8016   56.5268   27.3097 H   0  0  0  0  0  0  0  0  0  0  0  0
   64.3228   58.2186   27.6547 H   0  0  0  0  0  0  0  0  0  0  0  0
   66.2853   56.6126   28.7427 H   0  0  0  0  0  0  0  0  0  0  0  0
   65.4355   56.2603   30.2431 H   0  0  0  0  0  0  0  0  0  0  0  0
   63.2636   57.6898   30.5143 H   0  0  0  0  0  0  0  0  0  0  0  0
   64.0053   58.7867   32.2813 H   0  0  0  0  0  0  0  0  0  0  0  0
   64.9969   58.9625   34.5700 H   0  0  0  0  0  0  0  0  0  0  0  0
   67.1035   57.7982   35.0544 H   0  0  0  0  0  0  0  0  0  0  0  0
   68.2893   56.4425   33.3518 H   0  0  0  0  0  0  0  0  0  0  0  0
   67.2717   56.2682   31.0345 H   0  0  0  0  0  0  0  0  0  0  0  0
   63.5080   56.1367   26.4499 H   0  0  0  0  0  0  0  0  0  0  0  0
   62.2274   54.9239   26.6550 H   0  0  0  0  0  0  0  0  0  0  0  0
   62.7271   58.6650   25.8315 H   0  0  0  0  0  0  0  0  0  0  0  0
   61.0008   59.8134   24.4158 H   0  0  0  0  0  0  0  0  0  0  0  0
   58.5453   54.6186   25.7904 H   0  0  0  0  0  0  0  0  0  0  0  0
   56.2750   53.2755   26.2707 H   0  0  0  0  0  0  0  0  0  0  0  0
   55.2061   53.0252   24.8489 H   0  0  0  0  0  0  0  0  0  0  0  0
   56.8726   52.3546   24.8489 H   0  0  0  0  0  0  0  0  0  0  0  0
   55.8633   56.6541   22.1853 H   0  0  0  0  0  0  0  0  0  0  0  0
  1  2  1  0
  2  6  1  0
  3  2  1  0
  3  4  1  0
  4  5  1  0
  5  7  1  0
  6  5  1  0
  7 12  1  0
  7  8  2  0
  8  9  1  0
  9 10  2  0
 11 10  1  0
 12 11  2  0
 13  1  1  0
 14 13  1  0
 15 14  2  0
 16 15  1  0
 17 16  2  0
 17 18  1  0
 18 19  2  0
 19 14  1  0
 20 18  1  0
 20 21  1  0
 22 21  2  0
 22 23  1  0
 24 22  1  0
 25 24  2  0
 26 27  1  0
 26 24  1  0
 27 20  1  0
 28 27  2  0
  1 29  1  0
  1 30  1  0
  3 31  1  0
  3 32  1  0
  4 33  1  0
  5 34  1  1
  6 35  1  0
  8 36  1  0
  9 37  1  0
 10 38  1  0
 11 39  1  0
 12 40  1  0
 13 41  1  0
 13 42  1  0
 15 43  1  0
 16 44  1  0
 21 45  1  0
 23 46  1  0
 23 47  1  0
 23 48  1  0
 26 49  1  0
M  END
>  <Score>  (1) 
-7.6552

$$$$
