
     RDKit          3D

 45 49  0  0  0  0  0  0  0  0999 V2000
   65.4180   56.5770   25.9970 C   0  0  0  0  0  0  0  0  0  0  0  0
   64.0980   56.6100   25.4790 C   0  0  0  0  0  0  0  0  0  0  0  0
   63.0540   56.9040   26.3240 C   0  0  0  0  0  0  0  0  0  0  0  0
   63.3230   57.1550   27.6380 N   0  0  0  0  0  0  0  0  0  0  0  0
   64.5870   57.1160   28.0970 C   0  0  0  0  0  0  0  0  0  0  0  0
   65.6370   56.8350   27.3170 N   0  0  0  0  0  0  0  0  0  0  0  0
   64.8050   57.4060   29.5320 C   0  0  0  0  0  0  0  0  0  0  0  0
   63.9450   57.9910   30.4080 C   0  0  0  0  0  0  0  0  0  0  0  0
   64.3720   58.1640   31.6970 C   0  0  0  0  0  0  0  0  0  0  0  0
   65.6510   57.7230   31.9920 C   0  0  0  0  0  0  0  0  0  0  0  0
   66.2370   57.0780   30.4770 S   0  0  0  0  0  0  0  0  0  0  0  0
   66.3700   57.7570   33.1960 N   0  0  0  0  0  0  0  0  0  0  0  0
   67.5860   57.1300   33.3620 C   0  0  0  0  0  0  0  0  0  0  0  0
   67.8490   55.9900   32.8090 N   0  0  0  0  0  0  0  0  0  0  0  0
   68.5700   57.7930   34.1830 N   0  0  0  0  0  0  0  0  0  0  0  0
   67.1890   55.4900   32.2340 H   0  0  0  0  0  0  0  0  0  0  0  0
   61.6860   56.9450   25.8320 C   0  0  0  0  0  0  0  0  0  0  0  0
   60.7560   55.9550   25.9610 C   0  0  0  0  0  0  0  0  0  0  0  0
   59.6100   56.4560   25.3340 C   0  0  0  0  0  0  0  0  0  0  0  0
   59.9050   57.7150   24.8620 C   0  0  0  0  0  0  0  0  0  0  0  0
   61.1540   57.9220   25.2010 O   0  0  0  0  0  0  0  0  0  0  0  0
   59.1780   58.6800   24.1700 N   0  0  0  0  0  0  0  0  0  0  0  0
   58.2990   58.2060   23.2310 C   0  0  0  0  0  0  0  0  0  0  0  0
   57.6840   59.2600   22.6220 C   0  0  0  0  0  0  0  0  0  0  0  0
   58.2000   60.3870   23.2060 N   0  0  0  0  0  0  0  0  0  0  0  0
   59.0910   60.0000   24.1260 C   0  0  0  0  0  0  0  0  0  0  0  0
   59.9090   60.8960   24.9750 C   0  0  0  0  0  0  0  0  0  0  0  0
   59.7400   60.8800   26.4530 C   0  0  0  0  0  0  0  0  0  0  0  0
   59.1530   61.9800   25.6760 C   0  0  0  0  0  0  0  0  0  0  0  0
   66.2640   56.3434   25.3339 H   0  0  0  0  0  0  0  0  0  0  0  0
   63.9119   56.4030   24.4148 H   0  0  0  0  0  0  0  0  0  0  0  0
   62.9420   58.3137   30.0920 H   0  0  0  0  0  0  0  0  0  0  0  0
   63.7313   58.6299   32.4601 H   0  0  0  0  0  0  0  0  0  0  0  0
   65.9709   58.2742   33.9923 H   0  0  0  0  0  0  0  0  0  0  0  0
   69.4920   57.3592   34.3333 H   0  0  0  0  0  0  0  0  0  0  0  0
   68.3504   58.7001   34.6188 H   0  0  0  0  0  0  0  0  0  0  0  0
   60.8800   54.9777   26.4504 H   0  0  0  0  0  0  0  0  0  0  0  0
   58.6454   55.9365   25.2357 H   0  0  0  0  0  0  0  0  0  0  0  0
   58.1185   57.1448   23.0048 H   0  0  0  0  0  0  0  0  0  0  0  0
   56.9278   59.2146   21.8245 H   0  0  0  0  0  0  0  0  0  0  0  0
   60.7829   60.8149   24.3119 H   0  0  0  0  0  0  0  0  0  0  0  0
   59.0857   60.1301   26.9215 H   0  0  0  0  0  0  0  0  0  0  0  0
   60.4279   60.8193   27.3093 H   0  0  0  0  0  0  0  0  0  0  0  0
   59.5804   62.9911   25.7458 H   0  0  0  0  0  0  0  0  0  0  0  0
   58.1458   62.4115   25.5796 H   0  0  0  0  0  0  0  0  0  0  0  0
  1  6  2  0
  2  1  1  0
  2  3  2  0
  3  4  1  0
  4  5  2  0
  5  7  1  0
  6  5  1  0
  7  8  2  0
  7 11  1  0
  8  9  1  0
  9 10  2  0
 10 12  1  0
 11 10  1  0
 12 13  1  0
 13 15  1  0
 14 13  2  0
 16 14  1  0
 17 18  2  0
 17  3  1  0
 19 18  1  0
 20 21  1  0
 20 19  2  0
 21 17  1  0
 22 20  1  0
 23 22  1  0
 24 25  1  0
 24 23  2  0
 25 26  2  0
 26 22  1  0
 26 27  1  0
 27 29  1  0
 27 28  1  0
 29 28  1  0
  1 30  1  0
  2 31  1  0
  8 32  1  0
  9 33  1  0
 12 34  1  0
 15 35  1  0
 15 36  1  0
 18 37  1  0
 19 38  1  0
 23 39  1  0
 24 40  1  0
 27 41  1  0
 28 42  1  0
 28 43  1  0
 29 44  1  0
 29 45  1  0
M  END
>  <Score>  (1) 
-7.32481

$$$$
