
     RDKit          3D

 48 51  0  0  0  0  0  0  0  0999 V2000
   62.1440   55.8770   27.4500 C   0  0  0  0  0  0  0  0  0  0  0  0
   63.2720   56.4960   28.0960 N   0  0  0  0  0  0  0  0  0  0  0  0
   64.2080   57.1230   27.3680 C   0  0  0  0  0  0  0  0  0  0  0  0
   65.2130   57.4640   28.1600 N   0  0  0  0  0  0  0  0  0  0  0  0
   64.8000   57.2600   29.4350 C   0  0  0  0  0  0  0  0  0  0  0  0
   63.6150   56.6430   29.3620 N   0  0  0  0  0  0  0  0  0  0  0  0
   65.2410   57.5020   30.8290 C   0  0  0  0  0  0  0  0  0  0  0  0
   64.4930   58.1430   31.7970 C   0  0  0  0  0  0  0  0  0  0  0  0
   65.0220   58.3020   33.0550 C   0  0  0  0  0  0  0  0  0  0  0  0
   66.2980   57.8060   33.3000 C   0  0  0  0  0  0  0  0  0  0  0  0
   67.0680   57.1560   32.3370 C   0  0  0  0  0  0  0  0  0  0  0  0
   66.5070   57.0090   31.0710 C   0  0  0  0  0  0  0  0  0  0  0  0
   62.1920   56.0000   25.9360 C   0  0  0  0  0  0  0  0  0  0  0  0
   61.0650   56.9010   25.5580 C   0  0  0  0  0  0  0  0  0  0  0  0
   61.2250   58.2880   25.4100 C   0  0  0  0  0  0  0  0  0  0  0  0
   60.0910   59.0110   25.0550 C   0  0  0  0  0  0  0  0  0  0  0  0
   58.9200   58.3820   24.8700 N   0  0  0  0  0  0  0  0  0  0  0  0
   58.8060   57.0490   25.0210 C   0  0  0  0  0  0  0  0  0  0  0  0
   59.8820   56.2950   25.3680 N   0  0  0  0  0  0  0  0  0  0  0  0
   57.5660   56.3450   24.8310 N   0  0  0  0  0  0  0  0  0  0  0  0
   56.9340   55.5690   25.8830 C   0  0  0  0  0  0  0  0  0  0  0  0
   56.7460   54.1690   25.3360 C   0  0  0  0  0  0  0  0  0  0  0  0
   57.2220   54.0100   23.9880 N   0  0  0  0  0  0  0  0  0  0  0  0
   56.7040   54.9880   23.0590 C   0  0  0  0  0  0  0  0  0  0  0  0
   56.9080   56.4010   23.5390 C   0  0  0  0  0  0  0  0  0  0  0  0
   62.1290   54.8097   27.7156 H   0  0  0  0  0  0  0  0  0  0  0  0
   61.2381   56.3963   27.7960 H   0  0  0  0  0  0  0  0  0  0  0  0
   64.5729   56.4501   26.5780 H   0  0  0  0  0  0  0  0  0  0  0  0
   63.7776   58.0232   26.9050 H   0  0  0  0  0  0  0  0  0  0  0  0
   63.0566   56.3309   30.1693 H   0  0  0  0  0  0  0  0  0  0  0  0
   63.4868   58.5213   31.5638 H   0  0  0  0  0  0  0  0  0  0  0  0
   64.4513   58.8083   33.8475 H   0  0  0  0  0  0  0  0  0  0  0  0
   66.7220   57.9334   34.3070 H   0  0  0  0  0  0  0  0  0  0  0  0
   68.0743   56.7760   32.5669 H   0  0  0  0  0  0  0  0  0  0  0  0
   67.0681   56.5043   30.2708 H   0  0  0  0  0  0  0  0  0  0  0  0
   63.1513   56.4348   25.6186 H   0  0  0  0  0  0  0  0  0  0  0  0
   62.1012   55.0174   25.4500 H   0  0  0  0  0  0  0  0  0  0  0  0
   62.1974   58.7778   25.5668 H   0  0  0  0  0  0  0  0  0  0  0  0
   60.1542   60.1015   24.9255 H   0  0  0  0  0  0  0  0  0  0  0  0
   57.5772   55.5446   26.7750 H   0  0  0  0  0  0  0  0  0  0  0  0
   55.9713   56.0117   26.1782 H   0  0  0  0  0  0  0  0  0  0  0  0
   57.2918   53.4664   25.9829 H   0  0  0  0  0  0  0  0  0  0  0  0
   55.6642   53.9700   25.3223 H   0  0  0  0  0  0  0  0  0  0  0  0
   58.2492   54.0850   23.9970 H   0  0  0  0  0  0  0  0  0  0  0  0
   55.6263   54.8124   22.9257 H   0  0  0  0  0  0  0  0  0  0  0  0
   57.2515   54.8734   22.1118 H   0  0  0  0  0  0  0  0  0  0  0  0
   57.5367   56.9512   22.8234 H   0  0  0  0  0  0  0  0  0  0  0  0
   55.9413   56.9188   23.6246 H   0  0  0  0  0  0  0  0  0  0  0  0
  1  2  1  0
  2  6  1  0
  3  2  1  0
  3  4  1  0
  4  5  2  0
  5  7  1  0
  6  5  1  0
  7 12  1  0
  7  8  2  0
  8  9  1  0
  9 10  2  0
 11 10  1  0
 12 11  2  0
 13  1  1  0
 14 13  1  0
 15 14  2  0
 16 15  1  0
 17 18  1  0
 17 16  2  0
 18 19  2  0
 19 14  1  0
 20 18  1  0
 20 21  1  0
 22 21  1  0
 23 22  1  0
 24 25  1  0
 24 23  1  0
 25 20  1  0
  1 26  1  0
  1 27  1  0
  3 28  1  0
  3 29  1  0
  6 30  1  0
  8 31  1  0
  9 32  1  0
 10 33  1  0
 11 34  1  0
 12 35  1  0
 13 36  1  0
 13 37  1  0
 15 38  1  0
 16 39  1  0
 21 40  1  0
 21 41  1  0
 22 42  1  0
 22 43  1  0
 23 44  1  0
 24 45  1  0
 24 46  1  0
 25 47  1  0
 25 48  1  0
M  END
>  <Score>  (1) 
-7.16486

$$$$
