
     RDKit          3D

 47 50  0  0  1  0  0  0  0  0999 V2000
   60.8510   56.4650   25.0310 C   0  0  0  0  0  0  0  0  0  0  0  0
   59.4330   56.2270   24.9530 N   0  0  0  0  0  0  0  0  0  0  0  0
   59.0520   54.8920   25.1950 C   0  0  0  0  0  0  0  0  0  0  0  0
   57.5480   54.7950   24.8990 C   0  0  0  0  0  0  0  0  0  0  0  0
   56.8030   55.7210   25.5960 O   0  0  0  0  0  0  0  0  0  0  0  0
   57.2280   57.0200   25.4620 C   0  0  0  0  0  0  0  0  0  0  0  0
   58.6830   57.1530   25.8190 C   0  0  2  0  0  0  0  0  0  0  0  0
   59.1760   58.5320   25.6910 C   0  0  0  0  0  0  0  0  0  0  0  0
   59.9600   59.2170   26.6000 C   0  0  0  0  0  0  0  0  0  0  0  0
   60.3180   60.5130   26.3250 C   0  0  0  0  0  0  0  0  0  0  0  0
   59.9330   61.1560   25.1910 N   0  0  0  0  0  0  0  0  0  0  0  0
   59.1680   60.4590   24.3250 C   0  0  0  0  0  0  0  0  0  0  0  0
   58.7910   59.1840   24.5500 N   0  0  0  0  0  0  0  0  0  0  0  0
   61.4360   55.7670   26.2310 C   0  0  0  0  0  0  0  0  0  0  0  0
   65.0350   56.7530   25.8770 C   0  0  0  0  0  0  0  0  0  0  0  0
   63.7300   56.2880   25.5830 C   0  0  0  0  0  0  0  0  0  0  0  0
   62.7800   56.2600   26.5910 C   0  0  0  0  0  0  0  0  0  0  0  0
   63.1670   56.6860   27.8140 N   0  0  0  0  0  0  0  0  0  0  0  0
   64.4090   57.1250   28.0800 C   0  0  0  0  0  0  0  0  0  0  0  0
   65.3300   57.1600   27.1300 N   0  0  0  0  0  0  0  0  0  0  0  0
   64.5160   57.5060   29.4540 N   0  0  0  0  0  0  0  0  0  0  0  0
   65.6230   56.9960   30.0630 C   0  0  0  0  0  0  0  0  0  0  0  0
   65.7970   57.3250   31.4090 C   0  0  0  0  0  0  0  0  0  0  0  0
   64.8870   58.1320   32.0900 C   0  0  0  0  0  0  0  0  0  0  0  0
   65.0640   58.4150   33.3030 O   0  0  0  0  0  0  0  0  0  0  0  0
   63.8040   58.6030   31.4060 N   0  0  0  0  0  0  0  0  0  0  0  0
   63.6330   58.2860   30.1010 C   0  0  0  0  0  0  0  0  0  0  0  0
   62.6320   58.7130   29.4460 O   0  0  0  0  0  0  0  0  0  0  0  0
   61.0327   57.5465   25.1166 H   0  0  0  0  0  0  0  0  0  0  0  0
   61.3291   56.0719   24.1217 H   0  0  0  0  0  0  0  0  0  0  0  0
   59.6118   54.2135   24.5345 H   0  0  0  0  0  0  0  0  0  0  0  0
   59.2674   54.6040   26.2345 H   0  0  0  0  0  0  0  0  0  0  0  0
   57.3911   54.9571   23.8224 H   0  0  0  0  0  0  0  0  0  0  0  0
   57.2132   53.7963   25.2160 H   0  0  0  0  0  0  0  0  0  0  0  0
   57.0832   57.3397   24.4195 H   0  0  0  0  0  0  0  0  0  0  0  0
   56.6414   57.6519   26.1451 H   0  0  0  0  0  0  0  0  0  0  0  0
   58.8258   56.8962   26.8790 H   0  0  0  0  0  0  0  0  0  0  0  0
   60.2918   58.7310   27.5294 H   0  0  0  0  0  0  0  0  0  0  0  0
   60.9420   61.0535   27.0520 H   0  0  0  0  0  0  0  0  0  0  0  0
   58.8386   60.9509   23.3979 H   0  0  0  0  0  0  0  0  0  0  0  0
   60.7648   55.9233   27.0883 H   0  0  0  0  0  0  0  0  0  0  0  0
   61.5358   54.7021   25.9740 H   0  0  0  0  0  0  0  0  0  0  0  0
   65.8029   56.7824   25.0899 H   0  0  0  0  0  0  0  0  0  0  0  0
   63.4739   55.9532   24.5670 H   0  0  0  0  0  0  0  0  0  0  0  0
   66.3405   56.3599   29.5239 H   0  0  0  0  0  0  0  0  0  0  0  0
   66.6752   56.9371   31.9459 H   0  0  0  0  0  0  0  0  0  0  0  0
   63.1150   59.2012   31.8839 H   0  0  0  0  0  0  0  0  0  0  0  0
  1 14  1  0
  2  1  1  0
  2  3  1  0
  2  7  1  0
  4  3  1  0
  4  5  1  0
  6  5  1  0
  6  7  1  0
  8  7  1  0
  8  9  2  0
 10  9  1  0
 11 10  2  0
 12 13  2  0
 12 11  1  0
 13  8  1  0
 14 17  1  0
 15 20  2  0
 16 15  1  0
 16 17  2  0
 17 18  1  0
 18 19  2  0
 19 21  1  0
 20 19  1  0
 21 22  1  0
 21 27  1  0
 22 23  2  0
 23 24  1  0
 24 25  2  0
 26 24  1  0
 27 26  1  0
 28 27  2  0
  1 29  1  0
  1 30  1  0
  3 31  1  0
  3 32  1  0
  4 33  1  0
  4 34  1  0
  6 35  1  0
  6 36  1  0
  7 37  1  1
  9 38  1  0
 10 39  1  0
 12 40  1  0
 14 41  1  0
 14 42  1  0
 15 43  1  0
 16 44  1  0
 22 45  1  0
 23 46  1  0
 26 47  1  0
M  END
>  <Score>  (1) 
-7.15047

$$$$
