
     RDKit          3D

 45 50  0  0  0  0  0  0  0  0999 V2000
   60.3450   58.5960   25.4020 C   0  0  0  0  0  0  0  0  0  0  0  0
   61.1600   59.3720   24.6010 C   0  0  0  0  0  0  0  0  0  0  0  0
   60.3560   60.0490   23.6830 C   0  0  0  0  0  0  0  0  0  0  0  0
   59.0710   59.6390   23.9860 C   0  0  0  0  0  0  0  0  0  0  0  0
   59.1310   58.8120   24.9720 O   0  0  0  0  0  0  0  0  0  0  0  0
   57.8960   60.1100   23.2580 C   0  0  0  0  0  0  0  0  0  0  0  0
   57.2070   59.4760   22.2380 C   0  0  0  0  0  0  0  0  0  0  0  0
   56.1930   60.2570   21.8550 N   0  0  0  0  0  0  0  0  0  0  0  0
   56.1770   61.3720   22.5680 C   0  0  0  0  0  0  0  0  0  0  0  0
   55.3230   62.4400   22.5150 C   0  0  0  0  0  0  0  0  0  0  0  0
   55.5650   63.4770   23.4030 C   0  0  0  0  0  0  0  0  0  0  0  0
   56.6010   63.4870   24.3210 C   0  0  0  0  0  0  0  0  0  0  0  0
   57.4230   62.3770   24.3220 C   0  0  0  0  0  0  0  0  0  0  0  0
   57.2450   61.3120   23.4700 C   0  0  0  0  0  0  0  0  0  0  0  0
   60.7440   57.7570   26.4530 O   0  0  0  0  0  0  0  0  0  0  0  0
   61.6180   56.7040   26.1210 C   0  0  0  0  0  0  0  0  0  0  0  0
   61.2720   55.7430   25.4540 O   0  0  0  0  0  0  0  0  0  0  0  0
   65.3620   56.6020   26.3050 C   0  0  0  0  0  0  0  0  0  0  0  0
   64.0390   56.4940   25.7770 C   0  0  0  0  0  0  0  0  0  0  0  0
   62.9900   56.7990   26.6110 C   0  0  0  0  0  0  0  0  0  0  0  0
   63.2760   57.1800   27.8710 N   0  0  0  0  0  0  0  0  0  0  0  0
   64.5360   57.2760   28.3510 C   0  0  0  0  0  0  0  0  0  0  0  0
   65.5690   56.9930   27.5850 N   0  0  0  0  0  0  0  0  0  0  0  0
   64.5370   57.7060   29.7280 N   0  0  0  0  0  0  0  0  0  0  0  0
   63.4960   58.4050   30.2190 C   0  0  0  0  0  0  0  0  0  0  0  0
   63.7570   58.6720   31.5120 N   0  0  0  0  0  0  0  0  0  0  0  0
   64.9480   58.1550   31.8630 C   0  0  0  0  0  0  0  0  0  0  0  0
   65.7680   58.0750   32.9870 C   0  0  0  0  0  0  0  0  0  0  0  0
   66.9620   57.4230   32.9080 N   0  0  0  0  0  0  0  0  0  0  0  0
   67.4000   56.8430   31.7840 C   0  0  0  0  0  0  0  0  0  0  0  0
   66.6240   56.9010   30.6650 N   0  0  0  0  0  0  0  0  0  0  0  0
   65.4270   57.5440   30.7140 C   0  0  0  0  0  0  0  0  0  0  0  0
   62.2552   59.4440   24.6742 H   0  0  0  0  0  0  0  0  0  0  0  0
   60.6729   60.7499   22.8967 H   0  0  0  0  0  0  0  0  0  0  0  0
   57.4538   58.4918   21.8132 H   0  0  0  0  0  0  0  0  0  0  0  0
   55.5197   60.0246   21.1110 H   0  0  0  0  0  0  0  0  0  0  0  0
   54.4855   62.4741   21.8027 H   0  0  0  0  0  0  0  0  0  0  0  0
   54.8915   64.3463   23.3763 H   0  0  0  0  0  0  0  0  0  0  0  0
   56.7604   64.3299   25.0096 H   0  0  0  0  0  0  0  0  0  0  0  0
   58.2583   62.3432   25.0370 H   0  0  0  0  0  0  0  0  0  0  0  0
   66.2236   56.3645   25.6637 H   0  0  0  0  0  0  0  0  0  0  0  0
   63.8657   56.1774   24.7379 H   0  0  0  0  0  0  0  0  0  0  0  0
   62.5949   58.7039   29.6635 H   0  0  0  0  0  0  0  0  0  0  0  0
   65.4526   58.5364   33.9344 H   0  0  0  0  0  0  0  0  0  0  0  0
   68.3715   56.3274   31.7637 H   0  0  0  0  0  0  0  0  0  0  0  0
  1 15  1  0
  2  1  2  0
  3  4  2  0
  3  2  1  0
  4  5  1  0
  5  1  1  0
  6 14  1  0
  6  4  1  0
  7  6  2  0
  8  7  1  0
  8  9  1  0
  9 14  2  0
 10  9  1  0
 10 11  2  0
 11 12  1  0
 12 13  2  0
 14 13  1  0
 16 15  1  0
 16 20  1  0
 17 16  2  0
 18 23  2  0
 19 18  1  0
 19 20  2  0
 20 21  1  0
 21 22  2  0
 22 24  1  0
 23 22  1  0
 24 25  1  0
 24 32  1  0
 25 26  2  0
 26 27  1  0
 27 28  2  0
 29 28  1  0
 30 29  2  0
 31 32  2  0
 31 30  1  0
 32 27  1  0
  2 33  1  0
  3 34  1  0
  7 35  1  0
  8 36  1  0
 10 37  1  0
 11 38  1  0
 12 39  1  0
 13 40  1  0
 18 41  1  0
 19 42  1  0
 25 43  1  0
 28 44  1  0
 30 45  1  0
M  END
>  <Score>  (1) 
-7.40764

$$$$
