
     RDKit          3D

 50 54  0  0  1  0  0  0  0  0999 V2000
   62.1060   56.2780   27.7770 C   0  0  0  0  0  0  0  0  0  0  0  0
   63.3490   56.6860   28.4060 N   0  0  0  0  0  0  0  0  0  0  0  0
   64.3620   57.1620   27.6910 C   0  0  0  0  0  0  0  0  0  0  0  0
   65.4010   57.3480   28.4940 N   0  0  0  0  0  0  0  0  0  0  0  0
   64.9320   57.2890   29.7650 C   0  0  2  0  0  0  0  0  0  0  0  0
   63.6480   56.8950   29.6790 N   0  0  0  0  0  0  0  0  0  0  0  0
   65.3670   57.5120   31.1640 C   0  0  0  0  0  0  0  0  0  0  0  0
   64.6530   58.1780   32.1280 C   0  0  0  0  0  0  0  0  0  0  0  0
   65.1830   58.3090   33.3870 C   0  0  0  0  0  0  0  0  0  0  0  0
   66.4340   57.7580   33.6380 C   0  0  0  0  0  0  0  0  0  0  0  0
   67.1730   57.0790   32.6720 C   0  0  0  0  0  0  0  0  0  0  0  0
   66.6090   56.9620   31.4030 C   0  0  0  0  0  0  0  0  0  0  0  0
   62.2760   56.0550   26.2860 C   0  0  0  0  0  0  0  0  0  0  0  0
   61.3920   57.0430   25.6040 C   0  0  0  0  0  0  0  0  0  0  0  0
   61.7030   58.4130   25.4980 C   0  0  0  0  0  0  0  0  0  0  0  0
   60.7810   59.2060   24.8350 C   0  0  0  0  0  0  0  0  0  0  0  0
   59.6560   58.6430   24.3350 N   0  0  0  0  0  0  0  0  0  0  0  0
   59.3950   57.3290   24.4570 C   0  0  0  0  0  0  0  0  0  0  0  0
   60.2620   56.5100   25.0950 N   0  0  0  0  0  0  0  0  0  0  0  0
   58.1530   56.8220   23.8820 C   0  0  0  0  0  0  0  0  0  0  0  0
   57.4900   57.4270   22.8400 C   0  0  0  0  0  0  0  0  0  0  0  0
   56.3820   56.7350   22.5280 N   0  0  0  0  0  0  0  0  0  0  0  0
   56.3350   55.6770   23.3750 C   0  0  0  0  0  0  0  0  0  0  0  0
   55.4470   54.6410   23.5280 C   0  0  0  0  0  0  0  0  0  0  0  0
   55.6360   53.6730   24.4910 C   0  0  0  0  0  0  0  0  0  0  0  0
   56.7340   53.6980   25.3560 C   0  0  0  0  0  0  0  0  0  0  0  0
   57.6250   54.7400   25.2020 C   0  0  0  0  0  0  0  0  0  0  0  0
   57.4280   55.7040   24.2340 C   0  0  0  0  0  0  0  0  0  0  0  0
   61.7632   55.3411   28.2404 H   0  0  0  0  0  0  0  0  0  0  0  0
   61.3698   57.0826   27.9207 H   0  0  0  0  0  0  0  0  0  0  0  0
   64.6282   56.4428   26.9024 H   0  0  0  0  0  0  0  0  0  0  0  0
   64.0747   58.1157   27.2241 H   0  0  0  0  0  0  0  0  0  0  0  0
   66.1034   56.6103   28.3410 H   0  0  0  0  0  0  0  0  0  0  0  0
   65.2501   56.2382   29.8336 H   0  0  0  0  0  0  0  0  0  0  0  0
   63.0347   57.6282   30.0626 H   0  0  0  0  0  0  0  0  0  0  0  0
   63.6656   58.6027   31.8940 H   0  0  0  0  0  0  0  0  0  0  0  0
   64.6311   58.8373   34.1784 H   0  0  0  0  0  0  0  0  0  0  0  0
   66.8604   57.8630   34.6465 H   0  0  0  0  0  0  0  0  0  0  0  0
   68.1608   56.6528   32.9013 H   0  0  0  0  0  0  0  0  0  0  0  0
   67.1484   56.4369   30.6009 H   0  0  0  0  0  0  0  0  0  0  0  0
   63.3240   56.2189   25.9948 H   0  0  0  0  0  0  0  0  0  0  0  0
   62.0099   55.0250   26.0061 H   0  0  0  0  0  0  0  0  0  0  0  0
   62.6291   58.8308   25.9195 H   0  0  0  0  0  0  0  0  0  0  0  0
   60.9615   60.2845   24.7157 H   0  0  0  0  0  0  0  0  0  0  0  0
   57.8201   58.3464   22.3343 H   0  0  0  0  0  0  0  0  0  0  0  0
   55.7011   56.9633   21.7897 H   0  0  0  0  0  0  0  0  0  0  0  0
   54.5679   54.5824   22.8694 H   0  0  0  0  0  0  0  0  0  0  0  0
   54.9025   52.8582   24.5814 H   0  0  0  0  0  0  0  0  0  0  0  0
   56.8806   52.9234   26.1232 H   0  0  0  0  0  0  0  0  0  0  0  0
   58.5045   54.8034   25.8597 H   0  0  0  0  0  0  0  0  0  0  0  0
  1  2  1  0
  2  6  1  0
  3  2  1  0
  3  4  1  0
  4  5  1  0
  5  7  1  0
  6  5  1  0
  7 12  1  0
  7  8  2  0
  8  9  1  0
  9 10  2  0
 11 10  1  0
 12 11  2  0
 13  1  1  0
 14 13  1  0
 15 14  2  0
 16 15  1  0
 17 18  1  0
 17 16  2  0
 18 19  2  0
 19 14  1  0
 20 28  1  0
 20 18  1  0
 21 20  2  0
 22 21  1  0
 22 23  1  0
 23 24  2  0
 23 28  1  0
 24 25  1  0
 25 26  2  0
 27 26  1  0
 28 27  2  0
  1 29  1  0
  1 30  1  0
  3 31  1  0
  3 32  1  0
  4 33  1  0
  5 34  1  1
  6 35  1  0
  8 36  1  0
  9 37  1  0
 10 38  1  0
 11 39  1  0
 12 40  1  0
 13 41  1  0
 13 42  1  0
 15 43  1  0
 16 44  1  0
 21 45  1  0
 22 46  1  0
 24 47  1  0
 25 48  1  0
 26 49  1  0
 27 50  1  0
M  END
>  <Score>  (1) 
-7.43199

$$$$
