
     RDKit          3D

 53 57  0  0  1  0  0  0  0  0999 V2000
   60.8070   59.3030   26.8370 N   0  0  0  0  0  0  0  0  0  0  0  0
   60.9820   59.2890   28.1660 N   0  0  0  0  0  0  0  0  0  0  0  0
   60.5520   60.4500   28.6760 C   0  0  0  0  0  0  0  0  0  0  0  0
   60.0970   61.2150   27.6390 C   0  0  0  0  0  0  0  0  0  0  0  0
   60.2520   60.5000   26.4750 C   0  0  0  0  0  0  0  0  0  0  0  0
   61.4380   57.0520   26.6450 C   0  0  2  0  0  0  0  0  0  0  0  0
   61.2820   55.7710   25.8240 C   0  0  0  0  0  0  0  0  0  0  0  0
   59.7900   55.7350   25.4910 C   0  0  0  0  0  0  0  0  0  0  0  0
   59.6260   56.7980   24.4530 C   0  0  0  0  0  0  0  0  0  0  0  0
   59.9980   58.1870   24.9290 C   0  0  0  0  0  0  0  0  0  0  0  0
   61.1270   58.2710   25.8580 C   0  0  1  0  0  0  0  0  0  0  0  0
   63.9530   57.2630   26.4410 C   0  0  0  0  0  0  0  0  0  0  0  0
   62.7830   57.1090   27.2310 C   0  0  0  0  0  0  0  0  0  0  0  0
   62.9820   57.0160   28.5950 C   0  0  0  0  0  0  0  0  0  0  0  0
   64.2270   57.0730   29.1070 N   0  0  0  0  0  0  0  0  0  0  0  0
   65.3000   57.2180   28.3330 C   0  0  0  0  0  0  0  0  0  0  0  0
   65.1710   57.3130   26.9960 N   0  0  0  0  0  0  0  0  0  0  0  0
   59.8190   61.1480   25.2570 C   0  0  0  0  0  0  0  0  0  0  0  0
   58.3930   60.8650   24.8300 C   0  0  0  0  0  0  0  0  0  0  0  0
   57.3760   61.7050   25.3230 N   0  0  0  0  0  0  0  0  0  0  0  0
   56.9240   61.8100   26.6140 C   0  0  0  0  0  0  0  0  0  0  0  0
   55.8930   62.6900   26.7410 N   0  0  0  0  0  0  0  0  0  0  0  0
   55.6340   63.1940   25.5220 C   0  0  0  0  0  0  0  0  0  0  0  0
   54.7530   64.0960   24.9690 C   0  0  0  0  0  0  0  0  0  0  0  0
   53.9270   64.6500   25.7360 O   0  0  0  0  0  0  0  0  0  0  0  0
   54.7370   64.4100   23.6520 N   0  0  0  0  0  0  0  0  0  0  0  0
   55.6450   63.7840   22.8830 C   0  0  0  0  0  0  0  0  0  0  0  0
   55.5940   64.1440   21.4970 N   0  0  0  0  0  0  0  0  0  0  0  0
   56.5280   62.8950   23.3700 N   0  0  0  0  0  0  0  0  0  0  0  0
   56.5500   62.5750   24.6980 C   0  0  0  0  0  0  0  0  0  0  0  0
   60.5630   60.7363   29.7380 H   0  0  0  0  0  0  0  0  0  0  0  0
   59.6785   62.2289   27.7215 H   0  0  0  0  0  0  0  0  0  0  0  0
   60.7002   57.0242   27.4604 H   0  0  0  0  0  0  0  0  0  0  0  0
   61.8878   55.8163   24.9070 H   0  0  0  0  0  0  0  0  0  0  0  0
   61.6206   54.8743   26.3636 H   0  0  0  0  0  0  0  0  0  0  0  0
   59.5019   54.7512   25.0922 H   0  0  0  0  0  0  0  0  0  0  0  0
   59.1549   55.9029   26.3733 H   0  0  0  0  0  0  0  0  0  0  0  0
   58.5729   56.8117   24.1354 H   0  0  0  0  0  0  0  0  0  0  0  0
   60.3133   56.5487   23.6311 H   0  0  0  0  0  0  0  0  0  0  0  0
   60.2466   58.7900   24.0432 H   0  0  0  0  0  0  0  0  0  0  0  0
   59.1253   58.5488   25.4925 H   0  0  0  0  0  0  0  0  0  0  0  0
   62.0032   58.4629   25.2212 H   0  0  0  0  0  0  0  0  0  0  0  0
   63.8568   57.3431   25.3481 H   0  0  0  0  0  0  0  0  0  0  0  0
   62.1193   56.8948   29.2667 H   0  0  0  0  0  0  0  0  0  0  0  0
   66.3001   57.2606   28.7891 H   0  0  0  0  0  0  0  0  0  0  0  0
   59.9196   62.2342   25.3986 H   0  0  0  0  0  0  0  0  0  0  0  0
   60.4563   60.7397   24.4588 H   0  0  0  0  0  0  0  0  0  0  0  0
   58.3625   60.9242   23.7320 H   0  0  0  0  0  0  0  0  0  0  0  0
   58.1677   59.8786   25.2616 H   0  0  0  0  0  0  0  0  0  0  0  0
   57.3489   61.2440   27.4561 H   0  0  0  0  0  0  0  0  0  0  0  0
   54.0680   65.0891   23.2619 H   0  0  0  0  0  0  0  0  0  0  0  0
   54.8999   64.8305   21.1684 H   0  0  0  0  0  0  0  0  0  0  0  0
   56.2514   63.7163   20.8293 H   0  0  0  0  0  0  0  0  0  0  0  0
  1  2  1  0
  2  3  2  0
  4  3  1  0
  5  1  1  0
  5  4  2  0
  6 13  1  0
  7  6  1  0
  8  7  1  0
  9 10  1  0
  9  8  1  0
 10 11  1  0
 11  6  1  0
 11  1  1  0
 12 17  2  0
 12 13  1  0
 13 14  2  0
 14 15  1  0
 16 15  2  0
 17 16  1  0
 18  5  1  0
 19 18  1  0
 19 20  1  0
 20 21  1  0
 21 22  2  0
 23 22  1  0
 24 23  1  0
 24 25  2  0
 26 24  1  0
 27 29  2  0
 27 26  1  0
 28 27  1  0
 29 30  1  0
 30 20  1  0
 30 23  2  0
  3 31  1  0
  4 32  1  0
  6 33  1  1
  7 34  1  0
  7 35  1  0
  8 36  1  0
  8 37  1  0
  9 38  1  0
  9 39  1  0
 10 40  1  0
 10 41  1  0
 11 42  1  6
 12 43  1  0
 14 44  1  0
 16 45  1  0
 18 46  1  0
 18 47  1  0
 19 48  1  0
 19 49  1  0
 21 50  1  0
 26 51  1  0
 28 52  1  0
 28 53  1  0
M  END
>  <Score>  (1) 
-7.1454

$$$$
