
     RDKit          3D

 58 61  0  0  1  0  0  0  0  0999 V2000
   60.7250   60.3120   24.4480 N   0  0  0  0  0  0  0  0  0  0  0  0
   59.7870   59.7570   23.6500 C   0  0  0  0  0  0  0  0  0  0  0  0
   59.5060   58.3150   24.0150 C   0  0  0  0  0  0  0  0  0  0  0  0
   59.3740   58.0470   25.4670 C   0  0  2  0  0  0  0  0  0  0  0  0
   60.3370   58.7920   26.2880 C   0  0  0  0  0  0  0  0  0  0  0  0
   60.5010   60.2190   25.8470 C   0  0  2  0  0  0  0  0  0  0  0  0
   59.5950   56.6250   25.6420 N   0  0  0  0  0  0  0  0  0  0  0  0
   60.8100   56.1170   25.2680 C   0  0  0  0  0  0  0  0  0  0  0  0
   61.5140   55.5550   26.4770 C   0  0  0  0  0  0  0  0  0  0  0  0
   65.0280   56.7900   26.0790 C   0  0  0  0  0  0  0  0  0  0  0  0
   63.7630   56.2240   25.8260 C   0  0  0  0  0  0  0  0  0  0  0  0
   62.8180   56.1550   26.8040 C   0  0  0  0  0  0  0  0  0  0  0  0
   63.1420   56.6470   28.0120 N   0  0  0  0  0  0  0  0  0  0  0  0
   64.3340   57.1890   28.2790 C   0  0  0  0  0  0  0  0  0  0  0  0
   65.2740   57.2600   27.3150 N   0  0  0  0  0  0  0  0  0  0  0  0
   64.5050   57.6610   29.6110 N   0  0  0  0  0  0  0  0  0  0  0  0
   63.6050   58.5380   30.1230 C   0  0  0  0  0  0  0  0  0  0  0  0
   63.9330   58.8680   31.3920 N   0  0  0  0  0  0  0  0  0  0  0  0
   65.0600   58.1840   31.6790 C   0  0  0  0  0  0  0  0  0  0  0  0
   65.8960   58.0700   32.7710 C   0  0  0  0  0  0  0  0  0  0  0  0
   66.9870   57.2620   32.7170 N   0  0  0  0  0  0  0  0  0  0  0  0
   67.2760   56.5590   31.6080 C   0  0  0  0  0  0  0  0  0  0  0  0
   66.4750   56.6470   30.5170 N   0  0  0  0  0  0  0  0  0  0  0  0
   65.4000   57.4440   30.5650 C   0  0  0  0  0  0  0  0  0  0  0  0
   65.5440   58.8360   33.9210 N   0  0  0  0  0  0  0  0  0  0  0  0
   59.5280   61.1830   26.4370 C   0  0  0  0  0  0  0  0  0  0  0  0
   60.0740   62.1800   27.4030 C   0  0  0  0  0  0  0  0  0  0  0  0
   58.9080   62.0160   25.2960 C   0  0  0  0  0  0  0  0  0  0  0  0
   58.4070   60.4500   27.0870 C   0  0  0  0  0  0  0  0  0  0  0  0
   60.7896   61.3113   24.2070 H   0  0  0  0  0  0  0  0  0  0  0  0
   60.1393   59.7966   22.6087 H   0  0  0  0  0  0  0  0  0  0  0  0
   58.8544   60.3258   23.7791 H   0  0  0  0  0  0  0  0  0  0  0  0
   58.5663   58.0171   23.5269 H   0  0  0  0  0  0  0  0  0  0  0  0
   60.3788   57.7379   23.6756 H   0  0  0  0  0  0  0  0  0  0  0  0
   58.3773   58.3722   25.7999 H   0  0  0  0  0  0  0  0  0  0  0  0
   59.9882   58.7850   27.3312 H   0  0  0  0  0  0  0  0  0  0  0  0
   61.3142   58.2987   26.1796 H   0  0  0  0  0  0  0  0  0  0  0  0
   61.4321   60.5857   26.3037 H   0  0  0  0  0  0  0  0  0  0  0  0
   59.4692   56.4154   26.6426 H   0  0  0  0  0  0  0  0  0  0  0  0
   60.6609   55.3183   24.5265 H   0  0  0  0  0  0  0  0  0  0  0  0
   61.4219   56.9176   24.8269 H   0  0  0  0  0  0  0  0  0  0  0  0
   60.8531   55.6934   27.3454 H   0  0  0  0  0  0  0  0  0  0  0  0
   61.7253   54.5033   26.2337 H   0  0  0  0  0  0  0  0  0  0  0  0
   65.7917   56.8459   25.2893 H   0  0  0  0  0  0  0  0  0  0  0  0
   63.5353   55.8320   24.8237 H   0  0  0  0  0  0  0  0  0  0  0  0
   62.7302   58.9263   29.5808 H   0  0  0  0  0  0  0  0  0  0  0  0
   68.1644   55.9108   31.5854 H   0  0  0  0  0  0  0  0  0  0  0  0
   66.1292   58.7928   34.7675 H   0  0  0  0  0  0  0  0  0  0  0  0
   64.7045   59.4325   33.9052 H   0  0  0  0  0  0  0  0  0  0  0  0
   59.8856   61.8360   28.4307 H   0  0  0  0  0  0  0  0  0  0  0  0
   61.1573   62.2882   27.2453 H   0  0  0  0  0  0  0  0  0  0  0  0
   59.5817   63.1510   27.2453 H   0  0  0  0  0  0  0  0  0  0  0  0
   58.3027   62.8293   25.7229 H   0  0  0  0  0  0  0  0  0  0  0  0
   59.7101   62.4426   24.6758 H   0  0  0  0  0  0  0  0  0  0  0  0
   58.2691   61.3701   24.6758 H   0  0  0  0  0  0  0  0  0  0  0  0
   58.5099   60.5173   28.1801 H   0  0  0  0  0  0  0  0  0  0  0  0
   57.4499   60.8973   26.7806 H   0  0  0  0  0  0  0  0  0  0  0  0
   58.4330   59.3939   26.7806 H   0  0  0  0  0  0  0  0  0  0  0  0
  1  6  1  0
  2  3  1  0
  2  1  1  0
  3  4  1  0
  4  7  1  0
  4  5  1  0
  6  5  1  0
  6 26  1  0
  8  7  1  0
  8  9  1  0
  9 12  1  0
 10 15  2  0
 11 10  1  0
 11 12  2  0
 12 13  1  0
 13 14  2  0
 14 16  1  0
 15 14  1  0
 16 17  1  0
 16 24  1  0
 17 18  2  0
 18 19  1  0
 19 20  2  0
 20 25  1  0
 21 20  1  0
 22 21  2  0
 23 24  2  0
 23 22  1  0
 24 19  1  0
 26 29  1  0
 26 27  1  0
 28 26  1  0
  1 30  1  0
  2 31  1  0
  2 32  1  0
  3 33  1  0
  3 34  1  0
  4 35  1  1
  5 36  1  0
  5 37  1  0
  6 38  1  1
  7 39  1  0
  8 40  1  0
  8 41  1  0
  9 42  1  0
  9 43  1  0
 10 44  1  0
 11 45  1  0
 17 46  1  0
 22 47  1  0
 25 48  1  0
 25 49  1  0
 27 50  1  0
 27 51  1  0
 27 52  1  0
 28 53  1  0
 28 54  1  0
 28 55  1  0
 29 56  1  0
 29 57  1  0
 29 58  1  0
M  END
>  <Score>  (1) 
-7.27717

$$$$
