
     RDKit          3D

 48 51  0  0  0  0  0  0  0  0999 V2000
   64.7910   57.8770   30.4050 C   0  0  0  0  0  0  0  0  0  0  0  0
   63.7830   58.0840   31.3540 C   0  0  0  0  0  0  0  0  0  0  0  0
   64.2630   58.2930   32.6420 C   0  0  0  0  0  0  0  0  0  0  0  0
   65.6140   58.2840   32.8910 C   0  0  0  0  0  0  0  0  0  0  0  0
   66.5640   58.0760   31.9280 C   0  0  0  0  0  0  0  0  0  0  0  0
   66.1020   57.8710   30.6660 N   0  0  0  0  0  0  0  0  0  0  0  0
   67.9870   58.0700   32.2190 C   0  0  0  0  0  0  0  0  0  0  0  0
   68.4920   57.1050   33.0610 C   0  0  0  0  0  0  0  0  0  0  0  0
   69.8390   57.0410   33.3820 C   0  0  0  0  0  0  0  0  0  0  0  0
   70.6110   58.0090   32.7970 C   0  0  0  0  0  0  0  0  0  0  0  0
   70.0850   58.9740   31.9530 C   0  0  0  0  0  0  0  0  0  0  0  0
   68.7710   58.9890   31.6760 N   0  0  0  0  0  0  0  0  0  0  0  0
   70.9660   59.9610   31.3770 N   0  0  0  0  0  0  0  0  0  0  0  0
   64.9890   57.0360   26.8290 C   0  0  0  0  0  0  0  0  0  0  0  0
   63.6560   57.2180   26.3820 C   0  0  0  0  0  0  0  0  0  0  0  0
   62.7100   57.6360   27.3570 C   0  0  0  0  0  0  0  0  0  0  0  0
   63.1250   57.8370   28.6450 N   0  0  0  0  0  0  0  0  0  0  0  0
   64.4110   57.6430   28.9980 C   0  0  0  0  0  0  0  0  0  0  0  0
   65.2950   57.2530   28.0900 N   0  0  0  0  0  0  0  0  0  0  0  0
   65.9440   56.6220   25.8820 N   0  0  0  0  0  0  0  0  0  0  0  0
   61.2840   57.8510   26.9670 C   0  0  0  0  0  0  0  0  0  0  0  0
   60.6790   59.0540   27.5590 C   0  0  0  0  0  0  0  0  0  0  0  0
   60.5780   60.2650   26.6960 C   0  0  0  0  0  0  0  0  0  0  0  0
   60.5600   59.9870   25.2210 C   0  0  0  0  0  0  0  0  0  0  0  0
   61.5730   58.9440   24.8050 C   0  0  0  0  0  0  0  0  0  0  0  0
   61.1750   57.6730   25.4860 C   0  0  0  0  0  0  0  0  0  0  0  0
   62.7118   58.0815   31.1042 H   0  0  0  0  0  0  0  0  0  0  0  0
   63.5564   58.4667   33.4670 H   0  0  0  0  0  0  0  0  0  0  0  0
   65.9517   58.4538   33.9240 H   0  0  0  0  0  0  0  0  0  0  0  0
   67.8054   56.3617   33.4924 H   0  0  0  0  0  0  0  0  0  0  0  0
   70.2543   56.2744   34.0526 H   0  0  0  0  0  0  0  0  0  0  0  0
   71.6910   58.0210   33.0052 H   0  0  0  0  0  0  0  0  0  0  0  0
   70.5883   60.6839   30.7480 H   0  0  0  0  0  0  0  0  0  0  0  0
   71.9725   59.9426   31.5948 H   0  0  0  0  0  0  0  0  0  0  0  0
   63.3686   57.0446   25.3345 H   0  0  0  0  0  0  0  0  0  0  0  0
   65.6638   56.4627   24.9037 H   0  0  0  0  0  0  0  0  0  0  0  0
   66.9233   56.4782   26.1671 H   0  0  0  0  0  0  0  0  0  0  0  0
   60.6352   57.0855   27.4177 H   0  0  0  0  0  0  0  0  0  0  0  0
   59.6597   58.7889   27.8766 H   0  0  0  0  0  0  0  0  0  0  0  0
   61.3625   59.3428   28.3711 H   0  0  0  0  0  0  0  0  0  0  0  0
   59.6492   60.7939   26.9559 H   0  0  0  0  0  0  0  0  0  0  0  0
   61.4839   60.8587   26.8882 H   0  0  0  0  0  0  0  0  0  0  0  0
   59.5566   59.6318   24.9432 H   0  0  0  0  0  0  0  0  0  0  0  0
   60.8207   60.9234   24.7060 H   0  0  0  0  0  0  0  0  0  0  0  0
   61.5564   58.8118   23.7131 H   0  0  0  0  0  0  0  0  0  0  0  0
   62.5931   59.2445   25.0864 H   0  0  0  0  0  0  0  0  0  0  0  0
   60.1369   57.4237   25.2212 H   0  0  0  0  0  0  0  0  0  0  0  0
   61.8393   56.8580   25.1628 H   0  0  0  0  0  0  0  0  0  0  0  0
  1  6  1  0
  1  2  2  0
  2  3  1  0
  3  4  2  0
  5  7  1  0
  5  4  1  0
  6  5  2  0
  7  8  2  0
  8  9  1  0
 10  9  2  0
 11 10  1  0
 12 11  2  0
 12  7  1  0
 13 11  1  0
 14 19  2  0
 15 14  1  0
 15 16  2  0
 16 17  1  0
 17 18  2  0
 18  1  1  0
 19 18  1  0
 20 14  1  0
 21 16  1  0
 21 22  1  0
 23 22  1  0
 24 23  1  0
 25 24  1  0
 25 26  1  0
 26 21  1  0
  2 27  1  0
  3 28  1  0
  4 29  1  0
  8 30  1  0
  9 31  1  0
 10 32  1  0
 13 33  1  0
 13 34  1  0
 15 35  1  0
 20 36  1  0
 20 37  1  0
 21 38  1  0
 22 39  1  0
 22 40  1  0
 23 41  1  0
 23 42  1  0
 24 43  1  0
 24 44  1  0
 25 45  1  0
 25 46  1  0
 26 47  1  0
 26 48  1  0
M  END
>  <Score>  (1) 
-7.08781

$$$$
