
     RDKit          3D

 47 51  0  0  0  0  0  0  0  0999 V2000
   60.2480   58.4440   25.4630 C   0  0  0  0  0  0  0  0  0  0  0  0
   61.0800   59.2380   24.6910 C   0  0  0  0  0  0  0  0  0  0  0  0
   60.3060   59.8940   23.7260 C   0  0  0  0  0  0  0  0  0  0  0  0
   59.0200   59.4340   23.9920 C   0  0  0  0  0  0  0  0  0  0  0  0
   59.0430   58.6140   24.9850 O   0  0  0  0  0  0  0  0  0  0  0  0
   57.8590   59.8610   23.2150 C   0  0  0  0  0  0  0  0  0  0  0  0
   57.1590   59.1670   22.2410 C   0  0  0  0  0  0  0  0  0  0  0  0
   56.1700   59.9240   21.7850 N   0  0  0  0  0  0  0  0  0  0  0  0
   56.1650   61.0930   22.3990 C   0  0  0  0  0  0  0  0  0  0  0  0
   55.3350   62.1710   22.2500 C   0  0  0  0  0  0  0  0  0  0  0  0
   55.5910   63.2840   23.0590 C   0  0  0  0  0  0  0  0  0  0  0  0
   56.6190   63.3490   23.9830 C   0  0  0  0  0  0  0  0  0  0  0  0
   57.4140   62.2290   24.0800 C   0  0  0  0  0  0  0  0  0  0  0  0
   57.2280   61.0850   23.3140 C   0  0  0  0  0  0  0  0  0  0  0  0
   60.6400   57.6270   26.5350 O   0  0  0  0  0  0  0  0  0  0  0  0
   61.5590   56.6010   26.2510 C   0  0  0  0  0  0  0  0  0  0  0  0
   61.2230   55.5530   25.6930 O   0  0  0  0  0  0  0  0  0  0  0  0
   65.2820   56.9240   26.1460 C   0  0  0  0  0  0  0  0  0  0  0  0
   63.9470   56.7220   25.7050 C   0  0  0  0  0  0  0  0  0  0  0  0
   62.9470   56.7970   26.6340 C   0  0  0  0  0  0  0  0  0  0  0  0
   63.3010   57.0570   27.9080 N   0  0  0  0  0  0  0  0  0  0  0  0
   64.5720   57.2480   28.3170 C   0  0  0  0  0  0  0  0  0  0  0  0
   65.5490   57.1810   27.4450 N   0  0  0  0  0  0  0  0  0  0  0  0
   64.7630   57.5180   29.7110 N   0  0  0  0  0  0  0  0  0  0  0  0
   65.8120   56.9560   30.3350 C   0  0  0  0  0  0  0  0  0  0  0  0
   65.9170   57.2730   31.6730 C   0  0  0  0  0  0  0  0  0  0  0  0
   67.0790   56.6610   32.4030 C   0  0  0  0  0  0  0  0  0  0  0  0
   65.0650   58.0860   32.3890 C   0  0  0  0  0  0  0  0  0  0  0  0
   65.2910   58.2810   33.6070 O   0  0  0  0  0  0  0  0  0  0  0  0
   64.0180   58.6260   31.6940 N   0  0  0  0  0  0  0  0  0  0  0  0
   63.9000   58.3280   30.3880 C   0  0  0  0  0  0  0  0  0  0  0  0
   62.9220   58.8390   29.7640 O   0  0  0  0  0  0  0  0  0  0  0  0
   62.1685   59.3368   24.8154 H   0  0  0  0  0  0  0  0  0  0  0  0
   60.6340   60.5997   22.9486 H   0  0  0  0  0  0  0  0  0  0  0  0
   57.3880   58.1468   21.8992 H   0  0  0  0  0  0  0  0  0  0  0  0
   55.5007   59.6402   21.0553 H   0  0  0  0  0  0  0  0  0  0  0  0
   54.5052   62.1630   21.5279 H   0  0  0  0  0  0  0  0  0  0  0  0
   54.9349   64.1607   22.9539 H   0  0  0  0  0  0  0  0  0  0  0  0
   56.7907   64.2415   24.6026 H   0  0  0  0  0  0  0  0  0  0  0  0
   58.2421   62.2407   24.8040 H   0  0  0  0  0  0  0  0  0  0  0  0
   66.1079   56.8705   25.4214 H   0  0  0  0  0  0  0  0  0  0  0  0
   63.7247   56.5117   24.6484 H   0  0  0  0  0  0  0  0  0  0  0  0
   66.5278   56.2976   29.8211 H   0  0  0  0  0  0  0  0  0  0  0  0
   66.9168   56.7465   33.4876 H   0  0  0  0  0  0  0  0  0  0  0  0
   67.1669   55.5996   32.1279 H   0  0  0  0  0  0  0  0  0  0  0  0
   68.0040   57.1889   32.1279 H   0  0  0  0  0  0  0  0  0  0  0  0
   63.3380   59.2445   32.1586 H   0  0  0  0  0  0  0  0  0  0  0  0
  1 15  1  0
  2  1  2  0
  3  4  2  0
  3  2  1  0
  4  5  1  0
  5  1  1  0
  6 14  1  0
  6  4  1  0
  7  6  2  0
  8  7  1  0
  8  9  1  0
  9 14  2  0
 10  9  1  0
 10 11  2  0
 11 12  1  0
 12 13  2  0
 14 13  1  0
 16 15  1  0
 16 20  1  0
 17 16  2  0
 18 23  2  0
 19 18  1  0
 19 20  2  0
 20 21  1  0
 21 22  2  0
 22 24  1  0
 23 22  1  0
 24 25  1  0
 24 31  1  0
 25 26  2  0
 26 28  1  0
 26 27  1  0
 28 29  2  0
 30 28  1  0
 31 30  1  0
 32 31  2  0
  2 33  1  0
  3 34  1  0
  7 35  1  0
  8 36  1  0
 10 37  1  0
 11 38  1  0
 12 39  1  0
 13 40  1  0
 18 41  1  0
 19 42  1  0
 25 43  1  0
 27 44  1  0
 27 45  1  0
 27 46  1  0
 30 47  1  0
M  END
>  <Score>  (1) 
-7.99428

$$$$
