
 OpenBabel03232520423D

 36 38  0  0  1  0  0  0  0  0999 V2000
   43.9830   35.4440   42.4150 C   0  0  0  0  0  0  0  0  0  0  0  0
   43.3400   34.8960   41.3010 C   0  0  0  0  0  0  0  0  0  0  0  0
   44.0910   34.1960   40.4030 C   0  0  0  0  0  0  0  0  0  0  0  0
   45.4300   34.0360   40.5860 N   0  0  0  0  0  0  0  0  0  0  0  0
   46.0290   34.5810   41.6790 C   0  0  0  0  0  0  0  0  0  0  0  0
   45.3060   35.2860   42.5950 N   0  0  0  0  0  0  0  0  0  0  0  0
   43.3450   35.9890   43.0960 H   0  0  0  0  0  0  0  0  0  0  0  0
   43.6830   33.7510   39.5340 H   0  0  0  0  0  0  0  0  0  0  0  0
   47.4540   34.4560   41.9530 C   0  0  0  0  0  0  0  0  0  0  0  0
   48.2840   35.5240   41.8730 C   0  0  0  0  0  0  0  0  0  0  0  0
   49.6450   35.3980   42.1370 C   0  0  0  0  0  0  0  0  0  0  0  0
   50.1870   34.1890   42.4850 C   0  0  0  0  0  0  0  0  0  0  0  0
   49.3220   33.1210   42.5570 C   0  0  0  0  0  0  0  0  0  0  0  0
   48.0090   33.2650   42.2980 N   0  0  0  0  0  0  0  0  0  0  0  0
   47.9200   36.5050   41.6040 H   0  0  0  0  0  0  0  0  0  0  0  0
   50.3010   36.2470   42.0730 H   0  0  0  0  0  0  0  0  0  0  0  0
   51.2310   33.9980   42.7060 H   0  0  0  0  0  0  0  0  0  0  0  0
   49.6560   32.1240   42.8250 H   0  0  0  0  0  0  0  0  0  0  0  0
   41.5670   35.1180   41.0900 S   0  0  0  0  0  0  0  0  0  0  0  0
   38.4350   32.3660   39.4710 N   0  0  0  0  0  0  0  0  0  0  0  0
   38.5640   32.9550   40.7630 C   0  0  0  0  0  0  0  0  0  0  0  0
   39.9980   32.9540   41.2600 C   0  0  0  0  0  0  0  0  0  0  0  0
   40.8340   33.7020   40.2650 C   0  0  1  0  0  0  0  0  0  0  0  0
   40.0860   34.1380   39.0350 C   0  0  0  0  0  0  0  0  0  0  0  0
   39.2710   32.9890   38.4660 C   0  0  2  0  0  0  0  0  0  0  0  0
   38.7690   31.3660   39.5400 H   0  0  0  0  0  0  0  0  0  0  0  0
   38.1810   34.0060   40.7210 H   0  0  0  0  0  0  0  0  0  0  0  0
   37.9750   32.3350   41.4670 H   0  0  0  0  0  0  0  0  0  0  0  0
   40.2730   31.8640   41.3430 H   0  0  0  0  0  0  0  0  0  0  0  0
   40.0030   33.3650   42.2740 H   0  0  0  0  0  0  0  0  0  0  0  0
   41.6060   32.9870   39.9120 H   0  0  0  0  0  0  0  0  0  0  0  0
   39.3390   34.9340   39.2600 H   0  0  0  0  0  0  0  0  0  0  0  0
   40.7990   34.4710   38.2800 H   0  0  0  0  0  0  0  0  0  0  0  0
   39.8890   32.2830   37.8970 H   0  0  0  0  0  0  0  0  0  0  0  0
   38.3120   33.6480   37.4680 C   0  0  0  0  0  0  0  0  0  0  0  0
   38.6350   33.3480   36.4440 H   0  0  0  0  0  0  0  0  0  0  0  0
  1  6  1  0  0  0  0
  1  7  1  0  0  0  0
  2  1  2  0  0  0  0
  3  4  2  0  0  0  0
  3  2  1  0  0  0  0
  4  5  1  0  0  0  0
  5  9  1  0  0  0  0
  5  6  2  0  0  0  0
  8  3  1  0  0  0  0
  9 14  1  0  0  0  0
 10  9  2  0  0  0  0
 10 11  1  0  0  0  0
 11 12  2  0  0  0  0
 12 13  1  0  0  0  0
 12 17  1  0  0  0  0
 13 18  1  0  0  0  0
 14 13  2  0  0  0  0
 15 10  1  0  0  0  0
 16 11  1  0  0  0  0
 19  2  1  0  0  0  0
 20 26  1  0  0  0  0
 20 21  1  0  0  0  0
 21 22  1  0  0  0  0
 21 28  1  0  0  0  0
 22 29  1  0  0  0  0
 22 30  1  0  0  0  0
 23 31  1  6  0  0  0
 23 19  1  0  0  0  0
 23 22  1  0  0  0  0
 24 32  1  0  0  0  0
 24 23  1  0  0  0  0
 25 34  1  6  0  0  0
 25 24  1  0  0  0  0
 25 20  1  0  0  0  0
 27 21  1  0  0  0  0
 33 24  1  0  0  0  0
 35 25  1  0  0  0  0
 36 35  1  0  0  0  0
M  END
>  <minimizedAffinity>
-5.80901718

>  <minimizedRMSD>
0.880770922

$$$$
