
 OpenBabel03232517553D

 37 40  0  0  0  0  0  0  0  0999 V2000
   46.4150   32.4190   44.7520 N   0  0  0  0  0  0  0  0  0  0  0  0
   46.3720   31.4300   45.6720 C   0  0  0  0  0  0  0  0  0  0  0  0
   47.2560   30.4760   45.3080 N   0  0  0  0  0  0  0  0  0  0  0  0
   47.8490   30.8510   44.1810 C   0  0  0  0  0  0  0  0  0  0  0  0
   48.8190   30.3180   43.3360 C   0  0  0  0  0  0  0  0  0  0  0  0
   49.1760   31.0140   42.2470 N   0  0  0  0  0  0  0  0  0  0  0  0
   48.6830   32.1980   41.8800 C   0  0  0  0  0  0  0  0  0  0  0  0
   47.7280   32.7370   42.7010 N   0  0  0  0  0  0  0  0  0  0  0  0
   47.3290   32.0840   43.8080 C   0  0  0  0  0  0  0  0  0  0  0  0
   45.7400   31.3950   46.5540 H   0  0  0  0  0  0  0  0  0  0  0  0
   49.2550   29.3560   43.5840 H   0  0  0  0  0  0  0  0  0  0  0  0
   44.5410   35.2870   43.4080 C   0  0  0  0  0  0  0  0  0  0  0  0
   45.2920   34.1090   43.4620 C   0  0  0  0  0  0  0  0  0  0  0  0
   45.6600   33.6050   44.7350 C   0  0  0  0  0  0  0  0  0  0  0  0
   45.2570   34.3020   45.8220 N   0  0  0  0  0  0  0  0  0  0  0  0
   44.5370   35.4280   45.7380 C   0  0  0  0  0  0  0  0  0  0  0  0
   44.1770   35.9250   44.5520 N   0  0  0  0  0  0  0  0  0  0  0  0
   44.1070   35.8980   42.2040 N   0  0  0  0  0  0  0  0  0  0  0  0
   45.5430   33.6610   42.5270 H   0  0  0  0  0  0  0  0  0  0  0  0
   44.2680   35.9050   46.6770 H   0  0  0  0  0  0  0  0  0  0  0  0
   43.0930   36.1860   42.1390 H   0  0  0  0  0  0  0  0  0  0  0  0
   44.7090   36.0890   41.3720 H   0  0  0  0  0  0  0  0  0  0  0  0
   49.1700   32.8410   40.6620 C   0  0  0  0  0  0  0  0  0  0  0  0
   50.1820   33.2530   40.9060 H   0  0  0  0  0  0  0  0  0  0  0  0
   49.3400   32.0940   39.8840 H   0  0  0  0  0  0  0  0  0  0  0  0
   48.3410   34.0060   40.2260 C   0  0  0  0  0  0  0  0  0  0  0  0
   48.9070   34.9520   40.2200 H   0  0  0  0  0  0  0  0  0  0  0  0
   47.5740   34.1510   41.0410 H   0  0  0  0  0  0  0  0  0  0  0  0
   47.6070   33.7920   38.9970 N   0  0  0  0  0  0  0  0  0  0  0  0
   46.4850   33.0490   39.2310 C   0  0  0  0  0  0  0  0  0  0  0  0
   45.6160   32.7150   38.2040 C   0  0  0  0  0  0  0  0  0  0  0  0
   45.9100   33.1510   36.9280 C   0  0  0  0  0  0  0  0  0  0  0  0
   45.2090   32.9190   35.9100 O   0  0  0  0  0  0  0  0  0  0  0  0
   47.0250   33.8780   36.7420 N   0  0  0  0  0  0  0  0  0  0  0  0
   47.8640   34.1990   37.7420 C   0  0  0  0  0  0  0  0  0  0  0  0
   48.9190   34.8700   37.6540 O   0  0  0  0  0  0  0  0  0  0  0  0
   47.2820   34.2240   35.7930 H   0  0  0  0  0  0  0  0  0  0  0  0
  1  2  1  0  0  0  0
  2 10  1  0  0  0  0
  3  2  2  0  0  0  0
  4  3  1  0  0  0  0
  5 11  1  0  0  0  0
  5  4  2  0  0  0  0
  6  5  1  0  0  0  0
  7  6  2  0  0  0  0
  7  8  1  0  0  0  0
  8  9  2  0  0  0  0
  9  4  1  0  0  0  0
  9  1  1  0  0  0  0
 12 13  2  0  0  0  0
 12 17  1  0  0  0  0
 13 14  1  0  0  0  0
 14  1  1  0  0  0  0
 14 15  2  0  0  0  0
 16 15  1  0  0  0  0
 16 20  1  0  0  0  0
 17 16  2  0  0  0  0
 18 12  1  0  0  0  0
 19 13  1  0  0  0  0
 21 18  1  0  0  0  0
 22 18  1  0  0  0  0
 23 24  1  0  0  0  0
 23  7  1  0  0  0  0
 25 23  1  0  0  0  0
 26 23  1  0  0  0  0
 26 28  1  0  0  0  0
 27 26  1  0  0  0  0
 29 30  1  0  0  0  0
 29 26  1  0  0  0  0
 31 30  2  0  0  0  0
 32 31  1  0  0  0  0
 33 32  2  0  0  0  0
 34 32  1  0  0  0  0
 34 35  1  0  0  0  0
 35 29  1  0  0  0  0
 36 35  2  0  0  0  0
 37 34  1  0  0  0  0
M  END
>  <minimizedAffinity>
-5.57147694

>  <minimizedRMSD>
2.11077595

$$$$
