
 OpenBabel03232520593D

 41 44  0  0  1  0  0  0  0  0999 V2000
   45.3590   32.8910   47.5110 C   0  0  0  0  0  0  0  0  0  0  0  0
   45.8920   32.6330   46.2950 C   0  0  0  0  0  0  0  0  0  0  0  0
   46.1530   31.2880   46.0380 C   0  0  0  0  0  0  0  0  0  0  0  0
   45.8960   30.3010   46.9350 N   0  0  0  0  0  0  0  0  0  0  0  0
   45.3520   30.6290   48.1620 C   0  0  0  0  0  0  0  0  0  0  0  0
   45.0970   31.8970   48.4200 N   0  0  0  0  0  0  0  0  0  0  0  0
   45.1480   29.6040   49.1310 N   0  0  0  0  0  0  0  0  0  0  0  0
   45.1200   33.8980   47.8160 H   0  0  0  0  0  0  0  0  0  0  0  0
   44.3080   28.9830   49.0940 H   0  0  0  0  0  0  0  0  0  0  0  0
   45.8110   29.4070   49.9280 H   0  0  0  0  0  0  0  0  0  0  0  0
   46.1510   33.5880   45.2690 C   0  0  2  0  0  0  0  0  0  0  0  0
   44.9550   34.6900   45.4990 C   0  0  0  0  0  0  0  0  0  0  0  0
   44.7280   35.6220   44.4320 C   0  0  0  0  0  0  0  0  0  0  0  0
   45.5290   35.5470   43.2050 C   0  0  1  0  0  0  0  0  0  0  0  0
   46.5830   34.5440   43.1580 C   0  0  0  0  0  0  0  0  0  0  0  0
   46.1270   33.3100   43.9030 C   0  0  0  0  0  0  0  0  0  0  0  0
   46.9760   34.2880   45.6040 H   0  0  0  0  0  0  0  0  0  0  0  0
   44.2780   34.8540   46.3260 H   0  0  0  0  0  0  0  0  0  0  0  0
   43.9660   36.3520   44.5410 H   0  0  0  0  0  0  0  0  0  0  0  0
   45.9660   36.5450   42.9910 H   0  0  0  0  0  0  0  0  0  0  0  0
   46.8300   34.3270   42.0770 H   0  0  0  0  0  0  0  0  0  0  0  0
   47.5360   34.8690   43.6350 H   0  0  0  0  0  0  0  0  0  0  0  0
   46.9840   32.6600   43.5760 H   0  0  0  0  0  0  0  0  0  0  0  0
   45.1910   32.8910   43.4750 H   0  0  0  0  0  0  0  0  0  0  0  0
   44.5130   35.2900   42.0550 C   0  0  0  0  0  0  0  0  0  0  0  0
   43.4480   34.4970   42.4500 F   0  0  0  0  0  0  0  0  0  0  0  0
   43.9780   36.5310   41.7170 F   0  0  0  0  0  0  0  0  0  0  0  0
   45.1860   34.8250   40.9420 F   0  0  0  0  0  0  0  0  0  0  0  0
   46.7580   30.5880   44.9190 C   0  0  0  0  0  0  0  0  0  0  0  0
   46.3780   29.8360   43.8540 C   0  0  0  0  0  0  0  0  0  0  0  0
   47.5400   29.4350   43.1750 C   0  0  0  0  0  0  0  0  0  0  0  0
   48.5570   29.9600   43.8590 N   0  0  0  0  0  0  0  0  0  0  0  0
   48.1210   30.6450   44.8930 N   0  0  0  0  0  0  0  0  0  0  0  0
   45.3240   29.6800   43.7100 H   0  0  0  0  0  0  0  0  0  0  0  0
   47.4670   28.8230   42.2930 H   0  0  0  0  0  0  0  0  0  0  0  0
   49.9350   29.7650   43.4620 C   0  0  0  0  0  0  0  0  0  0  0  0
   50.7240   30.6870   42.7640 C   0  0  0  0  0  3  0  0  0  0  0  0
   52.3330   29.7330   42.6310 S   0  0  0  0  0  0  0  0  0  0  0  0
   51.5840   28.2600   43.5640 C   0  0  0  0  0  0  0  0  0  0  0  0
   52.2250   27.4090   43.7260 H   0  0  0  0  0  0  0  0  0  0  0  0
   50.4230   28.5950   43.8220 N   0  0  0  0  0  0  0  0  0  0  0  0
  1  8  1  0  0  0  0
  1  6  1  0  0  0  0
  2  1  2  0  0  0  0
  3  2  1  0  0  0  0
  3  4  2  0  0  0  0
  4  5  1  0  0  0  0
  5  6  2  0  0  0  0
  5  7  1  0  0  0  0
  7 10  1  0  0  0  0
  9  7  1  0  0  0  0
 11 12  1  0  0  0  0
 11 17  1  1  0  0  0
 11  2  1  0  0  0  0
 12 18  1  0  0  0  0
 13 19  1  0  0  0  0
 13 12  2  0  0  0  0
 14 20  1  6  0  0  0
 14 13  1  0  0  0  0
 15 14  1  0  0  0  0
 15 22  1  0  0  0  0
 15 16  1  0  0  0  0
 16 11  1  0  0  0  0
 21 15  1  0  0  0  0
 23 16  1  0  0  0  0
 24 16  1  0  0  0  0
 25 26  1  0  0  0  0
 25 14  1  0  0  0  0
 27 25  1  0  0  0  0
 28 25  1  0  0  0  0
 29  3  1  0  0  0  0
 30 29  1  0  0  0  0
 31 30  2  0  0  0  0
 31 32  1  0  0  0  0
 32 33  1  0  0  0  0
 33 29  2  0  0  0  0
 34 30  1  0  0  0  0
 35 31  1  0  0  0  0
 36 41  1  0  0  0  0
 36 32  1  0  0  0  0
 37 36  2  0  0  0  0
 38 37  1  0  0  0  0
 38 39  1  0  0  0  0
 39 40  1  0  0  0  0
 39 41  2  0  0  0  0
M  END
>  <minimizedAffinity>
-5.70372725

>  <minimizedRMSD>
0.113474712

$$$$
