
 OpenBabel03232520593D

 41 44  0  0  1  0  0  0  0  0999 V2000
   45.3400   32.8990   47.5150 C   0  0  0  0  0  0  0  0  0  0  0  0
   45.8930   32.6460   46.3060 C   0  0  0  0  0  0  0  0  0  0  0  0
   46.1770   31.3050   46.0570 C   0  0  0  0  0  0  0  0  0  0  0  0
   45.9220   30.3160   46.9530 N   0  0  0  0  0  0  0  0  0  0  0  0
   45.3580   30.6390   48.1710 C   0  0  0  0  0  0  0  0  0  0  0  0
   45.0810   31.9040   48.4230 N   0  0  0  0  0  0  0  0  0  0  0  0
   45.1560   29.6130   49.1410 N   0  0  0  0  0  0  0  0  0  0  0  0
   45.0820   33.9030   47.8140 H   0  0  0  0  0  0  0  0  0  0  0  0
   44.3260   28.9800   49.0940 H   0  0  0  0  0  0  0  0  0  0  0  0
   45.8120   29.4280   49.9470 H   0  0  0  0  0  0  0  0  0  0  0  0
   46.1510   33.6030   45.2810 C   0  0  2  0  0  0  0  0  0  0  0  0
   44.9450   34.6960   45.5040 C   0  0  0  0  0  0  0  0  0  0  0  0
   44.7180   35.6260   44.4350 C   0  0  0  0  0  0  0  0  0  0  0  0
   45.5270   35.5560   43.2120 C   0  0  1  0  0  0  0  0  0  0  0  0
   46.5880   34.5600   43.1730 C   0  0  0  0  0  0  0  0  0  0  0  0
   46.1370   33.3230   43.9160 C   0  0  0  0  0  0  0  0  0  0  0  0
   46.9690   34.3080   45.6210 H   0  0  0  0  0  0  0  0  0  0  0  0
   44.2620   34.8550   46.3270 H   0  0  0  0  0  0  0  0  0  0  0  0
   43.9500   36.3500   44.5390 H   0  0  0  0  0  0  0  0  0  0  0  0
   45.9580   36.5560   43.0010 H   0  0  0  0  0  0  0  0  0  0  0  0
   46.8430   34.3440   42.0930 H   0  0  0  0  0  0  0  0  0  0  0  0
   47.5360   34.8920   43.6560 H   0  0  0  0  0  0  0  0  0  0  0  0
   47.0000   32.6800   43.5950 H   0  0  0  0  0  0  0  0  0  0  0  0
   45.2070   32.8970   43.4820 H   0  0  0  0  0  0  0  0  0  0  0  0
   44.5200   35.2910   42.0570 C   0  0  0  0  0  0  0  0  0  0  0  0
   43.4570   34.4920   42.4460 F   0  0  0  0  0  0  0  0  0  0  0  0
   43.9800   36.5270   41.7120 F   0  0  0  0  0  0  0  0  0  0  0  0
   45.2020   34.8270   40.9490 F   0  0  0  0  0  0  0  0  0  0  0  0
   46.8060   30.6110   44.9470 C   0  0  0  0  0  0  0  0  0  0  0  0
   46.4490   29.8710   43.8660 C   0  0  0  0  0  0  0  0  0  0  0  0
   47.6260   29.4680   43.2140 C   0  0  0  0  0  0  0  0  0  0  0  0
   48.6280   29.9810   43.9290 N   0  0  0  0  0  0  0  0  0  0  0  0
   48.1690   30.6590   44.9580 N   0  0  0  0  0  0  0  0  0  0  0  0
   45.3980   29.7230   43.6930 H   0  0  0  0  0  0  0  0  0  0  0  0
   47.5720   28.8660   42.3240 H   0  0  0  0  0  0  0  0  0  0  0  0
   50.0150   29.7800   43.5660 C   0  0  0  0  0  0  0  0  0  0  0  0
   50.7420   30.5540   42.6540 C   0  0  0  0  0  3  0  0  0  0  0  0
   52.4070   29.6950   42.7250 S   0  0  0  0  0  0  0  0  0  0  0  0
   51.7560   28.4470   43.9970 C   0  0  0  0  0  0  0  0  0  0  0  0
   52.4500   27.7010   44.3450 H   0  0  0  0  0  0  0  0  0  0  0  0
   50.5770   28.7630   44.1870 N   0  0  0  0  0  0  0  0  0  0  0  0
  1  8  1  0  0  0  0
  1  6  1  0  0  0  0
  2  1  2  0  0  0  0
  3  2  1  0  0  0  0
  3  4  2  0  0  0  0
  4  5  1  0  0  0  0
  5  6  2  0  0  0  0
  5  7  1  0  0  0  0
  7 10  1  0  0  0  0
  9  7  1  0  0  0  0
 11 12  1  0  0  0  0
 11 17  1  1  0  0  0
 11  2  1  0  0  0  0
 12 18  1  0  0  0  0
 13 19  1  0  0  0  0
 13 12  2  0  0  0  0
 14 20  1  6  0  0  0
 14 13  1  0  0  0  0
 15 14  1  0  0  0  0
 15 22  1  0  0  0  0
 15 16  1  0  0  0  0
 16 11  1  0  0  0  0
 21 15  1  0  0  0  0
 23 16  1  0  0  0  0
 24 16  1  0  0  0  0
 25 26  1  0  0  0  0
 25 14  1  0  0  0  0
 27 25  1  0  0  0  0
 28 25  1  0  0  0  0
 29 33  2  0  0  0  0
 29  3  1  0  0  0  0
 30 29  1  0  0  0  0
 31 30  2  0  0  0  0
 31 32  1  0  0  0  0
 32 33  1  0  0  0  0
 34 30  1  0  0  0  0
 35 31  1  0  0  0  0
 36 32  1  0  0  0  0
 36 41  1  0  0  0  0
 37 38  1  0  0  0  0
 37 36  2  0  0  0  0
 38 39  1  0  0  0  0
 39 41  2  0  0  0  0
 39 40  1  0  0  0  0
M  END
>  <minimizedAffinity>
-5.68320465

>  <minimizedRMSD>
0.133720443

$$$$
