
 OpenBabel03232516573D

 31 34  0  0  1  0  0  0  0  0999 V2000
   45.7100   34.4840   43.7590 C   0  0  0  0  0  0  0  0  0  0  0  0
   46.9590   34.0520   43.2860 C   0  0  0  0  0  0  0  0  0  0  0  0
   47.6490   33.0790   44.0000 C   0  0  0  0  0  0  0  0  0  0  0  0
   47.0800   32.5860   45.1300 N   0  0  0  0  0  0  0  0  0  0  0  0
   45.8670   33.0180   45.5740 C   0  0  0  0  0  0  0  0  0  0  0  0
   45.2110   33.9530   44.8830 N   0  0  0  0  0  0  0  0  0  0  0  0
   48.6120   32.7210   43.6680 H   0  0  0  0  0  0  0  0  0  0  0  0
   45.4070   32.6340   46.4690 H   0  0  0  0  0  0  0  0  0  0  0  0
   47.6010   34.5280   42.1160 N   0  0  0  0  0  0  0  0  0  0  0  0
   48.4320   35.5770   41.9100 C   0  0  0  0  0  0  0  0  0  0  0  0
   48.7770   35.6060   40.5950 N   0  0  0  0  0  0  0  0  0  0  0  0
   48.1730   34.5860   39.9590 C   0  0  0  0  0  0  0  0  0  0  0  0
   48.1500   34.1310   38.6670 C   0  0  0  0  0  0  0  0  0  0  0  0
   47.4200   33.0440   38.3440 N   0  0  0  0  0  0  0  0  0  0  0  0
   46.6920   32.3670   39.2640 C   0  0  0  0  0  0  0  0  0  0  0  0
   46.7460   32.8500   40.5210 N   0  0  0  0  0  0  0  0  0  0  0  0
   47.4390   33.9130   40.9140 C   0  0  0  0  0  0  0  0  0  0  0  0
   48.9000   34.7910   37.6420 N   0  0  0  0  0  0  0  0  0  0  0  0
   48.7410   36.2510   42.6980 H   0  0  0  0  0  0  0  0  0  0  0  0
   46.1020   31.4960   39.0290 H   0  0  0  0  0  0  0  0  0  0  0  0
   48.5110   35.7170   37.3570 H   0  0  0  0  0  0  0  0  0  0  0  0
   49.7680   34.5170   37.1230 H   0  0  0  0  0  0  0  0  0  0  0  0
   45.0410   35.4710   42.9890 C   0  0  2  0  0  0  0  0  0  0  0  0
   45.2190   36.7510   43.1460 O   0  0  0  0  0  0  0  0  0  0  0  0
   43.0870   34.8970   38.9180 H   0  0  0  0  0  0  0  0  0  0  0  0
   43.0960   35.0820   39.9470 N   0  0  0  0  0  0  0  0  0  0  0  0
   44.2530   35.0910   40.6190 N   0  0  0  0  0  0  0  0  0  0  0  0
   44.0600   35.3430   41.9180 C   0  0  0  0  0  0  0  0  0  0  0  0
   42.6920   35.4870   41.9820 C   0  0  0  0  0  0  0  0  0  0  0  0
   42.0610   35.3290   40.7680 C   0  0  0  0  0  0  0  0  0  0  0  0
   41.0140   35.3860   40.5110 H   0  0  0  0  0  0  0  0  0  0  0  0
  1  6  1  0  0  0  0
  2  1  2  0  0  0  0
  2  3  1  0  0  0  0
  3  4  2  0  0  0  0
  4  5  1  0  0  0  0
  5  8  1  0  0  0  0
  6  5  2  0  0  0  0
  7  3  1  0  0  0  0
  9  2  1  0  0  0  0
 10  9  1  0  0  0  0
 10 19  1  0  0  0  0
 11 10  2  0  0  0  0
 12 11  1  0  0  0  0
 12 17  1  0  0  0  0
 13 12  2  0  0  0  0
 14 13  1  0  0  0  0
 14 15  2  0  0  0  0
 15 16  1  0  0  0  0
 16 17  2  0  0  0  0
 17  9  1  0  0  0  0
 18 13  1  0  0  0  0
 20 15  1  0  0  0  0
 21 18  1  0  0  0  0
 22 18  1  0  0  0  0
 23 24  1  1  0  0  0
 23  1  1  0  0  0  0
 25 26  1  0  0  0  0
 26 27  1  0  0  0  0
 26 30  1  0  0  0  0
 27 28  2  0  0  0  0
 28 29  1  0  0  0  0
 28 23  1  0  0  0  0
 30 29  2  0  0  0  0
 31 30  1  0  0  0  0
M  END
>  <minimizedAffinity>
-5.97899818

>  <minimizedRMSD>
0.593561709

$$$$
