
 OpenBabel03232518093D

 29 31  0  0  0  0  0  0  0  0999 V2000
   47.2190   34.6940   42.7410 C   0  0  0  0  0  0  0  0  0  0  0  0
   47.7220   33.4920   43.2640 C   0  0  0  0  0  0  0  0  0  0  0  0
   46.9200   32.7880   44.1500 C   0  0  0  0  0  0  0  0  0  0  0  0
   45.6930   33.2960   44.4660 N   0  0  0  0  0  0  0  0  0  0  0  0
   45.2510   34.4580   43.9380 C   0  0  0  0  0  0  0  0  0  0  0  0
   46.0050   35.1370   43.0930 N   0  0  0  0  0  0  0  0  0  0  0  0
   48.6980   33.0770   43.0190 H   0  0  0  0  0  0  0  0  0  0  0  0
   44.2730   34.8720   44.1830 H   0  0  0  0  0  0  0  0  0  0  0  0
   48.1760   35.3460   41.8050 C   0  0  0  0  0  0  0  0  0  0  0  0
   47.9080   36.4250   41.8160 H   0  0  0  0  0  0  0  0  0  0  0  0
   48.0060   34.9570   40.7870 H   0  0  0  0  0  0  0  0  0  0  0  0
   49.5920   35.1860   42.2980 C   0  0  0  0  0  0  0  0  0  0  0  0
   50.0280   34.3120   41.7720 H   0  0  0  0  0  0  0  0  0  0  0  0
   50.2130   36.0840   42.0790 H   0  0  0  0  0  0  0  0  0  0  0  0
   49.6130   34.9720   43.3790 H   0  0  0  0  0  0  0  0  0  0  0  0
   47.4490   31.2760   44.8780 S   0  0  0  0  0  0  0  0  0  0  0  0
   46.3450   30.6960   46.1530 C   0  0  0  0  0  0  0  0  0  0  0  0
   45.7180   31.2120   47.3030 C   0  0  0  0  0  0  0  0  0  0  0  0
   44.9890   30.1530   47.8180 C   0  0  0  0  0  0  0  0  0  0  0  0
   45.1650   29.0750   47.0310 N   0  0  0  0  0  0  0  0  0  0  0  0
   45.9720   29.3910   46.0360 N   0  0  0  0  0  0  0  0  0  0  0  0
   45.9450   32.2350   47.4870 H   0  0  0  0  0  0  0  0  0  0  0  0
   44.4300   30.3570   48.7170 H   0  0  0  0  0  0  0  0  0  0  0  0
   44.5330   27.8330   47.3150 C   0  0  0  0  0  0  0  0  0  0  0  0
   43.6360   27.1290   46.3540 C   0  0  0  0  0  0  0  0  0  0  0  0
   43.1850   25.6130   47.3670 S   0  0  0  0  0  0  0  0  0  0  0  0
   44.2530   26.2150   48.8190 C   0  0  0  0  0  0  0  0  0  0  0  0
   44.3820   25.6590   49.8040 H   0  0  0  0  0  0  0  0  0  0  0  0
   44.7040   27.2010   48.4840 N   0  0  0  0  0  0  0  0  0  0  0  0
  1  6  2  0  0  0  0
  1  2  1  0  0  0  0
  2  3  2  0  0  0  0
  3  4  1  0  0  0  0
  3 16  1  0  0  0  0
  5  8  1  0  0  0  0
  5  4  2  0  0  0  0
  6  5  1  0  0  0  0
  7  2  1  0  0  0  0
  9 10  1  0  0  0  0
  9 12  1  0  0  0  0
  9  1  1  0  0  0  0
 11  9  1  0  0  0  0
 12 15  1  0  0  0  0
 13 12  1  0  0  0  0
 14 12  1  0  0  0  0
 16 17  1  0  0  0  0
 17 18  1  0  0  0  0
 18 22  1  0  0  0  0
 18 19  2  0  0  0  0
 19 23  1  0  0  0  0
 20 24  1  0  0  0  0
 20 19  1  0  0  0  0
 21 17  2  0  0  0  0
 21 20  1  0  0  0  0
 24 29  1  0  0  0  0
 25 24  2  0  0  0  0
 25 26  1  0  0  0  0
 26 27  1  0  0  0  0
 27 28  1  0  0  0  0
 29 27  2  0  0  0  0
M  END
>  <minimizedAffinity>
-4.53391886

>  <minimizedRMSD>
1.45295095

$$$$
