
 OpenBabel03232513433D

 44 47  0  0  0  0  0  0  0  0999 V2000
   48.0270   34.0840   42.1430 C   0  0  0  0  0  0  0  0  0  0  0  0
   46.1710   33.5230   45.3920 C   0  0  0  0  0  0  0  0  0  0  0  0
   45.1530   34.4270   45.2660 C   0  0  0  0  0  0  0  0  0  0  0  0
   45.0560   35.2250   44.1290 C   0  0  0  0  0  0  0  0  0  0  0  0
   45.9960   35.1140   43.1100 C   0  0  0  0  0  0  0  0  0  0  0  0
   47.0430   34.1880   43.2350 C   0  0  0  0  0  0  0  0  0  0  0  0
   47.0800   33.4380   44.3690 C   0  0  0  0  0  0  0  0  0  0  0  0
   44.3910   34.5580   46.0270 H   0  0  0  0  0  0  0  0  0  0  0  0
   44.2450   35.9390   44.0380 H   0  0  0  0  0  0  0  0  0  0  0  0
   45.8560   35.7620   42.2660 H   0  0  0  0  0  0  0  0  0  0  0  0
   47.8660   32.7060   44.5220 H   0  0  0  0  0  0  0  0  0  0  0  0
   45.5170   31.9650   48.7530 C   0  0  0  0  0  0  0  0  0  0  0  0
   45.3400   32.8170   47.6470 C   0  0  0  0  0  0  0  0  0  0  0  0
   46.2260   32.7130   46.6000 C   0  0  0  0  0  0  0  0  0  0  0  0
   47.2310   31.7870   46.6960 N   0  0  0  0  0  0  0  0  0  0  0  0
   47.3710   30.9830   47.7790 C   0  0  0  0  0  0  0  0  0  0  0  0
   46.5260   31.0740   48.7890 N   0  0  0  0  0  0  0  0  0  0  0  0
   44.7890   32.0930   49.5470 H   0  0  0  0  0  0  0  0  0  0  0  0
   44.5580   33.5500   47.5530 H   0  0  0  0  0  0  0  0  0  0  0  0
   48.2070   30.2990   47.7220 H   0  0  0  0  0  0  0  0  0  0  0  0
   48.3100   32.6450   41.7570 C   0  0  0  0  0  0  0  0  0  0  0  0
   47.3950   32.1600   41.4300 H   0  0  0  0  0  0  0  0  0  0  0  0
   48.7680   32.1320   42.6560 H   0  0  0  0  0  0  0  0  0  0  0  0
   49.1370   32.6880   41.0280 H   0  0  0  0  0  0  0  0  0  0  0  0
   49.3330   34.6600   42.7100 C   0  0  0  0  0  0  0  0  0  0  0  0
   50.1790   34.4100   42.0390 H   0  0  0  0  0  0  0  0  0  0  0  0
   49.2900   35.7500   42.8220 H   0  0  0  0  0  0  0  0  0  0  0  0
   49.4990   34.1740   43.7020 H   0  0  0  0  0  0  0  0  0  0  0  0
   47.6300   34.8320   40.9070 C   0  0  0  0  0  0  0  0  0  0  0  0
   48.4430   35.4970   40.5620 H   0  0  0  0  0  0  0  0  0  0  0  0
   46.7370   35.4310   41.1030 H   0  0  0  0  0  0  0  0  0  0  0  0
   47.4020   33.8610   39.7870 C   0  0  0  0  0  0  0  0  0  0  0  0
   48.3210   33.4270   38.8380 C   0  0  0  0  0  0  0  0  0  0  0  0
   47.7190   32.5470   37.9990 N   0  0  0  0  0  0  0  0  0  0  0  0
   46.4310   32.4230   38.4070 C   0  0  0  0  0  0  0  0  0  0  0  0
   46.2450   33.2200   39.4900 N   0  0  0  0  0  0  0  0  0  0  0  0
   49.3540   33.7600   38.8050 H   0  0  0  0  0  0  0  0  0  0  0  0
   45.6980   31.7800   37.9220 H   0  0  0  0  0  0  0  0  0  0  0  0
   44.9750   33.3280   40.1700 C   0  0  0  0  0  0  0  0  0  0  0  0
   44.6640   32.2680   40.9340 C   0  0  0  0  0  0  0  0  0  0  0  0
   43.0280   32.6670   41.6680 S   0  0  0  0  0  0  0  0  0  0  0  0
   43.0580   34.3430   40.7290 C   0  0  0  0  0  0  0  0  0  0  0  0
   42.4690   35.4040   40.4880 H   0  0  0  0  0  0  0  0  0  0  0  0
   44.0440   34.2490   40.2050 N   0  0  0  0  0  0  0  0  0  0  0  0
  1 25  1  0  0  0  0
  1  6  1  0  0  0  0
  2 14  1  0  0  0  0
  3  2  1  0  0  0  0
  3  8  1  0  0  0  0
  4  3  2  0  0  0  0
  5  6  2  0  0  0  0
  5  4  1  0  0  0  0
  6  7  1  0  0  0  0
  7 11  1  0  0  0  0
  7  2  2  0  0  0  0
  9  4  1  0  0  0  0
 10  5  1  0  0  0  0
 12 17  1  0  0  0  0
 12 18  1  0  0  0  0
 13 12  2  0  0  0  0
 14 15  2  0  0  0  0
 14 13  1  0  0  0  0
 15 16  1  0  0  0  0
 16 17  2  0  0  0  0
 19 13  1  0  0  0  0
 20 16  1  0  0  0  0
 21  1  1  0  0  0  0
 21 23  1  0  0  0  0
 22 21  1  0  0  0  0
 24 21  1  0  0  0  0
 25 27  1  0  0  0  0
 25 28  1  0  0  0  0
 26 25  1  0  0  0  0
 29 31  1  0  0  0  0
 29  1  1  0  0  0  0
 30 29  1  0  0  0  0
 32 29  1  0  0  0  0
 33 32  2  0  0  0  0
 34 35  2  0  0  0  0
 34 33  1  0  0  0  0
 35 36  1  0  0  0  0
 36 32  1  0  0  0  0
 36 39  1  0  0  0  0
 37 33  1  0  0  0  0
 38 35  1  0  0  0  0
 39 44  1  0  0  0  0
 39 40  2  0  0  0  0
 40 41  1  0  0  0  0
 42 41  1  0  0  0  0
 43 42  1  0  0  0  0
 44 42  2  0  0  0  0
M  END
>  <minimizedAffinity>
-6.05635977

>  <minimizedRMSD>
4.5634408

$$$$
