
 OpenBabel03232504253D

 22 23  0  0  0  0  0  0  0  0999 V2000
   44.5490   35.6210   44.4530 C   0  0  0  0  0  0  0  0  0  0  0  0
   44.6000   34.9630   43.2060 C   0  0  0  0  0  0  0  0  0  0  0  0
   45.0030   33.6380   43.1820 C   0  0  0  0  0  0  0  0  0  0  0  0
   45.3250   33.0430   44.3520 N   0  0  0  0  0  0  0  0  0  0  0  0
   45.2730   33.6720   45.5200 C   0  0  0  0  0  0  0  0  0  0  0  0
   44.8900   34.9420   45.5720 N   0  0  0  0  0  0  0  0  0  0  0  0
   45.6350   32.9290   46.6520 N   0  0  0  0  0  0  0  0  0  0  0  0
   46.6090   31.9850   46.6160 C   0  0  0  0  0  0  0  0  0  0  0  0
   46.7470   31.4330   47.8360 N   0  0  0  0  0  0  0  0  0  0  0  0
   45.8340   32.0670   48.6060 C   0  0  0  0  0  0  0  0  0  0  0  0
   45.1550   32.9800   47.8800 N   0  0  0  0  0  0  0  0  0  0  0  0
   45.5590   31.8570   50.0080 N   0  0  0  0  0  0  0  0  0  0  0  0
   44.2530   36.6500   44.6030 H   0  0  0  0  0  0  0  0  0  0  0  0
   45.0390   33.1410   42.2200 H   0  0  0  0  0  0  0  0  0  0  0  0
   44.5820   31.6250   50.2230 H   0  0  0  0  0  0  0  0  0  0  0  0
   46.4360   31.9820   50.5750 H   0  0  0  0  0  0  0  0  0  0  0  0
   44.2160   35.7530   42.0140 C   0  0  0  0  0  0  0  0  0  0  0  0
   44.8220   35.2300   40.8790 F   0  0  0  0  0  0  0  0  0  0  0  0
   44.6010   37.0900   42.1040 F   0  0  0  0  0  0  0  0  0  0  0  0
   42.8690   35.7100   41.7850 F   0  0  0  0  0  0  0  0  0  0  0  0
   47.4860   31.5040   45.5030 C   0  0  0  0  0  0  0  0  0  0  0  0
   47.0260   30.7100   44.8950 H   0  0  0  0  0  0  0  0  0  0  0  0
  1 13  1  0  0  0  0
  1  6  1  0  0  0  0
  2  1  2  0  0  0  0
  3  2  1  0  0  0  0
  3  4  2  0  0  0  0
  4  5  1  0  0  0  0
  5  6  2  0  0  0  0
  5  7  1  0  0  0  0
  7 11  1  0  0  0  0
  8  7  1  0  0  0  0
  8  9  2  0  0  0  0
  9 10  1  0  0  0  0
 10 12  1  0  0  0  0
 11 10  2  0  0  0  0
 12 15  1  0  0  0  0
 12 16  1  0  0  0  0
 14  3  1  0  0  0  0
 17 19  1  0  0  0  0
 17  2  1  0  0  0  0
 18 17  1  0  0  0  0
 20 17  1  0  0  0  0
 21  8  1  0  0  0  0
 22 21  1  0  0  0  0
M  END
>  <minimizedAffinity>
-5.1731782

>  <minimizedRMSD>
1.55691004

$$$$
