
 OpenBabel03232521003D

 41 44  0  0  1  0  0  0  0  0999 V2000
   45.3130   32.8870   47.5140 C   0  0  0  0  0  0  0  0  0  0  0  0
   45.8840   32.6320   46.3150 C   0  0  0  0  0  0  0  0  0  0  0  0
   46.1850   31.2930   46.0770 C   0  0  0  0  0  0  0  0  0  0  0  0
   45.9290   30.3070   46.9760 N   0  0  0  0  0  0  0  0  0  0  0  0
   45.3450   30.6310   48.1850 C   0  0  0  0  0  0  0  0  0  0  0  0
   45.0520   31.8950   48.4250 N   0  0  0  0  0  0  0  0  0  0  0  0
   45.1400   29.6100   49.1580 N   0  0  0  0  0  0  0  0  0  0  0  0
   45.0410   33.8910   47.8040 H   0  0  0  0  0  0  0  0  0  0  0  0
   44.3170   28.9680   49.1050 H   0  0  0  0  0  0  0  0  0  0  0  0
   45.7880   29.4360   49.9740 H   0  0  0  0  0  0  0  0  0  0  0  0
   46.1460   33.5850   45.2880 C   0  0  2  0  0  0  0  0  0  0  0  0
   44.9490   34.6880   45.5110 C   0  0  0  0  0  0  0  0  0  0  0  0
   44.7260   35.6170   44.4420 C   0  0  0  0  0  0  0  0  0  0  0  0
   45.5310   35.5390   43.2170 C   0  0  1  0  0  0  0  0  0  0  0  0
   46.5850   34.5360   43.1760 C   0  0  0  0  0  0  0  0  0  0  0  0
   46.1270   33.3040   43.9230 C   0  0  0  0  0  0  0  0  0  0  0  0
   46.9710   34.2860   45.6240 H   0  0  0  0  0  0  0  0  0  0  0  0
   44.2690   34.8540   46.3360 H   0  0  0  0  0  0  0  0  0  0  0  0
   43.9640   36.3470   44.5470 H   0  0  0  0  0  0  0  0  0  0  0  0
   45.9690   36.5360   43.0020 H   0  0  0  0  0  0  0  0  0  0  0  0
   46.8350   34.3160   42.0960 H   0  0  0  0  0  0  0  0  0  0  0  0
   47.5360   34.8620   43.6560 H   0  0  0  0  0  0  0  0  0  0  0  0
   46.9840   32.6530   43.6000 H   0  0  0  0  0  0  0  0  0  0  0  0
   45.1920   32.8830   43.4930 H   0  0  0  0  0  0  0  0  0  0  0  0
   44.5180   35.2800   42.0650 C   0  0  0  0  0  0  0  0  0  0  0  0
   43.4610   34.4730   42.4540 F   0  0  0  0  0  0  0  0  0  0  0  0
   43.9720   36.5170   41.7330 F   0  0  0  0  0  0  0  0  0  0  0  0
   45.1970   34.8270   40.9490 F   0  0  0  0  0  0  0  0  0  0  0  0
   46.8350   30.5980   44.9810 C   0  0  0  0  0  0  0  0  0  0  0  0
   46.5040   29.8100   43.9260 C   0  0  0  0  0  0  0  0  0  0  0  0
   47.6920   29.4470   43.2710 C   0  0  0  0  0  0  0  0  0  0  0  0
   48.6750   30.0300   43.9580 N   0  0  0  0  0  0  0  0  0  0  0  0
   48.1950   30.7150   44.9720 N   0  0  0  0  0  0  0  0  0  0  0  0
   45.4600   29.6050   43.7700 H   0  0  0  0  0  0  0  0  0  0  0  0
   47.6590   28.8170   42.4000 H   0  0  0  0  0  0  0  0  0  0  0  0
   50.0670   29.8880   43.5840 C   0  0  0  0  0  0  0  0  0  0  0  0
   51.0050   29.0640   44.2180 C   0  0  0  0  0  3  0  0  0  0  0  0
   52.5280   29.4200   43.1840 S   0  0  0  0  0  0  0  0  0  0  0  0
   51.5570   30.6300   42.0930 C   0  0  0  0  0  0  0  0  0  0  0  0
   52.0990   31.1090   41.2950 H   0  0  0  0  0  0  0  0  0  0  0  0
   50.4080   30.6280   42.5480 N   0  0  0  0  0  0  0  0  0  0  0  0
  1  8  1  0  0  0  0
  1  6  1  0  0  0  0
  2  1  2  0  0  0  0
  3  2  1  0  0  0  0
  3  4  2  0  0  0  0
  4  5  1  0  0  0  0
  5  6  2  0  0  0  0
  5  7  1  0  0  0  0
  7 10  1  0  0  0  0
  9  7  1  0  0  0  0
 11 12  1  0  0  0  0
 11 17  1  1  0  0  0
 11  2  1  0  0  0  0
 12 18  1  0  0  0  0
 13 19  1  0  0  0  0
 13 12  2  0  0  0  0
 14 20  1  6  0  0  0
 14 13  1  0  0  0  0
 15 14  1  0  0  0  0
 15 22  1  0  0  0  0
 15 16  1  0  0  0  0
 16 11  1  0  0  0  0
 21 15  1  0  0  0  0
 23 16  1  0  0  0  0
 24 16  1  0  0  0  0
 25 26  1  0  0  0  0
 25 14  1  0  0  0  0
 27 25  1  0  0  0  0
 28 25  1  0  0  0  0
 29  3  1  0  0  0  0
 30 29  1  0  0  0  0
 31 30  2  0  0  0  0
 31 32  1  0  0  0  0
 32 33  1  0  0  0  0
 33 29  2  0  0  0  0
 34 30  1  0  0  0  0
 35 31  1  0  0  0  0
 36 32  1  0  0  0  0
 36 37  2  0  0  0  0
 38 37  1  0  0  0  0
 39 41  2  0  0  0  0
 39 38  1  0  0  0  0
 40 39  1  0  0  0  0
 41 36  1  0  0  0  0
M  END
>  <minimizedAffinity>
-5.73434114

>  <minimizedRMSD>
0.200185493

$$$$
