
 OpenBabel03232517133D

 32 35  0  0  0  0  0  0  0  0999 V2000
   46.6790   34.0150   43.6730 C   0  0  0  0  0  0  0  0  0  0  0  0
   45.5420   34.6680   44.1460 C   0  0  0  0  0  0  0  0  0  0  0  0
   45.2960   34.2310   45.4440 C   0  0  0  0  0  0  0  0  0  0  0  0
   46.2770   33.3380   45.7180 N   0  0  0  0  0  0  0  0  0  0  0  0
   47.0960   33.1990   44.6910 N   0  0  0  0  0  0  0  0  0  0  0  0
   44.9130   35.4040   43.6300 H   0  0  0  0  0  0  0  0  0  0  0  0
   44.4950   34.5370   46.0950 H   0  0  0  0  0  0  0  0  0  0  0  0
   48.6670   35.3490   40.8940 C   0  0  0  0  0  0  0  0  0  0  0  0
   48.0980   34.6950   39.8000 C   0  0  0  0  0  0  0  0  0  0  0  0
   47.0400   33.8030   40.0170 C   0  0  0  0  0  0  0  0  0  0  0  0
   46.6210   33.6230   41.3030 N   0  0  0  0  0  0  0  0  0  0  0  0
   47.1880   34.2670   42.3350 C   0  0  0  0  0  0  0  0  0  0  0  0
   48.2100   35.1330   42.1590 N   0  0  0  0  0  0  0  0  0  0  0  0
   49.4840   36.0330   40.6940 H   0  0  0  0  0  0  0  0  0  0  0  0
   48.4640   34.8690   38.7920 H   0  0  0  0  0  0  0  0  0  0  0  0
   46.5650   33.2720   39.2120 H   0  0  0  0  0  0  0  0  0  0  0  0
   46.3720   32.6650   46.9560 C   0  0  0  0  0  0  0  0  0  0  0  0
   45.5400   32.4890   48.0440 C   0  0  0  0  0  0  0  0  0  0  0  0
   46.2650   31.7150   48.9220 C   0  0  0  0  0  0  0  0  0  0  0  0
   47.4990   31.4480   48.3500 C   0  0  0  0  0  0  0  0  0  0  0  0
   47.4880   32.0410   47.1920 O   0  0  0  0  0  0  0  0  0  0  0  0
   44.5710   32.9240   48.0510 H   0  0  0  0  0  0  0  0  0  0  0  0
   45.8380   31.4240   49.8760 H   0  0  0  0  0  0  0  0  0  0  0  0
   48.5160   30.6700   48.9740 N   0  0  0  0  0  0  0  0  0  0  0  0
   49.3470   30.9110   50.0380 C   0  0  0  0  0  0  0  0  0  0  0  0
   50.1360   29.8060   50.2050 C   0  0  0  0  0  0  0  0  0  0  0  0
   49.7740   28.9100   49.2440 N   0  0  0  0  0  0  0  0  0  0  0  0
   48.7810   29.4500   48.4950 C   0  0  0  0  0  0  0  0  0  0  0  0
   49.2890   31.8690   50.5770 H   0  0  0  0  0  0  0  0  0  0  0  0
   50.8850   29.7280   50.9770 H   0  0  0  0  0  0  0  0  0  0  0  0
   48.2580   28.6030   47.3890 C   0  0  0  0  0  0  0  0  0  0  0  0
   48.8360   28.7800   46.4380 H   0  0  0  0  0  0  0  0  0  0  0  0
  1  2  1  0  0  0  0
  1  5  2  0  0  0  0
  2  3  2  0  0  0  0
  3  4  1  0  0  0  0
  3  7  1  0  0  0  0
  4 17  1  0  0  0  0
  5  4  1  0  0  0  0
  6  2  1  0  0  0  0
  8 13  1  0  0  0  0
  9 10  1  0  0  0  0
  9  8  2  0  0  0  0
 10 11  2  0  0  0  0
 11 12  1  0  0  0  0
 12  1  1  0  0  0  0
 13 12  2  0  0  0  0
 14  8  1  0  0  0  0
 15  9  1  0  0  0  0
 16 10  1  0  0  0  0
 17 21  1  0  0  0  0
 17 18  2  0  0  0  0
 18 22  1  0  0  0  0
 18 19  1  0  0  0  0
 19 23  1  0  0  0  0
 20 19  2  0  0  0  0
 20 24  1  0  0  0  0
 21 20  1  0  0  0  0
 24 25  1  0  0  0  0
 25 26  2  0  0  0  0
 25 29  1  0  0  0  0
 26 30  1  0  0  0  0
 27 26  1  0  0  0  0
 28 24  1  0  0  0  0
 28 27  2  0  0  0  0
 31 28  1  0  0  0  0
 32 31  1  0  0  0  0
M  END
>  <minimizedAffinity>
-5.80079699

>  <minimizedRMSD>
0.832603335

$$$$
