
 OpenBabel03232516483D

 24 25  0  0  1  0  0  0  0  0999 V2000
   44.5110   35.3270   43.4670 C   0  0  1  0  0  0  0  0  0  0  0  0
   43.5810   35.5230   44.0480 H   0  0  0  0  0  0  0  0  0  0  0  0
   45.3590   34.4050   44.2770 C   0  0  0  0  0  0  0  0  0  0  0  0
   46.3960   33.7400   43.5680 C   0  0  0  0  0  0  0  0  0  0  0  0
   47.2350   32.8650   44.2440 C   0  0  0  0  0  0  0  0  0  0  0  0
   46.9930   32.7040   45.5900 N   0  0  0  0  0  0  0  0  0  0  0  0
   46.0120   33.3410   46.2370 C   0  0  0  0  0  0  0  0  0  0  0  0
   45.1900   34.1960   45.5790 N   0  0  0  0  0  0  0  0  0  0  0  0
   46.5440   33.9030   42.5010 H   0  0  0  0  0  0  0  0  0  0  0  0
   48.0400   32.3310   43.7600 H   0  0  0  0  0  0  0  0  0  0  0  0
   45.8450   33.1950   47.2960 H   0  0  0  0  0  0  0  0  0  0  0  0
   45.2000   36.6630   43.2240 C   0  0  0  0  0  0  0  0  0  0  0  0
   46.2340   36.4610   42.8710 H   0  0  0  0  0  0  0  0  0  0  0  0
   45.2550   37.2190   44.1780 H   0  0  0  0  0  0  0  0  0  0  0  0
   44.5930   37.1810   42.4450 H   0  0  0  0  0  0  0  0  0  0  0  0
   44.1240   34.6920   42.1560 C   0  0  0  0  0  0  0  0  0  0  0  0
   45.0750   34.4080   41.6140 H   0  0  0  0  0  0  0  0  0  0  0  0
   43.4710   33.8290   42.2850 H   0  0  0  0  0  0  0  0  0  0  0  0
   43.5620   35.7210   41.3810 O   0  0  0  0  0  0  0  0  0  0  0  0
   42.2280   35.5840   40.8830 C   0  0  0  0  0  0  0  0  0  0  0  0
   40.8920   35.7910   41.2290 C   0  0  0  0  0  0  0  0  0  0  0  0
   39.9370   35.4670   40.3180 C   0  0  0  0  0  0  0  0  0  0  0  0
   40.2390   34.9350   39.0530 C   0  0  0  0  0  0  0  0  0  0  0  0
   42.1560   34.8910   39.1790 S   0  0  0  0  0  0  0  0  0  0  0  0
  1  2  1  1  0  0  0
  1  3  1  0  0  0  0
  3  8  1  0  0  0  0
  4  5  1  0  0  0  0
  4  3  2  0  0  0  0
  5  6  2  0  0  0  0
  6  7  1  0  0  0  0
  7 11  1  0  0  0  0
  8  7  2  0  0  0  0
  9  4  1  0  0  0  0
 10  5  1  0  0  0  0
 12  1  1  0  0  0  0
 12 14  1  0  0  0  0
 13 12  1  0  0  0  0
 15 12  1  0  0  0  0
 16 18  1  0  0  0  0
 16  1  1  0  0  0  0
 17 16  1  0  0  0  0
 19 16  1  0  0  0  0
 20 21  2  0  0  0  0
 20 19  1  0  0  0  0
 22 21  1  0  0  0  0
 23 24  1  0  0  0  0
 23 22  2  0  0  0  0
 24 20  1  0  0  0  0
M  END
>  <minimizedAffinity>
-4.39364338

>  <minimizedRMSD>
1.08790922

$$$$
