
 OpenBabel03232519253D

 24 25  0  0  0  0  0  0  0  0999 V2000
   45.7240   35.0150   42.5150 C   0  0  0  0  0  0  0  0  0  0  0  0
   45.2540   34.2250   41.8590 H   0  0  0  0  0  0  0  0  0  0  0  0
   45.3740   36.0010   42.2280 H   0  0  0  0  0  0  0  0  0  0  0  0
   44.6670   35.6000   44.6410 C   0  0  0  0  0  0  0  0  0  0  0  0
   45.4710   34.7220   43.9020 C   0  0  0  0  0  0  0  0  0  0  0  0
   45.9760   33.6100   44.5650 C   0  0  0  0  0  0  0  0  0  0  0  0
   45.6670   33.4360   45.8780 N   0  0  0  0  0  0  0  0  0  0  0  0
   44.8880   34.2980   46.5670 C   0  0  0  0  0  0  0  0  0  0  0  0
   44.3900   35.3760   45.9510 N   0  0  0  0  0  0  0  0  0  0  0  0
   44.2090   36.5100   44.2390 H   0  0  0  0  0  0  0  0  0  0  0  0
   46.5960   32.9160   44.0290 H   0  0  0  0  0  0  0  0  0  0  0  0
   44.6770   34.1040   47.6100 H   0  0  0  0  0  0  0  0  0  0  0  0
   47.2140   34.8600   42.2420 C   0  0  0  0  0  0  0  0  0  0  0  0
   47.6740   35.8430   42.4730 H   0  0  0  0  0  0  0  0  0  0  0  0
   47.6870   34.1150   42.8700 H   0  0  0  0  0  0  0  0  0  0  0  0
   47.4660   34.5530   40.8310 N   0  0  0  0  0  0  0  0  0  0  0  0
   46.7020   33.6380   40.1660 C   0  0  0  0  0  0  0  0  0  0  0  0
   46.9580   33.3640   38.8290 C   0  0  0  0  0  0  0  0  0  0  0  0
   47.9920   34.0240   38.1820 C   0  0  0  0  0  0  0  0  0  0  0  0
   48.2730   33.8170   36.9700 O   0  0  0  0  0  0  0  0  0  0  0  0
   48.6970   34.9100   38.9090 N   0  0  0  0  0  0  0  0  0  0  0  0
   48.4740   35.1990   40.2080 C   0  0  0  0  0  0  0  0  0  0  0  0
   49.1860   36.0440   40.8050 O   0  0  0  0  0  0  0  0  0  0  0  0
   49.4740   35.4080   38.4280 H   0  0  0  0  0  0  0  0  0  0  0  0
  1  5  1  0  0  0  0
  2  1  1  0  0  0  0
  3  1  1  0  0  0  0
  4  9  1  0  0  0  0
  5  6  1  0  0  0  0
  5  4  2  0  0  0  0
  6  7  2  0  0  0  0
  7  8  1  0  0  0  0
  8 12  1  0  0  0  0
  9  8  2  0  0  0  0
 10  4  1  0  0  0  0
 11  6  1  0  0  0  0
 13 14  1  0  0  0  0
 13  1  1  0  0  0  0
 13 15  1  0  0  0  0
 16 13  1  0  0  0  0
 17 16  1  0  0  0  0
 18 17  2  0  0  0  0
 19 18  1  0  0  0  0
 19 21  1  0  0  0  0
 20 19  2  0  0  0  0
 21 22  1  0  0  0  0
 22 23  2  0  0  0  0
 22 16  1  0  0  0  0
 24 21  1  0  0  0  0
M  END
>  <minimizedAffinity>
-4.61683846

>  <minimizedRMSD>
2.148036

$$$$
