
 OpenBabel03232520593D

 41 44  0  0  1  0  0  0  0  0999 V2000
   45.3340   32.8920   47.5190 C   0  0  0  0  0  0  0  0  0  0  0  0
   45.8870   32.6320   46.3120 C   0  0  0  0  0  0  0  0  0  0  0  0
   46.1680   31.2890   46.0690 C   0  0  0  0  0  0  0  0  0  0  0  0
   45.9090   30.3050   46.9690 N   0  0  0  0  0  0  0  0  0  0  0  0
   45.3440   30.6340   48.1850 C   0  0  0  0  0  0  0  0  0  0  0  0
   45.0710   31.9010   48.4310 N   0  0  0  0  0  0  0  0  0  0  0  0
   45.1380   29.6130   49.1580 N   0  0  0  0  0  0  0  0  0  0  0  0
   45.0790   33.8980   47.8140 H   0  0  0  0  0  0  0  0  0  0  0  0
   44.3060   28.9820   49.1130 H   0  0  0  0  0  0  0  0  0  0  0  0
   45.7920   29.4290   49.9660 H   0  0  0  0  0  0  0  0  0  0  0  0
   46.1500   33.5830   45.2840 C   0  0  2  0  0  0  0  0  0  0  0  0
   44.9550   34.6880   45.5080 C   0  0  0  0  0  0  0  0  0  0  0  0
   44.7320   35.6160   44.4370 C   0  0  0  0  0  0  0  0  0  0  0  0
   45.5350   35.5360   43.2120 C   0  0  1  0  0  0  0  0  0  0  0  0
   46.5880   34.5310   43.1710 C   0  0  0  0  0  0  0  0  0  0  0  0
   46.1290   33.3010   43.9190 C   0  0  0  0  0  0  0  0  0  0  0  0
   46.9750   34.2830   45.6190 H   0  0  0  0  0  0  0  0  0  0  0  0
   44.2750   34.8550   46.3330 H   0  0  0  0  0  0  0  0  0  0  0  0
   43.9700   36.3470   44.5420 H   0  0  0  0  0  0  0  0  0  0  0  0
   45.9740   36.5330   42.9960 H   0  0  0  0  0  0  0  0  0  0  0  0
   46.8370   34.3100   42.0910 H   0  0  0  0  0  0  0  0  0  0  0  0
   47.5400   34.8570   43.6500 H   0  0  0  0  0  0  0  0  0  0  0  0
   46.9850   32.6490   43.5970 H   0  0  0  0  0  0  0  0  0  0  0  0
   45.1940   32.8810   43.4900 H   0  0  0  0  0  0  0  0  0  0  0  0
   44.5210   35.2770   42.0610 C   0  0  0  0  0  0  0  0  0  0  0  0
   43.4610   34.4750   42.4520 F   0  0  0  0  0  0  0  0  0  0  0  0
   43.9790   36.5150   41.7260 F   0  0  0  0  0  0  0  0  0  0  0  0
   45.1980   34.8190   40.9460 F   0  0  0  0  0  0  0  0  0  0  0  0
   46.7960   30.5880   44.9630 C   0  0  0  0  0  0  0  0  0  0  0  0
   46.4410   29.8140   43.9050 C   0  0  0  0  0  0  0  0  0  0  0  0
   47.6170   29.4310   43.2400 C   0  0  0  0  0  0  0  0  0  0  0  0
   48.6170   29.9880   43.9240 N   0  0  0  0  0  0  0  0  0  0  0  0
   48.1580   30.6760   44.9460 N   0  0  0  0  0  0  0  0  0  0  0  0
   45.3920   29.6320   43.7550 H   0  0  0  0  0  0  0  0  0  0  0  0
   47.5650   28.8070   42.3650 H   0  0  0  0  0  0  0  0  0  0  0  0
   50.0020   29.8190   43.5400 C   0  0  0  0  0  0  0  0  0  0  0  0
   50.5470   30.1220   42.2850 C   0  0  0  0  0  3  0  0  0  0  0  0
   52.3380   29.6440   42.5630 S   0  0  0  0  0  0  0  0  0  0  0  0
   51.9670   29.1280   44.3500 C   0  0  0  0  0  0  0  0  0  0  0  0
   52.7930   28.7560   44.9320 H   0  0  0  0  0  0  0  0  0  0  0  0
   50.7580   29.3350   44.5040 N   0  0  0  0  0  0  0  0  0  0  0  0
  1  8  1  0  0  0  0
  1  6  1  0  0  0  0
  2  1  2  0  0  0  0
  3  2  1  0  0  0  0
  3  4  2  0  0  0  0
  4  5  1  0  0  0  0
  5  6  2  0  0  0  0
  5  7  1  0  0  0  0
  7 10  1  0  0  0  0
  9  7  1  0  0  0  0
 11 12  1  0  0  0  0
 11 17  1  1  0  0  0
 11  2  1  0  0  0  0
 12 18  1  0  0  0  0
 13 19  1  0  0  0  0
 13 12  2  0  0  0  0
 14 20  1  6  0  0  0
 14 13  1  0  0  0  0
 15 14  1  0  0  0  0
 15 22  1  0  0  0  0
 15 16  1  0  0  0  0
 16 11  1  0  0  0  0
 21 15  1  0  0  0  0
 23 16  1  0  0  0  0
 24 16  1  0  0  0  0
 25 26  1  0  0  0  0
 25 14  1  0  0  0  0
 27 25  1  0  0  0  0
 28 25  1  0  0  0  0
 29  3  1  0  0  0  0
 30 29  1  0  0  0  0
 31 30  2  0  0  0  0
 31 32  1  0  0  0  0
 32 33  1  0  0  0  0
 33 29  2  0  0  0  0
 34 30  1  0  0  0  0
 35 31  1  0  0  0  0
 36 32  1  0  0  0  0
 36 41  1  0  0  0  0
 37 38  1  0  0  0  0
 37 36  2  0  0  0  0
 38 39  1  0  0  0  0
 39 41  2  0  0  0  0
 39 40  1  0  0  0  0
M  END
>  <minimizedAffinity>
-5.70852423

>  <minimizedRMSD>
0.382770717

$$$$
