
 OpenBabel03232521003D

 41 44  0  0  1  0  0  0  0  0999 V2000
   45.3540   32.8840   47.5010 C   0  0  0  0  0  0  0  0  0  0  0  0
   45.9200   32.6370   46.2910 C   0  0  0  0  0  0  0  0  0  0  0  0
   46.2000   31.2920   46.0420 C   0  0  0  0  0  0  0  0  0  0  0  0
   45.9380   30.2920   46.9210 N   0  0  0  0  0  0  0  0  0  0  0  0
   45.3600   30.5940   48.1440 C   0  0  0  0  0  0  0  0  0  0  0  0
   45.0850   31.8680   48.4010 N   0  0  0  0  0  0  0  0  0  0  0  0
   45.0850   29.5760   49.0900 N   0  0  0  0  0  0  0  0  0  0  0  0
   45.1010   33.8890   47.7970 H   0  0  0  0  0  0  0  0  0  0  0  0
   44.5380   28.8170   48.5880 H   0  0  0  0  0  0  0  0  0  0  0  0
   45.4860   29.8360   50.0270 H   0  0  0  0  0  0  0  0  0  0  0  0
   46.1670   33.5970   45.2680 C   0  0  2  0  0  0  0  0  0  0  0  0
   44.9500   34.6820   45.5020 C   0  0  0  0  0  0  0  0  0  0  0  0
   44.7170   35.6160   44.4370 C   0  0  0  0  0  0  0  0  0  0  0  0
   45.5200   35.5570   43.2140 C   0  0  1  0  0  0  0  0  0  0  0  0
   46.5840   34.5570   43.1590 C   0  0  0  0  0  0  0  0  0  0  0  0
   46.1410   33.3190   43.9030 C   0  0  0  0  0  0  0  0  0  0  0  0
   46.9780   34.3110   45.6060 H   0  0  0  0  0  0  0  0  0  0  0  0
   44.2690   34.8260   46.3310 H   0  0  0  0  0  0  0  0  0  0  0  0
   43.9470   36.3320   44.5470 H   0  0  0  0  0  0  0  0  0  0  0  0
   45.9320   36.5720   43.0380 H   0  0  0  0  0  0  0  0  0  0  0  0
   47.5850   34.8910   43.5200 H   0  0  0  0  0  0  0  0  0  0  0  0
   46.7650   34.3230   42.0680 H   0  0  0  0  0  0  0  0  0  0  0  0
   46.9970   32.6730   43.5720 H   0  0  0  0  0  0  0  0  0  0  0  0
   45.1860   32.9830   43.4470 H   0  0  0  0  0  0  0  0  0  0  0  0
   44.5120   35.2920   42.0580 C   0  0  0  0  0  0  0  0  0  0  0  0
   43.4490   34.4940   42.4490 F   0  0  0  0  0  0  0  0  0  0  0  0
   43.9680   36.5290   41.7220 F   0  0  0  0  0  0  0  0  0  0  0  0
   45.1880   34.8290   40.9450 F   0  0  0  0  0  0  0  0  0  0  0  0
   46.8530   30.6100   44.9390 C   0  0  0  0  0  0  0  0  0  0  0  0
   46.5220   29.8440   43.8670 C   0  0  0  0  0  0  0  0  0  0  0  0
   47.7000   29.4700   43.2130 C   0  0  0  0  0  0  0  0  0  0  0  0
   48.6880   30.0270   43.9170 N   0  0  0  0  0  0  0  0  0  0  0  0
   48.2130   30.7030   44.9370 N   0  0  0  0  0  0  0  0  0  0  0  0
   45.4750   29.6550   43.6980 H   0  0  0  0  0  0  0  0  0  0  0  0
   47.6620   28.8630   42.3410 H   0  0  0  0  0  0  0  0  0  0  0  0
   50.0240   29.7940   43.4490 C   0  0  0  0  0  0  0  0  0  0  0  0
   50.8570   30.6820   42.8280 C   0  0  0  0  0  3  0  0  0  0  0  0
   52.0370   29.9800   42.5730 C   0  0  0  0  0  3  0  0  0  0  0  0
   51.8370   28.6960   43.0660 C   0  0  0  0  0  0  0  0  0  0  0  0
   52.6800   28.0300   42.9370 H   0  0  0  0  0  0  0  0  0  0  0  0
   50.6280   28.6160   43.5810 O   0  0  0  0  0  0  0  0  0  0  0  0
  1  8  1  0  0  0  0
  1  6  1  0  0  0  0
  2  1  2  0  0  0  0
  3  2  1  0  0  0  0
  3  4  2  0  0  0  0
  4  5  1  0  0  0  0
  5  6  2  0  0  0  0
  5  7  1  0  0  0  0
  7 10  1  0  0  0  0
  9  7  1  0  0  0  0
 11 12  1  0  0  0  0
 11 17  1  1  0  0  0
 11  2  1  0  0  0  0
 12 18  1  0  0  0  0
 13 19  1  0  0  0  0
 13 12  2  0  0  0  0
 14 20  1  6  0  0  0
 14 13  1  0  0  0  0
 15 14  1  0  0  0  0
 15 21  1  0  0  0  0
 15 16  1  0  0  0  0
 16 11  1  0  0  0  0
 22 15  1  0  0  0  0
 23 16  1  0  0  0  0
 24 16  1  0  0  0  0
 25 26  1  0  0  0  0
 25 14  1  0  0  0  0
 27 25  1  0  0  0  0
 28 25  1  0  0  0  0
 29  3  1  0  0  0  0
 30 29  1  0  0  0  0
 31 30  2  0  0  0  0
 31 32  1  0  0  0  0
 32 33  1  0  0  0  0
 33 29  2  0  0  0  0
 34 30  1  0  0  0  0
 35 31  1  0  0  0  0
 36 41  1  0  0  0  0
 36 32  1  0  0  0  0
 37 36  2  0  0  0  0
 38 37  1  0  0  0  0
 38 39  2  0  0  0  0
 39 41  1  0  0  0  0
 40 39  1  0  0  0  0
M  END
>  <minimizedAffinity>
-5.72534466

>  <minimizedRMSD>
0.197162986

$$$$
