
 OpenBabel03232520593D

 41 44  0  0  1  0  0  0  0  0999 V2000
   45.3120   32.9000   47.5010 C   0  0  0  0  0  0  0  0  0  0  0  0
   45.9050   32.6500   46.3040 C   0  0  0  0  0  0  0  0  0  0  0  0
   46.2130   31.3070   46.0770 C   0  0  0  0  0  0  0  0  0  0  0  0
   45.9510   30.3130   46.9630 N   0  0  0  0  0  0  0  0  0  0  0  0
   45.3450   30.6180   48.1710 C   0  0  0  0  0  0  0  0  0  0  0  0
   45.0430   31.8900   48.4080 N   0  0  0  0  0  0  0  0  0  0  0  0
   45.0690   29.6070   49.1230 N   0  0  0  0  0  0  0  0  0  0  0  0
   45.0360   33.9050   47.7800 H   0  0  0  0  0  0  0  0  0  0  0  0
   44.5450   28.8320   48.6200 H   0  0  0  0  0  0  0  0  0  0  0  0
   45.4470   29.8840   50.0640 H   0  0  0  0  0  0  0  0  0  0  0  0
   46.1560   33.6030   45.2750 C   0  0  2  0  0  0  0  0  0  0  0  0
   44.9440   34.6950   45.5050 C   0  0  0  0  0  0  0  0  0  0  0  0
   44.7140   35.6230   44.4340 C   0  0  0  0  0  0  0  0  0  0  0  0
   45.5150   35.5530   43.2110 C   0  0  1  0  0  0  0  0  0  0  0  0
   46.5740   34.5470   43.1600 C   0  0  0  0  0  0  0  0  0  0  0  0
   46.1250   33.3160   43.9120 C   0  0  0  0  0  0  0  0  0  0  0  0
   46.9710   34.3140   45.6080 H   0  0  0  0  0  0  0  0  0  0  0  0
   44.2650   34.8470   46.3340 H   0  0  0  0  0  0  0  0  0  0  0  0
   43.9470   36.3440   44.5410 H   0  0  0  0  0  0  0  0  0  0  0  0
   45.9310   36.5650   43.0270 H   0  0  0  0  0  0  0  0  0  0  0  0
   47.5770   34.8790   43.5180 H   0  0  0  0  0  0  0  0  0  0  0  0
   46.7510   34.3060   42.0700 H   0  0  0  0  0  0  0  0  0  0  0  0
   46.9780   32.6640   43.5840 H   0  0  0  0  0  0  0  0  0  0  0  0
   45.1680   32.9820   43.4600 H   0  0  0  0  0  0  0  0  0  0  0  0
   44.5040   35.2860   42.0580 C   0  0  0  0  0  0  0  0  0  0  0  0
   43.4430   34.4860   42.4530 F   0  0  0  0  0  0  0  0  0  0  0  0
   43.9560   36.5220   41.7230 F   0  0  0  0  0  0  0  0  0  0  0  0
   45.1770   34.8240   40.9430 F   0  0  0  0  0  0  0  0  0  0  0  0
   46.8980   30.6240   44.9940 C   0  0  0  0  0  0  0  0  0  0  0  0
   46.6040   29.8190   43.9410 C   0  0  0  0  0  0  0  0  0  0  0  0
   47.8000   29.4760   43.3020 C   0  0  0  0  0  0  0  0  0  0  0  0
   48.7610   30.0890   43.9960 N   0  0  0  0  0  0  0  0  0  0  0  0
   48.2540   30.7710   44.9960 N   0  0  0  0  0  0  0  0  0  0  0  0
   45.5670   29.5840   43.7710 H   0  0  0  0  0  0  0  0  0  0  0  0
   47.7900   28.8460   42.4450 H   0  0  0  0  0  0  0  0  0  0  0  0
   50.1070   29.8970   43.5400 C   0  0  0  0  0  0  0  0  0  0  0  0
   50.5710   29.9620   42.2570 C   0  0  0  0  0  3  0  0  0  0  0  0
   51.9420   29.7050   42.3350 C   0  0  0  0  0  3  0  0  0  0  0  0
   52.2200   29.5000   43.6810 C   0  0  0  0  0  0  0  0  0  0  0  0
   53.2580   29.2870   43.8960 H   0  0  0  0  0  0  0  0  0  0  0  0
   51.1070   29.6210   44.3740 O   0  0  0  0  0  0  0  0  0  0  0  0
  1  8  1  0  0  0  0
  1  6  1  0  0  0  0
  2  1  2  0  0  0  0
  3  2  1  0  0  0  0
  3  4  2  0  0  0  0
  4  5  1  0  0  0  0
  5  6  2  0  0  0  0
  5  7  1  0  0  0  0
  7 10  1  0  0  0  0
  9  7  1  0  0  0  0
 11 12  1  0  0  0  0
 11 17  1  1  0  0  0
 11  2  1  0  0  0  0
 12 18  1  0  0  0  0
 13 19  1  0  0  0  0
 13 12  2  0  0  0  0
 14 20  1  6  0  0  0
 14 13  1  0  0  0  0
 15 14  1  0  0  0  0
 15 21  1  0  0  0  0
 15 16  1  0  0  0  0
 16 11  1  0  0  0  0
 22 15  1  0  0  0  0
 23 16  1  0  0  0  0
 24 16  1  0  0  0  0
 25 26  1  0  0  0  0
 25 14  1  0  0  0  0
 27 25  1  0  0  0  0
 28 25  1  0  0  0  0
 29 33  2  0  0  0  0
 29  3  1  0  0  0  0
 30 29  1  0  0  0  0
 31 30  2  0  0  0  0
 31 32  1  0  0  0  0
 32 33  1  0  0  0  0
 34 30  1  0  0  0  0
 35 31  1  0  0  0  0
 36 32  1  0  0  0  0
 36 41  1  0  0  0  0
 37 38  1  0  0  0  0
 37 36  2  0  0  0  0
 38 39  2  0  0  0  0
 39 40  1  0  0  0  0
 39 41  1  0  0  0  0
M  END
>  <minimizedAffinity>
-5.6842556

>  <minimizedRMSD>
0.278723747

$$$$
