
 OpenBabel03232517153D

 40 44  0  0  1  0  0  0  0  0999 V2000
   46.3870   32.6600   46.9500 C   0  0  0  0  0  0  0  0  0  0  0  0
   45.5540   32.4980   48.0430 C   0  0  0  0  0  0  0  0  0  0  0  0
   46.2700   31.7100   48.9190 C   0  0  0  0  0  0  0  0  0  0  0  0
   47.4940   31.4300   48.3290 C   0  0  0  0  0  0  0  0  0  0  0  0
   47.4870   32.0220   47.1760 O   0  0  0  0  0  0  0  0  0  0  0  0
   44.5880   32.9450   48.0680 H   0  0  0  0  0  0  0  0  0  0  0  0
   45.8790   31.4060   49.8800 H   0  0  0  0  0  0  0  0  0  0  0  0
   46.6780   34.0190   43.6690 C   0  0  0  0  0  0  0  0  0  0  0  0
   45.5450   34.6720   44.1500 C   0  0  0  0  0  0  0  0  0  0  0  0
   45.2950   34.2370   45.4550 C   0  0  0  0  0  0  0  0  0  0  0  0
   46.2790   33.3390   45.7210 N   0  0  0  0  0  0  0  0  0  0  0  0
   47.0970   33.1980   44.6880 N   0  0  0  0  0  0  0  0  0  0  0  0
   44.9260   35.4050   43.6340 H   0  0  0  0  0  0  0  0  0  0  0  0
   44.4850   34.5710   46.0780 H   0  0  0  0  0  0  0  0  0  0  0  0
   48.6670   35.3570   40.8980 C   0  0  0  0  0  0  0  0  0  0  0  0
   48.1000   34.7140   39.8030 C   0  0  0  0  0  0  0  0  0  0  0  0
   47.0340   33.8220   40.0250 C   0  0  0  0  0  0  0  0  0  0  0  0
   46.5930   33.6170   41.3080 N   0  0  0  0  0  0  0  0  0  0  0  0
   47.1870   34.2720   42.3220 C   0  0  0  0  0  0  0  0  0  0  0  0
   48.2070   35.1330   42.1510 N   0  0  0  0  0  0  0  0  0  0  0  0
   49.4850   36.0500   40.7830 H   0  0  0  0  0  0  0  0  0  0  0  0
   48.4710   34.8990   38.8220 H   0  0  0  0  0  0  0  0  0  0  0  0
   46.6040   33.3310   39.1800 H   0  0  0  0  0  0  0  0  0  0  0  0
   48.5140   30.6300   48.9480 N   0  0  0  0  0  0  0  0  0  0  0  0
   49.3380   30.8570   50.0110 C   0  0  0  0  0  0  0  0  0  0  0  0
   50.1190   29.7190   50.1550 C   0  0  0  0  0  0  0  0  0  0  0  0
   49.7400   28.8530   49.1810 N   0  0  0  0  0  0  0  0  0  0  0  0
   48.7620   29.4190   48.4520 C   0  0  0  0  0  0  0  0  0  0  0  0
   49.2950   31.7800   50.5510 H   0  0  0  0  0  0  0  0  0  0  0  0
   50.8650   29.6070   50.9140 H   0  0  0  0  0  0  0  0  0  0  0  0
   48.1420   28.6920   47.2840 C   0  0  1  0  0  0  0  0  0  0  0  0
   47.7810   27.2080   47.5370 C   0  0  0  0  0  0  0  0  0  0  0  0
   46.7280   28.2760   47.3800 C   0  0  2  0  0  0  0  0  0  0  0  0
   48.4650   28.9860   46.2740 H   0  0  0  0  0  0  0  0  0  0  0  0
   48.0090   26.5290   46.7160 H   0  0  0  0  0  0  0  0  0  0  0  0
   47.9780   26.8210   48.5570 H   0  0  0  0  0  0  0  0  0  0  0  0
   46.2210   28.5730   48.3240 H   0  0  0  0  0  0  0  0  0  0  0  0
   45.8370   28.1780   46.1810 C   0  0  0  0  0  0  0  0  0  0  0  0
   44.6020   29.0720   46.3160 C   0  0  0  0  0  0  0  0  0  0  0  0
   43.9980   28.8020   47.1890 H   0  0  0  0  0  0  0  0  0  0  0  0
  1  5  1  0  0  0  0
  1  2  2  0  0  0  0
  2  6  1  0  0  0  0
  2  3  1  0  0  0  0
  3  7  1  0  0  0  0
  4  3  2  0  0  0  0
  4 24  1  0  0  0  0
  5  4  1  0  0  0  0
  8  9  1  0  0  0  0
  8 12  2  0  0  0  0
  9 10  2  0  0  0  0
 10 11  1  0  0  0  0
 10 14  1  0  0  0  0
 11  1  1  0  0  0  0
 12 11  1  0  0  0  0
 13  9  1  0  0  0  0
 15 20  1  0  0  0  0
 16 17  1  0  0  0  0
 16 15  2  0  0  0  0
 17 18  2  0  0  0  0
 18 19  1  0  0  0  0
 19  8  1  0  0  0  0
 20 19  2  0  0  0  0
 21 15  1  0  0  0  0
 22 16  1  0  0  0  0
 23 17  1  0  0  0  0
 24 25  1  0  0  0  0
 25 26  2  0  0  0  0
 25 29  1  0  0  0  0
 26 30  1  0  0  0  0
 27 26  1  0  0  0  0
 28 24  1  0  0  0  0
 28 27  2  0  0  0  0
 31 34  1  6  0  0  0
 31 33  1  0  0  0  0
 31 32  1  0  0  0  0
 31 28  1  0  0  0  0
 32 36  1  0  0  0  0
 33 32  1  0  0  0  0
 33 37  1  1  0  0  0
 35 32  1  0  0  0  0
 38 39  1  0  0  0  0
 38 33  1  0  0  0  0
 39 40  1  0  0  0  0
M  END
>  <minimizedAffinity>
-5.86984253

>  <minimizedRMSD>
0.178045496

$$$$
