
 OpenBabel03232521003D

 41 44  0  0  1  0  0  0  0  0999 V2000
   45.3420   32.9110   47.4490 C   0  0  0  0  0  0  0  0  0  0  0  0
   45.9230   32.6710   46.2450 C   0  0  0  0  0  0  0  0  0  0  0  0
   46.2370   31.3300   46.0080 C   0  0  0  0  0  0  0  0  0  0  0  0
   45.9910   30.3300   46.8920 N   0  0  0  0  0  0  0  0  0  0  0  0
   45.3970   30.6270   48.1090 C   0  0  0  0  0  0  0  0  0  0  0  0
   45.0900   31.8950   48.3550 N   0  0  0  0  0  0  0  0  0  0  0  0
   45.1380   29.6090   49.0590 N   0  0  0  0  0  0  0  0  0  0  0  0
   45.0630   33.9130   47.7370 H   0  0  0  0  0  0  0  0  0  0  0  0
   44.6130   28.8340   48.5580 H   0  0  0  0  0  0  0  0  0  0  0  0
   45.5260   29.8840   49.9970 H   0  0  0  0  0  0  0  0  0  0  0  0
   46.1550   33.6290   45.2180 C   0  0  2  0  0  0  0  0  0  0  0  0
   44.9420   34.7140   45.4680 C   0  0  0  0  0  0  0  0  0  0  0  0
   44.6940   35.6470   44.4050 C   0  0  0  0  0  0  0  0  0  0  0  0
   45.4790   35.5870   43.1710 C   0  0  1  0  0  0  0  0  0  0  0  0
   46.5420   34.5860   43.1020 C   0  0  0  0  0  0  0  0  0  0  0  0
   46.1090   33.3490   43.8540 C   0  0  0  0  0  0  0  0  0  0  0  0
   46.9710   34.3430   45.5440 H   0  0  0  0  0  0  0  0  0  0  0  0
   44.2730   34.8590   46.3070 H   0  0  0  0  0  0  0  0  0  0  0  0
   43.9250   36.3630   44.5250 H   0  0  0  0  0  0  0  0  0  0  0  0
   45.8880   36.6020   42.9880 H   0  0  0  0  0  0  0  0  0  0  0  0
   47.5480   34.9210   43.4480 H   0  0  0  0  0  0  0  0  0  0  0  0
   46.7060   34.3510   42.0080 H   0  0  0  0  0  0  0  0  0  0  0  0
   46.9610   32.7030   43.5110 H   0  0  0  0  0  0  0  0  0  0  0  0
   45.1470   33.0120   43.4120 H   0  0  0  0  0  0  0  0  0  0  0  0
   44.4540   35.3200   42.0300 C   0  0  0  0  0  0  0  0  0  0  0  0
   43.3900   34.5330   42.4410 F   0  0  0  0  0  0  0  0  0  0  0  0
   43.9150   36.5590   41.6910 F   0  0  0  0  0  0  0  0  0  0  0  0
   45.1120   34.8430   40.9120 F   0  0  0  0  0  0  0  0  0  0  0  0
   46.9130   30.6570   44.9140 C   0  0  0  0  0  0  0  0  0  0  0  0
   46.6150   29.8360   43.8750 C   0  0  0  0  0  0  0  0  0  0  0  0
   47.8040   29.5190   43.2090 C   0  0  0  0  0  0  0  0  0  0  0  0
   48.7650   30.1620   43.8750 N   0  0  0  0  0  0  0  0  0  0  0  0
   48.2640   30.8390   44.8830 N   0  0  0  0  0  0  0  0  0  0  0  0
   45.5810   29.5720   43.7320 H   0  0  0  0  0  0  0  0  0  0  0  0
   47.7900   28.8820   42.3580 H   0  0  0  0  0  0  0  0  0  0  0  0
   50.1050   30.0020   43.3890 C   0  0  0  0  0  0  0  0  0  0  0  0
   51.1940   29.5500   44.0790 C   0  0  0  0  0  3  0  0  0  0  0  0
   52.2560   29.5780   43.1740 C   0  0  0  0  0  3  0  0  0  0  0  0
   51.7320   30.0510   41.9780 C   0  0  0  0  0  0  0  0  0  0  0  0
   52.4480   30.1270   41.1720 H   0  0  0  0  0  0  0  0  0  0  0  0
   50.4480   30.2950   42.1370 O   0  0  0  0  0  0  0  0  0  0  0  0
  1  8  1  0  0  0  0
  1  6  1  0  0  0  0
  2  1  2  0  0  0  0
  3  2  1  0  0  0  0
  3  4  2  0  0  0  0
  4  5  1  0  0  0  0
  5  6  2  0  0  0  0
  5  7  1  0  0  0  0
  7 10  1  0  0  0  0
  9  7  1  0  0  0  0
 11 12  1  0  0  0  0
 11 17  1  1  0  0  0
 11  2  1  0  0  0  0
 12 18  1  0  0  0  0
 13 19  1  0  0  0  0
 13 12  2  0  0  0  0
 14 20  1  6  0  0  0
 14 13  1  0  0  0  0
 15 14  1  0  0  0  0
 15 21  1  0  0  0  0
 15 16  1  0  0  0  0
 16 11  1  0  0  0  0
 22 15  1  0  0  0  0
 23 16  1  0  0  0  0
 24 16  1  0  0  0  0
 25 26  1  0  0  0  0
 25 14  1  0  0  0  0
 27 25  1  0  0  0  0
 28 25  1  0  0  0  0
 29  3  1  0  0  0  0
 30 29  1  0  0  0  0
 31 32  1  0  0  0  0
 31 30  2  0  0  0  0
 32 33  1  0  0  0  0
 33 29  2  0  0  0  0
 34 30  1  0  0  0  0
 35 31  1  0  0  0  0
 36 32  1  0  0  0  0
 36 37  2  0  0  0  0
 38 37  1  0  0  0  0
 39 41  1  0  0  0  0
 39 38  2  0  0  0  0
 40 39  1  0  0  0  0
 41 36  1  0  0  0  0
M  END
>  <minimizedAffinity>
-5.70068693

>  <minimizedRMSD>
0.386749357

$$$$
