
 OpenBabel03232520373D

 13 13  0  0  0  0  0  0  0  0999 V2000
   44.5810   35.3900   44.4830 C   0  0  0  0  0  0  0  0  0  0  0  0
   44.5730   34.7360   43.2370 C   0  0  0  0  0  0  0  0  0  0  0  0
   45.1410   33.4710   43.1320 C   0  0  0  0  0  0  0  0  0  0  0  0
   45.6930   32.9090   44.2700 N   0  0  0  0  0  0  0  0  0  0  0  0
   45.6730   33.5800   45.4410 C   0  0  0  0  0  0  0  0  0  0  0  0
   45.1350   34.7880   45.5560 N   0  0  0  0  0  0  0  0  0  0  0  0
   44.1250   36.3770   44.5110 H   0  0  0  0  0  0  0  0  0  0  0  0
   45.1600   32.9340   42.2110 H   0  0  0  0  0  0  0  0  0  0  0  0
   43.8430   35.5040   41.7750 S   0  0  0  0  0  0  0  0  0  0  0  0
   42.6400   34.7850   41.5040 H   0  0  0  0  0  0  0  0  0  0  0  0
   46.2720   32.9680   46.6680 C   0  0  0  0  0  0  0  0  0  0  0  0
   45.2320   32.7070   47.7330 C   0  0  0  0  0  0  0  0  0  0  0  0
   45.7920   32.3040   48.6040 H   0  0  0  0  0  0  0  0  0  0  0  0
  1  7  1  0  0  0  0
  1  6  1  0  0  0  0
  2  1  2  0  0  0  0
  3  2  1  0  0  0  0
  3  4  2  0  0  0  0
  4  5  1  0  0  0  0
  5  6  2  0  0  0  0
  5 11  1  0  0  0  0
  8  3  1  0  0  0  0
  9  2  1  0  0  0  0
 10  9  1  0  0  0  0
 11 12  1  0  0  0  0
 12 13  1  0  0  0  0
M  END
>  <minimizedAffinity>
-2.97310901

>  <minimizedRMSD>
0.829729855

$$$$
