
 OpenBabel03232521003D

 41 44  0  0  1  0  0  0  0  0999 V2000
   45.3130   32.8980   47.5050 C   0  0  0  0  0  0  0  0  0  0  0  0
   45.9060   32.6460   46.3100 C   0  0  0  0  0  0  0  0  0  0  0  0
   46.2140   31.3020   46.0830 C   0  0  0  0  0  0  0  0  0  0  0  0
   45.9500   30.3090   46.9700 N   0  0  0  0  0  0  0  0  0  0  0  0
   45.3430   30.6160   48.1770 C   0  0  0  0  0  0  0  0  0  0  0  0
   45.0420   31.8880   48.4130 N   0  0  0  0  0  0  0  0  0  0  0  0
   45.0650   29.6060   49.1300 N   0  0  0  0  0  0  0  0  0  0  0  0
   45.0370   33.9030   47.7840 H   0  0  0  0  0  0  0  0  0  0  0  0
   44.5410   28.8310   48.6260 H   0  0  0  0  0  0  0  0  0  0  0  0
   45.4430   29.8830   50.0710 H   0  0  0  0  0  0  0  0  0  0  0  0
   46.1590   33.5980   45.2800 C   0  0  2  0  0  0  0  0  0  0  0  0
   44.9470   34.6900   45.5070 C   0  0  0  0  0  0  0  0  0  0  0  0
   44.7190   35.6180   44.4350 C   0  0  0  0  0  0  0  0  0  0  0  0
   45.5220   35.5470   43.2130 C   0  0  1  0  0  0  0  0  0  0  0  0
   46.5800   34.5410   43.1640 C   0  0  0  0  0  0  0  0  0  0  0  0
   46.1300   33.3090   43.9170 C   0  0  0  0  0  0  0  0  0  0  0  0
   46.9740   34.3090   45.6140 H   0  0  0  0  0  0  0  0  0  0  0  0
   44.2670   34.8430   46.3350 H   0  0  0  0  0  0  0  0  0  0  0  0
   43.9520   36.3390   44.5400 H   0  0  0  0  0  0  0  0  0  0  0  0
   45.9380   36.5580   43.0290 H   0  0  0  0  0  0  0  0  0  0  0  0
   47.5830   34.8720   43.5230 H   0  0  0  0  0  0  0  0  0  0  0  0
   46.7590   34.2980   42.0750 H   0  0  0  0  0  0  0  0  0  0  0  0
   46.9830   32.6570   43.5910 H   0  0  0  0  0  0  0  0  0  0  0  0
   45.1730   32.9750   43.4640 H   0  0  0  0  0  0  0  0  0  0  0  0
   44.5120   35.2790   42.0590 C   0  0  0  0  0  0  0  0  0  0  0  0
   43.4530   34.4750   42.4520 F   0  0  0  0  0  0  0  0  0  0  0  0
   43.9620   36.5140   41.7260 F   0  0  0  0  0  0  0  0  0  0  0  0
   45.1870   34.8200   40.9440 F   0  0  0  0  0  0  0  0  0  0  0  0
   46.8990   30.6180   45.0020 C   0  0  0  0  0  0  0  0  0  0  0  0
   46.6040   29.8200   43.9440 C   0  0  0  0  0  0  0  0  0  0  0  0
   47.8010   29.4690   43.3090 C   0  0  0  0  0  0  0  0  0  0  0  0
   48.7630   30.0710   44.0120 N   0  0  0  0  0  0  0  0  0  0  0  0
   48.2560   30.7530   45.0120 N   0  0  0  0  0  0  0  0  0  0  0  0
   45.5660   29.5950   43.7670 H   0  0  0  0  0  0  0  0  0  0  0  0
   47.7900   28.8430   42.4510 H   0  0  0  0  0  0  0  0  0  0  0  0
   50.1100   29.8700   43.5630 C   0  0  0  0  0  0  0  0  0  0  0  0
   51.1560   29.3490   44.2720 C   0  0  0  0  0  3  0  0  0  0  0  0
   52.2480   29.3610   43.4020 C   0  0  0  0  0  3  0  0  0  0  0  0
   51.7830   29.8950   42.2070 C   0  0  0  0  0  0  0  0  0  0  0  0
   52.5300   29.9670   41.4280 H   0  0  0  0  0  0  0  0  0  0  0  0
   50.5060   30.1890   42.3330 O   0  0  0  0  0  0  0  0  0  0  0  0
  1  8  1  0  0  0  0
  1  6  1  0  0  0  0
  2  1  2  0  0  0  0
  3  2  1  0  0  0  0
  3  4  2  0  0  0  0
  4  5  1  0  0  0  0
  5  6  2  0  0  0  0
  5  7  1  0  0  0  0
  7 10  1  0  0  0  0
  9  7  1  0  0  0  0
 11 12  1  0  0  0  0
 11 17  1  1  0  0  0
 11  2  1  0  0  0  0
 12 18  1  0  0  0  0
 13 19  1  0  0  0  0
 13 12  2  0  0  0  0
 14 20  1  6  0  0  0
 14 13  1  0  0  0  0
 15 14  1  0  0  0  0
 15 21  1  0  0  0  0
 15 16  1  0  0  0  0
 16 11  1  0  0  0  0
 22 15  1  0  0  0  0
 23 16  1  0  0  0  0
 24 16  1  0  0  0  0
 25 26  1  0  0  0  0
 25 14  1  0  0  0  0
 27 25  1  0  0  0  0
 28 25  1  0  0  0  0
 29 33  2  0  0  0  0
 29  3  1  0  0  0  0
 30 29  1  0  0  0  0
 31 30  2  0  0  0  0
 31 32  1  0  0  0  0
 32 33  1  0  0  0  0
 34 30  1  0  0  0  0
 35 31  1  0  0  0  0
 36 32  1  0  0  0  0
 36 37  2  0  0  0  0
 38 37  1  0  0  0  0
 39 41  1  0  0  0  0
 39 38  2  0  0  0  0
 40 39  1  0  0  0  0
 41 36  1  0  0  0  0
M  END
>  <minimizedAffinity>
-5.69400311

>  <minimizedRMSD>
0.418866068

$$$$
