
 OpenBabel03232521003D

 41 44  0  0  1  0  0  0  0  0999 V2000
   45.2990   32.9050   47.5030 C   0  0  0  0  0  0  0  0  0  0  0  0
   45.9000   32.6510   46.3110 C   0  0  0  0  0  0  0  0  0  0  0  0
   46.2140   31.3080   46.0920 C   0  0  0  0  0  0  0  0  0  0  0  0
   45.9500   30.3170   46.9810 N   0  0  0  0  0  0  0  0  0  0  0  0
   45.3350   30.6270   48.1840 C   0  0  0  0  0  0  0  0  0  0  0  0
   45.0280   31.8990   48.4130 N   0  0  0  0  0  0  0  0  0  0  0  0
   45.0560   29.6190   49.1390 N   0  0  0  0  0  0  0  0  0  0  0  0
   45.0180   33.9100   47.7760 H   0  0  0  0  0  0  0  0  0  0  0  0
   44.5380   28.8400   48.6360 H   0  0  0  0  0  0  0  0  0  0  0  0
   45.4280   29.9020   50.0810 H   0  0  0  0  0  0  0  0  0  0  0  0
   46.1540   33.6000   45.2790 C   0  0  2  0  0  0  0  0  0  0  0  0
   44.9460   34.6970   45.5050 C   0  0  0  0  0  0  0  0  0  0  0  0
   44.7200   35.6230   44.4320 C   0  0  0  0  0  0  0  0  0  0  0  0
   45.5200   35.5460   43.2090 C   0  0  1  0  0  0  0  0  0  0  0  0
   46.5750   34.5370   43.1610 C   0  0  0  0  0  0  0  0  0  0  0  0
   46.1230   33.3090   43.9170 C   0  0  0  0  0  0  0  0  0  0  0  0
   46.9720   34.3090   45.6100 H   0  0  0  0  0  0  0  0  0  0  0  0
   44.2680   34.8540   46.3340 H   0  0  0  0  0  0  0  0  0  0  0  0
   43.9550   36.3460   44.5360 H   0  0  0  0  0  0  0  0  0  0  0  0
   45.9390   36.5560   43.0220 H   0  0  0  0  0  0  0  0  0  0  0  0
   47.5800   34.8660   43.5180 H   0  0  0  0  0  0  0  0  0  0  0  0
   46.7520   34.2910   42.0720 H   0  0  0  0  0  0  0  0  0  0  0  0
   46.9730   32.6530   43.5910 H   0  0  0  0  0  0  0  0  0  0  0  0
   45.1640   32.9760   43.4660 H   0  0  0  0  0  0  0  0  0  0  0  0
   44.5080   35.2790   42.0560 C   0  0  0  0  0  0  0  0  0  0  0  0
   43.4490   34.4760   42.4510 F   0  0  0  0  0  0  0  0  0  0  0  0
   43.9570   36.5140   41.7250 F   0  0  0  0  0  0  0  0  0  0  0  0
   45.1810   34.8200   40.9400 F   0  0  0  0  0  0  0  0  0  0  0  0
   46.9080   30.6220   45.0170 C   0  0  0  0  0  0  0  0  0  0  0  0
   46.6190   29.8430   43.9430 C   0  0  0  0  0  0  0  0  0  0  0  0
   47.8210   29.4750   43.3300 C   0  0  0  0  0  0  0  0  0  0  0  0
   48.7810   30.0480   44.0600 N   0  0  0  0  0  0  0  0  0  0  0  0
   48.2670   30.7280   45.0580 N   0  0  0  0  0  0  0  0  0  0  0  0
   45.5800   29.6420   43.7410 H   0  0  0  0  0  0  0  0  0  0  0  0
   47.8160   28.8590   42.4640 H   0  0  0  0  0  0  0  0  0  0  0  0
   50.1330   29.8230   43.6380 C   0  0  0  0  0  0  0  0  0  0  0  0
   51.0740   29.0300   44.2330 C   0  0  0  0  0  3  0  0  0  0  0  0
   52.2220   29.1460   43.4480 C   0  0  0  0  0  3  0  0  0  0  0  0
   51.8960   30.0160   42.4140 C   0  0  0  0  0  0  0  0  0  0  0  0
   52.7000   30.2040   41.7160 H   0  0  0  0  0  0  0  0  0  0  0  0
   50.6440   30.4020   42.5540 O   0  0  0  0  0  0  0  0  0  0  0  0
  1  8  1  0  0  0  0
  1  6  1  0  0  0  0
  2  1  2  0  0  0  0
  3  2  1  0  0  0  0
  3  4  2  0  0  0  0
  4  5  1  0  0  0  0
  5  6  2  0  0  0  0
  5  7  1  0  0  0  0
  7 10  1  0  0  0  0
  9  7  1  0  0  0  0
 11 12  1  0  0  0  0
 11 17  1  1  0  0  0
 11  2  1  0  0  0  0
 12 18  1  0  0  0  0
 13 19  1  0  0  0  0
 13 12  2  0  0  0  0
 14 20  1  6  0  0  0
 14 13  1  0  0  0  0
 15 14  1  0  0  0  0
 15 21  1  0  0  0  0
 15 16  1  0  0  0  0
 16 11  1  0  0  0  0
 22 15  1  0  0  0  0
 23 16  1  0  0  0  0
 24 16  1  0  0  0  0
 25 26  1  0  0  0  0
 25 14  1  0  0  0  0
 27 25  1  0  0  0  0
 28 25  1  0  0  0  0
 29 33  2  0  0  0  0
 29  3  1  0  0  0  0
 30 29  1  0  0  0  0
 31 30  2  0  0  0  0
 31 32  1  0  0  0  0
 32 33  1  0  0  0  0
 34 30  1  0  0  0  0
 35 31  1  0  0  0  0
 36 32  1  0  0  0  0
 36 37  2  0  0  0  0
 38 37  1  0  0  0  0
 39 41  1  0  0  0  0
 39 38  2  0  0  0  0
 40 39  1  0  0  0  0
 41 36  1  0  0  0  0
M  END
>  <minimizedAffinity>
-5.66923714

>  <minimizedRMSD>
0.344396174

$$$$
