
 OpenBabel03232520353D

 46 50  0  0  1  0  0  0  0  0999 V2000
   46.8910   34.5340   41.2630 C   0  0  0  0  0  0  0  0  0  0  0  0
   48.1720   34.9450   40.8830 C   0  0  0  0  0  0  0  0  0  0  0  0
   48.4290   34.6070   39.6450 N   0  0  0  0  0  0  0  0  0  0  0  0
   47.3400   33.9700   39.1780 C   0  0  0  0  0  0  0  0  0  0  0  0
   47.1070   33.4170   37.9130 C   0  0  0  0  0  0  0  0  0  0  0  0
   45.8940   32.8240   37.7000 C   0  0  0  0  0  0  0  0  0  0  0  0
   44.8710   32.7250   38.6380 C   0  0  0  0  0  0  0  0  0  0  0  0
   45.1650   33.2880   39.8520 C   0  0  0  0  0  0  0  0  0  0  0  0
   46.3460   33.9000   40.1570 C   0  0  0  0  0  0  0  0  0  0  0  0
   49.3030   34.7710   39.0630 H   0  0  0  0  0  0  0  0  0  0  0  0
   47.8480   33.4520   37.1360 H   0  0  0  0  0  0  0  0  0  0  0  0
   45.7160   32.3930   36.7120 H   0  0  0  0  0  0  0  0  0  0  0  0
   43.9270   32.2520   38.4370 H   0  0  0  0  0  0  0  0  0  0  0  0
   44.4490   33.2740   40.6630 H   0  0  0  0  0  0  0  0  0  0  0  0
   44.7930   36.0090   43.9660 C   0  0  0  0  0  0  0  0  0  0  0  0
   45.4310   35.8560   42.7240 C   0  0  0  0  0  0  0  0  0  0  0  0
   46.2220   34.7130   42.5460 C   0  0  0  0  0  0  0  0  0  0  0  0
   46.3430   33.8040   43.5690 N   0  0  0  0  0  0  0  0  0  0  0  0
   45.7030   34.0060   44.7470 C   0  0  0  0  0  0  0  0  0  0  0  0
   44.9300   35.0990   44.9510 N   0  0  0  0  0  0  0  0  0  0  0  0
   44.1800   36.9000   44.0940 H   0  0  0  0  0  0  0  0  0  0  0  0
   45.3200   36.5860   41.9330 H   0  0  0  0  0  0  0  0  0  0  0  0
   45.8760   33.2200   45.4740 H   0  0  0  0  0  0  0  0  0  0  0  0
   49.0920   35.6780   41.7990 C   0  0  0  0  0  0  0  0  0  0  0  0
   48.4640   36.2720   42.5000 H   0  0  0  0  0  0  0  0  0  0  0  0
   49.7110   36.3850   41.2080 H   0  0  0  0  0  0  0  0  0  0  0  0
   50.0010   34.7420   42.5260 C   0  0  0  0  0  0  0  0  0  0  0  0
   51.0570   35.1400   42.5350 H   0  0  0  0  0  0  0  0  0  0  0  0
   49.6970   34.7570   43.5970 H   0  0  0  0  0  0  0  0  0  0  0  0
   50.0460   33.3460   41.9700 C   0  0  1  0  0  0  0  0  0  0  0  0
   50.9570   32.2980   42.4470 C   0  0  0  0  0  0  0  0  0  0  0  0
   49.5590   32.2870   42.9680 C   0  0  2  0  0  0  0  0  0  0  0  0
   49.7390   33.2730   40.9160 H   0  0  0  0  0  0  0  0  0  0  0  0
   51.2970   31.5200   41.7340 H   0  0  0  0  0  0  0  0  0  0  0  0
   51.7960   32.6190   43.1110 H   0  0  0  0  0  0  0  0  0  0  0  0
   49.4910   32.6510   44.0330 H   0  0  0  0  0  0  0  0  0  0  0  0
   48.7640   31.2480   42.5210 O   0  0  0  0  0  0  0  0  0  0  0  0
   47.9660   30.4390   43.2780 C   0  0  0  0  0  0  0  0  0  0  0  0
   47.1080   29.6700   42.7920 O   0  0  0  0  0  0  0  0  0  0  0  0
   47.9580   30.3090   44.7790 C   0  0  0  0  0  0  0  0  0  0  0  0
   48.8770   29.4700   45.3680 C   0  0  0  0  0  0  0  0  0  0  0  0
   48.9500   29.2940   46.7570 C   0  0  0  0  0  0  0  0  0  0  0  0
   49.6730   28.6330   47.2110 H   0  0  0  0  0  0  0  0  0  0  0  0
   48.0940   29.9710   47.5220 N   0  0  0  0  0  0  0  0  0  0  0  0
   47.2110   30.7810   46.9150 C   0  0  0  0  0  0  0  0  0  0  0  0
   47.1360   30.9530   45.5950 N   0  0  0  0  0  0  0  0  0  0  0  0
  1 17  1  0  0  0  0
  2  1  2  0  0  0  0
  2 24  1  0  0  0  0
  3  2  1  0  0  0  0
  4  3  1  0  0  0  0
  4  9  1  0  0  0  0
  5  4  2  0  0  0  0
  6  5  1  0  0  0  0
  6  7  2  0  0  0  0
  7  8  1  0  0  0  0
  8  9  2  0  0  0  0
  8 14  1  0  0  0  0
  9  1  1  0  0  0  0
 10  3  1  0  0  0  0
 11  5  1  0  0  0  0
 12  6  1  0  0  0  0
 13  7  1  0  0  0  0
 15 21  1  0  0  0  0
 15 20  1  0  0  0  0
 16 15  2  0  0  0  0
 17 16  1  0  0  0  0
 17 18  2  0  0  0  0
 18 19  1  0  0  0  0
 19 20  2  0  0  0  0
 19 23  1  0  0  0  0
 22 16  1  0  0  0  0
 24 25  1  0  0  0  0
 24 27  1  0  0  0  0
 26 24  1  0  0  0  0
 27 28  1  0  0  0  0
 27 29  1  0  0  0  0
 30 33  1  6  0  0  0
 30 31  1  0  0  0  0
 30 27  1  0  0  0  0
 30 32  1  0  0  0  0
 31 32  1  0  0  0  0
 31 35  1  0  0  0  0
 32 36  1  1  0  0  0
 34 31  1  0  0  0  0
 37 32  1  0  0  0  0
 37 38  1  0  0  0  0
 38 40  1  0  0  0  0
 39 38  2  0  0  0  0
 40 41  2  0  0  0  0
 40 46  1  0  0  0  0
 41 42  1  0  0  0  0
 42 43  1  0  0  0  0
 42 44  2  0  0  0  0
 45 44  1  0  0  0  0
 46 45  2  0  0  0  0
M  END
>  <minimizedAffinity>
-5.78138447

>  <minimizedRMSD>
2.27955198

$$$$
