
 OpenBabel03232520533D

 29 30  0  0  1  0  0  0  0  0999 V2000
   46.0780   34.1870   43.9350 C   0  0  2  0  0  0  0  0  0  0  0  0
   44.8880   35.1170   44.0410 C   0  0  0  0  0  0  0  0  0  0  0  0
   44.3400   35.6270   42.8070 C   0  0  0  0  0  0  0  0  0  0  0  0
   44.9130   35.2560   41.5260 C   0  0  1  0  0  0  0  0  0  0  0  0
   46.1260   34.4090   41.5420 C   0  0  0  0  0  0  0  0  0  0  0  0
   46.0400   33.4160   42.6630 C   0  0  0  0  0  0  0  0  0  0  0  0
   46.9580   34.8930   43.8950 H   0  0  0  0  0  0  0  0  0  0  0  0
   44.2940   35.5330   44.8420 H   0  0  0  0  0  0  0  0  0  0  0  0
   43.5100   36.2830   42.7740 H   0  0  0  0  0  0  0  0  0  0  0  0
   45.1540   36.1940   40.9610 H   0  0  0  0  0  0  0  0  0  0  0  0
   46.1290   33.8110   40.5950 H   0  0  0  0  0  0  0  0  0  0  0  0
   47.0840   34.9330   41.5960 H   0  0  0  0  0  0  0  0  0  0  0  0
   46.9700   32.8130   42.6180 H   0  0  0  0  0  0  0  0  0  0  0  0
   45.1780   32.7500   42.5800 H   0  0  0  0  0  0  0  0  0  0  0  0
   45.3980   33.7180   46.2400 C   0  0  0  0  0  0  0  0  0  0  0  0
   46.1940   33.4030   45.1540 C   0  0  0  0  0  0  0  0  0  0  0  0
   47.0900   32.3300   45.3050 C   0  0  0  0  0  0  0  0  0  0  0  0
   47.1510   31.6500   46.4750 N   0  0  0  0  0  0  0  0  0  0  0  0
   46.3510   31.9880   47.5280 C   0  0  0  0  0  0  0  0  0  0  0  0
   45.4760   33.0220   47.4080 N   0  0  0  0  0  0  0  0  0  0  0  0
   44.6630   34.5080   46.2910 H   0  0  0  0  0  0  0  0  0  0  0  0
   47.7180   32.0570   44.4950 H   0  0  0  0  0  0  0  0  0  0  0  0
   46.5050   31.1750   48.7590 C   0  0  0  0  0  0  0  0  0  0  0  0
   45.2140   31.2240   49.5610 C   0  0  0  0  0  0  0  0  0  0  0  0
   44.3360   31.1180   48.8970 H   0  0  0  0  0  0  0  0  0  0  0  0
   43.8150   34.5770   40.6990 C   0  0  0  0  0  0  0  0  0  0  0  0
   42.9200   33.8720   41.4820 F   0  0  0  0  0  0  0  0  0  0  0  0
   43.0710   35.5790   40.0760 F   0  0  0  0  0  0  0  0  0  0  0  0
   44.3770   33.8160   39.6980 F   0  0  0  0  0  0  0  0  0  0  0  0
  1  7  1  6  0  0  0
  1  2  1  0  0  0  0
  1 16  1  0  0  0  0
  2  8  1  0  0  0  0
  3  2  2  0  0  0  0
  4 10  1  6  0  0  0
  4  5  1  0  0  0  0
  4  3  1  0  0  0  0
  5 12  1  0  0  0  0
  5  6  1  0  0  0  0
  6  1  1  0  0  0  0
  9  3  1  0  0  0  0
 11  5  1  0  0  0  0
 13  6  1  0  0  0  0
 14  6  1  0  0  0  0
 15 21  1  0  0  0  0
 15 20  1  0  0  0  0
 16 17  1  0  0  0  0
 16 15  2  0  0  0  0
 17 18  2  0  0  0  0
 18 19  1  0  0  0  0
 19 23  1  0  0  0  0
 20 19  2  0  0  0  0
 22 17  1  0  0  0  0
 23 24  1  0  0  0  0
 25 24  1  0  0  0  0
 26 27  1  0  0  0  0
 26  4  1  0  0  0  0
 28 26  1  0  0  0  0
 29 26  1  0  0  0  0
M  END
>  <minimizedAffinity>
-4.99705648

>  <minimizedRMSD>
1.66601646

$$$$
