
 OpenBabel03232518573D

 47 50  0  0  1  0  0  0  0  0999 V2000
   46.1290   32.0760   45.1630 C   0  0  1  0  0  0  0  0  0  0  0  0
   45.1180   31.9490   44.6680 H   0  0  0  0  0  0  0  0  0  0  0  0
   45.8140   32.1090   48.8470 C   0  0  0  0  0  0  0  0  0  0  0  0
   45.4000   30.7540   49.1100 C   0  0  0  0  0  0  0  0  0  0  0  0
   45.2440   29.8610   47.9970 C   0  0  0  0  0  0  0  0  0  0  0  0
   45.5000   30.3550   46.7440 N   0  0  0  0  0  0  0  0  0  0  0  0
   45.8850   31.6320   46.5580 C   0  0  0  0  0  0  0  0  0  0  0  0
   46.0390   32.4930   47.5960 N   0  0  0  0  0  0  0  0  0  0  0  0
   45.9200   32.7500   49.7100 H   0  0  0  0  0  0  0  0  0  0  0  0
   45.2000   30.3720   50.0980 H   0  0  0  0  0  0  0  0  0  0  0  0
   44.9390   28.8570   48.1610 H   0  0  0  0  0  0  0  0  0  0  0  0
   46.6510   33.4370   45.0410 C   0  0  0  0  0  0  0  0  0  0  0  0
   46.9500   33.9210   45.9940 H   0  0  0  0  0  0  0  0  0  0  0  0
   47.5680   33.4490   44.4200 H   0  0  0  0  0  0  0  0  0  0  0  0
   45.6680   34.2660   44.2920 C   0  0  0  0  0  0  0  0  0  0  0  0
   44.9240   35.1950   44.9640 C   0  0  0  0  0  0  0  0  0  0  0  0
   44.1030   35.8240   44.0670 C   0  0  0  0  0  0  0  0  0  0  0  0
   44.4090   35.2210   42.8740 N   0  0  0  0  0  0  0  0  0  0  0  0
   45.3330   34.2990   42.9930 N   0  0  0  0  0  0  0  0  0  0  0  0
   44.9100   35.4650   46.0230 H   0  0  0  0  0  0  0  0  0  0  0  0
   43.3710   36.6090   44.1950 H   0  0  0  0  0  0  0  0  0  0  0  0
   44.3240   34.7250   40.5180 N   0  0  0  0  0  0  0  0  0  0  0  0
   43.1930   34.2430   39.7580 C   0  0  0  0  0  0  0  0  0  0  0  0
   42.1520   34.0130   40.8600 C   0  0  0  0  0  0  0  0  0  0  0  0
   42.2940   35.3040   41.6410 C   0  0  0  0  0  0  0  0  0  0  0  0
   43.7890   35.5450   41.5840 C   0  0  1  0  0  0  0  0  0  0  0  0
   44.8610   35.3750   39.8820 H   0  0  0  0  0  0  0  0  0  0  0  0
   43.4280   33.3080   39.2270 H   0  0  0  0  0  0  0  0  0  0  0  0
   42.7870   35.0260   39.0790 H   0  0  0  0  0  0  0  0  0  0  0  0
   41.1440   33.8620   40.4680 H   0  0  0  0  0  0  0  0  0  0  0  0
   42.5110   33.1760   41.4920 H   0  0  0  0  0  0  0  0  0  0  0  0
   41.7000   36.0840   41.1650 H   0  0  0  0  0  0  0  0  0  0  0  0
   41.9720   35.0870   42.6980 H   0  0  0  0  0  0  0  0  0  0  0  0
   43.9610   36.6330   41.4240 H   0  0  0  0  0  0  0  0  0  0  0  0
   46.9670   31.0110   44.4560 C   0  0  0  0  0  0  0  0  0  0  0  0
   47.6700   30.6480   45.2650 H   0  0  0  0  0  0  0  0  0  0  0  0
   46.3400   30.0980   44.2630 H   0  0  0  0  0  0  0  0  0  0  0  0
   47.6900   31.4490   43.3180 N   0  0  0  0  0  0  0  0  0  0  0  0
   48.9330   31.9360   43.2060 C   0  0  0  0  0  0  0  0  0  0  0  0
   49.4910   32.3040   41.9990 C   0  0  0  0  0  0  0  0  0  0  0  0
   48.7720   32.1830   40.8270 C   0  0  0  0  0  0  0  0  0  0  0  0
   49.3780   32.5730   39.6010 N   0  0  0  0  0  0  0  0  0  0  0  0
   47.5050   31.6880   40.9270 N   0  0  0  0  0  0  0  0  0  0  0  0
   47.0020   31.3390   42.1420 C   0  0  0  0  0  0  0  0  0  0  0  0
   45.8190   30.9080   41.9930 O   0  0  0  0  0  0  0  0  0  0  0  0
   49.3460   33.5980   39.3270 H   0  0  0  0  0  0  0  0  0  0  0  0
   49.8800   32.0130   38.8750 H   0  0  0  0  0  0  0  0  0  0  0  0
  1  2  1  6  0  0  0
  1  7  1  0  0  0  0
  3  4  1  0  0  0  0
  3  9  1  0  0  0  0
  4 10  1  0  0  0  0
  5 11  1  0  0  0  0
  5  4  2  0  0  0  0
  6  5  1  0  0  0  0
  7  6  2  0  0  0  0
  7  8  1  0  0  0  0
  8  3  2  0  0  0  0
 12  1  1  0  0  0  0
 12 13  1  0  0  0  0
 14 12  1  0  0  0  0
 15 16  1  0  0  0  0
 15 12  1  0  0  0  0
 16 20  1  0  0  0  0
 17 21  1  0  0  0  0
 17 16  2  0  0  0  0
 18 19  1  0  0  0  0
 18 17  1  0  0  0  0
 19 15  2  0  0  0  0
 22 26  1  0  0  0  0
 23 22  1  0  0  0  0
 23 24  1  0  0  0  0
 24 31  1  0  0  0  0
 24 25  1  0  0  0  0
 25 33  1  0  0  0  0
 26 34  1  6  0  0  0
 26 25  1  0  0  0  0
 26 18  1  0  0  0  0
 27 22  1  0  0  0  0
 28 23  1  0  0  0  0
 29 23  1  0  0  0  0
 30 24  1  0  0  0  0
 32 25  1  0  0  0  0
 35  1  1  0  0  0  0
 35 36  1  0  0  0  0
 37 35  1  0  0  0  0
 38 35  1  0  0  0  0
 39 38  1  0  0  0  0
 40 39  2  0  0  0  0
 41 43  2  0  0  0  0
 41 40  1  0  0  0  0
 42 41  1  0  0  0  0
 43 44  1  0  0  0  0
 44 38  1  0  0  0  0
 45 44  2  0  0  0  0
 46 42  1  0  0  0  0
 47 42  1  0  0  0  0
M  END
>  <minimizedAffinity>
-5.50990772

>  <minimizedRMSD>
1.15379071

$$$$
