
 OpenBabel03232520433D

 35 37  0  0  0  0  0  0  0  0999 V2000
   46.4160   34.6590   42.1830 C   0  0  0  0  0  0  0  0  0  0  0  0
   47.7230   35.0150   42.0430 C   0  0  0  0  0  0  0  0  0  0  0  0
   48.4280   34.8260   40.8570 C   0  0  0  0  0  0  0  0  0  0  0  0
   47.7730   34.2440   39.7600 C   0  0  0  0  0  0  0  0  0  0  0  0
   46.4600   33.8880   39.9020 C   0  0  0  0  0  0  0  0  0  0  0  0
   45.8040   34.0970   41.1010 C   0  0  0  0  0  0  0  0  0  0  0  0
   48.3110   35.4750   42.8460 H   0  0  0  0  0  0  0  0  0  0  0  0
   49.4550   35.1130   40.7670 H   0  0  0  0  0  0  0  0  0  0  0  0
   48.3070   34.0980   38.8530 H   0  0  0  0  0  0  0  0  0  0  0  0
   45.9580   33.4360   39.0430 H   0  0  0  0  0  0  0  0  0  0  0  0
   44.4400   33.7130   41.2070 N   0  0  0  0  0  0  0  0  0  0  0  0
   43.6130   34.6710   40.6740 C   0  0  0  0  0  0  0  0  0  0  0  0
   42.2340   34.5030   40.6720 C   0  0  0  0  0  0  0  0  0  0  0  0
   41.7320   33.3440   41.2200 C   0  0  0  0  0  0  0  0  0  0  0  0
   40.4900   33.1190   41.2550 O   0  0  0  0  0  0  0  0  0  0  0  0
   42.5690   32.4270   41.7330 N   0  0  0  0  0  0  0  0  0  0  0  0
   43.8990   32.5990   41.7310 C   0  0  0  0  0  0  0  0  0  0  0  0
   44.7540   31.8060   42.1830 O   0  0  0  0  0  0  0  0  0  0  0  0
   43.9440   35.6010   40.2300 H   0  0  0  0  0  0  0  0  0  0  0  0
   42.2430   31.5260   42.1640 H   0  0  0  0  0  0  0  0  0  0  0  0
   41.3150   35.5270   40.1000 C   0  0  0  0  0  0  0  0  0  0  0  0
   41.4160   35.5200   38.9970 H   0  0  0  0  0  0  0  0  0  0  0  0
   41.7100   36.5080   40.4730 H   0  0  0  0  0  0  0  0  0  0  0  0
   40.3050   35.3160   40.4460 H   0  0  0  0  0  0  0  0  0  0  0  0
   44.4160   36.1180   45.0290 C   0  0  0  0  0  0  0  0  0  0  0  0
   44.9820   36.0020   43.7580 C   0  0  0  0  0  0  0  0  0  0  0  0
   45.7730   34.8990   43.4560 C   0  0  0  0  0  0  0  0  0  0  0  0
   45.9500   33.9870   44.4330 N   0  0  0  0  0  0  0  0  0  0  0  0
   45.3910   34.1230   45.6560 C   0  0  0  0  0  0  0  0  0  0  0  0
   44.6300   35.1780   45.9560 N   0  0  0  0  0  0  0  0  0  0  0  0
   43.8230   37.0250   45.1290 H   0  0  0  0  0  0  0  0  0  0  0  0
   44.8460   36.7290   42.9670 H   0  0  0  0  0  0  0  0  0  0  0  0
   45.6020   33.0910   46.7340 C   0  0  0  0  0  0  0  0  0  0  0  0
   46.9410   32.4100   46.5690 C   0  0  0  0  0  0  0  0  0  0  0  0
   47.4740   32.2080   47.4970 H   0  0  0  0  0  0  0  0  0  0  0  0
  1 27  1  0  0  0  0
  2  1  1  0  0  0  0
  2  7  1  0  0  0  0
  3  2  2  0  0  0  0
  4  5  2  0  0  0  0
  4  3  1  0  0  0  0
  5  6  1  0  0  0  0
  6 11  1  0  0  0  0
  6  1  2  0  0  0  0
  8  3  1  0  0  0  0
  9  4  1  0  0  0  0
 10  5  1  0  0  0  0
 11 17  1  0  0  0  0
 12 11  1  0  0  0  0
 13 12  2  0  0  0  0
 13 14  1  0  0  0  0
 14 15  2  0  0  0  0
 14 16  1  0  0  0  0
 16 20  1  0  0  0  0
 17 16  1  0  0  0  0
 17 18  2  0  0  0  0
 19 12  1  0  0  0  0
 21 24  1  0  0  0  0
 21 23  1  0  0  0  0
 21 13  1  0  0  0  0
 22 21  1  0  0  0  0
 25 31  1  0  0  0  0
 25 30  1  0  0  0  0
 26 25  2  0  0  0  0
 27 26  1  0  0  0  0
 27 28  2  0  0  0  0
 28 29  1  0  0  0  0
 29 30  2  0  0  0  0
 29 33  1  0  0  0  0
 32 26  1  0  0  0  0
 34 33  1  0  0  0  0
 34 35  1  0  0  0  0
M  END
>  <minimizedAffinity>
-6.61540651

>  <minimizedRMSD>
0.153878137

$$$$
