
 OpenBabel03232521003D

 47 51  0  0  1  0  0  0  0  0999 V2000
   45.4330   32.8320   47.4910 C   0  0  0  0  0  0  0  0  0  0  0  0
   45.9520   32.5980   46.2570 C   0  0  0  0  0  0  0  0  0  0  0  0
   46.1850   31.2460   45.9720 C   0  0  0  0  0  0  0  0  0  0  0  0
   45.9210   30.2350   46.8360 N   0  0  0  0  0  0  0  0  0  0  0  0
   45.3910   30.5250   48.0840 C   0  0  0  0  0  0  0  0  0  0  0  0
   45.1610   31.8050   48.3800 N   0  0  0  0  0  0  0  0  0  0  0  0
   45.1110   29.4950   49.0080 N   0  0  0  0  0  0  0  0  0  0  0  0
   45.2190   33.8370   47.8140 H   0  0  0  0  0  0  0  0  0  0  0  0
   44.3950   28.7910   48.7010 H   0  0  0  0  0  0  0  0  0  0  0  0
   45.5810   29.4310   49.9380 H   0  0  0  0  0  0  0  0  0  0  0  0
   46.7810   30.5730   44.8320 C   0  0  0  0  0  0  0  0  0  0  0  0
   46.3850   29.8560   43.7480 C   0  0  0  0  0  0  0  0  0  0  0  0
   47.5380   29.4500   43.0510 C   0  0  0  0  0  0  0  0  0  0  0  0
   48.5610   29.9430   43.7480 N   0  0  0  0  0  0  0  0  0  0  0  0
   48.1470   30.6070   44.7990 N   0  0  0  0  0  0  0  0  0  0  0  0
   45.3210   29.7250   43.6080 H   0  0  0  0  0  0  0  0  0  0  0  0
   47.4110   28.8650   42.1550 H   0  0  0  0  0  0  0  0  0  0  0  0
   49.8670   29.6590   43.2280 C   0  0  0  0  0  0  0  0  0  0  0  0
   50.8820   29.7890   44.1170 N   0  0  0  0  0  0  0  0  0  0  0  0
   52.1490   29.5420   43.7150 C   0  0  0  0  0  3  0  0  0  0  0  0
   52.4760   29.1630   42.4470 N   0  0  0  0  0  0  0  0  0  0  0  0
   51.4600   29.0380   41.5740 C   0  0  0  0  0  0  0  0  0  0  0  0
   51.7140   28.6550   40.2600 C   0  0  0  0  0  3  0  0  0  0  0  0
   50.6680   28.5270   39.3640 C   0  0  0  0  0  0  0  0  0  0  0  0
   50.9180   28.2260   38.3530 H   0  0  0  0  0  0  0  0  0  0  0  0
   49.3700   28.7790   39.7700 C   0  0  0  0  0  0  0  0  0  0  0  0
   48.5520   28.6730   39.0470 H   0  0  0  0  0  0  0  0  0  0  0  0
   49.0660   29.1660   41.0780 C   0  0  0  0  0  3  0  0  0  0  0  0
   50.1450   29.2790   41.9320 C   0  0  0  0  0  0  0  0  0  0  0  0
   46.1910   33.5710   45.2460 C   0  0  2  0  0  0  0  0  0  0  0  0
   44.9660   34.6450   45.4980 C   0  0  0  0  0  0  0  0  0  0  0  0
   44.7240   35.5940   44.4470 C   0  0  0  0  0  0  0  0  0  0  0  0
   45.5320   35.5560   43.2210 C   0  0  1  0  0  0  0  0  0  0  0  0
   46.5940   34.5600   43.1510 C   0  0  0  0  0  0  0  0  0  0  0  0
   46.1540   33.3110   43.8770 C   0  0  0  0  0  0  0  0  0  0  0  0
   46.9990   34.2840   45.5860 H   0  0  0  0  0  0  0  0  0  0  0  0
   44.2860   34.7730   46.3310 H   0  0  0  0  0  0  0  0  0  0  0  0
   43.9480   36.3030   44.5690 H   0  0  0  0  0  0  0  0  0  0  0  0
   45.9450   36.5680   43.0290 H   0  0  0  0  0  0  0  0  0  0  0  0
   47.5910   34.9030   43.5410 H   0  0  0  0  0  0  0  0  0  0  0  0
   46.8050   34.3600   42.0590 H   0  0  0  0  0  0  0  0  0  0  0  0
   45.2000   32.9770   43.4160 H   0  0  0  0  0  0  0  0  0  0  0  0
   47.0120   32.6750   43.5310 H   0  0  0  0  0  0  0  0  0  0  0  0
   44.5190   35.3050   42.0640 C   0  0  0  0  0  0  0  0  0  0  0  0
   43.4490   34.5190   42.4500 F   0  0  0  0  0  0  0  0  0  0  0  0
   43.9850   36.5450   41.7270 F   0  0  0  0  0  0  0  0  0  0  0  0
   45.1910   34.8360   40.9510 F   0  0  0  0  0  0  0  0  0  0  0  0
  1  8  1  0  0  0  0
  1  6  1  0  0  0  0
  2  1  2  0  0  0  0
  3  2  1  0  0  0  0
  3  4  2  0  0  0  0
  4  5  1  0  0  0  0
  5  6  2  0  0  0  0
  5  7  1  0  0  0  0
  7 10  1  0  0  0  0
  9  7  1  0  0  0  0
 11  3  1  0  0  0  0
 12 11  1  0  0  0  0
 13 12  2  0  0  0  0
 13 14  1  0  0  0  0
 14 15  1  0  0  0  0
 15 11  2  0  0  0  0
 16 12  1  0  0  0  0
 17 13  1  0  0  0  0
 18 14  1  0  0  0  0
 18 19  1  0  0  0  0
 20 19  2  0  0  0  0
 21 20  1  0  0  0  0
 22 29  1  0  0  0  0
 22 21  2  0  0  0  0
 23 22  1  0  0  0  0
 24 26  1  0  0  0  0
 24 23  2  0  0  0  0
 25 24  1  0  0  0  0
 26 28  2  0  0  0  0
 27 26  1  0  0  0  0
 28 29  1  0  0  0  0
 29 18  2  0  0  0  0
 30 31  1  0  0  0  0
 30 36  1  1  0  0  0
 30  2  1  0  0  0  0
 31 37  1  0  0  0  0
 32 38  1  0  0  0  0
 32 31  2  0  0  0  0
 33 39  1  6  0  0  0
 33 32  1  0  0  0  0
 34 33  1  0  0  0  0
 34 40  1  0  0  0  0
 34 35  1  0  0  0  0
 35 30  1  0  0  0  0
 41 34  1  0  0  0  0
 42 35  1  0  0  0  0
 43 35  1  0  0  0  0
 44 45  1  0  0  0  0
 44 33  1  0  0  0  0
 46 44  1  0  0  0  0
 47 44  1  0  0  0  0
M  END
>  <minimizedAffinity>
-6.16891193

>  <minimizedRMSD>
0.143628404

$$$$
