
 OpenBabel03232519523D

 41 44  0  0  1  0  0  0  0  0999 V2000
   45.8390   33.7000   42.1950 N   0  0  0  0  0  0  0  0  0  0  0  0
   47.0280   33.9450   41.3880 C   0  0  0  0  0  0  0  0  0  0  0  0
   46.4390   33.8410   40.0090 C   0  0  0  0  0  0  0  0  0  0  0  0
   45.6820   32.5520   40.1090 C   0  0  0  0  0  0  0  0  0  0  0  0
   45.1100   32.6300   41.4950 C   0  0  2  0  0  0  0  0  0  0  0  0
   47.8240   33.2090   41.5780 H   0  0  0  0  0  0  0  0  0  0  0  0
   47.3130   34.9940   41.5520 H   0  0  0  0  0  0  0  0  0  0  0  0
   47.2670   33.7460   39.2630 H   0  0  0  0  0  0  0  0  0  0  0  0
   45.8220   34.7140   39.7960 H   0  0  0  0  0  0  0  0  0  0  0  0
   46.3560   31.7040   39.9300 H   0  0  0  0  0  0  0  0  0  0  0  0
   44.8760   32.5360   39.3320 H   0  0  0  0  0  0  0  0  0  0  0  0
   45.4630   31.7080   42.0050 H   0  0  0  0  0  0  0  0  0  0  0  0
   44.5030   36.1310   44.6590 C   0  0  0  0  0  0  0  0  0  0  0  0
   44.8970   35.5940   43.4280 C   0  0  0  0  0  0  0  0  0  0  0  0
   45.4250   34.3070   43.3750 C   0  0  0  0  0  0  0  0  0  0  0  0
   45.5210   33.6470   44.5670 N   0  0  0  0  0  0  0  0  0  0  0  0
   45.1400   34.1700   45.7450 C   0  0  0  0  0  0  0  0  0  0  0  0
   44.6330   35.4120   45.7760 N   0  0  0  0  0  0  0  0  0  0  0  0
   45.3240   33.3180   46.8700 N   0  0  0  0  0  0  0  0  0  0  0  0
   44.0990   37.1150   44.7000 H   0  0  0  0  0  0  0  0  0  0  0  0
   44.8050   36.1500   42.4990 H   0  0  0  0  0  0  0  0  0  0  0  0
   44.8350   32.4120   46.9600 H   0  0  0  0  0  0  0  0  0  0  0  0
   45.9470   33.5320   47.6680 H   0  0  0  0  0  0  0  0  0  0  0  0
   43.6980   32.7350   41.5840 N   0  0  0  0  0  0  0  0  0  0  0  0
   42.9330   33.7730   41.2040 C   0  0  0  0  0  0  0  0  0  0  0  0
   41.5550   33.7740   41.3350 C   0  0  0  0  0  0  0  0  0  0  0  0
   40.9200   32.6760   41.8740 C   0  0  0  0  0  0  0  0  0  0  0  0
   39.6660   32.6210   42.0170 O   0  0  0  0  0  0  0  0  0  0  0  0
   41.6880   31.6480   42.2500 N   0  0  0  0  0  0  0  0  0  0  0  0
   43.0060   31.6770   42.1120 C   0  0  0  0  0  0  0  0  0  0  0  0
   43.6480   30.6560   42.4960 O   0  0  0  0  0  0  0  0  0  0  0  0
   43.4640   34.6220   40.7820 H   0  0  0  0  0  0  0  0  0  0  0  0
   41.2150   30.8040   42.6630 H   0  0  0  0  0  0  0  0  0  0  0  0
   40.7620   34.9360   40.9030 C   0  0  0  0  0  0  0  0  0  0  0  0
   41.3450   35.8480   41.1810 H   0  0  0  0  0  0  0  0  0  0  0  0
   39.8290   34.9360   41.5300 H   0  0  0  0  0  0  0  0  0  0  0  0
   40.4710   34.9740   39.5150 N   0  0  0  0  0  0  0  0  0  0  0  0
   39.4580   34.3110   38.9270 C   0  0  0  0  0  0  0  0  0  0  0  0
   39.4430   34.5480   37.5610 C   0  0  0  0  0  0  0  0  0  0  0  0
   40.4890   35.3880   37.3120 N   0  0  0  0  0  0  0  0  0  0  0  0
   41.0770   35.6200   38.4980 C   0  0  0  0  0  0  0  0  0  0  0  0
  1 15  1  0  0  0  0
  2  7  1  0  0  0  0
  2  6  1  0  0  0  0
  2  1  1  0  0  0  0
  3  4  1  0  0  0  0
  3  2  1  0  0  0  0
  4  5  1  0  0  0  0
  5 24  1  0  0  0  0
  5 12  1  1  0  0  0
  5  1  1  0  0  0  0
  8  3  1  0  0  0  0
  9  3  1  0  0  0  0
 10  4  1  0  0  0  0
 11  4  1  0  0  0  0
 13 20  1  0  0  0  0
 13 18  1  0  0  0  0
 14 13  2  0  0  0  0
 15 14  1  0  0  0  0
 15 16  2  0  0  0  0
 16 17  1  0  0  0  0
 17 18  2  0  0  0  0
 17 19  1  0  0  0  0
 19 22  1  0  0  0  0
 19 23  1  0  0  0  0
 21 14  1  0  0  0  0
 24 30  1  0  0  0  0
 25 26  2  0  0  0  0
 25 24  1  0  0  0  0
 26 27  1  0  0  0  0
 27 28  2  0  0  0  0
 27 29  1  0  0  0  0
 29 33  1  0  0  0  0
 30 29  1  0  0  0  0
 30 31  2  0  0  0  0
 32 25  1  0  0  0  0
 34 35  1  0  0  0  0
 34 26  1  0  0  0  0
 34 36  1  0  0  0  0
 37 34  1  0  0  0  0
 38 37  1  0  0  0  0
 39 38  2  0  0  0  0
 40 39  1  0  0  0  0
 40 41  2  0  0  0  0
 41 37  1  0  0  0  0
M  END
>  <minimizedAffinity>
-6.23808336

>  <minimizedRMSD>
1.29022491

$$$$
