
 OpenBabel03232518363D

 42 44  0  0  1  0  0  0  0  0999 V2000
   43.6710   34.9730   41.2140 C   0  0  0  0  0  0  0  0  0  0  0  0
   44.9400   34.4900   40.9510 C   0  0  0  0  0  0  0  0  0  0  0  0
   45.9120   34.6140   41.9600 C   0  0  0  0  0  0  0  0  0  0  0  0
   45.5480   35.2070   43.1450 N   0  0  0  0  0  0  0  0  0  0  0  0
   44.2730   35.6700   43.3550 C   0  0  0  0  0  0  0  0  0  0  0  0
   43.3560   35.5380   42.3690 N   0  0  0  0  0  0  0  0  0  0  0  0
   45.2380   34.0350   40.0430 H   0  0  0  0  0  0  0  0  0  0  0  0
   44.0430   36.1280   44.3080 H   0  0  0  0  0  0  0  0  0  0  0  0
   47.3060   34.1110   41.7910 C   0  0  0  0  0  0  0  0  0  0  0  0
   48.1230   35.1210   40.9680 C   0  0  0  0  0  0  0  0  0  0  0  0
   49.2110   35.7630   41.7530 C   0  0  0  0  0  0  0  0  0  0  0  0
   50.1240   34.7790   42.4230 C   0  0  0  0  0  0  0  0  0  0  0  0
   49.4290   33.4730   42.7250 C   0  0  0  0  0  0  0  0  0  0  0  0
   47.9920   33.8010   43.0700 C   0  0  0  0  0  0  0  0  0  0  0  0
   47.2010   33.1820   41.1870 H   0  0  0  0  0  0  0  0  0  0  0  0
   48.6000   34.5680   40.1330 H   0  0  0  0  0  0  0  0  0  0  0  0
   47.4860   35.8820   40.5120 H   0  0  0  0  0  0  0  0  0  0  0  0
   49.7620   36.4190   41.0830 H   0  0  0  0  0  0  0  0  0  0  0  0
   48.7610   36.4070   42.5540 H   0  0  0  0  0  0  0  0  0  0  0  0
   50.9240   34.5390   41.6630 H   0  0  0  0  0  0  0  0  0  0  0  0
   50.5550   35.2620   43.3230 H   0  0  0  0  0  0  0  0  0  0  0  0
   49.5210   32.7240   41.9390 H   0  0  0  0  0  0  0  0  0  0  0  0
   49.9000   33.0770   43.6690 H   0  0  0  0  0  0  0  0  0  0  0  0
   48.0380   34.6870   43.7360 H   0  0  0  0  0  0  0  0  0  0  0  0
   47.4820   32.9710   43.5740 H   0  0  0  0  0  0  0  0  0  0  0  0
   42.6170   34.8550   40.1670 C   0  0  1  0  0  0  0  0  0  0  0  0
   42.6790   33.6190   39.3450 C   0  0  0  0  0  0  0  0  0  0  0  0
   41.3020   32.9520   39.4890 C   0  0  0  0  0  0  0  0  0  0  0  0
   40.8670   33.4350   40.8360 C   0  0  0  0  0  0  0  0  0  0  0  0
   41.2340   34.8680   40.8550 C   0  0  2  0  0  0  0  0  0  0  0  0
   42.6390   35.8100   39.6100 H   0  0  0  0  0  0  0  0  0  0  0  0
   42.8490   33.8280   38.2620 H   0  0  0  0  0  0  0  0  0  0  0  0
   43.4670   32.9350   39.7530 H   0  0  0  0  0  0  0  0  0  0  0  0
   41.5070   31.8520   39.5530 H   0  0  0  0  0  0  0  0  0  0  0  0
   40.6290   33.2070   38.6730 H   0  0  0  0  0  0  0  0  0  0  0  0
   41.3900   32.8930   41.6360 H   0  0  0  0  0  0  0  0  0  0  0  0
   39.7550   33.3560   40.9170 H   0  0  0  0  0  0  0  0  0  0  0  0
   41.3350   35.2540   41.8860 H   0  0  0  0  0  0  0  0  0  0  0  0
   40.2840   35.7800   40.1290 C   0  0  0  0  0  0  0  0  0  0  0  0
   39.9630   36.8950   40.8560 F   0  0  0  0  0  0  0  0  0  0  0  0
   39.0930   35.1640   39.7920 F   0  0  0  0  0  0  0  0  0  0  0  0
   40.8530   36.2420   38.9420 F   0  0  0  0  0  0  0  0  0  0  0  0
  1  6  1  0  0  0  0
  2  1  2  0  0  0  0
  2  3  1  0  0  0  0
  3  4  2  0  0  0  0
  4  5  1  0  0  0  0
  5  8  1  0  0  0  0
  6  5  2  0  0  0  0
  7  2  1  0  0  0  0
  9  3  1  0  0  0  0
  9 14  1  0  0  0  0
 10 11  1  0  0  0  0
 10  9  1  0  0  0  0
 11 12  1  0  0  0  0
 11 19  1  0  0  0  0
 12 13  1  0  0  0  0
 12 21  1  0  0  0  0
 13 14  1  0  0  0  0
 13 23  1  0  0  0  0
 14 25  1  0  0  0  0
 14 24  1  0  0  0  0
 15  9  1  0  0  0  0
 16 10  1  0  0  0  0
 17 10  1  0  0  0  0
 18 11  1  0  0  0  0
 20 12  1  0  0  0  0
 22 13  1  0  0  0  0
 26 31  1  6  0  0  0
 26 30  1  0  0  0  0
 26  1  1  0  0  0  0
 27 28  1  0  0  0  0
 27 33  1  0  0  0  0
 27 26  1  0  0  0  0
 28 34  1  0  0  0  0
 28 29  1  0  0  0  0
 29 30  1  0  0  0  0
 29 37  1  0  0  0  0
 29 36  1  0  0  0  0
 30 38  1  1  0  0  0
 32 27  1  0  0  0  0
 35 28  1  0  0  0  0
 39 30  1  0  0  0  0
 39 40  1  0  0  0  0
 41 39  1  0  0  0  0
 42 39  1  0  0  0  0
M  END
>  <minimizedAffinity>
-6.97301388

>  <minimizedRMSD>
0.913351655

$$$$
