
 OpenBabel03232520143D

 29 30  0  0  0  0  0  0  0  0999 V2000
   47.4680   34.3510   42.0640 C   0  0  0  0  0  0  0  0  0  0  0  0
   48.4330   35.4490   41.8110 C   0  0  0  0  0  0  0  0  0  0  0  0
   49.7780   35.2870   42.4700 C   0  0  0  0  0  0  0  0  0  0  0  0
   50.3660   33.9310   42.3170 C   0  0  0  0  0  0  0  0  0  0  0  0
   49.4040   32.8970   41.7920 C   0  0  0  0  0  0  0  0  0  0  0  0
   48.0870   33.0620   42.4980 C   0  0  0  0  0  0  0  0  0  0  0  0
   47.9890   36.3960   42.1710 H   0  0  0  0  0  0  0  0  0  0  0  0
   48.6450   35.5740   40.7270 H   0  0  0  0  0  0  0  0  0  0  0  0
   49.6520   35.4750   43.5670 H   0  0  0  0  0  0  0  0  0  0  0  0
   50.4070   36.1020   42.0830 H   0  0  0  0  0  0  0  0  0  0  0  0
   50.8310   33.5490   43.2480 H   0  0  0  0  0  0  0  0  0  0  0  0
   51.1910   33.9760   41.5650 H   0  0  0  0  0  0  0  0  0  0  0  0
   49.8770   31.9060   42.0330 H   0  0  0  0  0  0  0  0  0  0  0  0
   49.2770   32.9940   40.7170 H   0  0  0  0  0  0  0  0  0  0  0  0
   47.4430   32.1910   42.2660 H   0  0  0  0  0  0  0  0  0  0  0  0
   48.3290   33.1200   43.5920 H   0  0  0  0  0  0  0  0  0  0  0  0
   45.2360   34.3130   45.0240 C   0  0  0  0  0  0  0  0  0  0  0  0
   44.5580   35.5320   44.9370 C   0  0  0  0  0  0  0  0  0  0  0  0
   44.8650   36.3590   43.8660 C   0  0  0  0  0  0  0  0  0  0  0  0
   45.7990   35.9190   42.9870 N   0  0  0  0  0  0  0  0  0  0  0  0
   46.4380   34.7420   43.0920 C   0  0  0  0  0  0  0  0  0  0  0  0
   46.1500   33.9370   44.1220 N   0  0  0  0  0  0  0  0  0  0  0  0
   45.0640   33.6140   45.8150 H   0  0  0  0  0  0  0  0  0  0  0  0
   43.8260   35.7960   45.6900 H   0  0  0  0  0  0  0  0  0  0  0  0
   44.3730   37.3090   43.7490 H   0  0  0  0  0  0  0  0  0  0  0  0
   46.6600   34.0460   40.8140 C   0  0  0  0  0  0  0  0  0  0  0  0
   46.4140   32.6640   40.7520 F   0  0  0  0  0  0  0  0  0  0  0  0
   45.4390   34.6410   40.7670 F   0  0  0  0  0  0  0  0  0  0  0  0
   47.3330   34.3580   39.6670 F   0  0  0  0  0  0  0  0  0  0  0  0
  1  6  1  0  0  0  0
  1 21  1  0  0  0  0
  2  1  1  0  0  0  0
  2  7  1  0  0  0  0
  2  3  1  0  0  0  0
  3  9  1  0  0  0  0
  4  3  1  0  0  0  0
  4 11  1  0  0  0  0
  5 13  1  0  0  0  0
  5  4  1  0  0  0  0
  5  6  1  0  0  0  0
  6 16  1  0  0  0  0
  8  2  1  0  0  0  0
 10  3  1  0  0  0  0
 12  4  1  0  0  0  0
 14  5  1  0  0  0  0
 15  6  1  0  0  0  0
 17 23  1  0  0  0  0
 18 17  1  0  0  0  0
 18 24  1  0  0  0  0
 19 18  2  0  0  0  0
 20 21  2  0  0  0  0
 20 19  1  0  0  0  0
 21 22  1  0  0  0  0
 22 17  2  0  0  0  0
 25 19  1  0  0  0  0
 26  1  1  0  0  0  0
 27 26  1  0  0  0  0
 28 26  1  0  0  0  0
 29 26  1  0  0  0  0
M  END
>  <minimizedAffinity>
-5.42311716

>  <minimizedRMSD>
0.692892015

$$$$
