
 OpenBabel03232520593D

 47 51  0  0  1  0  0  0  0  0999 V2000
   45.3820   32.8920   47.5350 C   0  0  0  0  0  0  0  0  0  0  0  0
   45.9340   32.6380   46.3190 C   0  0  0  0  0  0  0  0  0  0  0  0
   46.1930   31.2830   46.0710 C   0  0  0  0  0  0  0  0  0  0  0  0
   45.9230   30.2880   46.9530 N   0  0  0  0  0  0  0  0  0  0  0  0
   45.3600   30.5990   48.1800 C   0  0  0  0  0  0  0  0  0  0  0  0
   45.1040   31.8820   48.4410 N   0  0  0  0  0  0  0  0  0  0  0  0
   45.0740   29.5860   49.1220 N   0  0  0  0  0  0  0  0  0  0  0  0
   45.1460   33.9010   47.8300 H   0  0  0  0  0  0  0  0  0  0  0  0
   44.3750   28.8640   48.8140 H   0  0  0  0  0  0  0  0  0  0  0  0
   45.5220   29.5510   50.0640 H   0  0  0  0  0  0  0  0  0  0  0  0
   46.8260   30.5940   44.9620 C   0  0  0  0  0  0  0  0  0  0  0  0
   46.4640   29.8830   43.8610 C   0  0  0  0  0  0  0  0  0  0  0  0
   47.6390   29.4480   43.2200 C   0  0  0  0  0  0  0  0  0  0  0  0
   48.6400   29.9190   43.9620 N   0  0  0  0  0  0  0  0  0  0  0  0
   48.1920   30.5960   44.9920 N   0  0  0  0  0  0  0  0  0  0  0  0
   45.4050   29.7750   43.6730 H   0  0  0  0  0  0  0  0  0  0  0  0
   47.5400   28.8630   42.3200 H   0  0  0  0  0  0  0  0  0  0  0  0
   49.9610   29.6040   43.5050 C   0  0  0  0  0  0  0  0  0  0  0  0
   50.5670   28.5790   44.1530 N   0  0  0  0  0  0  0  0  0  0  0  0
   51.8160   28.2130   43.7870 C   0  0  0  0  0  3  0  0  0  0  0  0
   52.5180   28.8210   42.7890 N   0  0  0  0  0  0  0  0  0  0  0  0
   51.9060   29.8370   42.1550 C   0  0  0  0  0  0  0  0  0  0  0  0
   52.5580   30.5070   41.1230 C   0  0  0  0  0  3  0  0  0  0  0  0
   51.9280   31.5530   40.4720 C   0  0  0  0  0  0  0  0  0  0  0  0
   52.4780   32.0420   39.6770 H   0  0  0  0  0  0  0  0  0  0  0  0
   50.6490   31.9310   40.8420 C   0  0  0  0  0  0  0  0  0  0  0  0
   50.1640   32.7620   40.3140 H   0  0  0  0  0  0  0  0  0  0  0  0
   49.9550   31.2890   41.8690 C   0  0  0  0  0  3  0  0  0  0  0  0
   50.6290   30.2530   42.4870 C   0  0  0  0  0  0  0  0  0  0  0  0
   46.1820   33.5910   45.2920 C   0  0  2  0  0  0  0  0  0  0  0  0
   44.9540   34.6690   45.5100 C   0  0  0  0  0  0  0  0  0  0  0  0
   44.7220   35.5970   44.4380 C   0  0  0  0  0  0  0  0  0  0  0  0
   45.5420   35.5350   43.2220 C   0  0  1  0  0  0  0  0  0  0  0  0
   46.6060   34.5390   43.1810 C   0  0  0  0  0  0  0  0  0  0  0  0
   46.1590   33.3030   43.9270 C   0  0  0  0  0  0  0  0  0  0  0  0
   46.9860   34.3110   45.6260 H   0  0  0  0  0  0  0  0  0  0  0  0
   44.2660   34.8130   46.3340 H   0  0  0  0  0  0  0  0  0  0  0  0
   43.9450   36.3080   44.5390 H   0  0  0  0  0  0  0  0  0  0  0  0
   45.9570   36.5430   43.0130 H   0  0  0  0  0  0  0  0  0  0  0  0
   47.5980   34.8900   43.5750 H   0  0  0  0  0  0  0  0  0  0  0  0
   46.8270   34.3170   42.0950 H   0  0  0  0  0  0  0  0  0  0  0  0
   45.2100   32.9600   43.4640 H   0  0  0  0  0  0  0  0  0  0  0  0
   47.0210   32.6610   43.6030 H   0  0  0  0  0  0  0  0  0  0  0  0
   44.5410   35.2610   42.0600 C   0  0  0  0  0  0  0  0  0  0  0  0
   43.4890   34.4480   42.4400 F   0  0  0  0  0  0  0  0  0  0  0  0
   43.9780   36.4880   41.7210 F   0  0  0  0  0  0  0  0  0  0  0  0
   45.2290   34.8090   40.9490 F   0  0  0  0  0  0  0  0  0  0  0  0
  1  8  1  0  0  0  0
  1  6  1  0  0  0  0
  2  1  2  0  0  0  0
  3  2  1  0  0  0  0
  3  4  2  0  0  0  0
  4  5  1  0  0  0  0
  5  6  2  0  0  0  0
  5  7  1  0  0  0  0
  7 10  1  0  0  0  0
  9  7  1  0  0  0  0
 11 15  2  0  0  0  0
 11  3  1  0  0  0  0
 12 11  1  0  0  0  0
 13 12  2  0  0  0  0
 13 14  1  0  0  0  0
 14 15  1  0  0  0  0
 16 12  1  0  0  0  0
 17 13  1  0  0  0  0
 18 14  1  0  0  0  0
 18 19  1  0  0  0  0
 20 19  2  0  0  0  0
 21 20  1  0  0  0  0
 22 29  1  0  0  0  0
 22 21  2  0  0  0  0
 23 22  1  0  0  0  0
 24 26  1  0  0  0  0
 24 23  2  0  0  0  0
 25 24  1  0  0  0  0
 26 28  2  0  0  0  0
 27 26  1  0  0  0  0
 28 29  1  0  0  0  0
 29 18  2  0  0  0  0
 30 31  1  0  0  0  0
 30 36  1  1  0  0  0
 30  2  1  0  0  0  0
 31 37  1  0  0  0  0
 32 38  1  0  0  0  0
 32 31  2  0  0  0  0
 33 39  1  6  0  0  0
 33 32  1  0  0  0  0
 34 33  1  0  0  0  0
 34 40  1  0  0  0  0
 34 35  1  0  0  0  0
 35 30  1  0  0  0  0
 41 34  1  0  0  0  0
 42 35  1  0  0  0  0
 43 35  1  0  0  0  0
 44 45  1  0  0  0  0
 44 33  1  0  0  0  0
 46 44  1  0  0  0  0
 47 44  1  0  0  0  0
M  END
>  <minimizedAffinity>
-6.74471474

>  <minimizedRMSD>
0.123695217

$$$$
