
 OpenBabel03232520493D

 27 28  0  0  1  0  0  0  0  0999 V2000
   46.1380   33.7130   45.4230 C   0  0  2  0  0  0  0  0  0  0  0  0
   44.9810   34.6780   45.5450 C   0  0  0  0  0  0  0  0  0  0  0  0
   44.7070   35.5350   44.4160 C   0  0  0  0  0  0  0  0  0  0  0  0
   45.5300   35.4500   43.2130 C   0  0  1  0  0  0  0  0  0  0  0  0
   46.6950   34.5510   43.2460 C   0  0  0  0  0  0  0  0  0  0  0  0
   46.3420   33.2880   43.9990 C   0  0  0  0  0  0  0  0  0  0  0  0
   47.0360   34.3090   45.7300 H   0  0  0  0  0  0  0  0  0  0  0  0
   44.2970   34.8570   46.3400 H   0  0  0  0  0  0  0  0  0  0  0  0
   43.8950   36.2290   44.4710 H   0  0  0  0  0  0  0  0  0  0  0  0
   45.9140   36.4830   42.9650 H   0  0  0  0  0  0  0  0  0  0  0  0
   47.5210   35.0620   43.8130 H   0  0  0  0  0  0  0  0  0  0  0  0
   47.0050   34.3370   42.2060 H   0  0  0  0  0  0  0  0  0  0  0  0
   45.4000   32.8520   43.6430 H   0  0  0  0  0  0  0  0  0  0  0  0
   47.1460   32.5340   43.9380 H   0  0  0  0  0  0  0  0  0  0  0  0
   45.2780   32.8560   47.5700 C   0  0  0  0  0  0  0  0  0  0  0  0
   45.9750   32.6200   46.3860 C   0  0  0  0  0  0  0  0  0  0  0  0
   46.5050   31.3400   46.1870 C   0  0  0  0  0  0  0  0  0  0  0  0
   46.3270   30.3880   47.1350 N   0  0  0  0  0  0  0  0  0  0  0  0
   45.6440   30.6480   48.2770 C   0  0  0  0  0  0  0  0  0  0  0  0
   45.1240   31.8770   48.4900 N   0  0  0  0  0  0  0  0  0  0  0  0
   44.8250   33.8000   47.8370 H   0  0  0  0  0  0  0  0  0  0  0  0
   47.0540   31.0770   45.2990 H   0  0  0  0  0  0  0  0  0  0  0  0
   45.5730   29.8110   48.9480 H   0  0  0  0  0  0  0  0  0  0  0  0
   44.6190   35.1080   42.0340 C   0  0  0  0  0  0  0  0  0  0  0  0
   43.6720   34.1680   42.3540 F   0  0  0  0  0  0  0  0  0  0  0  0
   43.9180   36.2650   41.6860 F   0  0  0  0  0  0  0  0  0  0  0  0
   45.3840   34.7510   40.9380 F   0  0  0  0  0  0  0  0  0  0  0  0
  1  2  1  0  0  0  0
  1  7  1  1  0  0  0
  1 16  1  0  0  0  0
  2  8  1  0  0  0  0
  3  9  1  0  0  0  0
  3  2  2  0  0  0  0
  4 10  1  6  0  0  0
  4  5  1  0  0  0  0
  4  3  1  0  0  0  0
  5 11  1  0  0  0  0
  5  6  1  0  0  0  0
  6  1  1  0  0  0  0
 12  5  1  0  0  0  0
 13  6  1  0  0  0  0
 14  6  1  0  0  0  0
 15 21  1  0  0  0  0
 15 20  1  0  0  0  0
 16 15  2  0  0  0  0
 17 16  1  0  0  0  0
 17 18  2  0  0  0  0
 18 19  1  0  0  0  0
 19 20  2  0  0  0  0
 19 23  1  0  0  0  0
 22 17  1  0  0  0  0
 24 25  1  0  0  0  0
 24  4  1  0  0  0  0
 26 24  1  0  0  0  0
 27 24  1  0  0  0  0
M  END
>  <minimizedAffinity>
-5.06067324

>  <minimizedRMSD>
0.421088398

$$$$
