
 OpenBabel03232520593D

 47 51  0  0  1  0  0  0  0  0999 V2000
   45.3490   32.9450   47.4660 C   0  0  0  0  0  0  0  0  0  0  0  0
   45.9120   32.6870   46.2570 C   0  0  0  0  0  0  0  0  0  0  0  0
   46.2020   31.3350   46.0280 C   0  0  0  0  0  0  0  0  0  0  0  0
   45.9490   30.3460   46.9210 N   0  0  0  0  0  0  0  0  0  0  0  0
   45.3730   30.6610   48.1420 C   0  0  0  0  0  0  0  0  0  0  0  0
   45.0890   31.9420   48.3850 N   0  0  0  0  0  0  0  0  0  0  0  0
   45.1050   29.6550   49.0960 N   0  0  0  0  0  0  0  0  0  0  0  0
   45.0900   33.9530   47.7470 H   0  0  0  0  0  0  0  0  0  0  0  0
   44.4230   28.9140   48.7950 H   0  0  0  0  0  0  0  0  0  0  0  0
   45.5510   29.6420   50.0400 H   0  0  0  0  0  0  0  0  0  0  0  0
   46.8540   30.6450   44.9300 C   0  0  0  0  0  0  0  0  0  0  0  0
   46.5490   29.7270   43.9760 C   0  0  0  0  0  0  0  0  0  0  0  0
   47.7180   29.4630   43.2380 C   0  0  0  0  0  0  0  0  0  0  0  0
   48.6590   30.2320   43.7840 N   0  0  0  0  0  0  0  0  0  0  0  0
   48.1800   30.9380   44.7790 N   0  0  0  0  0  0  0  0  0  0  0  0
   45.5270   29.3750   43.9430 H   0  0  0  0  0  0  0  0  0  0  0  0
   47.6600   28.7500   42.4320 H   0  0  0  0  0  0  0  0  0  0  0  0
   49.9620   30.1400   43.1940 C   0  0  0  0  0  0  0  0  0  0  0  0
   50.2320   31.0690   42.2440 N   0  0  0  0  0  0  0  0  0  0  0  0
   51.4370   31.0580   41.6330 C   0  0  0  0  0  3  0  0  0  0  0  0
   52.4190   30.1550   41.9190 N   0  0  0  0  0  0  0  0  0  0  0  0
   52.1390   29.2400   42.8630 C   0  0  0  0  0  0  0  0  0  0  0  0
   53.0890   28.2840   43.2100 C   0  0  0  0  0  3  0  0  0  0  0  0
   52.8000   27.3430   44.1810 C   0  0  0  0  0  0  0  0  0  0  0  0
   53.5730   26.6200   44.4150 H   0  0  0  0  0  0  0  0  0  0  0  0
   51.5670   27.3490   44.8100 C   0  0  0  0  0  0  0  0  0  0  0  0
   51.3530   26.5960   45.5780 H   0  0  0  0  0  0  0  0  0  0  0  0
   50.5810   28.2870   44.4950 C   0  0  0  0  0  3  0  0  0  0  0  0
   50.9210   29.2050   43.5200 C   0  0  0  0  0  0  0  0  0  0  0  0
   46.1440   33.6320   45.2180 C   0  0  2  0  0  0  0  0  0  0  0  0
   44.9380   34.7280   45.4650 C   0  0  0  0  0  0  0  0  0  0  0  0
   44.6880   35.6540   44.3950 C   0  0  0  0  0  0  0  0  0  0  0  0
   45.4720   35.5740   43.1560 C   0  0  1  0  0  0  0  0  0  0  0  0
   46.5210   34.5630   43.0910 C   0  0  0  0  0  0  0  0  0  0  0  0
   46.0780   33.3380   43.8560 C   0  0  0  0  0  0  0  0  0  0  0  0
   46.9670   34.3420   45.5250 H   0  0  0  0  0  0  0  0  0  0  0  0
   44.2750   34.8850   46.3070 H   0  0  0  0  0  0  0  0  0  0  0  0
   43.9240   36.3760   44.5140 H   0  0  0  0  0  0  0  0  0  0  0  0
   45.8950   36.5760   42.9310 H   0  0  0  0  0  0  0  0  0  0  0  0
   47.5290   34.9020   43.4540 H   0  0  0  0  0  0  0  0  0  0  0  0
   46.7080   34.3340   42.0010 H   0  0  0  0  0  0  0  0  0  0  0  0
   45.1110   33.0060   43.4210 H   0  0  0  0  0  0  0  0  0  0  0  0
   46.9210   32.6820   43.5110 H   0  0  0  0  0  0  0  0  0  0  0  0
   44.4350   35.3090   42.0250 C   0  0  0  0  0  0  0  0  0  0  0  0
   43.3810   34.5150   42.4390 F   0  0  0  0  0  0  0  0  0  0  0  0
   43.8820   36.5420   41.6940 F   0  0  0  0  0  0  0  0  0  0  0  0
   45.0840   34.8400   40.8990 F   0  0  0  0  0  0  0  0  0  0  0  0
  1  8  1  0  0  0  0
  1  6  1  0  0  0  0
  2  1  2  0  0  0  0
  3  2  1  0  0  0  0
  3  4  2  0  0  0  0
  4  5  1  0  0  0  0
  5  6  2  0  0  0  0
  5  7  1  0  0  0  0
  7 10  1  0  0  0  0
  9  7  1  0  0  0  0
 11  3  1  0  0  0  0
 12 11  1  0  0  0  0
 13 14  1  0  0  0  0
 13 12  2  0  0  0  0
 14 15  1  0  0  0  0
 15 11  2  0  0  0  0
 16 12  1  0  0  0  0
 17 13  1  0  0  0  0
 18 29  1  0  0  0  0
 18 14  1  0  0  0  0
 19 18  2  0  0  0  0
 20 21  2  0  0  0  0
 20 19  1  0  0  0  0
 21 22  1  0  0  0  0
 22 23  2  0  0  0  0
 22 29  1  0  0  0  0
 23 24  1  0  0  0  0
 24 25  1  0  0  0  0
 24 26  2  0  0  0  0
 26 27  1  0  0  0  0
 28 26  1  0  0  0  0
 29 28  2  0  0  0  0
 30 31  1  0  0  0  0
 30 36  1  1  0  0  0
 30  2  1  0  0  0  0
 31 37  1  0  0  0  0
 32 38  1  0  0  0  0
 32 31  2  0  0  0  0
 33 39  1  6  0  0  0
 33 32  1  0  0  0  0
 34 33  1  0  0  0  0
 34 40  1  0  0  0  0
 34 35  1  0  0  0  0
 35 30  1  0  0  0  0
 41 34  1  0  0  0  0
 42 35  1  0  0  0  0
 43 35  1  0  0  0  0
 44 45  1  0  0  0  0
 44 33  1  0  0  0  0
 46 44  1  0  0  0  0
 47 44  1  0  0  0  0
M  END
>  <minimizedAffinity>
-6.30099249

>  <minimizedRMSD>
0.668144882

$$$$
