
 OpenBabel03232520593D

 47 51  0  0  1  0  0  0  0  0999 V2000
   45.4380   32.8230   47.4890 C   0  0  0  0  0  0  0  0  0  0  0  0
   45.9580   32.5950   46.2550 C   0  0  0  0  0  0  0  0  0  0  0  0
   46.1930   31.2440   45.9640 C   0  0  0  0  0  0  0  0  0  0  0  0
   45.9300   30.2290   46.8250 N   0  0  0  0  0  0  0  0  0  0  0  0
   45.3990   30.5140   48.0730 C   0  0  0  0  0  0  0  0  0  0  0  0
   45.1670   31.7930   48.3740 N   0  0  0  0  0  0  0  0  0  0  0  0
   45.1210   29.4800   48.9930 N   0  0  0  0  0  0  0  0  0  0  0  0
   45.2220   33.8270   47.8160 H   0  0  0  0  0  0  0  0  0  0  0  0
   44.4050   28.7760   48.6830 H   0  0  0  0  0  0  0  0  0  0  0  0
   45.5910   29.4130   49.9240 H   0  0  0  0  0  0  0  0  0  0  0  0
   46.7900   30.5770   44.8220 C   0  0  0  0  0  0  0  0  0  0  0  0
   46.3930   29.9270   43.6960 C   0  0  0  0  0  0  0  0  0  0  0  0
   47.5460   29.4740   43.0280 C   0  0  0  0  0  0  0  0  0  0  0  0
   48.5690   29.8740   43.7810 N   0  0  0  0  0  0  0  0  0  0  0  0
   48.1560   30.5250   44.8410 N   0  0  0  0  0  0  0  0  0  0  0  0
   45.3290   29.8690   43.5130 H   0  0  0  0  0  0  0  0  0  0  0  0
   47.4170   28.9310   42.1060 H   0  0  0  0  0  0  0  0  0  0  0  0
   49.8740   29.5270   43.3000 C   0  0  0  0  0  0  0  0  0  0  0  0
   50.8990   29.8580   44.1230 N   0  0  0  0  0  0  0  0  0  0  0  0
   52.1660   29.5680   43.7500 C   0  0  0  0  0  3  0  0  0  0  0  0
   52.4830   28.9530   42.5750 N   0  0  0  0  0  0  0  0  0  0  0  0
   51.4570   28.6300   41.7680 C   0  0  0  0  0  0  0  0  0  0  0  0
   51.7020   27.9990   40.5500 C   0  0  0  0  0  3  0  0  0  0  0  0
   50.6450   27.6680   39.7210 C   0  0  0  0  0  0  0  0  0  0  0  0
   50.8880   27.1790   38.7860 H   0  0  0  0  0  0  0  0  0  0  0  0
   49.3470   27.9630   40.0980 C   0  0  0  0  0  0  0  0  0  0  0  0
   48.5200   27.6920   39.4280 H   0  0  0  0  0  0  0  0  0  0  0  0
   49.0530   28.5940   41.3080 C   0  0  0  0  0  3  0  0  0  0  0  0
   50.1420   28.9030   42.0990 C   0  0  0  0  0  0  0  0  0  0  0  0
   46.1950   33.5720   45.2470 C   0  0  2  0  0  0  0  0  0  0  0  0
   44.9660   34.6410   45.5010 C   0  0  0  0  0  0  0  0  0  0  0  0
   44.7230   35.5930   44.4520 C   0  0  0  0  0  0  0  0  0  0  0  0
   45.5330   35.5610   43.2280 C   0  0  1  0  0  0  0  0  0  0  0  0
   46.6000   34.5700   43.1560 C   0  0  0  0  0  0  0  0  0  0  0  0
   46.1620   33.3160   43.8770 C   0  0  0  0  0  0  0  0  0  0  0  0
   47.0000   34.2880   45.5920 H   0  0  0  0  0  0  0  0  0  0  0  0
   44.2830   34.7640   46.3320 H   0  0  0  0  0  0  0  0  0  0  0  0
   43.9440   36.2990   44.5750 H   0  0  0  0  0  0  0  0  0  0  0  0
   45.9440   36.5760   43.0400 H   0  0  0  0  0  0  0  0  0  0  0  0
   47.5940   34.9150   43.5500 H   0  0  0  0  0  0  0  0  0  0  0  0
   46.8130   34.3750   42.0640 H   0  0  0  0  0  0  0  0  0  0  0  0
   45.2100   32.9810   43.4130 H   0  0  0  0  0  0  0  0  0  0  0  0
   47.0230   32.6850   43.5310 H   0  0  0  0  0  0  0  0  0  0  0  0
   44.5240   35.3120   42.0680 C   0  0  0  0  0  0  0  0  0  0  0  0
   43.4520   34.5260   42.4500 F   0  0  0  0  0  0  0  0  0  0  0  0
   43.9920   36.5510   41.7280 F   0  0  0  0  0  0  0  0  0  0  0  0
   45.1980   34.8410   40.9570 F   0  0  0  0  0  0  0  0  0  0  0  0
  1  8  1  0  0  0  0
  1  6  1  0  0  0  0
  2  1  2  0  0  0  0
  3  2  1  0  0  0  0
  3  4  2  0  0  0  0
  4  5  1  0  0  0  0
  5  6  2  0  0  0  0
  5  7  1  0  0  0  0
  7 10  1  0  0  0  0
  9  7  1  0  0  0  0
 11 15  2  0  0  0  0
 11  3  1  0  0  0  0
 12 11  1  0  0  0  0
 13 12  2  0  0  0  0
 13 14  1  0  0  0  0
 14 15  1  0  0  0  0
 16 12  1  0  0  0  0
 17 13  1  0  0  0  0
 18 14  1  0  0  0  0
 18 19  1  0  0  0  0
 20 19  2  0  0  0  0
 21 20  1  0  0  0  0
 22 29  1  0  0  0  0
 22 21  2  0  0  0  0
 23 22  1  0  0  0  0
 24 26  1  0  0  0  0
 24 23  2  0  0  0  0
 25 24  1  0  0  0  0
 26 28  2  0  0  0  0
 27 26  1  0  0  0  0
 28 29  1  0  0  0  0
 29 18  2  0  0  0  0
 30 31  1  0  0  0  0
 30 36  1  1  0  0  0
 30  2  1  0  0  0  0
 31 37  1  0  0  0  0
 32 38  1  0  0  0  0
 32 31  2  0  0  0  0
 33 39  1  6  0  0  0
 33 32  1  0  0  0  0
 34 33  1  0  0  0  0
 34 40  1  0  0  0  0
 34 35  1  0  0  0  0
 35 30  1  0  0  0  0
 41 34  1  0  0  0  0
 42 35  1  0  0  0  0
 43 35  1  0  0  0  0
 44 45  1  0  0  0  0
 44 33  1  0  0  0  0
 46 44  1  0  0  0  0
 47 44  1  0  0  0  0
M  END
>  <minimizedAffinity>
-6.05873489

>  <minimizedRMSD>
0.089412272

$$$$
