
 OpenBabel03232520523D

 30 31  0  0  1  0  0  0  0  0999 V2000
   46.0500   34.1230   44.3890 C   0  0  2  0  0  0  0  0  0  0  0  0
   44.9150   35.1210   44.4290 C   0  0  0  0  0  0  0  0  0  0  0  0
   44.5050   35.6990   43.1700 C   0  0  0  0  0  0  0  0  0  0  0  0
   45.1600   35.3290   41.9290 C   0  0  1  0  0  0  0  0  0  0  0  0
   46.3070   34.4050   42.0180 C   0  0  0  0  0  0  0  0  0  0  0  0
   46.0700   33.3860   43.0970 C   0  0  0  0  0  0  0  0  0  0  0  0
   46.9820   34.7620   44.4350 H   0  0  0  0  0  0  0  0  0  0  0  0
   44.2810   35.5480   45.1930 H   0  0  0  0  0  0  0  0  0  0  0  0
   43.7030   36.4180   43.1110 H   0  0  0  0  0  0  0  0  0  0  0  0
   45.4910   36.2590   41.4080 H   0  0  0  0  0  0  0  0  0  0  0  0
   46.4840   33.9000   41.0570 H   0  0  0  0  0  0  0  0  0  0  0  0
   47.2420   34.9600   42.2740 H   0  0  0  0  0  0  0  0  0  0  0  0
   46.8660   32.6480   43.0840 H   0  0  0  0  0  0  0  0  0  0  0  0
   45.0610   32.9520   42.9020 H   0  0  0  0  0  0  0  0  0  0  0  0
   45.2010   33.6680   46.6380 C   0  0  0  0  0  0  0  0  0  0  0  0
   46.0270   33.3080   45.5910 C   0  0  0  0  0  0  0  0  0  0  0  0
   46.8090   32.1730   45.7740 C   0  0  0  0  0  0  0  0  0  0  0  0
   46.7540   31.4690   46.9190 N   0  0  0  0  0  0  0  0  0  0  0  0
   45.9300   31.8460   47.9410 C   0  0  0  0  0  0  0  0  0  0  0  0
   45.1630   32.9390   47.7880 N   0  0  0  0  0  0  0  0  0  0  0  0
   44.5310   34.5130   46.6750 H   0  0  0  0  0  0  0  0  0  0  0  0
   47.4760   31.8390   44.9920 H   0  0  0  0  0  0  0  0  0  0  0  0
   45.9010   31.0390   49.1880 C   0  0  0  0  0  0  0  0  0  0  0  0
   45.2020   29.8500   49.0290 F   0  0  0  0  0  0  0  0  0  0  0  0
   47.1360   30.7320   49.6800 F   0  0  0  0  0  0  0  0  0  0  0  0
   45.2090   31.7160   50.1990 F   0  0  0  0  0  0  0  0  0  0  0  0
   44.0950   34.7280   40.9950 C   0  0  0  0  0  0  0  0  0  0  0  0
   43.1440   34.0040   41.6700 F   0  0  0  0  0  0  0  0  0  0  0  0
   43.4220   35.8020   40.3980 F   0  0  0  0  0  0  0  0  0  0  0  0
   44.7050   34.0080   39.9850 F   0  0  0  0  0  0  0  0  0  0  0  0
  1  2  1  0  0  0  0
  1  7  1  1  0  0  0
  1 16  1  0  0  0  0
  2  8  1  0  0  0  0
  3  2  2  0  0  0  0
  4 10  1  6  0  0  0
  4  5  1  0  0  0  0
  4  3  1  0  0  0  0
  5 12  1  0  0  0  0
  5  6  1  0  0  0  0
  6  1  1  0  0  0  0
  9  3  1  0  0  0  0
 11  5  1  0  0  0  0
 13  6  1  0  0  0  0
 14  6  1  0  0  0  0
 15 21  1  0  0  0  0
 15 20  1  0  0  0  0
 16 17  1  0  0  0  0
 16 15  2  0  0  0  0
 17 18  2  0  0  0  0
 18 19  1  0  0  0  0
 19 23  1  0  0  0  0
 20 19  2  0  0  0  0
 22 17  1  0  0  0  0
 23 25  1  0  0  0  0
 23 26  1  0  0  0  0
 24 23  1  0  0  0  0
 27 28  1  0  0  0  0
 27  4  1  0  0  0  0
 29 27  1  0  0  0  0
 30 27  1  0  0  0  0
M  END
>  <minimizedAffinity>
-5.69124842

>  <minimizedRMSD>
1.36242342

$$$$
