
 OpenBabel03232521003D

 47 51  0  0  1  0  0  0  0  0999 V2000
   45.3700   32.8350   47.4860 C   0  0  0  0  0  0  0  0  0  0  0  0
   45.9400   32.6060   46.2740 C   0  0  0  0  0  0  0  0  0  0  0  0
   46.2260   31.2600   46.0110 C   0  0  0  0  0  0  0  0  0  0  0  0
   45.9630   30.2480   46.8770 N   0  0  0  0  0  0  0  0  0  0  0  0
   45.3800   30.5340   48.1010 C   0  0  0  0  0  0  0  0  0  0  0  0
   45.0990   31.8080   48.3760 N   0  0  0  0  0  0  0  0  0  0  0  0
   45.1010   29.5040   49.0260 N   0  0  0  0  0  0  0  0  0  0  0  0
   45.1120   33.8360   47.7910 H   0  0  0  0  0  0  0  0  0  0  0  0
   44.4180   28.7740   48.7020 H   0  0  0  0  0  0  0  0  0  0  0  0
   45.5390   29.4640   49.9730 H   0  0  0  0  0  0  0  0  0  0  0  0
   46.8840   30.5960   44.9010 C   0  0  0  0  0  0  0  0  0  0  0  0
   46.5490   29.8560   43.8110 C   0  0  0  0  0  0  0  0  0  0  0  0
   47.7400   29.4810   43.1600 C   0  0  0  0  0  0  0  0  0  0  0  0
   48.7210   30.0120   43.8870 N   0  0  0  0  0  0  0  0  0  0  0  0
   48.2480   30.6730   44.9160 N   0  0  0  0  0  0  0  0  0  0  0  0
   45.4960   29.6890   43.6350 H   0  0  0  0  0  0  0  0  0  0  0  0
   47.6630   28.8830   42.2660 H   0  0  0  0  0  0  0  0  0  0  0  0
   50.0520   29.7660   43.4180 C   0  0  0  0  0  0  0  0  0  0  0  0
   50.9890   29.6230   44.3870 N   0  0  0  0  0  0  0  0  0  0  0  0
   52.2730   29.3870   44.0370 C   0  0  0  0  0  3  0  0  0  0  0  0
   52.6940   29.2840   42.7440 N   0  0  0  0  0  0  0  0  0  0  0  0
   51.7550   29.4280   41.7910 C   0  0  0  0  0  0  0  0  0  0  0  0
   52.1070   29.3360   40.4470 C   0  0  0  0  0  3  0  0  0  0  0  0
   51.1410   29.4850   39.4690 C   0  0  0  0  0  0  0  0  0  0  0  0
   51.4660   29.4050   38.4390 H   0  0  0  0  0  0  0  0  0  0  0  0
   49.8250   29.7260   39.8220 C   0  0  0  0  0  0  0  0  0  0  0  0
   49.0710   29.8420   39.0340 H   0  0  0  0  0  0  0  0  0  0  0  0
   49.4250   29.8270   41.1560 C   0  0  0  0  0  3  0  0  0  0  0  0
   50.4260   29.6700   42.0930 C   0  0  0  0  0  0  0  0  0  0  0  0
   46.1840   33.5770   45.2620 C   0  0  2  0  0  0  0  0  0  0  0  0
   44.9580   34.6520   45.5060 C   0  0  0  0  0  0  0  0  0  0  0  0
   44.7210   35.5990   44.4510 C   0  0  0  0  0  0  0  0  0  0  0  0
   45.5340   35.5560   43.2290 C   0  0  1  0  0  0  0  0  0  0  0  0
   46.5970   34.5600   43.1660 C   0  0  0  0  0  0  0  0  0  0  0  0
   46.1530   33.3130   43.8930 C   0  0  0  0  0  0  0  0  0  0  0  0
   46.9900   34.2910   45.6040 H   0  0  0  0  0  0  0  0  0  0  0  0
   44.2740   34.7820   46.3350 H   0  0  0  0  0  0  0  0  0  0  0  0
   43.9450   36.3080   44.5680 H   0  0  0  0  0  0  0  0  0  0  0  0
   45.9490   36.5680   43.0360 H   0  0  0  0  0  0  0  0  0  0  0  0
   47.5920   34.9040   43.5600 H   0  0  0  0  0  0  0  0  0  0  0  0
   46.8120   34.3580   42.0750 H   0  0  0  0  0  0  0  0  0  0  0  0
   45.2010   32.9780   43.4280 H   0  0  0  0  0  0  0  0  0  0  0  0
   47.0120   32.6760   43.5520 H   0  0  0  0  0  0  0  0  0  0  0  0
   44.5260   35.3040   42.0680 C   0  0  0  0  0  0  0  0  0  0  0  0
   43.4560   34.5160   42.4500 F   0  0  0  0  0  0  0  0  0  0  0  0
   43.9920   36.5420   41.7270 F   0  0  0  0  0  0  0  0  0  0  0  0
   45.2030   34.8340   40.9580 F   0  0  0  0  0  0  0  0  0  0  0  0
  1  8  1  0  0  0  0
  1  6  1  0  0  0  0
  2  1  2  0  0  0  0
  3  2  1  0  0  0  0
  3  4  2  0  0  0  0
  4  5  1  0  0  0  0
  5  6  2  0  0  0  0
  5  7  1  0  0  0  0
  7 10  1  0  0  0  0
  9  7  1  0  0  0  0
 11 15  2  0  0  0  0
 11  3  1  0  0  0  0
 12 11  1  0  0  0  0
 13 12  2  0  0  0  0
 13 14  1  0  0  0  0
 14 15  1  0  0  0  0
 16 12  1  0  0  0  0
 17 13  1  0  0  0  0
 18 14  1  0  0  0  0
 18 19  1  0  0  0  0
 20 19  2  0  0  0  0
 21 20  1  0  0  0  0
 22 29  1  0  0  0  0
 22 21  2  0  0  0  0
 23 22  1  0  0  0  0
 24 26  1  0  0  0  0
 24 23  2  0  0  0  0
 25 24  1  0  0  0  0
 26 28  2  0  0  0  0
 27 26  1  0  0  0  0
 28 29  1  0  0  0  0
 29 18  2  0  0  0  0
 30 31  1  0  0  0  0
 30 36  1  1  0  0  0
 30  2  1  0  0  0  0
 31 37  1  0  0  0  0
 32 38  1  0  0  0  0
 32 31  2  0  0  0  0
 33 39  1  6  0  0  0
 33 32  1  0  0  0  0
 34 33  1  0  0  0  0
 34 40  1  0  0  0  0
 34 35  1  0  0  0  0
 35 30  1  0  0  0  0
 41 34  1  0  0  0  0
 42 35  1  0  0  0  0
 43 35  1  0  0  0  0
 44 45  1  0  0  0  0
 44 33  1  0  0  0  0
 46 44  1  0  0  0  0
 47 44  1  0  0  0  0
M  END
>  <minimizedAffinity>
-6.23950005

>  <minimizedRMSD>
0.221180201

$$$$
