
 OpenBabel03232518423D

 20 20  0  0  0  0  0  0  0  0999 V2000
   44.7240   35.3650   44.9790 C   0  0  0  0  0  0  0  0  0  0  0  0
   45.6150   34.8610   44.0320 C   0  0  0  0  0  0  0  0  0  0  0  0
   46.3380   33.7570   44.3800 C   0  0  0  0  0  0  0  0  0  0  0  0
   46.1320   33.2280   45.6340 N   0  0  0  0  0  0  0  0  0  0  0  0
   45.2790   33.7220   46.5220 C   0  0  0  0  0  0  0  0  0  0  0  0
   44.5730   34.8000   46.1810 N   0  0  0  0  0  0  0  0  0  0  0  0
   44.1410   36.2350   44.7300 H   0  0  0  0  0  0  0  0  0  0  0  0
   45.7490   35.4930   42.7140 C   0  0  0  0  0  0  0  0  0  0  0  0
   44.9830   36.6690   42.7330 F   0  0  0  0  0  0  0  0  0  0  0  0
   45.1550   34.7370   41.7180 F   0  0  0  0  0  0  0  0  0  0  0  0
   47.0320   35.7850   42.3910 F   0  0  0  0  0  0  0  0  0  0  0  0
   47.3400   33.0720   43.5580 C   0  0  0  0  0  0  0  0  0  0  0  0
   46.9230   32.7580   42.2780 F   0  0  0  0  0  0  0  0  0  0  0  0
   47.8200   31.9200   44.1860 F   0  0  0  0  0  0  0  0  0  0  0  0
   48.4680   33.8530   43.3830 F   0  0  0  0  0  0  0  0  0  0  0  0
   45.0860   33.1760   47.7770 O   0  0  0  0  0  0  0  0  0  0  0  0
   45.8680   32.1670   48.3300 C   0  0  0  0  0  0  0  0  0  0  0  0
   47.2010   32.5160   48.3930 F   0  0  0  0  0  0  0  0  0  0  0  0
   45.6700   30.9630   47.6950 F   0  0  0  0  0  0  0  0  0  0  0  0
   45.4780   32.0450   49.6750 F   0  0  0  0  0  0  0  0  0  0  0  0
  1  6  1  0  0  0  0
  2  3  1  0  0  0  0
  2  1  2  0  0  0  0
  3  4  2  0  0  0  0
  4  5  1  0  0  0  0
  5 16  1  0  0  0  0
  6  5  2  0  0  0  0
  7  1  1  0  0  0  0
  8  9  1  0  0  0  0
  8  2  1  0  0  0  0
 10  8  1  0  0  0  0
 11  8  1  0  0  0  0
 12 14  1  0  0  0  0
 12  3  1  0  0  0  0
 13 12  1  0  0  0  0
 15 12  1  0  0  0  0
 16 17  1  0  0  0  0
 17 18  1  0  0  0  0
 17 20  1  0  0  0  0
 19 17  1  0  0  0  0
M  END
>  <minimizedAffinity>
-5.30928516

>  <minimizedRMSD>
0.430747002

$$$$
