
 OpenBabel03232521003D

 47 51  0  0  1  0  0  0  0  0999 V2000
   45.3810   32.9490   47.5390 C   0  0  0  0  0  0  0  0  0  0  0  0
   45.9350   32.6770   46.3290 C   0  0  0  0  0  0  0  0  0  0  0  0
   46.2040   31.3200   46.1060 C   0  0  0  0  0  0  0  0  0  0  0  0
   45.9400   30.3390   47.0050 N   0  0  0  0  0  0  0  0  0  0  0  0
   45.3730   30.6690   48.2260 C   0  0  0  0  0  0  0  0  0  0  0  0
   45.1090   31.9540   48.4640 N   0  0  0  0  0  0  0  0  0  0  0  0
   45.0930   29.6720   49.1860 N   0  0  0  0  0  0  0  0  0  0  0  0
   45.1370   33.9620   47.8150 H   0  0  0  0  0  0  0  0  0  0  0  0
   44.3990   28.9390   48.8910 H   0  0  0  0  0  0  0  0  0  0  0  0
   45.5410   29.6560   50.1290 H   0  0  0  0  0  0  0  0  0  0  0  0
   46.8430   30.6140   45.0100 C   0  0  0  0  0  0  0  0  0  0  0  0
   48.0880   30.4430   44.4930 C   0  0  0  0  0  0  0  0  0  0  0  0
   47.9750   29.6340   43.3480 C   0  0  0  0  0  0  0  0  0  0  0  0
   46.6760   29.3610   43.2370 N   0  0  0  0  0  0  0  0  0  0  0  0
   45.9870   29.9230   44.1990 N   0  0  0  0  0  0  0  0  0  0  0  0
   48.9050   30.9250   45.0130 H   0  0  0  0  0  0  0  0  0  0  0  0
   48.8750   29.3940   42.8050 H   0  0  0  0  0  0  0  0  0  0  0  0
   46.3020   28.5350   42.1260 C   0  0  0  0  0  0  0  0  0  0  0  0
   47.1470   28.5760   41.0670 N   0  0  0  0  0  0  0  0  0  0  0  0
   46.8740   27.8280   39.9750 C   0  0  0  0  0  3  0  0  0  0  0  0
   45.7810   27.0200   39.8700 N   0  0  0  0  0  0  0  0  0  0  0  0
   44.9500   26.9880   40.9270 C   0  0  0  0  0  0  0  0  0  0  0  0
   43.8120   26.1860   40.8950 C   0  0  0  0  0  3  0  0  0  0  0  0
   42.9610   26.1540   41.9840 C   0  0  0  0  0  0  0  0  0  0  0  0
   42.0900   25.5150   41.9100 H   0  0  0  0  0  0  0  0  0  0  0  0
   43.2360   26.9180   43.1050 C   0  0  0  0  0  0  0  0  0  0  0  0
   42.5490   26.8810   43.9600 H   0  0  0  0  0  0  0  0  0  0  0  0
   44.3640   27.7370   43.1830 C   0  0  0  0  0  3  0  0  0  0  0  0
   45.1820   27.7320   42.0700 C   0  0  0  0  0  0  0  0  0  0  0  0
   46.1780   33.6130   45.2840 C   0  0  2  0  0  0  0  0  0  0  0  0
   44.9610   34.7030   45.5020 C   0  0  0  0  0  0  0  0  0  0  0  0
   44.7230   35.6170   44.4190 C   0  0  0  0  0  0  0  0  0  0  0  0
   45.5270   35.5300   43.1930 C   0  0  1  0  0  0  0  0  0  0  0  0
   46.5830   34.5260   43.1550 C   0  0  0  0  0  0  0  0  0  0  0  0
   46.1370   33.3050   43.9250 C   0  0  0  0  0  0  0  0  0  0  0  0
   46.9920   34.3320   45.5980 H   0  0  0  0  0  0  0  0  0  0  0  0
   44.2840   34.8650   46.3310 H   0  0  0  0  0  0  0  0  0  0  0  0
   43.9520   36.3350   44.5180 H   0  0  0  0  0  0  0  0  0  0  0  0
   45.9470   36.5330   42.9650 H   0  0  0  0  0  0  0  0  0  0  0  0
   47.5830   34.8750   43.5310 H   0  0  0  0  0  0  0  0  0  0  0  0
   46.7890   34.2870   42.0700 H   0  0  0  0  0  0  0  0  0  0  0  0
   45.1790   32.9620   43.4780 H   0  0  0  0  0  0  0  0  0  0  0  0
   46.9890   32.6520   43.6000 H   0  0  0  0  0  0  0  0  0  0  0  0
   44.5100   35.2470   42.0480 C   0  0  0  0  0  0  0  0  0  0  0  0
   43.4700   34.4270   42.4460 F   0  0  0  0  0  0  0  0  0  0  0  0
   43.9330   36.4690   41.7160 F   0  0  0  0  0  0  0  0  0  0  0  0
   45.1840   34.7990   40.9280 F   0  0  0  0  0  0  0  0  0  0  0  0
  1  8  1  0  0  0  0
  1  6  1  0  0  0  0
  2  1  2  0  0  0  0
  3  2  1  0  0  0  0
  3  4  2  0  0  0  0
  4  5  1  0  0  0  0
  5  6  2  0  0  0  0
  5  7  1  0  0  0  0
  7 10  1  0  0  0  0
  9  7  1  0  0  0  0
 11  3  1  0  0  0  0
 12 11  1  0  0  0  0
 12 16  1  0  0  0  0
 13 12  2  0  0  0  0
 14 13  1  0  0  0  0
 14 15  1  0  0  0  0
 15 11  2  0  0  0  0
 17 13  1  0  0  0  0
 18 14  1  0  0  0  0
 19 18  2  0  0  0  0
 20 19  1  0  0  0  0
 21 20  2  0  0  0  0
 21 22  1  0  0  0  0
 22 29  1  0  0  0  0
 23 22  2  0  0  0  0
 23 24  1  0  0  0  0
 24 26  2  0  0  0  0
 25 24  1  0  0  0  0
 26 28  1  0  0  0  0
 26 27  1  0  0  0  0
 29 18  1  0  0  0  0
 29 28  2  0  0  0  0
 30 31  1  0  0  0  0
 30 36  1  1  0  0  0
 30  2  1  0  0  0  0
 31 37  1  0  0  0  0
 32 38  1  0  0  0  0
 32 31  2  0  0  0  0
 33 39  1  6  0  0  0
 33 32  1  0  0  0  0
 34 33  1  0  0  0  0
 34 40  1  0  0  0  0
 34 35  1  0  0  0  0
 35 30  1  0  0  0  0
 41 34  1  0  0  0  0
 42 35  1  0  0  0  0
 43 35  1  0  0  0  0
 44 45  1  0  0  0  0
 44 33  1  0  0  0  0
 46 44  1  0  0  0  0
 47 44  1  0  0  0  0
M  END
>  <minimizedAffinity>
-5.78775501

>  <minimizedRMSD>
4.47843933

$$$$
