
 OpenBabel03232520193D

 36 38  0  0  0  0  0  0  0  0999 V2000
   47.5700   34.1730   42.1860 C   0  0  0  0  0  0  0  0  0  0  0  0
   48.4750   35.3040   41.7760 C   0  0  0  0  0  0  0  0  0  0  0  0
   49.8030   35.3170   42.4190 C   0  0  0  0  0  0  0  0  0  0  0  0
   50.4770   33.9830   42.4950 C   0  0  0  0  0  0  0  0  0  0  0  0
   49.5930   32.8470   42.0950 C   0  0  0  0  0  0  0  0  0  0  0  0
   48.2680   33.0290   42.8160 C   0  0  0  0  0  0  0  0  0  0  0  0
   47.9630   36.2740   41.9880 H   0  0  0  0  0  0  0  0  0  0  0  0
   48.6350   35.3140   40.6740 H   0  0  0  0  0  0  0  0  0  0  0  0
   50.4480   36.0240   41.8660 H   0  0  0  0  0  0  0  0  0  0  0  0
   49.6820   35.7340   43.4450 H   0  0  0  0  0  0  0  0  0  0  0  0
   51.4080   33.9670   41.8910 H   0  0  0  0  0  0  0  0  0  0  0  0
   50.8220   33.7710   43.5430 H   0  0  0  0  0  0  0  0  0  0  0  0
   50.0640   31.8910   42.4130 H   0  0  0  0  0  0  0  0  0  0  0  0
   49.4320   32.8420   41.0130 H   0  0  0  0  0  0  0  0  0  0  0  0
   48.4650   33.1350   43.9070 H   0  0  0  0  0  0  0  0  0  0  0  0
   47.6910   32.0850   42.6490 H   0  0  0  0  0  0  0  0  0  0  0  0
   45.2690   34.4240   45.0830 C   0  0  0  0  0  0  0  0  0  0  0  0
   44.5580   35.5910   44.8180 C   0  0  0  0  0  0  0  0  0  0  0  0
   44.8660   36.2890   43.6550 C   0  0  0  0  0  0  0  0  0  0  0  0
   45.8440   35.7950   42.8410 N   0  0  0  0  0  0  0  0  0  0  0  0
   46.5170   34.6530   43.1330 C   0  0  0  0  0  0  0  0  0  0  0  0
   46.2180   33.9740   44.2620 N   0  0  0  0  0  0  0  0  0  0  0  0
   44.9720   33.9360   46.0090 H   0  0  0  0  0  0  0  0  0  0  0  0
   43.7810   36.0430   45.4010 H   0  0  0  0  0  0  0  0  0  0  0  0
   44.4440   37.2030   43.2650 H   0  0  0  0  0  0  0  0  0  0  0  0
   46.9020   33.6500   40.9290 C   0  0  0  0  0  0  0  0  0  0  0  0
   45.7630   32.9470   40.6040 C   0  0  0  0  0  0  0  0  0  0  0  0
   45.5550   32.6940   39.2930 C   0  0  0  0  0  0  0  0  0  0  0  0
   46.4070   33.1030   38.3440 C   0  0  0  0  0  0  0  0  0  0  0  0
   47.7240   33.9750   39.3260 S   0  0  0  0  0  0  0  0  0  0  0  0
   45.1830   32.6910   41.4530 H   0  0  0  0  0  0  0  0  0  0  0  0
   44.6720   32.1420   38.9820 H   0  0  0  0  0  0  0  0  0  0  0  0
   46.4140   32.9640   36.8850 C   0  0  0  0  0  0  0  0  0  0  0  0
   46.3800   31.6670   36.4290 F   0  0  0  0  0  0  0  0  0  0  0  0
   45.3100   33.6630   36.4330 F   0  0  0  0  0  0  0  0  0  0  0  0
   47.5890   33.5320   36.4850 F   0  0  0  0  0  0  0  0  0  0  0  0
  1  6  1  0  0  0  0
  1 21  1  0  0  0  0
  2  7  1  0  0  0  0
  2  1  1  0  0  0  0
  2  3  1  0  0  0  0
  3  4  1  0  0  0  0
  3 10  1  0  0  0  0
  4 12  1  0  0  0  0
  5 13  1  0  0  0  0
  5  4  1  0  0  0  0
  5  6  1  0  0  0  0
  6 15  1  0  0  0  0
  8  2  1  0  0  0  0
  9  3  1  0  0  0  0
 11  4  1  0  0  0  0
 14  5  1  0  0  0  0
 16  6  1  0  0  0  0
 17 23  1  0  0  0  0
 18 17  1  0  0  0  0
 18 24  1  0  0  0  0
 19 18  2  0  0  0  0
 20 21  2  0  0  0  0
 20 19  1  0  0  0  0
 21 22  1  0  0  0  0
 22 17  2  0  0  0  0
 25 19  1  0  0  0  0
 26  1  1  0  0  0  0
 27 26  2  0  0  0  0
 27 31  1  0  0  0  0
 28 27  1  0  0  0  0
 29 28  2  0  0  0  0
 29 30  1  0  0  0  0
 30 26  1  0  0  0  0
 32 28  1  0  0  0  0
 33 29  1  0  0  0  0
 34 33  1  0  0  0  0
 35 33  1  0  0  0  0
 36 33  1  0  0  0  0
M  END
>  <minimizedAffinity>
-5.85879803

>  <minimizedRMSD>
0.0565060638

$$$$
