
 OpenBabel03232521003D

 47 51  0  0  1  0  0  0  0  0999 V2000
   45.2100   32.8060   47.4890 C   0  0  0  0  0  0  0  0  0  0  0  0
   45.9570   32.5820   46.3760 C   0  0  0  0  0  0  0  0  0  0  0  0
   46.4240   31.2670   46.2470 C   0  0  0  0  0  0  0  0  0  0  0  0
   46.1650   30.2810   47.1410 N   0  0  0  0  0  0  0  0  0  0  0  0
   45.3970   30.5610   48.2610 C   0  0  0  0  0  0  0  0  0  0  0  0
   44.9410   31.8050   48.4080 N   0  0  0  0  0  0  0  0  0  0  0  0
   45.1160   29.5580   49.2140 N   0  0  0  0  0  0  0  0  0  0  0  0
   44.8030   33.7850   47.6880 H   0  0  0  0  0  0  0  0  0  0  0  0
   44.5690   28.7340   48.8590 H   0  0  0  0  0  0  0  0  0  0  0  0
   45.4280   29.6230   50.2080 H   0  0  0  0  0  0  0  0  0  0  0  0
   47.2930   30.6270   45.2760 C   0  0  0  0  0  0  0  0  0  0  0  0
   47.2790   30.2890   43.9600 C   0  0  0  0  0  0  0  0  0  0  0  0
   48.4850   29.6230   43.6700 C   0  0  0  0  0  0  0  0  0  0  0  0
   49.1570   29.5980   44.8200 N   0  0  0  0  0  0  0  0  0  0  0  0
   48.4820   30.1810   45.7800 N   0  0  0  0  0  0  0  0  0  0  0  0
   46.4030   30.5670   43.3910 H   0  0  0  0  0  0  0  0  0  0  0  0
   48.6450   29.2790   42.6620 H   0  0  0  0  0  0  0  0  0  0  0  0
   50.4410   28.9620   44.7800 C   0  0  0  0  0  0  0  0  0  0  0  0
   50.8440   28.5520   43.5530 N   0  0  0  0  0  0  0  0  0  0  0  0
   52.0430   27.9410   43.4210 C   0  0  0  0  0  3  0  0  0  0  0  0
   52.8880   27.7080   44.4640 N   0  0  0  0  0  0  0  0  0  0  0  0
   52.4770   28.1200   45.6770 C   0  0  0  0  0  0  0  0  0  0  0  0
   53.2850   27.9170   46.7920 C   0  0  0  0  0  3  0  0  0  0  0  0
   52.8610   28.3410   48.0390 C   0  0  0  0  0  0  0  0  0  0  0  0
   53.5270   28.1590   48.8740 H   0  0  0  0  0  0  0  0  0  0  0  0
   51.6350   28.9660   48.1790 C   0  0  0  0  0  0  0  0  0  0  0  0
   51.3130   29.2960   49.1750 H   0  0  0  0  0  0  0  0  0  0  0  0
   50.7900   29.1910   47.0900 C   0  0  0  0  0  3  0  0  0  0  0  0
   51.2600   28.7490   45.8700 C   0  0  0  0  0  0  0  0  0  0  0  0
   46.2210   33.5170   45.3370 C   0  0  2  0  0  0  0  0  0  0  0  0
   45.0180   34.6250   45.5490 C   0  0  0  0  0  0  0  0  0  0  0  0
   44.8010   35.5450   44.4670 C   0  0  0  0  0  0  0  0  0  0  0  0
   45.6130   35.4510   43.2470 C   0  0  1  0  0  0  0  0  0  0  0  0
   46.6550   34.4310   43.2140 C   0  0  0  0  0  0  0  0  0  0  0  0
   46.1850   33.2150   43.9760 C   0  0  0  0  0  0  0  0  0  0  0  0
   47.0420   34.2240   45.6590 H   0  0  0  0  0  0  0  0  0  0  0  0
   44.3370   34.7930   46.3730 H   0  0  0  0  0  0  0  0  0  0  0  0
   44.0400   36.2740   44.5630 H   0  0  0  0  0  0  0  0  0  0  0  0
   46.0490   36.4480   43.0250 H   0  0  0  0  0  0  0  0  0  0  0  0
   47.6570   34.7660   43.5980 H   0  0  0  0  0  0  0  0  0  0  0  0
   46.8660   34.1930   42.1290 H   0  0  0  0  0  0  0  0  0  0  0  0
   45.2260   32.8870   43.5210 H   0  0  0  0  0  0  0  0  0  0  0  0
   47.0310   32.5510   43.6550 H   0  0  0  0  0  0  0  0  0  0  0  0
   44.6010   35.1860   42.0930 C   0  0  0  0  0  0  0  0  0  0  0  0
   43.5680   34.3470   42.4690 F   0  0  0  0  0  0  0  0  0  0  0  0
   44.0130   36.4100   41.7900 F   0  0  0  0  0  0  0  0  0  0  0  0
   45.2810   34.7710   40.9640 F   0  0  0  0  0  0  0  0  0  0  0  0
  1  8  1  0  0  0  0
  1  6  1  0  0  0  0
  2  1  2  0  0  0  0
  3  2  1  0  0  0  0
  3  4  2  0  0  0  0
  4  5  1  0  0  0  0
  5  6  2  0  0  0  0
  5  7  1  0  0  0  0
  7 10  1  0  0  0  0
  9  7  1  0  0  0  0
 11 15  2  0  0  0  0
 11  3  1  0  0  0  0
 12 11  1  0  0  0  0
 13 12  2  0  0  0  0
 13 14  1  0  0  0  0
 14 15  1  0  0  0  0
 16 12  1  0  0  0  0
 17 13  1  0  0  0  0
 18 14  1  0  0  0  0
 18 29  1  0  0  0  0
 19 18  2  0  0  0  0
 20 19  1  0  0  0  0
 20 21  2  0  0  0  0
 21 22  1  0  0  0  0
 22 29  2  0  0  0  0
 22 23  1  0  0  0  0
 23 24  2  0  0  0  0
 24 26  1  0  0  0  0
 24 25  1  0  0  0  0
 26 27  1  0  0  0  0
 28 26  2  0  0  0  0
 29 28  1  0  0  0  0
 30 31  1  0  0  0  0
 30 36  1  1  0  0  0
 30  2  1  0  0  0  0
 31 37  1  0  0  0  0
 32 38  1  0  0  0  0
 32 31  2  0  0  0  0
 33 39  1  6  0  0  0
 33 32  1  0  0  0  0
 34 33  1  0  0  0  0
 34 40  1  0  0  0  0
 34 35  1  0  0  0  0
 35 30  1  0  0  0  0
 41 34  1  0  0  0  0
 42 35  1  0  0  0  0
 43 35  1  0  0  0  0
 44 45  1  0  0  0  0
 44 33  1  0  0  0  0
 46 44  1  0  0  0  0
 47 44  1  0  0  0  0
M  END
>  <minimizedAffinity>
-6.35532856

>  <minimizedRMSD>
1.47240126

$$$$
