
 OpenBabel03232520553D

 32 33  0  0  1  0  0  0  0  0999 V2000
   46.1140   33.6330   45.2050 C   0  0  2  0  0  0  0  0  0  0  0  0
   45.0320   34.7790   45.4470 C   0  0  0  0  0  0  0  0  0  0  0  0
   44.7820   35.6800   44.3490 C   0  0  0  0  0  0  0  0  0  0  0  0
   45.4630   35.5060   43.0770 C   0  0  1  0  0  0  0  0  0  0  0  0
   46.4700   34.4380   43.0100 C   0  0  0  0  0  0  0  0  0  0  0  0
   45.9380   33.2580   43.8280 C   0  0  0  0  0  0  0  0  0  0  0  0
   46.9690   34.3340   45.4770 H   0  0  0  0  0  0  0  0  0  0  0  0
   44.3880   35.0860   46.2580 H   0  0  0  0  0  0  0  0  0  0  0  0
   44.0870   36.4660   44.4190 H   0  0  0  0  0  0  0  0  0  0  0  0
   45.9330   36.4560   42.7530 H   0  0  0  0  0  0  0  0  0  0  0  0
   47.4430   34.7080   43.4550 H   0  0  0  0  0  0  0  0  0  0  0  0
   46.6100   34.0840   41.9580 H   0  0  0  0  0  0  0  0  0  0  0  0
   46.1560   32.3550   43.3320 H   0  0  0  0  0  0  0  0  0  0  0  0
   44.8010   33.3170   43.6560 H   0  0  0  0  0  0  0  0  0  0  0  0
   45.1420   32.9160   47.3950 C   0  0  0  0  0  0  0  0  0  0  0  0
   45.9160   32.6900   46.2670 C   0  0  0  0  0  0  0  0  0  0  0  0
   46.4920   31.4050   46.1160 C   0  0  0  0  0  0  0  0  0  0  0  0
   46.2440   30.5000   47.0710 N   0  0  0  0  0  0  0  0  0  0  0  0
   45.4840   30.7420   48.1610 C   0  0  0  0  0  0  0  0  0  0  0  0
   44.9340   31.9340   48.3300 N   0  0  0  0  0  0  0  0  0  0  0  0
   45.3010   29.6800   49.1190 N   0  0  0  0  0  0  0  0  0  0  0  0
   44.6890   33.8670   47.5730 H   0  0  0  0  0  0  0  0  0  0  0  0
   46.0160   28.9370   49.2970 H   0  0  0  0  0  0  0  0  0  0  0  0
   44.4150   29.6230   49.6810 H   0  0  0  0  0  0  0  0  0  0  0  0
   47.3150   30.7870   45.0570 C   0  0  0  0  0  0  0  0  0  0  0  0
   48.2550   31.7560   44.5420 F   0  0  0  0  0  0  0  0  0  0  0  0
   48.3330   29.9510   45.5990 F   0  0  0  0  0  0  0  0  0  0  0  0
   46.7560   30.3890   43.9200 F   0  0  0  0  0  0  0  0  0  0  0  0
   44.3630   35.2410   42.0130 C   0  0  0  0  0  0  0  0  0  0  0  0
   43.3160   34.4880   42.4970 F   0  0  0  0  0  0  0  0  0  0  0  0
   43.8310   36.4820   41.6800 F   0  0  0  0  0  0  0  0  0  0  0  0
   44.9310   34.7240   40.8630 F   0  0  0  0  0  0  0  0  0  0  0  0
  1  2  1  0  0  0  0
  1  7  1  1  0  0  0
  1 16  1  0  0  0  0
  2  8  1  0  0  0  0
  3  9  1  0  0  0  0
  3  2  2  0  0  0  0
  4 10  1  6  0  0  0
  4  3  1  0  0  0  0
  5  4  1  0  0  0  0
  5 11  1  0  0  0  0
  5  6  1  0  0  0  0
  6  1  1  0  0  0  0
 12  5  1  0  0  0  0
 13  6  1  0  0  0  0
 14  6  1  0  0  0  0
 15 22  1  0  0  0  0
 15 20  1  0  0  0  0
 16 15  2  0  0  0  0
 17 16  1  0  0  0  0
 17 18  2  0  0  0  0
 18 19  1  0  0  0  0
 19 20  2  0  0  0  0
 19 21  1  0  0  0  0
 21 23  1  0  0  0  0
 21 24  1  0  0  0  0
 25 27  1  0  0  0  0
 25 17  1  0  0  0  0
 26 25  1  0  0  0  0
 28 25  1  0  0  0  0
 29 30  1  0  0  0  0
 29  4  1  0  0  0  0
 31 29  1  0  0  0  0
 32 29  1  0  0  0  0
M  END
>  <minimizedAffinity>
-5.41492844

>  <minimizedRMSD>
0.192119315

$$$$
