
 OpenBabel03232521003D

 47 51  0  0  1  0  0  0  0  0999 V2000
   45.3420   32.8910   47.5170 C   0  0  0  0  0  0  0  0  0  0  0  0
   45.9160   32.6380   46.3110 C   0  0  0  0  0  0  0  0  0  0  0  0
   46.1960   31.2860   46.0740 C   0  0  0  0  0  0  0  0  0  0  0  0
   45.9260   30.2920   46.9560 N   0  0  0  0  0  0  0  0  0  0  0  0
   45.3400   30.6010   48.1740 C   0  0  0  0  0  0  0  0  0  0  0  0
   45.0640   31.8820   48.4240 N   0  0  0  0  0  0  0  0  0  0  0  0
   45.0530   29.5900   49.1160 N   0  0  0  0  0  0  0  0  0  0  0  0
   45.0890   33.8990   47.8030 H   0  0  0  0  0  0  0  0  0  0  0  0
   44.3680   28.8570   48.8020 H   0  0  0  0  0  0  0  0  0  0  0  0
   45.4880   29.5640   50.0650 H   0  0  0  0  0  0  0  0  0  0  0  0
   46.8550   30.5990   44.9770 C   0  0  0  0  0  0  0  0  0  0  0  0
   46.5210   29.8380   43.9020 C   0  0  0  0  0  0  0  0  0  0  0  0
   47.7110   29.4490   43.2600 C   0  0  0  0  0  0  0  0  0  0  0  0
   48.6920   29.9930   43.9780 N   0  0  0  0  0  0  0  0  0  0  0  0
   48.2190   30.6750   44.9930 N   0  0  0  0  0  0  0  0  0  0  0  0
   45.4670   29.6690   43.7290 H   0  0  0  0  0  0  0  0  0  0  0  0
   47.6350   28.8340   42.3790 H   0  0  0  0  0  0  0  0  0  0  0  0
   50.0240   29.7360   43.5150 C   0  0  0  0  0  0  0  0  0  0  0  0
   50.2310   29.9680   42.1950 N   0  0  0  0  0  0  0  0  0  0  0  0
   51.4580   29.7510   41.6710 C   0  0  0  0  0  3  0  0  0  0  0  0
   52.5210   29.3090   42.4000 N   0  0  0  0  0  0  0  0  0  0  0  0
   52.3040   29.0840   43.7080 C   0  0  0  0  0  0  0  0  0  0  0  0
   53.3410   28.6300   44.5180 C   0  0  0  0  0  3  0  0  0  0  0  0
   53.1160   28.3990   45.8630 C   0  0  0  0  0  0  0  0  0  0  0  0
   53.9550   28.0470   46.4510 H   0  0  0  0  0  0  0  0  0  0  0  0
   51.8610   28.6180   46.4050 C   0  0  0  0  0  0  0  0  0  0  0  0
   51.6990   28.4300   47.4750 H   0  0  0  0  0  0  0  0  0  0  0  0
   50.7900   29.0730   45.6320 C   0  0  0  0  0  3  0  0  0  0  0  0
   51.0680   29.2880   44.2960 C   0  0  0  0  0  0  0  0  0  0  0  0
   46.1670   33.5890   45.2820 C   0  0  2  0  0  0  0  0  0  0  0  0
   44.9520   34.6800   45.5100 C   0  0  0  0  0  0  0  0  0  0  0  0
   44.7220   35.6110   44.4400 C   0  0  0  0  0  0  0  0  0  0  0  0
   45.5330   35.5410   43.2180 C   0  0  1  0  0  0  0  0  0  0  0  0
   46.5870   34.5340   43.1700 C   0  0  0  0  0  0  0  0  0  0  0  0
   46.1320   33.3030   43.9180 C   0  0  0  0  0  0  0  0  0  0  0  0
   46.9810   34.3010   45.6120 H   0  0  0  0  0  0  0  0  0  0  0  0
   44.2700   34.8300   46.3380 H   0  0  0  0  0  0  0  0  0  0  0  0
   43.9530   36.3290   44.5460 H   0  0  0  0  0  0  0  0  0  0  0  0
   45.9570   36.5450   43.0070 H   0  0  0  0  0  0  0  0  0  0  0  0
   47.5850   34.8750   43.5570 H   0  0  0  0  0  0  0  0  0  0  0  0
   46.7980   34.3110   42.0820 H   0  0  0  0  0  0  0  0  0  0  0  0
   45.1760   32.9690   43.4610 H   0  0  0  0  0  0  0  0  0  0  0  0
   46.9850   32.6520   43.5880 H   0  0  0  0  0  0  0  0  0  0  0  0
   44.5220   35.2780   42.0620 C   0  0  0  0  0  0  0  0  0  0  0  0
   43.4630   34.4760   42.4490 F   0  0  0  0  0  0  0  0  0  0  0  0
   43.9700   36.5100   41.7280 F   0  0  0  0  0  0  0  0  0  0  0  0
   45.1980   34.8190   40.9470 F   0  0  0  0  0  0  0  0  0  0  0  0
  1  8  1  0  0  0  0
  1  6  1  0  0  0  0
  2  1  2  0  0  0  0
  3  2  1  0  0  0  0
  3  4  2  0  0  0  0
  4  5  1  0  0  0  0
  5  6  2  0  0  0  0
  5  7  1  0  0  0  0
  7 10  1  0  0  0  0
  9  7  1  0  0  0  0
 11 15  2  0  0  0  0
 11  3  1  0  0  0  0
 12 11  1  0  0  0  0
 13 12  2  0  0  0  0
 13 14  1  0  0  0  0
 14 15  1  0  0  0  0
 16 12  1  0  0  0  0
 17 13  1  0  0  0  0
 18 14  1  0  0  0  0
 18 29  1  0  0  0  0
 19 18  2  0  0  0  0
 20 19  1  0  0  0  0
 20 21  2  0  0  0  0
 21 22  1  0  0  0  0
 22 29  2  0  0  0  0
 22 23  1  0  0  0  0
 23 24  2  0  0  0  0
 24 26  1  0  0  0  0
 24 25  1  0  0  0  0
 26 27  1  0  0  0  0
 28 26  2  0  0  0  0
 29 28  1  0  0  0  0
 30 31  1  0  0  0  0
 30 36  1  1  0  0  0
 30  2  1  0  0  0  0
 31 37  1  0  0  0  0
 32 38  1  0  0  0  0
 32 31  2  0  0  0  0
 33 39  1  6  0  0  0
 33 32  1  0  0  0  0
 34 33  1  0  0  0  0
 34 40  1  0  0  0  0
 34 35  1  0  0  0  0
 35 30  1  0  0  0  0
 41 34  1  0  0  0  0
 42 35  1  0  0  0  0
 43 35  1  0  0  0  0
 44 45  1  0  0  0  0
 44 33  1  0  0  0  0
 46 44  1  0  0  0  0
 47 44  1  0  0  0  0
M  END
>  <minimizedAffinity>
-6.34036398

>  <minimizedRMSD>
0.27049163

$$$$
