
 OpenBabel03232520593D

 47 51  0  0  1  0  0  0  0  0999 V2000
   45.3990   32.8470   47.5030 C   0  0  0  0  0  0  0  0  0  0  0  0
   45.9410   32.6060   46.2800 C   0  0  0  0  0  0  0  0  0  0  0  0
   46.1920   31.2540   46.0130 C   0  0  0  0  0  0  0  0  0  0  0  0
   45.9230   30.2480   46.8830 N   0  0  0  0  0  0  0  0  0  0  0  0
   45.3690   30.5460   48.1190 C   0  0  0  0  0  0  0  0  0  0  0  0
   45.1220   31.8270   48.3980 N   0  0  0  0  0  0  0  0  0  0  0  0
   45.0840   29.5230   49.0490 N   0  0  0  0  0  0  0  0  0  0  0  0
   45.1700   33.8540   47.8130 H   0  0  0  0  0  0  0  0  0  0  0  0
   44.3800   28.8080   48.7370 H   0  0  0  0  0  0  0  0  0  0  0  0
   45.5400   29.4730   49.9880 H   0  0  0  0  0  0  0  0  0  0  0  0
   46.8130   30.5750   44.8900 C   0  0  0  0  0  0  0  0  0  0  0  0
   46.4410   29.9410   43.7470 C   0  0  0  0  0  0  0  0  0  0  0  0
   47.6050   29.4600   43.1200 C   0  0  0  0  0  0  0  0  0  0  0  0
   48.6100   29.8290   43.9120 N   0  0  0  0  0  0  0  0  0  0  0  0
   48.1750   30.4860   44.9600 N   0  0  0  0  0  0  0  0  0  0  0  0
   45.3840   29.9130   43.5240 H   0  0  0  0  0  0  0  0  0  0  0  0
   47.4970   28.9250   42.1900 H   0  0  0  0  0  0  0  0  0  0  0  0
   49.9220   29.4490   43.4780 C   0  0  0  0  0  0  0  0  0  0  0  0
   50.1080   29.4520   42.1350 N   0  0  0  0  0  0  0  0  0  0  0  0
   51.3160   29.1060   41.6350 C   0  0  0  0  0  3  0  0  0  0  0  0
   52.3790   28.7500   42.4110 N   0  0  0  0  0  0  0  0  0  0  0  0
   52.1810   28.7510   43.7420 C   0  0  0  0  0  0  0  0  0  0  0  0
   53.2190   28.3980   44.6000 C   0  0  0  0  0  3  0  0  0  0  0  0
   53.0140   28.4000   45.9680 C   0  0  0  0  0  0  0  0  0  0  0  0
   53.8520   28.1180   46.5920 H   0  0  0  0  0  0  0  0  0  0  0  0
   51.7800   28.7530   46.4850 C   0  0  0  0  0  0  0  0  0  0  0  0
   51.6340   28.7490   47.5720 H   0  0  0  0  0  0  0  0  0  0  0  0
   50.7090   29.1140   45.6640 C   0  0  0  0  0  3  0  0  0  0  0  0
   50.9660   29.0960   44.3060 C   0  0  0  0  0  0  0  0  0  0  0  0
   46.1870   33.5710   45.2640 C   0  0  2  0  0  0  0  0  0  0  0  0
   44.9660   34.6530   45.5050 C   0  0  0  0  0  0  0  0  0  0  0  0
   44.7320   35.5960   44.4470 C   0  0  0  0  0  0  0  0  0  0  0  0
   45.5420   35.5450   43.2240 C   0  0  1  0  0  0  0  0  0  0  0  0
   46.6010   34.5440   43.1630 C   0  0  0  0  0  0  0  0  0  0  0  0
   46.1530   33.3020   43.8960 C   0  0  0  0  0  0  0  0  0  0  0  0
   46.9970   34.2830   45.6020 H   0  0  0  0  0  0  0  0  0  0  0  0
   44.2840   34.7890   46.3350 H   0  0  0  0  0  0  0  0  0  0  0  0
   43.9590   36.3090   44.5620 H   0  0  0  0  0  0  0  0  0  0  0  0
   45.9610   36.5540   43.0250 H   0  0  0  0  0  0  0  0  0  0  0  0
   47.5980   34.8850   43.5540 H   0  0  0  0  0  0  0  0  0  0  0  0
   46.8130   34.3360   42.0730 H   0  0  0  0  0  0  0  0  0  0  0  0
   45.1990   32.9690   43.4350 H   0  0  0  0  0  0  0  0  0  0  0  0
   47.0090   32.6600   43.5570 H   0  0  0  0  0  0  0  0  0  0  0  0
   44.5320   35.2910   42.0650 C   0  0  0  0  0  0  0  0  0  0  0  0
   43.4650   34.5000   42.4490 F   0  0  0  0  0  0  0  0  0  0  0  0
   43.9930   36.5290   41.7290 F   0  0  0  0  0  0  0  0  0  0  0  0
   45.2070   34.8260   40.9530 F   0  0  0  0  0  0  0  0  0  0  0  0
  1  8  1  0  0  0  0
  1  6  1  0  0  0  0
  2  1  2  0  0  0  0
  3  2  1  0  0  0  0
  3  4  2  0  0  0  0
  4  5  1  0  0  0  0
  5  6  2  0  0  0  0
  5  7  1  0  0  0  0
  7 10  1  0  0  0  0
  9  7  1  0  0  0  0
 11 15  2  0  0  0  0
 11  3  1  0  0  0  0
 12 11  1  0  0  0  0
 13 12  2  0  0  0  0
 13 14  1  0  0  0  0
 14 15  1  0  0  0  0
 16 12  1  0  0  0  0
 17 13  1  0  0  0  0
 18 14  1  0  0  0  0
 18 29  1  0  0  0  0
 19 18  2  0  0  0  0
 20 19  1  0  0  0  0
 20 21  2  0  0  0  0
 21 22  1  0  0  0  0
 22 29  2  0  0  0  0
 22 23  1  0  0  0  0
 23 24  2  0  0  0  0
 24 26  1  0  0  0  0
 24 25  1  0  0  0  0
 26 27  1  0  0  0  0
 28 26  2  0  0  0  0
 29 28  1  0  0  0  0
 30 31  1  0  0  0  0
 30 36  1  1  0  0  0
 30  2  1  0  0  0  0
 31 37  1  0  0  0  0
 32 38  1  0  0  0  0
 32 31  2  0  0  0  0
 33 39  1  6  0  0  0
 33 32  1  0  0  0  0
 34 33  1  0  0  0  0
 34 40  1  0  0  0  0
 34 35  1  0  0  0  0
 35 30  1  0  0  0  0
 41 34  1  0  0  0  0
 42 35  1  0  0  0  0
 43 35  1  0  0  0  0
 44 45  1  0  0  0  0
 44 33  1  0  0  0  0
 46 44  1  0  0  0  0
 47 44  1  0  0  0  0
M  END
>  <minimizedAffinity>
-6.30482149

>  <minimizedRMSD>
0.159208715

$$$$
