
 OpenBabel03232520553D

 32 33  0  0  1  0  0  0  0  0999 V2000
   46.1040   33.7240   45.2520 C   0  0  2  0  0  0  0  0  0  0  0  0
   44.9590   34.8160   45.4520 C   0  0  0  0  0  0  0  0  0  0  0  0
   44.7110   35.7100   44.3490 C   0  0  0  0  0  0  0  0  0  0  0  0
   45.4500   35.5760   43.1050 C   0  0  1  0  0  0  0  0  0  0  0  0
   46.5090   34.5580   43.0760 C   0  0  0  0  0  0  0  0  0  0  0  0
   46.0010   33.3490   43.8670 C   0  0  0  0  0  0  0  0  0  0  0  0
   46.9120   34.4640   45.5600 H   0  0  0  0  0  0  0  0  0  0  0  0
   44.2690   35.0880   46.2380 H   0  0  0  0  0  0  0  0  0  0  0  0
   43.9780   36.4620   44.3930 H   0  0  0  0  0  0  0  0  0  0  0  0
   45.8870   36.5490   42.8030 H   0  0  0  0  0  0  0  0  0  0  0  0
   47.4500   34.8710   43.5600 H   0  0  0  0  0  0  0  0  0  0  0  0
   46.7080   34.2160   42.0280 H   0  0  0  0  0  0  0  0  0  0  0  0
   46.2820   32.4600   43.3770 H   0  0  0  0  0  0  0  0  0  0  0  0
   44.8700   33.3550   43.6490 H   0  0  0  0  0  0  0  0  0  0  0  0
   45.1690   32.9920   47.4520 C   0  0  0  0  0  0  0  0  0  0  0  0
   45.9090   32.7670   46.3010 C   0  0  0  0  0  0  0  0  0  0  0  0
   46.4470   31.4720   46.1130 C   0  0  0  0  0  0  0  0  0  0  0  0
   46.2000   30.5560   47.0580 N   0  0  0  0  0  0  0  0  0  0  0  0
   45.4740   30.7970   48.1700 C   0  0  0  0  0  0  0  0  0  0  0  0
   44.9600   31.9990   48.3750 N   0  0  0  0  0  0  0  0  0  0  0  0
   45.2880   29.7230   49.1140 N   0  0  0  0  0  0  0  0  0  0  0  0
   44.7450   33.9520   47.6580 H   0  0  0  0  0  0  0  0  0  0  0  0
   45.9880   28.9580   49.2610 H   0  0  0  0  0  0  0  0  0  0  0  0
   44.4160   29.6780   49.6980 H   0  0  0  0  0  0  0  0  0  0  0  0
   47.2270   30.8520   45.0220 C   0  0  0  0  0  0  0  0  0  0  0  0
   47.8830   29.6590   45.5070 F   0  0  0  0  0  0  0  0  0  0  0  0
   46.3920   30.1350   44.1160 F   0  0  0  0  0  0  0  0  0  0  0  0
   48.2690   31.4870   44.5000 F   0  0  0  0  0  0  0  0  0  0  0  0
   44.4080   35.2640   41.9970 C   0  0  0  0  0  0  0  0  0  0  0  0
   43.3800   34.4590   42.4340 F   0  0  0  0  0  0  0  0  0  0  0  0
   43.8300   36.4800   41.6470 F   0  0  0  0  0  0  0  0  0  0  0  0
   45.0460   34.7820   40.8680 F   0  0  0  0  0  0  0  0  0  0  0  0
  1  2  1  0  0  0  0
  1  7  1  1  0  0  0
  1 16  1  0  0  0  0
  2  8  1  0  0  0  0
  3  9  1  0  0  0  0
  3  2  2  0  0  0  0
  4 10  1  6  0  0  0
  4  3  1  0  0  0  0
  5  4  1  0  0  0  0
  5 11  1  0  0  0  0
  5  6  1  0  0  0  0
  6  1  1  0  0  0  0
 12  5  1  0  0  0  0
 13  6  1  0  0  0  0
 14  6  1  0  0  0  0
 15 22  1  0  0  0  0
 15 20  1  0  0  0  0
 16 15  2  0  0  0  0
 17 16  1  0  0  0  0
 17 18  2  0  0  0  0
 18 19  1  0  0  0  0
 19 20  2  0  0  0  0
 19 21  1  0  0  0  0
 21 23  1  0  0  0  0
 21 24  1  0  0  0  0
 25 26  1  0  0  0  0
 25 17  1  0  0  0  0
 27 25  1  0  0  0  0
 28 25  1  0  0  0  0
 29 30  1  0  0  0  0
 29  4  1  0  0  0  0
 31 29  1  0  0  0  0
 32 29  1  0  0  0  0
M  END
>  <minimizedAffinity>
-5.55887127

>  <minimizedRMSD>
0.157446742

$$$$
