
 OpenBabel03232521003D

 47 51  0  0  1  0  0  0  0  0999 V2000
   45.3550   32.9120   47.4390 C   0  0  0  0  0  0  0  0  0  0  0  0
   45.9260   32.6690   46.2310 C   0  0  0  0  0  0  0  0  0  0  0  0
   46.2320   31.3220   45.9930 C   0  0  0  0  0  0  0  0  0  0  0  0
   45.9850   30.3240   46.8780 N   0  0  0  0  0  0  0  0  0  0  0  0
   45.4000   30.6240   48.0980 C   0  0  0  0  0  0  0  0  0  0  0  0
   45.1000   31.8990   48.3490 N   0  0  0  0  0  0  0  0  0  0  0  0
   45.1370   29.6080   49.0430 N   0  0  0  0  0  0  0  0  0  0  0  0
   45.0840   33.9150   47.7260 H   0  0  0  0  0  0  0  0  0  0  0  0
   44.4650   28.8620   48.7330 H   0  0  0  0  0  0  0  0  0  0  0  0
   45.5770   29.5910   49.9890 H   0  0  0  0  0  0  0  0  0  0  0  0
   46.8970   30.6470   44.8940 C   0  0  0  0  0  0  0  0  0  0  0  0
   46.5950   29.7670   43.9040 C   0  0  0  0  0  0  0  0  0  0  0  0
   47.7780   29.4930   43.1920 C   0  0  0  0  0  0  0  0  0  0  0  0
   48.7230   30.2190   43.7870 N   0  0  0  0  0  0  0  0  0  0  0  0
   48.2340   30.9080   44.7890 N   0  0  0  0  0  0  0  0  0  0  0  0
   45.5660   29.4440   43.8310 H   0  0  0  0  0  0  0  0  0  0  0  0
   47.7240   28.8060   42.3630 H   0  0  0  0  0  0  0  0  0  0  0  0
   50.0390   30.1080   43.2320 C   0  0  0  0  0  0  0  0  0  0  0  0
   50.1700   30.5670   41.9620 N   0  0  0  0  0  0  0  0  0  0  0  0
   51.3780   30.5020   41.3580 C   0  0  0  0  0  3  0  0  0  0  0  0
   52.4940   29.9960   41.9560 N   0  0  0  0  0  0  0  0  0  0  0  0
   52.3500   29.5450   43.2160 C   0  0  0  0  0  0  0  0  0  0  0  0
   53.4450   29.0130   43.8930 C   0  0  0  0  0  3  0  0  0  0  0  0
   53.2960   28.5500   45.1880 C   0  0  0  0  0  0  0  0  0  0  0  0
   54.1760   28.1450   45.6710 H   0  0  0  0  0  0  0  0  0  0  0  0
   52.0610   28.6140   45.8100 C   0  0  0  0  0  0  0  0  0  0  0  0
   51.9600   28.2420   46.8380 H   0  0  0  0  0  0  0  0  0  0  0  0
   50.9360   29.1380   45.1720 C   0  0  0  0  0  3  0  0  0  0  0  0
   51.1380   29.5870   43.8810 C   0  0  0  0  0  0  0  0  0  0  0  0
   46.1540   33.6240   45.2000 C   0  0  2  0  0  0  0  0  0  0  0  0
   44.9440   34.7130   45.4590 C   0  0  0  0  0  0  0  0  0  0  0  0
   44.6900   35.6480   44.3970 C   0  0  0  0  0  0  0  0  0  0  0  0
   45.4730   35.5830   43.1570 C   0  0  1  0  0  0  0  0  0  0  0  0
   46.5260   34.5760   43.0820 C   0  0  0  0  0  0  0  0  0  0  0  0
   46.0890   33.3420   43.8360 C   0  0  0  0  0  0  0  0  0  0  0  0
   46.9750   34.3350   45.5130 H   0  0  0  0  0  0  0  0  0  0  0  0
   44.2820   34.8600   46.3030 H   0  0  0  0  0  0  0  0  0  0  0  0
   43.9230   36.3660   44.5240 H   0  0  0  0  0  0  0  0  0  0  0  0
   45.8920   36.5880   42.9400 H   0  0  0  0  0  0  0  0  0  0  0  0
   47.5330   34.9160   43.4470 H   0  0  0  0  0  0  0  0  0  0  0  0
   46.7130   34.3570   41.9890 H   0  0  0  0  0  0  0  0  0  0  0  0
   45.1220   33.0100   43.3990 H   0  0  0  0  0  0  0  0  0  0  0  0
   46.9340   32.6930   43.4840 H   0  0  0  0  0  0  0  0  0  0  0  0
   44.4360   35.3240   42.0240 C   0  0  0  0  0  0  0  0  0  0  0  0
   43.3750   34.5400   42.4380 F   0  0  0  0  0  0  0  0  0  0  0  0
   43.8940   36.5610   41.6890 F   0  0  0  0  0  0  0  0  0  0  0  0
   45.0840   34.8460   40.9000 F   0  0  0  0  0  0  0  0  0  0  0  0
  1  8  1  0  0  0  0
  1  6  1  0  0  0  0
  2  1  2  0  0  0  0
  3  2  1  0  0  0  0
  3  4  2  0  0  0  0
  4  5  1  0  0  0  0
  5  6  2  0  0  0  0
  5  7  1  0  0  0  0
  7 10  1  0  0  0  0
  9  7  1  0  0  0  0
 11  3  1  0  0  0  0
 12 11  1  0  0  0  0
 13 14  1  0  0  0  0
 13 12  2  0  0  0  0
 14 15  1  0  0  0  0
 15 11  2  0  0  0  0
 16 12  1  0  0  0  0
 17 13  1  0  0  0  0
 18 14  1  0  0  0  0
 18 29  1  0  0  0  0
 19 18  2  0  0  0  0
 20 21  2  0  0  0  0
 20 19  1  0  0  0  0
 21 22  1  0  0  0  0
 22 29  2  0  0  0  0
 22 23  1  0  0  0  0
 23 24  2  0  0  0  0
 24 25  1  0  0  0  0
 24 26  1  0  0  0  0
 26 27  1  0  0  0  0
 28 26  2  0  0  0  0
 29 28  1  0  0  0  0
 30 31  1  0  0  0  0
 30 36  1  1  0  0  0
 30  2  1  0  0  0  0
 31 37  1  0  0  0  0
 32 38  1  0  0  0  0
 32 31  2  0  0  0  0
 33 39  1  6  0  0  0
 33 32  1  0  0  0  0
 34 33  1  0  0  0  0
 34 40  1  0  0  0  0
 34 35  1  0  0  0  0
 35 30  1  0  0  0  0
 41 34  1  0  0  0  0
 42 35  1  0  0  0  0
 43 35  1  0  0  0  0
 44 45  1  0  0  0  0
 44 33  1  0  0  0  0
 46 44  1  0  0  0  0
 47 44  1  0  0  0  0
M  END
>  <minimizedAffinity>
-6.40314007

>  <minimizedRMSD>
0.645437121

$$$$
