
 OpenBabel03232518073D

 19 19  0  0  0  0  0  0  0  0999 V2000
   47.4000   34.3840   42.4300 C   0  0  0  0  0  0  0  0  0  0  0  0
   46.3530   35.2540   42.8450 C   0  0  0  0  0  0  0  0  0  0  0  0
   45.6490   34.9720   44.0080 C   0  0  0  0  0  0  0  0  0  0  0  0
   45.9910   33.8710   44.7040 N   0  0  0  0  0  0  0  0  0  0  0  0
   47.0020   33.0450   44.2880 C   0  0  0  0  0  0  0  0  0  0  0  0
   47.6880   33.3190   43.1590 N   0  0  0  0  0  0  0  0  0  0  0  0
   46.0570   36.1530   42.2990 H   0  0  0  0  0  0  0  0  0  0  0  0
   47.2350   32.1680   44.8930 H   0  0  0  0  0  0  0  0  0  0  0  0
   44.5550   35.8280   44.4950 C   0  0  0  0  0  0  0  0  0  0  0  0
   44.3410   35.4540   45.8250 F   0  0  0  0  0  0  0  0  0  0  0  0
   44.9180   37.1600   44.5160 F   0  0  0  0  0  0  0  0  0  0  0  0
   43.4280   35.6600   43.7210 F   0  0  0  0  0  0  0  0  0  0  0  0
   48.0330   34.8300   41.1810 C   0  0  0  0  0  0  0  0  0  0  0  0
   48.6090   33.9270   40.8140 H   0  0  0  0  0  0  0  0  0  0  0  0
   47.3200   35.0320   40.3670 H   0  0  0  0  0  0  0  0  0  0  0  0
   49.0540   35.9020   41.4230 C   0  0  0  0  0  0  0  0  0  0  0  0
   49.4990   35.7520   42.4090 H   0  0  0  0  0  0  0  0  0  0  0  0
   48.5410   36.8820   41.3620 H   0  0  0  0  0  0  0  0  0  0  0  0
   49.8270   35.8390   40.6050 H   0  0  0  0  0  0  0  0  0  0  0  0
  1  2  2  0  0  0  0
  1  6  1  0  0  0  0
  2  3  1  0  0  0  0
  3  9  1  0  0  0  0
  3  4  2  0  0  0  0
  5  4  1  0  0  0  0
  5  8  1  0  0  0  0
  6  5  2  0  0  0  0
  7  2  1  0  0  0  0
  9 11  1  0  0  0  0
  9 10  1  0  0  0  0
 12  9  1  0  0  0  0
 13 16  1  0  0  0  0
 13  1  1  0  0  0  0
 14 13  1  0  0  0  0
 15 13  1  0  0  0  0
 16 17  1  0  0  0  0
 18 16  1  0  0  0  0
 19 16  1  0  0  0  0
M  END
>  <minimizedAffinity>
-4.53075123

>  <minimizedRMSD>
0.836112022

$$$$
