
 OpenBabel03232520453D

 36 38  0  0  0  0  0  0  0  0999 V2000
   46.4460   34.6530   42.1810 C   0  0  0  0  0  0  0  0  0  0  0  0
   47.7530   35.0260   42.0510 C   0  0  0  0  0  0  0  0  0  0  0  0
   48.4460   34.8550   40.8410 C   0  0  0  0  0  0  0  0  0  0  0  0
   47.7890   34.2890   39.7400 C   0  0  0  0  0  0  0  0  0  0  0  0
   46.4820   33.9210   39.8850 C   0  0  0  0  0  0  0  0  0  0  0  0
   45.8270   34.1040   41.0950 C   0  0  0  0  0  0  0  0  0  0  0  0
   48.2780   35.4630   42.8850 H   0  0  0  0  0  0  0  0  0  0  0  0
   49.4890   35.1820   40.8290 H   0  0  0  0  0  0  0  0  0  0  0  0
   48.3560   34.1770   38.8370 H   0  0  0  0  0  0  0  0  0  0  0  0
   46.0110   33.4890   39.0130 H   0  0  0  0  0  0  0  0  0  0  0  0
   44.4680   33.7070   41.1980 N   0  0  0  0  0  0  0  0  0  0  0  0
   43.6360   34.6630   40.6750 C   0  0  0  0  0  0  0  0  0  0  0  0
   42.2550   34.4890   40.6680 C   0  0  0  0  0  0  0  0  0  0  0  0
   41.7620   33.3060   41.2130 C   0  0  0  0  0  0  0  0  0  0  0  0
   40.5240   33.0890   41.2360 O   0  0  0  0  0  0  0  0  0  0  0  0
   42.6130   32.3960   41.7150 N   0  0  0  0  0  0  0  0  0  0  0  0
   43.9350   32.5880   41.7100 C   0  0  0  0  0  0  0  0  0  0  0  0
   44.8020   31.7970   42.1540 O   0  0  0  0  0  0  0  0  0  0  0  0
   43.9450   35.5940   40.2410 H   0  0  0  0  0  0  0  0  0  0  0  0
   42.2560   31.5040   42.1270 H   0  0  0  0  0  0  0  0  0  0  0  0
   41.3240   35.5020   40.1100 C   0  0  0  0  0  0  0  0  0  0  0  0
   41.9410   36.3450   39.7340 H   0  0  0  0  0  0  0  0  0  0  0  0
   40.7870   35.0100   39.2610 H   0  0  0  0  0  0  0  0  0  0  0  0
   40.6270   35.9170   40.8690 H   0  0  0  0  0  0  0  0  0  0  0  0
   44.4390   36.0310   45.0510 C   0  0  0  0  0  0  0  0  0  0  0  0
   44.9930   35.9470   43.7770 C   0  0  0  0  0  0  0  0  0  0  0  0
   45.8040   34.8660   43.4700 C   0  0  0  0  0  0  0  0  0  0  0  0
   46.0100   33.9510   44.4280 N   0  0  0  0  0  0  0  0  0  0  0  0
   45.4620   34.0550   45.6560 C   0  0  0  0  0  0  0  0  0  0  0  0
   44.6780   35.0890   45.9720 N   0  0  0  0  0  0  0  0  0  0  0  0
   43.8020   36.8940   45.2690 H   0  0  0  0  0  0  0  0  0  0  0  0
   44.8280   36.6830   43.0050 H   0  0  0  0  0  0  0  0  0  0  0  0
   45.7210   33.0060   46.6980 C   0  0  0  0  0  0  0  0  0  0  0  0
   47.0560   33.1160   47.0990 F   0  0  0  0  0  0  0  0  0  0  0  0
   44.8480   33.0960   47.7460 F   0  0  0  0  0  0  0  0  0  0  0  0
   45.6020   31.7420   46.1770 F   0  0  0  0  0  0  0  0  0  0  0  0
  1 27  1  0  0  0  0
  2  1  1  0  0  0  0
  2  7  1  0  0  0  0
  3  2  2  0  0  0  0
  4  5  2  0  0  0  0
  4  3  1  0  0  0  0
  5  6  1  0  0  0  0
  6 11  1  0  0  0  0
  6  1  2  0  0  0  0
  8  3  1  0  0  0  0
  9  4  1  0  0  0  0
 10  5  1  0  0  0  0
 11 17  1  0  0  0  0
 12 11  1  0  0  0  0
 13 12  2  0  0  0  0
 13 14  1  0  0  0  0
 14 15  2  0  0  0  0
 14 16  1  0  0  0  0
 16 20  1  0  0  0  0
 17 16  1  0  0  0  0
 17 18  2  0  0  0  0
 19 12  1  0  0  0  0
 21 13  1  0  0  0  0
 21 24  1  0  0  0  0
 22 21  1  0  0  0  0
 23 21  1  0  0  0  0
 25 31  1  0  0  0  0
 25 30  1  0  0  0  0
 26 25  2  0  0  0  0
 27 26  1  0  0  0  0
 27 28  2  0  0  0  0
 28 29  1  0  0  0  0
 29 30  2  0  0  0  0
 29 33  1  0  0  0  0
 32 26  1  0  0  0  0
 33 34  1  0  0  0  0
 33 35  1  0  0  0  0
 36 33  1  0  0  0  0
M  END
>  <minimizedAffinity>
-7.25722075

>  <minimizedRMSD>
0.102049679

$$$$
