
 OpenBabel03232521003D

 47 51  0  0  1  0  0  0  0  0999 V2000
   45.4580   32.8830   47.5030 C   0  0  0  0  0  0  0  0  0  0  0  0
   45.9350   32.6230   46.2570 C   0  0  0  0  0  0  0  0  0  0  0  0
   46.1200   31.2620   45.9790 C   0  0  0  0  0  0  0  0  0  0  0  0
   45.8520   30.2660   46.8610 N   0  0  0  0  0  0  0  0  0  0  0  0
   45.3660   30.5840   48.1200 C   0  0  0  0  0  0  0  0  0  0  0  0
   45.1820   31.8720   48.4100 N   0  0  0  0  0  0  0  0  0  0  0  0
   45.0840   29.5710   49.0620 N   0  0  0  0  0  0  0  0  0  0  0  0
   45.2820   33.8970   47.8220 H   0  0  0  0  0  0  0  0  0  0  0  0
   44.3380   28.8850   48.7820 H   0  0  0  0  0  0  0  0  0  0  0  0
   45.5780   29.5010   49.9790 H   0  0  0  0  0  0  0  0  0  0  0  0
   46.6640   30.5620   44.8290 C   0  0  0  0  0  0  0  0  0  0  0  0
   46.2160   29.8450   43.7650 C   0  0  0  0  0  0  0  0  0  0  0  0
   47.3370   29.4010   43.0390 C   0  0  0  0  0  0  0  0  0  0  0  0
   48.3940   29.8710   43.7010 N   0  0  0  0  0  0  0  0  0  0  0  0
   48.0290   30.5570   44.7560 N   0  0  0  0  0  0  0  0  0  0  0  0
   45.1460   29.7420   43.6580 H   0  0  0  0  0  0  0  0  0  0  0  0
   47.1670   28.8100   42.1540 H   0  0  0  0  0  0  0  0  0  0  0  0
   49.6750   29.5470   43.1460 C   0  0  0  0  0  0  0  0  0  0  0  0
   50.5860   30.5510   43.1740 N   0  0  0  0  0  0  0  0  0  0  0  0
   51.8230   30.3350   42.6720 C   0  0  0  0  0  3  0  0  0  0  0  0
   52.2190   29.1480   42.1300 N   0  0  0  0  0  0  0  0  0  0  0  0
   51.3060   28.1600   42.1090 C   0  0  0  0  0  0  0  0  0  0  0  0
   51.6350   26.9190   41.5700 C   0  0  0  0  0  3  0  0  0  0  0  0
   50.6950   25.9040   41.5490 C   0  0  0  0  0  0  0  0  0  0  0  0
   51.0000   24.9590   41.1200 H   0  0  0  0  0  0  0  0  0  0  0  0
   49.4280   26.1210   42.0610 C   0  0  0  0  0  0  0  0  0  0  0  0
   48.6940   25.3050   42.0360 H   0  0  0  0  0  0  0  0  0  0  0  0
   49.0510   27.3480   42.6100 C   0  0  0  0  0  3  0  0  0  0  0  0
   50.0250   28.3270   42.6070 C   0  0  0  0  0  0  0  0  0  0  0  0
   46.1730   33.5790   45.2300 C   0  0  2  0  0  0  0  0  0  0  0  0
   44.9650   34.6720   45.4840 C   0  0  0  0  0  0  0  0  0  0  0  0
   44.7210   35.6100   44.4230 C   0  0  0  0  0  0  0  0  0  0  0  0
   45.5120   35.5450   43.1880 C   0  0  1  0  0  0  0  0  0  0  0  0
   46.5610   34.5350   43.1170 C   0  0  0  0  0  0  0  0  0  0  0  0
   46.1150   33.3010   43.8650 C   0  0  0  0  0  0  0  0  0  0  0  0
   46.9940   34.2860   45.5500 H   0  0  0  0  0  0  0  0  0  0  0  0
   44.2970   34.8200   46.3240 H   0  0  0  0  0  0  0  0  0  0  0  0
   43.9560   36.3310   44.5460 H   0  0  0  0  0  0  0  0  0  0  0  0
   45.9360   36.5490   42.9760 H   0  0  0  0  0  0  0  0  0  0  0  0
   47.5670   34.8700   43.4890 H   0  0  0  0  0  0  0  0  0  0  0  0
   46.7540   34.3180   42.0250 H   0  0  0  0  0  0  0  0  0  0  0  0
   45.1500   32.9730   43.4210 H   0  0  0  0  0  0  0  0  0  0  0  0
   46.9590   32.6490   43.5170 H   0  0  0  0  0  0  0  0  0  0  0  0
   44.4810   35.2920   42.0480 C   0  0  0  0  0  0  0  0  0  0  0  0
   43.4210   34.5010   42.4500 F   0  0  0  0  0  0  0  0  0  0  0  0
   43.9360   36.5300   41.7210 F   0  0  0  0  0  0  0  0  0  0  0  0
   45.1360   34.8270   40.9230 F   0  0  0  0  0  0  0  0  0  0  0  0
  1  8  1  0  0  0  0
  1  6  1  0  0  0  0
  2  1  2  0  0  0  0
  3  2  1  0  0  0  0
  3  4  2  0  0  0  0
  4  5  1  0  0  0  0
  5  6  2  0  0  0  0
  5  7  1  0  0  0  0
  7 10  1  0  0  0  0
  9  7  1  0  0  0  0
 11  3  1  0  0  0  0
 12 11  1  0  0  0  0
 13 14  1  0  0  0  0
 13 12  2  0  0  0  0
 14 15  1  0  0  0  0
 15 11  2  0  0  0  0
 16 12  1  0  0  0  0
 17 13  1  0  0  0  0
 18 19  1  0  0  0  0
 18 14  1  0  0  0  0
 20 19  2  0  0  0  0
 21 20  1  0  0  0  0
 22 21  2  0  0  0  0
 22 29  1  0  0  0  0
 23 22  1  0  0  0  0
 24 23  2  0  0  0  0
 24 26  1  0  0  0  0
 25 24  1  0  0  0  0
 26 28  2  0  0  0  0
 27 26  1  0  0  0  0
 29 28  1  0  0  0  0
 29 18  2  0  0  0  0
 30 31  1  0  0  0  0
 30 36  1  1  0  0  0
 30  2  1  0  0  0  0
 31 37  1  0  0  0  0
 32 38  1  0  0  0  0
 32 31  2  0  0  0  0
 33 39  1  6  0  0  0
 33 32  1  0  0  0  0
 34 33  1  0  0  0  0
 34 40  1  0  0  0  0
 34 35  1  0  0  0  0
 35 30  1  0  0  0  0
 41 34  1  0  0  0  0
 42 35  1  0  0  0  0
 43 35  1  0  0  0  0
 44 45  1  0  0  0  0
 44 33  1  0  0  0  0
 46 44  1  0  0  0  0
 47 44  1  0  0  0  0
M  END
>  <minimizedAffinity>
-6.033535

>  <minimizedRMSD>
0.204493299

$$$$
