
 OpenBabel03232520403D

 31 34  0  0  0  0  0  0  0  0999 V2000
   43.7250   35.5560   42.5130 C   0  0  0  0  0  0  0  0  0  0  0  0
   43.0640   35.0790   41.3500 C   0  0  0  0  0  0  0  0  0  0  0  0
   43.7840   34.3770   40.4090 C   0  0  0  0  0  0  0  0  0  0  0  0
   45.1080   34.1670   40.6320 N   0  0  0  0  0  0  0  0  0  0  0  0
   45.7170   34.6340   41.7520 C   0  0  0  0  0  0  0  0  0  0  0  0
   45.0390   35.3210   42.6850 N   0  0  0  0  0  0  0  0  0  0  0  0
   43.1950   36.1110   43.2760 H   0  0  0  0  0  0  0  0  0  0  0  0
   43.2750   34.0170   39.5270 H   0  0  0  0  0  0  0  0  0  0  0  0
   47.1480   34.4130   42.0010 C   0  0  0  0  0  0  0  0  0  0  0  0
   48.0360   35.4540   41.7740 C   0  0  0  0  0  0  0  0  0  0  0  0
   49.3990   35.3070   41.9900 C   0  0  0  0  0  0  0  0  0  0  0  0
   49.8900   34.0890   42.4440 C   0  0  0  0  0  0  0  0  0  0  0  0
   48.9640   33.0790   42.6560 C   0  0  0  0  0  0  0  0  0  0  0  0
   47.6460   33.2440   42.4400 N   0  0  0  0  0  0  0  0  0  0  0  0
   47.6580   36.4050   41.4200 H   0  0  0  0  0  0  0  0  0  0  0  0
   50.1230   36.0860   41.8280 H   0  0  0  0  0  0  0  0  0  0  0  0
   50.9200   33.8410   42.6520 H   0  0  0  0  0  0  0  0  0  0  0  0
   49.1680   32.0700   43.0070 H   0  0  0  0  0  0  0  0  0  0  0  0
   41.2910   35.4280   41.1680 S   0  0  0  0  0  0  0  0  0  0  0  0
   40.4100   33.8950   40.9550 C   0  0  0  0  0  0  0  0  0  0  0  0
   40.4230   32.9460   41.9190 N   0  0  0  0  0  0  0  0  0  0  0  0
   39.7530   31.7770   41.7600 C   0  0  0  0  0  0  0  0  0  0  0  0
   39.0620   31.5520   40.6270 N   0  0  0  0  0  0  0  0  0  0  0  0
   39.0550   32.4930   39.6830 C   0  0  0  0  0  0  0  0  0  0  0  0
   38.3330   32.2260   38.5280 C   0  0  0  0  0  0  0  0  0  0  0  0
   38.2520   33.1240   37.4830 C   0  0  0  0  0  0  0  0  0  0  0  0
   37.6930   32.9260   36.5810 H   0  0  0  0  0  0  0  0  0  0  0  0
   38.9350   34.3140   37.6450 C   0  0  0  0  0  0  0  0  0  0  0  0
   38.8640   35.0100   36.8180 H   0  0  0  0  0  0  0  0  0  0  0  0
   39.6810   34.6520   38.7760 C   0  0  0  0  0  0  0  0  0  0  0  0
   39.7190   33.7210   39.7740 C   0  0  0  0  0  0  0  0  0  0  0  0
  1  6  1  0  0  0  0
  1  7  1  0  0  0  0
  2  1  2  0  0  0  0
  3  4  2  0  0  0  0
  3  2  1  0  0  0  0
  4  5  1  0  0  0  0
  5  9  1  0  0  0  0
  5  6  2  0  0  0  0
  8  3  1  0  0  0  0
  9 14  1  0  0  0  0
 10 11  1  0  0  0  0
 10  9  2  0  0  0  0
 11 12  2  0  0  0  0
 12 17  1  0  0  0  0
 12 13  1  0  0  0  0
 13 18  1  0  0  0  0
 14 13  2  0  0  0  0
 15 10  1  0  0  0  0
 16 11  1  0  0  0  0
 19  2  1  0  0  0  0
 20 19  1  0  0  0  0
 20 21  1  0  0  0  0
 22 21  2  0  0  0  0
 23 22  1  0  0  0  0
 24 31  1  0  0  0  0
 24 23  2  0  0  0  0
 25 24  1  0  0  0  0
 26 28  1  0  0  0  0
 26 25  2  0  0  0  0
 27 26  1  0  0  0  0
 28 30  2  0  0  0  0
 29 28  1  0  0  0  0
 30 31  1  0  0  0  0
 31 20  2  0  0  0  0
M  END
>  <minimizedAffinity>
-6.75941801

>  <minimizedRMSD>
1.57987309

$$$$
