
 OpenBabel03232521003D

 47 51  0  0  1  0  0  0  0  0999 V2000
   45.4880   32.8560   47.5130 C   0  0  0  0  0  0  0  0  0  0  0  0
   45.9530   32.6090   46.2600 C   0  0  0  0  0  0  0  0  0  0  0  0
   46.1250   31.2510   45.9620 C   0  0  0  0  0  0  0  0  0  0  0  0
   45.8560   30.2460   46.8330 N   0  0  0  0  0  0  0  0  0  0  0  0
   45.3830   30.5500   48.1000 C   0  0  0  0  0  0  0  0  0  0  0  0
   45.2110   31.8360   48.4090 N   0  0  0  0  0  0  0  0  0  0  0  0
   45.1000   29.5270   49.0310 N   0  0  0  0  0  0  0  0  0  0  0  0
   45.3230   33.8680   47.8480 H   0  0  0  0  0  0  0  0  0  0  0  0
   44.3470   28.8500   48.7480 H   0  0  0  0  0  0  0  0  0  0  0  0
   45.6020   29.4410   49.9430 H   0  0  0  0  0  0  0  0  0  0  0  0
   46.6550   30.5620   44.7990 C   0  0  0  0  0  0  0  0  0  0  0  0
   46.1940   29.8530   43.7360 C   0  0  0  0  0  0  0  0  0  0  0  0
   47.3050   29.4180   42.9900 C   0  0  0  0  0  0  0  0  0  0  0  0
   48.3690   29.8880   43.6390 N   0  0  0  0  0  0  0  0  0  0  0  0
   48.0180   30.5640   44.7050 N   0  0  0  0  0  0  0  0  0  0  0  0
   45.1220   29.7460   43.6450 H   0  0  0  0  0  0  0  0  0  0  0  0
   47.1240   28.8340   42.1020 H   0  0  0  0  0  0  0  0  0  0  0  0
   49.6430   29.5730   43.0630 C   0  0  0  0  0  0  0  0  0  0  0  0
   50.6410   30.4430   43.3590 N   0  0  0  0  0  0  0  0  0  0  0  0
   51.8780   30.2250   42.8590 C   0  0  0  0  0  3  0  0  0  0  0  0
   52.1910   29.1660   42.0590 N   0  0  0  0  0  0  0  0  0  0  0  0
   51.1920   28.3110   41.7720 C   0  0  0  0  0  0  0  0  0  0  0  0
   51.4340   27.2050   40.9620 C   0  0  0  0  0  3  0  0  0  0  0  0
   50.4060   26.3260   40.6680 C   0  0  0  0  0  0  0  0  0  0  0  0
   50.6450   25.4830   40.0340 H   0  0  0  0  0  0  0  0  0  0  0  0
   49.1390   26.5450   41.1780 C   0  0  0  0  0  0  0  0  0  0  0  0
   48.3350   25.8390   40.9350 H   0  0  0  0  0  0  0  0  0  0  0  0
   48.8480   27.6410   41.9950 C   0  0  0  0  0  3  0  0  0  0  0  0
   49.9090   28.4850   42.2570 C   0  0  0  0  0  0  0  0  0  0  0  0
   46.1900   33.5780   45.2450 C   0  0  2  0  0  0  0  0  0  0  0  0
   44.9620   34.6510   45.4910 C   0  0  0  0  0  0  0  0  0  0  0  0
   44.7190   35.5940   44.4350 C   0  0  0  0  0  0  0  0  0  0  0  0
   45.5270   35.5500   43.2090 C   0  0  1  0  0  0  0  0  0  0  0  0
   46.5920   34.5570   43.1440 C   0  0  0  0  0  0  0  0  0  0  0  0
   46.1540   33.3100   43.8760 C   0  0  0  0  0  0  0  0  0  0  0  0
   46.9960   34.2950   45.5810 H   0  0  0  0  0  0  0  0  0  0  0  0
   44.2820   34.7810   46.3230 H   0  0  0  0  0  0  0  0  0  0  0  0
   43.9410   36.3020   44.5530 H   0  0  0  0  0  0  0  0  0  0  0  0
   45.9380   36.5620   43.0110 H   0  0  0  0  0  0  0  0  0  0  0  0
   47.5870   34.9040   43.5330 H   0  0  0  0  0  0  0  0  0  0  0  0
   46.8020   34.3520   42.0530 H   0  0  0  0  0  0  0  0  0  0  0  0
   45.2000   32.9720   43.4170 H   0  0  0  0  0  0  0  0  0  0  0  0
   47.0130   32.6740   43.5340 H   0  0  0  0  0  0  0  0  0  0  0  0
   44.5150   35.2920   42.0540 C   0  0  0  0  0  0  0  0  0  0  0  0
   43.4550   34.4910   42.4380 F   0  0  0  0  0  0  0  0  0  0  0  0
   43.9650   36.5260   41.7220 F   0  0  0  0  0  0  0  0  0  0  0  0
   45.1900   34.8350   40.9370 F   0  0  0  0  0  0  0  0  0  0  0  0
  1  8  1  0  0  0  0
  1  6  1  0  0  0  0
  2  1  2  0  0  0  0
  3  2  1  0  0  0  0
  3  4  2  0  0  0  0
  4  5  1  0  0  0  0
  5  6  2  0  0  0  0
  5  7  1  0  0  0  0
  7 10  1  0  0  0  0
  9  7  1  0  0  0  0
 11  3  1  0  0  0  0
 12 11  1  0  0  0  0
 13 14  1  0  0  0  0
 13 12  2  0  0  0  0
 14 15  1  0  0  0  0
 15 11  2  0  0  0  0
 16 12  1  0  0  0  0
 17 13  1  0  0  0  0
 18 19  1  0  0  0  0
 18 14  1  0  0  0  0
 20 19  2  0  0  0  0
 21 20  1  0  0  0  0
 22 21  2  0  0  0  0
 22 29  1  0  0  0  0
 23 22  1  0  0  0  0
 24 23  2  0  0  0  0
 24 26  1  0  0  0  0
 25 24  1  0  0  0  0
 26 28  2  0  0  0  0
 27 26  1  0  0  0  0
 28 29  1  0  0  0  0
 29 18  2  0  0  0  0
 30 31  1  0  0  0  0
 30 36  1  1  0  0  0
 30  2  1  0  0  0  0
 31 37  1  0  0  0  0
 32 38  1  0  0  0  0
 32 31  2  0  0  0  0
 33 39  1  6  0  0  0
 33 32  1  0  0  0  0
 34 33  1  0  0  0  0
 34 40  1  0  0  0  0
 34 35  1  0  0  0  0
 35 30  1  0  0  0  0
 41 34  1  0  0  0  0
 42 35  1  0  0  0  0
 43 35  1  0  0  0  0
 44 45  1  0  0  0  0
 44 33  1  0  0  0  0
 46 44  1  0  0  0  0
 47 44  1  0  0  0  0
M  END
>  <minimizedAffinity>
-6.03786373

>  <minimizedRMSD>
0.273499191

$$$$
