
 OpenBabel03232519143D

 33 35  0  0  1  0  0  0  0  0999 V2000
   44.4070   35.6530   43.6520 C   0  0  1  0  0  0  0  0  0  0  0  0
   43.5700   35.5420   44.4010 H   0  0  0  0  0  0  0  0  0  0  0  0
   45.4310   34.6630   44.0140 C   0  0  0  0  0  0  0  0  0  0  0  0
   46.4560   34.4000   43.0830 C   0  0  0  0  0  0  0  0  0  0  0  0
   47.4550   33.4580   43.3920 C   0  0  0  0  0  0  0  0  0  0  0  0
   47.3630   32.8510   44.5990 N   0  0  0  0  0  0  0  0  0  0  0  0
   46.3960   33.1100   45.4590 C   0  0  0  0  0  0  0  0  0  0  0  0
   45.4310   34.0080   45.1810 N   0  0  0  0  0  0  0  0  0  0  0  0
   46.5530   34.8700   42.1140 H   0  0  0  0  0  0  0  0  0  0  0  0
   48.2560   33.2290   42.7060 H   0  0  0  0  0  0  0  0  0  0  0  0
   46.3120   32.4590   46.7760 C   0  0  0  0  0  0  0  0  0  0  0  0
   47.3620   31.5880   47.1400 C   0  0  0  0  0  0  0  0  0  0  0  0
   46.7970   31.0570   48.8310 S   0  0  0  0  0  0  0  0  0  0  0  0
   45.2400   32.1270   48.7110 C   0  0  0  0  0  0  0  0  0  0  0  0
   45.3720   32.5750   47.7030 N   0  0  0  0  0  0  0  0  0  0  0  0
   48.2320   31.2890   46.6430 H   0  0  0  0  0  0  0  0  0  0  0  0
   44.5040   32.1860   49.4960 H   0  0  0  0  0  0  0  0  0  0  0  0
   44.9810   37.0630   43.7370 C   0  0  0  0  0  0  0  0  0  0  0  0
   44.3400   37.6490   44.4240 H   0  0  0  0  0  0  0  0  0  0  0  0
   44.9400   37.5890   42.7700 H   0  0  0  0  0  0  0  0  0  0  0  0
   46.0140   37.0620   44.1920 H   0  0  0  0  0  0  0  0  0  0  0  0
   43.8290   35.4270   42.2970 C   0  0  0  0  0  0  0  0  0  0  0  0
   44.2320   36.1080   41.5300 H   0  0  0  0  0  0  0  0  0  0  0  0
   44.1810   34.3990   41.9830 H   0  0  0  0  0  0  0  0  0  0  0  0
   42.4100   35.3640   42.3100 N   0  0  0  0  0  0  0  0  0  0  0  0
   41.9310   35.6490   43.2050 H   0  0  0  0  0  0  0  0  0  0  0  0
   41.3380   35.0240   41.4710 C   0  0  0  0  0  0  0  0  0  0  0  0
   41.4490   35.5650   40.2020 C   0  0  0  0  0  0  0  0  0  0  0  0
   40.4740   35.3280   39.2460 C   0  0  0  0  0  0  0  0  0  0  0  0
   39.4110   34.5710   39.5380 N   0  0  0  0  0  0  0  0  0  0  0  0
   39.3090   34.0490   40.7690 C   0  0  0  0  0  0  0  0  0  0  0  0
   38.4710   33.4120   41.1030 H   0  0  0  0  0  0  0  0  0  0  0  0
   40.2430   34.2560   41.7440 N   0  0  0  0  0  0  0  0  0  0  0  0
  1 18  1  0  0  0  0
  1  3  1  0  0  0  0
  1  2  1  1  0  0  0
  3  8  1  0  0  0  0
  4  5  1  0  0  0  0
  4  3  2  0  0  0  0
  5  6  2  0  0  0  0
  6  7  1  0  0  0  0
  7 11  1  0  0  0  0
  8  7  2  0  0  0  0
  9  4  1  0  0  0  0
 10  5  1  0  0  0  0
 11 12  2  0  0  0  0
 11 15  1  0  0  0  0
 12 13  1  0  0  0  0
 14 13  1  0  0  0  0
 14 17  1  0  0  0  0
 15 14  2  0  0  0  0
 16 12  1  0  0  0  0
 18 21  1  0  0  0  0
 18 19  1  0  0  0  0
 20 18  1  0  0  0  0
 22 25  1  0  0  0  0
 22  1  1  0  0  0  0
 23 22  1  0  0  0  0
 24 22  1  0  0  0  0
 25 26  1  0  0  0  0
 27 33  1  0  0  0  0
 27 25  1  0  0  0  0
 28 27  2  0  0  0  0
 29 30  2  0  0  0  0
 29 28  1  0  0  0  0
 30 31  1  0  0  0  0
 31 32  1  0  0  0  0
 31 33  2  0  0  0  0
M  END
>  <minimizedAffinity>
-5.62978411

>  <minimizedRMSD>
2.84311485

$$$$
