
 OpenBabel03232521003D

 41 44  0  0  1  0  0  0  0  0999 V2000
   45.3500   32.8730   47.4620 C   0  0  0  0  0  0  0  0  0  0  0  0
   45.9180   32.6350   46.2510 C   0  0  0  0  0  0  0  0  0  0  0  0
   46.2090   31.2900   46.0010 C   0  0  0  0  0  0  0  0  0  0  0  0
   45.9530   30.2850   46.8780 N   0  0  0  0  0  0  0  0  0  0  0  0
   45.3720   30.5890   48.1000 C   0  0  0  0  0  0  0  0  0  0  0  0
   45.0880   31.8590   48.3610 N   0  0  0  0  0  0  0  0  0  0  0  0
   45.1130   29.5630   49.0490 N   0  0  0  0  0  0  0  0  0  0  0  0
   45.0900   33.8750   47.7610 H   0  0  0  0  0  0  0  0  0  0  0  0
   45.2130   29.7520   50.0750 H   0  0  0  0  0  0  0  0  0  0  0  0
   44.8150   28.5830   48.7770 H   0  0  0  0  0  0  0  0  0  0  0  0
   46.1540   33.5970   45.2300 C   0  0  2  0  0  0  0  0  0  0  0  0
   44.9480   34.6890   45.4840 C   0  0  0  0  0  0  0  0  0  0  0  0
   44.7060   35.6290   44.4250 C   0  0  0  0  0  0  0  0  0  0  0  0
   45.4940   35.5680   43.1920 C   0  0  1  0  0  0  0  0  0  0  0  0
   46.5530   34.5670   43.1250 C   0  0  0  0  0  0  0  0  0  0  0  0
   46.1100   33.3260   43.8640 C   0  0  0  0  0  0  0  0  0  0  0  0
   46.9690   34.3090   45.5610 H   0  0  0  0  0  0  0  0  0  0  0  0
   44.2840   34.8290   46.3280 H   0  0  0  0  0  0  0  0  0  0  0  0
   43.9400   36.3480   44.5540 H   0  0  0  0  0  0  0  0  0  0  0  0
   45.9210   36.5800   43.0000 H   0  0  0  0  0  0  0  0  0  0  0  0
   46.7990   34.3780   42.0510 H   0  0  0  0  0  0  0  0  0  0  0  0
   47.4520   34.9390   43.6560 H   0  0  0  0  0  0  0  0  0  0  0  0
   45.1670   32.9460   43.4190 H   0  0  0  0  0  0  0  0  0  0  0  0
   46.9510   32.6760   43.5090 H   0  0  0  0  0  0  0  0  0  0  0  0
   44.4690   35.3140   42.0470 C   0  0  0  0  0  0  0  0  0  0  0  0
   43.4020   34.5310   42.4520 F   0  0  0  0  0  0  0  0  0  0  0  0
   43.9390   36.5590   41.7140 F   0  0  0  0  0  0  0  0  0  0  0  0
   45.1290   34.8450   40.9300 F   0  0  0  0  0  0  0  0  0  0  0  0
   46.8730   30.6160   44.8990 C   0  0  0  0  0  0  0  0  0  0  0  0
   46.5560   29.8100   43.8560 C   0  0  0  0  0  0  0  0  0  0  0  0
   47.7420   29.4800   43.1850 C   0  0  0  0  0  0  0  0  0  0  0  0
   48.7150   30.1020   43.8540 N   0  0  0  0  0  0  0  0  0  0  0  0
   48.2280   30.7780   44.8670 N   0  0  0  0  0  0  0  0  0  0  0  0
   45.5180   29.5640   43.7130 H   0  0  0  0  0  0  0  0  0  0  0  0
   47.7270   28.8430   42.3180 H   0  0  0  0  0  0  0  0  0  0  0  0
   50.1030   30.0110   43.4710 C   0  0  0  0  0  0  0  0  0  0  0  0
   50.6790   30.4690   42.3030 C   0  0  0  0  0  3  0  0  0  0  0  0
   51.9710   30.1640   42.3990 N   0  0  0  0  0  0  0  0  0  0  0  0
   52.2260   29.5370   43.5730 C   0  0  0  0  0  3  0  0  0  0  0  0
   51.0740   29.4390   44.2420 N   0  0  0  0  0  0  0  0  0  0  0  0
   50.8700   29.0130   45.1950 H   0  0  0  0  0  0  0  0  0  0  0  0
  1  8  1  0  0  0  0
  1  6  1  0  0  0  0
  2  1  2  0  0  0  0
  3  2  1  0  0  0  0
  3  4  2  0  0  0  0
  4  5  1  0  0  0  0
  5  6  2  0  0  0  0
  5  7  1  0  0  0  0
  7  9  1  0  0  0  0
 10  7  1  0  0  0  0
 11 12  1  0  0  0  0
 11 17  1  1  0  0  0
 11  2  1  0  0  0  0
 12 18  1  0  0  0  0
 13 19  1  0  0  0  0
 13 12  2  0  0  0  0
 14 20  1  6  0  0  0
 14 13  1  0  0  0  0
 15 14  1  0  0  0  0
 15 22  1  0  0  0  0
 15 16  1  0  0  0  0
 16 11  1  0  0  0  0
 21 15  1  0  0  0  0
 23 16  1  0  0  0  0
 24 16  1  0  0  0  0
 25 26  1  0  0  0  0
 25 14  1  0  0  0  0
 27 25  1  0  0  0  0
 28 25  1  0  0  0  0
 29  3  1  0  0  0  0
 30 29  1  0  0  0  0
 31 32  1  0  0  0  0
 31 30  2  0  0  0  0
 32 33  1  0  0  0  0
 33 29  2  0  0  0  0
 34 30  1  0  0  0  0
 35 31  1  0  0  0  0
 36 32  1  0  0  0  0
 36 40  1  0  0  0  0
 37 38  1  0  0  0  0
 37 36  2  0  0  0  0
 38 39  2  0  0  0  0
 39 40  1  0  0  0  0
 40 41  1  0  0  0  0
M  END
>  <minimizedAffinity>
-5.70062399

>  <minimizedRMSD>
0.347346187

$$$$
