
 OpenBabel03232521003D

 41 44  0  0  1  0  0  0  0  0999 V2000
   45.3470   32.8740   47.4920 C   0  0  0  0  0  0  0  0  0  0  0  0
   45.9160   32.6310   46.2820 C   0  0  0  0  0  0  0  0  0  0  0  0
   46.1980   31.2840   46.0350 C   0  0  0  0  0  0  0  0  0  0  0  0
   45.9340   30.2820   46.9120 N   0  0  0  0  0  0  0  0  0  0  0  0
   45.3520   30.5900   48.1320 C   0  0  0  0  0  0  0  0  0  0  0  0
   45.0760   31.8630   48.3920 N   0  0  0  0  0  0  0  0  0  0  0  0
   45.0840   29.5670   49.0820 N   0  0  0  0  0  0  0  0  0  0  0  0
   45.0930   33.8780   47.7900 H   0  0  0  0  0  0  0  0  0  0  0  0
   45.1840   29.7570   50.1080 H   0  0  0  0  0  0  0  0  0  0  0  0
   44.7800   28.5890   48.8110 H   0  0  0  0  0  0  0  0  0  0  0  0
   46.1600   33.5910   45.2610 C   0  0  2  0  0  0  0  0  0  0  0  0
   44.9500   34.6820   45.5010 C   0  0  0  0  0  0  0  0  0  0  0  0
   44.7160   35.6190   44.4370 C   0  0  0  0  0  0  0  0  0  0  0  0
   45.5160   35.5550   43.2110 C   0  0  1  0  0  0  0  0  0  0  0  0
   46.5770   34.5560   43.1570 C   0  0  0  0  0  0  0  0  0  0  0  0
   46.1290   33.3160   43.8950 C   0  0  0  0  0  0  0  0  0  0  0  0
   46.9700   34.3050   45.5970 H   0  0  0  0  0  0  0  0  0  0  0  0
   44.2780   34.8240   46.3380 H   0  0  0  0  0  0  0  0  0  0  0  0
   43.9480   36.3370   44.5560 H   0  0  0  0  0  0  0  0  0  0  0  0
   45.9430   36.5670   43.0200 H   0  0  0  0  0  0  0  0  0  0  0  0
   46.8330   34.3640   42.0860 H   0  0  0  0  0  0  0  0  0  0  0  0
   47.4710   34.9300   43.6950 H   0  0  0  0  0  0  0  0  0  0  0  0
   45.1900   32.9340   43.4430 H   0  0  0  0  0  0  0  0  0  0  0  0
   46.9730   32.6660   43.5500 H   0  0  0  0  0  0  0  0  0  0  0  0
   44.5020   35.2960   42.0570 C   0  0  0  0  0  0  0  0  0  0  0  0
   43.4370   34.5070   42.4530 F   0  0  0  0  0  0  0  0  0  0  0  0
   43.9670   36.5380   41.7210 F   0  0  0  0  0  0  0  0  0  0  0  0
   45.1750   34.8330   40.9450 F   0  0  0  0  0  0  0  0  0  0  0  0
   46.8590   30.6050   44.9340 C   0  0  0  0  0  0  0  0  0  0  0  0
   46.5370   29.8110   43.8830 C   0  0  0  0  0  0  0  0  0  0  0  0
   47.7230   29.4630   43.2210 C   0  0  0  0  0  0  0  0  0  0  0  0
   48.7010   30.0620   43.9030 N   0  0  0  0  0  0  0  0  0  0  0  0
   48.2180   30.7410   44.9160 N   0  0  0  0  0  0  0  0  0  0  0  0
   45.4960   29.5860   43.7280 H   0  0  0  0  0  0  0  0  0  0  0  0
   47.7030   28.8320   42.3500 H   0  0  0  0  0  0  0  0  0  0  0  0
   50.0900   29.9470   43.5330 C   0  0  0  0  0  0  0  0  0  0  0  0
   50.6720   30.3340   42.3420 C   0  0  0  0  0  3  0  0  0  0  0  0
   51.9640   30.0340   42.4600 N   0  0  0  0  0  0  0  0  0  0  0  0
   52.2130   29.4780   43.6720 C   0  0  0  0  0  3  0  0  0  0  0  0
   51.0570   29.4210   44.3410 N   0  0  0  0  0  0  0  0  0  0  0  0
   50.8490   29.0520   45.3160 H   0  0  0  0  0  0  0  0  0  0  0  0
  1  8  1  0  0  0  0
  1  6  1  0  0  0  0
  2  1  2  0  0  0  0
  3  2  1  0  0  0  0
  3  4  2  0  0  0  0
  4  5  1  0  0  0  0
  5  6  2  0  0  0  0
  5  7  1  0  0  0  0
  7  9  1  0  0  0  0
 10  7  1  0  0  0  0
 11 12  1  0  0  0  0
 11 17  1  1  0  0  0
 11  2  1  0  0  0  0
 12 18  1  0  0  0  0
 13 19  1  0  0  0  0
 13 12  2  0  0  0  0
 14 20  1  6  0  0  0
 14 13  1  0  0  0  0
 15 14  1  0  0  0  0
 15 22  1  0  0  0  0
 15 16  1  0  0  0  0
 16 11  1  0  0  0  0
 21 15  1  0  0  0  0
 23 16  1  0  0  0  0
 24 16  1  0  0  0  0
 25 26  1  0  0  0  0
 25 14  1  0  0  0  0
 27 25  1  0  0  0  0
 28 25  1  0  0  0  0
 29  3  1  0  0  0  0
 30 29  1  0  0  0  0
 31 30  2  0  0  0  0
 31 32  1  0  0  0  0
 32 33  1  0  0  0  0
 33 29  2  0  0  0  0
 34 30  1  0  0  0  0
 35 31  1  0  0  0  0
 36 32  1  0  0  0  0
 36 40  1  0  0  0  0
 37 38  1  0  0  0  0
 37 36  2  0  0  0  0
 38 39  2  0  0  0  0
 39 40  1  0  0  0  0
 40 41  1  0  0  0  0
M  END
>  <minimizedAffinity>
-5.70369053

>  <minimizedRMSD>
0.254882753

$$$$
