
 OpenBabel03232517413D

 32 34  0  0  0  0  0  0  0  0999 V2000
   43.4800   35.2770   41.3470 C   0  0  0  0  0  0  0  0  0  0  0  0
   42.9030   34.4680   40.3570 C   0  0  0  0  0  0  0  0  0  0  0  0
   43.0450   33.1030   40.5090 C   0  0  0  0  0  0  0  0  0  0  0  0
   43.7280   32.6050   41.5950 N   0  0  0  0  0  0  0  0  0  0  0  0
   44.2560   33.4270   42.5040 C   0  0  0  0  0  0  0  0  0  0  0  0
   44.1330   34.7510   42.3820 N   0  0  0  0  0  0  0  0  0  0  0  0
   43.4160   36.3620   41.3070 H   0  0  0  0  0  0  0  0  0  0  0  0
   44.7750   32.9460   43.3220 H   0  0  0  0  0  0  0  0  0  0  0  0
   42.4600   32.2650   39.5040 N   0  0  0  0  0  0  0  0  0  0  0  0
   43.1480   32.0850   38.3430 C   0  0  0  0  0  0  0  0  0  0  0  0
   42.5680   31.2800   37.3990 C   0  0  0  0  0  0  0  0  0  0  0  0
   41.3350   30.6590   37.5840 C   0  0  0  0  0  0  0  0  0  0  0  0
   40.8800   29.9420   36.6730 O   0  0  0  0  0  0  0  0  0  0  0  0
   40.6890   30.8690   38.7590 N   0  0  0  0  0  0  0  0  0  0  0  0
   41.2610   31.6570   39.6780 C   0  0  0  0  0  0  0  0  0  0  0  0
   40.6320   31.8230   40.7440 O   0  0  0  0  0  0  0  0  0  0  0  0
   44.0960   32.5730   38.2200 H   0  0  0  0  0  0  0  0  0  0  0  0
   39.7680   30.4210   38.9280 H   0  0  0  0  0  0  0  0  0  0  0  0
   43.3340   31.0860   36.1180 C   0  0  0  0  0  0  0  0  0  0  0  0
   42.6150   30.6310   35.3760 H   0  0  0  0  0  0  0  0  0  0  0  0
   43.5110   32.1080   35.7020 H   0  0  0  0  0  0  0  0  0  0  0  0
   44.2450   30.4990   36.2520 H   0  0  0  0  0  0  0  0  0  0  0  0
   42.2380   35.1070   39.3090 N   0  0  0  0  0  0  0  0  0  0  0  0
   42.8350   35.3730   38.1910 N   0  0  0  0  0  0  0  0  0  0  0  0
   41.9700   35.9930   37.3450 C   0  0  0  0  0  0  0  0  0  0  0  0
   40.7710   36.0840   38.0580 C   0  0  0  0  0  0  0  0  0  0  0  0
   40.9710   35.5110   39.3080 C   0  0  0  0  0  0  0  0  0  0  0  0
   42.1860   36.3340   36.3400 H   0  0  0  0  0  0  0  0  0  0  0  0
   39.8530   36.5350   37.6710 H   0  0  0  0  0  0  0  0  0  0  0  0
   39.9330   35.4250   40.3330 C   0  0  0  0  0  0  0  0  0  0  0  0
   40.4890   34.8840   41.6290 C   0  0  0  0  0  0  0  0  0  0  0  0
   38.8400   34.4300   39.9190 C   0  0  0  0  0  0  0  0  0  0  0  0
  1  6  1  0  0  0  0
  2  3  1  0  0  0  0
  2  1  2  0  0  0  0
  3  4  2  0  0  0  0
  4  5  1  0  0  0  0
  5  8  1  0  0  0  0
  6  5  2  0  0  0  0
  7  1  1  0  0  0  0
  9 15  1  0  0  0  0
  9  3  1  0  0  0  0
 10  9  1  0  0  0  0
 11 12  1  0  0  0  0
 11 10  2  0  0  0  0
 12 14  1  0  0  0  0
 13 12  2  0  0  0  0
 14 18  1  0  0  0  0
 14 15  1  0  0  0  0
 15 16  2  0  0  0  0
 17 10  1  0  0  0  0
 19 22  1  0  0  0  0
 19 11  1  0  0  0  0
 20 19  1  0  0  0  0
 21 19  1  0  0  0  0
 23  2  1  0  0  0  0
 24 23  1  0  0  0  0
 25 26  1  0  0  0  0
 25 24  2  0  0  0  0
 26 27  2  0  0  0  0
 27 23  1  0  0  0  0
 27 30  1  0  0  0  0
 28 25  1  0  0  0  0
 29 26  1  0  0  0  0
 30 31  1  0  0  0  0
 32 30  1  0  0  0  0
M  END
>  <minimizedAffinity>
-4.56314945

>  <minimizedRMSD>
2.17588711

$$$$
