
 OpenBabel03232520593D

 41 44  0  0  1  0  0  0  0  0999 V2000
   45.3520   32.8780   47.5010 C   0  0  0  0  0  0  0  0  0  0  0  0
   45.9180   32.6320   46.2900 C   0  0  0  0  0  0  0  0  0  0  0  0
   46.1950   31.2840   46.0430 C   0  0  0  0  0  0  0  0  0  0  0  0
   45.9290   30.2830   46.9220 N   0  0  0  0  0  0  0  0  0  0  0  0
   45.3510   30.5950   48.1430 C   0  0  0  0  0  0  0  0  0  0  0  0
   45.0800   31.8690   48.4020 N   0  0  0  0  0  0  0  0  0  0  0  0
   45.0820   29.5740   49.0940 N   0  0  0  0  0  0  0  0  0  0  0  0
   45.1020   33.8830   47.7980 H   0  0  0  0  0  0  0  0  0  0  0  0
   45.1840   29.7640   50.1200 H   0  0  0  0  0  0  0  0  0  0  0  0
   44.7740   28.5960   48.8240 H   0  0  0  0  0  0  0  0  0  0  0  0
   46.1640   33.5900   45.2680 C   0  0  2  0  0  0  0  0  0  0  0  0
   44.9530   34.6810   45.5030 C   0  0  0  0  0  0  0  0  0  0  0  0
   44.7210   35.6160   44.4370 C   0  0  0  0  0  0  0  0  0  0  0  0
   45.5230   35.5500   43.2130 C   0  0  1  0  0  0  0  0  0  0  0  0
   46.5840   34.5510   43.1620 C   0  0  0  0  0  0  0  0  0  0  0  0
   46.1350   33.3120   43.9020 C   0  0  0  0  0  0  0  0  0  0  0  0
   46.9730   34.3050   45.6040 H   0  0  0  0  0  0  0  0  0  0  0  0
   44.2790   34.8240   46.3390 H   0  0  0  0  0  0  0  0  0  0  0  0
   43.9520   36.3330   44.5530 H   0  0  0  0  0  0  0  0  0  0  0  0
   45.9500   36.5620   43.0200 H   0  0  0  0  0  0  0  0  0  0  0  0
   46.8420   34.3570   42.0920 H   0  0  0  0  0  0  0  0  0  0  0  0
   47.4760   34.9270   43.7010 H   0  0  0  0  0  0  0  0  0  0  0  0
   45.1970   32.9290   43.4490 H   0  0  0  0  0  0  0  0  0  0  0  0
   46.9810   32.6620   43.5590 H   0  0  0  0  0  0  0  0  0  0  0  0
   44.5110   35.2890   42.0580 C   0  0  0  0  0  0  0  0  0  0  0  0
   43.4470   34.4960   42.4520 F   0  0  0  0  0  0  0  0  0  0  0  0
   43.9730   36.5290   41.7210 F   0  0  0  0  0  0  0  0  0  0  0  0
   45.1860   34.8280   40.9460 F   0  0  0  0  0  0  0  0  0  0  0  0
   46.8520   30.6010   44.9420 C   0  0  0  0  0  0  0  0  0  0  0  0
   46.5220   29.8330   43.8750 C   0  0  0  0  0  0  0  0  0  0  0  0
   47.7070   29.4600   43.2240 C   0  0  0  0  0  0  0  0  0  0  0  0
   48.6920   30.0200   43.9290 N   0  0  0  0  0  0  0  0  0  0  0  0
   48.2140   30.6970   44.9450 N   0  0  0  0  0  0  0  0  0  0  0  0
   45.4770   29.6410   43.7030 H   0  0  0  0  0  0  0  0  0  0  0  0
   47.6820   28.8420   42.3440 H   0  0  0  0  0  0  0  0  0  0  0  0
   50.0830   29.8700   43.5760 C   0  0  0  0  0  0  0  0  0  0  0  0
   50.8020   30.6270   42.6740 C   0  0  0  0  0  3  0  0  0  0  0  0
   52.0330   30.1200   42.6830 N   0  0  0  0  0  0  0  0  0  0  0  0
   52.1140   29.0820   43.5510 C   0  0  0  0  0  3  0  0  0  0  0  0
   50.9090   28.9210   44.1070 N   0  0  0  0  0  0  0  0  0  0  0  0
   50.5790   28.2150   44.8310 H   0  0  0  0  0  0  0  0  0  0  0  0
  1  8  1  0  0  0  0
  1  6  1  0  0  0  0
  2  1  2  0  0  0  0
  3  2  1  0  0  0  0
  3  4  2  0  0  0  0
  4  5  1  0  0  0  0
  5  6  2  0  0  0  0
  5  7  1  0  0  0  0
  7  9  1  0  0  0  0
 10  7  1  0  0  0  0
 11 12  1  0  0  0  0
 11 17  1  1  0  0  0
 11  2  1  0  0  0  0
 12 18  1  0  0  0  0
 13 19  1  0  0  0  0
 13 12  2  0  0  0  0
 14 20  1  6  0  0  0
 14 13  1  0  0  0  0
 15 14  1  0  0  0  0
 15 22  1  0  0  0  0
 15 16  1  0  0  0  0
 16 11  1  0  0  0  0
 21 15  1  0  0  0  0
 23 16  1  0  0  0  0
 24 16  1  0  0  0  0
 25 26  1  0  0  0  0
 25 14  1  0  0  0  0
 27 25  1  0  0  0  0
 28 25  1  0  0  0  0
 29 33  2  0  0  0  0
 29  3  1  0  0  0  0
 30 29  1  0  0  0  0
 31 30  2  0  0  0  0
 31 32  1  0  0  0  0
 32 33  1  0  0  0  0
 34 30  1  0  0  0  0
 35 31  1  0  0  0  0
 36 32  1  0  0  0  0
 36 40  1  0  0  0  0
 37 38  1  0  0  0  0
 37 36  2  0  0  0  0
 38 39  2  0  0  0  0
 39 40  1  0  0  0  0
 40 41  1  0  0  0  0
M  END
>  <minimizedAffinity>
-5.7006135

>  <minimizedRMSD>
0.472894192

$$$$
