
 OpenBabel03232520113D

 34 36  0  0  1  0  0  0  0  0999 V2000
   48.4730   29.1980   48.2130 N   0  0  0  0  0  0  0  0  0  0  0  0
   48.3140   27.8600   47.7220 C   0  0  0  0  0  0  0  0  0  0  0  0
   49.6230   27.2200   47.3320 C   0  0  0  0  0  0  0  0  0  0  0  0
   50.7400   27.6300   48.2530 C   0  0  0  0  0  0  0  0  0  0  0  0
   50.2350   28.2190   49.5450 C   0  0  0  0  0  0  0  0  0  0  0  0
   49.4410   29.4360   49.2430 C   0  0  1  0  0  0  0  0  0  0  0  0
   47.8210   27.2470   48.5240 H   0  0  0  0  0  0  0  0  0  0  0  0
   47.6620   27.8940   46.8200 H   0  0  0  0  0  0  0  0  0  0  0  0
   49.4300   26.1260   47.3370 H   0  0  0  0  0  0  0  0  0  0  0  0
   49.8610   27.4680   46.2590 H   0  0  0  0  0  0  0  0  0  0  0  0
   51.2450   26.6650   48.5570 H   0  0  0  0  0  0  0  0  0  0  0  0
   51.5510   28.2040   47.7710 H   0  0  0  0  0  0  0  0  0  0  0  0
   49.5540   27.4560   49.9850 H   0  0  0  0  0  0  0  0  0  0  0  0
   51.0870   28.4210   50.2030 H   0  0  0  0  0  0  0  0  0  0  0  0
   48.8160   29.6130   50.1720 H   0  0  0  0  0  0  0  0  0  0  0  0
   46.6280   32.4540   46.6520 C   0  0  0  0  0  0  0  0  0  0  0  0
   46.4970   32.3340   48.0080 C   0  0  0  0  0  0  0  0  0  0  0  0
   47.0820   31.2730   48.6250 C   0  0  0  0  0  0  0  0  0  0  0  0
   47.7720   30.3900   47.8120 C   0  0  0  0  0  0  0  0  0  0  0  0
   47.6030   31.0480   46.1700 S   0  0  0  0  0  0  0  0  0  0  0  0
   45.9280   33.0980   48.5240 H   0  0  0  0  0  0  0  0  0  0  0  0
   47.0380   31.0880   49.6890 H   0  0  0  0  0  0  0  0  0  0  0  0
   44.6570   35.2350   45.2830 C   0  0  0  0  0  0  0  0  0  0  0  0
   45.2030   35.3380   43.9750 C   0  0  0  0  0  0  0  0  0  0  0  0
   46.2250   34.4580   43.6000 C   0  0  0  0  0  0  0  0  0  0  0  0
   46.6570   33.5330   44.5110 N   0  0  0  0  0  0  0  0  0  0  0  0
   46.1230   33.4600   45.7370 C   0  0  0  0  0  0  0  0  0  0  0  0
   45.1330   34.2950   46.1310 N   0  0  0  0  0  0  0  0  0  0  0  0
   43.8670   35.9140   45.5740 H   0  0  0  0  0  0  0  0  0  0  0  0
   44.8260   36.0830   43.3000 H   0  0  0  0  0  0  0  0  0  0  0  0
   46.6600   34.5020   42.6300 H   0  0  0  0  0  0  0  0  0  0  0  0
   50.2200   30.7010   49.0660 C   0  0  0  0  0  0  0  0  0  0  0  0
   51.6150   30.5600   48.5900 C   0  0  0  0  0  0  0  0  0  0  0  0
   50.2200   31.4570   50.3930 C   0  0  0  0  0  0  0  0  0  0  0  0
  1  6  1  0  0  0  0
  2  1  1  0  0  0  0
  2  7  1  0  0  0  0
  3  9  1  0  0  0  0
  3  2  1  0  0  0  0
  3  4  1  0  0  0  0
  4 11  1  0  0  0  0
  4  5  1  0  0  0  0
  5 13  1  0  0  0  0
  5 14  1  0  0  0  0
  6  5  1  0  0  0  0
  6 15  1  1  0  0  0
  8  2  1  0  0  0  0
 10  3  1  0  0  0  0
 12  4  1  0  0  0  0
 16 17  2  0  0  0  0
 17 21  1  0  0  0  0
 17 18  1  0  0  0  0
 18 22  1  0  0  0  0
 19  1  1  0  0  0  0
 19 18  2  0  0  0  0
 20 16  1  0  0  0  0
 20 19  1  0  0  0  0
 23 29  1  0  0  0  0
 23 28  1  0  0  0  0
 24 23  2  0  0  0  0
 25 24  1  0  0  0  0
 25 26  2  0  0  0  0
 26 27  1  0  0  0  0
 27 28  2  0  0  0  0
 27 16  1  0  0  0  0
 30 24  1  0  0  0  0
 31 25  1  0  0  0  0
 32  6  1  0  0  0  0
 32 34  1  0  0  0  0
 33 32  1  0  0  0  0
M  END
>  <minimizedAffinity>
-4.51407814

>  <minimizedRMSD>
1.69925618

$$$$
