
 OpenBabel03232521003D

 41 44  0  0  1  0  0  0  0  0999 V2000
   45.3530   32.8760   47.5000 C   0  0  0  0  0  0  0  0  0  0  0  0
   45.9190   32.6310   46.2890 C   0  0  0  0  0  0  0  0  0  0  0  0
   46.1960   31.2830   46.0420 C   0  0  0  0  0  0  0  0  0  0  0  0
   45.9300   30.2820   46.9200 N   0  0  0  0  0  0  0  0  0  0  0  0
   45.3520   30.5930   48.1410 C   0  0  0  0  0  0  0  0  0  0  0  0
   45.0810   31.8660   48.4010 N   0  0  0  0  0  0  0  0  0  0  0  0
   45.0830   29.5710   49.0910 N   0  0  0  0  0  0  0  0  0  0  0  0
   45.1030   33.8810   47.7980 H   0  0  0  0  0  0  0  0  0  0  0  0
   45.1850   29.7610   50.1170 H   0  0  0  0  0  0  0  0  0  0  0  0
   44.7750   28.5940   48.8210 H   0  0  0  0  0  0  0  0  0  0  0  0
   46.1640   33.5890   45.2670 C   0  0  2  0  0  0  0  0  0  0  0  0
   44.9530   34.6800   45.5030 C   0  0  0  0  0  0  0  0  0  0  0  0
   44.7210   35.6150   44.4370 C   0  0  0  0  0  0  0  0  0  0  0  0
   45.5230   35.5500   43.2130 C   0  0  1  0  0  0  0  0  0  0  0  0
   46.5850   34.5520   43.1620 C   0  0  0  0  0  0  0  0  0  0  0  0
   46.1360   33.3120   43.9020 C   0  0  0  0  0  0  0  0  0  0  0  0
   46.9730   34.3050   45.6040 H   0  0  0  0  0  0  0  0  0  0  0  0
   44.2790   34.8220   46.3380 H   0  0  0  0  0  0  0  0  0  0  0  0
   43.9520   36.3320   44.5540 H   0  0  0  0  0  0  0  0  0  0  0  0
   45.9500   36.5620   43.0210 H   0  0  0  0  0  0  0  0  0  0  0  0
   46.8430   34.3590   42.0920 H   0  0  0  0  0  0  0  0  0  0  0  0
   47.4770   34.9270   43.7020 H   0  0  0  0  0  0  0  0  0  0  0  0
   45.1990   32.9290   43.4480 H   0  0  0  0  0  0  0  0  0  0  0  0
   46.9820   32.6630   43.5590 H   0  0  0  0  0  0  0  0  0  0  0  0
   44.5110   35.2890   42.0580 C   0  0  0  0  0  0  0  0  0  0  0  0
   43.4480   34.4960   42.4510 F   0  0  0  0  0  0  0  0  0  0  0  0
   43.9730   36.5300   41.7220 F   0  0  0  0  0  0  0  0  0  0  0  0
   45.1870   34.8290   40.9460 F   0  0  0  0  0  0  0  0  0  0  0  0
   46.8530   30.6010   44.9400 C   0  0  0  0  0  0  0  0  0  0  0  0
   46.5220   29.8340   43.8720 C   0  0  0  0  0  0  0  0  0  0  0  0
   47.7070   29.4610   43.2210 C   0  0  0  0  0  0  0  0  0  0  0  0
   48.6920   30.0190   43.9270 N   0  0  0  0  0  0  0  0  0  0  0  0
   48.2150   30.6950   44.9440 N   0  0  0  0  0  0  0  0  0  0  0  0
   45.4780   29.6440   43.6980 H   0  0  0  0  0  0  0  0  0  0  0  0
   47.6820   28.8440   42.3400 H   0  0  0  0  0  0  0  0  0  0  0  0
   50.0830   29.8670   43.5760 C   0  0  0  0  0  0  0  0  0  0  0  0
   50.8040   30.6250   42.6750 C   0  0  0  0  0  3  0  0  0  0  0  0
   52.0350   30.1170   42.6850 N   0  0  0  0  0  0  0  0  0  0  0  0
   52.1130   29.0760   43.5500 C   0  0  0  0  0  3  0  0  0  0  0  0
   50.9080   28.9160   44.1050 N   0  0  0  0  0  0  0  0  0  0  0  0
   50.5770   28.2100   44.8270 H   0  0  0  0  0  0  0  0  0  0  0  0
  1  8  1  0  0  0  0
  1  6  1  0  0  0  0
  2  1  2  0  0  0  0
  3  2  1  0  0  0  0
  3  4  2  0  0  0  0
  4  5  1  0  0  0  0
  5  6  2  0  0  0  0
  5  7  1  0  0  0  0
  7  9  1  0  0  0  0
 10  7  1  0  0  0  0
 11 12  1  0  0  0  0
 11 17  1  1  0  0  0
 11  2  1  0  0  0  0
 12 18  1  0  0  0  0
 13 19  1  0  0  0  0
 13 12  2  0  0  0  0
 14 20  1  6  0  0  0
 14 13  1  0  0  0  0
 15 14  1  0  0  0  0
 15 22  1  0  0  0  0
 15 16  1  0  0  0  0
 16 11  1  0  0  0  0
 21 15  1  0  0  0  0
 23 16  1  0  0  0  0
 24 16  1  0  0  0  0
 25 26  1  0  0  0  0
 25 14  1  0  0  0  0
 27 25  1  0  0  0  0
 28 25  1  0  0  0  0
 29 33  2  0  0  0  0
 29  3  1  0  0  0  0
 30 29  1  0  0  0  0
 31 30  2  0  0  0  0
 31 32  1  0  0  0  0
 32 33  1  0  0  0  0
 34 30  1  0  0  0  0
 35 31  1  0  0  0  0
 36 32  1  0  0  0  0
 36 40  1  0  0  0  0
 37 38  1  0  0  0  0
 37 36  2  0  0  0  0
 38 39  2  0  0  0  0
 39 40  1  0  0  0  0
 40 41  1  0  0  0  0
M  END
>  <minimizedAffinity>
-5.69881916

>  <minimizedRMSD>
0.331583351

$$$$
