
 OpenBabel03232517453D

 19 20  0  0  0  0  0  0  0  0999 V2000
   43.5220   34.3130   41.4340 N   0  0  0  0  0  0  0  0  0  0  0  0
   42.9400   33.3740   40.6960 C   0  0  0  0  0  0  0  0  0  0  0  0
   42.3650   33.9890   39.5890 C   0  0  0  0  0  0  0  0  0  0  0  0
   42.6060   35.2830   39.6720 N   0  0  0  0  0  0  0  0  0  0  0  0
   43.3200   35.4890   40.8120 C   0  0  0  0  0  0  0  0  0  0  0  0
   42.9540   32.3130   40.9820 H   0  0  0  0  0  0  0  0  0  0  0  0
   43.6270   36.4970   41.0760 H   0  0  0  0  0  0  0  0  0  0  0  0
   44.2960   35.3110   43.4470 C   0  0  0  0  0  0  0  0  0  0  0  0
   44.2240   34.1550   42.6430 C   0  0  0  0  0  0  0  0  0  0  0  0
   44.8420   32.9910   43.1080 C   0  0  0  0  0  0  0  0  0  0  0  0
   45.4740   33.0480   44.3110 N   0  0  0  0  0  0  0  0  0  0  0  0
   45.5230   34.1720   45.0520 C   0  0  0  0  0  0  0  0  0  0  0  0
   44.9280   35.3180   44.6200 N   0  0  0  0  0  0  0  0  0  0  0  0
   43.8610   36.2720   43.2030 H   0  0  0  0  0  0  0  0  0  0  0  0
   44.7640   32.1430   42.4710 H   0  0  0  0  0  0  0  0  0  0  0  0
   46.0810   33.9740   45.9720 H   0  0  0  0  0  0  0  0  0  0  0  0
   41.6250   33.2000   38.5520 C   0  0  0  0  0  0  0  0  0  0  0  0
   40.4130   33.9640   38.0610 C   0  0  0  0  0  0  0  0  0  0  0  0
   41.1630   31.8590   39.1210 C   0  0  0  0  0  0  0  0  0  0  0  0
  1  9  1  0  0  0  0
  2  6  1  0  0  0  0
  2  1  1  0  0  0  0
  3  4  1  0  0  0  0
  3  2  2  0  0  0  0
  4  5  2  0  0  0  0
  5  7  1  0  0  0  0
  5  1  1  0  0  0  0
  8 13  1  0  0  0  0
  9 10  1  0  0  0  0
  9  8  2  0  0  0  0
 10 11  2  0  0  0  0
 11 12  1  0  0  0  0
 12 16  1  0  0  0  0
 13 12  2  0  0  0  0
 14  8  1  0  0  0  0
 15 10  1  0  0  0  0
 17 19  1  0  0  0  0
 17  3  1  0  0  0  0
 18 17  1  0  0  0  0
M  END
>  <minimizedAffinity>
-3.59233999

>  <minimizedRMSD>
1.14516222

$$$$
