
 OpenBabel03232521003D

 41 44  0  0  1  0  0  0  0  0999 V2000
   45.3530   32.9130   47.5130 C   0  0  0  0  0  0  0  0  0  0  0  0
   45.9110   32.6560   46.3010 C   0  0  0  0  0  0  0  0  0  0  0  0
   46.1800   31.3040   46.0620 C   0  0  0  0  0  0  0  0  0  0  0  0
   45.9130   30.3110   46.9490 N   0  0  0  0  0  0  0  0  0  0  0  0
   45.3430   30.6350   48.1710 C   0  0  0  0  0  0  0  0  0  0  0  0
   45.0800   31.9110   48.4220 N   0  0  0  0  0  0  0  0  0  0  0  0
   45.0730   29.6210   49.1300 N   0  0  0  0  0  0  0  0  0  0  0  0
   45.1090   33.9220   47.8040 H   0  0  0  0  0  0  0  0  0  0  0  0
   45.1810   29.8180   50.1540 H   0  0  0  0  0  0  0  0  0  0  0  0
   44.7580   28.6430   48.8690 H   0  0  0  0  0  0  0  0  0  0  0  0
   46.1560   33.6050   45.2710 C   0  0  2  0  0  0  0  0  0  0  0  0
   44.9470   34.6990   45.4980 C   0  0  0  0  0  0  0  0  0  0  0  0
   44.7140   35.6250   44.4250 C   0  0  0  0  0  0  0  0  0  0  0  0
   45.5150   35.5490   43.2010 C   0  0  1  0  0  0  0  0  0  0  0  0
   46.5760   34.5490   43.1580 C   0  0  0  0  0  0  0  0  0  0  0  0
   46.1260   33.3170   43.9080 C   0  0  0  0  0  0  0  0  0  0  0  0
   46.9660   34.3230   45.6010 H   0  0  0  0  0  0  0  0  0  0  0  0
   44.2730   34.8490   46.3330 H   0  0  0  0  0  0  0  0  0  0  0  0
   43.9460   36.3440   44.5370 H   0  0  0  0  0  0  0  0  0  0  0  0
   45.9420   36.5590   43.0000 H   0  0  0  0  0  0  0  0  0  0  0  0
   46.8330   34.3470   42.0890 H   0  0  0  0  0  0  0  0  0  0  0  0
   47.4690   34.9290   43.6930 H   0  0  0  0  0  0  0  0  0  0  0  0
   45.1880   32.9300   43.4580 H   0  0  0  0  0  0  0  0  0  0  0  0
   46.9720   32.6630   43.5690 H   0  0  0  0  0  0  0  0  0  0  0  0
   44.5020   35.2790   42.0490 C   0  0  0  0  0  0  0  0  0  0  0  0
   43.4460   34.4780   42.4460 F   0  0  0  0  0  0  0  0  0  0  0  0
   43.9540   36.5150   41.7130 F   0  0  0  0  0  0  0  0  0  0  0  0
   45.1780   34.8230   40.9360 F   0  0  0  0  0  0  0  0  0  0  0  0
   46.8270   30.6110   44.9630 C   0  0  0  0  0  0  0  0  0  0  0  0
   46.4870   29.8430   43.8980 C   0  0  0  0  0  0  0  0  0  0  0  0
   47.6660   29.4540   43.2470 C   0  0  0  0  0  0  0  0  0  0  0  0
   48.6590   30.0050   43.9490 N   0  0  0  0  0  0  0  0  0  0  0  0
   48.1910   30.6910   44.9640 N   0  0  0  0  0  0  0  0  0  0  0  0
   45.4400   29.6640   43.7270 H   0  0  0  0  0  0  0  0  0  0  0  0
   47.6330   28.8350   42.3680 H   0  0  0  0  0  0  0  0  0  0  0  0
   50.0470   29.8360   43.5960 C   0  0  0  0  0  0  0  0  0  0  0  0
   50.9450   28.9420   44.1420 C   0  0  0  0  0  3  0  0  0  0  0  0
   52.0950   29.1540   43.5040 N   0  0  0  0  0  0  0  0  0  0  0  0
   51.9520   30.1400   42.5850 C   0  0  0  0  0  3  0  0  0  0  0  0
   50.6880   30.5670   42.6360 N   0  0  0  0  0  0  0  0  0  0  0  0
   50.1980   31.3240   42.0720 H   0  0  0  0  0  0  0  0  0  0  0  0
  1  8  1  0  0  0  0
  1  6  1  0  0  0  0
  2  1  2  0  0  0  0
  3  2  1  0  0  0  0
  3  4  2  0  0  0  0
  4  5  1  0  0  0  0
  5  6  2  0  0  0  0
  5  7  1  0  0  0  0
  7  9  1  0  0  0  0
 10  7  1  0  0  0  0
 11 12  1  0  0  0  0
 11 17  1  1  0  0  0
 11  2  1  0  0  0  0
 12 18  1  0  0  0  0
 13 19  1  0  0  0  0
 13 12  2  0  0  0  0
 14 20  1  6  0  0  0
 14 13  1  0  0  0  0
 15 14  1  0  0  0  0
 15 22  1  0  0  0  0
 15 16  1  0  0  0  0
 16 11  1  0  0  0  0
 21 15  1  0  0  0  0
 23 16  1  0  0  0  0
 24 16  1  0  0  0  0
 25 26  1  0  0  0  0
 25 14  1  0  0  0  0
 27 25  1  0  0  0  0
 28 25  1  0  0  0  0
 29 33  2  0  0  0  0
 29  3  1  0  0  0  0
 30 29  1  0  0  0  0
 31 30  2  0  0  0  0
 31 32  1  0  0  0  0
 32 33  1  0  0  0  0
 34 30  1  0  0  0  0
 35 31  1  0  0  0  0
 36 32  1  0  0  0  0
 36 37  2  0  0  0  0
 38 37  1  0  0  0  0
 39 40  1  0  0  0  0
 39 38  2  0  0  0  0
 40 36  1  0  0  0  0
 41 40  1  0  0  0  0
M  END
>  <minimizedAffinity>
-5.70168447

>  <minimizedRMSD>
0.16603373

$$$$
