
 OpenBabel03232518213D

 44 46  0  0  1  0  0  0  0  0999 V2000
   44.2870   34.8000   41.4050 C   0  0  2  0  0  0  0  0  0  0  0  0
   42.7360   34.7940   41.1030 C   0  0  0  0  0  0  0  0  0  0  0  0
   42.8870   34.9920   39.5900 C   0  0  1  0  0  0  0  0  0  0  0  0
   43.8410   33.8740   39.2930 C   0  0  0  0  0  0  0  0  0  0  0  0
   44.7730   33.8020   40.5050 C   0  0  0  0  0  0  0  0  0  0  0  0
   44.5540   35.8400   41.0550 H   0  0  0  0  0  0  0  0  0  0  0  0
   42.4060   35.6720   41.6420 H   0  0  0  0  0  0  0  0  0  0  0  0
   42.3220   33.8320   41.3800 H   0  0  0  0  0  0  0  0  0  0  0  0
   43.3750   35.9560   39.4280 H   0  0  0  0  0  0  0  0  0  0  0  0
   43.3870   32.8890   39.1980 H   0  0  0  0  0  0  0  0  0  0  0  0
   44.3640   34.1170   38.3700 H   0  0  0  0  0  0  0  0  0  0  0  0
   44.9010   32.7790   40.8640 H   0  0  0  0  0  0  0  0  0  0  0  0
   45.7910   34.0980   40.1140 H   0  0  0  0  0  0  0  0  0  0  0  0
   44.2800   35.8530   43.5980 C   0  0  0  0  0  0  0  0  0  0  0  0
   44.5560   34.7320   42.8330 C   0  0  0  0  0  0  0  0  0  0  0  0
   45.1160   33.5370   43.4200 C   0  0  0  0  0  0  0  0  0  0  0  0
   45.3580   33.5630   44.7620 N   0  0  0  0  0  0  0  0  0  0  0  0
   45.0750   34.6930   45.5120 C   0  0  0  0  0  0  0  0  0  0  0  0
   44.5450   35.8220   44.9500 N   0  0  0  0  0  0  0  0  0  0  0  0
   43.8690   36.7210   43.1460 H   0  0  0  0  0  0  0  0  0  0  0  0
   45.3230   32.6800   42.8120 H   0  0  0  0  0  0  0  0  0  0  0  0
   45.2930   34.6420   46.5700 H   0  0  0  0  0  0  0  0  0  0  0  0
   41.5820   34.9510   38.9000 C   0  0  0  0  0  0  0  0  0  0  0  0
   41.5110   35.9990   37.8290 C   0  0  0  0  0  0  0  0  0  0  0  0
   42.5620   36.1910   37.4830 H   0  0  0  0  0  0  0  0  0  0  0  0
   40.9330   35.6820   36.9620 H   0  0  0  0  0  0  0  0  0  0  0  0
   41.1900   36.9890   38.2470 H   0  0  0  0  0  0  0  0  0  0  0  0
   41.5360   33.6100   38.1820 C   0  0  0  0  0  0  0  0  0  0  0  0
   40.6520   33.6350   37.5000 H   0  0  0  0  0  0  0  0  0  0  0  0
   42.4250   33.4380   37.5450 H   0  0  0  0  0  0  0  0  0  0  0  0
   41.3200   32.7880   38.8940 H   0  0  0  0  0  0  0  0  0  0  0  0
   40.4530   34.9910   39.8440 C   0  0  0  0  0  0  0  0  0  0  0  0
   40.7730   34.9040   40.9270 H   0  0  0  0  0  0  0  0  0  0  0  0
   39.7730   35.8290   39.8360 H   0  0  0  0  0  0  0  0  0  0  0  0
   39.5870   33.7550   39.6420 C   0  0  2  0  0  0  0  0  0  0  0  0
   38.1250   33.7880   39.8730 C   0  0  0  0  0  0  0  0  0  0  0  0
   38.9460   33.1800   40.9350 C   0  0  1  0  0  0  0  0  0  0  0  0
   39.9850   33.0680   38.8980 H   0  0  0  0  0  0  0  0  0  0  0  0
   37.5230   33.0820   39.2410 H   0  0  0  0  0  0  0  0  0  0  0  0
   37.6480   34.7680   40.0600 H   0  0  0  0  0  0  0  0  0  0  0  0
   39.0660   33.7800   41.8530 H   0  0  0  0  0  0  0  0  0  0  0  0
   39.1330   31.6880   41.0410 C   0  0  0  0  0  0  0  0  0  0  0  0
   40.1540   31.3400   42.0970 C   0  0  0  0  0  0  0  0  0  0  0  0
   37.8520   30.9390   41.1500 C   0  0  0  0  0  0  0  0  0  0  0  0
  1  6  1  6  0  0  0
  1 15  1  0  0  0  0
  2  8  1  0  0  0  0
  2  1  1  0  0  0  0
  2  7  1  0  0  0  0
  3  9  1  6  0  0  0
  3  2  1  0  0  0  0
  4  3  1  0  0  0  0
  4  5  1  0  0  0  0
  5 12  1  0  0  0  0
  5  1  1  0  0  0  0
 10  4  1  0  0  0  0
 11  4  1  0  0  0  0
 13  5  1  0  0  0  0
 14 19  1  0  0  0  0
 15 16  1  0  0  0  0
 15 14  2  0  0  0  0
 16 17  2  0  0  0  0
 17 18  1  0  0  0  0
 18 22  1  0  0  0  0
 19 18  2  0  0  0  0
 20 14  1  0  0  0  0
 21 16  1  0  0  0  0
 23  3  1  0  0  0  0
 23 32  1  0  0  0  0
 24 27  1  0  0  0  0
 24 23  1  0  0  0  0
 25 24  1  0  0  0  0
 26 24  1  0  0  0  0
 28 31  1  0  0  0  0
 28 23  1  0  0  0  0
 29 28  1  0  0  0  0
 30 28  1  0  0  0  0
 32 33  1  0  0  0  0
 34 32  1  0  0  0  0
 35 38  1  6  0  0  0
 35 32  1  0  0  0  0
 35 36  1  0  0  0  0
 35 37  1  0  0  0  0
 36 40  1  0  0  0  0
 36 37  1  0  0  0  0
 37 42  1  0  0  0  0
 37 41  1  1  0  0  0
 39 36  1  0  0  0  0
 42 44  1  0  0  0  0
 42 43  1  0  0  0  0
M  END
>  <minimizedAffinity>
-5.8255434

>  <minimizedRMSD>
1.75303841

$$$$
