
 OpenBabel03232521003D

 41 44  0  0  1  0  0  0  0  0999 V2000
   45.3990   32.8760   47.5080 C   0  0  0  0  0  0  0  0  0  0  0  0
   45.9240   32.6260   46.2790 C   0  0  0  0  0  0  0  0  0  0  0  0
   46.1570   31.2730   46.0130 C   0  0  0  0  0  0  0  0  0  0  0  0
   45.8870   30.2720   46.8910 N   0  0  0  0  0  0  0  0  0  0  0  0
   45.3520   30.5890   48.1300 C   0  0  0  0  0  0  0  0  0  0  0  0
   45.1240   31.8670   48.4070 N   0  0  0  0  0  0  0  0  0  0  0  0
   45.0810   29.5660   49.0790 N   0  0  0  0  0  0  0  0  0  0  0  0
   45.1860   33.8860   47.8200 H   0  0  0  0  0  0  0  0  0  0  0  0
   45.2170   29.7440   50.1030 H   0  0  0  0  0  0  0  0  0  0  0  0
   44.7380   28.6000   48.8100 H   0  0  0  0  0  0  0  0  0  0  0  0
   46.1680   33.5860   45.2590 C   0  0  2  0  0  0  0  0  0  0  0  0
   44.9570   34.6770   45.4980 C   0  0  0  0  0  0  0  0  0  0  0  0
   44.7230   35.6130   44.4340 C   0  0  0  0  0  0  0  0  0  0  0  0
   45.5230   35.5510   43.2090 C   0  0  1  0  0  0  0  0  0  0  0  0
   46.5850   34.5520   43.1550 C   0  0  0  0  0  0  0  0  0  0  0  0
   46.1380   33.3120   43.8930 C   0  0  0  0  0  0  0  0  0  0  0  0
   46.9770   34.3010   45.5960 H   0  0  0  0  0  0  0  0  0  0  0  0
   44.2840   34.8170   46.3350 H   0  0  0  0  0  0  0  0  0  0  0  0
   43.9540   36.3300   44.5530 H   0  0  0  0  0  0  0  0  0  0  0  0
   45.9490   36.5630   43.0180 H   0  0  0  0  0  0  0  0  0  0  0  0
   46.8420   34.3610   42.0840 H   0  0  0  0  0  0  0  0  0  0  0  0
   47.4780   34.9270   43.6940 H   0  0  0  0  0  0  0  0  0  0  0  0
   45.2000   32.9290   43.4400 H   0  0  0  0  0  0  0  0  0  0  0  0
   46.9830   32.6630   43.5470 H   0  0  0  0  0  0  0  0  0  0  0  0
   44.5100   35.2910   42.0550 C   0  0  0  0  0  0  0  0  0  0  0  0
   43.4440   34.5020   42.4500 F   0  0  0  0  0  0  0  0  0  0  0  0
   43.9760   36.5330   41.7170 F   0  0  0  0  0  0  0  0  0  0  0  0
   45.1840   34.8270   40.9430 F   0  0  0  0  0  0  0  0  0  0  0  0
   46.7630   30.5830   44.8890 C   0  0  0  0  0  0  0  0  0  0  0  0
   46.3810   29.8520   43.8120 C   0  0  0  0  0  0  0  0  0  0  0  0
   47.5360   29.4380   43.1350 C   0  0  0  0  0  0  0  0  0  0  0  0
   48.5570   29.9380   43.8330 N   0  0  0  0  0  0  0  0  0  0  0  0
   48.1280   30.6170   44.8700 N   0  0  0  0  0  0  0  0  0  0  0  0
   45.3260   29.7120   43.6540 H   0  0  0  0  0  0  0  0  0  0  0  0
   47.4680   28.8390   42.2430 H   0  0  0  0  0  0  0  0  0  0  0  0
   49.9340   29.7310   43.4540 C   0  0  0  0  0  0  0  0  0  0  0  0
   50.6720   28.5720   43.5880 C   0  0  0  0  0  3  0  0  0  0  0  0
   51.8790   28.8580   43.1050 N   0  0  0  0  0  0  0  0  0  0  0  0
   51.9260   30.1440   42.6750 C   0  0  0  0  0  3  0  0  0  0  0  0
   50.7250   30.6900   42.8890 N   0  0  0  0  0  0  0  0  0  0  0  0
   50.3750   31.6730   42.6840 H   0  0  0  0  0  0  0  0  0  0  0  0
  1  8  1  0  0  0  0
  1  6  1  0  0  0  0
  2  1  2  0  0  0  0
  3  2  1  0  0  0  0
  3  4  2  0  0  0  0
  4  5  1  0  0  0  0
  5  6  2  0  0  0  0
  5  7  1  0  0  0  0
  7  9  1  0  0  0  0
 10  7  1  0  0  0  0
 11 12  1  0  0  0  0
 11 17  1  1  0  0  0
 11  2  1  0  0  0  0
 12 18  1  0  0  0  0
 13 19  1  0  0  0  0
 13 12  2  0  0  0  0
 14 20  1  6  0  0  0
 14 13  1  0  0  0  0
 15 14  1  0  0  0  0
 15 22  1  0  0  0  0
 15 16  1  0  0  0  0
 16 11  1  0  0  0  0
 21 15  1  0  0  0  0
 23 16  1  0  0  0  0
 24 16  1  0  0  0  0
 25 26  1  0  0  0  0
 25 14  1  0  0  0  0
 27 25  1  0  0  0  0
 28 25  1  0  0  0  0
 29  3  1  0  0  0  0
 30 29  1  0  0  0  0
 31 30  2  0  0  0  0
 31 32  1  0  0  0  0
 32 33  1  0  0  0  0
 33 29  2  0  0  0  0
 34 30  1  0  0  0  0
 35 31  1  0  0  0  0
 36 37  2  0  0  0  0
 36 32  1  0  0  0  0
 38 37  1  0  0  0  0
 39 40  1  0  0  0  0
 39 38  2  0  0  0  0
 40 36  1  0  0  0  0
 41 40  1  0  0  0  0
M  END
>  <minimizedAffinity>
-5.71432638

>  <minimizedRMSD>
0.328337133

$$$$
