
 OpenBabel03232520273D

 39 42  0  0  1  0  0  0  0  0999 V2000
   46.9440   34.5170   41.3210 C   0  0  0  0  0  0  0  0  0  0  0  0
   48.2100   34.9600   40.9740 C   0  0  0  0  0  0  0  0  0  0  0  0
   48.4750   34.6560   39.7090 N   0  0  0  0  0  0  0  0  0  0  0  0
   47.3890   34.0130   39.2220 C   0  0  0  0  0  0  0  0  0  0  0  0
   47.1450   33.4820   37.9530 C   0  0  0  0  0  0  0  0  0  0  0  0
   45.9550   32.8790   37.7230 C   0  0  0  0  0  0  0  0  0  0  0  0
   44.9300   32.7370   38.6530 C   0  0  0  0  0  0  0  0  0  0  0  0
   45.2260   33.2800   39.8900 C   0  0  0  0  0  0  0  0  0  0  0  0
   46.4040   33.9050   40.2060 C   0  0  0  0  0  0  0  0  0  0  0  0
   49.3370   34.8430   39.1250 H   0  0  0  0  0  0  0  0  0  0  0  0
   47.9010   33.5570   37.1750 H   0  0  0  0  0  0  0  0  0  0  0  0
   45.8030   32.4760   36.7160 H   0  0  0  0  0  0  0  0  0  0  0  0
   43.9950   32.2460   38.4220 H   0  0  0  0  0  0  0  0  0  0  0  0
   44.4690   33.2050   40.6690 H   0  0  0  0  0  0  0  0  0  0  0  0
   44.7800   35.8600   44.0520 C   0  0  0  0  0  0  0  0  0  0  0  0
   45.4230   35.7410   42.8080 C   0  0  0  0  0  0  0  0  0  0  0  0
   46.2690   34.6490   42.6150 C   0  0  0  0  0  0  0  0  0  0  0  0
   46.4500   33.7370   43.6190 N   0  0  0  0  0  0  0  0  0  0  0  0
   45.7990   33.9060   44.8030 C   0  0  0  0  0  0  0  0  0  0  0  0
   44.9750   34.9440   45.0300 N   0  0  0  0  0  0  0  0  0  0  0  0
   44.1190   36.6780   44.2590 H   0  0  0  0  0  0  0  0  0  0  0  0
   45.2430   36.4930   42.0520 H   0  0  0  0  0  0  0  0  0  0  0  0
   46.0560   33.0950   45.4810 H   0  0  0  0  0  0  0  0  0  0  0  0
   49.1120   35.6710   41.9090 C   0  0  0  0  0  0  0  0  0  0  0  0
   48.4950   36.2020   42.6760 H   0  0  0  0  0  0  0  0  0  0  0  0
   49.6710   36.4710   41.3880 H   0  0  0  0  0  0  0  0  0  0  0  0
   50.0270   34.7210   42.6180 C   0  0  0  0  0  0  0  0  0  0  0  0
   51.0120   35.2200   42.7140 H   0  0  0  0  0  0  0  0  0  0  0  0
   49.6670   34.5580   43.6510 H   0  0  0  0  0  0  0  0  0  0  0  0
   50.2700   33.4200   41.8950 C   0  0  1  0  0  0  0  0  0  0  0  0
   51.0190   32.3250   42.4890 C   0  0  0  0  0  0  0  0  0  0  0  0
   49.5500   32.2210   42.5440 C   0  0  2  0  0  0  0  0  0  0  0  0
   50.1860   33.4640   40.7950 H   0  0  0  0  0  0  0  0  0  0  0  0
   51.5860   31.6650   41.8000 H   0  0  0  0  0  0  0  0  0  0  0  0
   51.5620   32.4330   43.4650 H   0  0  0  0  0  0  0  0  0  0  0  0
   49.0750   32.3660   43.5310 H   0  0  0  0  0  0  0  0  0  0  0  0
   48.8820   31.2410   41.6120 C   0  0  0  0  0  0  0  0  0  0  0  0
   49.6800   31.1760   40.3260 C   0  0  0  0  0  0  0  0  0  0  0  0
   48.9880   29.8680   42.2420 C   0  0  0  0  0  0  0  0  0  0  0  0
  1 17  1  0  0  0  0
  2  1  2  0  0  0  0
  2 24  1  0  0  0  0
  3  2  1  0  0  0  0
  4  3  1  0  0  0  0
  4  9  1  0  0  0  0
  5  4  2  0  0  0  0
  6  5  1  0  0  0  0
  6  7  2  0  0  0  0
  7  8  1  0  0  0  0
  8  9  2  0  0  0  0
  8 14  1  0  0  0  0
  9  1  1  0  0  0  0
 10  3  1  0  0  0  0
 11  5  1  0  0  0  0
 12  6  1  0  0  0  0
 13  7  1  0  0  0  0
 15 21  1  0  0  0  0
 15 20  1  0  0  0  0
 16 15  2  0  0  0  0
 17 16  1  0  0  0  0
 17 18  2  0  0  0  0
 18 19  1  0  0  0  0
 19 20  2  0  0  0  0
 19 23  1  0  0  0  0
 22 16  1  0  0  0  0
 24 27  1  0  0  0  0
 24 25  1  0  0  0  0
 26 24  1  0  0  0  0
 27 28  1  0  0  0  0
 27 29  1  0  0  0  0
 30 33  1  6  0  0  0
 30 31  1  0  0  0  0
 30 32  1  0  0  0  0
 30 27  1  0  0  0  0
 31 32  1  0  0  0  0
 31 35  1  0  0  0  0
 32 36  1  1  0  0  0
 34 31  1  0  0  0  0
 37 39  1  0  0  0  0
 37 32  1  0  0  0  0
 38 37  1  0  0  0  0
M  END
>  <minimizedAffinity>
-5.68631554

>  <minimizedRMSD>
0.251135826

$$$$
