
 OpenBabel03232520323D

 43 47  0  0  1  0  0  0  0  0999 V2000
   46.9100   34.5320   41.3490 C   0  0  0  0  0  0  0  0  0  0  0  0
   48.1990   34.9330   40.9900 C   0  0  0  0  0  0  0  0  0  0  0  0
   48.4590   34.6090   39.7350 N   0  0  0  0  0  0  0  0  0  0  0  0
   47.3580   33.9980   39.2560 C   0  0  0  0  0  0  0  0  0  0  0  0
   47.0950   33.4580   37.9930 C   0  0  0  0  0  0  0  0  0  0  0  0
   45.8760   32.8860   37.7660 C   0  0  0  0  0  0  0  0  0  0  0  0
   44.8700   32.7920   38.6850 C   0  0  0  0  0  0  0  0  0  0  0  0
   45.1760   33.3380   39.9150 C   0  0  0  0  0  0  0  0  0  0  0  0
   46.3620   33.9270   40.2310 C   0  0  0  0  0  0  0  0  0  0  0  0
   49.3300   34.7630   39.1560 H   0  0  0  0  0  0  0  0  0  0  0  0
   47.8510   33.5010   37.2210 H   0  0  0  0  0  0  0  0  0  0  0  0
   45.7240   32.4790   36.7580 H   0  0  0  0  0  0  0  0  0  0  0  0
   43.9150   32.3310   38.4700 H   0  0  0  0  0  0  0  0  0  0  0  0
   44.4480   33.3180   40.7200 H   0  0  0  0  0  0  0  0  0  0  0  0
   44.7690   35.9600   44.0350 C   0  0  0  0  0  0  0  0  0  0  0  0
   45.4060   35.8070   42.7950 C   0  0  0  0  0  0  0  0  0  0  0  0
   46.2420   34.7010   42.6320 C   0  0  0  0  0  0  0  0  0  0  0  0
   46.4100   33.8180   43.6620 N   0  0  0  0  0  0  0  0  0  0  0  0
   45.7640   34.0200   44.8430 C   0  0  0  0  0  0  0  0  0  0  0  0
   44.9460   35.0780   45.0410 N   0  0  0  0  0  0  0  0  0  0  0  0
   44.1310   36.8410   44.0970 H   0  0  0  0  0  0  0  0  0  0  0  0
   45.2890   36.4880   41.9740 H   0  0  0  0  0  0  0  0  0  0  0  0
   45.8760   33.3400   45.6770 H   0  0  0  0  0  0  0  0  0  0  0  0
   49.1280   35.6280   41.9180 C   0  0  0  0  0  0  0  0  0  0  0  0
   49.8070   36.2850   41.3000 H   0  0  0  0  0  0  0  0  0  0  0  0
   48.5740   36.3040   42.6050 H   0  0  0  0  0  0  0  0  0  0  0  0
   49.9400   34.6640   42.7140 C   0  0  0  0  0  0  0  0  0  0  0  0
   50.8710   35.1300   43.0920 H   0  0  0  0  0  0  0  0  0  0  0  0
   49.3390   34.4060   43.6200 H   0  0  0  0  0  0  0  0  0  0  0  0
   50.3430   33.4200   41.9580 C   0  0  1  0  0  0  0  0  0  0  0  0
   51.0200   32.2800   42.5840 C   0  0  0  0  0  0  0  0  0  0  0  0
   49.5580   32.1540   42.3680 C   0  0  2  0  0  0  0  0  0  0  0  0
   50.4690   33.5290   40.8750 H   0  0  0  0  0  0  0  0  0  0  0  0
   51.3710   32.4110   43.6140 H   0  0  0  0  0  0  0  0  0  0  0  0
   51.7150   31.6730   41.9650 H   0  0  0  0  0  0  0  0  0  0  0  0
   48.8940   32.2490   43.2610 H   0  0  0  0  0  0  0  0  0  0  0  0
   49.1370   31.3060   41.4040 O   0  0  0  0  0  0  0  0  0  0  0  0
   47.9280   30.7330   41.1470 C   0  0  0  0  0  0  0  0  0  0  0  0
   47.5050   30.0500   39.8450 C   0  0  0  0  0  0  0  0  0  0  0  0
   45.7430   29.5510   40.3160 S   0  0  0  0  0  0  0  0  0  0  0  0
   45.9200   30.3070   42.0410 C   0  0  0  0  0  0  0  0  0  0  0  0
   45.0130   30.1710   42.5880 H   0  0  0  0  0  0  0  0  0  0  0  0
   47.0550   30.7870   42.1380 N   0  0  0  0  0  0  0  0  0  0  0  0
  1 17  1  0  0  0  0
  2  1  2  0  0  0  0
  2 24  1  0  0  0  0
  3  2  1  0  0  0  0
  4  3  1  0  0  0  0
  4  9  1  0  0  0  0
  5  4  2  0  0  0  0
  6  5  1  0  0  0  0
  6  7  2  0  0  0  0
  7  8  1  0  0  0  0
  8  9  2  0  0  0  0
  8 14  1  0  0  0  0
  9  1  1  0  0  0  0
 10  3  1  0  0  0  0
 11  5  1  0  0  0  0
 12  6  1  0  0  0  0
 13  7  1  0  0  0  0
 15 21  1  0  0  0  0
 15 20  1  0  0  0  0
 16 15  2  0  0  0  0
 17 16  1  0  0  0  0
 17 18  2  0  0  0  0
 18 19  1  0  0  0  0
 19 20  2  0  0  0  0
 19 23  1  0  0  0  0
 22 16  1  0  0  0  0
 24 26  1  0  0  0  0
 24 27  1  0  0  0  0
 25 24  1  0  0  0  0
 27 28  1  0  0  0  0
 27 29  1  0  0  0  0
 30 33  1  6  0  0  0
 30 32  1  0  0  0  0
 30 31  1  0  0  0  0
 30 27  1  0  0  0  0
 31 34  1  0  0  0  0
 32 31  1  0  0  0  0
 32 36  1  1  0  0  0
 35 31  1  0  0  0  0
 37 32  1  0  0  0  0
 38 37  1  0  0  0  0
 38 43  1  0  0  0  0
 39 40  1  0  0  0  0
 39 38  2  0  0  0  0
 40 41  1  0  0  0  0
 41 43  2  0  0  0  0
 41 42  1  0  0  0  0
M  END
>  <minimizedAffinity>
-5.43493462

>  <minimizedRMSD>
0.570934236

$$$$
