
 OpenBabel03232520593D

 41 44  0  0  1  0  0  0  0  0999 V2000
   45.4000   32.8800   47.5090 C   0  0  0  0  0  0  0  0  0  0  0  0
   45.9240   32.6290   46.2810 C   0  0  0  0  0  0  0  0  0  0  0  0
   46.1560   31.2750   46.0150 C   0  0  0  0  0  0  0  0  0  0  0  0
   45.8870   30.2750   46.8930 N   0  0  0  0  0  0  0  0  0  0  0  0
   45.3530   30.5920   48.1330 C   0  0  0  0  0  0  0  0  0  0  0  0
   45.1250   31.8710   48.4090 N   0  0  0  0  0  0  0  0  0  0  0  0
   45.0810   29.5700   49.0830 N   0  0  0  0  0  0  0  0  0  0  0  0
   45.1870   33.8890   47.8210 H   0  0  0  0  0  0  0  0  0  0  0  0
   45.2180   29.7490   50.1070 H   0  0  0  0  0  0  0  0  0  0  0  0
   44.7380   28.6040   48.8140 H   0  0  0  0  0  0  0  0  0  0  0  0
   46.1680   33.5880   45.2600 C   0  0  2  0  0  0  0  0  0  0  0  0
   44.9560   34.6780   45.4980 C   0  0  0  0  0  0  0  0  0  0  0  0
   44.7220   35.6140   44.4330 C   0  0  0  0  0  0  0  0  0  0  0  0
   45.5220   35.5510   43.2090 C   0  0  1  0  0  0  0  0  0  0  0  0
   46.5850   34.5530   43.1550 C   0  0  0  0  0  0  0  0  0  0  0  0
   46.1370   33.3130   43.8940 C   0  0  0  0  0  0  0  0  0  0  0  0
   46.9770   34.3040   45.5960 H   0  0  0  0  0  0  0  0  0  0  0  0
   44.2830   34.8190   46.3350 H   0  0  0  0  0  0  0  0  0  0  0  0
   43.9530   36.3310   44.5520 H   0  0  0  0  0  0  0  0  0  0  0  0
   45.9480   36.5630   43.0170 H   0  0  0  0  0  0  0  0  0  0  0  0
   46.8420   34.3610   42.0850 H   0  0  0  0  0  0  0  0  0  0  0  0
   47.4770   34.9290   43.6930 H   0  0  0  0  0  0  0  0  0  0  0  0
   45.2000   32.9290   43.4410 H   0  0  0  0  0  0  0  0  0  0  0  0
   46.9840   32.6640   43.5490 H   0  0  0  0  0  0  0  0  0  0  0  0
   44.5090   35.2900   42.0540 C   0  0  0  0  0  0  0  0  0  0  0  0
   43.4450   34.4980   42.4490 F   0  0  0  0  0  0  0  0  0  0  0  0
   43.9720   36.5310   41.7180 F   0  0  0  0  0  0  0  0  0  0  0  0
   45.1830   34.8290   40.9420 F   0  0  0  0  0  0  0  0  0  0  0  0
   46.7620   30.5850   44.8910 C   0  0  0  0  0  0  0  0  0  0  0  0
   46.3780   29.8520   43.8160 C   0  0  0  0  0  0  0  0  0  0  0  0
   47.5330   29.4380   43.1370 C   0  0  0  0  0  0  0  0  0  0  0  0
   48.5550   29.9390   43.8340 N   0  0  0  0  0  0  0  0  0  0  0  0
   48.1270   30.6180   44.8710 N   0  0  0  0  0  0  0  0  0  0  0  0
   45.3230   29.7120   43.6590 H   0  0  0  0  0  0  0  0  0  0  0  0
   47.4650   28.8390   42.2470 H   0  0  0  0  0  0  0  0  0  0  0  0
   49.9310   29.7310   43.4550 C   0  0  0  0  0  0  0  0  0  0  0  0
   50.6700   28.5730   43.5880 C   0  0  0  0  0  3  0  0  0  0  0  0
   51.8760   28.8590   43.1040 N   0  0  0  0  0  0  0  0  0  0  0  0
   51.9230   30.1440   42.6750 C   0  0  0  0  0  3  0  0  0  0  0  0
   50.7220   30.6900   42.8880 N   0  0  0  0  0  0  0  0  0  0  0  0
   50.3730   31.6740   42.6850 H   0  0  0  0  0  0  0  0  0  0  0  0
  1  8  1  0  0  0  0
  1  6  1  0  0  0  0
  2  1  2  0  0  0  0
  3  2  1  0  0  0  0
  3  4  2  0  0  0  0
  4  5  1  0  0  0  0
  5  6  2  0  0  0  0
  5  7  1  0  0  0  0
  7  9  1  0  0  0  0
 10  7  1  0  0  0  0
 11 12  1  0  0  0  0
 11 17  1  1  0  0  0
 11  2  1  0  0  0  0
 12 18  1  0  0  0  0
 13 19  1  0  0  0  0
 13 12  2  0  0  0  0
 14 20  1  6  0  0  0
 14 13  1  0  0  0  0
 15 14  1  0  0  0  0
 15 22  1  0  0  0  0
 15 16  1  0  0  0  0
 16 11  1  0  0  0  0
 21 15  1  0  0  0  0
 23 16  1  0  0  0  0
 24 16  1  0  0  0  0
 25 26  1  0  0  0  0
 25 14  1  0  0  0  0
 27 25  1  0  0  0  0
 28 25  1  0  0  0  0
 29  3  1  0  0  0  0
 30 29  1  0  0  0  0
 31 30  2  0  0  0  0
 31 32  1  0  0  0  0
 32 33  1  0  0  0  0
 33 29  2  0  0  0  0
 34 30  1  0  0  0  0
 35 31  1  0  0  0  0
 36 37  2  0  0  0  0
 36 32  1  0  0  0  0
 38 37  1  0  0  0  0
 39 40  1  0  0  0  0
 39 38  2  0  0  0  0
 40 36  1  0  0  0  0
 41 40  1  0  0  0  0
M  END
>  <minimizedAffinity>
-5.71479464

>  <minimizedRMSD>
0.245935336

$$$$
