
 OpenBabel03232521003D

 41 44  0  0  1  0  0  0  0  0999 V2000
   45.3470   32.8910   47.5010 C   0  0  0  0  0  0  0  0  0  0  0  0
   45.9140   32.6420   46.2910 C   0  0  0  0  0  0  0  0  0  0  0  0
   46.1940   31.2930   46.0490 C   0  0  0  0  0  0  0  0  0  0  0  0
   45.9290   30.2960   46.9310 N   0  0  0  0  0  0  0  0  0  0  0  0
   45.3500   30.6110   48.1510 C   0  0  0  0  0  0  0  0  0  0  0  0
   45.0760   31.8840   48.4050 N   0  0  0  0  0  0  0  0  0  0  0  0
   45.0810   29.5920   49.1050 N   0  0  0  0  0  0  0  0  0  0  0  0
   45.0950   33.8970   47.7940 H   0  0  0  0  0  0  0  0  0  0  0  0
   45.1820   29.7860   50.1300 H   0  0  0  0  0  0  0  0  0  0  0  0
   44.7750   28.6130   48.8380 H   0  0  0  0  0  0  0  0  0  0  0  0
   46.1590   33.5970   45.2660 C   0  0  2  0  0  0  0  0  0  0  0  0
   44.9490   34.6900   45.5000 C   0  0  0  0  0  0  0  0  0  0  0  0
   44.7160   35.6210   44.4310 C   0  0  0  0  0  0  0  0  0  0  0  0
   45.5160   35.5520   43.2070 C   0  0  1  0  0  0  0  0  0  0  0  0
   46.5770   34.5520   43.1570 C   0  0  0  0  0  0  0  0  0  0  0  0
   46.1280   33.3160   43.9010 C   0  0  0  0  0  0  0  0  0  0  0  0
   46.9690   34.3130   45.5990 H   0  0  0  0  0  0  0  0  0  0  0  0
   44.2770   34.8350   46.3360 H   0  0  0  0  0  0  0  0  0  0  0  0
   43.9480   36.3400   44.5470 H   0  0  0  0  0  0  0  0  0  0  0  0
   45.9430   36.5630   43.0110 H   0  0  0  0  0  0  0  0  0  0  0  0
   46.8340   34.3550   42.0880 H   0  0  0  0  0  0  0  0  0  0  0  0
   47.4700   34.9290   43.6940 H   0  0  0  0  0  0  0  0  0  0  0  0
   45.1900   32.9310   43.4510 H   0  0  0  0  0  0  0  0  0  0  0  0
   46.9730   32.6640   43.5590 H   0  0  0  0  0  0  0  0  0  0  0  0
   44.5020   35.2880   42.0540 C   0  0  0  0  0  0  0  0  0  0  0  0
   43.4420   34.4910   42.4490 F   0  0  0  0  0  0  0  0  0  0  0  0
   43.9600   36.5270   41.7190 F   0  0  0  0  0  0  0  0  0  0  0  0
   45.1770   34.8300   40.9400 F   0  0  0  0  0  0  0  0  0  0  0  0
   46.8530   30.6090   44.9510 C   0  0  0  0  0  0  0  0  0  0  0  0
   46.5260   29.8310   43.8890 C   0  0  0  0  0  0  0  0  0  0  0  0
   47.7110   29.4620   43.2380 C   0  0  0  0  0  0  0  0  0  0  0  0
   48.6940   30.0330   43.9370 N   0  0  0  0  0  0  0  0  0  0  0  0
   48.2150   30.7140   44.9510 N   0  0  0  0  0  0  0  0  0  0  0  0
   45.4820   29.6310   43.7210 H   0  0  0  0  0  0  0  0  0  0  0  0
   47.6890   28.8390   42.3620 H   0  0  0  0  0  0  0  0  0  0  0  0
   50.0850   29.8900   43.5830 C   0  0  0  0  0  0  0  0  0  0  0  0
   50.7840   30.6090   42.6320 C   0  0  0  0  0  3  0  0  0  0  0  0
   52.0250   30.1280   42.6610 N   0  0  0  0  0  0  0  0  0  0  0  0
   52.1320   29.1430   43.5870 C   0  0  0  0  0  3  0  0  0  0  0  0
   50.9340   28.9900   44.1600 N   0  0  0  0  0  0  0  0  0  0  0  0
   50.6230   28.3210   44.9260 H   0  0  0  0  0  0  0  0  0  0  0  0
  1  8  1  0  0  0  0
  1  6  1  0  0  0  0
  2  1  2  0  0  0  0
  3  2  1  0  0  0  0
  3  4  2  0  0  0  0
  4  5  1  0  0  0  0
  5  6  2  0  0  0  0
  5  7  1  0  0  0  0
  7  9  1  0  0  0  0
 10  7  1  0  0  0  0
 11 12  1  0  0  0  0
 11 17  1  1  0  0  0
 11  2  1  0  0  0  0
 12 18  1  0  0  0  0
 13 19  1  0  0  0  0
 13 12  2  0  0  0  0
 14 20  1  6  0  0  0
 14 13  1  0  0  0  0
 15 14  1  0  0  0  0
 15 22  1  0  0  0  0
 15 16  1  0  0  0  0
 16 11  1  0  0  0  0
 21 15  1  0  0  0  0
 23 16  1  0  0  0  0
 24 16  1  0  0  0  0
 25 26  1  0  0  0  0
 25 14  1  0  0  0  0
 27 25  1  0  0  0  0
 28 25  1  0  0  0  0
 29 33  2  0  0  0  0
 29  3  1  0  0  0  0
 30 29  1  0  0  0  0
 31 30  2  0  0  0  0
 31 32  1  0  0  0  0
 32 33  1  0  0  0  0
 34 30  1  0  0  0  0
 35 31  1  0  0  0  0
 36 32  1  0  0  0  0
 36 40  1  0  0  0  0
 37 38  1  0  0  0  0
 37 36  2  0  0  0  0
 38 39  2  0  0  0  0
 39 40  1  0  0  0  0
 40 41  1  0  0  0  0
M  END
>  <minimizedAffinity>
-5.70237875

>  <minimizedRMSD>
0.203043714

$$$$
