
 OpenBabel03232520563D

 32 33  0  0  1  0  0  0  0  0999 V2000
   46.1500   33.5820   45.2050 C   0  0  2  0  0  0  0  0  0  0  0  0
   45.0300   34.7130   45.4520 C   0  0  0  0  0  0  0  0  0  0  0  0
   44.7840   35.6320   44.3700 C   0  0  0  0  0  0  0  0  0  0  0  0
   45.4800   35.4950   43.1060 C   0  0  1  0  0  0  0  0  0  0  0  0
   46.4990   34.4440   43.0380 C   0  0  0  0  0  0  0  0  0  0  0  0
   45.9810   33.2490   43.8330 C   0  0  0  0  0  0  0  0  0  0  0  0
   46.9290   34.3800   45.4240 H   0  0  0  0  0  0  0  0  0  0  0  0
   44.3570   35.0030   46.2450 H   0  0  0  0  0  0  0  0  0  0  0  0
   44.0780   36.4100   44.4270 H   0  0  0  0  0  0  0  0  0  0  0  0
   45.9170   36.4790   42.8260 H   0  0  0  0  0  0  0  0  0  0  0  0
   47.4230   34.8200   43.5650 H   0  0  0  0  0  0  0  0  0  0  0  0
   46.7600   34.2040   42.0090 H   0  0  0  0  0  0  0  0  0  0  0  0
   44.8560   33.2200   43.6030 H   0  0  0  0  0  0  0  0  0  0  0  0
   46.3780   32.4490   43.2810 H   0  0  0  0  0  0  0  0  0  0  0  0
   45.2780   32.9060   47.4680 C   0  0  0  0  0  0  0  0  0  0  0  0
   45.9150   32.6240   46.2570 C   0  0  0  0  0  0  0  0  0  0  0  0
   46.2760   31.2600   45.9860 C   0  0  0  0  0  0  0  0  0  0  0  0
   45.9500   30.3990   46.9380 N   0  0  0  0  0  0  0  0  0  0  0  0
   45.3320   30.6800   48.0970 C   0  0  0  0  0  0  0  0  0  0  0  0
   44.9970   31.9190   48.3700 N   0  0  0  0  0  0  0  0  0  0  0  0
   45.0760   29.5830   49.0090 N   0  0  0  0  0  0  0  0  0  0  0  0
   45.0100   33.9130   47.7060 H   0  0  0  0  0  0  0  0  0  0  0  0
   45.5700   28.6730   48.8840 H   0  0  0  0  0  0  0  0  0  0  0  0
   44.4000   29.6810   49.8010 H   0  0  0  0  0  0  0  0  0  0  0  0
   46.8430   30.5680   44.8260 C   0  0  0  0  0  0  0  0  0  0  0  0
   47.2320   29.1030   45.3960 C   0  0  0  0  0  0  0  0  0  0  0  0
   45.7750   30.0020   43.8590 C   0  0  0  0  0  0  0  0  0  0  0  0
   48.1590   30.8540   44.2900 C   0  0  0  0  0  0  0  0  0  0  0  0
   44.3930   35.2370   42.0250 C   0  0  0  0  0  0  0  0  0  0  0  0
   43.3560   34.4620   42.4780 F   0  0  0  0  0  0  0  0  0  0  0  0
   43.8530   36.4770   41.7060 F   0  0  0  0  0  0  0  0  0  0  0  0
   44.9850   34.7440   40.8740 F   0  0  0  0  0  0  0  0  0  0  0  0
  1  7  1  1  0  0  0
  1  2  1  0  0  0  0
  1 16  1  0  0  0  0
  2  8  1  0  0  0  0
  3  9  1  0  0  0  0
  3  2  2  0  0  0  0
  4 10  1  6  0  0  0
  4  3  1  0  0  0  0
  5  4  1  0  0  0  0
  5 11  1  0  0  0  0
  5  6  1  0  0  0  0
  6  1  1  0  0  0  0
 12  5  1  0  0  0  0
 13  6  1  0  0  0  0
 14  6  1  0  0  0  0
 15 22  1  0  0  0  0
 15 20  1  0  0  0  0
 16 15  2  0  0  0  0
 17 16  1  0  0  0  0
 17 18  2  0  0  0  0
 18 19  1  0  0  0  0
 19 20  2  0  0  0  0
 19 21  1  0  0  0  0
 21 24  1  0  0  0  0
 23 21  1  0  0  0  0
 25 26  1  0  0  0  0
 25 17  1  0  0  0  0
 27 25  1  0  0  0  0
 28 25  1  0  0  0  0
 29 30  1  0  0  0  0
 29  4  1  0  0  0  0
 31 29  1  0  0  0  0
 32 29  1  0  0  0  0
M  END
>  <minimizedAffinity>
-5.51310968

>  <minimizedRMSD>
0.213674635

$$$$
