
 OpenBabel03232519253D

 29 31  0  0  0  0  0  0  0  0999 V2000
   47.7130   32.2630   44.1720 C   0  0  0  0  0  0  0  0  0  0  0  0
   48.5770   31.7950   43.6280 H   0  0  0  0  0  0  0  0  0  0  0  0
   48.0950   32.9130   44.9840 H   0  0  0  0  0  0  0  0  0  0  0  0
   46.8720   32.9890   43.2510 N   0  0  0  0  0  0  0  0  0  0  0  0
   46.7850   32.9640   41.9230 C   0  0  0  0  0  0  0  0  0  0  0  0
   45.8390   33.8310   41.5130 N   0  0  0  0  0  0  0  0  0  0  0  0
   45.2950   34.4370   42.6090 C   0  0  0  0  0  0  0  0  0  0  0  0
   44.3150   35.3830   42.7670 C   0  0  0  0  0  0  0  0  0  0  0  0
   43.7160   35.8730   41.7840 O   0  0  0  0  0  0  0  0  0  0  0  0
   43.9630   35.8160   43.9970 N   0  0  0  0  0  0  0  0  0  0  0  0
   44.6320   35.2630   45.0330 C   0  0  0  0  0  0  0  0  0  0  0  0
   44.3140   35.6720   46.3390 N   0  0  0  0  0  0  0  0  0  0  0  0
   45.6050   34.3290   44.9410 N   0  0  0  0  0  0  0  0  0  0  0  0
   45.9600   33.8920   43.7010 C   0  0  0  0  0  0  0  0  0  0  0  0
   43.2260   36.5340   44.2040 H   0  0  0  0  0  0  0  0  0  0  0  0
   43.3130   35.5530   46.5960 H   0  0  0  0  0  0  0  0  0  0  0  0
   44.6590   36.0710   47.2380 H   0  0  0  0  0  0  0  0  0  0  0  0
   46.8560   31.1790   44.8100 C   0  0  0  0  0  0  0  0  0  0  0  0
   47.1180   30.2300   44.3100 H   0  0  0  0  0  0  0  0  0  0  0  0
   45.8000   31.4700   44.6950 H   0  0  0  0  0  0  0  0  0  0  0  0
   47.0790   32.1980   47.0480 C   0  0  0  0  0  0  0  0  0  0  0  0
   47.1980   31.0790   46.2130 C   0  0  0  0  0  0  0  0  0  0  0  0
   47.6510   29.8960   46.7920 C   0  0  0  0  0  0  0  0  0  0  0  0
   47.9500   29.8970   48.1260 N   0  0  0  0  0  0  0  0  0  0  0  0
   47.8250   30.9900   48.9000 C   0  0  0  0  0  0  0  0  0  0  0  0
   47.3870   32.1410   48.3490 N   0  0  0  0  0  0  0  0  0  0  0  0
   46.7280   33.1190   46.6020 H   0  0  0  0  0  0  0  0  0  0  0  0
   47.7650   28.9940   46.2010 H   0  0  0  0  0  0  0  0  0  0  0  0
   48.0680   30.9660   49.9540 H   0  0  0  0  0  0  0  0  0  0  0  0
  1 18  1  0  0  0  0
  1  3  1  0  0  0  0
  2  1  1  0  0  0  0
  4 14  1  0  0  0  0
  4  1  1  0  0  0  0
  5  4  1  0  0  0  0
  6  5  2  0  0  0  0
  6  7  1  0  0  0  0
  7  8  1  0  0  0  0
  7 14  2  0  0  0  0
  8 10  1  0  0  0  0
  9  8  2  0  0  0  0
 10 15  1  0  0  0  0
 10 11  1  0  0  0  0
 11 12  1  0  0  0  0
 12 16  1  0  0  0  0
 12 17  1  0  0  0  0
 13 11  2  0  0  0  0
 14 13  1  0  0  0  0
 18 22  1  0  0  0  0
 19 18  1  0  0  0  0
 20 18  1  0  0  0  0
 21 26  1  0  0  0  0
 22 23  1  0  0  0  0
 22 21  2  0  0  0  0
 23 24  2  0  0  0  0
 24 25  1  0  0  0  0
 25 29  1  0  0  0  0
 26 25  2  0  0  0  0
 27 21  1  0  0  0  0
 28 23  1  0  0  0  0
M  END
>  <minimizedAffinity>
-5.39368534

>  <minimizedRMSD>
6.04889584

$$$$
