
 OpenBabel03232521003D

 41 44  0  0  1  0  0  0  0  0999 V2000
   45.4730   32.9350   47.4500 C   0  0  0  0  0  0  0  0  0  0  0  0
   45.9380   32.6600   46.2080 C   0  0  0  0  0  0  0  0  0  0  0  0
   46.1310   31.3010   45.9420 C   0  0  0  0  0  0  0  0  0  0  0  0
   45.8800   30.3160   46.8390 N   0  0  0  0  0  0  0  0  0  0  0  0
   45.4050   30.6540   48.0970 C   0  0  0  0  0  0  0  0  0  0  0  0
   45.2150   31.9420   48.3710 N   0  0  0  0  0  0  0  0  0  0  0  0
   45.1690   29.6430   49.0690 N   0  0  0  0  0  0  0  0  0  0  0  0
   45.2900   33.9460   47.7740 H   0  0  0  0  0  0  0  0  0  0  0  0
   44.8030   28.7470   48.6310 H   0  0  0  0  0  0  0  0  0  0  0  0
   45.3860   29.9230   50.0520 H   0  0  0  0  0  0  0  0  0  0  0  0
   46.1650   33.6030   45.1650 C   0  0  2  0  0  0  0  0  0  0  0  0
   44.9670   34.7040   45.4190 C   0  0  0  0  0  0  0  0  0  0  0  0
   44.7190   35.6300   44.3520 C   0  0  0  0  0  0  0  0  0  0  0  0
   45.4890   35.5500   43.1070 C   0  0  1  0  0  0  0  0  0  0  0  0
   46.5400   34.5390   43.0390 C   0  0  0  0  0  0  0  0  0  0  0  0
   46.1010   33.3130   43.8050 C   0  0  0  0  0  0  0  0  0  0  0  0
   46.9660   34.3360   45.4720 H   0  0  0  0  0  0  0  0  0  0  0  0
   44.3280   34.8340   46.2800 H   0  0  0  0  0  0  0  0  0  0  0  0
   43.9550   36.3580   44.4770 H   0  0  0  0  0  0  0  0  0  0  0  0
   45.9110   36.5550   42.9120 H   0  0  0  0  0  0  0  0  0  0  0  0
   46.7800   34.3390   41.9730 H   0  0  0  0  0  0  0  0  0  0  0  0
   47.4700   34.9180   43.5230 H   0  0  0  0  0  0  0  0  0  0  0  0
   46.9370   32.6520   43.4520 H   0  0  0  0  0  0  0  0  0  0  0  0
   45.1790   32.8720   43.3810 H   0  0  0  0  0  0  0  0  0  0  0  0
   44.4450   35.2850   41.9830 C   0  0  0  0  0  0  0  0  0  0  0  0
   43.4000   34.4840   42.4040 F   0  0  0  0  0  0  0  0  0  0  0  0
   43.8960   36.5280   41.6680 F   0  0  0  0  0  0  0  0  0  0  0  0
   45.0930   34.8290   40.8490 F   0  0  0  0  0  0  0  0  0  0  0  0
   46.6660   30.5840   44.7950 C   0  0  0  0  0  0  0  0  0  0  0  0
   46.2170   29.7850   43.7920 C   0  0  0  0  0  0  0  0  0  0  0  0
   47.3200   29.3860   43.0330 C   0  0  0  0  0  0  0  0  0  0  0  0
   48.3780   29.9590   43.6090 N   0  0  0  0  0  0  0  0  0  0  0  0
   48.0190   30.6710   44.6500 N   0  0  0  0  0  0  0  0  0  0  0  0
   45.1580   29.6070   43.7540 H   0  0  0  0  0  0  0  0  0  0  0  0
   47.1390   28.7440   42.1890 H   0  0  0  0  0  0  0  0  0  0  0  0
   49.6970   29.7570   43.0800 C   0  0  0  0  0  0  0  0  0  0  0  0
   50.4210   30.8830   43.0540 N   0  0  0  0  0  0  0  0  0  0  0  0
   51.5780   30.6600   42.5790 O   0  0  0  0  0  0  0  0  0  0  0  0
   51.7640   29.3650   42.2330 C   0  0  0  0  0  0  0  0  0  0  0  0
   51.9100   28.3550   41.9630 H   0  0  0  0  0  0  0  0  0  0  0  0
   50.5410   28.8560   42.5760 N   0  0  0  0  0  0  0  0  0  0  0  0
  1  8  1  0  0  0  0
  1  6  1  0  0  0  0
  2  1  2  0  0  0  0
  3  2  1  0  0  0  0
  3  4  2  0  0  0  0
  4  5  1  0  0  0  0
  5  6  2  0  0  0  0
  5  7  1  0  0  0  0
  7 10  1  0  0  0  0
  9  7  1  0  0  0  0
 11 12  1  0  0  0  0
 11 17  1  1  0  0  0
 11  2  1  0  0  0  0
 12 18  1  0  0  0  0
 13 19  1  0  0  0  0
 13 12  2  0  0  0  0
 14 20  1  6  0  0  0
 14 13  1  0  0  0  0
 15 14  1  0  0  0  0
 15 22  1  0  0  0  0
 15 16  1  0  0  0  0
 16 11  1  0  0  0  0
 21 15  1  0  0  0  0
 23 16  1  0  0  0  0
 24 16  1  0  0  0  0
 25 26  1  0  0  0  0
 25 14  1  0  0  0  0
 27 25  1  0  0  0  0
 28 25  1  0  0  0  0
 29  3  1  0  0  0  0
 30 29  1  0  0  0  0
 31 32  1  0  0  0  0
 31 30  2  0  0  0  0
 32 33  1  0  0  0  0
 33 29  2  0  0  0  0
 34 30  1  0  0  0  0
 35 31  1  0  0  0  0
 36 32  1  0  0  0  0
 37 36  2  0  0  0  0
 38 37  1  0  0  0  0
 39 41  2  0  0  0  0
 39 38  1  0  0  0  0
 40 39  1  0  0  0  0
 41 36  1  0  0  0  0
M  END
>  <minimizedAffinity>
-5.96863556

>  <minimizedRMSD>
0.31039542

$$$$
