
 OpenBabel03232521003D

 41 44  0  0  1  0  0  0  0  0999 V2000
   45.3610   32.8750   47.5030 C   0  0  0  0  0  0  0  0  0  0  0  0
   45.9140   32.6270   46.2910 C   0  0  0  0  0  0  0  0  0  0  0  0
   46.1830   31.2790   46.0340 C   0  0  0  0  0  0  0  0  0  0  0  0
   45.9190   30.2800   46.9120 N   0  0  0  0  0  0  0  0  0  0  0  0
   45.3530   30.5900   48.1390 C   0  0  0  0  0  0  0  0  0  0  0  0
   45.0900   31.8670   48.4040 N   0  0  0  0  0  0  0  0  0  0  0  0
   45.1020   29.5650   49.0920 N   0  0  0  0  0  0  0  0  0  0  0  0
   45.1140   33.8750   47.8170 H   0  0  0  0  0  0  0  0  0  0  0  0
   44.8030   28.6560   48.6300 H   0  0  0  0  0  0  0  0  0  0  0  0
   45.2440   29.8480   50.0870 H   0  0  0  0  0  0  0  0  0  0  0  0
   46.1640   33.5840   45.2670 C   0  0  2  0  0  0  0  0  0  0  0  0
   44.9530   34.6760   45.5020 C   0  0  0  0  0  0  0  0  0  0  0  0
   44.7280   35.6140   44.4400 C   0  0  0  0  0  0  0  0  0  0  0  0
   45.5330   35.5530   43.2160 C   0  0  1  0  0  0  0  0  0  0  0  0
   46.5910   34.5490   43.1640 C   0  0  0  0  0  0  0  0  0  0  0  0
   46.1380   33.3110   43.9020 C   0  0  0  0  0  0  0  0  0  0  0  0
   46.9520   34.3170   45.6050 H   0  0  0  0  0  0  0  0  0  0  0  0
   44.2900   34.7910   46.3470 H   0  0  0  0  0  0  0  0  0  0  0  0
   43.9570   36.3360   44.5530 H   0  0  0  0  0  0  0  0  0  0  0  0
   45.9540   36.5630   43.0460 H   0  0  0  0  0  0  0  0  0  0  0  0
   46.8610   34.3640   42.1020 H   0  0  0  0  0  0  0  0  0  0  0  0
   47.5050   34.9270   43.6780 H   0  0  0  0  0  0  0  0  0  0  0  0
   46.9880   32.6600   43.5640 H   0  0  0  0  0  0  0  0  0  0  0  0
   45.2310   32.8710   43.4480 H   0  0  0  0  0  0  0  0  0  0  0  0
   44.5210   35.2970   42.0600 C   0  0  0  0  0  0  0  0  0  0  0  0
   43.4530   34.5110   42.4510 F   0  0  0  0  0  0  0  0  0  0  0  0
   43.9990   36.5460   41.7240 F   0  0  0  0  0  0  0  0  0  0  0  0
   45.1980   34.8270   40.9490 F   0  0  0  0  0  0  0  0  0  0  0  0
   46.8180   30.5920   44.9220 C   0  0  0  0  0  0  0  0  0  0  0  0
   46.4600   29.8400   43.8490 C   0  0  0  0  0  0  0  0  0  0  0  0
   47.6270   29.4440   43.1910 C   0  0  0  0  0  0  0  0  0  0  0  0
   48.6310   29.9710   43.8930 N   0  0  0  0  0  0  0  0  0  0  0  0
   48.1800   30.6530   44.9190 N   0  0  0  0  0  0  0  0  0  0  0  0
   45.4070   29.6880   43.6960 H   0  0  0  0  0  0  0  0  0  0  0  0
   47.5220   28.8370   42.3090 H   0  0  0  0  0  0  0  0  0  0  0  0
   49.9930   29.7580   43.4940 C   0  0  0  0  0  0  0  0  0  0  0  0
   50.7790   29.3890   44.5130 N   0  0  0  0  0  0  0  0  0  0  0  0
   51.9730   29.2150   44.1180 O   0  0  0  0  0  0  0  0  0  0  0  0
   52.1280   29.4440   42.7940 C   0  0  0  0  0  0  0  0  0  0  0  0
   52.2480   29.6240   41.7600 H   0  0  0  0  0  0  0  0  0  0  0  0
   50.8410   29.7830   42.4660 N   0  0  0  0  0  0  0  0  0  0  0  0
  1  8  1  0  0  0  0
  1  6  1  0  0  0  0
  2  1  2  0  0  0  0
  3  2  1  0  0  0  0
  3  4  2  0  0  0  0
  4  5  1  0  0  0  0
  5  6  2  0  0  0  0
  5  7  1  0  0  0  0
  7 10  1  0  0  0  0
  9  7  1  0  0  0  0
 11 12  1  0  0  0  0
 11 17  1  1  0  0  0
 11  2  1  0  0  0  0
 12 18  1  0  0  0  0
 13 19  1  0  0  0  0
 13 12  2  0  0  0  0
 14 20  1  6  0  0  0
 14 13  1  0  0  0  0
 15 14  1  0  0  0  0
 15 22  1  0  0  0  0
 15 16  1  0  0  0  0
 16 11  1  0  0  0  0
 21 15  1  0  0  0  0
 23 16  1  0  0  0  0
 24 16  1  0  0  0  0
 25 26  1  0  0  0  0
 25 14  1  0  0  0  0
 27 25  1  0  0  0  0
 28 25  1  0  0  0  0
 29  3  1  0  0  0  0
 30 29  1  0  0  0  0
 31 30  2  0  0  0  0
 31 32  1  0  0  0  0
 32 33  1  0  0  0  0
 33 29  2  0  0  0  0
 34 30  1  0  0  0  0
 35 31  1  0  0  0  0
 36 32  1  0  0  0  0
 36 37  2  0  0  0  0
 38 37  1  0  0  0  0
 39 38  1  0  0  0  0
 40 39  1  0  0  0  0
 41 39  2  0  0  0  0
 41 36  1  0  0  0  0
M  END
>  <minimizedAffinity>
-5.94201183

>  <minimizedRMSD>
0.13892521

$$$$
