
 OpenBabel03232519383D

 33 35  0  0  0  0  0  0  0  0999 V2000
   46.5410   34.4640   41.9520 N   0  0  0  0  0  0  0  0  0  0  0  0
   47.6770   35.2310   41.8510 C   0  0  0  0  0  0  0  0  0  0  0  0
   48.4290   35.2400   40.6980 C   0  0  0  0  0  0  0  0  0  0  0  0
   48.0000   34.4420   39.6380 C   0  0  0  0  0  0  0  0  0  0  0  0
   48.6630   34.4290   38.5690 O   0  0  0  0  0  0  0  0  0  0  0  0
   46.8900   33.7210   39.8030 N   0  0  0  0  0  0  0  0  0  0  0  0
   46.1690   33.7280   40.9310 C   0  0  0  0  0  0  0  0  0  0  0  0
   45.1340   33.0860   41.1370 O   0  0  0  0  0  0  0  0  0  0  0  0
   48.0720   35.8660   42.6150 H   0  0  0  0  0  0  0  0  0  0  0  0
   49.3280   35.8250   40.5680 H   0  0  0  0  0  0  0  0  0  0  0  0
   46.4280   32.8560   38.7610 C   0  0  0  0  0  0  0  0  0  0  0  0
   45.4690   33.2740   37.8500 C   0  0  0  0  0  0  0  0  0  0  0  0
   45.0160   32.4610   36.8500 C   0  0  0  0  0  0  0  0  0  0  0  0
   45.5240   31.1830   36.7360 C   0  0  0  0  0  0  0  0  0  0  0  0
   46.4660   30.8050   37.6490 C   0  0  0  0  0  0  0  0  0  0  0  0
   46.9930   31.5840   38.7190 C   0  0  0  0  0  0  0  0  0  0  0  0
   45.1090   34.2870   37.9930 H   0  0  0  0  0  0  0  0  0  0  0  0
   44.2750   32.9060   36.2160 H   0  0  0  0  0  0  0  0  0  0  0  0
   45.1690   30.5600   35.9590 H   0  0  0  0  0  0  0  0  0  0  0  0
   46.8230   29.7790   37.4960 H   0  0  0  0  0  0  0  0  0  0  0  0
   47.9960   30.9960   39.6010 C   0  0  0  0  0  0  0  0  0  0  0  0
   48.1260   31.5010   40.9850 C   0  0  0  0  0  0  0  0  0  0  0  0
   49.3830   31.2920   38.9830 C   0  0  0  0  0  0  0  0  0  0  0  0
   47.9810   29.4700   39.6420 C   0  0  0  0  0  0  0  0  0  0  0  0
   44.5400   35.8600   44.7190 C   0  0  0  0  0  0  0  0  0  0  0  0
   45.1190   35.7220   43.4260 C   0  0  0  0  0  0  0  0  0  0  0  0
   45.9450   34.6270   43.2400 C   0  0  0  0  0  0  0  0  0  0  0  0
   46.1740   33.7410   44.2720 N   0  0  0  0  0  0  0  0  0  0  0  0
   45.5960   33.9200   45.4850 C   0  0  0  0  0  0  0  0  0  0  0  0
   44.7850   34.9710   45.7090 N   0  0  0  0  0  0  0  0  0  0  0  0
   43.8850   36.7000   44.9180 H   0  0  0  0  0  0  0  0  0  0  0  0
   44.9050   36.4380   42.6700 H   0  0  0  0  0  0  0  0  0  0  0  0
   45.8940   33.1270   46.1560 H   0  0  0  0  0  0  0  0  0  0  0  0
  1 27  1  0  0  0  0
  2  1  1  0  0  0  0
  2  9  1  0  0  0  0
  3  2  2  0  0  0  0
  4  6  1  0  0  0  0
  4  3  1  0  0  0  0
  5  4  2  0  0  0  0
  6  7  1  0  0  0  0
  7  8  2  0  0  0  0
  7  1  1  0  0  0  0
 10  3  1  0  0  0  0
 11  6  1  0  0  0  0
 12 17  1  0  0  0  0
 12 11  2  0  0  0  0
 13 12  1  0  0  0  0
 14 13  2  0  0  0  0
 14 15  1  0  0  0  0
 15 16  2  0  0  0  0
 16 11  1  0  0  0  0
 16 21  1  0  0  0  0
 18 13  1  0  0  0  0
 19 14  1  0  0  0  0
 20 15  1  0  0  0  0
 21 24  1  0  0  0  0
 21 22  1  0  0  0  0
 23 21  1  0  0  0  0
 25 31  1  0  0  0  0
 25 30  1  0  0  0  0
 26 25  2  0  0  0  0
 27 26  1  0  0  0  0
 27 28  2  0  0  0  0
 28 29  1  0  0  0  0
 29 30  2  0  0  0  0
 29 33  1  0  0  0  0
 32 26  1  0  0  0  0
M  END
>  <minimizedAffinity>
-5.1784935

>  <minimizedRMSD>
0.261992425

$$$$
