
 OpenBabel03232520593D

 41 44  0  0  1  0  0  0  0  0999 V2000
   45.3900   32.8350   47.4700 C   0  0  0  0  0  0  0  0  0  0  0  0
   45.9330   32.5950   46.2520 C   0  0  0  0  0  0  0  0  0  0  0  0
   46.1980   31.2490   45.9830 C   0  0  0  0  0  0  0  0  0  0  0  0
   45.9410   30.2440   46.8560 N   0  0  0  0  0  0  0  0  0  0  0  0
   45.3850   30.5460   48.0900 C   0  0  0  0  0  0  0  0  0  0  0  0
   45.1250   31.8210   48.3650 N   0  0  0  0  0  0  0  0  0  0  0  0
   45.1400   29.5140   49.0370 N   0  0  0  0  0  0  0  0  0  0  0  0
   45.1460   33.8330   47.7930 H   0  0  0  0  0  0  0  0  0  0  0  0
   44.8380   28.6090   48.5700 H   0  0  0  0  0  0  0  0  0  0  0  0
   45.2910   29.7900   50.0330 H   0  0  0  0  0  0  0  0  0  0  0  0
   46.1750   33.5600   45.2330 C   0  0  2  0  0  0  0  0  0  0  0  0
   44.9730   34.6550   45.4910 C   0  0  0  0  0  0  0  0  0  0  0  0
   44.7400   35.6030   44.4390 C   0  0  0  0  0  0  0  0  0  0  0  0
   45.5290   35.5490   43.2050 C   0  0  1  0  0  0  0  0  0  0  0  0
   46.5820   34.5400   43.1320 C   0  0  0  0  0  0  0  0  0  0  0  0
   46.1320   33.2980   43.8660 C   0  0  0  0  0  0  0  0  0  0  0  0
   46.9700   34.2860   45.5670 H   0  0  0  0  0  0  0  0  0  0  0  0
   44.3200   34.7660   46.3440 H   0  0  0  0  0  0  0  0  0  0  0  0
   43.9730   36.3270   44.5670 H   0  0  0  0  0  0  0  0  0  0  0  0
   45.9530   36.5580   43.0380 H   0  0  0  0  0  0  0  0  0  0  0  0
   46.8390   34.3620   42.0660 H   0  0  0  0  0  0  0  0  0  0  0  0
   47.5040   34.9100   43.6390 H   0  0  0  0  0  0  0  0  0  0  0  0
   46.9740   32.6460   43.5120 H   0  0  0  0  0  0  0  0  0  0  0  0
   45.2170   32.8660   43.4190 H   0  0  0  0  0  0  0  0  0  0  0  0
   44.5030   35.3070   42.0600 C   0  0  0  0  0  0  0  0  0  0  0  0
   43.4310   34.5300   42.4590 F   0  0  0  0  0  0  0  0  0  0  0  0
   43.9890   36.5620   41.7330 F   0  0  0  0  0  0  0  0  0  0  0  0
   45.1640   34.8340   40.9400 F   0  0  0  0  0  0  0  0  0  0  0  0
   46.8240   30.5700   44.8610 C   0  0  0  0  0  0  0  0  0  0  0  0
   46.4610   29.7900   43.8090 C   0  0  0  0  0  0  0  0  0  0  0  0
   47.6210   29.4270   43.1210 C   0  0  0  0  0  0  0  0  0  0  0  0
   48.6260   30.0000   43.7840 N   0  0  0  0  0  0  0  0  0  0  0  0
   48.1830   30.6800   44.8150 N   0  0  0  0  0  0  0  0  0  0  0  0
   45.4100   29.5980   43.6920 H   0  0  0  0  0  0  0  0  0  0  0  0
   47.5120   28.8040   42.2500 H   0  0  0  0  0  0  0  0  0  0  0  0
   49.9830   29.8310   43.3460 C   0  0  0  0  0  0  0  0  0  0  0  0
   50.1740   28.6830   42.6850 N   0  0  0  0  0  0  0  0  0  0  0  0
   51.3850   28.5730   42.3190 O   0  0  0  0  0  0  0  0  0  0  0  0
   52.1440   29.6310   42.6890 C   0  0  0  0  0  0  0  0  0  0  0  0
   52.7370   30.4570   42.9770 H   0  0  0  0  0  0  0  0  0  0  0  0
   51.1960   30.3830   43.3310 N   0  0  0  0  0  0  0  0  0  0  0  0
  1  8  1  0  0  0  0
  1  6  1  0  0  0  0
  2  1  2  0  0  0  0
  3  2  1  0  0  0  0
  3  4  2  0  0  0  0
  4  5  1  0  0  0  0
  5  6  2  0  0  0  0
  5  7  1  0  0  0  0
  7 10  1  0  0  0  0
  9  7  1  0  0  0  0
 11 12  1  0  0  0  0
 11 17  1  1  0  0  0
 11  2  1  0  0  0  0
 12 18  1  0  0  0  0
 13 19  1  0  0  0  0
 13 12  2  0  0  0  0
 14 20  1  6  0  0  0
 14 13  1  0  0  0  0
 15 14  1  0  0  0  0
 15 22  1  0  0  0  0
 15 16  1  0  0  0  0
 16 11  1  0  0  0  0
 21 15  1  0  0  0  0
 23 16  1  0  0  0  0
 24 16  1  0  0  0  0
 25 26  1  0  0  0  0
 25 14  1  0  0  0  0
 27 25  1  0  0  0  0
 28 25  1  0  0  0  0
 29  3  1  0  0  0  0
 30 29  1  0  0  0  0
 31 32  1  0  0  0  0
 31 30  2  0  0  0  0
 32 33  1  0  0  0  0
 33 29  2  0  0  0  0
 34 30  1  0  0  0  0
 35 31  1  0  0  0  0
 36 32  1  0  0  0  0
 37 36  2  0  0  0  0
 38 37  1  0  0  0  0
 38 39  1  0  0  0  0
 39 40  1  0  0  0  0
 39 41  2  0  0  0  0
 41 36  1  0  0  0  0
M  END
>  <minimizedAffinity>
-5.9305234

>  <minimizedRMSD>
0.189335585

$$$$
