
 OpenBabel03232521003D

 41 44  0  0  1  0  0  0  0  0999 V2000
   45.3930   32.8310   47.4730 C   0  0  0  0  0  0  0  0  0  0  0  0
   45.9350   32.5920   46.2550 C   0  0  0  0  0  0  0  0  0  0  0  0
   46.1990   31.2460   45.9840 C   0  0  0  0  0  0  0  0  0  0  0  0
   45.9400   30.2390   46.8550 N   0  0  0  0  0  0  0  0  0  0  0  0
   45.3860   30.5400   48.0900 C   0  0  0  0  0  0  0  0  0  0  0  0
   45.1280   31.8150   48.3680 N   0  0  0  0  0  0  0  0  0  0  0  0
   45.1400   29.5070   49.0350 N   0  0  0  0  0  0  0  0  0  0  0  0
   45.1510   33.8290   47.7980 H   0  0  0  0  0  0  0  0  0  0  0  0
   44.8350   28.6030   48.5680 H   0  0  0  0  0  0  0  0  0  0  0  0
   45.2920   29.7820   50.0320 H   0  0  0  0  0  0  0  0  0  0  0  0
   46.1790   33.5580   45.2370 C   0  0  2  0  0  0  0  0  0  0  0  0
   44.9740   34.6510   45.4930 C   0  0  0  0  0  0  0  0  0  0  0  0
   44.7420   35.5990   44.4420 C   0  0  0  0  0  0  0  0  0  0  0  0
   45.5340   35.5470   43.2090 C   0  0  1  0  0  0  0  0  0  0  0  0
   46.5880   34.5400   43.1380 C   0  0  0  0  0  0  0  0  0  0  0  0
   46.1390   33.2970   43.8700 C   0  0  0  0  0  0  0  0  0  0  0  0
   46.9720   34.2850   45.5730 H   0  0  0  0  0  0  0  0  0  0  0  0
   44.3200   34.7610   46.3460 H   0  0  0  0  0  0  0  0  0  0  0  0
   43.9750   36.3230   44.5690 H   0  0  0  0  0  0  0  0  0  0  0  0
   45.9570   36.5570   43.0440 H   0  0  0  0  0  0  0  0  0  0  0  0
   46.8470   34.3630   42.0720 H   0  0  0  0  0  0  0  0  0  0  0  0
   47.5090   34.9100   43.6460 H   0  0  0  0  0  0  0  0  0  0  0  0
   46.9820   32.6460   43.5170 H   0  0  0  0  0  0  0  0  0  0  0  0
   45.2250   32.8640   43.4200 H   0  0  0  0  0  0  0  0  0  0  0  0
   44.5110   35.3050   42.0620 C   0  0  0  0  0  0  0  0  0  0  0  0
   43.4380   34.5280   42.4590 F   0  0  0  0  0  0  0  0  0  0  0  0
   43.9970   36.5600   41.7340 F   0  0  0  0  0  0  0  0  0  0  0  0
   45.1740   34.8330   40.9430 F   0  0  0  0  0  0  0  0  0  0  0  0
   46.8220   30.5670   44.8600 C   0  0  0  0  0  0  0  0  0  0  0  0
   46.4580   29.7870   43.8090 C   0  0  0  0  0  0  0  0  0  0  0  0
   47.6170   29.4250   43.1180 C   0  0  0  0  0  0  0  0  0  0  0  0
   48.6230   29.9990   43.7790 N   0  0  0  0  0  0  0  0  0  0  0  0
   48.1810   30.6790   44.8110 N   0  0  0  0  0  0  0  0  0  0  0  0
   45.4070   29.5930   43.6940 H   0  0  0  0  0  0  0  0  0  0  0  0
   47.5060   28.8020   42.2480 H   0  0  0  0  0  0  0  0  0  0  0  0
   49.9780   29.8320   43.3380 C   0  0  0  0  0  0  0  0  0  0  0  0
   50.0720   29.1130   42.2130 N   0  0  0  0  0  0  0  0  0  0  0  0
   51.2850   28.9870   41.8610 O   0  0  0  0  0  0  0  0  0  0  0  0
   52.1450   29.6060   42.7040 C   0  0  0  0  0  0  0  0  0  0  0  0
   52.8150   30.0900   43.3620 H   0  0  0  0  0  0  0  0  0  0  0  0
   51.2520   30.1160   43.6090 N   0  0  0  0  0  0  0  0  0  0  0  0
  1  8  1  0  0  0  0
  1  6  1  0  0  0  0
  2  1  2  0  0  0  0
  3  2  1  0  0  0  0
  3  4  2  0  0  0  0
  4  5  1  0  0  0  0
  5  6  2  0  0  0  0
  5  7  1  0  0  0  0
  7 10  1  0  0  0  0
  9  7  1  0  0  0  0
 11 12  1  0  0  0  0
 11 17  1  1  0  0  0
 11  2  1  0  0  0  0
 12 18  1  0  0  0  0
 13 19  1  0  0  0  0
 13 12  2  0  0  0  0
 14 20  1  6  0  0  0
 14 13  1  0  0  0  0
 15 14  1  0  0  0  0
 15 22  1  0  0  0  0
 15 16  1  0  0  0  0
 16 11  1  0  0  0  0
 21 15  1  0  0  0  0
 23 16  1  0  0  0  0
 24 16  1  0  0  0  0
 25 26  1  0  0  0  0
 25 14  1  0  0  0  0
 27 25  1  0  0  0  0
 28 25  1  0  0  0  0
 29  3  1  0  0  0  0
 30 29  1  0  0  0  0
 31 32  1  0  0  0  0
 31 30  2  0  0  0  0
 32 33  1  0  0  0  0
 33 29  2  0  0  0  0
 34 30  1  0  0  0  0
 35 31  1  0  0  0  0
 36 41  1  0  0  0  0
 36 32  1  0  0  0  0
 37 36  2  0  0  0  0
 38 37  1  0  0  0  0
 38 39  1  0  0  0  0
 39 40  1  0  0  0  0
 39 41  2  0  0  0  0
M  END
>  <minimizedAffinity>
-5.92772436

>  <minimizedRMSD>
0.18605186

$$$$
