
 OpenBabel03232520523D

 30 31  0  0  1  0  0  0  0  0999 V2000
   46.7020   33.7550   44.3760 C   0  0  2  0  0  0  0  0  0  0  0  0
   45.3780   34.2560   44.9060 C   0  0  0  0  0  0  0  0  0  0  0  0
   44.6540   35.1810   44.0780 C   0  0  0  0  0  0  0  0  0  0  0  0
   45.1700   35.6130   42.7910 C   0  0  1  0  0  0  0  0  0  0  0  0
   46.5120   35.1240   42.4120 C   0  0  0  0  0  0  0  0  0  0  0  0
   46.7050   33.7130   42.8870 C   0  0  0  0  0  0  0  0  0  0  0  0
   47.4220   34.5660   44.6950 H   0  0  0  0  0  0  0  0  0  0  0  0
   44.7830   34.0990   45.7950 H   0  0  0  0  0  0  0  0  0  0  0  0
   43.7220   35.5940   44.3470 H   0  0  0  0  0  0  0  0  0  0  0  0
   45.1770   36.7260   42.7650 H   0  0  0  0  0  0  0  0  0  0  0  0
   46.7050   35.2930   41.3540 H   0  0  0  0  0  0  0  0  0  0  0  0
   47.2620   35.7460   42.9820 H   0  0  0  0  0  0  0  0  0  0  0  0
   47.7490   33.4280   42.5860 H   0  0  0  0  0  0  0  0  0  0  0  0
   45.9560   33.0450   42.4550 H   0  0  0  0  0  0  0  0  0  0  0  0
   46.9260   32.4360   46.4240 C   0  0  0  0  0  0  0  0  0  0  0  0
   47.0670   32.5200   45.0510 C   0  0  0  0  0  0  0  0  0  0  0  0
   47.5720   31.3980   44.3960 C   0  0  0  0  0  0  0  0  0  0  0  0
   47.9030   30.2920   45.0880 N   0  0  0  0  0  0  0  0  0  0  0  0
   47.7560   30.2300   46.4450 C   0  0  0  0  0  0  0  0  0  0  0  0
   47.2720   31.2990   47.0930 N   0  0  0  0  0  0  0  0  0  0  0  0
   46.5540   33.2070   47.0830 H   0  0  0  0  0  0  0  0  0  0  0  0
   47.6990   31.4190   43.3220 H   0  0  0  0  0  0  0  0  0  0  0  0
   48.1340   28.9900   47.1740 C   0  0  0  0  0  0  0  0  0  0  0  0
   46.8960   28.1660   47.4380 C   0  0  0  0  0  0  0  0  0  0  0  0
   49.0280   28.1070   46.2950 C   0  0  0  0  0  0  0  0  0  0  0  0
   48.9140   29.2430   48.4290 C   0  0  0  0  0  0  0  0  0  0  0  0
   44.1580   35.2030   41.7060 C   0  0  0  0  0  0  0  0  0  0  0  0
   43.2590   34.2660   42.1420 F   0  0  0  0  0  0  0  0  0  0  0  0
   43.3990   36.3450   41.4010 F   0  0  0  0  0  0  0  0  0  0  0  0
   44.8250   34.8320   40.5560 F   0  0  0  0  0  0  0  0  0  0  0  0
  1  7  1  1  0  0  0
  1  2  1  0  0  0  0
  1 16  1  0  0  0  0
  2  8  1  0  0  0  0
  3  9  1  0  0  0  0
  3  2  2  0  0  0  0
  4 10  1  1  0  0  0
  4  3  1  0  0  0  0
  5  4  1  0  0  0  0
  5  6  1  0  0  0  0
  5 12  1  0  0  0  0
  6  1  1  0  0  0  0
 11  5  1  0  0  0  0
 13  6  1  0  0  0  0
 14  6  1  0  0  0  0
 15 21  1  0  0  0  0
 15 20  1  0  0  0  0
 16 15  2  0  0  0  0
 17 16  1  0  0  0  0
 17 18  2  0  0  0  0
 18 19  1  0  0  0  0
 19 20  2  0  0  0  0
 19 23  1  0  0  0  0
 22 17  1  0  0  0  0
 23 24  1  0  0  0  0
 23 26  1  0  0  0  0
 25 23  1  0  0  0  0
 27 28  1  0  0  0  0
 27  4  1  0  0  0  0
 29 27  1  0  0  0  0
 30 27  1  0  0  0  0
M  END
>  <minimizedAffinity>
-4.73058033

>  <minimizedRMSD>
2.1594007

$$$$
