
 OpenBabel03232515083D

 32 34  0  0  0  0  0  0  0  0999 V2000
   44.4580   35.8830   44.4900 C   0  0  0  0  0  0  0  0  0  0  0  0
   45.1780   35.7670   43.3110 C   0  0  0  0  0  0  0  0  0  0  0  0
   46.1470   34.7890   43.2260 C   0  0  0  0  0  0  0  0  0  0  0  0
   46.3520   33.9840   44.3000 N   0  0  0  0  0  0  0  0  0  0  0  0
   45.6160   34.1280   45.4550 C   0  0  0  0  0  0  0  0  0  0  0  0
   44.6750   35.0610   45.5690 N   0  0  0  0  0  0  0  0  0  0  0  0
   45.8540   33.2720   46.5590 N   0  0  0  0  0  0  0  0  0  0  0  0
   47.0200   32.6180   46.6290 C   0  0  0  0  0  0  0  0  0  0  0  0
   46.9600   31.8670   47.8060 C   0  0  0  0  0  0  0  0  0  0  0  0
   45.7850   32.0800   48.4060 N   0  0  0  0  0  0  0  0  0  0  0  0
   45.0940   32.9290   47.6670 C   0  0  0  0  0  0  0  0  0  0  0  0
   43.6840   36.6610   44.5640 H   0  0  0  0  0  0  0  0  0  0  0  0
   44.9560   36.4470   42.5000 H   0  0  0  0  0  0  0  0  0  0  0  0
   46.7310   34.6660   42.3230 H   0  0  0  0  0  0  0  0  0  0  0  0
   47.8730   32.6050   45.9800 H   0  0  0  0  0  0  0  0  0  0  0  0
   44.1170   33.3880   47.7440 H   0  0  0  0  0  0  0  0  0  0  0  0
   48.0010   30.9920   48.3070 C   0  0  0  0  0  0  0  0  0  0  0  0
   48.9270   31.4930   49.1790 C   0  0  0  0  0  0  0  0  0  0  0  0
   49.9470   30.7290   49.7000 C   0  0  0  0  0  0  0  0  0  0  0  0
   50.0090   29.4000   49.3060 C   0  0  0  0  0  0  0  0  0  0  0  0
   49.0740   28.8710   48.4180 C   0  0  0  0  0  0  0  0  0  0  0  0
   48.0710   29.6660   47.9200 C   0  0  0  0  0  0  0  0  0  0  0  0
   48.8600   32.5320   49.4730 H   0  0  0  0  0  0  0  0  0  0  0  0
   50.6670   31.1480   50.3870 H   0  0  0  0  0  0  0  0  0  0  0  0
   50.8030   28.7880   49.7050 H   0  0  0  0  0  0  0  0  0  0  0  0
   49.1370   27.4380   47.9900 C   0  0  0  0  0  0  0  0  0  0  0  0
   49.8570   26.5700   49.0010 C   0  0  0  0  0  0  0  0  0  0  0  0
   49.8810   27.3270   46.6740 C   0  0  0  0  0  0  0  0  0  0  0  0
   47.7530   26.8680   47.7520 C   0  0  0  0  0  0  0  0  0  0  0  0
   47.1380   29.1020   47.0230 N   0  0  0  0  0  0  0  0  0  0  0  0
   47.3200   29.3240   46.0070 H   0  0  0  0  0  0  0  0  0  0  0  0
   46.3090   28.5030   47.2530 H   0  0  0  0  0  0  0  0  0  0  0  0
  1 12  1  0  0  0  0
  1  6  1  0  0  0  0
  2  1  2  0  0  0  0
  3  2  1  0  0  0  0
  3  4  2  0  0  0  0
  4  5  1  0  0  0  0
  5  6  2  0  0  0  0
  5  7  1  0  0  0  0
  7  8  1  0  0  0  0
  7 11  1  0  0  0  0
  8  9  2  0  0  0  0
  9 17  1  0  0  0  0
  9 10  1  0  0  0  0
 11 16  1  0  0  0  0
 11 10  2  0  0  0  0
 13  2  1  0  0  0  0
 14  3  1  0  0  0  0
 15  8  1  0  0  0  0
 17 18  1  0  0  0  0
 18 23  1  0  0  0  0
 18 19  2  0  0  0  0
 19 24  1  0  0  0  0
 20 19  1  0  0  0  0
 20 25  1  0  0  0  0
 21 20  2  0  0  0  0
 22 17  2  0  0  0  0
 22 21  1  0  0  0  0
 26 21  1  0  0  0  0
 26 27  1  0  0  0  0
 28 26  1  0  0  0  0
 29 26  1  0  0  0  0
 30 32  1  0  0  0  0
 30 22  1  0  0  0  0
 31 30  1  0  0  0  0
M  END
>  <minimizedAffinity>
-5.76252556

>  <minimizedRMSD>
0.156651601

$$$$
