
 OpenBabel03232518323D

 32 35  0  0  1  0  0  0  0  0999 V2000
   44.6460   35.6960   44.5970 C   0  0  0  0  0  0  0  0  0  0  0  0
   45.4760   35.3520   43.5480 C   0  0  0  0  0  0  0  0  0  0  0  0
   46.3520   34.2310   43.7100 C   0  0  0  0  0  0  0  0  0  0  0  0
   46.3130   33.5690   44.9000 N   0  0  0  0  0  0  0  0  0  0  0  0
   45.4790   33.9560   45.8830 C   0  0  0  0  0  0  0  0  0  0  0  0
   44.6400   35.0150   45.7510 N   0  0  0  0  0  0  0  0  0  0  0  0
   43.9730   36.5350   44.5090 H   0  0  0  0  0  0  0  0  0  0  0  0
   45.4860   35.8870   42.6280 H   0  0  0  0  0  0  0  0  0  0  0  0
   47.2910   33.8040   42.6190 C   0  0  2  0  0  0  0  0  0  0  0  0
   48.3520   34.9000   42.2590 C   0  0  0  0  0  0  0  0  0  0  0  0
   47.2660   34.4630   41.3130 C   0  0  1  0  0  0  0  0  0  0  0  0
   47.8060   32.8530   42.8620 H   0  0  0  0  0  0  0  0  0  0  0  0
   49.3780   34.5570   42.0530 H   0  0  0  0  0  0  0  0  0  0  0  0
   48.2770   35.8530   42.8080 H   0  0  0  0  0  0  0  0  0  0  0  0
   46.4900   35.2420   41.1760 H   0  0  0  0  0  0  0  0  0  0  0  0
   47.5960   33.7440   40.0350 C   0  0  0  0  0  0  0  0  0  0  0  0
   48.3170   34.6130   39.0380 C   0  0  0  0  0  0  0  0  0  0  0  0
   46.3050   33.2890   39.3990 C   0  0  0  0  0  0  0  0  0  0  0  0
   48.5040   32.5810   40.3790 C   0  0  0  0  0  0  0  0  0  0  0  0
   45.4640   33.0610   47.4300 S   0  0  0  0  0  0  0  0  0  0  0  0
   48.6150   29.5380   48.6390 N   0  0  0  0  0  0  0  0  0  0  0  0
   48.6890   30.6470   49.3930 C   0  0  0  0  0  0  0  0  0  0  0  0
   47.7830   31.5260   48.9620 N   0  0  0  0  0  0  0  0  0  0  0  0
   47.1050   31.0060   47.9220 C   0  0  0  0  0  0  0  0  0  0  0  0
   46.0720   31.4100   47.0680 C   0  0  0  0  0  0  0  0  0  0  0  0
   45.6200   30.6140   46.1010 N   0  0  0  0  0  0  0  0  0  0  0  0
   46.2160   29.3830   45.9870 C   0  0  0  0  0  0  0  0  0  0  0  0
   47.2230   28.9210   46.7810 N   0  0  0  0  0  0  0  0  0  0  0  0
   47.6570   29.7470   47.7450 C   0  0  0  0  0  0  0  0  0  0  0  0
   49.2060   28.6810   48.7470 H   0  0  0  0  0  0  0  0  0  0  0  0
   49.3530   30.8500   50.2230 H   0  0  0  0  0  0  0  0  0  0  0  0
   45.8600   28.7210   45.2060 H   0  0  0  0  0  0  0  0  0  0  0  0
  1  6  1  0  0  0  0
  2  3  1  0  0  0  0
  2  1  2  0  0  0  0
  3  4  2  0  0  0  0
  4  5  1  0  0  0  0
  5 20  1  0  0  0  0
  6  5  2  0  0  0  0
  7  1  1  0  0  0  0
  8  2  1  0  0  0  0
  9 12  1  1  0  0  0
  9  3  1  0  0  0  0
 10  9  1  0  0  0  0
 10 14  1  0  0  0  0
 11 15  1  6  0  0  0
 11 10  1  0  0  0  0
 11  9  1  0  0  0  0
 13 10  1  0  0  0  0
 16 19  1  0  0  0  0
 16 11  1  0  0  0  0
 17 16  1  0  0  0  0
 18 16  1  0  0  0  0
 21 30  1  0  0  0  0
 21 22  1  0  0  0  0
 22 31  1  0  0  0  0
 23 22  2  0  0  0  0
 24 23  1  0  0  0  0
 25 20  1  0  0  0  0
 25 24  2  0  0  0  0
 26 25  1  0  0  0  0
 27 26  2  0  0  0  0
 27 28  1  0  0  0  0
 28 29  2  0  0  0  0
 29 24  1  0  0  0  0
 29 21  1  0  0  0  0
 32 27  1  0  0  0  0
M  END
>  <minimizedAffinity>
-5.82013893

>  <minimizedRMSD>
0.614403248

$$$$
