
 OpenBabel03232521003D

 41 44  0  0  1  0  0  0  0  0999 V2000
   45.4010   32.8270   47.4700 C   0  0  0  0  0  0  0  0  0  0  0  0
   45.9400   32.5890   46.2500 C   0  0  0  0  0  0  0  0  0  0  0  0
   46.2040   31.2440   45.9780 C   0  0  0  0  0  0  0  0  0  0  0  0
   45.9480   30.2370   46.8490 N   0  0  0  0  0  0  0  0  0  0  0  0
   45.3950   30.5370   48.0850 C   0  0  0  0  0  0  0  0  0  0  0  0
   45.1370   31.8110   48.3640 N   0  0  0  0  0  0  0  0  0  0  0  0
   45.1510   29.5030   49.0300 N   0  0  0  0  0  0  0  0  0  0  0  0
   45.1590   33.8250   47.7960 H   0  0  0  0  0  0  0  0  0  0  0  0
   44.8460   28.5990   48.5620 H   0  0  0  0  0  0  0  0  0  0  0  0
   45.3040   29.7770   50.0260 H   0  0  0  0  0  0  0  0  0  0  0  0
   46.1820   33.5560   45.2330 C   0  0  2  0  0  0  0  0  0  0  0  0
   44.9770   34.6480   45.4910 C   0  0  0  0  0  0  0  0  0  0  0  0
   44.7430   35.5970   44.4400 C   0  0  0  0  0  0  0  0  0  0  0  0
   45.5340   35.5460   43.2070 C   0  0  1  0  0  0  0  0  0  0  0  0
   46.5880   34.5400   43.1340 C   0  0  0  0  0  0  0  0  0  0  0  0
   46.1410   33.2960   43.8650 C   0  0  0  0  0  0  0  0  0  0  0  0
   46.9750   34.2840   45.5680 H   0  0  0  0  0  0  0  0  0  0  0  0
   44.3240   34.7570   46.3440 H   0  0  0  0  0  0  0  0  0  0  0  0
   43.9750   36.3200   44.5690 H   0  0  0  0  0  0  0  0  0  0  0  0
   45.9560   36.5560   43.0420 H   0  0  0  0  0  0  0  0  0  0  0  0
   46.8470   34.3640   42.0670 H   0  0  0  0  0  0  0  0  0  0  0  0
   47.5090   34.9100   43.6410 H   0  0  0  0  0  0  0  0  0  0  0  0
   46.9850   32.6460   43.5110 H   0  0  0  0  0  0  0  0  0  0  0  0
   45.2270   32.8630   43.4170 H   0  0  0  0  0  0  0  0  0  0  0  0
   44.5090   35.3040   42.0600 C   0  0  0  0  0  0  0  0  0  0  0  0
   43.4370   34.5260   42.4590 F   0  0  0  0  0  0  0  0  0  0  0  0
   43.9940   36.5590   41.7340 F   0  0  0  0  0  0  0  0  0  0  0  0
   45.1710   34.8320   40.9410 F   0  0  0  0  0  0  0  0  0  0  0  0
   46.8260   30.5660   44.8530 C   0  0  0  0  0  0  0  0  0  0  0  0
   46.4600   29.7900   43.7990 C   0  0  0  0  0  0  0  0  0  0  0  0
   47.6180   29.4260   43.1080 C   0  0  0  0  0  0  0  0  0  0  0  0
   48.6250   29.9950   43.7710 N   0  0  0  0  0  0  0  0  0  0  0  0
   48.1850   30.6730   44.8040 N   0  0  0  0  0  0  0  0  0  0  0  0
   45.4080   29.6000   43.6830 H   0  0  0  0  0  0  0  0  0  0  0  0
   47.5050   28.8060   42.2360 H   0  0  0  0  0  0  0  0  0  0  0  0
   49.9810   29.8240   43.3300 C   0  0  0  0  0  0  0  0  0  0  0  0
   50.1080   28.8620   42.4100 N   0  0  0  0  0  0  0  0  0  0  0  0
   51.3200   28.7430   42.0500 O   0  0  0  0  0  0  0  0  0  0  0  0
   52.1440   29.6090   42.6850 C   0  0  0  0  0  0  0  0  0  0  0  0
   52.7870   30.2850   43.1810 H   0  0  0  0  0  0  0  0  0  0  0  0
   51.2330   30.2570   43.4750 N   0  0  0  0  0  0  0  0  0  0  0  0
  1  8  1  0  0  0  0
  1  6  1  0  0  0  0
  2  1  2  0  0  0  0
  3  2  1  0  0  0  0
  3  4  2  0  0  0  0
  4  5  1  0  0  0  0
  5  6  2  0  0  0  0
  5  7  1  0  0  0  0
  7 10  1  0  0  0  0
  9  7  1  0  0  0  0
 11 12  1  0  0  0  0
 11 17  1  1  0  0  0
 11  2  1  0  0  0  0
 12 18  1  0  0  0  0
 13 19  1  0  0  0  0
 13 12  2  0  0  0  0
 14 20  1  6  0  0  0
 14 13  1  0  0  0  0
 15 14  1  0  0  0  0
 15 22  1  0  0  0  0
 15 16  1  0  0  0  0
 16 11  1  0  0  0  0
 21 15  1  0  0  0  0
 23 16  1  0  0  0  0
 24 16  1  0  0  0  0
 25 26  1  0  0  0  0
 25 14  1  0  0  0  0
 27 25  1  0  0  0  0
 28 25  1  0  0  0  0
 29  3  1  0  0  0  0
 30 29  1  0  0  0  0
 31 32  1  0  0  0  0
 31 30  2  0  0  0  0
 32 33  1  0  0  0  0
 33 29  2  0  0  0  0
 34 30  1  0  0  0  0
 35 31  1  0  0  0  0
 36 41  1  0  0  0  0
 36 32  1  0  0  0  0
 37 36  2  0  0  0  0
 38 37  1  0  0  0  0
 38 39  1  0  0  0  0
 39 40  1  0  0  0  0
 39 41  2  0  0  0  0
M  END
>  <minimizedAffinity>
-5.92166948

>  <minimizedRMSD>
0.187576532

$$$$
