
 OpenBabel03232521003D

 41 44  0  0  1  0  0  0  0  0999 V2000
   45.3320   32.8840   47.4980 C   0  0  0  0  0  0  0  0  0  0  0  0
   45.9060   32.6370   46.2950 C   0  0  0  0  0  0  0  0  0  0  0  0
   46.2000   31.2920   46.0510 C   0  0  0  0  0  0  0  0  0  0  0  0
   45.9390   30.2940   46.9310 N   0  0  0  0  0  0  0  0  0  0  0  0
   45.3510   30.6030   48.1480 C   0  0  0  0  0  0  0  0  0  0  0  0
   45.0640   31.8770   48.4010 N   0  0  0  0  0  0  0  0  0  0  0  0
   45.1020   29.5790   49.1030 N   0  0  0  0  0  0  0  0  0  0  0  0
   45.0650   33.8820   47.8020 H   0  0  0  0  0  0  0  0  0  0  0  0
   44.8250   28.6630   48.6430 H   0  0  0  0  0  0  0  0  0  0  0  0
   45.2260   29.8710   50.0980 H   0  0  0  0  0  0  0  0  0  0  0  0
   46.1560   33.5920   45.2690 C   0  0  2  0  0  0  0  0  0  0  0  0
   44.9470   34.6860   45.5040 C   0  0  0  0  0  0  0  0  0  0  0  0
   44.7220   35.6220   44.4410 C   0  0  0  0  0  0  0  0  0  0  0  0
   45.5240   35.5580   43.2150 C   0  0  1  0  0  0  0  0  0  0  0  0
   46.5800   34.5520   43.1630 C   0  0  0  0  0  0  0  0  0  0  0  0
   46.1270   33.3160   43.9050 C   0  0  0  0  0  0  0  0  0  0  0  0
   46.9450   34.3240   45.6040 H   0  0  0  0  0  0  0  0  0  0  0  0
   44.2860   34.8040   46.3500 H   0  0  0  0  0  0  0  0  0  0  0  0
   43.9520   36.3460   44.5540 H   0  0  0  0  0  0  0  0  0  0  0  0
   45.9460   36.5670   43.0420 H   0  0  0  0  0  0  0  0  0  0  0  0
   46.8480   34.3640   42.1010 H   0  0  0  0  0  0  0  0  0  0  0  0
   47.4960   34.9300   43.6740 H   0  0  0  0  0  0  0  0  0  0  0  0
   46.9750   32.6630   43.5660 H   0  0  0  0  0  0  0  0  0  0  0  0
   45.2170   32.8770   43.4530 H   0  0  0  0  0  0  0  0  0  0  0  0
   44.5090   35.3010   42.0620 C   0  0  0  0  0  0  0  0  0  0  0  0
   43.4420   34.5160   42.4560 F   0  0  0  0  0  0  0  0  0  0  0  0
   43.9860   36.5500   41.7260 F   0  0  0  0  0  0  0  0  0  0  0  0
   45.1840   34.8300   40.9500 F   0  0  0  0  0  0  0  0  0  0  0  0
   46.8610   30.6080   44.9520 C   0  0  0  0  0  0  0  0  0  0  0  0
   46.5330   29.8160   43.8980 C   0  0  0  0  0  0  0  0  0  0  0  0
   47.7150   29.4570   43.2440 C   0  0  0  0  0  0  0  0  0  0  0  0
   48.6970   30.0460   43.9280 N   0  0  0  0  0  0  0  0  0  0  0  0
   48.2190   30.7310   44.9400 N   0  0  0  0  0  0  0  0  0  0  0  0
   45.4880   29.6120   43.7550 H   0  0  0  0  0  0  0  0  0  0  0  0
   47.6340   28.8250   42.3770 H   0  0  0  0  0  0  0  0  0  0  0  0
   50.0650   29.8860   43.5270 C   0  0  0  0  0  0  0  0  0  0  0  0
   50.2470   30.0810   42.2160 N   0  0  0  0  0  0  0  0  0  0  0  0
   51.4690   29.9270   41.9050 O   0  0  0  0  0  0  0  0  0  0  0  0
   52.2470   29.6160   42.9680 C   0  0  0  0  0  0  0  0  0  0  0  0
   52.8530   29.3720   43.7970 H   0  0  0  0  0  0  0  0  0  0  0  0
   51.2970   29.6070   43.9540 N   0  0  0  0  0  0  0  0  0  0  0  0
  1  8  1  0  0  0  0
  1  6  1  0  0  0  0
  2  1  2  0  0  0  0
  3  2  1  0  0  0  0
  3  4  2  0  0  0  0
  4  5  1  0  0  0  0
  5  6  2  0  0  0  0
  5  7  1  0  0  0  0
  7 10  1  0  0  0  0
  9  7  1  0  0  0  0
 11 12  1  0  0  0  0
 11 17  1  1  0  0  0
 11  2  1  0  0  0  0
 12 18  1  0  0  0  0
 13 19  1  0  0  0  0
 13 12  2  0  0  0  0
 14 20  1  6  0  0  0
 14 13  1  0  0  0  0
 15 14  1  0  0  0  0
 15 22  1  0  0  0  0
 15 16  1  0  0  0  0
 16 11  1  0  0  0  0
 21 15  1  0  0  0  0
 23 16  1  0  0  0  0
 24 16  1  0  0  0  0
 25 26  1  0  0  0  0
 25 14  1  0  0  0  0
 27 25  1  0  0  0  0
 28 25  1  0  0  0  0
 29  3  1  0  0  0  0
 30 29  1  0  0  0  0
 31 30  2  0  0  0  0
 31 32  1  0  0  0  0
 32 33  1  0  0  0  0
 33 29  2  0  0  0  0
 34 30  1  0  0  0  0
 35 31  1  0  0  0  0
 36 32  1  0  0  0  0
 36 41  1  0  0  0  0
 37 36  2  0  0  0  0
 38 37  1  0  0  0  0
 38 39  1  0  0  0  0
 39 40  1  0  0  0  0
 39 41  2  0  0  0  0
M  END
>  <minimizedAffinity>
-5.95497942

>  <minimizedRMSD>
0.210651979

$$$$
