
 OpenBabel03232520203D

 36 38  0  0  0  0  0  0  0  0999 V2000
   47.6030   34.1060   42.2480 C   0  0  0  0  0  0  0  0  0  0  0  0
   48.4380   35.2390   41.7230 C   0  0  0  0  0  0  0  0  0  0  0  0
   49.7690   35.3960   42.3480 C   0  0  0  0  0  0  0  0  0  0  0  0
   50.5280   34.1230   42.5310 C   0  0  0  0  0  0  0  0  0  0  0  0
   49.7050   32.8750   42.2990 C   0  0  0  0  0  0  0  0  0  0  0  0
   48.3800   33.0680   43.0030 C   0  0  0  0  0  0  0  0  0  0  0  0
   48.6100   35.1150   40.6180 H   0  0  0  0  0  0  0  0  0  0  0  0
   47.8880   36.2000   41.8020 H   0  0  0  0  0  0  0  0  0  0  0  0
   50.3360   36.1250   41.7470 H   0  0  0  0  0  0  0  0  0  0  0  0
   49.6490   35.8750   43.3490 H   0  0  0  0  0  0  0  0  0  0  0  0
   51.3410   34.0960   41.7750 H   0  0  0  0  0  0  0  0  0  0  0  0
   51.0470   34.0600   43.5130 H   0  0  0  0  0  0  0  0  0  0  0  0
   50.2320   32.0500   42.8560 H   0  0  0  0  0  0  0  0  0  0  0  0
   49.5960   32.6190   41.2420 H   0  0  0  0  0  0  0  0  0  0  0  0
   47.7730   32.1570   43.0560 H   0  0  0  0  0  0  0  0  0  0  0  0
   48.6250   33.5050   44.0060 H   0  0  0  0  0  0  0  0  0  0  0  0
   45.2520   34.4450   45.0930 C   0  0  0  0  0  0  0  0  0  0  0  0
   44.5380   35.6050   44.7680 C   0  0  0  0  0  0  0  0  0  0  0  0
   44.8670   36.2530   43.5900 C   0  0  0  0  0  0  0  0  0  0  0  0
   45.8560   35.7370   42.8180 N   0  0  0  0  0  0  0  0  0  0  0  0
   46.5320   34.6090   43.1590 C   0  0  0  0  0  0  0  0  0  0  0  0
   46.2120   33.9710   44.3130 N   0  0  0  0  0  0  0  0  0  0  0  0
   45.0710   33.8720   45.9830 H   0  0  0  0  0  0  0  0  0  0  0  0
   43.7720   35.9480   45.4310 H   0  0  0  0  0  0  0  0  0  0  0  0
   44.3340   37.1560   43.3050 H   0  0  0  0  0  0  0  0  0  0  0  0
   46.9690   33.4130   41.0740 C   0  0  0  0  0  0  0  0  0  0  0  0
   45.9350   32.5280   40.8410 C   0  0  0  0  0  0  0  0  0  0  0  0
   45.7020   32.1490   39.5770 C   0  0  0  0  0  0  0  0  0  0  0  0
   46.4410   32.6030   38.5470 C   0  0  0  0  0  0  0  0  0  0  0  0
   47.6370   33.7160   39.4200 S   0  0  0  0  0  0  0  0  0  0  0  0
   45.4130   32.2340   41.7390 H   0  0  0  0  0  0  0  0  0  0  0  0
   44.9030   31.4560   39.3350 H   0  0  0  0  0  0  0  0  0  0  0  0
   46.4290   32.3830   37.1190 C   0  0  0  0  0  0  0  0  0  0  0  0
   46.4820   30.9280   36.7510 C   0  0  0  0  0  0  0  0  0  0  0  0
   47.7050   33.0010   36.5290 C   0  0  0  0  0  0  0  0  0  0  0  0
   45.2890   33.0850   36.4560 C   0  0  0  0  0  0  0  0  0  0  0  0
  1  6  1  0  0  0  0
  1 21  1  0  0  0  0
  2  8  1  0  0  0  0
  2  1  1  0  0  0  0
  2  3  1  0  0  0  0
  3  4  1  0  0  0  0
  3 10  1  0  0  0  0
  4 12  1  0  0  0  0
  5  4  1  0  0  0  0
  5 13  1  0  0  0  0
  5  6  1  0  0  0  0
  6 15  1  0  0  0  0
  6 16  1  0  0  0  0
  7  2  1  0  0  0  0
  9  3  1  0  0  0  0
 11  4  1  0  0  0  0
 14  5  1  0  0  0  0
 17 23  1  0  0  0  0
 18 17  1  0  0  0  0
 18 24  1  0  0  0  0
 19 18  2  0  0  0  0
 20 21  2  0  0  0  0
 20 19  1  0  0  0  0
 21 22  1  0  0  0  0
 22 17  2  0  0  0  0
 25 19  1  0  0  0  0
 26  1  1  0  0  0  0
 27 26  2  0  0  0  0
 27 31  1  0  0  0  0
 28 27  1  0  0  0  0
 29 30  1  0  0  0  0
 29 28  2  0  0  0  0
 30 26  1  0  0  0  0
 32 28  1  0  0  0  0
 33 29  1  0  0  0  0
 34 33  1  0  0  0  0
 35 33  1  0  0  0  0
 36 33  1  0  0  0  0
M  END
>  <minimizedAffinity>
-5.56128216

>  <minimizedRMSD>
0.533073902

$$$$
