
 OpenBabel03232521003D

 41 44  0  0  1  0  0  0  0  0999 V2000
   45.3290   32.8960   47.5060 C   0  0  0  0  0  0  0  0  0  0  0  0
   45.9030   32.6430   46.3050 C   0  0  0  0  0  0  0  0  0  0  0  0
   46.1950   31.2970   46.0650 C   0  0  0  0  0  0  0  0  0  0  0  0
   45.9330   30.3030   46.9500 N   0  0  0  0  0  0  0  0  0  0  0  0
   45.3460   30.6170   48.1660 C   0  0  0  0  0  0  0  0  0  0  0  0
   45.0600   31.8930   48.4130 N   0  0  0  0  0  0  0  0  0  0  0  0
   45.0950   29.5980   49.1250 N   0  0  0  0  0  0  0  0  0  0  0  0
   45.0630   33.8950   47.8070 H   0  0  0  0  0  0  0  0  0  0  0  0
   44.8170   28.6800   48.6680 H   0  0  0  0  0  0  0  0  0  0  0  0
   45.2200   29.8940   50.1190 H   0  0  0  0  0  0  0  0  0  0  0  0
   46.1530   33.5940   45.2750 C   0  0  2  0  0  0  0  0  0  0  0  0
   44.9460   34.6900   45.5050 C   0  0  0  0  0  0  0  0  0  0  0  0
   44.7210   35.6220   44.4380 C   0  0  0  0  0  0  0  0  0  0  0  0
   45.5230   35.5520   43.2130 C   0  0  1  0  0  0  0  0  0  0  0  0
   46.5780   34.5450   43.1640 C   0  0  0  0  0  0  0  0  0  0  0  0
   46.1240   33.3130   43.9110 C   0  0  0  0  0  0  0  0  0  0  0  0
   46.9430   34.3270   45.6060 H   0  0  0  0  0  0  0  0  0  0  0  0
   44.2850   34.8120   46.3500 H   0  0  0  0  0  0  0  0  0  0  0  0
   43.9520   36.3470   44.5480 H   0  0  0  0  0  0  0  0  0  0  0  0
   45.9460   36.5600   43.0360 H   0  0  0  0  0  0  0  0  0  0  0  0
   46.8460   34.3530   42.1030 H   0  0  0  0  0  0  0  0  0  0  0  0
   47.4940   34.9240   43.6750 H   0  0  0  0  0  0  0  0  0  0  0  0
   46.9720   32.6570   43.5750 H   0  0  0  0  0  0  0  0  0  0  0  0
   45.2150   32.8720   43.4610 H   0  0  0  0  0  0  0  0  0  0  0  0
   44.5090   35.2920   42.0610 C   0  0  0  0  0  0  0  0  0  0  0  0
   43.4480   34.4960   42.4530 F   0  0  0  0  0  0  0  0  0  0  0  0
   43.9750   36.5380   41.7300 F   0  0  0  0  0  0  0  0  0  0  0  0
   45.1850   34.8310   40.9450 F   0  0  0  0  0  0  0  0  0  0  0  0
   46.8550   30.6080   44.9690 C   0  0  0  0  0  0  0  0  0  0  0  0
   46.5270   29.8060   43.9220 C   0  0  0  0  0  0  0  0  0  0  0  0
   47.7080   29.4480   43.2670 C   0  0  0  0  0  0  0  0  0  0  0  0
   48.6890   30.0470   43.9430 N   0  0  0  0  0  0  0  0  0  0  0  0
   48.2130   30.7380   44.9510 N   0  0  0  0  0  0  0  0  0  0  0  0
   45.4820   29.5970   43.7850 H   0  0  0  0  0  0  0  0  0  0  0  0
   47.6270   28.8100   42.4050 H   0  0  0  0  0  0  0  0  0  0  0  0
   50.0570   29.8910   43.5380 C   0  0  0  0  0  0  0  0  0  0  0  0
   50.4640   30.8550   42.7050 N   0  0  0  0  0  0  0  0  0  0  0  0
   51.6770   30.6790   42.3710 O   0  0  0  0  0  0  0  0  0  0  0  0
   52.2230   29.5790   42.9410 C   0  0  0  0  0  0  0  0  0  0  0  0
   52.6490   28.7210   43.3850 H   0  0  0  0  0  0  0  0  0  0  0  0
   51.1470   29.1340   43.6610 N   0  0  0  0  0  0  0  0  0  0  0  0
  1  8  1  0  0  0  0
  1  6  1  0  0  0  0
  2  1  2  0  0  0  0
  3  2  1  0  0  0  0
  3  4  2  0  0  0  0
  4  5  1  0  0  0  0
  5  6  2  0  0  0  0
  5  7  1  0  0  0  0
  7 10  1  0  0  0  0
  9  7  1  0  0  0  0
 11 12  1  0  0  0  0
 11 17  1  1  0  0  0
 11  2  1  0  0  0  0
 12 18  1  0  0  0  0
 13 19  1  0  0  0  0
 13 12  2  0  0  0  0
 14 20  1  6  0  0  0
 14 13  1  0  0  0  0
 15 14  1  0  0  0  0
 15 22  1  0  0  0  0
 15 16  1  0  0  0  0
 16 11  1  0  0  0  0
 21 15  1  0  0  0  0
 23 16  1  0  0  0  0
 24 16  1  0  0  0  0
 25 26  1  0  0  0  0
 25 14  1  0  0  0  0
 27 25  1  0  0  0  0
 28 25  1  0  0  0  0
 29  3  1  0  0  0  0
 30 29  1  0  0  0  0
 31 30  2  0  0  0  0
 31 32  1  0  0  0  0
 32 33  1  0  0  0  0
 33 29  2  0  0  0  0
 34 30  1  0  0  0  0
 35 31  1  0  0  0  0
 36 41  1  0  0  0  0
 36 32  1  0  0  0  0
 37 36  2  0  0  0  0
 38 37  1  0  0  0  0
 38 39  1  0  0  0  0
 39 40  1  0  0  0  0
 39 41  2  0  0  0  0
M  END
>  <minimizedAffinity>
-6.00115967

>  <minimizedRMSD>
0.216700852

$$$$
