
 OpenBabel03232521003D

 41 44  0  0  1  0  0  0  0  0999 V2000
   45.5010   32.8470   47.5150 C   0  0  0  0  0  0  0  0  0  0  0  0
   45.9570   32.6020   46.2630 C   0  0  0  0  0  0  0  0  0  0  0  0
   46.1280   31.2500   45.9550 C   0  0  0  0  0  0  0  0  0  0  0  0
   45.8650   30.2420   46.8230 N   0  0  0  0  0  0  0  0  0  0  0  0
   45.4010   30.5490   48.0930 C   0  0  0  0  0  0  0  0  0  0  0  0
   45.2310   31.8300   48.4070 N   0  0  0  0  0  0  0  0  0  0  0  0
   45.1520   29.5120   49.0350 N   0  0  0  0  0  0  0  0  0  0  0  0
   45.3350   33.8500   47.8700 H   0  0  0  0  0  0  0  0  0  0  0  0
   44.7710   28.6360   48.5710 H   0  0  0  0  0  0  0  0  0  0  0  0
   45.3770   29.7590   50.0240 H   0  0  0  0  0  0  0  0  0  0  0  0
   46.1950   33.5740   45.2490 C   0  0  2  0  0  0  0  0  0  0  0  0
   44.9670   34.6450   45.4910 C   0  0  0  0  0  0  0  0  0  0  0  0
   44.7310   35.5890   44.4380 C   0  0  0  0  0  0  0  0  0  0  0  0
   45.5380   35.5520   43.2150 C   0  0  1  0  0  0  0  0  0  0  0  0
   46.6110   34.5640   43.1550 C   0  0  0  0  0  0  0  0  0  0  0  0
   46.1760   33.3130   43.8810 C   0  0  0  0  0  0  0  0  0  0  0  0
   46.9710   34.3150   45.5950 H   0  0  0  0  0  0  0  0  0  0  0  0
   44.3010   34.7420   46.3360 H   0  0  0  0  0  0  0  0  0  0  0  0
   43.9490   36.2990   44.5560 H   0  0  0  0  0  0  0  0  0  0  0  0
   45.9450   36.5700   43.0550 H   0  0  0  0  0  0  0  0  0  0  0  0
   46.8860   34.3930   42.0920 H   0  0  0  0  0  0  0  0  0  0  0  0
   47.5180   34.9510   43.6750 H   0  0  0  0  0  0  0  0  0  0  0  0
   47.0350   32.6770   43.5380 H   0  0  0  0  0  0  0  0  0  0  0  0
   45.2750   32.8640   43.4210 H   0  0  0  0  0  0  0  0  0  0  0  0
   44.5330   35.2920   42.0550 C   0  0  0  0  0  0  0  0  0  0  0  0
   43.4680   34.4980   42.4400 F   0  0  0  0  0  0  0  0  0  0  0  0
   44.0030   36.5380   41.7190 F   0  0  0  0  0  0  0  0  0  0  0  0
   45.2170   34.8290   40.9450 F   0  0  0  0  0  0  0  0  0  0  0  0
   46.6460   30.5600   44.7850 C   0  0  0  0  0  0  0  0  0  0  0  0
   46.1740   29.9590   43.6620 C   0  0  0  0  0  0  0  0  0  0  0  0
   47.2630   29.4360   42.9610 C   0  0  0  0  0  0  0  0  0  0  0  0
   48.3380   29.7440   43.6880 N   0  0  0  0  0  0  0  0  0  0  0  0
   48.0010   30.4070   44.7690 N   0  0  0  0  0  0  0  0  0  0  0  0
   45.1090   29.9860   43.5130 H   0  0  0  0  0  0  0  0  0  0  0  0
   47.0630   28.9240   42.0360 H   0  0  0  0  0  0  0  0  0  0  0  0
   49.6500   29.3530   43.2560 C   0  0  0  0  0  0  0  0  0  0  0  0
   50.6230   29.9600   43.9450 N   0  0  0  0  0  0  0  0  0  0  0  0
   51.7650   29.5880   43.5310 O   0  0  0  0  0  0  0  0  0  0  0  0
   51.6910   28.6900   42.5210 C   0  0  0  0  0  0  0  0  0  0  0  0
   51.6330   27.9900   41.7320 H   0  0  0  0  0  0  0  0  0  0  0  0
   50.3310   28.5900   42.4010 N   0  0  0  0  0  0  0  0  0  0  0  0
  1  8  1  0  0  0  0
  1  6  1  0  0  0  0
  2  1  2  0  0  0  0
  3  2  1  0  0  0  0
  3  4  2  0  0  0  0
  4  5  1  0  0  0  0
  5  6  2  0  0  0  0
  5  7  1  0  0  0  0
  7 10  1  0  0  0  0
  9  7  1  0  0  0  0
 11 12  1  0  0  0  0
 11 17  1  1  0  0  0
 11  2  1  0  0  0  0
 12 18  1  0  0  0  0
 13 19  1  0  0  0  0
 13 12  2  0  0  0  0
 14 20  1  6  0  0  0
 14 13  1  0  0  0  0
 15 14  1  0  0  0  0
 15 22  1  0  0  0  0
 15 16  1  0  0  0  0
 16 11  1  0  0  0  0
 21 15  1  0  0  0  0
 23 16  1  0  0  0  0
 24 16  1  0  0  0  0
 25 26  1  0  0  0  0
 25 14  1  0  0  0  0
 27 25  1  0  0  0  0
 28 25  1  0  0  0  0
 29  3  1  0  0  0  0
 30 29  1  0  0  0  0
 31 30  2  0  0  0  0
 31 32  1  0  0  0  0
 32 33  1  0  0  0  0
 33 29  2  0  0  0  0
 34 30  1  0  0  0  0
 35 31  1  0  0  0  0
 36 32  1  0  0  0  0
 36 37  2  0  0  0  0
 38 37  1  0  0  0  0
 39 38  1  0  0  0  0
 40 39  1  0  0  0  0
 41 39  2  0  0  0  0
 41 36  1  0  0  0  0
M  END
>  <minimizedAffinity>
-5.86911011

>  <minimizedRMSD>
0.242160887

$$$$
