
 OpenBabel03232518393D

 17 17  0  0  0  0  0  0  0  0999 V2000
   44.7180   35.0430   45.3850 C   0  0  0  0  0  0  0  0  0  0  0  0
   45.5220   34.5000   44.3680 C   0  0  0  0  0  0  0  0  0  0  0  0
   46.2700   33.3830   44.6910 C   0  0  0  0  0  0  0  0  0  0  0  0
   46.1760   32.8900   45.9610 N   0  0  0  0  0  0  0  0  0  0  0  0
   45.3990   33.4320   46.9070 C   0  0  0  0  0  0  0  0  0  0  0  0
   44.6620   34.5160   46.6240 N   0  0  0  0  0  0  0  0  0  0  0  0
   44.1080   35.9270   45.1810 H   0  0  0  0  0  0  0  0  0  0  0  0
   46.8940   32.9420   43.9420 H   0  0  0  0  0  0  0  0  0  0  0  0
   45.5150   35.1440   43.0560 C   0  0  0  0  0  0  0  0  0  0  0  0
   45.1310   36.6050   43.2370 C   0  0  0  0  0  0  0  0  0  0  0  0
   44.4810   34.5480   42.1350 C   0  0  0  0  0  0  0  0  0  0  0  0
   46.8910   34.9860   42.4440 C   0  0  0  0  0  0  0  0  0  0  0  0
   45.3020   32.9330   48.1930 O   0  0  0  0  0  0  0  0  0  0  0  0
   45.4230   31.5750   48.5250 C   0  0  0  0  0  0  0  0  0  0  0  0
   46.7280   31.1370   48.5040 F   0  0  0  0  0  0  0  0  0  0  0  0
   44.5800   30.8020   47.7390 F   0  0  0  0  0  0  0  0  0  0  0  0
   45.0250   31.4330   49.8660 F   0  0  0  0  0  0  0  0  0  0  0  0
  1  6  1  0  0  0  0
  2  3  1  0  0  0  0
  2  1  2  0  0  0  0
  3  4  2  0  0  0  0
  4  5  1  0  0  0  0
  5 13  1  0  0  0  0
  6  5  2  0  0  0  0
  7  1  1  0  0  0  0
  8  3  1  0  0  0  0
  9 10  1  0  0  0  0
  9  2  1  0  0  0  0
 11  9  1  0  0  0  0
 12  9  1  0  0  0  0
 13 14  1  0  0  0  0
 14 17  1  0  0  0  0
 15 14  1  0  0  0  0
 16 14  1  0  0  0  0
M  END
>  <minimizedAffinity>
-4.63854265

>  <minimizedRMSD>
1.65200853

$$$$
