
 OpenBabel03232515123D

 33 36  0  0  0  0  0  0  0  0999 V2000
   48.1410   30.8770   48.3350 C   0  0  0  0  0  0  0  0  0  0  0  0
   49.0530   31.4030   49.2280 C   0  0  0  0  0  0  0  0  0  0  0  0
   50.0680   30.6360   49.7320 C   0  0  0  0  0  0  0  0  0  0  0  0
   50.1660   29.3040   49.3280 C   0  0  0  0  0  0  0  0  0  0  0  0
   49.2540   28.8030   48.4450 C   0  0  0  0  0  0  0  0  0  0  0  0
   48.2220   29.5580   47.9230 C   0  0  0  0  0  0  0  0  0  0  0  0
   48.9600   32.4390   49.5300 H   0  0  0  0  0  0  0  0  0  0  0  0
   50.7940   31.0270   50.4320 H   0  0  0  0  0  0  0  0  0  0  0  0
   50.9800   28.7230   49.7450 H   0  0  0  0  0  0  0  0  0  0  0  0
   44.4730   35.7770   44.6320 C   0  0  0  0  0  0  0  0  0  0  0  0
   45.2030   35.6930   43.4410 C   0  0  0  0  0  0  0  0  0  0  0  0
   46.2080   34.7290   43.3150 C   0  0  0  0  0  0  0  0  0  0  0  0
   46.4120   33.9160   44.3940 N   0  0  0  0  0  0  0  0  0  0  0  0
   45.6880   34.0230   45.5320 C   0  0  0  0  0  0  0  0  0  0  0  0
   44.7170   34.9410   45.6790 N   0  0  0  0  0  0  0  0  0  0  0  0
   45.9400   33.1490   46.6290 N   0  0  0  0  0  0  0  0  0  0  0  0
   47.1250   32.5170   46.6790 C   0  0  0  0  0  0  0  0  0  0  0  0
   47.0870   31.7460   47.8380 C   0  0  0  0  0  0  0  0  0  0  0  0
   45.9060   31.9290   48.4460 N   0  0  0  0  0  0  0  0  0  0  0  0
   45.1920   32.7770   47.7280 C   0  0  0  0  0  0  0  0  0  0  0  0
   43.7110   36.5400   44.6700 H   0  0  0  0  0  0  0  0  0  0  0  0
   45.0220   36.3470   42.6050 H   0  0  0  0  0  0  0  0  0  0  0  0
   46.8160   34.5980   42.4310 H   0  0  0  0  0  0  0  0  0  0  0  0
   47.9700   32.5270   46.0390 H   0  0  0  0  0  0  0  0  0  0  0  0
   44.1950   33.1980   47.8490 H   0  0  0  0  0  0  0  0  0  0  0  0
   47.2950   29.0120   47.0120 N   0  0  0  0  0  0  0  0  0  0  0  0
   46.7470   28.1630   47.2540 H   0  0  0  0  0  0  0  0  0  0  0  0
   47.0690   29.3770   46.0500 H   0  0  0  0  0  0  0  0  0  0  0  0
   49.3650   27.3980   48.0190 C   0  0  0  0  0  0  0  0  0  0  0  0
   49.5950   27.0410   46.8610 O   0  0  0  0  0  0  0  0  0  0  0  0
   49.1920   26.3040   49.0410 C   0  0  0  0  0  0  0  0  0  0  0  0
   49.9330   25.0250   48.6980 C   0  0  0  0  0  0  0  0  0  0  0  0
   50.3560   25.8820   49.8530 C   0  0  0  0  0  0  0  0  0  0  0  0
  1  2  1  0  0  0  0
  2  7  1  0  0  0  0
  2  3  2  0  0  0  0
  3  8  1  0  0  0  0
  4  3  1  0  0  0  0
  4  9  1  0  0  0  0
  5  4  2  0  0  0  0
  6  1  2  0  0  0  0
  6  5  1  0  0  0  0
 10 21  1  0  0  0  0
 10 15  1  0  0  0  0
 11 10  2  0  0  0  0
 12 11  1  0  0  0  0
 12 13  2  0  0  0  0
 13 14  1  0  0  0  0
 14 15  2  0  0  0  0
 14 16  1  0  0  0  0
 16 17  1  0  0  0  0
 16 20  1  0  0  0  0
 17 18  2  0  0  0  0
 18  1  1  0  0  0  0
 18 19  1  0  0  0  0
 20 25  1  0  0  0  0
 20 19  2  0  0  0  0
 22 11  1  0  0  0  0
 23 12  1  0  0  0  0
 24 17  1  0  0  0  0
 26 27  1  0  0  0  0
 26  6  1  0  0  0  0
 28 26  1  0  0  0  0
 29  5  1  0  0  0  0
 29 31  1  0  0  0  0
 30 29  2  0  0  0  0
 31 33  1  0  0  0  0
 32 31  1  0  0  0  0
 32 33  1  0  0  0  0
M  END
>  <minimizedAffinity>
-5.57621336

>  <minimizedRMSD>
1.46528041

$$$$
