
 OpenBabel03232520353D

 42 46  0  0  1  0  0  0  0  0999 V2000
   46.9210   34.5150   41.3300 C   0  0  0  0  0  0  0  0  0  0  0  0
   48.1870   34.9490   40.9510 C   0  0  0  0  0  0  0  0  0  0  0  0
   48.4430   34.6400   39.7000 N   0  0  0  0  0  0  0  0  0  0  0  0
   47.3520   33.9970   39.2270 C   0  0  0  0  0  0  0  0  0  0  0  0
   47.1150   33.4610   37.9550 C   0  0  0  0  0  0  0  0  0  0  0  0
   45.9120   32.8560   37.7410 C   0  0  0  0  0  0  0  0  0  0  0  0
   44.9070   32.7250   38.6750 C   0  0  0  0  0  0  0  0  0  0  0  0
   45.1990   33.2710   39.9080 C   0  0  0  0  0  0  0  0  0  0  0  0
   46.3700   33.8950   40.2170 C   0  0  0  0  0  0  0  0  0  0  0  0
   49.3030   34.8230   39.1080 H   0  0  0  0  0  0  0  0  0  0  0  0
   47.8510   33.5220   37.1660 H   0  0  0  0  0  0  0  0  0  0  0  0
   45.7440   32.4470   36.7480 H   0  0  0  0  0  0  0  0  0  0  0  0
   43.9620   32.2430   38.4870 H   0  0  0  0  0  0  0  0  0  0  0  0
   44.4930   33.2370   40.7310 H   0  0  0  0  0  0  0  0  0  0  0  0
   44.7680   35.8700   44.0610 C   0  0  0  0  0  0  0  0  0  0  0  0
   45.4020   35.7530   42.8030 C   0  0  0  0  0  0  0  0  0  0  0  0
   46.2560   34.6550   42.6170 C   0  0  0  0  0  0  0  0  0  0  0  0
   46.4360   33.7590   43.6410 N   0  0  0  0  0  0  0  0  0  0  0  0
   45.7980   33.9260   44.8260 C   0  0  0  0  0  0  0  0  0  0  0  0
   44.9680   34.9740   45.0380 N   0  0  0  0  0  0  0  0  0  0  0  0
   44.0970   36.6940   44.2680 H   0  0  0  0  0  0  0  0  0  0  0  0
   45.2100   36.4970   42.0520 H   0  0  0  0  0  0  0  0  0  0  0  0
   46.0860   33.1110   45.4750 H   0  0  0  0  0  0  0  0  0  0  0  0
   49.1000   35.6670   41.8720 C   0  0  0  0  0  0  0  0  0  0  0  0
   49.6750   36.4490   41.3340 H   0  0  0  0  0  0  0  0  0  0  0  0
   48.4850   36.2220   42.6320 H   0  0  0  0  0  0  0  0  0  0  0  0
   50.0110   34.7330   42.5890 C   0  0  0  0  0  0  0  0  0  0  0  0
   49.6850   34.6010   43.6420 H   0  0  0  0  0  0  0  0  0  0  0  0
   51.0260   35.1930   42.6610 H   0  0  0  0  0  0  0  0  0  0  0  0
   50.2170   33.3980   41.9100 C   0  0  1  0  0  0  0  0  0  0  0  0
   51.0590   32.3320   42.4460 C   0  0  0  0  0  0  0  0  0  0  0  0
   49.5900   32.2320   42.6690 C   0  0  2  0  0  0  0  0  0  0  0  0
   50.0590   33.4120   40.8290 H   0  0  0  0  0  0  0  0  0  0  0  0
   51.5350   31.6300   41.7250 H   0  0  0  0  0  0  0  0  0  0  0  0
   51.7440   32.5380   43.3000 H   0  0  0  0  0  0  0  0  0  0  0  0
   49.3070   32.4490   43.7400 H   0  0  0  0  0  0  0  0  0  0  0  0
   48.9360   31.2570   41.9500 O   0  0  0  0  0  0  0  0  0  0  0  0
   47.7340   30.6930   42.2580 C   0  0  0  0  0  0  0  0  0  0  0  0
   46.7950   30.5400   41.4230 O   0  0  0  0  0  0  0  0  0  0  0  0
   46.8580   30.0610   43.2890 C   0  0  0  0  0  0  0  0  0  0  0  0
   47.3810   29.0150   44.1940 C   0  0  0  0  0  0  0  0  0  0  0  0
   47.2330   30.3660   44.7320 C   0  0  0  0  0  0  0  0  0  0  0  0
  1 17  1  0  0  0  0
  2  1  2  0  0  0  0
  2 24  1  0  0  0  0
  3  2  1  0  0  0  0
  4  3  1  0  0  0  0
  4  9  1  0  0  0  0
  5  4  2  0  0  0  0
  6  5  1  0  0  0  0
  6  7  2  0  0  0  0
  7  8  1  0  0  0  0
  8  9  2  0  0  0  0
  8 14  1  0  0  0  0
  9  1  1  0  0  0  0
 10  3  1  0  0  0  0
 11  5  1  0  0  0  0
 12  6  1  0  0  0  0
 13  7  1  0  0  0  0
 15 21  1  0  0  0  0
 15 20  1  0  0  0  0
 16 15  2  0  0  0  0
 17 16  1  0  0  0  0
 17 18  2  0  0  0  0
 18 19  1  0  0  0  0
 19 20  2  0  0  0  0
 19 23  1  0  0  0  0
 22 16  1  0  0  0  0
 24 27  1  0  0  0  0
 24 26  1  0  0  0  0
 25 24  1  0  0  0  0
 27 29  1  0  0  0  0
 27 28  1  0  0  0  0
 30 33  1  6  0  0  0
 30 31  1  0  0  0  0
 30 27  1  0  0  0  0
 30 32  1  0  0  0  0
 31 32  1  0  0  0  0
 31 35  1  0  0  0  0
 32 36  1  1  0  0  0
 34 31  1  0  0  0  0
 37 38  1  0  0  0  0
 37 32  1  0  0  0  0
 38 40  1  0  0  0  0
 39 38  2  0  0  0  0
 40 41  1  0  0  0  0
 40 42  1  0  0  0  0
 41 42  1  0  0  0  0
M  END
>  <minimizedAffinity>
-5.33507061

>  <minimizedRMSD>
0.741875291

$$$$
