
 OpenBabel03232521003D

 42 45  0  0  1  0  0  0  0  0999 V2000
   45.3430   32.9000   47.5090 C   0  0  0  0  0  0  0  0  0  0  0  0
   45.9130   32.6460   46.3010 C   0  0  0  0  0  0  0  0  0  0  0  0
   46.1960   31.2990   46.0640 C   0  0  0  0  0  0  0  0  0  0  0  0
   45.9310   30.3050   46.9500 N   0  0  0  0  0  0  0  0  0  0  0  0
   45.3490   30.6150   48.1700 C   0  0  0  0  0  0  0  0  0  0  0  0
   45.0730   31.8910   48.4160 N   0  0  0  0  0  0  0  0  0  0  0  0
   45.0700   29.6040   49.1190 N   0  0  0  0  0  0  0  0  0  0  0  0
   45.0870   33.9070   47.7980 H   0  0  0  0  0  0  0  0  0  0  0  0
   44.2770   29.6700   49.7740 H   0  0  0  0  0  0  0  0  0  0  0  0
   45.7130   28.7590   49.1390 H   0  0  0  0  0  0  0  0  0  0  0  0
   46.1590   33.5990   45.2730 C   0  0  2  0  0  0  0  0  0  0  0  0
   44.9480   34.6910   45.5040 C   0  0  0  0  0  0  0  0  0  0  0  0
   44.7160   35.6210   44.4340 C   0  0  0  0  0  0  0  0  0  0  0  0
   45.5170   35.5500   43.2100 C   0  0  1  0  0  0  0  0  0  0  0  0
   46.5770   34.5460   43.1600 C   0  0  0  0  0  0  0  0  0  0  0  0
   46.1250   33.3130   43.9090 C   0  0  0  0  0  0  0  0  0  0  0  0
   46.9800   34.3050   45.6000 H   0  0  0  0  0  0  0  0  0  0  0  0
   44.2720   34.8410   46.3370 H   0  0  0  0  0  0  0  0  0  0  0  0
   43.9460   36.3410   44.5460 H   0  0  0  0  0  0  0  0  0  0  0  0
   45.9470   36.5620   43.0070 H   0  0  0  0  0  0  0  0  0  0  0  0
   47.5620   34.8790   43.5590 H   0  0  0  0  0  0  0  0  0  0  0  0
   46.7920   34.3250   42.0730 H   0  0  0  0  0  0  0  0  0  0  0  0
   46.9810   32.6650   43.5790 H   0  0  0  0  0  0  0  0  0  0  0  0
   45.1730   32.9790   43.4460 H   0  0  0  0  0  0  0  0  0  0  0  0
   44.5050   35.2840   42.0570 C   0  0  0  0  0  0  0  0  0  0  0  0
   43.4450   34.4850   42.4510 F   0  0  0  0  0  0  0  0  0  0  0  0
   43.9620   36.5220   41.7230 F   0  0  0  0  0  0  0  0  0  0  0  0
   45.1790   34.8240   40.9420 F   0  0  0  0  0  0  0  0  0  0  0  0
   46.8520   30.6100   44.9680 C   0  0  0  0  0  0  0  0  0  0  0  0
   46.5320   29.8250   43.9080 C   0  0  0  0  0  0  0  0  0  0  0  0
   47.7170   29.4610   43.2560 C   0  0  0  0  0  0  0  0  0  0  0  0
   48.6950   30.0420   43.9500 N   0  0  0  0  0  0  0  0  0  0  0  0
   48.2110   30.7240   44.9630 N   0  0  0  0  0  0  0  0  0  0  0  0
   45.4780   29.6200   43.7480 H   0  0  0  0  0  0  0  0  0  0  0  0
   47.6800   28.8300   42.3800 H   0  0  0  0  0  0  0  0  0  0  0  0
   53.0060   28.6440   44.1290 H   0  0  0  0  0  0  0  0  0  0  0  0
   52.1490   29.1420   43.7850 N   0  0  0  0  0  0  0  0  0  0  0  0
   50.9290   29.1240   44.3150 N   0  0  0  0  0  0  0  0  0  0  0  0
   50.0820   29.8970   43.5790 C   0  0  0  0  0  0  0  0  0  0  0  0
   50.8120   30.4250   42.5360 C   0  0  0  0  0  3  0  0  0  0  0  0
   52.0950   29.9320   42.6960 C   0  0  0  0  0  0  0  0  0  0  0  0
   52.8680   30.2010   41.9980 H   0  0  0  0  0  0  0  0  0  0  0  0
  1  8  1  0  0  0  0
  1  6  1  0  0  0  0
  2  1  2  0  0  0  0
  3  2  1  0  0  0  0
  3  4  2  0  0  0  0
  4  5  1  0  0  0  0
  5  6  2  0  0  0  0
  5  7  1  0  0  0  0
  7 10  1  0  0  0  0
  7  9  1  0  0  0  0
 11 12  1  0  0  0  0
 11 17  1  1  0  0  0
 11  2  1  0  0  0  0
 12 18  1  0  0  0  0
 13 19  1  0  0  0  0
 13 12  2  0  0  0  0
 14 20  1  6  0  0  0
 14 13  1  0  0  0  0
 15 14  1  0  0  0  0
 15 21  1  0  0  0  0
 15 16  1  0  0  0  0
 16 11  1  0  0  0  0
 22 15  1  0  0  0  0
 23 16  1  0  0  0  0
 24 16  1  0  0  0  0
 25 26  1  0  0  0  0
 25 14  1  0  0  0  0
 27 25  1  0  0  0  0
 28 25  1  0  0  0  0
 29  3  1  0  0  0  0
 30 29  1  0  0  0  0
 31 30  2  0  0  0  0
 31 32  1  0  0  0  0
 32 33  1  0  0  0  0
 33 29  2  0  0  0  0
 34 30  1  0  0  0  0
 35 31  1  0  0  0  0
 37 36  1  0  0  0  0
 37 38  1  0  0  0  0
 39 32  1  0  0  0  0
 39 38  2  0  0  0  0
 40 41  2  0  0  0  0
 40 39  1  0  0  0  0
 41 37  1  0  0  0  0
 42 41  1  0  0  0  0
M  END
>  <minimizedAffinity>
-5.99554825

>  <minimizedRMSD>
0.219194546

$$$$
