
 OpenBabel03232521003D

 42 45  0  0  1  0  0  0  0  0999 V2000
   45.5000   32.8450   47.5060 C   0  0  0  0  0  0  0  0  0  0  0  0
   45.9600   32.6010   46.2500 C   0  0  0  0  0  0  0  0  0  0  0  0
   46.1320   31.2480   45.9470 C   0  0  0  0  0  0  0  0  0  0  0  0
   45.8660   30.2400   46.8170 N   0  0  0  0  0  0  0  0  0  0  0  0
   45.3990   30.5410   48.0880 C   0  0  0  0  0  0  0  0  0  0  0  0
   45.2290   31.8220   48.3970 N   0  0  0  0  0  0  0  0  0  0  0  0
   45.1220   29.5140   49.0210 N   0  0  0  0  0  0  0  0  0  0  0  0
   45.3350   33.8550   47.8470 H   0  0  0  0  0  0  0  0  0  0  0  0
   44.3850   29.6080   49.7370 H   0  0  0  0  0  0  0  0  0  0  0  0
   45.7050   28.6290   48.9640 H   0  0  0  0  0  0  0  0  0  0  0  0
   46.1950   33.5740   45.2380 C   0  0  2  0  0  0  0  0  0  0  0  0
   44.9710   34.6480   45.4890 C   0  0  0  0  0  0  0  0  0  0  0  0
   44.7280   35.5930   44.4360 C   0  0  0  0  0  0  0  0  0  0  0  0
   45.5290   35.5530   43.2100 C   0  0  1  0  0  0  0  0  0  0  0  0
   46.6000   34.5620   43.1430 C   0  0  0  0  0  0  0  0  0  0  0  0
   46.1630   33.3110   43.8700 C   0  0  0  0  0  0  0  0  0  0  0  0
   47.0080   34.2840   45.5780 H   0  0  0  0  0  0  0  0  0  0  0  0
   44.2940   34.7750   46.3250 H   0  0  0  0  0  0  0  0  0  0  0  0
   43.9500   36.3020   44.5600 H   0  0  0  0  0  0  0  0  0  0  0  0
   45.9470   36.5730   43.0250 H   0  0  0  0  0  0  0  0  0  0  0  0
   47.5810   34.9000   43.5470 H   0  0  0  0  0  0  0  0  0  0  0  0
   46.8170   34.3630   42.0520 H   0  0  0  0  0  0  0  0  0  0  0  0
   47.0260   32.6790   43.5280 H   0  0  0  0  0  0  0  0  0  0  0  0
   45.2150   32.9750   43.4020 H   0  0  0  0  0  0  0  0  0  0  0  0
   44.5180   35.2950   42.0530 C   0  0  0  0  0  0  0  0  0  0  0  0
   43.4490   34.5070   42.4440 F   0  0  0  0  0  0  0  0  0  0  0  0
   43.9900   36.5380   41.7150 F   0  0  0  0  0  0  0  0  0  0  0  0
   45.1930   34.8270   40.9420 F   0  0  0  0  0  0  0  0  0  0  0  0
   46.6570   30.5600   44.7820 C   0  0  0  0  0  0  0  0  0  0  0  0
   46.2040   29.9010   43.6860 C   0  0  0  0  0  0  0  0  0  0  0  0
   47.3100   29.4340   42.9640 C   0  0  0  0  0  0  0  0  0  0  0  0
   48.3770   29.8320   43.6560 N   0  0  0  0  0  0  0  0  0  0  0  0
   48.0190   30.4970   44.7300 N   0  0  0  0  0  0  0  0  0  0  0  0
   45.1280   29.8470   43.5550 H   0  0  0  0  0  0  0  0  0  0  0  0
   47.1620   28.8780   42.0500 H   0  0  0  0  0  0  0  0  0  0  0  0
   51.7520   27.8090   41.4000 H   0  0  0  0  0  0  0  0  0  0  0  0
   51.2670   28.4660   42.0590 N   0  0  0  0  0  0  0  0  0  0  0  0
   49.9630   28.5590   42.3030 N   0  0  0  0  0  0  0  0  0  0  0  0
   49.7210   29.5350   43.2210 C   0  0  0  0  0  0  0  0  0  0  0  0
   50.9390   30.0800   43.5690 C   0  0  0  0  0  3  0  0  0  0  0  0
   51.8790   29.3890   42.8250 C   0  0  0  0  0  0  0  0  0  0  0  0
   52.9230   29.6300   42.9160 H   0  0  0  0  0  0  0  0  0  0  0  0
  1  8  1  0  0  0  0
  1  6  1  0  0  0  0
  2  1  2  0  0  0  0
  3  2  1  0  0  0  0
  3  4  2  0  0  0  0
  4  5  1  0  0  0  0
  5  6  2  0  0  0  0
  5  7  1  0  0  0  0
  7  9  1  0  0  0  0
 10  7  1  0  0  0  0
 11 12  1  0  0  0  0
 11 17  1  1  0  0  0
 11  2  1  0  0  0  0
 12 18  1  0  0  0  0
 13 19  1  0  0  0  0
 13 12  2  0  0  0  0
 14 20  1  6  0  0  0
 14 13  1  0  0  0  0
 15 14  1  0  0  0  0
 15 21  1  0  0  0  0
 15 16  1  0  0  0  0
 16 11  1  0  0  0  0
 22 15  1  0  0  0  0
 23 16  1  0  0  0  0
 24 16  1  0  0  0  0
 25 26  1  0  0  0  0
 25 14  1  0  0  0  0
 27 25  1  0  0  0  0
 28 25  1  0  0  0  0
 29  3  1  0  0  0  0
 30 29  1  0  0  0  0
 31 32  1  0  0  0  0
 31 30  2  0  0  0  0
 32 33  1  0  0  0  0
 33 29  2  0  0  0  0
 34 30  1  0  0  0  0
 35 31  1  0  0  0  0
 36 37  1  0  0  0  0
 37 38  1  0  0  0  0
 37 41  1  0  0  0  0
 38 39  2  0  0  0  0
 39 40  1  0  0  0  0
 39 32  1  0  0  0  0
 41 42  1  0  0  0  0
 41 40  2  0  0  0  0
M  END
>  <minimizedAffinity>
-5.91527653

>  <minimizedRMSD>
0.212442771

$$$$
