
 OpenBabel03232519383D

 41 45  0  0  0  0  0  0  0  0999 V2000
   46.6570   32.7060   38.9240 C   0  0  0  0  0  0  0  0  0  0  0  0
   45.5570   32.8790   38.0970 C   0  0  0  0  0  0  0  0  0  0  0  0
   45.2460   31.9340   37.1390 C   0  0  0  0  0  0  0  0  0  0  0  0
   46.0290   30.7900   36.9840 C   0  0  0  0  0  0  0  0  0  0  0  0
   47.1300   30.6350   37.8250 C   0  0  0  0  0  0  0  0  0  0  0  0
   47.4560   31.5780   38.7950 C   0  0  0  0  0  0  0  0  0  0  0  0
   44.9730   33.7790   38.2470 H   0  0  0  0  0  0  0  0  0  0  0  0
   44.3750   32.1530   36.5430 H   0  0  0  0  0  0  0  0  0  0  0  0
   45.7580   30.0700   36.2260 H   0  0  0  0  0  0  0  0  0  0  0  0
   47.7120   29.7380   37.6770 H   0  0  0  0  0  0  0  0  0  0  0  0
   46.6450   34.3860   42.0680 N   0  0  0  0  0  0  0  0  0  0  0  0
   47.6620   35.2960   41.9140 C   0  0  0  0  0  0  0  0  0  0  0  0
   48.3840   35.3740   40.7510 C   0  0  0  0  0  0  0  0  0  0  0  0
   48.0460   34.4890   39.7200 C   0  0  0  0  0  0  0  0  0  0  0  0
   48.6830   34.5310   38.6410 O   0  0  0  0  0  0  0  0  0  0  0  0
   47.0470   33.6300   39.9350 N   0  0  0  0  0  0  0  0  0  0  0  0
   46.3570   33.5710   41.0750 C   0  0  0  0  0  0  0  0  0  0  0  0
   45.4300   32.8040   41.3300 O   0  0  0  0  0  0  0  0  0  0  0  0
   47.9770   36.0050   42.6600 H   0  0  0  0  0  0  0  0  0  0  0  0
   49.1870   36.0720   40.5900 H   0  0  0  0  0  0  0  0  0  0  0  0
   44.5640   35.6740   44.8520 C   0  0  0  0  0  0  0  0  0  0  0  0
   45.1540   35.5550   43.5640 C   0  0  0  0  0  0  0  0  0  0  0  0
   46.0470   34.5040   43.3720 C   0  0  0  0  0  0  0  0  0  0  0  0
   46.3330   33.6390   44.3840 N   0  0  0  0  0  0  0  0  0  0  0  0
   45.7400   33.7950   45.6040 C   0  0  0  0  0  0  0  0  0  0  0  0
   44.8710   34.7920   45.8410 N   0  0  0  0  0  0  0  0  0  0  0  0
   43.8650   36.4700   45.0520 H   0  0  0  0  0  0  0  0  0  0  0  0
   44.8870   36.2730   42.8010 H   0  0  0  0  0  0  0  0  0  0  0  0
   46.0740   33.0280   46.2910 H   0  0  0  0  0  0  0  0  0  0  0  0
   48.6080   31.2760   39.5740 N   0  0  0  0  0  0  0  0  0  0  0  0
   48.4810   30.8130   40.8490 C   0  0  0  0  0  0  0  0  0  0  0  0
   49.6760   30.5770   41.4460 N   0  0  0  0  0  0  0  0  0  0  0  0
   50.5940   30.9020   40.5150 C   0  0  0  0  0  0  0  0  0  0  0  0
   51.9820   30.9190   40.4100 C   0  0  0  0  0  0  0  0  0  0  0  0
   52.6050   31.3170   39.2920 N   0  0  0  0  0  0  0  0  0  0  0  0
   51.9070   31.7230   38.2090 C   0  0  0  0  0  0  0  0  0  0  0  0
   50.5500   31.7280   38.2540 N   0  0  0  0  0  0  0  0  0  0  0  0
   49.9380   31.3260   39.3810 C   0  0  0  0  0  0  0  0  0  0  0  0
   52.7060   30.4820   41.5770 N   0  0  0  0  0  0  0  0  0  0  0  0
   52.6490   29.4460   41.7980 H   0  0  0  0  0  0  0  0  0  0  0  0
   53.3050   30.9680   42.2980 H   0  0  0  0  0  0  0  0  0  0  0  0
  1 16  1  0  0  0  0
  2  7  1  0  0  0  0
  2  1  2  0  0  0  0
  3  2  1  0  0  0  0
  4  3  2  0  0  0  0
  4  5  1  0  0  0  0
  5  6  2  0  0  0  0
  6  1  1  0  0  0  0
  6 30  1  0  0  0  0
  8  3  1  0  0  0  0
  9  4  1  0  0  0  0
 10  5  1  0  0  0  0
 11 23  1  0  0  0  0
 12 11  1  0  0  0  0
 12 19  1  0  0  0  0
 13 12  2  0  0  0  0
 14 16  1  0  0  0  0
 14 13  1  0  0  0  0
 15 14  2  0  0  0  0
 16 17  1  0  0  0  0
 17 18  2  0  0  0  0
 17 11  1  0  0  0  0
 20 13  1  0  0  0  0
 21 27  1  0  0  0  0
 21 26  1  0  0  0  0
 22 21  2  0  0  0  0
 23 22  1  0  0  0  0
 23 24  2  0  0  0  0
 24 25  1  0  0  0  0
 25 26  2  0  0  0  0
 25 29  1  0  0  0  0
 28 22  1  0  0  0  0
 30 31  1  0  0  0  0
 31 32  2  0  0  0  0
 33 32  1  0  0  0  0
 34 33  1  0  0  0  0
 34 39  1  0  0  0  0
 35 34  2  0  0  0  0
 36 37  2  0  0  0  0
 36 35  1  0  0  0  0
 37 38  1  0  0  0  0
 38 30  1  0  0  0  0
 38 33  2  0  0  0  0
 39 40  1  0  0  0  0
 39 41  1  0  0  0  0
M  END
>  <minimizedAffinity>
-6.13287687

>  <minimizedRMSD>
1.87803006

$$$$
