
 OpenBabel03232521003D

 42 45  0  0  1  0  0  0  0  0999 V2000
   45.5120   32.8460   47.4980 C   0  0  0  0  0  0  0  0  0  0  0  0
   45.9650   32.6030   46.2390 C   0  0  0  0  0  0  0  0  0  0  0  0
   46.1340   31.2500   45.9330 C   0  0  0  0  0  0  0  0  0  0  0  0
   45.8710   30.2410   46.8030 N   0  0  0  0  0  0  0  0  0  0  0  0
   45.4100   30.5410   48.0760 C   0  0  0  0  0  0  0  0  0  0  0  0
   45.2440   31.8220   48.3880 N   0  0  0  0  0  0  0  0  0  0  0  0
   45.1360   29.5140   49.0090 N   0  0  0  0  0  0  0  0  0  0  0  0
   45.3510   33.8560   47.8410 H   0  0  0  0  0  0  0  0  0  0  0  0
   44.4040   29.6070   49.7290 H   0  0  0  0  0  0  0  0  0  0  0  0
   45.7180   28.6270   48.9480 H   0  0  0  0  0  0  0  0  0  0  0  0
   46.1960   33.5780   45.2270 C   0  0  2  0  0  0  0  0  0  0  0  0
   44.9720   34.6490   45.4830 C   0  0  0  0  0  0  0  0  0  0  0  0
   44.7250   35.5960   44.4310 C   0  0  0  0  0  0  0  0  0  0  0  0
   45.5220   35.5570   43.2030 C   0  0  1  0  0  0  0  0  0  0  0  0
   46.5940   34.5680   43.1310 C   0  0  0  0  0  0  0  0  0  0  0  0
   46.1610   33.3160   43.8580 C   0  0  0  0  0  0  0  0  0  0  0  0
   47.0090   34.2880   45.5650 H   0  0  0  0  0  0  0  0  0  0  0  0
   44.2970   34.7750   46.3200 H   0  0  0  0  0  0  0  0  0  0  0  0
   43.9460   36.3040   44.5570 H   0  0  0  0  0  0  0  0  0  0  0  0
   45.9390   36.5780   43.0170 H   0  0  0  0  0  0  0  0  0  0  0  0
   47.5770   34.9070   43.5330 H   0  0  0  0  0  0  0  0  0  0  0  0
   46.8090   34.3690   42.0400 H   0  0  0  0  0  0  0  0  0  0  0  0
   47.0240   32.6850   43.5140 H   0  0  0  0  0  0  0  0  0  0  0  0
   45.2120   32.9790   43.3930 H   0  0  0  0  0  0  0  0  0  0  0  0
   44.5090   35.2990   42.0480 C   0  0  0  0  0  0  0  0  0  0  0  0
   43.4420   34.5090   42.4410 F   0  0  0  0  0  0  0  0  0  0  0  0
   43.9780   36.5420   41.7130 F   0  0  0  0  0  0  0  0  0  0  0  0
   45.1820   34.8340   40.9340 F   0  0  0  0  0  0  0  0  0  0  0  0
   46.6510   30.5640   44.7640 C   0  0  0  0  0  0  0  0  0  0  0  0
   46.1910   29.9170   43.6640 C   0  0  0  0  0  0  0  0  0  0  0  0
   47.2920   29.4410   42.9390 C   0  0  0  0  0  0  0  0  0  0  0  0
   48.3620   29.8210   43.6350 N   0  0  0  0  0  0  0  0  0  0  0  0
   48.0120   30.4840   44.7130 N   0  0  0  0  0  0  0  0  0  0  0  0
   45.1140   29.8760   43.5320 H   0  0  0  0  0  0  0  0  0  0  0  0
   47.1380   28.8920   42.0220 H   0  0  0  0  0  0  0  0  0  0  0  0
   52.8830   30.0480   43.3410 H   0  0  0  0  0  0  0  0  0  0  0  0
   51.9020   29.7260   43.1530 N   0  0  0  0  0  0  0  0  0  0  0  0
   50.7780   30.1810   43.6990 N   0  0  0  0  0  0  0  0  0  0  0  0
   49.7030   29.5110   43.1990 C   0  0  0  0  0  0  0  0  0  0  0  0
   50.1820   28.5880   42.2930 C   0  0  0  0  0  3  0  0  0  0  0  0
   51.5550   28.7510   42.2910 C   0  0  0  0  0  0  0  0  0  0  0  0
   52.1710   28.1380   41.6570 H   0  0  0  0  0  0  0  0  0  0  0  0
  1  8  1  0  0  0  0
  1  6  1  0  0  0  0
  2  1  2  0  0  0  0
  3  2  1  0  0  0  0
  3  4  2  0  0  0  0
  4  5  1  0  0  0  0
  5  6  2  0  0  0  0
  5  7  1  0  0  0  0
  7  9  1  0  0  0  0
 10  7  1  0  0  0  0
 11 12  1  0  0  0  0
 11 17  1  1  0  0  0
 11  2  1  0  0  0  0
 12 18  1  0  0  0  0
 13 19  1  0  0  0  0
 13 12  2  0  0  0  0
 14 20  1  6  0  0  0
 14 13  1  0  0  0  0
 15 14  1  0  0  0  0
 15 21  1  0  0  0  0
 15 16  1  0  0  0  0
 16 11  1  0  0  0  0
 22 15  1  0  0  0  0
 23 16  1  0  0  0  0
 24 16  1  0  0  0  0
 25 26  1  0  0  0  0
 25 14  1  0  0  0  0
 27 25  1  0  0  0  0
 28 25  1  0  0  0  0
 29  3  1  0  0  0  0
 30 29  1  0  0  0  0
 31 32  1  0  0  0  0
 31 30  2  0  0  0  0
 32 33  1  0  0  0  0
 33 29  2  0  0  0  0
 34 30  1  0  0  0  0
 35 31  1  0  0  0  0
 37 36  1  0  0  0  0
 37 38  1  0  0  0  0
 39 32  1  0  0  0  0
 39 38  2  0  0  0  0
 40 39  1  0  0  0  0
 41 40  2  0  0  0  0
 41 37  1  0  0  0  0
 42 41  1  0  0  0  0
M  END
>  <minimizedAffinity>
-5.88770151

>  <minimizedRMSD>
0.231916681

$$$$
