
 OpenBabel03232515473D

 28 29  0  0  0  0  0  0  0  0999 V2000
   47.1690   34.3150   42.1000 C   0  0  0  0  0  0  0  0  0  0  0  0
   44.6060   36.2070   44.1870 C   0  0  0  0  0  0  0  0  0  0  0  0
   45.4430   35.8980   43.0970 C   0  0  0  0  0  0  0  0  0  0  0  0
   46.2450   34.7520   43.1780 C   0  0  0  0  0  0  0  0  0  0  0  0
   46.1620   34.0090   44.3080 N   0  0  0  0  0  0  0  0  0  0  0  0
   45.3540   34.3160   45.3490 C   0  0  0  0  0  0  0  0  0  0  0  0
   44.5770   35.4220   45.2790 N   0  0  0  0  0  0  0  0  0  0  0  0
   43.9900   37.0750   44.1420 H   0  0  0  0  0  0  0  0  0  0  0  0
   45.5020   36.4850   42.2140 H   0  0  0  0  0  0  0  0  0  0  0  0
   45.4260   33.6020   46.1640 H   0  0  0  0  0  0  0  0  0  0  0  0
   46.3400   34.1450   40.8390 C   0  0  0  0  0  0  0  0  0  0  0  0
   46.0510   35.1710   40.4720 H   0  0  0  0  0  0  0  0  0  0  0  0
   46.8690   33.6480   40.0200 H   0  0  0  0  0  0  0  0  0  0  0  0
   45.3680   33.6620   41.0770 H   0  0  0  0  0  0  0  0  0  0  0  0
   48.3140   35.2410   41.8670 C   0  0  0  0  0  0  0  0  0  0  0  0
   48.9610   35.2980   42.7430 H   0  0  0  0  0  0  0  0  0  0  0  0
   47.8650   36.2670   41.7260 H   0  0  0  0  0  0  0  0  0  0  0  0
   48.7910   34.9840   40.9160 H   0  0  0  0  0  0  0  0  0  0  0  0
   47.7070   32.9560   42.4580 C   0  0  0  0  0  0  0  0  0  0  0  0
   47.8690   32.9740   43.5700 H   0  0  0  0  0  0  0  0  0  0  0  0
   46.8640   32.2360   42.3160 H   0  0  0  0  0  0  0  0  0  0  0  0
   48.8910   32.5810   41.7540 N   0  0  0  0  0  0  0  0  0  0  0  0
   49.0180   32.1200   40.5120 N   0  0  0  0  0  0  0  0  0  0  0  0
   50.3270   31.8910   40.2520 C   0  0  0  0  0  0  0  0  0  0  0  0
   50.8100   31.5160   39.3460 H   0  0  0  0  0  0  0  0  0  0  0  0
   51.0700   32.2180   41.3650 C   0  0  0  0  0  0  0  0  0  0  0  0
   50.1290   32.6530   42.3020 C   0  0  0  0  0  0  0  0  0  0  0  0
   50.4430   32.9790   43.2930 H   0  0  0  0  0  0  0  0  0  0  0  0
  1 19  1  0  0  0  0
  1  4  1  0  0  0  0
  2  7  1  0  0  0  0
  3  4  1  0  0  0  0
  3  2  2  0  0  0  0
  4  5  2  0  0  0  0
  5  6  1  0  0  0  0
  6 10  1  0  0  0  0
  7  6  2  0  0  0  0
  8  2  1  0  0  0  0
  9  3  1  0  0  0  0
 11 14  1  0  0  0  0
 11  1  1  0  0  0  0
 12 11  1  0  0  0  0
 13 11  1  0  0  0  0
 15  1  1  0  0  0  0
 15 16  1  0  0  0  0
 17 15  1  0  0  0  0
 18 15  1  0  0  0  0
 19 20  1  0  0  0  0
 21 19  1  0  0  0  0
 22 27  1  0  0  0  0
 22 19  1  0  0  0  0
 23 22  1  0  0  0  0
 24 23  2  0  0  0  0
 24 26  1  0  0  0  0
 25 24  1  0  0  0  0
 26 27  2  0  0  0  0
 27 28  1  0  0  0  0
M  END
>  <minimizedAffinity>
-4.35514355

>  <minimizedRMSD>
0.644864023

$$$$
