
 OpenBabel03232521003D

 42 45  0  0  1  0  0  0  0  0999 V2000
   45.4110   32.8580   47.5120 C   0  0  0  0  0  0  0  0  0  0  0  0
   45.9330   32.6100   46.2810 C   0  0  0  0  0  0  0  0  0  0  0  0
   46.1630   31.2590   46.0090 C   0  0  0  0  0  0  0  0  0  0  0  0
   45.8930   30.2560   46.8830 N   0  0  0  0  0  0  0  0  0  0  0  0
   45.3610   30.5610   48.1280 C   0  0  0  0  0  0  0  0  0  0  0  0
   45.1360   31.8400   48.4070 N   0  0  0  0  0  0  0  0  0  0  0  0
   45.0770   29.5400   49.0650 N   0  0  0  0  0  0  0  0  0  0  0  0
   45.1990   33.8670   47.8280 H   0  0  0  0  0  0  0  0  0  0  0  0
   44.3080   29.6200   49.7470 H   0  0  0  0  0  0  0  0  0  0  0  0
   45.6910   28.6740   49.0480 H   0  0  0  0  0  0  0  0  0  0  0  0
   46.1800   33.5750   45.2640 C   0  0  2  0  0  0  0  0  0  0  0  0
   44.9620   34.6590   45.5030 C   0  0  0  0  0  0  0  0  0  0  0  0
   44.7300   35.5990   44.4420 C   0  0  0  0  0  0  0  0  0  0  0  0
   45.5370   35.5450   43.2200 C   0  0  1  0  0  0  0  0  0  0  0  0
   46.6010   34.5460   43.1640 C   0  0  0  0  0  0  0  0  0  0  0  0
   46.1520   33.3030   43.8970 C   0  0  0  0  0  0  0  0  0  0  0  0
   46.9960   34.2810   45.6020 H   0  0  0  0  0  0  0  0  0  0  0  0
   44.2820   34.7970   46.3340 H   0  0  0  0  0  0  0  0  0  0  0  0
   43.9570   36.3140   44.5580 H   0  0  0  0  0  0  0  0  0  0  0  0
   45.9630   36.5610   43.0300 H   0  0  0  0  0  0  0  0  0  0  0  0
   47.5830   34.8800   43.5700 H   0  0  0  0  0  0  0  0  0  0  0  0
   46.8210   34.3380   42.0750 H   0  0  0  0  0  0  0  0  0  0  0  0
   47.0120   32.6630   43.5640 H   0  0  0  0  0  0  0  0  0  0  0  0
   45.2030   32.9710   43.4270 H   0  0  0  0  0  0  0  0  0  0  0  0
   44.5300   35.2870   42.0600 C   0  0  0  0  0  0  0  0  0  0  0  0
   43.4630   34.4930   42.4460 F   0  0  0  0  0  0  0  0  0  0  0  0
   43.9960   36.5290   41.7250 F   0  0  0  0  0  0  0  0  0  0  0  0
   45.2080   34.8250   40.9490 F   0  0  0  0  0  0  0  0  0  0  0  0
   46.7600   30.5720   44.8790 C   0  0  0  0  0  0  0  0  0  0  0  0
   46.3760   29.8820   43.7750 C   0  0  0  0  0  0  0  0  0  0  0  0
   47.5270   29.4400   43.1090 C   0  0  0  0  0  0  0  0  0  0  0  0
   48.5490   29.8820   43.8400 N   0  0  0  0  0  0  0  0  0  0  0  0
   48.1230   30.5510   44.8870 N   0  0  0  0  0  0  0  0  0  0  0  0
   45.3090   29.7920   43.5980 H   0  0  0  0  0  0  0  0  0  0  0  0
   47.4370   28.8660   42.1990 H   0  0  0  0  0  0  0  0  0  0  0  0
   53.0100   29.2050   44.3020 H   0  0  0  0  0  0  0  0  0  0  0  0
   52.0760   29.3090   43.8360 N   0  0  0  0  0  0  0  0  0  0  0  0
   50.9020   29.5580   44.4100 N   0  0  0  0  0  0  0  0  0  0  0  0
   49.9190   29.6210   43.4690 C   0  0  0  0  0  0  0  0  0  0  0  0
   50.5110   29.4000   42.2440 C   0  0  0  0  0  3  0  0  0  0  0  0
   51.8550   29.2100   42.5100 C   0  0  0  0  0  0  0  0  0  0  0  0
   52.5430   29.0160   41.7080 H   0  0  0  0  0  0  0  0  0  0  0  0
  1  8  1  0  0  0  0
  1  6  1  0  0  0  0
  2  1  2  0  0  0  0
  3  2  1  0  0  0  0
  3  4  2  0  0  0  0
  4  5  1  0  0  0  0
  5  6  2  0  0  0  0
  5  7  1  0  0  0  0
  7  9  1  0  0  0  0
 10  7  1  0  0  0  0
 11 12  1  0  0  0  0
 11 17  1  1  0  0  0
 11  2  1  0  0  0  0
 12 18  1  0  0  0  0
 13 19  1  0  0  0  0
 13 12  2  0  0  0  0
 14 20  1  6  0  0  0
 14 13  1  0  0  0  0
 15 14  1  0  0  0  0
 15 21  1  0  0  0  0
 15 16  1  0  0  0  0
 16 11  1  0  0  0  0
 22 15  1  0  0  0  0
 23 16  1  0  0  0  0
 24 16  1  0  0  0  0
 25 26  1  0  0  0  0
 25 14  1  0  0  0  0
 27 25  1  0  0  0  0
 28 25  1  0  0  0  0
 29 33  2  0  0  0  0
 29  3  1  0  0  0  0
 30 29  1  0  0  0  0
 31 30  2  0  0  0  0
 31 32  1  0  0  0  0
 32 33  1  0  0  0  0
 34 30  1  0  0  0  0
 35 31  1  0  0  0  0
 37 36  1  0  0  0  0
 37 38  1  0  0  0  0
 39 32  1  0  0  0  0
 39 38  2  0  0  0  0
 40 41  2  0  0  0  0
 40 39  1  0  0  0  0
 41 37  1  0  0  0  0
 42 41  1  0  0  0  0
M  END
>  <minimizedAffinity>
-5.94230366

>  <minimizedRMSD>
0.0385622419

$$$$
