
 OpenBabel03232519423D

 50 54  0  0  0  0  0  0  0  0999 V2000
   46.5080   34.4840   41.5170 N   0  0  0  0  0  0  0  0  0  0  0  0
   47.7040   35.1790   41.4290 C   0  0  0  0  0  0  0  0  0  0  0  0
   48.4970   35.0880   40.3230 C   0  0  0  0  0  0  0  0  0  0  0  0
   48.0630   34.2680   39.2790 C   0  0  0  0  0  0  0  0  0  0  0  0
   48.7720   34.1750   38.2570 O   0  0  0  0  0  0  0  0  0  0  0  0
   46.8950   33.6160   39.4210 N   0  0  0  0  0  0  0  0  0  0  0  0
   46.1360   33.7270   40.5190 C   0  0  0  0  0  0  0  0  0  0  0  0
   45.0730   33.1740   40.7060 O   0  0  0  0  0  0  0  0  0  0  0  0
   48.0950   35.8270   42.2020 H   0  0  0  0  0  0  0  0  0  0  0  0
   49.4360   35.6160   40.2200 H   0  0  0  0  0  0  0  0  0  0  0  0
   44.3980   36.1200   44.0690 C   0  0  0  0  0  0  0  0  0  0  0  0
   45.0290   35.8620   42.8320 C   0  0  0  0  0  0  0  0  0  0  0  0
   45.8650   34.7480   42.7760 C   0  0  0  0  0  0  0  0  0  0  0  0
   46.0490   33.9680   43.8680 N   0  0  0  0  0  0  0  0  0  0  0  0
   45.4140   34.2660   45.0380 C   0  0  0  0  0  0  0  0  0  0  0  0
   44.6080   35.3130   45.1450 N   0  0  0  0  0  0  0  0  0  0  0  0
   43.7330   36.9780   44.1700 H   0  0  0  0  0  0  0  0  0  0  0  0
   44.8370   36.5220   42.0100 H   0  0  0  0  0  0  0  0  0  0  0  0
   45.6580   33.3990   46.1410 N   0  0  0  0  0  0  0  0  0  0  0  0
   45.1690   33.6330   47.3940 C   0  0  0  0  0  0  0  0  0  0  0  0
   45.5260   32.6780   48.2840 N   0  0  0  0  0  0  0  0  0  0  0  0
   46.2670   31.8070   47.5750 C   0  0  0  0  0  0  0  0  0  0  0  0
   46.9390   30.6150   47.8560 C   0  0  0  0  0  0  0  0  0  0  0  0
   47.6210   29.9430   46.9090 N   0  0  0  0  0  0  0  0  0  0  0  0
   47.6520   30.4360   45.6590 C   0  0  0  0  0  0  0  0  0  0  0  0
   47.0200   31.5810   45.3400 N   0  0  0  0  0  0  0  0  0  0  0  0
   46.3460   32.2490   46.2680 C   0  0  0  0  0  0  0  0  0  0  0  0
   46.8430   30.1760   49.2180 N   0  0  0  0  0  0  0  0  0  0  0  0
   46.4780   29.3520   49.7520 H   0  0  0  0  0  0  0  0  0  0  0  0
   47.2080   30.7540   50.0080 H   0  0  0  0  0  0  0  0  0  0  0  0
   46.4200   32.7680   38.4010 C   0  0  0  0  0  0  0  0  0  0  0  0
   45.6030   33.1800   37.3740 C   0  0  0  0  0  0  0  0  0  0  0  0
   45.1750   32.3020   36.4090 C   0  0  0  0  0  0  0  0  0  0  0  0
   45.5590   30.9790   36.4500 C   0  0  0  0  0  0  0  0  0  0  0  0
   46.3650   30.5940   37.4730 C   0  0  0  0  0  0  0  0  0  0  0  0
   46.8340   31.4430   38.4860 C   0  0  0  0  0  0  0  0  0  0  0  0
   45.3360   34.2280   37.3930 H   0  0  0  0  0  0  0  0  0  0  0  0
   44.5320   32.6560   35.6120 H   0  0  0  0  0  0  0  0  0  0  0  0
   45.2190   30.2910   35.6890 H   0  0  0  0  0  0  0  0  0  0  0  0
   46.6450   29.5290   37.4650 H   0  0  0  0  0  0  0  0  0  0  0  0
   47.7200   30.9150   39.5600 C   0  0  0  0  0  0  0  0  0  0  0  0
   47.8410   29.8160   39.2910 H   0  0  0  0  0  0  0  0  0  0  0  0
   49.0730   31.5300   39.6280 C   0  0  0  0  0  0  0  0  0  0  0  0
   49.3270   32.1200   40.5230 H   0  0  0  0  0  0  0  0  0  0  0  0
   49.6080   31.6840   38.7040 H   0  0  0  0  0  0  0  0  0  0  0  0
   49.7160   30.6230   39.9780 H   0  0  0  0  0  0  0  0  0  0  0  0
   47.1260   31.0050   40.9300 C   0  0  0  0  0  0  0  0  0  0  0  0
   47.6210   31.6990   41.6340 H   0  0  0  0  0  0  0  0  0  0  0  0
   46.0880   30.7620   41.0520 H   0  0  0  0  0  0  0  0  0  0  0  0
   47.5580   30.0550   41.4430 H   0  0  0  0  0  0  0  0  0  0  0  0
  1 13  1  0  0  0  0
  2  1  1  0  0  0  0
  2  9  1  0  0  0  0
  3  2  2  0  0  0  0
  4  6  1  0  0  0  0
  4  3  1  0  0  0  0
  5  4  2  0  0  0  0
  6  7  1  0  0  0  0
  7  8  2  0  0  0  0
  7  1  1  0  0  0  0
 10  3  1  0  0  0  0
 11 17  1  0  0  0  0
 11 16  1  0  0  0  0
 12 11  2  0  0  0  0
 13 12  1  0  0  0  0
 13 14  2  0  0  0  0
 14 15  1  0  0  0  0
 15 16  2  0  0  0  0
 15 19  1  0  0  0  0
 18 12  1  0  0  0  0
 19 27  1  0  0  0  0
 19 20  1  0  0  0  0
 20 21  2  0  0  0  0
 22 23  1  0  0  0  0
 22 21  1  0  0  0  0
 23 28  1  0  0  0  0
 24 23  2  0  0  0  0
 25 24  1  0  0  0  0
 26 25  2  0  0  0  0
 26 27  1  0  0  0  0
 27 22  2  0  0  0  0
 28 29  1  0  0  0  0
 28 30  1  0  0  0  0
 31 36  1  0  0  0  0
 31  6  1  0  0  0  0
 32 37  1  0  0  0  0
 32 31  2  0  0  0  0
 33 34  2  0  0  0  0
 33 32  1  0  0  0  0
 34 35  1  0  0  0  0
 35 36  2  0  0  0  0
 36 41  1  0  0  0  0
 38 33  1  0  0  0  0
 39 34  1  0  0  0  0
 40 35  1  0  0  0  0
 41 43  1  0  0  0  0
 41 47  1  0  0  0  0
 42 41  1  0  0  0  0
 43 46  1  0  0  0  0
 43 44  1  0  0  0  0
 45 43  1  0  0  0  0
 47 49  1  0  0  0  0
 47 50  1  0  0  0  0
 47 48  1  0  0  0  0
M  END
>  <minimizedAffinity>
-6.9570365

>  <minimizedRMSD>
0.503913581

$$$$
