
 OpenBabel03232520593D

 42 45  0  0  1  0  0  0  0  0999 V2000
   45.5010   32.8480   47.5120 C   0  0  0  0  0  0  0  0  0  0  0  0
   45.9590   32.6040   46.2550 C   0  0  0  0  0  0  0  0  0  0  0  0
   46.1280   31.2510   45.9500 C   0  0  0  0  0  0  0  0  0  0  0  0
   45.8610   30.2430   46.8190 N   0  0  0  0  0  0  0  0  0  0  0  0
   45.3960   30.5430   48.0910 C   0  0  0  0  0  0  0  0  0  0  0  0
   45.2290   31.8240   48.4020 N   0  0  0  0  0  0  0  0  0  0  0  0
   45.1190   29.5160   49.0230 N   0  0  0  0  0  0  0  0  0  0  0  0
   45.3390   33.8580   47.8540 H   0  0  0  0  0  0  0  0  0  0  0  0
   44.3830   29.6100   49.7400 H   0  0  0  0  0  0  0  0  0  0  0  0
   45.7000   28.6290   48.9640 H   0  0  0  0  0  0  0  0  0  0  0  0
   46.1940   33.5780   45.2440 C   0  0  2  0  0  0  0  0  0  0  0  0
   44.9670   34.6490   45.4920 C   0  0  0  0  0  0  0  0  0  0  0  0
   44.7240   35.5940   44.4380 C   0  0  0  0  0  0  0  0  0  0  0  0
   45.5280   35.5560   43.2150 C   0  0  1  0  0  0  0  0  0  0  0  0
   46.6010   34.5680   43.1490 C   0  0  0  0  0  0  0  0  0  0  0  0
   46.1660   33.3160   43.8750 C   0  0  0  0  0  0  0  0  0  0  0  0
   47.0040   34.2900   45.5850 H   0  0  0  0  0  0  0  0  0  0  0  0
   44.2870   34.7740   46.3260 H   0  0  0  0  0  0  0  0  0  0  0  0
   43.9440   36.3010   44.5610 H   0  0  0  0  0  0  0  0  0  0  0  0
   45.9440   36.5770   43.0310 H   0  0  0  0  0  0  0  0  0  0  0  0
   47.5810   34.9080   43.5560 H   0  0  0  0  0  0  0  0  0  0  0  0
   46.8220   34.3690   42.0590 H   0  0  0  0  0  0  0  0  0  0  0  0
   47.0310   32.6860   43.5360 H   0  0  0  0  0  0  0  0  0  0  0  0
   45.2200   32.9770   43.4050 H   0  0  0  0  0  0  0  0  0  0  0  0
   44.5210   35.2960   42.0550 C   0  0  0  0  0  0  0  0  0  0  0  0
   43.4510   34.5080   42.4440 F   0  0  0  0  0  0  0  0  0  0  0  0
   43.9930   36.5380   41.7140 F   0  0  0  0  0  0  0  0  0  0  0  0
   45.1990   34.8270   40.9460 F   0  0  0  0  0  0  0  0  0  0  0  0
   46.6500   30.5640   44.7840 C   0  0  0  0  0  0  0  0  0  0  0  0
   46.1930   29.9210   43.6790 C   0  0  0  0  0  0  0  0  0  0  0  0
   47.2960   29.4410   42.9610 C   0  0  0  0  0  0  0  0  0  0  0  0
   48.3640   29.8160   43.6630 N   0  0  0  0  0  0  0  0  0  0  0  0
   48.0100   30.4780   44.7400 N   0  0  0  0  0  0  0  0  0  0  0  0
   45.1170   29.8850   43.5410 H   0  0  0  0  0  0  0  0  0  0  0  0
   47.1460   28.8940   42.0420 H   0  0  0  0  0  0  0  0  0  0  0  0
   52.9000   29.7010   43.6690 H   0  0  0  0  0  0  0  0  0  0  0  0
   51.9130   29.5230   43.3580 N   0  0  0  0  0  0  0  0  0  0  0  0
   50.7890   29.9330   43.9390 N   0  0  0  0  0  0  0  0  0  0  0  0
   49.7060   29.5000   43.2350 C   0  0  0  0  0  0  0  0  0  0  0  0
   50.1800   28.7810   42.1580 C   0  0  0  0  0  3  0  0  0  0  0  0
   51.5580   28.8170   42.2670 C   0  0  0  0  0  0  0  0  0  0  0  0
   52.1710   28.3220   41.5350 H   0  0  0  0  0  0  0  0  0  0  0  0
  1  8  1  0  0  0  0
  1  6  1  0  0  0  0
  2  1  2  0  0  0  0
  3  2  1  0  0  0  0
  3  4  2  0  0  0  0
  4  5  1  0  0  0  0
  5  6  2  0  0  0  0
  5  7  1  0  0  0  0
  7  9  1  0  0  0  0
 10  7  1  0  0  0  0
 11 12  1  0  0  0  0
 11 17  1  1  0  0  0
 11  2  1  0  0  0  0
 12 18  1  0  0  0  0
 13 19  1  0  0  0  0
 13 12  2  0  0  0  0
 14 20  1  6  0  0  0
 14 13  1  0  0  0  0
 15 14  1  0  0  0  0
 15 21  1  0  0  0  0
 15 16  1  0  0  0  0
 16 11  1  0  0  0  0
 22 15  1  0  0  0  0
 23 16  1  0  0  0  0
 24 16  1  0  0  0  0
 25 26  1  0  0  0  0
 25 14  1  0  0  0  0
 27 25  1  0  0  0  0
 28 25  1  0  0  0  0
 29  3  1  0  0  0  0
 30 29  1  0  0  0  0
 31 32  1  0  0  0  0
 31 30  2  0  0  0  0
 32 33  1  0  0  0  0
 33 29  2  0  0  0  0
 34 30  1  0  0  0  0
 35 31  1  0  0  0  0
 37 36  1  0  0  0  0
 37 38  1  0  0  0  0
 39 32  1  0  0  0  0
 39 38  2  0  0  0  0
 40 41  2  0  0  0  0
 40 39  1  0  0  0  0
 41 37  1  0  0  0  0
 42 41  1  0  0  0  0
M  END
>  <minimizedAffinity>
-5.88833618

>  <minimizedRMSD>
0.215242222

$$$$
