
 OpenBabel03232517203D

 35 39  0  0  0  0  0  0  0  0999 V2000
   44.1160   35.1640   44.1610 C   0  0  0  0  0  0  0  0  0  0  0  0
   44.4860   34.3770   43.0530 C   0  0  0  0  0  0  0  0  0  0  0  0
   45.5170   33.4610   43.2150 C   0  0  0  0  0  0  0  0  0  0  0  0
   46.1070   33.3810   44.4450 N   0  0  0  0  0  0  0  0  0  0  0  0
   45.7310   34.1430   45.4790 C   0  0  0  0  0  0  0  0  0  0  0  0
   44.7470   35.0270   45.3480 N   0  0  0  0  0  0  0  0  0  0  0  0
   43.3160   35.8840   44.0600 H   0  0  0  0  0  0  0  0  0  0  0  0
   46.2520   34.0190   46.4300 H   0  0  0  0  0  0  0  0  0  0  0  0
   45.8710   32.6860   42.0930 N   0  0  0  0  0  0  0  0  0  0  0  0
   45.5300   31.4820   41.6010 C   0  0  0  0  0  0  0  0  0  0  0  0
   46.1930   31.2260   40.4620 N   0  0  0  0  0  0  0  0  0  0  0  0
   46.9840   32.2800   40.1980 C   0  0  0  0  0  0  0  0  0  0  0  0
   47.8710   32.5240   39.1480 C   0  0  0  0  0  0  0  0  0  0  0  0
   48.0620   31.7160   38.2290 O   0  0  0  0  0  0  0  0  0  0  0  0
   48.5630   33.6750   39.1030 N   0  0  0  0  0  0  0  0  0  0  0  0
   48.3570   34.5480   40.0970 C   0  0  0  0  0  0  0  0  0  0  0  0
   49.0250   35.7950   40.1620 N   0  0  0  0  0  0  0  0  0  0  0  0
   47.5060   34.3220   41.1100 N   0  0  0  0  0  0  0  0  0  0  0  0
   46.7810   33.1890   41.2170 C   0  0  0  0  0  0  0  0  0  0  0  0
   44.8050   30.8790   42.1350 H   0  0  0  0  0  0  0  0  0  0  0  0
   49.2300   33.9210   38.3640 H   0  0  0  0  0  0  0  0  0  0  0  0
   49.9500   35.7050   40.6700 H   0  0  0  0  0  0  0  0  0  0  0  0
   48.5210   36.5780   39.7170 H   0  0  0  0  0  0  0  0  0  0  0  0
   43.7570   34.5970   41.8380 N   0  0  0  0  0  0  0  0  0  0  0  0
   43.8570   35.5810   40.9100 C   0  0  0  0  0  0  0  0  0  0  0  0
   42.9390   35.3450   39.9320 N   0  0  0  0  0  0  0  0  0  0  0  0
   42.2850   34.2360   40.2500 C   0  0  0  0  0  0  0  0  0  0  0  0
   41.2790   33.5230   39.6700 C   0  0  0  0  0  0  0  0  0  0  0  0
   40.7920   32.3890   40.2370 N   0  0  0  0  0  0  0  0  0  0  0  0
   41.2660   31.9100   41.3900 C   0  0  0  0  0  0  0  0  0  0  0  0
   42.2510   32.6250   41.9420 N   0  0  0  0  0  0  0  0  0  0  0  0
   42.7690   33.7520   41.4230 C   0  0  0  0  0  0  0  0  0  0  0  0
   40.6810   33.9050   38.4540 N   0  0  0  0  0  0  0  0  0  0  0  0
   40.0270   34.6900   38.7480 H   0  0  0  0  0  0  0  0  0  0  0  0
   40.5290   33.8370   37.4240 H   0  0  0  0  0  0  0  0  0  0  0  0
  1  6  1  0  0  0  0
  2  3  1  0  0  0  0
  2  1  2  0  0  0  0
  3  4  2  0  0  0  0
  4  5  1  0  0  0  0
  5  8  1  0  0  0  0
  6  5  2  0  0  0  0
  7  1  1  0  0  0  0
  9  3  1  0  0  0  0
 10  9  1  0  0  0  0
 10 20  1  0  0  0  0
 11 10  2  0  0  0  0
 12 11  1  0  0  0  0
 12 19  2  0  0  0  0
 13 12  1  0  0  0  0
 14 13  2  0  0  0  0
 15 13  1  0  0  0  0
 15 16  1  0  0  0  0
 16 17  1  0  0  0  0
 16 18  2  0  0  0  0
 17 22  1  0  0  0  0
 18 19  1  0  0  0  0
 19  9  1  0  0  0  0
 21 15  1  0  0  0  0
 23 17  1  0  0  0  0
 24  2  1  0  0  0  0
 25 24  1  0  0  0  0
 26 27  1  0  0  0  0
 26 25  2  0  0  0  0
 27 32  1  0  0  0  0
 28 29  1  0  0  0  0
 28 27  2  0  0  0  0
 29 30  2  0  0  0  0
 30 31  1  0  0  0  0
 32 24  1  0  0  0  0
 32 31  2  0  0  0  0
 33 34  1  0  0  0  0
 33 28  1  0  0  0  0
 35 33  1  0  0  0  0
M  END
>  <minimizedAffinity>
-5.39163351

>  <minimizedRMSD>
2.75215435

$$$$
