
 OpenBabel03232519153D

 38 41  0  0  1  0  0  0  0  0999 V2000
   44.4660   35.5050   43.4700 C   0  0  1  0  0  0  0  0  0  0  0  0
   43.5770   35.3640   44.1350 H   0  0  0  0  0  0  0  0  0  0  0  0
   45.4820   34.5220   43.8750 C   0  0  0  0  0  0  0  0  0  0  0  0
   46.5200   34.2310   42.9530 C   0  0  0  0  0  0  0  0  0  0  0  0
   47.5110   33.2980   43.3100 C   0  0  0  0  0  0  0  0  0  0  0  0
   47.4020   32.7320   44.5350 N   0  0  0  0  0  0  0  0  0  0  0  0
   46.4240   33.0230   45.3740 C   0  0  0  0  0  0  0  0  0  0  0  0
   45.4590   33.9100   45.0660 N   0  0  0  0  0  0  0  0  0  0  0  0
   46.5750   34.7020   41.9810 H   0  0  0  0  0  0  0  0  0  0  0  0
   48.3190   33.0450   42.6370 H   0  0  0  0  0  0  0  0  0  0  0  0
   46.3130   32.4180   46.7190 C   0  0  0  0  0  0  0  0  0  0  0  0
   47.3650   31.5330   47.0960 C   0  0  0  0  0  0  0  0  0  0  0  0
   46.7750   31.0730   48.8220 S   0  0  0  0  0  0  0  0  0  0  0  0
   45.2510   32.1650   48.6570 C   0  0  0  0  0  0  0  0  0  0  0  0
   45.3890   32.5780   47.6350 N   0  0  0  0  0  0  0  0  0  0  0  0
   48.2220   31.2050   46.6090 H   0  0  0  0  0  0  0  0  0  0  0  0
   44.3740   32.3970   49.3660 H   0  0  0  0  0  0  0  0  0  0  0  0
   44.9630   36.9200   43.6860 C   0  0  0  0  0  0  0  0  0  0  0  0
   45.5260   36.9650   44.6220 H   0  0  0  0  0  0  0  0  0  0  0  0
   45.5820   37.2820   42.8370 H   0  0  0  0  0  0  0  0  0  0  0  0
   44.0490   37.5560   43.8130 H   0  0  0  0  0  0  0  0  0  0  0  0
   44.0280   35.3530   42.0550 C   0  0  0  0  0  0  0  0  0  0  0  0
   44.8200   34.8800   41.4440 H   0  0  0  0  0  0  0  0  0  0  0  0
   43.9170   36.3990   41.6460 H   0  0  0  0  0  0  0  0  0  0  0  0
   42.7360   34.7390   41.9190 N   0  0  0  0  0  0  0  0  0  0  0  0
   42.3630   34.3080   42.7890 H   0  0  0  0  0  0  0  0  0  0  0  0
   42.1120   34.7740   40.6540 C   0  0  0  0  0  0  0  0  0  0  0  0
   42.6800   35.3520   39.6040 N   0  0  0  0  0  0  0  0  0  0  0  0
   42.1180   35.4080   38.3840 C   0  0  0  0  0  0  0  0  0  0  0  0
   40.9050   34.8610   38.1460 N   0  0  0  0  0  0  0  0  0  0  0  0
   40.2450   34.2470   39.1580 C   0  0  0  0  0  0  0  0  0  0  0  0
   39.0040   33.6770   38.9510 C   0  0  0  0  0  0  0  0  0  0  0  0
   38.3350   33.0520   39.9830 C   0  0  0  0  0  0  0  0  0  0  0  0
   37.3630   32.6070   39.8210 H   0  0  0  0  0  0  0  0  0  0  0  0
   38.9410   33.0140   41.2230 C   0  0  0  0  0  0  0  0  0  0  0  0
   38.4140   32.5200   42.0450 H   0  0  0  0  0  0  0  0  0  0  0  0
   40.1810   33.5940   41.3910 C   0  0  0  0  0  0  0  0  0  0  0  0
   40.8770   34.2260   40.3820 C   0  0  0  0  0  0  0  0  0  0  0  0
  1 18  1  0  0  0  0
  1  3  1  0  0  0  0
  1  2  1  1  0  0  0
  3  8  1  0  0  0  0
  4  5  1  0  0  0  0
  4  3  2  0  0  0  0
  5  6  2  0  0  0  0
  6  7  1  0  0  0  0
  7 11  1  0  0  0  0
  8  7  2  0  0  0  0
  9  4  1  0  0  0  0
 10  5  1  0  0  0  0
 11 12  2  0  0  0  0
 11 15  1  0  0  0  0
 12 13  1  0  0  0  0
 14 13  1  0  0  0  0
 14 17  1  0  0  0  0
 15 14  2  0  0  0  0
 16 12  1  0  0  0  0
 18 21  1  0  0  0  0
 18 19  1  0  0  0  0
 20 18  1  0  0  0  0
 22  1  1  0  0  0  0
 23 22  1  0  0  0  0
 24 22  1  0  0  0  0
 25 22  1  0  0  0  0
 25 26  1  0  0  0  0
 27 25  1  0  0  0  0
 28 27  2  0  0  0  0
 29 28  1  0  0  0  0
 30 29  2  0  0  0  0
 30 31  1  0  0  0  0
 31 38  1  0  0  0  0
 32 31  2  0  0  0  0
 32 33  1  0  0  0  0
 33 35  2  0  0  0  0
 34 33  1  0  0  0  0
 35 37  1  0  0  0  0
 35 36  1  0  0  0  0
 38 27  1  0  0  0  0
 38 37  2  0  0  0  0
M  END
>  <minimizedAffinity>
-6.76994085

>  <minimizedRMSD>
1.36253154

$$$$
