
 OpenBabel03232517413D

 38 41  0  0  0  0  0  0  0  0999 V2000
   42.9790   33.9980   41.4390 C   0  0  0  0  0  0  0  0  0  0  0  0
   42.9360   33.5200   40.1300 C   0  0  0  0  0  0  0  0  0  0  0  0
   43.7000   32.3860   39.8660 C   0  0  0  0  0  0  0  0  0  0  0  0
   44.4300   31.8160   40.8740 N   0  0  0  0  0  0  0  0  0  0  0  0
   44.4280   32.3190   42.0990 C   0  0  0  0  0  0  0  0  0  0  0  0
   43.7050   33.4120   42.3920 N   0  0  0  0  0  0  0  0  0  0  0  0
   42.4190   34.8700   41.7300 H   0  0  0  0  0  0  0  0  0  0  0  0
   45.0660   31.7250   42.7410 H   0  0  0  0  0  0  0  0  0  0  0  0
   43.6740   31.8740   38.5270 N   0  0  0  0  0  0  0  0  0  0  0  0
   44.5290   32.4270   37.6150 C   0  0  0  0  0  0  0  0  0  0  0  0
   44.4910   31.9270   36.3440 C   0  0  0  0  0  0  0  0  0  0  0  0
   43.6380   30.9040   35.9620 C   0  0  0  0  0  0  0  0  0  0  0  0
   43.6620   30.5020   34.7830 O   0  0  0  0  0  0  0  0  0  0  0  0
   42.8120   30.3890   36.8990 N   0  0  0  0  0  0  0  0  0  0  0  0
   42.8460   30.8770   38.1460 C   0  0  0  0  0  0  0  0  0  0  0  0
   42.0660   30.3730   38.9790 O   0  0  0  0  0  0  0  0  0  0  0  0
   45.1920   33.2230   37.9170 H   0  0  0  0  0  0  0  0  0  0  0  0
   42.1630   29.6130   36.6070 H   0  0  0  0  0  0  0  0  0  0  0  0
   45.4330   32.5390   35.3450 C   0  0  0  0  0  0  0  0  0  0  0  0
   45.5880   33.5960   35.6000 H   0  0  0  0  0  0  0  0  0  0  0  0
   44.8950   32.4950   34.3690 H   0  0  0  0  0  0  0  0  0  0  0  0
   46.3710   31.9590   35.2480 H   0  0  0  0  0  0  0  0  0  0  0  0
   42.1480   34.2060   39.2020 N   0  0  0  0  0  0  0  0  0  0  0  0
   42.6390   35.1710   38.4880 N   0  0  0  0  0  0  0  0  0  0  0  0
   41.6620   35.6650   37.6700 C   0  0  0  0  0  0  0  0  0  0  0  0
   40.5300   34.9060   37.9560 C   0  0  0  0  0  0  0  0  0  0  0  0
   40.8640   33.9710   38.9470 C   0  0  0  0  0  0  0  0  0  0  0  0
   41.7570   36.4730   36.9560 H   0  0  0  0  0  0  0  0  0  0  0  0
   39.6030   35.0900   37.4430 H   0  0  0  0  0  0  0  0  0  0  0  0
   39.9410   33.0500   39.4610 N   0  0  0  0  0  0  0  0  0  0  0  0
   39.5350   31.8540   38.9970 C   0  0  0  0  0  0  0  0  0  0  0  0
   38.6010   31.1000   39.6760 C   0  0  0  0  0  0  0  0  0  0  0  0
   38.0420   31.5430   40.8660 C   0  0  0  0  0  0  0  0  0  0  0  0
   37.1910   30.8200   41.4530 O   0  0  0  0  0  0  0  0  0  0  0  0
   38.4690   32.7410   41.3030 N   0  0  0  0  0  0  0  0  0  0  0  0
   39.3810   33.4710   40.6350 C   0  0  0  0  0  0  0  0  0  0  0  0
   39.6630   34.5810   41.2020 O   0  0  0  0  0  0  0  0  0  0  0  0
   38.0360   33.0580   42.2020 H   0  0  0  0  0  0  0  0  0  0  0  0
  1  7  1  0  0  0  0
  1  6  1  0  0  0  0
  2  1  2  0  0  0  0
  3  2  1  0  0  0  0
  3  4  2  0  0  0  0
  4  5  1  0  0  0  0
  5  6  2  0  0  0  0
  5  8  1  0  0  0  0
  9  3  1  0  0  0  0
 10 17  1  0  0  0  0
 10  9  1  0  0  0  0
 11 10  2  0  0  0  0
 12 11  1  0  0  0  0
 12 14  1  0  0  0  0
 13 12  2  0  0  0  0
 14 15  1  0  0  0  0
 15  9  1  0  0  0  0
 15 16  2  0  0  0  0
 18 14  1  0  0  0  0
 19 20  1  0  0  0  0
 19 11  1  0  0  0  0
 21 19  1  0  0  0  0
 22 19  1  0  0  0  0
 23  2  1  0  0  0  0
 24 23  1  0  0  0  0
 25 26  1  0  0  0  0
 25 24  2  0  0  0  0
 26 27  2  0  0  0  0
 27 23  1  0  0  0  0
 27 30  1  0  0  0  0
 28 25  1  0  0  0  0
 29 26  1  0  0  0  0
 30 36  1  0  0  0  0
 31 30  1  0  0  0  0
 31 32  2  0  0  0  0
 32 33  1  0  0  0  0
 33 35  1  0  0  0  0
 33 34  2  0  0  0  0
 35 38  1  0  0  0  0
 36 37  2  0  0  0  0
 36 35  1  0  0  0  0
M  END
>  <minimizedAffinity>
-5.31419516

>  <minimizedRMSD>
4.26109648

$$$$
