
 OpenBabel03232521013D

 42 45  0  0  1  0  0  0  0  0999 V2000
   45.3480   32.9150   47.4850 C   0  0  0  0  0  0  0  0  0  0  0  0
   45.9070   32.6600   46.2720 C   0  0  0  0  0  0  0  0  0  0  0  0
   46.1890   31.3130   46.0340 C   0  0  0  0  0  0  0  0  0  0  0  0
   45.9320   30.3200   46.9240 N   0  0  0  0  0  0  0  0  0  0  0  0
   45.3590   30.6300   48.1480 C   0  0  0  0  0  0  0  0  0  0  0  0
   45.0850   31.9070   48.3960 N   0  0  0  0  0  0  0  0  0  0  0  0
   45.0870   29.6190   49.0980 N   0  0  0  0  0  0  0  0  0  0  0  0
   45.0940   33.9230   47.7750 H   0  0  0  0  0  0  0  0  0  0  0  0
   44.5050   28.7980   48.8250 H   0  0  0  0  0  0  0  0  0  0  0  0
   45.4570   29.6750   50.0700 H   0  0  0  0  0  0  0  0  0  0  0  0
   46.1470   33.6130   45.2430 C   0  0  2  0  0  0  0  0  0  0  0  0
   44.9430   34.7080   45.4870 C   0  0  0  0  0  0  0  0  0  0  0  0
   44.7010   35.6380   44.4200 C   0  0  0  0  0  0  0  0  0  0  0  0
   45.4900   35.5650   43.1860 C   0  0  1  0  0  0  0  0  0  0  0  0
   46.5470   34.5610   43.1280 C   0  0  0  0  0  0  0  0  0  0  0  0
   46.1010   33.3280   43.8800 C   0  0  0  0  0  0  0  0  0  0  0  0
   46.9870   34.3020   45.5620 H   0  0  0  0  0  0  0  0  0  0  0  0
   44.2750   34.8630   46.3250 H   0  0  0  0  0  0  0  0  0  0  0  0
   43.9360   36.3610   44.5390 H   0  0  0  0  0  0  0  0  0  0  0  0
   45.9150   36.5720   42.9810 H   0  0  0  0  0  0  0  0  0  0  0  0
   47.5310   34.9220   43.5320 H   0  0  0  0  0  0  0  0  0  0  0  0
   46.7780   34.3500   42.0470 H   0  0  0  0  0  0  0  0  0  0  0  0
   45.1450   32.9860   43.4290 H   0  0  0  0  0  0  0  0  0  0  0  0
   46.9510   32.6770   43.5400 H   0  0  0  0  0  0  0  0  0  0  0  0
   44.4650   35.3020   42.0430 C   0  0  0  0  0  0  0  0  0  0  0  0
   43.4050   34.5110   42.4500 F   0  0  0  0  0  0  0  0  0  0  0  0
   43.9250   36.5420   41.7100 F   0  0  0  0  0  0  0  0  0  0  0  0
   45.1280   34.8350   40.9250 F   0  0  0  0  0  0  0  0  0  0  0  0
   46.8360   30.6240   44.9340 C   0  0  0  0  0  0  0  0  0  0  0  0
   46.5150   29.8190   43.8890 C   0  0  0  0  0  0  0  0  0  0  0  0
   47.6930   29.4740   43.2180 C   0  0  0  0  0  0  0  0  0  0  0  0
   48.6720   30.0860   43.8850 N   0  0  0  0  0  0  0  0  0  0  0  0
   48.1920   30.7670   44.8990 N   0  0  0  0  0  0  0  0  0  0  0  0
   45.4700   29.5870   43.7510 H   0  0  0  0  0  0  0  0  0  0  0  0
   47.6580   28.8320   42.3480 H   0  0  0  0  0  0  0  0  0  0  0  0
   50.0540   29.9700   43.4920 C   0  0  0  0  0  0  0  0  0  0  0  0
   50.5260   30.4700   42.3100 C   0  0  0  0  0  3  0  0  0  0  0  0
   51.8920   30.2660   42.0950 C   0  0  0  0  0  0  0  0  0  0  0  0
   52.3370   30.6350   41.1790 H   0  0  0  0  0  0  0  0  0  0  0  0
   52.7160   29.6380   42.9470 N   0  0  0  0  0  0  0  0  0  0  0  0
   52.2150   29.1680   44.0830 C   0  0  0  0  0  3  0  0  0  0  0  0
   50.9010   29.3400   44.3390 N   0  0  0  0  0  0  0  0  0  0  0  0
  1  8  1  0  0  0  0
  1  6  1  0  0  0  0
  2  1  2  0  0  0  0
  3  2  1  0  0  0  0
  3  4  2  0  0  0  0
  4  5  1  0  0  0  0
  5  6  2  0  0  0  0
  5  7  1  0  0  0  0
  7 10  1  0  0  0  0
  9  7  1  0  0  0  0
 11 12  1  0  0  0  0
 11 17  1  1  0  0  0
 11  2  1  0  0  0  0
 12 18  1  0  0  0  0
 13 19  1  0  0  0  0
 13 12  2  0  0  0  0
 14 20  1  6  0  0  0
 14 13  1  0  0  0  0
 15 14  1  0  0  0  0
 15 21  1  0  0  0  0
 15 16  1  0  0  0  0
 16 11  1  0  0  0  0
 22 15  1  0  0  0  0
 23 16  1  0  0  0  0
 24 16  1  0  0  0  0
 25 26  1  0  0  0  0
 25 14  1  0  0  0  0
 27 25  1  0  0  0  0
 28 25  1  0  0  0  0
 29  3  1  0  0  0  0
 30 29  1  0  0  0  0
 31 32  1  0  0  0  0
 31 30  2  0  0  0  0
 32 33  1  0  0  0  0
 33 29  2  0  0  0  0
 34 30  1  0  0  0  0
 35 31  1  0  0  0  0
 36 32  1  0  0  0  0
 36 42  1  0  0  0  0
 37 36  2  0  0  0  0
 38 37  1  0  0  0  0
 38 40  2  0  0  0  0
 39 38  1  0  0  0  0
 40 41  1  0  0  0  0
 41 42  2  0  0  0  0
M  END
>  <minimizedAffinity>
-5.82775497

>  <minimizedRMSD>
0.334676713

$$$$
