
 OpenBabel03232520373D

 19 20  0  0  0  0  0  0  0  0999 V2000
   43.7610   35.3390   42.1800 C   0  0  0  0  0  0  0  0  0  0  0  0
   43.4870   34.4500   41.1200 C   0  0  0  0  0  0  0  0  0  0  0  0
   43.9120   33.1340   41.2450 C   0  0  0  0  0  0  0  0  0  0  0  0
   44.5720   32.7330   42.3690 N   0  0  0  0  0  0  0  0  0  0  0  0
   44.8150   33.6250   43.3670 C   0  0  0  0  0  0  0  0  0  0  0  0
   44.4210   34.8960   43.2800 N   0  0  0  0  0  0  0  0  0  0  0  0
   43.4020   36.3410   42.0140 H   0  0  0  0  0  0  0  0  0  0  0  0
   43.7180   32.4330   40.4540 H   0  0  0  0  0  0  0  0  0  0  0  0
   45.4920   33.3150   44.5760 N   0  0  0  0  0  0  0  0  0  0  0  0
   46.2470   32.1960   44.5120 C   0  0  0  0  0  0  0  0  0  0  0  0
   46.9810   31.7390   45.6010 C   0  0  0  0  0  0  0  0  0  0  0  0
   46.9050   32.4880   46.7670 C   0  0  0  0  0  0  0  0  0  0  0  0
   47.5500   32.1120   47.7700 O   0  0  0  0  0  0  0  0  0  0  0  0
   46.1400   33.5930   46.7760 N   0  0  0  0  0  0  0  0  0  0  0  0
   45.4370   34.0130   45.6990 C   0  0  0  0  0  0  0  0  0  0  0  0
   44.7150   35.0510   45.7000 O   0  0  0  0  0  0  0  0  0  0  0  0
   46.0770   34.1720   47.6640 H   0  0  0  0  0  0  0  0  0  0  0  0
   42.6120   35.0170   39.6530 S   0  0  0  0  0  0  0  0  0  0  0  0
   41.2940   34.5340   39.6670 H   0  0  0  0  0  0  0  0  0  0  0  0
  1  6  1  0  0  0  0
  2  3  1  0  0  0  0
  2  1  2  0  0  0  0
  3  4  2  0  0  0  0
  4  5  1  0  0  0  0
  5  9  1  0  0  0  0
  6  5  2  0  0  0  0
  7  1  1  0  0  0  0
  8  3  1  0  0  0  0
  9 15  1  0  0  0  0
 10  9  1  0  0  0  0
 10 11  2  0  0  0  0
 11 12  1  0  0  0  0
 12 14  1  0  0  0  0
 12 13  2  0  0  0  0
 14 17  1  0  0  0  0
 15 16  2  0  0  0  0
 15 14  1  0  0  0  0
 18 19  1  0  0  0  0
 18  2  1  0  0  0  0
M  END
>  <minimizedAffinity>
-4.69779253

>  <minimizedRMSD>
2.54057598

$$$$
