
 OpenBabel03232519383D

 38 41  0  0  0  0  0  0  0  0999 V2000
   46.5050   34.4610   41.8790 N   0  0  0  0  0  0  0  0  0  0  0  0
   47.6620   35.2010   41.7960 C   0  0  0  0  0  0  0  0  0  0  0  0
   48.4330   35.1890   40.6570 C   0  0  0  0  0  0  0  0  0  0  0  0
   47.9990   34.3990   39.5890 C   0  0  0  0  0  0  0  0  0  0  0  0
   48.6810   34.3660   38.5380 O   0  0  0  0  0  0  0  0  0  0  0  0
   46.8610   33.7020   39.7410 N   0  0  0  0  0  0  0  0  0  0  0  0
   46.1280   33.7300   40.8550 C   0  0  0  0  0  0  0  0  0  0  0  0
   45.0840   33.1190   41.0520 O   0  0  0  0  0  0  0  0  0  0  0  0
   48.0580   35.8340   42.5780 H   0  0  0  0  0  0  0  0  0  0  0  0
   49.3480   35.7580   40.5560 H   0  0  0  0  0  0  0  0  0  0  0  0
   46.3750   32.8830   38.6860 C   0  0  0  0  0  0  0  0  0  0  0  0
   45.3820   33.2700   37.8000 C   0  0  0  0  0  0  0  0  0  0  0  0
   44.9710   32.4090   36.8050 C   0  0  0  0  0  0  0  0  0  0  0  0
   45.5420   31.1410   36.6720 C   0  0  0  0  0  0  0  0  0  0  0  0
   46.5300   30.7800   37.5690 C   0  0  0  0  0  0  0  0  0  0  0  0
   46.9650   31.6280   38.5840 C   0  0  0  0  0  0  0  0  0  0  0  0
   44.9660   34.2730   37.9440 H   0  0  0  0  0  0  0  0  0  0  0  0
   44.1890   32.7970   36.1580 H   0  0  0  0  0  0  0  0  0  0  0  0
   45.1850   30.5060   35.8770 H   0  0  0  0  0  0  0  0  0  0  0  0
   46.9420   29.7870   37.4260 H   0  0  0  0  0  0  0  0  0  0  0  0
   47.9830   31.1060   39.4160 N   0  0  0  0  0  0  0  0  0  0  0  0
   48.6370   30.0540   38.8370 C   0  0  0  0  0  0  0  0  0  0  0  0
   49.6620   29.4210   39.5090 C   0  0  0  0  0  0  0  0  0  0  0  0
   50.0270   29.8550   40.7710 C   0  0  0  0  0  0  0  0  0  0  0  0
   50.9530   29.3400   41.4670 O   0  0  0  0  0  0  0  0  0  0  0  0
   49.3540   30.8920   41.2970 N   0  0  0  0  0  0  0  0  0  0  0  0
   48.3520   31.5130   40.6450 C   0  0  0  0  0  0  0  0  0  0  0  0
   47.6900   32.4870   41.0900 O   0  0  0  0  0  0  0  0  0  0  0  0
   49.5830   31.2730   42.2590 H   0  0  0  0  0  0  0  0  0  0  0  0
   44.4980   35.9480   44.6080 C   0  0  0  0  0  0  0  0  0  0  0  0
   45.1060   35.7660   43.3360 C   0  0  0  0  0  0  0  0  0  0  0  0
   45.8870   34.6470   43.1680 C   0  0  0  0  0  0  0  0  0  0  0  0
   46.0640   33.7570   44.1870 N   0  0  0  0  0  0  0  0  0  0  0  0
   45.4680   33.9650   45.3880 C   0  0  0  0  0  0  0  0  0  0  0  0
   44.6960   35.0380   45.6030 N   0  0  0  0  0  0  0  0  0  0  0  0
   43.8800   36.8240   44.7550 H   0  0  0  0  0  0  0  0  0  0  0  0
   44.9340   36.5040   42.5570 H   0  0  0  0  0  0  0  0  0  0  0  0
   45.6480   33.2180   46.1570 H   0  0  0  0  0  0  0  0  0  0  0  0
  1 32  1  0  0  0  0
  2  1  1  0  0  0  0
  2  9  1  0  0  0  0
  3  2  2  0  0  0  0
  4  6  1  0  0  0  0
  4  3  1  0  0  0  0
  5  4  2  0  0  0  0
  6  7  1  0  0  0  0
  7  8  2  0  0  0  0
  7  1  1  0  0  0  0
 10  3  1  0  0  0  0
 11  6  1  0  0  0  0
 12 17  1  0  0  0  0
 12 11  2  0  0  0  0
 13 12  1  0  0  0  0
 14 13  2  0  0  0  0
 14 15  1  0  0  0  0
 15 16  2  0  0  0  0
 16 11  1  0  0  0  0
 16 21  1  0  0  0  0
 18 13  1  0  0  0  0
 19 14  1  0  0  0  0
 20 15  1  0  0  0  0
 21 27  1  0  0  0  0
 22 21  1  0  0  0  0
 22 23  2  0  0  0  0
 23 24  1  0  0  0  0
 24 26  1  0  0  0  0
 24 25  2  0  0  0  0
 26 29  1  0  0  0  0
 27 28  2  0  0  0  0
 27 26  1  0  0  0  0
 30 36  1  0  0  0  0
 30 35  1  0  0  0  0
 31 30  2  0  0  0  0
 32 31  1  0  0  0  0
 32 33  2  0  0  0  0
 33 34  1  0  0  0  0
 34 35  2  0  0  0  0
 34 38  1  0  0  0  0
 37 31  1  0  0  0  0
M  END
>  <minimizedAffinity>
-5.49911118

>  <minimizedRMSD>
0.405425012

$$$$
