
 OpenBabel03232518423D

 25 26  0  0  0  0  0  0  0  0999 V2000
   44.8700   35.2500   44.9370 C   0  0  0  0  0  0  0  0  0  0  0  0
   45.6810   34.8730   43.8750 C   0  0  0  0  0  0  0  0  0  0  0  0
   46.4470   33.7380   44.0290 C   0  0  0  0  0  0  0  0  0  0  0  0
   46.3730   33.0440   45.2030 N   0  0  0  0  0  0  0  0  0  0  0  0
   45.5810   33.4280   46.2160 C   0  0  0  0  0  0  0  0  0  0  0  0
   44.8350   34.5300   46.0730 N   0  0  0  0  0  0  0  0  0  0  0  0
   44.2800   36.1410   44.7960 H   0  0  0  0  0  0  0  0  0  0  0  0
   47.3090   33.2730   42.9960 N   0  0  0  0  0  0  0  0  0  0  0  0
   48.5880   33.7410   43.0880 C   0  0  0  0  0  0  0  0  0  0  0  0
   49.5470   33.3770   42.1500 C   0  0  0  0  0  0  0  0  0  0  0  0
   49.1460   32.5270   41.1320 C   0  0  0  0  0  0  0  0  0  0  0  0
   49.9680   32.1460   40.2330 O   0  0  0  0  0  0  0  0  0  0  0  0
   47.8830   32.0810   41.0640 N   0  0  0  0  0  0  0  0  0  0  0  0
   46.9740   32.4400   41.9710 C   0  0  0  0  0  0  0  0  0  0  0  0
   45.7540   32.0600   41.9750 O   0  0  0  0  0  0  0  0  0  0  0  0
   47.5510   31.4410   40.3100 H   0  0  0  0  0  0  0  0  0  0  0  0
   45.7180   35.6620   42.6360 C   0  0  0  0  0  0  0  0  0  0  0  0
   45.0360   36.8590   42.8830 F   0  0  0  0  0  0  0  0  0  0  0  0
   45.0220   35.0480   41.6150 F   0  0  0  0  0  0  0  0  0  0  0  0
   46.9930   35.9270   42.2200 F   0  0  0  0  0  0  0  0  0  0  0  0
   45.4850   32.7480   47.4150 O   0  0  0  0  0  0  0  0  0  0  0  0
   46.5570   32.1190   48.0480 C   0  0  0  0  0  0  0  0  0  0  0  0
   47.6940   32.8980   48.0320 F   0  0  0  0  0  0  0  0  0  0  0  0
   46.7470   30.8550   47.5570 F   0  0  0  0  0  0  0  0  0  0  0  0
   46.2130   32.0350   49.4170 F   0  0  0  0  0  0  0  0  0  0  0  0
  1  6  1  0  0  0  0
  2  3  1  0  0  0  0
  2  1  2  0  0  0  0
  3  4  2  0  0  0  0
  4  5  1  0  0  0  0
  5 21  1  0  0  0  0
  6  5  2  0  0  0  0
  7  1  1  0  0  0  0
  8  9  1  0  0  0  0
  8  3  1  0  0  0  0
 10  9  2  0  0  0  0
 11 10  1  0  0  0  0
 12 11  2  0  0  0  0
 13 11  1  0  0  0  0
 13 14  1  0  0  0  0
 14 15  2  0  0  0  0
 14  8  1  0  0  0  0
 16 13  1  0  0  0  0
 17 18  1  0  0  0  0
 17  2  1  0  0  0  0
 19 17  1  0  0  0  0
 20 17  1  0  0  0  0
 21 22  1  0  0  0  0
 22 25  1  0  0  0  0
 23 22  1  0  0  0  0
 24 22  1  0  0  0  0
M  END
>  <minimizedAffinity>
-5.7545495

>  <minimizedRMSD>
1.02759993

$$$$
