
 OpenBabel03232520023D

 20 21  0  0  0  0  0  0  0  0999 V2000
   46.2750   34.1690   43.3380 C   0  0  0  0  0  0  0  0  0  0  0  0
   47.5640   34.5960   42.9830 C   0  0  0  0  0  0  0  0  0  0  0  0
   47.8360   34.6980   41.6270 C   0  0  0  0  0  0  0  0  0  0  0  0
   46.8630   34.3850   40.7280 N   0  0  0  0  0  0  0  0  0  0  0  0
   45.6360   33.9770   41.1340 C   0  0  0  0  0  0  0  0  0  0  0  0
   45.3550   33.8730   42.4310 N   0  0  0  0  0  0  0  0  0  0  0  0
   48.3380   34.8460   43.6700 H   0  0  0  0  0  0  0  0  0  0  0  0
   48.8010   35.0190   41.2510 H   0  0  0  0  0  0  0  0  0  0  0  0
   45.9880   34.0580   44.7800 C   0  0  0  0  0  0  0  0  0  0  0  0
   44.9640   34.5960   45.2660 O   0  0  0  0  0  0  0  0  0  0  0  0
   46.8620   33.3570   45.5760 O   0  0  0  0  0  0  0  0  0  0  0  0
   46.5850   33.1810   46.5430 H   0  0  0  0  0  0  0  0  0  0  0  0
   44.3330   33.5580   40.0010 S   0  0  0  0  0  0  0  0  0  0  0  0
   42.7300   33.9010   40.6520 C   0  0  0  0  0  0  0  0  0  0  0  0
   42.4670   35.2570   40.8100 C   0  0  0  0  0  0  0  0  0  0  0  0
   41.2470   35.7040   41.3120 C   0  0  0  0  0  0  0  0  0  0  0  0
   41.0230   36.7370   41.4410 H   0  0  0  0  0  0  0  0  0  0  0  0
   40.3060   34.7950   41.6520 N   0  0  0  0  0  0  0  0  0  0  0  0
   40.5850   33.4880   41.4910 C   0  0  0  0  0  0  0  0  0  0  0  0
   41.7560   33.0310   41.0070 N   0  0  0  0  0  0  0  0  0  0  0  0
  1  9  1  0  0  0  0
  2  1  1  0  0  0  0
  2  7  1  0  0  0  0
  3  2  2  0  0  0  0
  4  5  2  0  0  0  0
  4  3  1  0  0  0  0
  5  6  1  0  0  0  0
  6  1  2  0  0  0  0
  8  3  1  0  0  0  0
  9 10  2  0  0  0  0
  9 11  1  0  0  0  0
 11 12  1  0  0  0  0
 13 14  1  0  0  0  0
 13  5  1  0  0  0  0
 14 15  2  0  0  0  0
 14 20  1  0  0  0  0
 15 16  1  0  0  0  0
 16 17  1  0  0  0  0
 16 18  2  0  0  0  0
 19 18  1  0  0  0  0
 20 19  2  0  0  0  0
M  END
>  <minimizedAffinity>
-4.23517704

>  <minimizedRMSD>
4.50488615

$$$$
