
 OpenBabel03232521003D

 42 45  0  0  1  0  0  0  0  0999 V2000
   45.3490   32.8970   47.5090 C   0  0  0  0  0  0  0  0  0  0  0  0
   45.9150   32.6420   46.2990 C   0  0  0  0  0  0  0  0  0  0  0  0
   46.1960   31.2950   46.0610 C   0  0  0  0  0  0  0  0  0  0  0  0
   45.9320   30.3020   46.9490 N   0  0  0  0  0  0  0  0  0  0  0  0
   45.3520   30.6110   48.1700 C   0  0  0  0  0  0  0  0  0  0  0  0
   45.0790   31.8890   48.4180 N   0  0  0  0  0  0  0  0  0  0  0  0
   45.0730   29.6000   49.1180 N   0  0  0  0  0  0  0  0  0  0  0  0
   45.0960   33.9060   47.7990 H   0  0  0  0  0  0  0  0  0  0  0  0
   44.4910   28.7800   48.8400 H   0  0  0  0  0  0  0  0  0  0  0  0
   45.4370   29.6540   50.0920 H   0  0  0  0  0  0  0  0  0  0  0  0
   46.1630   33.5950   45.2730 C   0  0  2  0  0  0  0  0  0  0  0  0
   44.9530   34.6870   45.5030 C   0  0  0  0  0  0  0  0  0  0  0  0
   44.7190   35.6160   44.4340 C   0  0  0  0  0  0  0  0  0  0  0  0
   45.5220   35.5450   43.2080 C   0  0  1  0  0  0  0  0  0  0  0  0
   46.5830   34.5450   43.1620 C   0  0  0  0  0  0  0  0  0  0  0  0
   46.1330   33.3100   43.9090 C   0  0  0  0  0  0  0  0  0  0  0  0
   46.9970   34.2880   45.6000 H   0  0  0  0  0  0  0  0  0  0  0  0
   44.2750   34.8400   46.3340 H   0  0  0  0  0  0  0  0  0  0  0  0
   43.9500   36.3360   44.5440 H   0  0  0  0  0  0  0  0  0  0  0  0
   45.9460   36.5530   43.0070 H   0  0  0  0  0  0  0  0  0  0  0  0
   47.5610   34.9090   43.5760 H   0  0  0  0  0  0  0  0  0  0  0  0
   46.8260   34.3330   42.0830 H   0  0  0  0  0  0  0  0  0  0  0  0
   45.1820   32.9650   43.4480 H   0  0  0  0  0  0  0  0  0  0  0  0
   46.9880   32.6620   43.5780 H   0  0  0  0  0  0  0  0  0  0  0  0
   44.5100   35.2780   42.0540 C   0  0  0  0  0  0  0  0  0  0  0  0
   43.4510   34.4800   42.4490 F   0  0  0  0  0  0  0  0  0  0  0  0
   43.9660   36.5150   41.7180 F   0  0  0  0  0  0  0  0  0  0  0  0
   45.1870   34.8170   40.9420 F   0  0  0  0  0  0  0  0  0  0  0  0
   46.8480   30.6050   44.9650 C   0  0  0  0  0  0  0  0  0  0  0  0
   46.5260   29.8370   43.8920 C   0  0  0  0  0  0  0  0  0  0  0  0
   47.7100   29.4610   43.2470 C   0  0  0  0  0  0  0  0  0  0  0  0
   48.6910   30.0180   43.9570 N   0  0  0  0  0  0  0  0  0  0  0  0
   48.2080   30.6950   44.9720 N   0  0  0  0  0  0  0  0  0  0  0  0
   45.4780   29.6510   43.7190 H   0  0  0  0  0  0  0  0  0  0  0  0
   47.6750   28.8410   42.3610 H   0  0  0  0  0  0  0  0  0  0  0  0
   50.0790   29.8560   43.6010 C   0  0  0  0  0  0  0  0  0  0  0  0
   50.9700   29.1900   44.3990 C   0  0  0  0  0  3  0  0  0  0  0  0
   52.2720   29.1310   43.8950 C   0  0  0  0  0  0  0  0  0  0  0  0
   53.0320   28.6200   44.4730 H   0  0  0  0  0  0  0  0  0  0  0  0
   52.6660   29.6680   42.7310 N   0  0  0  0  0  0  0  0  0  0  0  0
   51.7700   30.3050   41.9880 C   0  0  0  0  0  3  0  0  0  0  0  0
   50.4980   30.3900   42.4310 N   0  0  0  0  0  0  0  0  0  0  0  0
  1  8  1  0  0  0  0
  1  6  1  0  0  0  0
  2  1  2  0  0  0  0
  3  2  1  0  0  0  0
  3  4  2  0  0  0  0
  4  5  1  0  0  0  0
  5  6  2  0  0  0  0
  5  7  1  0  0  0  0
  7 10  1  0  0  0  0
  9  7  1  0  0  0  0
 11 12  1  0  0  0  0
 11 17  1  1  0  0  0
 11  2  1  0  0  0  0
 12 18  1  0  0  0  0
 13 19  1  0  0  0  0
 13 12  2  0  0  0  0
 14 20  1  6  0  0  0
 14 13  1  0  0  0  0
 15 14  1  0  0  0  0
 15 21  1  0  0  0  0
 15 16  1  0  0  0  0
 16 11  1  0  0  0  0
 22 15  1  0  0  0  0
 23 16  1  0  0  0  0
 24 16  1  0  0  0  0
 25 26  1  0  0  0  0
 25 14  1  0  0  0  0
 27 25  1  0  0  0  0
 28 25  1  0  0  0  0
 29 33  2  0  0  0  0
 29  3  1  0  0  0  0
 30 29  1  0  0  0  0
 31 30  2  0  0  0  0
 31 32  1  0  0  0  0
 32 33  1  0  0  0  0
 34 30  1  0  0  0  0
 35 31  1  0  0  0  0
 36 32  1  0  0  0  0
 36 37  1  0  0  0  0
 38 37  2  0  0  0  0
 38 39  1  0  0  0  0
 40 38  1  0  0  0  0
 41 42  1  0  0  0  0
 41 40  2  0  0  0  0
 42 36  2  0  0  0  0
M  END
>  <minimizedAffinity>
-5.82115221

>  <minimizedRMSD>
0.371354431

$$$$
