
 OpenBabel03232519233D

 38 41  0  0  1  0  0  0  0  0999 V2000
   47.0300   30.7180   47.5730 N   0  0  0  0  0  0  0  0  0  0  0  0
   47.0510   31.0890   48.9890 C   0  0  0  0  0  0  0  0  0  0  0  0
   45.8980   32.0390   49.0680 C   0  0  0  0  0  0  0  0  0  0  0  0
   44.8350   31.3900   48.2290 C   0  0  0  0  0  0  0  0  0  0  0  0
   45.6840   30.6440   47.1800 C   0  0  2  0  0  0  0  0  0  0  0  0
   47.5990   29.8860   47.3910 H   0  0  0  0  0  0  0  0  0  0  0  0
   46.8320   30.1700   49.5800 H   0  0  0  0  0  0  0  0  0  0  0  0
   48.0250   31.5470   49.2710 H   0  0  0  0  0  0  0  0  0  0  0  0
   45.5460   32.1850   50.1160 H   0  0  0  0  0  0  0  0  0  0  0  0
   46.1770   33.0060   48.6100 H   0  0  0  0  0  0  0  0  0  0  0  0
   44.2160   30.7410   48.8350 H   0  0  0  0  0  0  0  0  0  0  0  0
   44.2860   32.1870   47.6950 H   0  0  0  0  0  0  0  0  0  0  0  0
   45.1270   29.2650   47.1730 C   0  0  0  0  0  0  0  0  0  0  0  0
   45.1970   28.0970   47.9180 C   0  0  0  0  0  0  0  0  0  0  0  0
   44.3950   27.1710   47.3230 C   0  0  0  0  0  0  0  0  0  0  0  0
   43.8410   27.7450   46.2410 N   0  0  0  0  0  0  0  0  0  0  0  0
   44.2840   29.0050   46.1520 N   0  0  0  0  0  0  0  0  0  0  0  0
   45.8550   28.1600   48.7930 H   0  0  0  0  0  0  0  0  0  0  0  0
   44.3110   26.1910   47.7520 H   0  0  0  0  0  0  0  0  0  0  0  0
   43.1800   27.2500   45.6020 H   0  0  0  0  0  0  0  0  0  0  0  0
   45.5250   31.0820   45.8970 O   0  0  0  0  0  0  0  0  0  0  0  0
   46.3340   32.0700   45.2410 C   0  0  0  0  0  0  0  0  0  0  0  0
   47.5060   31.8080   44.9770 O   0  0  0  0  0  0  0  0  0  0  0  0
   44.6840   35.3050   45.6190 C   0  0  0  0  0  0  0  0  0  0  0  0
   44.3620   35.6560   44.2910 C   0  0  0  0  0  0  0  0  0  0  0  0
   44.7130   34.7790   43.2820 C   0  0  0  0  0  0  0  0  0  0  0  0
   45.3550   33.6230   43.6300 N   0  0  0  0  0  0  0  0  0  0  0  0
   45.6400   33.3400   44.9480 C   0  0  0  0  0  0  0  0  0  0  0  0
   45.3060   34.1740   45.9220 N   0  0  0  0  0  0  0  0  0  0  0  0
   44.4050   35.9950   46.4080 H   0  0  0  0  0  0  0  0  0  0  0  0
   43.8610   36.5700   44.0720 H   0  0  0  0  0  0  0  0  0  0  0  0
   44.4370   35.0460   41.9680 O   0  0  0  0  0  0  0  0  0  0  0  0
   43.2140   34.6640   41.4340 C   0  0  0  0  0  0  0  0  0  0  0  0
   42.9990   35.1620   40.1460 C   0  0  0  0  0  0  0  0  0  0  0  0
   41.7800   34.7260   39.7310 N   0  0  0  0  0  0  0  0  0  0  0  0
   41.2610   33.9850   40.7220 C   0  0  0  0  0  0  0  0  0  0  0  0
   42.1110   33.9360   41.7570 N   0  0  0  0  0  0  0  0  0  0  0  0
   42.1580   33.5080   42.7100 H   0  0  0  0  0  0  0  0  0  0  0  0
  1  2  1  0  0  0  0
  2  3  1  0  0  0  0
  2  8  1  0  0  0  0
  2  7  1  0  0  0  0
  3  9  1  0  0  0  0
  4 11  1  0  0  0  0
  4  3  1  0  0  0  0
  5 21  1  6  0  0  0
  5  1  1  0  0  0  0
  5  4  1  0  0  0  0
  6  1  1  0  0  0  0
 10  3  1  0  0  0  0
 12  4  1  0  0  0  0
 13  5  1  0  0  0  0
 13 14  1  0  0  0  0
 14 18  1  0  0  0  0
 15 19  1  0  0  0  0
 15 14  2  0  0  0  0
 16 15  1  0  0  0  0
 17 16  1  0  0  0  0
 17 13  2  0  0  0  0
 20 16  1  0  0  0  0
 22 21  1  0  0  0  0
 23 22  2  0  0  0  0
 24 29  1  0  0  0  0
 24 30  1  0  0  0  0
 25 24  2  0  0  0  0
 26 27  2  0  0  0  0
 26 25  1  0  0  0  0
 27 28  1  0  0  0  0
 28 22  1  0  0  0  0
 28 29  2  0  0  0  0
 31 25  1  0  0  0  0
 32 26  1  0  0  0  0
 33 37  1  0  0  0  0
 33 32  1  0  0  0  0
 34 33  2  0  0  0  0
 35 34  1  0  0  0  0
 35 36  2  0  0  0  0
 36 37  1  0  0  0  0
 37 38  1  0  0  0  0
M  END
>  <minimizedAffinity>
-5.61904907

>  <minimizedRMSD>
1.72279882

$$$$
