
 OpenBabel03232519253D

 20 21  0  0  0  0  0  0  0  0999 V2000
   46.6870   34.7260   41.6680 C   0  0  0  0  0  0  0  0  0  0  0  0
   46.1590   35.3060   40.9030 H   0  0  0  0  0  0  0  0  0  0  0  0
   46.7720   33.6340   41.4270 H   0  0  0  0  0  0  0  0  0  0  0  0
   45.2190   35.9840   43.2030 C   0  0  0  0  0  0  0  0  0  0  0  0
   46.0280   34.8670   42.9530 C   0  0  0  0  0  0  0  0  0  0  0  0
   46.1470   33.9420   43.9880 C   0  0  0  0  0  0  0  0  0  0  0  0
   45.4860   34.1710   45.1510 N   0  0  0  0  0  0  0  0  0  0  0  0
   44.7160   35.2630   45.3500 C   0  0  0  0  0  0  0  0  0  0  0  0
   44.5820   36.1760   44.3660 N   0  0  0  0  0  0  0  0  0  0  0  0
   45.1230   36.7060   42.4060 H   0  0  0  0  0  0  0  0  0  0  0  0
   46.7460   33.0730   43.8610 H   0  0  0  0  0  0  0  0  0  0  0  0
   44.1940   35.4350   46.2830 H   0  0  0  0  0  0  0  0  0  0  0  0
   48.0720   35.3330   41.7700 C   0  0  0  0  0  0  0  0  0  0  0  0
   48.2170   36.0400   40.9380 H   0  0  0  0  0  0  0  0  0  0  0  0
   48.1300   35.8880   42.7080 H   0  0  0  0  0  0  0  0  0  0  0  0
   49.0810   34.2920   41.7800 N   0  0  0  0  0  0  0  0  0  0  0  0
   50.2060   34.3990   42.5370 C   0  0  0  0  0  0  0  0  0  0  0  0
   50.9480   33.2790   42.3340 N   0  0  0  0  0  0  0  0  0  0  0  0
   50.2730   32.5050   41.4630 C   0  0  0  0  0  0  0  0  0  0  0  0
   49.1430   33.1380   41.1390 N   0  0  0  0  0  0  0  0  0  0  0  0
  1 13  1  0  0  0  0
  1  5  1  0  0  0  0
  2  1  1  0  0  0  0
  3  1  1  0  0  0  0
  4  9  1  0  0  0  0
  5  4  2  0  0  0  0
  5  6  1  0  0  0  0
  6  7  2  0  0  0  0
  7  8  1  0  0  0  0
  8 12  1  0  0  0  0
  9  8  2  0  0  0  0
 10  4  1  0  0  0  0
 11  6  1  0  0  0  0
 13 16  1  0  0  0  0
 13 15  1  0  0  0  0
 14 13  1  0  0  0  0
 16 17  1  0  0  0  0
 18 17  2  0  0  0  0
 19 18  1  0  0  0  0
 20 19  2  0  0  0  0
 20 16  1  0  0  0  0
M  END
>  <minimizedAffinity>
-4.19082546

>  <minimizedRMSD>
2.49852872

$$$$
