
 OpenBabel03232521003D

 42 45  0  0  1  0  0  0  0  0999 V2000
   45.3480   32.9150   47.4840 C   0  0  0  0  0  0  0  0  0  0  0  0
   45.9080   32.6600   46.2710 C   0  0  0  0  0  0  0  0  0  0  0  0
   46.1890   31.3140   46.0320 C   0  0  0  0  0  0  0  0  0  0  0  0
   45.9330   30.3210   46.9220 N   0  0  0  0  0  0  0  0  0  0  0  0
   45.3600   30.6300   48.1470 C   0  0  0  0  0  0  0  0  0  0  0  0
   45.0850   31.9070   48.3950 N   0  0  0  0  0  0  0  0  0  0  0  0
   45.0880   29.6190   49.0960 N   0  0  0  0  0  0  0  0  0  0  0  0
   45.0940   33.9230   47.7750 H   0  0  0  0  0  0  0  0  0  0  0  0
   44.5060   28.7980   48.8230 H   0  0  0  0  0  0  0  0  0  0  0  0
   45.4580   29.6750   50.0680 H   0  0  0  0  0  0  0  0  0  0  0  0
   46.1470   33.6130   45.2430 C   0  0  2  0  0  0  0  0  0  0  0  0
   44.9420   34.7090   45.4860 C   0  0  0  0  0  0  0  0  0  0  0  0
   44.7000   35.6390   44.4200 C   0  0  0  0  0  0  0  0  0  0  0  0
   45.4900   35.5660   43.1860 C   0  0  1  0  0  0  0  0  0  0  0  0
   46.5470   34.5630   43.1280 C   0  0  0  0  0  0  0  0  0  0  0  0
   46.1010   33.3290   43.8790 C   0  0  0  0  0  0  0  0  0  0  0  0
   46.9870   34.3030   45.5610 H   0  0  0  0  0  0  0  0  0  0  0  0
   44.2750   34.8630   46.3240 H   0  0  0  0  0  0  0  0  0  0  0  0
   43.9350   36.3610   44.5390 H   0  0  0  0  0  0  0  0  0  0  0  0
   45.9140   36.5740   42.9810 H   0  0  0  0  0  0  0  0  0  0  0  0
   47.5310   34.9240   43.5320 H   0  0  0  0  0  0  0  0  0  0  0  0
   46.7780   34.3510   42.0460 H   0  0  0  0  0  0  0  0  0  0  0  0
   45.1450   32.9870   43.4280 H   0  0  0  0  0  0  0  0  0  0  0  0
   46.9510   32.6790   43.5390 H   0  0  0  0  0  0  0  0  0  0  0  0
   44.4650   35.3040   42.0420 C   0  0  0  0  0  0  0  0  0  0  0  0
   43.4040   34.5130   42.4500 F   0  0  0  0  0  0  0  0  0  0  0  0
   43.9250   36.5430   41.7090 F   0  0  0  0  0  0  0  0  0  0  0  0
   45.1270   34.8350   40.9250 F   0  0  0  0  0  0  0  0  0  0  0  0
   46.8360   30.6250   44.9330 C   0  0  0  0  0  0  0  0  0  0  0  0
   46.5150   29.8200   43.8870 C   0  0  0  0  0  0  0  0  0  0  0  0
   47.6930   29.4760   43.2160 C   0  0  0  0  0  0  0  0  0  0  0  0
   48.6720   30.0870   43.8840 N   0  0  0  0  0  0  0  0  0  0  0  0
   48.1920   30.7680   44.8980 N   0  0  0  0  0  0  0  0  0  0  0  0
   45.4700   29.5890   43.7490 H   0  0  0  0  0  0  0  0  0  0  0  0
   47.6580   28.8340   42.3450 H   0  0  0  0  0  0  0  0  0  0  0  0
   50.0540   29.9700   43.4910 C   0  0  0  0  0  0  0  0  0  0  0  0
   50.5270   30.4700   42.3080 C   0  0  0  0  0  3  0  0  0  0  0  0
   51.8930   30.2660   42.0950 C   0  0  0  0  0  0  0  0  0  0  0  0
   52.3390   30.6350   41.1780 H   0  0  0  0  0  0  0  0  0  0  0  0
   52.7170   29.6390   42.9470 N   0  0  0  0  0  0  0  0  0  0  0  0
   52.2150   29.1690   44.0840 C   0  0  0  0  0  3  0  0  0  0  0  0
   50.9010   29.3410   44.3380 N   0  0  0  0  0  0  0  0  0  0  0  0
  1  8  1  0  0  0  0
  1  6  1  0  0  0  0
  2  1  2  0  0  0  0
  3  2  1  0  0  0  0
  3  4  2  0  0  0  0
  4  5  1  0  0  0  0
  5  6  2  0  0  0  0
  5  7  1  0  0  0  0
  7 10  1  0  0  0  0
  9  7  1  0  0  0  0
 11 12  1  0  0  0  0
 11 17  1  1  0  0  0
 11  2  1  0  0  0  0
 12 18  1  0  0  0  0
 13 19  1  0  0  0  0
 13 12  2  0  0  0  0
 14 20  1  6  0  0  0
 14 13  1  0  0  0  0
 15 14  1  0  0  0  0
 15 21  1  0  0  0  0
 15 16  1  0  0  0  0
 16 11  1  0  0  0  0
 22 15  1  0  0  0  0
 23 16  1  0  0  0  0
 24 16  1  0  0  0  0
 25 26  1  0  0  0  0
 25 14  1  0  0  0  0
 27 25  1  0  0  0  0
 28 25  1  0  0  0  0
 29  3  1  0  0  0  0
 30 29  1  0  0  0  0
 31 32  1  0  0  0  0
 31 30  2  0  0  0  0
 32 33  1  0  0  0  0
 33 29  2  0  0  0  0
 34 30  1  0  0  0  0
 35 31  1  0  0  0  0
 36 32  1  0  0  0  0
 36 42  1  0  0  0  0
 37 36  2  0  0  0  0
 38 37  1  0  0  0  0
 38 40  2  0  0  0  0
 39 38  1  0  0  0  0
 40 41  1  0  0  0  0
 41 42  2  0  0  0  0
M  END
>  <minimizedAffinity>
-5.83023596

>  <minimizedRMSD>
0.362520099

$$$$
