
 OpenBabel03232518463D

 25 26  0  0  0  0  0  0  0  0999 V2000
   45.2110   34.6960   44.8980 C   0  0  0  0  0  0  0  0  0  0  0  0
   46.0920   34.5260   43.8450 C   0  0  0  0  0  0  0  0  0  0  0  0
   47.0120   33.5330   43.9530 C   0  0  0  0  0  0  0  0  0  0  0  0
   47.0340   32.7480   45.0830 N   0  0  0  0  0  0  0  0  0  0  0  0
   46.1750   32.9310   46.0830 C   0  0  0  0  0  0  0  0  0  0  0  0
   45.2840   33.9030   45.9660 N   0  0  0  0  0  0  0  0  0  0  0  0
   44.4610   35.4830   44.8460 H   0  0  0  0  0  0  0  0  0  0  0  0
   46.0470   35.3830   42.6450 C   0  0  0  0  0  0  0  0  0  0  0  0
   45.1870   36.4550   42.9370 F   0  0  0  0  0  0  0  0  0  0  0  0
   45.4030   34.7320   41.5930 F   0  0  0  0  0  0  0  0  0  0  0  0
   47.2570   35.8390   42.2450 F   0  0  0  0  0  0  0  0  0  0  0  0
   48.0120   33.1760   42.9980 C   0  0  0  0  0  0  0  0  0  0  0  0
   47.8550   32.4070   42.0170 O   0  0  0  0  0  0  0  0  0  0  0  0
   49.3310   33.3910   42.6790 O   0  0  0  0  0  0  0  0  0  0  0  0
   50.2020   32.4800   42.1620 C   0  0  0  0  0  0  0  0  0  0  0  0
   50.9840   31.4210   42.6090 C   0  0  0  0  0  0  0  0  0  0  0  0
   51.6390   30.9230   41.5210 N   0  0  0  0  0  0  0  0  0  0  0  0
   51.2910   31.6300   40.4310 C   0  0  0  0  0  0  0  0  0  0  0  0
   50.4200   32.5750   40.8190 N   0  0  0  0  0  0  0  0  0  0  0  0
   50.0650   33.2080   40.0490 H   0  0  0  0  0  0  0  0  0  0  0  0
   46.1500   32.1770   47.2370 O   0  0  0  0  0  0  0  0  0  0  0  0
   47.2900   31.8540   47.9770 C   0  0  0  0  0  0  0  0  0  0  0  0
   48.0680   32.9700   48.2380 F   0  0  0  0  0  0  0  0  0  0  0  0
   48.0050   30.8400   47.4170 F   0  0  0  0  0  0  0  0  0  0  0  0
   46.8520   31.4500   49.2520 F   0  0  0  0  0  0  0  0  0  0  0  0
  1  6  1  0  0  0  0
  2  3  1  0  0  0  0
  2  1  2  0  0  0  0
  3  4  2  0  0  0  0
  4  5  1  0  0  0  0
  5 21  1  0  0  0  0
  6  5  2  0  0  0  0
  7  1  1  0  0  0  0
  8  9  1  0  0  0  0
  8  2  1  0  0  0  0
 10  8  1  0  0  0  0
 11  8  1  0  0  0  0
 12  3  1  0  0  0  0
 13 12  2  0  0  0  0
 14 12  1  0  0  0  0
 15 16  2  0  0  0  0
 15 14  1  0  0  0  0
 17 16  1  0  0  0  0
 18 19  1  0  0  0  0
 18 17  2  0  0  0  0
 19 15  1  0  0  0  0
 20 19  1  0  0  0  0
 21 22  1  0  0  0  0
 22 23  1  0  0  0  0
 22 25  1  0  0  0  0
 24 22  1  0  0  0  0
M  END
>  <minimizedAffinity>
-5.35645294

>  <minimizedRMSD>
1.22465611

$$$$
