
 OpenBabel03232519183D

 47 50  0  0  1  0  0  0  0  0999 V2000
   44.2700   34.1840   42.2670 C   0  0  0  0  0  0  0  0  0  0  0  0
   44.1920   35.2640   42.1380 H   0  0  0  0  0  0  0  0  0  0  0  0
   43.6400   33.9860   43.1910 H   0  0  0  0  0  0  0  0  0  0  0  0
   43.6350   33.3710   41.2030 C   0  0  1  0  0  0  0  0  0  0  0  0
   43.8920   32.2880   41.3770 H   0  0  0  0  0  0  0  0  0  0  0  0
   42.1700   33.4870   41.1980 C   0  0  0  0  0  0  0  0  0  0  0  0
   41.5950   34.7890   41.0040 C   0  0  0  0  0  0  0  0  0  0  0  0
   40.2010   34.9430   40.9880 C   0  0  0  0  0  0  0  0  0  0  0  0
   39.4620   33.8250   41.1600 N   0  0  0  0  0  0  0  0  0  0  0  0
   40.0110   32.6340   41.3360 C   0  0  0  0  0  0  0  0  0  0  0  0
   41.3660   32.4340   41.3600 N   0  0  0  0  0  0  0  0  0  0  0  0
   42.2670   35.6370   40.8740 H   0  0  0  0  0  0  0  0  0  0  0  0
   39.7830   35.9250   40.8430 H   0  0  0  0  0  0  0  0  0  0  0  0
   39.1870   31.4190   41.5170 C   0  0  0  0  0  0  0  0  0  0  0  0
   39.7850   30.2890   42.0920 C   0  0  0  0  0  0  0  0  0  0  0  0
   38.3320   29.1030   42.0730 S   0  0  0  0  0  0  0  0  0  0  0  0
   37.2070   30.4130   41.2780 C   0  0  0  0  0  0  0  0  0  0  0  0
   37.9290   31.2360   41.2060 N   0  0  0  0  0  0  0  0  0  0  0  0
   40.7240   30.0080   42.4700 H   0  0  0  0  0  0  0  0  0  0  0  0
   36.1220   30.3750   40.9680 H   0  0  0  0  0  0  0  0  0  0  0  0
   44.1900   33.7510   39.8480 C   0  0  0  0  0  0  0  0  0  0  0  0
   45.0590   33.1070   39.6250 H   0  0  0  0  0  0  0  0  0  0  0  0
   43.4260   33.6130   39.0410 H   0  0  0  0  0  0  0  0  0  0  0  0
   44.5130   34.8100   39.9000 H   0  0  0  0  0  0  0  0  0  0  0  0
   45.5860   33.8280   42.6290 N   0  0  0  0  0  0  0  0  0  0  0  0
   46.2410   32.6150   42.9980 C   0  0  0  0  0  0  0  0  0  0  0  0
   47.2360   32.1140   42.1980 C   0  0  0  0  0  0  0  0  0  0  0  0
   47.9080   30.9480   42.4950 C   0  0  0  0  0  0  0  0  0  0  0  0
   47.5370   30.3260   43.6080 N   0  0  0  0  0  0  0  0  0  0  0  0
   46.5510   30.8150   44.4060 C   0  0  0  0  0  0  0  0  0  0  0  0
   45.8910   31.9520   44.1240 N   0  0  0  0  0  0  0  0  0  0  0  0
   47.4930   32.6630   41.3090 H   0  0  0  0  0  0  0  0  0  0  0  0
   48.6800   30.6090   41.8250 H   0  0  0  0  0  0  0  0  0  0  0  0
   46.2660   30.0320   45.5690 N   0  0  0  0  0  0  0  0  0  0  0  0
   44.9740   29.5890   45.5690 C   0  0  0  0  0  0  0  0  0  0  0  0
   44.5490   28.8070   46.6480 C   0  0  0  0  0  0  0  0  0  0  0  0
   45.4570   28.5220   47.6620 C   0  0  0  0  0  0  0  0  0  0  0  0
   44.9750   27.7240   48.7360 N   0  0  0  0  0  0  0  0  0  0  0  0
   46.7130   28.9870   47.6070 N   0  0  0  0  0  0  0  0  0  0  0  0
   47.1230   29.7410   46.5650 C   0  0  0  0  0  0  0  0  0  0  0  0
   48.2870   30.2090   46.4490 O   0  0  0  0  0  0  0  0  0  0  0  0
   45.2830   27.6620   49.7250 H   0  0  0  0  0  0  0  0  0  0  0  0
   44.1810   27.0590   48.6080 H   0  0  0  0  0  0  0  0  0  0  0  0
   46.5840   34.8180   42.6790 C   0  0  0  0  0  0  0  0  0  0  0  0
   47.4930   34.5730   43.6740 F   0  0  0  0  0  0  0  0  0  0  0  0
   45.8790   35.9910   43.0900 F   0  0  0  0  0  0  0  0  0  0  0  0
   47.2090   35.0800   41.4900 F   0  0  0  0  0  0  0  0  0  0  0  0
  1 25  1  0  0  0  0
  1  3  1  0  0  0  0
  2  1  1  0  0  0  0
  4  5  1  1  0  0  0
  4  1  1  0  0  0  0
  6  4  1  0  0  0  0
  6 11  1  0  0  0  0
  7  6  2  0  0  0  0
  8  7  1  0  0  0  0
  8  9  2  0  0  0  0
  9 10  1  0  0  0  0
 10 11  2  0  0  0  0
 10 14  1  0  0  0  0
 12  7  1  0  0  0  0
 13  8  1  0  0  0  0
 14 15  2  0  0  0  0
 15 19  1  0  0  0  0
 16 15  1  0  0  0  0
 17 16  1  0  0  0  0
 18 17  2  0  0  0  0
 18 14  1  0  0  0  0
 20 17  1  0  0  0  0
 21 24  1  0  0  0  0
 21  4  1  0  0  0  0
 22 21  1  0  0  0  0
 23 21  1  0  0  0  0
 25 44  1  0  0  0  0
 25 26  1  0  0  0  0
 26 31  1  0  0  0  0
 27 28  1  0  0  0  0
 27 26  2  0  0  0  0
 28 29  2  0  0  0  0
 29 30  1  0  0  0  0
 30 34  1  0  0  0  0
 31 30  2  0  0  0  0
 32 27  1  0  0  0  0
 33 28  1  0  0  0  0
 34 40  1  0  0  0  0
 35 34  1  0  0  0  0
 35 36  2  0  0  0  0
 36 37  1  0  0  0  0
 37 38  1  0  0  0  0
 38 42  1  0  0  0  0
 39 37  2  0  0  0  0
 40 39  1  0  0  0  0
 41 40  2  0  0  0  0
 43 38  1  0  0  0  0
 44 46  1  0  0  0  0
 44 45  1  0  0  0  0
 47 44  1  0  0  0  0
M  END
>  <minimizedAffinity>
-6.22002792

>  <minimizedRMSD>
3.08652639

$$$$
