
 OpenBabel03232520193D

 42 45  0  0  0  0  0  0  0  0999 V2000
   47.6760   34.2390   42.0750 C   0  0  0  0  0  0  0  0  0  0  0  0
   48.5990   35.3660   41.7130 C   0  0  0  0  0  0  0  0  0  0  0  0
   49.8940   35.3870   42.4120 C   0  0  0  0  0  0  0  0  0  0  0  0
   50.5710   34.0580   42.5470 C   0  0  0  0  0  0  0  0  0  0  0  0
   49.7160   32.8960   42.1160 C   0  0  0  0  0  0  0  0  0  0  0  0
   48.3560   33.0910   42.7660 C   0  0  0  0  0  0  0  0  0  0  0  0
   48.7900   35.3920   40.6030 H   0  0  0  0  0  0  0  0  0  0  0  0
   48.0670   36.3180   41.9180 H   0  0  0  0  0  0  0  0  0  0  0  0
   50.5710   36.0660   41.8460 H   0  0  0  0  0  0  0  0  0  0  0  0
   49.7690   35.8820   43.4140 H   0  0  0  0  0  0  0  0  0  0  0  0
   50.8350   33.8850   43.6120 H   0  0  0  0  0  0  0  0  0  0  0  0
   51.5530   34.0420   41.9980 H   0  0  0  0  0  0  0  0  0  0  0  0
   50.1460   31.9580   42.5110 H   0  0  0  0  0  0  0  0  0  0  0  0
   49.6510   32.8830   40.9970 H   0  0  0  0  0  0  0  0  0  0  0  0
   48.5340   33.3410   43.8220 H   0  0  0  0  0  0  0  0  0  0  0  0
   47.7560   32.1820   42.6880 H   0  0  0  0  0  0  0  0  0  0  0  0
   45.2070   34.4640   44.8320 C   0  0  0  0  0  0  0  0  0  0  0  0
   44.5200   35.6390   44.5320 C   0  0  0  0  0  0  0  0  0  0  0  0
   44.9050   36.3440   43.3970 C   0  0  0  0  0  0  0  0  0  0  0  0
   45.9230   35.8520   42.6490 N   0  0  0  0  0  0  0  0  0  0  0  0
   46.5750   34.7050   42.9630 C   0  0  0  0  0  0  0  0  0  0  0  0
   46.1960   34.0240   44.0680 N   0  0  0  0  0  0  0  0  0  0  0  0
   44.9460   33.8820   45.7010 H   0  0  0  0  0  0  0  0  0  0  0  0
   43.7110   35.9820   45.1740 H   0  0  0  0  0  0  0  0  0  0  0  0
   44.3960   37.2720   43.1210 H   0  0  0  0  0  0  0  0  0  0  0  0
   47.0850   33.6880   40.7970 C   0  0  0  0  0  0  0  0  0  0  0  0
   45.9150   33.0530   40.4110 C   0  0  0  0  0  0  0  0  0  0  0  0
   45.8130   32.7170   39.1070 C   0  0  0  0  0  0  0  0  0  0  0  0
   46.7780   32.9740   38.2120 C   0  0  0  0  0  0  0  0  0  0  0  0
   48.0720   33.8160   39.2750 S   0  0  0  0  0  0  0  0  0  0  0  0
   45.2050   32.8960   41.2080 H   0  0  0  0  0  0  0  0  0  0  0  0
   44.9220   32.2170   38.7410 H   0  0  0  0  0  0  0  0  0  0  0  0
   46.9180   32.7400   36.8510 N   0  0  0  0  0  0  0  0  0  0  0  0
   45.7930   32.4210   36.1740 C   0  0  0  0  0  0  0  0  0  0  0  0
   45.9210   32.1830   34.8010 C   0  0  0  0  0  0  0  0  0  0  0  0
   47.1560   32.2780   34.1950 C   0  0  0  0  0  0  0  0  0  0  0  0
   47.3260   32.0450   32.8190 N   0  0  0  0  0  0  0  0  0  0  0  0
   48.2390   32.6000   34.9300 N   0  0  0  0  0  0  0  0  0  0  0  0
   48.1220   32.8330   36.2660 C   0  0  0  0  0  0  0  0  0  0  0  0
   49.1450   33.1270   36.9030 O   0  0  0  0  0  0  0  0  0  0  0  0
   48.1000   31.4660   32.4060 H   0  0  0  0  0  0  0  0  0  0  0  0
   46.8230   32.3270   31.9370 H   0  0  0  0  0  0  0  0  0  0  0  0
  1  6  1  0  0  0  0
  1 21  1  0  0  0  0
  2  8  1  0  0  0  0
  2  1  1  0  0  0  0
  2  3  1  0  0  0  0
  3  4  1  0  0  0  0
  3 10  1  0  0  0  0
  4 11  1  0  0  0  0
  5 13  1  0  0  0  0
  5  4  1  0  0  0  0
  5  6  1  0  0  0  0
  6 15  1  0  0  0  0
  7  2  1  0  0  0  0
  9  3  1  0  0  0  0
 12  4  1  0  0  0  0
 14  5  1  0  0  0  0
 16  6  1  0  0  0  0
 17 23  1  0  0  0  0
 18 17  1  0  0  0  0
 18 24  1  0  0  0  0
 19 18  2  0  0  0  0
 20 21  2  0  0  0  0
 20 19  1  0  0  0  0
 21 22  1  0  0  0  0
 22 17  2  0  0  0  0
 25 19  1  0  0  0  0
 26  1  1  0  0  0  0
 27 26  2  0  0  0  0
 27 31  1  0  0  0  0
 28 27  1  0  0  0  0
 29 28  2  0  0  0  0
 29 30  1  0  0  0  0
 30 26  1  0  0  0  0
 32 28  1  0  0  0  0
 33 29  1  0  0  0  0
 34 33  1  0  0  0  0
 35 34  2  0  0  0  0
 36 35  1  0  0  0  0
 36 38  2  0  0  0  0
 37 36  1  0  0  0  0
 38 39  1  0  0  0  0
 39 33  1  0  0  0  0
 39 40  2  0  0  0  0
 41 37  1  0  0  0  0
 42 37  1  0  0  0  0
M  END
>  <minimizedAffinity>
-6.68622875

>  <minimizedRMSD>
0.528579652

$$$$
