
 OpenBabel03232519543D

 26 28  0  0  0  0  0  0  0  0999 V2000
   45.1080   33.9170   41.6480 N   0  0  0  0  0  0  0  0  0  0  0  0
   46.1420   33.4980   40.9480 C   0  0  0  0  0  0  0  0  0  0  0  0
   45.7480   33.2450   39.6450 C   0  0  0  0  0  0  0  0  0  0  0  0
   44.4410   33.5210   39.5650 N   0  0  0  0  0  0  0  0  0  0  0  0
   44.0370   33.9380   40.7990 C   0  0  0  0  0  0  0  0  0  0  0  0
   46.3550   32.8890   38.8170 H   0  0  0  0  0  0  0  0  0  0  0  0
   43.0050   34.2150   40.9650 H   0  0  0  0  0  0  0  0  0  0  0  0
   47.4810   33.3050   41.3650 N   0  0  0  0  0  0  0  0  0  0  0  0
   48.0380   32.0840   41.6260 C   0  0  0  0  0  0  0  0  0  0  0  0
   49.3400   31.9260   42.0330 C   0  0  0  0  0  0  0  0  0  0  0  0
   50.1320   33.0620   42.1850 C   0  0  0  0  0  0  0  0  0  0  0  0
   51.4760   32.8840   42.6060 N   0  0  0  0  0  0  0  0  0  0  0  0
   49.5820   34.2690   41.9260 N   0  0  0  0  0  0  0  0  0  0  0  0
   48.2970   34.3860   41.5280 C   0  0  0  0  0  0  0  0  0  0  0  0
   47.8810   35.5730   41.3120 O   0  0  0  0  0  0  0  0  0  0  0  0
   51.6430   32.2040   43.3930 H   0  0  0  0  0  0  0  0  0  0  0  0
   52.1990   33.4380   42.1040 H   0  0  0  0  0  0  0  0  0  0  0  0
   44.5470   35.6130   43.2520 C   0  0  0  0  0  0  0  0  0  0  0  0
   45.0150   34.2860   42.9860 C   0  0  0  0  0  0  0  0  0  0  0  0
   45.3350   33.4860   44.0690 C   0  0  0  0  0  0  0  0  0  0  0  0
   45.2000   33.9680   45.3310 N   0  0  0  0  0  0  0  0  0  0  0  0
   44.7500   35.2370   45.5480 C   0  0  0  0  0  0  0  0  0  0  0  0
   44.4320   36.0410   44.5200 N   0  0  0  0  0  0  0  0  0  0  0  0
   44.2640   36.3420   42.5080 H   0  0  0  0  0  0  0  0  0  0  0  0
   45.6790   32.5080   43.9030 H   0  0  0  0  0  0  0  0  0  0  0  0
   44.6450   35.6160   46.5580 H   0  0  0  0  0  0  0  0  0  0  0  0
  1 19  1  0  0  0  0
  2  8  1  0  0  0  0
  2  1  1  0  0  0  0
  3  2  2  0  0  0  0
  4  3  1  0  0  0  0
  4  5  2  0  0  0  0
  5  7  1  0  0  0  0
  5  1  1  0  0  0  0
  6  3  1  0  0  0  0
  8 14  1  0  0  0  0
  8  9  1  0  0  0  0
  9 10  2  0  0  0  0
 10 11  1  0  0  0  0
 11 12  1  0  0  0  0
 12 16  1  0  0  0  0
 13 11  2  0  0  0  0
 14 13  1  0  0  0  0
 15 14  2  0  0  0  0
 17 12  1  0  0  0  0
 18 23  1  0  0  0  0
 19 18  2  0  0  0  0
 19 20  1  0  0  0  0
 20 21  2  0  0  0  0
 21 22  1  0  0  0  0
 22 26  1  0  0  0  0
 23 22  2  0  0  0  0
 24 18  1  0  0  0  0
 25 20  1  0  0  0  0
M  END
>  <minimizedAffinity>
-4.71908379

>  <minimizedRMSD>
2.74253559

$$$$
