
 OpenBabel03232518323D

 38 40  0  0  1  0  0  0  0  0999 V2000
   44.8300   35.5540   44.1000 C   0  0  0  0  0  0  0  0  0  0  0  0
   45.7800   35.2590   43.1340 C   0  0  0  0  0  0  0  0  0  0  0  0
   46.7350   34.2290   43.4180 C   0  0  0  0  0  0  0  0  0  0  0  0
   46.6480   33.6040   44.6250 N   0  0  0  0  0  0  0  0  0  0  0  0
   45.6910   33.9500   45.5160 C   0  0  0  0  0  0  0  0  0  0  0  0
   44.7830   34.9190   45.2630 N   0  0  0  0  0  0  0  0  0  0  0  0
   44.0920   36.3250   43.9210 H   0  0  0  0  0  0  0  0  0  0  0  0
   45.8320   35.7600   42.1930 H   0  0  0  0  0  0  0  0  0  0  0  0
   47.8030   33.8610   42.4320 C   0  0  2  0  0  0  0  0  0  0  0  0
   48.8190   35.0280   42.1640 C   0  0  0  0  0  0  0  0  0  0  0  0
   47.8730   34.4990   41.1180 C   0  0  1  0  0  0  0  0  0  0  0  0
   48.3260   32.8810   42.5770 H   0  0  0  0  0  0  0  0  0  0  0  0
   48.6250   35.9620   42.6890 H   0  0  0  0  0  0  0  0  0  0  0  0
   49.8720   34.7310   42.0590 H   0  0  0  0  0  0  0  0  0  0  0  0
   47.0680   35.2560   40.8840 H   0  0  0  0  0  0  0  0  0  0  0  0
   48.3500   33.8330   39.9470 N   0  0  0  0  0  0  0  0  0  0  0  0
   48.2150   34.5270   38.8020 C   0  0  0  0  0  0  0  0  0  0  0  0
   48.6580   33.9450   37.6090 C   0  0  0  0  0  0  0  0  0  0  0  0
   49.2130   32.6800   37.6700 C   0  0  0  0  0  0  0  0  0  0  0  0
   49.6650   32.0930   36.4350 N   0  0  0  0  0  0  0  0  0  0  0  0
   49.3320   32.0100   38.8520 N   0  0  0  0  0  0  0  0  0  0  0  0
   48.8940   32.5950   40.0050 C   0  0  0  0  0  0  0  0  0  0  0  0
   48.9970   31.9900   41.0970 O   0  0  0  0  0  0  0  0  0  0  0  0
   48.9520   31.3250   36.2570 H   0  0  0  0  0 10  0  0  0  0  0  0
   49.3850   31.3320   35.7910 H   0  0  0  0  0  0  0  0  0  0  0  0
   45.6270   33.1060   47.1000 S   0  0  0  0  0  0  0  0  0  0  0  0
   48.5800   29.5330   48.6130 N   0  0  0  0  0  0  0  0  0  0  0  0
   48.6140   30.6570   49.3650 C   0  0  0  0  0  0  0  0  0  0  0  0
   47.7690   31.5450   48.8470 N   0  0  0  0  0  0  0  0  0  0  0  0
   47.1700   31.0130   47.7470 C   0  0  0  0  0  0  0  0  0  0  0  0
   46.2230   31.4440   46.8100 C   0  0  0  0  0  0  0  0  0  0  0  0
   45.8520   30.6430   45.8290 N   0  0  0  0  0  0  0  0  0  0  0  0
   46.4210   29.3930   45.7680 C   0  0  0  0  0  0  0  0  0  0  0  0
   47.3500   28.9210   46.6570 N   0  0  0  0  0  0  0  0  0  0  0  0
   47.7070   29.7550   47.6410 C   0  0  0  0  0  0  0  0  0  0  0  0
   49.1500   28.6890   48.8110 H   0  0  0  0  0  0  0  0  0  0  0  0
   49.2460   30.7780   50.2480 H   0  0  0  0  0  0  0  0  0  0  0  0
   46.0620   28.7940   44.9310 H   0  0  0  0  0  0  0  0  0  0  0  0
  1  6  1  0  0  0  0
  2  3  1  0  0  0  0
  2  1  2  0  0  0  0
  3  4  2  0  0  0  0
  4  5  1  0  0  0  0
  5 26  1  0  0  0  0
  6  5  2  0  0  0  0
  7  1  1  0  0  0  0
  8  2  1  0  0  0  0
  9 12  1  1  0  0  0
  9  3  1  0  0  0  0
 10  9  1  0  0  0  0
 10 13  1  0  0  0  0
 11 15  1  6  0  0  0
 11 10  1  0  0  0  0
 11  9  1  0  0  0  0
 14 10  1  0  0  0  0
 16 22  1  0  0  0  0
 16 11  1  0  0  0  0
 17 16  1  0  0  0  0
 18 19  1  0  0  0  0
 18 17  2  0  0  0  0
 19 21  2  0  0  0  0
 21 22  1  0  0  0  0
 22 23  2  0  0  0  0
 25 20  1  0  0  0  0
 27 36  1  0  0  0  0
 27 28  1  0  0  0  0
 28 37  1  0  0  0  0
 29 28  2  0  0  0  0
 30 29  1  0  0  0  0
 31 26  1  0  0  0  0
 31 30  2  0  0  0  0
 32 31  1  0  0  0  0
 33 32  2  0  0  0  0
 33 34  1  0  0  0  0
 34 35  2  0  0  0  0
 35 30  1  0  0  0  0
 35 27  1  0  0  0  0
 38 33  1  0  0  0  0
M  END
>  <minimizedAffinity>
-6.37871218

>  <minimizedRMSD>
0.628816187

$$$$
