
 OpenBabel03232519423D

 48 51  0  0  0  0  0  0  0  0999 V2000
   46.5880   34.4230   41.7150 N   0  0  0  0  0  0  0  0  0  0  0  0
   47.7330   35.1950   41.5940 C   0  0  0  0  0  0  0  0  0  0  0  0
   48.4730   35.2000   40.4400 C   0  0  0  0  0  0  0  0  0  0  0  0
   48.0320   34.3950   39.3870 C   0  0  0  0  0  0  0  0  0  0  0  0
   48.6850   34.3870   38.3290 O   0  0  0  0  0  0  0  0  0  0  0  0
   46.9160   33.6670   39.5670 N   0  0  0  0  0  0  0  0  0  0  0  0
   46.2100   33.6840   40.7050 C   0  0  0  0  0  0  0  0  0  0  0  0
   45.1960   33.0570   40.9260 O   0  0  0  0  0  0  0  0  0  0  0  0
   48.1260   35.8370   42.3720 H   0  0  0  0  0  0  0  0  0  0  0  0
   49.3690   35.7930   40.3200 H   0  0  0  0  0  0  0  0  0  0  0  0
   44.5910   35.8610   44.4710 C   0  0  0  0  0  0  0  0  0  0  0  0
   45.1650   35.6900   43.1870 C   0  0  0  0  0  0  0  0  0  0  0  0
   46.0030   34.5960   43.0160 C   0  0  0  0  0  0  0  0  0  0  0  0
   46.2430   33.7460   44.0450 N   0  0  0  0  0  0  0  0  0  0  0  0
   45.6690   33.9510   45.2620 C   0  0  0  0  0  0  0  0  0  0  0  0
   44.8600   34.9840   45.4700 N   0  0  0  0  0  0  0  0  0  0  0  0
   43.9450   36.7280   44.5530 H   0  0  0  0  0  0  0  0  0  0  0  0
   44.9430   36.3960   42.3940 H   0  0  0  0  0  0  0  0  0  0  0  0
   45.9550   33.0280   46.3080 N   0  0  0  0  0  0  0  0  0  0  0  0
   45.1800   33.1750   47.4230 C   0  0  0  0  0  0  0  0  0  0  0  0
   45.3350   32.3490   48.5370 C   0  0  0  0  0  0  0  0  0  0  0  0
   46.3290   31.3740   48.4270 C   0  0  0  0  0  0  0  0  0  0  0  0
   46.4670   30.5440   49.5810 N   0  0  0  0  0  0  0  0  0  0  0  0
   47.0870   31.2380   47.3240 N   0  0  0  0  0  0  0  0  0  0  0  0
   46.8960   32.0640   46.2730 C   0  0  0  0  0  0  0  0  0  0  0  0
   47.5760   31.9830   45.2160 O   0  0  0  0  0  0  0  0  0  0  0  0
   45.6700   29.8430   49.5760 H   0  0  0  0  0  0  0  0  0  0  0  0
   47.3450   30.9870   49.9850 H   0  0  0  0  0  0  0  0  0  0  0  0
   46.4360   32.8290   38.5370 C   0  0  0  0  0  0  0  0  0  0  0  0
   45.5210   33.2190   37.5860 C   0  0  0  0  0  0  0  0  0  0  0  0
   45.0940   32.3550   36.6120 C   0  0  0  0  0  0  0  0  0  0  0  0
   45.5770   31.0630   36.5630 C   0  0  0  0  0  0  0  0  0  0  0  0
   46.4790   30.6960   37.5090 C   0  0  0  0  0  0  0  0  0  0  0  0
   46.9530   31.5360   38.5310 C   0  0  0  0  0  0  0  0  0  0  0  0
   45.2050   34.2580   37.7160 H   0  0  0  0  0  0  0  0  0  0  0  0
   44.3740   32.7900   35.9290 H   0  0  0  0  0  0  0  0  0  0  0  0
   45.2210   30.4210   35.7900 H   0  0  0  0  0  0  0  0  0  0  0  0
   46.8320   29.6570   37.4240 H   0  0  0  0  0  0  0  0  0  0  0  0
   47.9460   31.0330   39.5180 C   0  0  0  0  0  0  0  0  0  0  0  0
   48.1240   29.9560   39.1950 H   0  0  0  0  0  0  0  0  0  0  0  0
   49.2550   31.7370   39.5230 C   0  0  0  0  0  0  0  0  0  0  0  0
   49.9810   30.8660   39.7920 H   0  0  0  0  0  0  0  0  0  0  0  0
   49.7180   31.9660   38.5740 H   0  0  0  0  0  0  0  0  0  0  0  0
   49.5300   32.3090   40.4240 H   0  0  0  0  0  0  0  0  0  0  0  0
   47.4420   31.0270   40.9260 C   0  0  0  0  0  0  0  0  0  0  0  0
   47.9680   30.0880   41.3680 H   0  0  0  0  0  0  0  0  0  0  0  0
   47.9370   31.7260   41.6250 H   0  0  0  0  0  0  0  0  0  0  0  0
   46.4340   30.7070   41.1040 H   0  0  0  0  0  0  0  0  0  0  0  0
  1 13  1  0  0  0  0
  2  1  1  0  0  0  0
  2  9  1  0  0  0  0
  3  2  2  0  0  0  0
  4  6  1  0  0  0  0
  4  3  1  0  0  0  0
  5  4  2  0  0  0  0
  6  7  1  0  0  0  0
  7  8  2  0  0  0  0
  7  1  1  0  0  0  0
 10  3  1  0  0  0  0
 11 17  1  0  0  0  0
 11 16  1  0  0  0  0
 12 11  2  0  0  0  0
 13 12  1  0  0  0  0
 13 14  2  0  0  0  0
 14 15  1  0  0  0  0
 15 16  2  0  0  0  0
 15 19  1  0  0  0  0
 18 12  1  0  0  0  0
 19 20  1  0  0  0  0
 20 21  2  0  0  0  0
 22 21  1  0  0  0  0
 22 23  1  0  0  0  0
 23 28  1  0  0  0  0
 24 22  2  0  0  0  0
 25 19  1  0  0  0  0
 25 24  1  0  0  0  0
 26 25  2  0  0  0  0
 27 23  1  0  0  0  0
 29  6  1  0  0  0  0
 30 35  1  0  0  0  0
 30 29  2  0  0  0  0
 31 30  1  0  0  0  0
 32 31  2  0  0  0  0
 32 33  1  0  0  0  0
 33 34  2  0  0  0  0
 34 29  1  0  0  0  0
 34 39  1  0  0  0  0
 36 31  1  0  0  0  0
 37 32  1  0  0  0  0
 38 33  1  0  0  0  0
 39 41  1  0  0  0  0
 39 45  1  0  0  0  0
 40 39  1  0  0  0  0
 41 42  1  0  0  0  0
 41 44  1  0  0  0  0
 43 41  1  0  0  0  0
 45 48  1  0  0  0  0
 45 46  1  0  0  0  0
 45 47  1  0  0  0  0
M  END
>  <minimizedAffinity>
-7.22469521

>  <minimizedRMSD>
0.222223446

$$$$
