
 OpenBabel03232520373D

 20 21  0  0  0  0  0  0  0  0999 V2000
   42.2830   35.5910   40.9690 C   0  0  0  0  0  0  0  0  0  0  0  0
   42.4850   34.8650   39.7630 C   0  0  0  0  0  0  0  0  0  0  0  0
   43.4460   33.8450   39.7520 C   0  0  0  0  0  0  0  0  0  0  0  0
   44.1460   33.5950   40.9010 N   0  0  0  0  0  0  0  0  0  0  0  0
   43.9140   34.3140   42.0160 C   0  0  0  0  0  0  0  0  0  0  0  0
   43.0070   35.2880   42.0550 N   0  0  0  0  0  0  0  0  0  0  0  0
   41.5380   36.3840   40.9810 H   0  0  0  0  0  0  0  0  0  0  0  0
   43.5670   33.3200   38.8180 H   0  0  0  0  0  0  0  0  0  0  0  0
   44.6450   34.0500   43.2100 N   0  0  0  0  0  0  0  0  0  0  0  0
   44.5970   35.0110   44.1650 C   0  0  0  0  0  0  0  0  0  0  0  0
   45.2820   34.8070   45.3320 C   0  0  0  0  0  0  0  0  0  0  0  0
   45.9800   33.6240   45.4500 C   0  0  0  0  0  0  0  0  0  0  0  0
   46.7340   33.2770   46.6010 N   0  0  0  0  0  0  0  0  0  0  0  0
   46.0020   32.6900   44.4730 N   0  0  0  0  0  0  0  0  0  0  0  0
   45.3330   32.8760   43.3180 C   0  0  0  0  0  0  0  0  0  0  0  0
   45.2790   32.0920   42.3510 O   0  0  0  0  0  0  0  0  0  0  0  0
   47.4760   33.5180   47.2800 H   0  0  0  0  0  0  0  0  0  0  0  0
   46.4840   32.3430   47.0370 H   0  0  0  0  0  0  0  0  0  0  0  0
   41.5370   35.2370   38.2830 S   0  0  0  0  0  0  0  0  0  0  0  0
   40.5330   36.1460   38.6620 H   0  0  0  0  0  0  0  0  0  0  0  0
  1  7  1  0  0  0  0
  1  6  1  0  0  0  0
  2  1  2  0  0  0  0
  3  2  1  0  0  0  0
  3  4  2  0  0  0  0
  4  5  1  0  0  0  0
  5  6  2  0  0  0  0
  5  9  1  0  0  0  0
  8  3  1  0  0  0  0
  9 15  1  0  0  0  0
  9 10  1  0  0  0  0
 10 11  2  0  0  0  0
 11 12  1  0  0  0  0
 12 13  1  0  0  0  0
 13 18  1  0  0  0  0
 13 17  1  0  0  0  0
 14 12  2  0  0  0  0
 15 14  1  0  0  0  0
 16 15  2  0  0  0  0
 19 20  1  0  0  0  0
 19  2  1  0  0  0  0
M  END
>  <minimizedAffinity>
-4.41311169

>  <minimizedRMSD>
3.97510624

$$$$
