
 OpenBabel03232515293D

 32 35  0  0  1  0  0  0  0  0999 V2000
   44.3360   33.3580   38.9310 C   0  0  2  0  0  0  0  0  0  0  0  0
   45.0120   34.2140   39.2660 H   0  0  0  0  0  0  0  0  0  0  0  0
   42.8280   35.2350   38.4310 C   0  0  0  0  0  0  0  0  0  0  0  0
   43.0510   33.8810   38.5730 C   0  0  0  0  0  0  0  0  0  0  0  0
   41.9450   33.0090   38.3520 C   0  0  0  0  0  0  0  0  0  0  0  0
   40.7430   33.5420   38.0170 N   0  0  0  0  0  0  0  0  0  0  0  0
   40.5900   34.8750   37.8940 C   0  0  0  0  0  0  0  0  0  0  0  0
   41.6180   35.7110   38.0980 N   0  0  0  0  0  0  0  0  0  0  0  0
   43.5980   35.9800   38.5770 H   0  0  0  0  0  0  0  0  0  0  0  0
   42.0390   31.9350   38.4440 H   0  0  0  0  0  0  0  0  0  0  0  0
   39.6320   35.3050   37.6260 H   0  0  0  0  0  0  0  0  0  0  0  0
   45.0690   32.7090   37.7960 C   0  0  0  0  0  0  0  0  0  0  0  0
   45.5460   31.4060   37.8730 C   0  0  0  0  0  0  0  0  0  0  0  0
   46.1450   31.1770   36.6690 C   0  0  0  0  0  0  0  0  0  0  0  0
   46.0120   32.3470   35.8990 C   0  0  0  0  0  0  0  0  0  0  0  0
   45.3700   33.2170   36.6130 O   0  0  0  0  0  0  0  0  0  0  0  0
   45.5010   30.6660   38.6620 H   0  0  0  0  0  0  0  0  0  0  0  0
   46.6580   30.3000   36.2670 H   0  0  0  0  0  0  0  0  0  0  0  0
   46.3520   32.5800   34.8820 H   0  0  0  0  0  0  0  0  0  0  0  0
   44.2570   32.4490   40.1130 C   0  0  0  0  0  0  0  0  0  0  0  0
   43.1840   32.1850   40.3570 H   0  0  0  0  0  0  0  0  0  0  0  0
   44.6650   31.4540   39.7600 H   0  0  0  0  0  0  0  0  0  0  0  0
   44.9710   32.8480   41.2720 N   0  0  0  0  0  0  0  0  0  0  0  0
   44.4390   32.5360   42.4960 C   0  0  0  0  0  0  0  0  0  0  0  0
   45.2150   32.9380   43.5220 N   0  0  0  0  0  0  0  0  0  0  0  0
   46.3110   33.5420   42.9940 C   0  0  0  0  0  0  0  0  0  0  0  0
   47.4480   34.1610   43.4540 C   0  0  0  0  0  0  0  0  0  0  0  0
   47.5370   34.1880   44.5260 H   0  0  0  0  0  0  0  0  0  0  0  0
   48.3640   34.6850   42.6180 N   0  0  0  0  0  0  0  0  0  0  0  0
   48.1290   34.5840   41.2970 C   0  0  0  0  0  0  0  0  0  0  0  0
   47.0300   33.9840   40.8470 N   0  0  0  0  0  0  0  0  0  0  0  0
   46.0920   33.4480   41.6410 C   0  0  0  0  0  0  0  0  0  0  0  0
  1  2  1  1  0  0  0
  1 20  1  0  0  0  0
  3  4  1  0  0  0  0
  3  9  1  0  0  0  0
  4  1  1  0  0  0  0
  5 10  1  0  0  0  0
  5  4  2  0  0  0  0
  6  5  1  0  0  0  0
  7  6  2  0  0  0  0
  7  8  1  0  0  0  0
  8  3  2  0  0  0  0
 11  7  1  0  0  0  0
 12 13  2  0  0  0  0
 12  1  1  0  0  0  0
 13 17  1  0  0  0  0
 14 13  1  0  0  0  0
 15 16  1  0  0  0  0
 15 14  2  0  0  0  0
 16 12  1  0  0  0  0
 18 14  1  0  0  0  0
 19 15  1  0  0  0  0
 20 21  1  0  0  0  0
 20 23  1  0  0  0  0
 22 20  1  0  0  0  0
 23 32  1  0  0  0  0
 23 24  1  0  0  0  0
 24 25  2  0  0  0  0
 26 27  1  0  0  0  0
 26 25  1  0  0  0  0
 27 28  1  0  0  0  0
 29 27  2  0  0  0  0
 30 29  1  0  0  0  0
 31 30  2  0  0  0  0
 31 32  1  0  0  0  0
 32 26  2  0  0  0  0
M  END
>  <minimizedAffinity>
-3.93178368

>  <minimizedRMSD>
5.83244324

$$$$
