
 OpenBabel03232515223D

 48 52  0  0  0  0  0  0  0  0999 V2000
   47.9810   30.5850   48.2540 C   0  0  0  0  0  0  0  0  0  0  0  0
   49.0110   31.0570   49.0330 C   0  0  0  0  0  0  0  0  0  0  0  0
   49.9980   30.2230   49.4900 C   0  0  0  0  0  0  0  0  0  0  0  0
   49.9290   28.8730   49.1420 C   0  0  0  0  0  0  0  0  0  0  0  0
   48.8950   28.4050   48.3620 C   0  0  0  0  0  0  0  0  0  0  0  0
   47.9270   29.2530   47.9200 C   0  0  0  0  0  0  0  0  0  0  0  0
   49.0710   32.1030   49.3070 H   0  0  0  0  0  0  0  0  0  0  0  0
   50.8230   30.5620   50.1050 H   0  0  0  0  0  0  0  0  0  0  0  0
   50.6710   28.1620   49.4660 H   0  0  0  0  0  0  0  0  0  0  0  0
   44.5670   35.7910   44.7360 C   0  0  0  0  0  0  0  0  0  0  0  0
   45.2470   35.6580   43.5230 C   0  0  0  0  0  0  0  0  0  0  0  0
   46.1510   34.6220   43.3630 C   0  0  0  0  0  0  0  0  0  0  0  0
   46.3500   33.7630   44.3930 N   0  0  0  0  0  0  0  0  0  0  0  0
   45.6700   33.9170   45.5700 C   0  0  0  0  0  0  0  0  0  0  0  0
   44.7770   34.9160   45.7700 N   0  0  0  0  0  0  0  0  0  0  0  0
   45.8730   33.0170   46.6610 N   0  0  0  0  0  0  0  0  0  0  0  0
   47.0260   32.3040   46.6620 C   0  0  0  0  0  0  0  0  0  0  0  0
   46.9700   31.5270   47.8050 C   0  0  0  0  0  0  0  0  0  0  0  0
   45.8190   31.7800   48.4520 N   0  0  0  0  0  0  0  0  0  0  0  0
   45.1430   32.6830   47.7670 C   0  0  0  0  0  0  0  0  0  0  0  0
   43.8480   36.5920   44.9020 H   0  0  0  0  0  0  0  0  0  0  0  0
   45.0420   36.3780   42.7400 H   0  0  0  0  0  0  0  0  0  0  0  0
   46.6550   34.5510   42.4160 H   0  0  0  0  0  0  0  0  0  0  0  0
   47.8630   32.2690   45.9850 H   0  0  0  0  0  0  0  0  0  0  0  0
   44.1910   33.1830   47.8920 H   0  0  0  0  0  0  0  0  0  0  0  0
   46.8690   28.7580   47.1180 N   0  0  0  0  0  0  0  0  0  0  0  0
   46.2100   28.4480   47.8660 H   0  0  0  0  0  0  0  0  0  0  0  0
   47.0450   28.8420   46.1000 H   0  0  0  0  0  0  0  0  0  0  0  0
   48.8470   26.9940   48.0130 C   0  0  0  0  0  0  0  0  0  0  0  0
   47.8270   26.2810   48.2050 O   0  0  0  0  0  0  0  0  0  0  0  0
   50.0510   26.3490   47.3970 C   0  0  0  0  0  0  0  0  0  0  0  0
   50.5530   25.1240   47.9740 C   0  0  0  0  0  0  0  0  0  0  0  0
   51.9760   24.7620   46.8960 S   0  0  0  0  0  0  0  0  0  0  0  0
   51.6750   26.3100   45.8390 C   0  0  0  0  0  0  0  0  0  0  0  0
   50.7250   26.7640   46.3740 N   0  0  0  0  0  0  0  0  0  0  0  0
   52.4740   26.6780   44.7360 N   0  0  0  0  0  0  0  0  0  0  0  0
   52.9640   27.6140   44.7350 H   0  0  0  0  0  0  0  0  0  0  0  0
   52.6510   26.0970   43.8650 H   0  0  0  0  0  0  0  0  0  0  0  0
   50.0280   24.4370   49.0880 N   0  0  0  0  0  0  0  0  0  0  0  0
   49.0660   23.4990   49.1350 C   0  0  0  0  0  0  0  0  0  0  0  0
   48.6840   22.9350   50.3350 C   0  0  0  0  0  0  0  0  0  0  0  0
   49.2980   23.3430   51.5020 C   0  0  0  0  0  0  0  0  0  0  0  0
   48.8660   22.7290   52.7100 N   0  0  0  0  0  0  0  0  0  0  0  0
   50.2720   24.2950   51.4440 N   0  0  0  0  0  0  0  0  0  0  0  0
   50.6300   24.8340   50.2440 C   0  0  0  0  0  0  0  0  0  0  0  0
   51.5360   25.6840   50.4120 O   0  0  0  0  0  0  0  0  0  0  0  0
   47.9600   22.8230   53.2370 H   0  0  0  0  0  0  0  0  0  0  0  0
   49.7300   22.1520   52.9150 H   0  0  0  0  0  0  0  0  0  0  0  0
  1  2  1  0  0  0  0
  2  7  1  0  0  0  0
  2  3  2  0  0  0  0
  3  8  1  0  0  0  0
  4  9  1  0  0  0  0
  4  3  1  0  0  0  0
  5  4  2  0  0  0  0
  6  1  2  0  0  0  0
  6  5  1  0  0  0  0
 10 21  1  0  0  0  0
 10 15  1  0  0  0  0
 11 10  2  0  0  0  0
 12 11  1  0  0  0  0
 12 13  2  0  0  0  0
 13 14  1  0  0  0  0
 14 15  2  0  0  0  0
 14 16  1  0  0  0  0
 16 17  1  0  0  0  0
 16 20  1  0  0  0  0
 17 18  2  0  0  0  0
 18  1  1  0  0  0  0
 18 19  1  0  0  0  0
 20 25  1  0  0  0  0
 20 19  2  0  0  0  0
 22 11  1  0  0  0  0
 23 12  1  0  0  0  0
 24 17  1  0  0  0  0
 26 27  1  0  0  0  0
 26  6  1  0  0  0  0
 28 26  1  0  0  0  0
 29 30  2  0  0  0  0
 29  5  1  0  0  0  0
 31 32  2  0  0  0  0
 31 29  1  0  0  0  0
 32 39  1  0  0  0  0
 33 32  1  0  0  0  0
 34 35  2  0  0  0  0
 34 33  1  0  0  0  0
 35 31  1  0  0  0  0
 36 34  1  0  0  0  0
 37 36  1  0  0  0  0
 38 36  1  0  0  0  0
 39 40  1  0  0  0  0
 39 45  1  0  0  0  0
 40 41  2  0  0  0  0
 41 42  1  0  0  0  0
 42 43  1  0  0  0  0
 43 48  1  0  0  0  0
 43 47  1  0  0  0  0
 44 42  2  0  0  0  0
 45 46  2  0  0  0  0
 45 44  1  0  0  0  0
M  END
>  <minimizedAffinity>
-6.71152306

>  <minimizedRMSD>
1.77872336

$$$$
