
 OpenBabel03232520493D

 33 35  0  0  1  0  0  0  0  0999 V2000
   46.2020   33.4040   45.6700 C   0  0  2  0  0  0  0  0  0  0  0  0
   45.0990   34.4340   45.7440 C   0  0  0  0  0  0  0  0  0  0  0  0
   44.8880   35.2770   44.5850 C   0  0  0  0  0  0  0  0  0  0  0  0
   45.7180   35.1140   43.4020 C   0  0  1  0  0  0  0  0  0  0  0  0
   46.8310   34.1610   43.4850 C   0  0  0  0  0  0  0  0  0  0  0  0
   46.4300   32.9410   44.2660 C   0  0  0  0  0  0  0  0  0  0  0  0
   47.1380   33.9350   46.0120 H   0  0  0  0  0  0  0  0  0  0  0  0
   44.4290   34.6390   46.5570 H   0  0  0  0  0  0  0  0  0  0  0  0
   44.1040   36.0190   44.6240 H   0  0  0  0  0  0  0  0  0  0  0  0
   46.1810   36.1270   43.1990 H   0  0  0  0  0  0  0  0  0  0  0  0
   47.2930   33.9450   42.5250 H   0  0  0  0  0  0  0  0  0  0  0  0
   47.6430   34.6610   44.0910 H   0  0  0  0  0  0  0  0  0  0  0  0
   45.4790   32.4950   43.8920 H   0  0  0  0  0  0  0  0  0  0  0  0
   47.2700   32.2140   44.2870 H   0  0  0  0  0  0  0  0  0  0  0  0
   44.8410   34.9080   42.2490 N   0  0  0  0  0  0  0  0  0  0  0  0
   43.5270   35.2110   42.4540 C   0  0  0  0  0  0  0  0  0  0  0  0
   42.5610   35.0730   41.4680 C   0  0  0  0  0  0  0  0  0  0  0  0
   43.0150   34.6030   40.2450 C   0  0  0  0  0  0  0  0  0  0  0  0
   42.0120   34.4640   39.2330 N   0  0  0  0  0  0  0  0  0  0  0  0
   44.3260   34.3030   40.0510 N   0  0  0  0  0  0  0  0  0  0  0  0
   45.2010   34.4560   41.0320 C   0  0  0  0  0  0  0  0  0  0  0  0
   46.4270   34.1940   40.9060 O   0  0  0  0  0  0  0  0  0  0  0  0
   41.3330   35.2270   39.0610 H   0  0  0  0  0  0  0  0  0  0  0  0
   41.9850   33.5780   38.6800 H   0  0  0  0  0  0  0  0  0  0  0  0
   45.3170   32.6540   47.8460 C   0  0  0  0  0  0  0  0  0  0  0  0
   45.9470   32.3370   46.6410 C   0  0  0  0  0  0  0  0  0  0  0  0
   46.3250   30.9850   46.4180 C   0  0  0  0  0  0  0  0  0  0  0  0
   46.0550   30.0770   47.3890 N   0  0  0  0  0  0  0  0  0  0  0  0
   45.4420   30.4160   48.5490 C   0  0  0  0  0  0  0  0  0  0  0  0
   45.0760   31.6990   48.7740 N   0  0  0  0  0  0  0  0  0  0  0  0
   44.9870   33.6450   48.1220 H   0  0  0  0  0  0  0  0  0  0  0  0
   46.8130   30.7030   45.4980 H   0  0  0  0  0  0  0  0  0  0  0  0
   45.2990   29.5770   49.2200 H   0  0  0  0  0  0  0  0  0  0  0  0
  1  2  1  0  0  0  0
  1  7  1  1  0  0  0
  1 26  1  0  0  0  0
  2  8  1  0  0  0  0
  3  9  1  0  0  0  0
  3  2  2  0  0  0  0
  4 10  1  6  0  0  0
  4  5  1  0  0  0  0
  4  3  1  0  0  0  0
  5 12  1  0  0  0  0
  5  6  1  0  0  0  0
  6 14  1  0  0  0  0
  6  1  1  0  0  0  0
 11  5  1  0  0  0  0
 13  6  1  0  0  0  0
 15 16  1  0  0  0  0
 15  4  1  0  0  0  0
 17 16  2  0  0  0  0
 18 17  1  0  0  0  0
 19 18  1  0  0  0  0
 20 18  2  0  0  0  0
 20 21  1  0  0  0  0
 21 15  1  0  0  0  0
 22 21  2  0  0  0  0
 23 19  1  0  0  0  0
 24 19  1  0  0  0  0
 25 31  1  0  0  0  0
 25 30  1  0  0  0  0
 26 25  2  0  0  0  0
 27 26  1  0  0  0  0
 27 28  2  0  0  0  0
 28 29  1  0  0  0  0
 29 30  2  0  0  0  0
 29 33  1  0  0  0  0
 32 27  1  0  0  0  0
M  END
>  <minimizedAffinity>
-5.63350153

>  <minimizedRMSD>
0.804216743

$$$$
