
 OpenBabel03232518243D

 20 22  0  0  0  0  0  0  0  0999 V2000
   45.4110   32.9250   47.5120 S   0  0  0  0  0  0  0  0  0  0  0  0
   49.3460   28.7460   48.9900 H   0  0  0  0  0  0  0  0  0  0  0  0
   48.6710   29.5060   48.7560 N   0  0  0  0  0  0  0  0  0  0  0  0
   48.7980   30.6870   49.3940 C   0  0  0  0  0  0  0  0  0  0  0  0
   47.8460   31.5290   48.9620 N   0  0  0  0  0  0  0  0  0  0  0  0
   47.0840   30.9120   48.0380 C   0  0  0  0  0  0  0  0  0  0  0  0
   45.9780   31.2420   47.2480 C   0  0  0  0  0  0  0  0  0  0  0  0
   45.4650   30.3390   46.4070 N   0  0  0  0  0  0  0  0  0  0  0  0
   46.0460   29.1050   46.3480 C   0  0  0  0  0  0  0  0  0  0  0  0
   47.1230   28.7240   47.0910 N   0  0  0  0  0  0  0  0  0  0  0  0
   47.6220   29.6470   47.9270 C   0  0  0  0  0  0  0  0  0  0  0  0
   44.8790   35.4380   44.4990 C   0  0  0  0  0  0  0  0  0  0  0  0
   45.7980   35.0380   43.5310 C   0  0  0  0  0  0  0  0  0  0  0  0
   46.6370   33.9230   43.8230 C   0  0  0  0  0  0  0  0  0  0  0  0
   46.4790   33.3160   45.0540 N   0  0  0  0  0  0  0  0  0  0  0  0
   45.5700   33.7590   45.9370 C   0  0  0  0  0  0  0  0  0  0  0  0
   44.7660   34.8120   45.6790 N   0  0  0  0  0  0  0  0  0  0  0  0
   44.2830   36.2890   44.1990 H   0  0  0  0  0  0  0  0  0  0  0  0
   45.9790   35.4500   42.5690 H   0  0  0  0  0  0  0  0  0  0  0  0
   47.3870   33.4780   43.2180 H   0  0  0  0  0  0  0  0  0  0  0  0
  3  2  1  0  0  0  0
  3  4  1  0  0  0  0
  5  4  2  0  0  0  0
  6  5  1  0  0  0  0
  7  1  1  0  0  0  0
  7  6  2  0  0  0  0
  8  7  1  0  0  0  0
  9  8  2  0  0  0  0
  9 10  1  0  0  0  0
 10 11  2  0  0  0  0
 11  6  1  0  0  0  0
 11  3  1  0  0  0  0
 12 17  1  0  0  0  0
 13 14  1  0  0  0  0
 13 12  2  0  0  0  0
 14 15  2  0  0  0  0
 15 16  1  0  0  0  0
 16  1  1  0  0  0  0
 17 16  2  0  0  0  0
 18 12  1  0  0  0  0
 19 13  1  0  0  0  0
 20 14  1  0  0  0  0
M  END
>  <minimizedAffinity>
-4.40849495

>  <minimizedRMSD>
2.043751

$$$$
