
 OpenBabel03232521003D

 45 49  0  0  1  0  0  0  0  0999 V2000
   45.4260   32.9420   47.5840 C   0  0  0  0  0  0  0  0  0  0  0  0
   45.9000   32.6470   46.3460 C   0  0  0  0  0  0  0  0  0  0  0  0
   46.0700   31.2830   46.0990 C   0  0  0  0  0  0  0  0  0  0  0  0
   45.7920   30.3090   47.0020 N   0  0  0  0  0  0  0  0  0  0  0  0
   45.3100   30.6610   48.2540 C   0  0  0  0  0  0  0  0  0  0  0  0
   45.1410   31.9540   48.5110 N   0  0  0  0  0  0  0  0  0  0  0  0
   45.0180   29.6730   49.2270 N   0  0  0  0  0  0  0  0  0  0  0  0
   45.2620   33.9650   47.8840 H   0  0  0  0  0  0  0  0  0  0  0  0
   45.1440   29.8750   50.2450 H   0  0  0  0  0  0  0  0  0  0  0  0
   44.6720   28.7360   48.8700 H   0  0  0  0  0  0  0  0  0  0  0  0
   46.1480   33.5790   45.2990 C   0  0  2  0  0  0  0  0  0  0  0  0
   44.9540   34.6910   45.5230 C   0  0  0  0  0  0  0  0  0  0  0  0
   44.7250   35.6060   44.4410 C   0  0  0  0  0  0  0  0  0  0  0  0
   45.5170   35.5040   43.2100 C   0  0  1  0  0  0  0  0  0  0  0  0
   46.5600   34.4860   43.1680 C   0  0  0  0  0  0  0  0  0  0  0  0
   46.0990   33.2710   43.9400 C   0  0  0  0  0  0  0  0  0  0  0  0
   46.9720   34.2880   45.6050 H   0  0  0  0  0  0  0  0  0  0  0  0
   44.2890   34.8590   46.3610 H   0  0  0  0  0  0  0  0  0  0  0  0
   43.9670   36.3390   44.5470 H   0  0  0  0  0  0  0  0  0  0  0  0
   45.9620   36.4990   42.9740 H   0  0  0  0  0  0  0  0  0  0  0  0
   47.5100   34.8770   43.5960 H   0  0  0  0  0  0  0  0  0  0  0  0
   46.7940   34.2580   42.0950 H   0  0  0  0  0  0  0  0  0  0  0  0
   46.9410   32.6060   43.6130 H   0  0  0  0  0  0  0  0  0  0  0  0
   45.1490   32.9140   43.4930 H   0  0  0  0  0  0  0  0  0  0  0  0
   44.4890   35.2340   42.0700 C   0  0  0  0  0  0  0  0  0  0  0  0
   43.4420   34.4260   42.4760 F   0  0  0  0  0  0  0  0  0  0  0  0
   43.9290   36.4680   41.7490 F   0  0  0  0  0  0  0  0  0  0  0  0
   45.1520   34.7830   40.9460 F   0  0  0  0  0  0  0  0  0  0  0  0
   46.6080   30.5480   44.9660 C   0  0  0  0  0  0  0  0  0  0  0  0
   46.1920   29.6620   44.0280 C   0  0  0  0  0  0  0  0  0  0  0  0
   47.2920   29.3160   43.2340 C   0  0  0  0  0  0  0  0  0  0  0  0
   48.3210   30.0090   43.7250 N   0  0  0  0  0  0  0  0  0  0  0  0
   47.9400   30.7410   44.7480 N   0  0  0  0  0  0  0  0  0  0  0  0
   45.1530   29.3800   44.0390 H   0  0  0  0  0  0  0  0  0  0  0  0
   47.1900   28.6220   42.4220 H   0  0  0  0  0  0  0  0  0  0  0  0
   52.9000   32.1640   41.1430 H   0  0  0  0  0  0  0  0  0  0  0  0
   51.9790   31.9490   41.5990 N   0  0  0  0  0  0  0  0  0  0  0  0
   50.9830   32.8360   41.7720 C   0  0  0  0  0  3  0  0  0  0  0  0
   49.9360   32.2300   42.3950 N   0  0  0  0  0  0  0  0  0  0  0  0
   50.3260   30.9790   42.5860 C   0  0  0  0  0  0  0  0  0  0  0  0
   49.6540   29.9290   43.1760 C   0  0  0  0  0  0  0  0  0  0  0  0
   50.2850   28.7300   43.2500 N   0  0  0  0  0  0  0  0  0  0  0  0
   51.5300   28.5570   42.7660 C   0  0  0  0  0  3  0  0  0  0  0  0
   52.2350   29.5620   42.1740 N   0  0  0  0  0  0  0  0  0  0  0  0
   51.5900   30.7630   42.1070 C   0  0  0  0  0  0  0  0  0  0  0  0
  1  8  1  0  0  0  0
  1  6  1  0  0  0  0
  2  1  2  0  0  0  0
  3  2  1  0  0  0  0
  3  4  2  0  0  0  0
  4  5  1  0  0  0  0
  5  6  2  0  0  0  0
  5  7  1  0  0  0  0
  7  9  1  0  0  0  0
 10  7  1  0  0  0  0
 11 12  1  0  0  0  0
 11 17  1  1  0  0  0
 11  2  1  0  0  0  0
 12 18  1  0  0  0  0
 13 19  1  0  0  0  0
 13 12  2  0  0  0  0
 14 20  1  6  0  0  0
 14 13  1  0  0  0  0
 15 14  1  0  0  0  0
 15 21  1  0  0  0  0
 15 16  1  0  0  0  0
 16 11  1  0  0  0  0
 22 15  1  0  0  0  0
 23 16  1  0  0  0  0
 24 16  1  0  0  0  0
 25 26  1  0  0  0  0
 25 14  1  0  0  0  0
 27 25  1  0  0  0  0
 28 25  1  0  0  0  0
 29  3  1  0  0  0  0
 30 34  1  0  0  0  0
 30 29  1  0  0  0  0
 31 32  1  0  0  0  0
 31 30  2  0  0  0  0
 32 33  1  0  0  0  0
 33 29  2  0  0  0  0
 35 31  1  0  0  0  0
 36 37  1  0  0  0  0
 37 38  1  0  0  0  0
 37 45  1  0  0  0  0
 38 39  2  0  0  0  0
 39 40  1  0  0  0  0
 40 41  1  0  0  0  0
 41 42  2  0  0  0  0
 41 32  1  0  0  0  0
 43 42  1  0  0  0  0
 44 43  2  0  0  0  0
 45 44  1  0  0  0  0
 45 40  2  0  0  0  0
M  END
>  <minimizedAffinity>
-6.48882866

>  <minimizedRMSD>
0.886806726

$$$$
