
 OpenBabel03232520333D

 43 47  0  0  1  0  0  0  0  0999 V2000
   46.8740   34.5490   41.3490 C   0  0  0  0  0  0  0  0  0  0  0  0
   48.1600   34.9400   40.9880 C   0  0  0  0  0  0  0  0  0  0  0  0
   48.4130   34.6020   39.7290 N   0  0  0  0  0  0  0  0  0  0  0  0
   47.3100   33.9960   39.2650 C   0  0  0  0  0  0  0  0  0  0  0  0
   47.0390   33.4480   38.0070 C   0  0  0  0  0  0  0  0  0  0  0  0
   45.8170   32.8800   37.7870 C   0  0  0  0  0  0  0  0  0  0  0  0
   44.8130   32.7990   38.7110 C   0  0  0  0  0  0  0  0  0  0  0  0
   45.1280   33.3530   39.9360 C   0  0  0  0  0  0  0  0  0  0  0  0
   46.3270   33.9400   40.2390 C   0  0  0  0  0  0  0  0  0  0  0  0
   49.2750   34.7460   39.1500 H   0  0  0  0  0  0  0  0  0  0  0  0
   47.7750   33.4660   37.2070 H   0  0  0  0  0  0  0  0  0  0  0  0
   45.6370   32.4590   36.7890 H   0  0  0  0  0  0  0  0  0  0  0  0
   43.8610   32.3400   38.4940 H   0  0  0  0  0  0  0  0  0  0  0  0
   44.3820   33.3340   40.7410 H   0  0  0  0  0  0  0  0  0  0  0  0
   44.7400   35.9990   44.0460 C   0  0  0  0  0  0  0  0  0  0  0  0
   45.3750   35.8400   42.7900 C   0  0  0  0  0  0  0  0  0  0  0  0
   46.2100   34.7300   42.6380 C   0  0  0  0  0  0  0  0  0  0  0  0
   46.3820   33.8560   43.6770 N   0  0  0  0  0  0  0  0  0  0  0  0
   45.7410   34.0700   44.8540 C   0  0  0  0  0  0  0  0  0  0  0  0
   44.9250   35.1320   45.0420 N   0  0  0  0  0  0  0  0  0  0  0  0
   44.0960   36.8790   44.1280 H   0  0  0  0  0  0  0  0  0  0  0  0
   45.2210   36.5510   41.9780 H   0  0  0  0  0  0  0  0  0  0  0  0
   45.9560   33.3160   45.5910 H   0  0  0  0  0  0  0  0  0  0  0  0
   49.0970   35.6360   41.9040 C   0  0  0  0  0  0  0  0  0  0  0  0
   49.7320   36.3310   41.3120 H   0  0  0  0  0  0  0  0  0  0  0  0
   48.5500   36.2600   42.6380 H   0  0  0  0  0  0  0  0  0  0  0  0
   50.0180   34.6810   42.5990 C   0  0  0  0  0  0  0  0  0  0  0  0
   51.0480   35.1180   42.6710 H   0  0  0  0  0  0  0  0  0  0  0  0
   49.6610   34.6010   43.6500 H   0  0  0  0  0  0  0  0  0  0  0  0
   50.1330   33.3400   41.9240 C   0  0  1  0  0  0  0  0  0  0  0  0
   50.9900   32.2560   42.4100 C   0  0  0  0  0  0  0  0  0  0  0  0
   49.5390   32.1850   42.7480 C   0  0  2  0  0  0  0  0  0  0  0  0
   49.9070   33.3410   40.8440 H   0  0  0  0  0  0  0  0  0  0  0  0
   51.4070   31.5310   41.7000 H   0  0  0  0  0  0  0  0  0  0  0  0
   51.6990   32.5190   43.2210 H   0  0  0  0  0  0  0  0  0  0  0  0
   49.2370   32.3720   43.7920 H   0  0  0  0  0  0  0  0  0  0  0  0
   48.8070   31.2180   42.0900 O   0  0  0  0  0  0  0  0  0  0  0  0
   47.5810   30.8400   42.6050 C   0  0  0  0  0  0  0  0  0  0  0  0
   47.3990   30.5270   43.8940 N   0  0  0  0  0  0  0  0  0  0  0  0
   46.1520   30.2140   44.0820 O   0  0  0  0  0  0  0  0  0  0  0  0
   45.4920   30.3090   42.9480 C   0  0  0  0  0  0  0  0  0  0  0  0
   44.4910   30.1710   42.5610 H   0  0  0  0  0  0  0  0  0  0  0  0
   46.3830   30.7070   41.9930 N   0  0  0  0  0  0  0  0  0  0  0  0
  1 17  1  0  0  0  0
  2  1  2  0  0  0  0
  2 24  1  0  0  0  0
  3  2  1  0  0  0  0
  4  3  1  0  0  0  0
  4  9  1  0  0  0  0
  5  4  2  0  0  0  0
  6  5  1  0  0  0  0
  6  7  2  0  0  0  0
  7  8  1  0  0  0  0
  8  9  2  0  0  0  0
  8 14  1  0  0  0  0
  9  1  1  0  0  0  0
 10  3  1  0  0  0  0
 11  5  1  0  0  0  0
 12  6  1  0  0  0  0
 13  7  1  0  0  0  0
 15 21  1  0  0  0  0
 15 20  1  0  0  0  0
 16 15  2  0  0  0  0
 17 16  1  0  0  0  0
 17 18  2  0  0  0  0
 18 19  1  0  0  0  0
 19 20  2  0  0  0  0
 19 23  1  0  0  0  0
 22 16  1  0  0  0  0
 24 27  1  0  0  0  0
 24 26  1  0  0  0  0
 25 24  1  0  0  0  0
 27 28  1  0  0  0  0
 27 29  1  0  0  0  0
 30 33  1  6  0  0  0
 30 31  1  0  0  0  0
 30 27  1  0  0  0  0
 30 32  1  0  0  0  0
 31 32  1  0  0  0  0
 31 35  1  0  0  0  0
 32 36  1  1  0  0  0
 34 31  1  0  0  0  0
 37 38  1  0  0  0  0
 37 32  1  0  0  0  0
 38 39  2  0  0  0  0
 39 40  1  0  0  0  0
 41 40  1  0  0  0  0
 42 41  1  0  0  0  0
 43 38  1  0  0  0  0
 43 41  2  0  0  0  0
M  END
>  <minimizedAffinity>
-5.53023195

>  <minimizedRMSD>
0.600274861

$$$$
