
 OpenBabel03232518573D

 42 45  0  0  1  0  0  0  0  0999 V2000
   46.8190   33.3210   45.0620 C   0  0  0  0  0  0  0  0  0  0  0  0
   47.6890   33.2780   44.3590 H   0  0  0  0  0  0  0  0  0  0  0  0
   47.2180   33.8270   45.9620 H   0  0  0  0  0  0  0  0  0  0  0  0
   45.8050   34.1430   44.3540 C   0  0  0  0  0  0  0  0  0  0  0  0
   44.9980   34.9810   45.0720 C   0  0  0  0  0  0  0  0  0  0  0  0
   44.1590   35.6190   44.2030 C   0  0  0  0  0  0  0  0  0  0  0  0
   44.5160   35.1170   42.9720 N   0  0  0  0  0  0  0  0  0  0  0  0
   45.4870   34.2440   43.0580 N   0  0  0  0  0  0  0  0  0  0  0  0
   44.9170   35.2090   46.1330 H   0  0  0  0  0  0  0  0  0  0  0  0
   43.3800   36.3510   44.3470 H   0  0  0  0  0  0  0  0  0  0  0  0
   44.4200   34.7010   40.6060 N   0  0  0  0  0  0  0  0  0  0  0  0
   43.2860   34.2590   39.8290 C   0  0  0  0  0  0  0  0  0  0  0  0
   42.2400   34.0110   40.9280 C   0  0  0  0  0  0  0  0  0  0  0  0
   42.4010   35.2760   41.7500 C   0  0  0  0  0  0  0  0  0  0  0  0
   43.9020   35.4890   41.6940 C   0  0  1  0  0  0  0  0  0  0  0  0
   44.8760   33.8590   41.0100 H   0  0  0  0  0  0  0  0  0  0  0  0
   43.4800   33.3090   39.3010 H   0  0  0  0  0  0  0  0  0  0  0  0
   42.9620   35.0630   39.1680 H   0  0  0  0  0  0  0  0  0  0  0  0
   41.2220   33.9660   40.5340 H   0  0  0  0  0  0  0  0  0  0  0  0
   42.5350   33.1020   41.4870 H   0  0  0  0  0  0  0  0  0  0  0  0
   42.0950   35.1440   42.7990 H   0  0  0  0  0  0  0  0  0  0  0  0
   41.8880   36.0970   41.2410 H   0  0  0  0  0  0  0  0  0  0  0  0
   44.1620   36.5530   41.4580 H   0  0  0  0  0  0  0  0  0  0  0  0
   46.2740   31.9780   45.2750 C   0  0  2  0  0  0  0  0  0  0  0  0
   45.3260   31.7720   44.6920 H   0  0  0  0  0  0  0  0  0  0  0  0
   45.8160   32.2830   48.9190 C   0  0  0  0  0  0  0  0  0  0  0  0
   45.2810   30.9900   49.2500 C   0  0  0  0  0  0  0  0  0  0  0  0
   45.1010   30.0460   48.2010 C   0  0  0  0  0  0  0  0  0  0  0  0
   45.4470   30.4180   46.9270 N   0  0  0  0  0  0  0  0  0  0  0  0
   45.9390   31.6270   46.6660 C   0  0  0  0  0  0  0  0  0  0  0  0
   46.1210   32.5500   47.6580 N   0  0  0  0  0  0  0  0  0  0  0  0
   45.9280   32.9550   49.7600 H   0  0  0  0  0  0  0  0  0  0  0  0
   45.0000   30.6610   50.2210 H   0  0  0  0  0  0  0  0  0  0  0  0
   44.7020   29.0660   48.4110 H   0  0  0  0  0  0  0  0  0  0  0  0
   47.2080   30.8790   44.7100 C   0  0  0  0  0  0  0  0  0  0  0  0
   46.6490   29.9440   44.7710 H   0  0  0  0  0  0  0  0  0  0  0  0
   48.1100   30.7640   45.3690 H   0  0  0  0  0  0  0  0  0  0  0  0
   47.5530   31.1390   43.3320 C   0  0  0  0  0  0  0  0  0  0  0  0
   48.7870   31.5700   42.8030 C   0  0  0  0  0  0  0  0  0  0  0  0
   48.8720   31.7520   41.4510 C   0  0  0  0  0  0  0  0  0  0  0  0
   47.7640   31.5150   40.6230 C   0  0  0  0  0  0  0  0  0  0  0  0
   46.4650   30.9790   41.8810 S   0  0  0  0  0  0  0  0  0  0  0  0
  1 24  1  0  0  0  0
  1  3  1  0  0  0  0
  2  1  1  0  0  0  0
  4  1  1  0  0  0  0
  4  5  1  0  0  0  0
  5  9  1  0  0  0  0
  6 10  1  0  0  0  0
  6  5  2  0  0  0  0
  7  8  1  0  0  0  0
  7  6  1  0  0  0  0
  8  4  2  0  0  0  0
 11 16  1  0  0  0  0
 11 15  1  0  0  0  0
 12 11  1  0  0  0  0
 12 13  1  0  0  0  0
 13 20  1  0  0  0  0
 13 14  1  0  0  0  0
 14 21  1  0  0  0  0
 15 23  1  6  0  0  0
 15 14  1  0  0  0  0
 15  7  1  0  0  0  0
 17 12  1  0  0  0  0
 18 12  1  0  0  0  0
 19 13  1  0  0  0  0
 22 14  1  0  0  0  0
 24 25  1  6  0  0  0
 24 30  1  0  0  0  0
 26 27  1  0  0  0  0
 26 32  1  0  0  0  0
 27 33  1  0  0  0  0
 28 34  1  0  0  0  0
 28 27  2  0  0  0  0
 29 28  1  0  0  0  0
 30 29  2  0  0  0  0
 30 31  1  0  0  0  0
 31 26  2  0  0  0  0
 35 36  1  0  0  0  0
 35 24  1  0  0  0  0
 35 37  1  0  0  0  0
 38 35  1  0  0  0  0
 39 38  2  0  0  0  0
 40 39  1  0  0  0  0
 41 40  2  0  0  0  0
 41 42  1  0  0  0  0
 42 38  1  0  0  0  0
M  END
>  <minimizedAffinity>
-5.18005943

>  <minimizedRMSD>
0.513852894

$$$$
