
 OpenBabel03232521003D

 42 45  0  0  1  0  0  0  0  0999 V2000
   45.3390   32.8190   47.4440 C   0  0  0  0  0  0  0  0  0  0  0  0
   45.9330   32.5940   46.2420 C   0  0  0  0  0  0  0  0  0  0  0  0
   46.2550   31.2570   45.9930 C   0  0  0  0  0  0  0  0  0  0  0  0
   46.0030   30.2450   46.8620 N   0  0  0  0  0  0  0  0  0  0  0  0
   45.3940   30.5280   48.0740 C   0  0  0  0  0  0  0  0  0  0  0  0
   45.0800   31.7930   48.3330 N   0  0  0  0  0  0  0  0  0  0  0  0
   45.1350   29.4960   49.0120 N   0  0  0  0  0  0  0  0  0  0  0  0
   45.0530   33.8150   47.7400 H   0  0  0  0  0  0  0  0  0  0  0  0
   45.8670   28.8140   49.3650 H   0  0  0  0  0  0  0  0  0  0  0  0
   44.1680   29.3870   49.3870 H   0  0  0  0  0  0  0  0  0  0  0  0
   46.1720   33.5660   45.2310 C   0  0  2  0  0  0  0  0  0  0  0  0
   44.9650   34.6560   45.4930 C   0  0  0  0  0  0  0  0  0  0  0  0
   44.7280   35.6080   44.4430 C   0  0  0  0  0  0  0  0  0  0  0  0
   45.5200   35.5600   43.2120 C   0  0  1  0  0  0  0  0  0  0  0  0
   46.5780   34.5570   43.1370 C   0  0  0  0  0  0  0  0  0  0  0  0
   46.1300   33.3090   43.8610 C   0  0  0  0  0  0  0  0  0  0  0  0
   46.9890   34.2730   45.5700 H   0  0  0  0  0  0  0  0  0  0  0  0
   44.2970   34.7880   46.3350 H   0  0  0  0  0  0  0  0  0  0  0  0
   43.9610   36.3260   44.5770 H   0  0  0  0  0  0  0  0  0  0  0  0
   45.9580   36.5650   43.0210 H   0  0  0  0  0  0  0  0  0  0  0  0
   46.8680   34.3880   42.0810 H   0  0  0  0  0  0  0  0  0  0  0  0
   47.4990   34.9320   43.6580 H   0  0  0  0  0  0  0  0  0  0  0  0
   46.9770   32.6610   43.5120 H   0  0  0  0  0  0  0  0  0  0  0  0
   45.1720   33.0050   43.3890 H   0  0  0  0  0  0  0  0  0  0  0  0
   44.4970   35.3170   42.0610 C   0  0  0  0  0  0  0  0  0  0  0  0
   43.4200   34.5450   42.4600 F   0  0  0  0  0  0  0  0  0  0  0  0
   43.9840   36.5680   41.7290 F   0  0  0  0  0  0  0  0  0  0  0  0
   45.1580   34.8440   40.9470 F   0  0  0  0  0  0  0  0  0  0  0  0
   46.9510   30.6010   44.9010 C   0  0  0  0  0  0  0  0  0  0  0  0
   46.6740   29.7840   43.8540 C   0  0  0  0  0  0  0  0  0  0  0  0
   47.8790   29.4920   43.1960 C   0  0  0  0  0  0  0  0  0  0  0  0
   48.8210   30.1450   43.8770 N   0  0  0  0  0  0  0  0  0  0  0  0
   48.3010   30.8050   44.8840 N   0  0  0  0  0  0  0  0  0  0  0  0
   45.6410   29.5060   43.7010 H   0  0  0  0  0  0  0  0  0  0  0  0
   47.8830   28.8520   42.3260 H   0  0  0  0  0  0  0  0  0  0  0  0
   50.2120   30.0930   43.5030 C   0  0  0  0  0  0  0  0  0  0  0  0
   51.0960   29.1710   44.0680 C   0  0  0  0  0  3  0  0  0  0  0  0
   52.3010   29.4400   43.4620 C   0  0  0  0  0  0  0  0  0  0  0  0
   53.1760   28.8600   43.7190 H   0  0  0  0  0  0  0  0  0  0  0  0
   52.1390   30.4700   42.5810 N   0  0  0  0  0  0  0  0  0  0  0  0
   50.8580   30.8660   42.6120 N   0  0  0  0  0  0  0  0  0  0  0  0
   52.9500   30.8170   42.0220 H   0  0  0  0  0  0  0  0  0  0  0  0
  1  8  1  0  0  0  0
  1  6  1  0  0  0  0
  2  1  2  0  0  0  0
  3  2  1  0  0  0  0
  3  4  2  0  0  0  0
  4  5  1  0  0  0  0
  5  6  2  0  0  0  0
  5  7  1  0  0  0  0
  7  9  1  0  0  0  0
  7 10  1  0  0  0  0
 11 12  1  0  0  0  0
 11 17  1  1  0  0  0
 11  2  1  0  0  0  0
 12 18  1  0  0  0  0
 13 19  1  0  0  0  0
 13 12  2  0  0  0  0
 14 20  1  6  0  0  0
 14 13  1  0  0  0  0
 15 14  1  0  0  0  0
 15 22  1  0  0  0  0
 15 16  1  0  0  0  0
 16 11  1  0  0  0  0
 21 15  1  0  0  0  0
 23 16  1  0  0  0  0
 24 16  1  0  0  0  0
 25 26  1  0  0  0  0
 25 14  1  0  0  0  0
 27 25  1  0  0  0  0
 28 25  1  0  0  0  0
 29  3  1  0  0  0  0
 30 29  1  0  0  0  0
 31 30  2  0  0  0  0
 31 32  1  0  0  0  0
 32 33  1  0  0  0  0
 33 29  2  0  0  0  0
 34 30  1  0  0  0  0
 35 31  1  0  0  0  0
 36 32  1  0  0  0  0
 36 37  1  0  0  0  0
 38 39  1  0  0  0  0
 38 37  2  0  0  0  0
 40 41  1  0  0  0  0
 40 38  1  0  0  0  0
 41 36  2  0  0  0  0
 42 40  1  0  0  0  0
M  END
>  <minimizedAffinity>
-6.08614492

>  <minimizedRMSD>
0.357596755

$$$$
