
 OpenBabel03232519233D

 39 42  0  0  1  0  0  0  0  0999 V2000
   47.0370   30.7190   47.6350 N   0  0  0  0  0  0  0  0  0  0  0  0
   47.0360   31.0310   49.0660 C   0  0  0  0  0  0  0  0  0  0  0  0
   45.8760   31.9640   49.1680 C   0  0  0  0  0  0  0  0  0  0  0  0
   44.8310   31.3320   48.2950 C   0  0  0  0  0  0  0  0  0  0  0  0
   45.6980   30.6410   47.2250 C   0  0  2  0  0  0  0  0  0  0  0  0
   47.6100   29.8680   47.4350 H   0  0  0  0  0  0  0  0  0  0  0  0
   47.9900   31.5790   49.3030 H   0  0  0  0  0  0  0  0  0  0  0  0
   46.9430   30.1160   49.6640 H   0  0  0  0  0  0  0  0  0  0  0  0
   45.5520   31.9950   50.2330 H   0  0  0  0  0  0  0  0  0  0  0  0
   46.1710   32.9620   48.7950 H   0  0  0  0  0  0  0  0  0  0  0  0
   44.1620   32.0760   47.8200 H   0  0  0  0  0  0  0  0  0  0  0  0
   44.2620   30.6420   48.9080 H   0  0  0  0  0  0  0  0  0  0  0  0
   45.1590   29.2550   47.1580 C   0  0  0  0  0  0  0  0  0  0  0  0
   45.2940   28.0450   47.8220 C   0  0  0  0  0  0  0  0  0  0  0  0
   44.4680   27.1430   47.2160 C   0  0  0  0  0  0  0  0  0  0  0  0
   43.8370   27.7810   46.2010 N   0  0  0  0  0  0  0  0  0  0  0  0
   44.2560   29.0510   46.1710 N   0  0  0  0  0  0  0  0  0  0  0  0
   45.9960   28.0610   48.6510 H   0  0  0  0  0  0  0  0  0  0  0  0
   44.4490   26.1380   47.6100 H   0  0  0  0  0  0  0  0  0  0  0  0
   43.1500   27.2720   45.5940 H   0  0  0  0  0  0  0  0  0  0  0  0
   45.5420   31.1200   45.9520 O   0  0  0  0  0  0  0  0  0  0  0  0
   46.3820   32.1110   45.3310 C   0  0  0  0  0  0  0  0  0  0  0  0
   47.5450   31.8210   45.0470 O   0  0  0  0  0  0  0  0  0  0  0  0
   44.5850   35.2520   45.8330 C   0  0  0  0  0  0  0  0  0  0  0  0
   44.5460   35.8070   44.5500 C   0  0  0  0  0  0  0  0  0  0  0  0
   45.1340   35.1040   43.5160 C   0  0  0  0  0  0  0  0  0  0  0  0
   45.7270   33.8960   43.8080 N   0  0  0  0  0  0  0  0  0  0  0  0
   45.7230   33.4190   45.0970 C   0  0  0  0  0  0  0  0  0  0  0  0
   45.1650   34.0850   46.0800 N   0  0  0  0  0  0  0  0  0  0  0  0
   44.1120   35.8350   46.6230 H   0  0  0  0  0  0  0  0  0  0  0  0
   44.0760   36.7530   44.3490 H   0  0  0  0  0  0  0  0  0  0  0  0
   45.1580   35.5480   42.2080 O   0  0  0  0  0  0  0  0  0  0  0  0
   41.1280   35.0890   40.2500 H   0  0  0  0  0  0  0  0  0  0  0  0
   42.1310   34.9300   40.4800 N   0  0  0  0  0  0  0  0  0  0  0  0
   42.8610   35.5740   41.3620 N   0  0  0  0  0  0  0  0  0  0  0  0
   44.1350   35.0860   41.3870 C   0  0  0  0  0  0  0  0  0  0  0  0
   44.1620   34.0660   40.4380 C   0  0  0  0  0  0  0  0  0  0  0  0
   42.8840   33.9890   39.8820 C   0  0  0  0  0  0  0  0  0  0  0  0
   42.6750   33.2590   39.1160 H   0  0  0  0  0  0  0  0  0  0  0  0
  1  2  1  0  0  0  0
  2  3  1  0  0  0  0
  2  7  1  0  0  0  0
  2  8  1  0  0  0  0
  3  9  1  0  0  0  0
  4 12  1  0  0  0  0
  4  3  1  0  0  0  0
  5 21  1  6  0  0  0
  5  1  1  0  0  0  0
  5  4  1  0  0  0  0
  6  1  1  0  0  0  0
 10  3  1  0  0  0  0
 11  4  1  0  0  0  0
 13  5  1  0  0  0  0
 13 14  1  0  0  0  0
 14 18  1  0  0  0  0
 15 19  1  0  0  0  0
 15 14  2  0  0  0  0
 16 15  1  0  0  0  0
 17 16  1  0  0  0  0
 17 13  2  0  0  0  0
 20 16  1  0  0  0  0
 22 21  1  0  0  0  0
 23 22  2  0  0  0  0
 24 29  1  0  0  0  0
 24 30  1  0  0  0  0
 25 24  2  0  0  0  0
 26 27  2  0  0  0  0
 26 25  1  0  0  0  0
 27 28  1  0  0  0  0
 28 22  1  0  0  0  0
 28 29  2  0  0  0  0
 31 25  1  0  0  0  0
 32 26  1  0  0  0  0
 33 34  1  0  0  0  0
 34 35  1  0  0  0  0
 35 36  2  0  0  0  0
 36 32  1  0  0  0  0
 37 36  1  0  0  0  0
 38 37  2  0  0  0  0
 38 34  1  0  0  0  0
 39 38  1  0  0  0  0
M  END
>  <minimizedAffinity>
-5.53886414

>  <minimizedRMSD>
1.50755751

$$$$
