
 OpenBabel03232520233D

 28 31  0  0  0  0  0  0  0  0999 V2000
   45.1930   33.7970   41.5120 C   0  0  0  0  0  0  0  0  0  0  0  0
   45.8500   34.4800   42.5150 C   0  0  0  0  0  0  0  0  0  0  0  0
   47.0520   34.8750   42.0910 N   0  0  0  0  0  0  0  0  0  0  0  0
   47.1870   34.4570   40.8230 C   0  0  0  0  0  0  0  0  0  0  0  0
   48.2420   34.6120   39.9380 C   0  0  0  0  0  0  0  0  0  0  0  0
   48.1180   34.0800   38.6780 C   0  0  0  0  0  0  0  0  0  0  0  0
   46.9910   33.3820   38.2090 C   0  0  0  0  0  0  0  0  0  0  0  0
   45.9860   33.2700   39.1440 C   0  0  0  0  0  0  0  0  0  0  0  0
   46.0390   33.7760   40.4210 C   0  0  0  0  0  0  0  0  0  0  0  0
   47.7840   35.4170   42.6290 H   0  0  0  0  0  0  0  0  0  0  0  0
   49.1340   35.1350   40.2320 H   0  0  0  0  0  0  0  0  0  0  0  0
   48.9650   34.2230   38.0190 H   0  0  0  0  0  0  0  0  0  0  0  0
   46.9450   32.9850   37.2110 H   0  0  0  0  0  0  0  0  0  0  0  0
   45.0930   32.7370   38.8250 H   0  0  0  0  0  0  0  0  0  0  0  0
   41.5090   33.3460   41.1430 C   0  0  0  0  0  0  0  0  0  0  0  0
   42.7870   33.9300   41.0870 C   0  0  0  0  0  0  0  0  0  0  0  0
   43.8690   33.2040   41.5650 C   0  0  0  0  0  0  0  0  0  0  0  0
   43.6420   31.9430   42.0720 N   0  0  0  0  0  0  0  0  0  0  0  0
   42.3920   31.4190   42.1070 C   0  0  0  0  0  0  0  0  0  0  0  0
   41.3280   32.1080   41.6480 N   0  0  0  0  0  0  0  0  0  0  0  0
   40.6390   33.8780   40.7810 H   0  0  0  0  0  0  0  0  0  0  0  0
   42.8990   34.9310   40.6740 H   0  0  0  0  0  0  0  0  0  0  0  0
   42.2060   30.4300   42.5040 H   0  0  0  0  0  0  0  0  0  0  0  0
   45.3660   34.7530   43.8280 N   0  0  0  0  0  0  0  0  0  0  0  0
   44.6210   35.7400   44.3870 C   0  0  0  0  0  0  0  0  0  0  0  0
   44.4840   35.4410   45.7320 C   0  0  0  0  0  0  0  0  0  0  0  0
   45.1370   34.2870   45.9850 N   0  0  0  0  0  0  0  0  0  0  0  0
   45.6700   33.8780   44.8160 C   0  0  0  0  0  0  0  0  0  0  0  0
  1 17  1  0  0  0  0
  1  2  2  0  0  0  0
  2 24  1  0  0  0  0
  3  2  1  0  0  0  0
  3 10  1  0  0  0  0
  4  3  1  0  0  0  0
  5 11  1  0  0  0  0
  5  4  2  0  0  0  0
  6  5  1  0  0  0  0
  7  6  2  0  0  0  0
  7  8  1  0  0  0  0
  8  9  2  0  0  0  0
  9  4  1  0  0  0  0
  9  1  1  0  0  0  0
 12  6  1  0  0  0  0
 13  7  1  0  0  0  0
 14  8  1  0  0  0  0
 15 20  1  0  0  0  0
 16 15  2  0  0  0  0
 16 17  1  0  0  0  0
 17 18  2  0  0  0  0
 18 19  1  0  0  0  0
 19 23  1  0  0  0  0
 20 19  2  0  0  0  0
 21 15  1  0  0  0  0
 22 16  1  0  0  0  0
 24 25  1  0  0  0  0
 24 28  1  0  0  0  0
 25 26  2  0  0  0  0
 26 27  1  0  0  0  0
 28 27  2  0  0  0  0
M  END
>  <minimizedAffinity>
-5.469841

>  <minimizedRMSD>
3.92876983

$$$$
