
 OpenBabel03232520373D

 15 16  0  0  0  0  0  0  0  0999 V2000
   44.5550   35.3970   44.7780 C   0  0  0  0  0  0  0  0  0  0  0  0
   44.7730   34.8090   43.5080 C   0  0  0  0  0  0  0  0  0  0  0  0
   45.3980   33.5720   43.4320 C   0  0  0  0  0  0  0  0  0  0  0  0
   45.7810   32.9660   44.5950 N   0  0  0  0  0  0  0  0  0  0  0  0
   45.5610   33.5490   45.7910 C   0  0  0  0  0  0  0  0  0  0  0  0
   44.9560   34.7510   45.8860 N   0  0  0  0  0  0  0  0  0  0  0  0
   44.0660   36.3640   44.8340 H   0  0  0  0  0  0  0  0  0  0  0  0
   45.5690   33.1130   42.4720 H   0  0  0  0  0  0  0  0  0  0  0  0
   45.9680   32.9010   46.9880 N   0  0  0  0  0  0  0  0  0  0  0  0
   47.1720   32.3730   47.2870 C   0  0  0  0  0  0  0  0  0  0  0  0
   47.0910   31.8490   48.5720 C   0  0  0  0  0  0  0  0  0  0  0  0
   45.8410   32.0750   49.0160 N   0  0  0  0  0  0  0  0  0  0  0  0
   45.1510   32.7130   48.0620 C   0  0  0  0  0  0  0  0  0  0  0  0
   44.2430   35.6580   41.9970 S   0  0  0  0  0  0  0  0  0  0  0  0
   45.3380   35.6960   41.1250 H   0  0  0  0  0  0  0  0  0  0  0  0
  1  7  1  0  0  0  0
  1  6  1  0  0  0  0
  2  1  2  0  0  0  0
  3  2  1  0  0  0  0
  3  4  2  0  0  0  0
  4  5  1  0  0  0  0
  5  6  2  0  0  0  0
  5  9  1  0  0  0  0
  8  3  1  0  0  0  0
  9 10  1  0  0  0  0
  9 13  1  0  0  0  0
 10 11  2  0  0  0  0
 11 12  1  0  0  0  0
 13 12  2  0  0  0  0
 14  2  1  0  0  0  0
 15 14  1  0  0  0  0
M  END
>  <minimizedAffinity>
-4.08026314

>  <minimizedRMSD>
0.884641945

$$$$
