
 OpenBabel03232520333D

 44 48  0  0  1  0  0  0  0  0999 V2000
   46.9030   34.5340   41.3280 C   0  0  0  0  0  0  0  0  0  0  0  0
   48.1760   34.9480   40.9740 C   0  0  0  0  0  0  0  0  0  0  0  0
   48.4350   34.6220   39.7100 N   0  0  0  0  0  0  0  0  0  0  0  0
   47.3360   33.9950   39.2370 C   0  0  0  0  0  0  0  0  0  0  0  0
   47.0780   33.4540   37.9800 C   0  0  0  0  0  0  0  0  0  0  0  0
   45.8670   32.8680   37.7580 C   0  0  0  0  0  0  0  0  0  0  0  0
   44.8560   32.7640   38.6940 C   0  0  0  0  0  0  0  0  0  0  0  0
   45.1660   33.3160   39.9160 C   0  0  0  0  0  0  0  0  0  0  0  0
   46.3540   33.9210   40.2200 C   0  0  0  0  0  0  0  0  0  0  0  0
   49.3010   34.7820   39.1150 H   0  0  0  0  0  0  0  0  0  0  0  0
   47.8250   33.4940   37.1820 H   0  0  0  0  0  0  0  0  0  0  0  0
   45.6870   32.4490   36.7630 H   0  0  0  0  0  0  0  0  0  0  0  0
   43.9230   32.2850   38.4440 H   0  0  0  0  0  0  0  0  0  0  0  0
   44.4200   33.2750   40.7080 H   0  0  0  0  0  0  0  0  0  0  0  0
   44.7670   35.9510   44.0390 C   0  0  0  0  0  0  0  0  0  0  0  0
   45.4050   35.8050   42.7920 C   0  0  0  0  0  0  0  0  0  0  0  0
   46.2360   34.6980   42.6170 C   0  0  0  0  0  0  0  0  0  0  0  0
   46.4030   33.8070   43.6450 N   0  0  0  0  0  0  0  0  0  0  0  0
   45.7590   34.0050   44.8250 C   0  0  0  0  0  0  0  0  0  0  0  0
   44.9480   35.0640   45.0290 N   0  0  0  0  0  0  0  0  0  0  0  0
   44.1310   36.8200   44.1370 H   0  0  0  0  0  0  0  0  0  0  0  0
   45.2740   36.5040   41.9850 H   0  0  0  0  0  0  0  0  0  0  0  0
   45.9340   33.2640   45.5970 H   0  0  0  0  0  0  0  0  0  0  0  0
   49.1010   35.6530   41.8880 C   0  0  0  0  0  0  0  0  0  0  0  0
   49.6520   36.4560   41.3490 H   0  0  0  0  0  0  0  0  0  0  0  0
   48.5120   36.1830   42.6790 H   0  0  0  0  0  0  0  0  0  0  0  0
   50.0110   34.7070   42.6070 C   0  0  0  0  0  0  0  0  0  0  0  0
   51.0270   35.1770   42.6360 H   0  0  0  0  0  0  0  0  0  0  0  0
   49.7350   34.5660   43.6690 H   0  0  0  0  0  0  0  0  0  0  0  0
   50.1900   33.3820   41.9250 C   0  0  1  0  0  0  0  0  0  0  0  0
   51.0500   32.3090   42.4260 C   0  0  0  0  0  0  0  0  0  0  0  0
   49.5850   32.1940   42.6940 C   0  0  2  0  0  0  0  0  0  0  0  0
   50.0000   33.3750   40.8200 H   0  0  0  0  0  0  0  0  0  0  0  0
   51.5430   31.6310   41.6980 H   0  0  0  0  0  0  0  0  0  0  0  0
   51.7140   32.5660   43.2850 H   0  0  0  0  0  0  0  0  0  0  0  0
   49.2750   32.3600   43.7530 H   0  0  0  0  0  0  0  0  0  0  0  0
   48.9060   31.2240   42.0030 O   0  0  0  0  0  0  0  0  0  0  0  0
   44.6280   29.8440   42.2290 H   0  0  0  0  0  0  0  0  0  0  0  0
   45.6040   30.1000   42.4650 N   0  0  0  0  0  0  0  0  0  0  0  0
   46.5960   30.5670   41.6940 N   0  0  0  0  0  0  0  0  0  0  0  0
   47.6960   30.7490   42.4800 C   0  0  0  0  0  0  0  0  0  0  0  0
   47.3770   30.3840   43.7730 C   0  0  0  0  0  0  0  0  0  0  0  0
   46.0450   29.9760   43.7390 C   0  0  0  0  0  0  0  0  0  0  0  0
   45.5310   29.6330   44.6310 H   0  0  0  0  0  0  0  0  0  0  0  0
  1 17  1  0  0  0  0
  2  1  2  0  0  0  0
  2 24  1  0  0  0  0
  3  2  1  0  0  0  0
  4  3  1  0  0  0  0
  4  9  1  0  0  0  0
  5  4  2  0  0  0  0
  6  5  1  0  0  0  0
  6  7  2  0  0  0  0
  7  8  1  0  0  0  0
  8  9  2  0  0  0  0
  8 14  1  0  0  0  0
  9  1  1  0  0  0  0
 10  3  1  0  0  0  0
 11  5  1  0  0  0  0
 12  6  1  0  0  0  0
 13  7  1  0  0  0  0
 15 21  1  0  0  0  0
 15 20  1  0  0  0  0
 16 15  2  0  0  0  0
 17 16  1  0  0  0  0
 17 18  2  0  0  0  0
 18 19  1  0  0  0  0
 19 20  2  0  0  0  0
 19 23  1  0  0  0  0
 22 16  1  0  0  0  0
 24 27  1  0  0  0  0
 24 26  1  0  0  0  0
 25 24  1  0  0  0  0
 27 28  1  0  0  0  0
 27 29  1  0  0  0  0
 30 33  1  6  0  0  0
 30 31  1  0  0  0  0
 30 27  1  0  0  0  0
 30 32  1  0  0  0  0
 31 32  1  0  0  0  0
 31 35  1  0  0  0  0
 32 36  1  1  0  0  0
 34 31  1  0  0  0  0
 37 41  1  0  0  0  0
 37 32  1  0  0  0  0
 38 39  1  0  0  0  0
 39 43  1  0  0  0  0
 40 39  1  0  0  0  0
 40 41  2  0  0  0  0
 41 42  1  0  0  0  0
 43 42  2  0  0  0  0
 43 44  1  0  0  0  0
M  END
>  <minimizedAffinity>
-5.52119589

>  <minimizedRMSD>
0.567320466

$$$$
