
 OpenBabel03232520453D

 37 40  0  0  0  0  0  0  0  0999 V2000
   46.4020   34.6580   42.1920 C   0  0  0  0  0  0  0  0  0  0  0  0
   47.7130   35.0100   42.0500 C   0  0  0  0  0  0  0  0  0  0  0  0
   48.4130   34.8050   40.8610 C   0  0  0  0  0  0  0  0  0  0  0  0
   47.7520   34.2150   39.7630 C   0  0  0  0  0  0  0  0  0  0  0  0
   46.4370   33.8660   39.9160 C   0  0  0  0  0  0  0  0  0  0  0  0
   45.7850   34.0890   41.1170 C   0  0  0  0  0  0  0  0  0  0  0  0
   48.2410   35.4630   42.8780 H   0  0  0  0  0  0  0  0  0  0  0  0
   49.4510   35.1140   40.8350 H   0  0  0  0  0  0  0  0  0  0  0  0
   48.3260   34.0720   38.8580 H   0  0  0  0  0  0  0  0  0  0  0  0
   45.9250   33.4120   39.0730 H   0  0  0  0  0  0  0  0  0  0  0  0
   44.3870   36.1370   45.0120 C   0  0  0  0  0  0  0  0  0  0  0  0
   44.9510   36.0030   43.7450 C   0  0  0  0  0  0  0  0  0  0  0  0
   45.7560   34.9120   43.4750 C   0  0  0  0  0  0  0  0  0  0  0  0
   45.9600   34.0220   44.4540 N   0  0  0  0  0  0  0  0  0  0  0  0
   45.3970   34.1740   45.6910 C   0  0  0  0  0  0  0  0  0  0  0  0
   44.6180   35.2320   45.9490 N   0  0  0  0  0  0  0  0  0  0  0  0
   43.7570   36.9920   45.2250 H   0  0  0  0  0  0  0  0  0  0  0  0
   44.7910   36.7170   42.9470 H   0  0  0  0  0  0  0  0  0  0  0  0
   45.7180   33.1270   46.6310 N   0  0  0  0  0  0  0  0  0  0  0  0
   45.2050   32.5720   47.7300 C   0  0  0  0  0  0  0  0  0  0  0  0
   46.0780   31.5710   48.1310 C   0  0  0  0  0  0  0  0  0  0  0  0
   47.1110   31.5470   47.2480 N   0  0  0  0  0  0  0  0  0  0  0  0
   46.8890   32.5150   46.3160 C   0  0  0  0  0  0  0  0  0  0  0  0
   44.4200   33.7090   41.2240 N   0  0  0  0  0  0  0  0  0  0  0  0
   43.5970   34.6650   40.6780 C   0  0  0  0  0  0  0  0  0  0  0  0
   42.2180   34.5000   40.6740 C   0  0  0  0  0  0  0  0  0  0  0  0
   41.7120   33.3470   41.2350 C   0  0  0  0  0  0  0  0  0  0  0  0
   40.4710   33.1260   41.2690 O   0  0  0  0  0  0  0  0  0  0  0  0
   42.5440   32.4320   41.7600 N   0  0  0  0  0  0  0  0  0  0  0  0
   43.8760   32.6080   41.7550 C   0  0  0  0  0  0  0  0  0  0  0  0
   44.7270   31.8140   42.2190 O   0  0  0  0  0  0  0  0  0  0  0  0
   43.9310   35.5890   40.2240 H   0  0  0  0  0  0  0  0  0  0  0  0
   42.1890   31.5400   42.1960 H   0  0  0  0  0  0  0  0  0  0  0  0
   41.3010   35.5180   40.0900 C   0  0  0  0  0  0  0  0  0  0  0  0
   40.3970   35.6190   40.7260 H   0  0  0  0  0  0  0  0  0  0  0  0
   41.8240   36.5040   40.0920 H   0  0  0  0  0  0  0  0  0  0  0  0
   41.0220   35.3010   39.0500 H   0  0  0  0  0  0  0  0  0  0  0  0
  1 13  1  0  0  0  0
  2  1  1  0  0  0  0
  2  7  1  0  0  0  0
  3  2  2  0  0  0  0
  4  5  2  0  0  0  0
  4  3  1  0  0  0  0
  5  6  1  0  0  0  0
  6 24  1  0  0  0  0
  6  1  2  0  0  0  0
  8  3  1  0  0  0  0
  9  4  1  0  0  0  0
 10  5  1  0  0  0  0
 11 17  1  0  0  0  0
 11 16  1  0  0  0  0
 12 11  2  0  0  0  0
 13 12  1  0  0  0  0
 13 14  2  0  0  0  0
 14 15  1  0  0  0  0
 15 16  2  0  0  0  0
 15 19  1  0  0  0  0
 18 12  1  0  0  0  0
 19 20  1  0  0  0  0
 20 21  2  0  0  0  0
 22 21  1  0  0  0  0
 23 19  1  0  0  0  0
 23 22  2  0  0  0  0
 24 30  1  0  0  0  0
 25 24  1  0  0  0  0
 26 25  2  0  0  0  0
 26 27  1  0  0  0  0
 27 28  2  0  0  0  0
 27 29  1  0  0  0  0
 29 33  1  0  0  0  0
 30 29  1  0  0  0  0
 30 31  2  0  0  0  0
 32 25  1  0  0  0  0
 34 36  1  0  0  0  0
 34 26  1  0  0  0  0
 34 35  1  0  0  0  0
 37 34  1  0  0  0  0
M  END
>  <minimizedAffinity>
-7.7053628

>  <minimizedRMSD>
0.0726956427

$$$$
