
 OpenBabel03232519153D

 32 34  0  0  1  0  0  0  0  0999 V2000
   44.4860   35.7100   43.6400 C   0  0  1  0  0  0  0  0  0  0  0  0
   43.8250   35.8670   44.5230 H   0  0  0  0  0  0  0  0  0  0  0  0
   45.4840   34.6890   43.9820 C   0  0  0  0  0  0  0  0  0  0  0  0
   46.4840   34.3810   43.0330 C   0  0  0  0  0  0  0  0  0  0  0  0
   47.4480   33.4080   43.3370 C   0  0  0  0  0  0  0  0  0  0  0  0
   47.3560   32.8140   44.5530 N   0  0  0  0  0  0  0  0  0  0  0  0
   46.4100   33.1190   45.4270 C   0  0  0  0  0  0  0  0  0  0  0  0
   45.4730   34.0480   45.1590 N   0  0  0  0  0  0  0  0  0  0  0  0
   46.5580   34.8540   42.0630 H   0  0  0  0  0  0  0  0  0  0  0  0
   48.2290   33.1490   42.6290 H   0  0  0  0  0  0  0  0  0  0  0  0
   46.3220   32.4690   46.7400 C   0  0  0  0  0  0  0  0  0  0  0  0
   47.3530   31.5920   47.1200 C   0  0  0  0  0  0  0  0  0  0  0  0
   46.7640   31.0650   48.8090 S   0  0  0  0  0  0  0  0  0  0  0  0
   45.2310   32.1380   48.6710 C   0  0  0  0  0  0  0  0  0  0  0  0
   45.3930   32.5800   47.6530 N   0  0  0  0  0  0  0  0  0  0  0  0
   48.2950   31.2780   46.5660 H   0  0  0  0  0  0  0  0  0  0  0  0
   44.4310   32.2520   49.4270 H   0  0  0  0  0  0  0  0  0  0  0  0
   45.1630   37.0590   43.4090 C   0  0  0  0  0  0  0  0  0  0  0  0
   45.9950   36.9450   42.6930 H   0  0  0  0  0  0  0  0  0  0  0  0
   45.6070   37.3600   44.3810 H   0  0  0  0  0  0  0  0  0  0  0  0
   44.4250   37.7990   43.1000 H   0  0  0  0  0  0  0  0  0  0  0  0
   43.6760   35.3630   42.4380 C   0  0  0  0  0  0  0  0  0  0  0  0
   43.7980   34.2500   42.2920 H   0  0  0  0  0  0  0  0  0  0  0  0
   44.0600   35.8360   41.5340 H   0  0  0  0  0  0  0  0  0  0  0  0
   42.2800   35.5860   42.6140 N   0  0  0  0  0  0  0  0  0  0  0  0
   41.9060   36.0720   43.4650 H   0  0  0  0  0  0  0  0  0  0  0  0
   41.2320   35.2180   41.7340 C   0  0  0  0  0  0  0  0  0  0  0  0
   40.7090   36.2520   41.0200 N   0  0  0  0  0  0  0  0  0  0  0  0
   39.7610   35.8090   40.2500 O   0  0  0  0  0  0  0  0  0  0  0  0
   39.6110   34.5180   40.4080 C   0  0  0  0  0  0  0  0  0  0  0  0
   38.9170   33.8440   39.9260 H   0  0  0  0  0  0  0  0  0  0  0  0
   40.5190   34.1500   41.3260 N   0  0  0  0  0  0  0  0  0  0  0  0
  1  3  1  0  0  0  0
  1  2  1  1  0  0  0
  3  8  1  0  0  0  0
  4  5  1  0  0  0  0
  4  3  2  0  0  0  0
  5  6  2  0  0  0  0
  6  7  1  0  0  0  0
  7 11  1  0  0  0  0
  8  7  2  0  0  0  0
  9  4  1  0  0  0  0
 10  5  1  0  0  0  0
 11 12  2  0  0  0  0
 11 15  1  0  0  0  0
 12 13  1  0  0  0  0
 14 13  1  0  0  0  0
 14 17  1  0  0  0  0
 15 14  2  0  0  0  0
 16 12  1  0  0  0  0
 18  1  1  0  0  0  0
 18 20  1  0  0  0  0
 19 18  1  0  0  0  0
 21 18  1  0  0  0  0
 22 25  1  0  0  0  0
 22  1  1  0  0  0  0
 23 22  1  0  0  0  0
 24 22  1  0  0  0  0
 25 26  1  0  0  0  0
 27 25  1  0  0  0  0
 28 27  2  0  0  0  0
 29 30  1  0  0  0  0
 29 28  1  0  0  0  0
 30 32  2  0  0  0  0
 31 30  1  0  0  0  0
 32 27  1  0  0  0  0
M  END
>  <minimizedAffinity>
-5.80258751

>  <minimizedRMSD>
2.69363093

$$$$
