
 OpenBabel03232521003D

 42 45  0  0  1  0  0  0  0  0999 V2000
   45.3590   32.9160   47.5170 C   0  0  0  0  0  0  0  0  0  0  0  0
   45.9100   32.6510   46.3020 C   0  0  0  0  0  0  0  0  0  0  0  0
   46.1730   31.2990   46.0660 C   0  0  0  0  0  0  0  0  0  0  0  0
   45.9080   30.3100   46.9570 N   0  0  0  0  0  0  0  0  0  0  0  0
   45.3440   30.6350   48.1810 C   0  0  0  0  0  0  0  0  0  0  0  0
   45.0870   31.9140   48.4290 N   0  0  0  0  0  0  0  0  0  0  0  0
   45.0740   29.6270   49.1420 N   0  0  0  0  0  0  0  0  0  0  0  0
   45.1200   33.9270   47.8050 H   0  0  0  0  0  0  0  0  0  0  0  0
   45.7890   28.9220   49.4850 H   0  0  0  0  0  0  0  0  0  0  0  0
   44.1140   29.5610   49.5450 H   0  0  0  0  0  0  0  0  0  0  0  0
   46.1560   33.5980   45.2700 C   0  0  2  0  0  0  0  0  0  0  0  0
   44.9490   34.6960   45.4990 C   0  0  0  0  0  0  0  0  0  0  0  0
   44.7200   35.6230   44.4240 C   0  0  0  0  0  0  0  0  0  0  0  0
   45.5210   35.5440   43.2000 C   0  0  1  0  0  0  0  0  0  0  0  0
   46.5770   34.5390   43.1550 C   0  0  0  0  0  0  0  0  0  0  0  0
   46.1230   33.3090   43.9070 C   0  0  0  0  0  0  0  0  0  0  0  0
   46.9720   34.3120   45.5970 H   0  0  0  0  0  0  0  0  0  0  0  0
   44.2760   34.8500   46.3330 H   0  0  0  0  0  0  0  0  0  0  0  0
   43.9540   36.3450   44.5360 H   0  0  0  0  0  0  0  0  0  0  0  0
   45.9610   36.5440   42.9880 H   0  0  0  0  0  0  0  0  0  0  0  0
   46.8740   34.3440   42.1060 H   0  0  0  0  0  0  0  0  0  0  0  0
   47.4950   34.9250   43.6740 H   0  0  0  0  0  0  0  0  0  0  0  0
   46.9710   32.6520   43.5780 H   0  0  0  0  0  0  0  0  0  0  0  0
   45.1670   32.9950   43.4360 H   0  0  0  0  0  0  0  0  0  0  0  0
   44.5040   35.2760   42.0490 C   0  0  0  0  0  0  0  0  0  0  0  0
   43.4480   34.4760   42.4470 F   0  0  0  0  0  0  0  0  0  0  0  0
   43.9580   36.5130   41.7170 F   0  0  0  0  0  0  0  0  0  0  0  0
   45.1780   34.8200   40.9340 F   0  0  0  0  0  0  0  0  0  0  0  0
   46.8110   30.6010   44.9650 C   0  0  0  0  0  0  0  0  0  0  0  0
   46.4670   29.8310   43.9020 C   0  0  0  0  0  0  0  0  0  0  0  0
   47.6440   29.4410   43.2440 C   0  0  0  0  0  0  0  0  0  0  0  0
   48.6380   29.9930   43.9410 N   0  0  0  0  0  0  0  0  0  0  0  0
   48.1750   30.6810   44.9570 N   0  0  0  0  0  0  0  0  0  0  0  0
   45.4140   29.6530   43.7400 H   0  0  0  0  0  0  0  0  0  0  0  0
   47.5940   28.8180   42.3630 H   0  0  0  0  0  0  0  0  0  0  0  0
   50.0210   29.8190   43.5720 C   0  0  0  0  0  0  0  0  0  0  0  0
   50.6490   30.6500   42.6420 C   0  0  0  0  0  3  0  0  0  0  0  0
   51.9340   30.1680   42.5680 C   0  0  0  0  0  0  0  0  0  0  0  0
   52.6490   30.6370   41.9080 H   0  0  0  0  0  0  0  0  0  0  0  0
   52.0630   29.1040   43.4130 N   0  0  0  0  0  0  0  0  0  0  0  0
   50.8870   28.8960   44.0240 N   0  0  0  0  0  0  0  0  0  0  0  0
   52.9750   28.6020   43.4940 H   0  0  0  0  0  0  0  0  0  0  0  0
  1  8  1  0  0  0  0
  1  6  1  0  0  0  0
  2  1  2  0  0  0  0
  3  2  1  0  0  0  0
  3  4  2  0  0  0  0
  4  5  1  0  0  0  0
  5  6  2  0  0  0  0
  5  7  1  0  0  0  0
  7  9  1  0  0  0  0
  7 10  1  0  0  0  0
 11 12  1  0  0  0  0
 11 17  1  1  0  0  0
 11  2  1  0  0  0  0
 12 18  1  0  0  0  0
 13 19  1  0  0  0  0
 13 12  2  0  0  0  0
 14 20  1  6  0  0  0
 14 13  1  0  0  0  0
 15 14  1  0  0  0  0
 15 22  1  0  0  0  0
 15 16  1  0  0  0  0
 16 11  1  0  0  0  0
 21 15  1  0  0  0  0
 23 16  1  0  0  0  0
 24 16  1  0  0  0  0
 25 26  1  0  0  0  0
 25 14  1  0  0  0  0
 27 25  1  0  0  0  0
 28 25  1  0  0  0  0
 29  3  1  0  0  0  0
 30 29  1  0  0  0  0
 31 30  2  0  0  0  0
 31 32  1  0  0  0  0
 32 33  1  0  0  0  0
 33 29  2  0  0  0  0
 34 30  1  0  0  0  0
 35 31  1  0  0  0  0
 36 32  1  0  0  0  0
 36 41  2  0  0  0  0
 37 36  1  0  0  0  0
 38 37  2  0  0  0  0
 38 40  1  0  0  0  0
 39 38  1  0  0  0  0
 40 42  1  0  0  0  0
 40 41  1  0  0  0  0
M  END
>  <minimizedAffinity>
-6.01206589

>  <minimizedRMSD>
0.153794035

$$$$
