
 OpenBabel03232521003D

 42 45  0  0  1  0  0  0  0  0999 V2000
   45.3980   32.8820   47.5070 C   0  0  0  0  0  0  0  0  0  0  0  0
   45.9220   32.6260   46.2780 C   0  0  0  0  0  0  0  0  0  0  0  0
   46.1570   31.2740   46.0160 C   0  0  0  0  0  0  0  0  0  0  0  0
   45.8910   30.2760   46.8960 N   0  0  0  0  0  0  0  0  0  0  0  0
   45.3570   30.5910   48.1360 C   0  0  0  0  0  0  0  0  0  0  0  0
   45.1260   31.8710   48.4080 N   0  0  0  0  0  0  0  0  0  0  0  0
   45.0860   29.5730   49.0860 N   0  0  0  0  0  0  0  0  0  0  0  0
   45.1830   33.8930   47.8140 H   0  0  0  0  0  0  0  0  0  0  0  0
   45.7950   28.8510   49.4040 H   0  0  0  0  0  0  0  0  0  0  0  0
   44.1330   29.5170   49.5060 H   0  0  0  0  0  0  0  0  0  0  0  0
   46.1660   33.5850   45.2560 C   0  0  2  0  0  0  0  0  0  0  0  0
   44.9560   34.6780   45.4960 C   0  0  0  0  0  0  0  0  0  0  0  0
   44.7240   35.6150   44.4320 C   0  0  0  0  0  0  0  0  0  0  0  0
   45.5250   35.5520   43.2070 C   0  0  1  0  0  0  0  0  0  0  0  0
   46.5830   34.5500   43.1510 C   0  0  0  0  0  0  0  0  0  0  0  0
   46.1330   33.3110   43.8890 C   0  0  0  0  0  0  0  0  0  0  0  0
   46.9800   34.2980   45.5900 H   0  0  0  0  0  0  0  0  0  0  0  0
   44.2830   34.8210   46.3320 H   0  0  0  0  0  0  0  0  0  0  0  0
   43.9560   36.3350   44.5520 H   0  0  0  0  0  0  0  0  0  0  0  0
   45.9630   36.5550   43.0060 H   0  0  0  0  0  0  0  0  0  0  0  0
   46.8810   34.3670   42.1000 H   0  0  0  0  0  0  0  0  0  0  0  0
   47.5010   34.9330   43.6730 H   0  0  0  0  0  0  0  0  0  0  0  0
   46.9820   32.6600   43.5540 H   0  0  0  0  0  0  0  0  0  0  0  0
   45.1780   32.9990   43.4160 H   0  0  0  0  0  0  0  0  0  0  0  0
   44.5090   35.2930   42.0530 C   0  0  0  0  0  0  0  0  0  0  0  0
   43.4420   34.5060   42.4500 F   0  0  0  0  0  0  0  0  0  0  0  0
   43.9780   36.5370   41.7180 F   0  0  0  0  0  0  0  0  0  0  0  0
   45.1800   34.8290   40.9410 F   0  0  0  0  0  0  0  0  0  0  0  0
   46.7630   30.5830   44.8920 C   0  0  0  0  0  0  0  0  0  0  0  0
   46.3840   29.8480   43.8160 C   0  0  0  0  0  0  0  0  0  0  0  0
   47.5420   29.4380   43.1360 C   0  0  0  0  0  0  0  0  0  0  0  0
   48.5590   29.9430   43.8350 N   0  0  0  0  0  0  0  0  0  0  0  0
   48.1280   30.6210   44.8720 N   0  0  0  0  0  0  0  0  0  0  0  0
   45.3240   29.7060   43.6610 H   0  0  0  0  0  0  0  0  0  0  0  0
   47.4640   28.8380   42.2420 H   0  0  0  0  0  0  0  0  0  0  0  0
   49.9320   29.7350   43.4470 C   0  0  0  0  0  0  0  0  0  0  0  0
   50.6710   30.7180   42.7840 C   0  0  0  0  0  3  0  0  0  0  0  0
   51.9070   30.1450   42.5950 C   0  0  0  0  0  0  0  0  0  0  0  0
   52.6870   30.6990   42.0950 H   0  0  0  0  0  0  0  0  0  0  0  0
   51.9020   28.8850   43.1220 N   0  0  0  0  0  0  0  0  0  0  0  0
   50.6900   28.6420   43.6420 N   0  0  0  0  0  0  0  0  0  0  0  0
   52.7590   28.2910   43.0740 H   0  0  0  0  0  0  0  0  0  0  0  0
  1  8  1  0  0  0  0
  1  6  1  0  0  0  0
  2  1  2  0  0  0  0
  3  2  1  0  0  0  0
  3  4  2  0  0  0  0
  4  5  1  0  0  0  0
  5  6  2  0  0  0  0
  5  7  1  0  0  0  0
  7  9  1  0  0  0  0
  7 10  1  0  0  0  0
 11 12  1  0  0  0  0
 11 17  1  1  0  0  0
 11  2  1  0  0  0  0
 12 18  1  0  0  0  0
 13 19  1  0  0  0  0
 13 12  2  0  0  0  0
 14 20  1  6  0  0  0
 14 13  1  0  0  0  0
 15 14  1  0  0  0  0
 15 22  1  0  0  0  0
 15 16  1  0  0  0  0
 16 11  1  0  0  0  0
 21 15  1  0  0  0  0
 23 16  1  0  0  0  0
 24 16  1  0  0  0  0
 25 26  1  0  0  0  0
 25 14  1  0  0  0  0
 27 25  1  0  0  0  0
 28 25  1  0  0  0  0
 29  3  1  0  0  0  0
 30 29  1  0  0  0  0
 31 30  2  0  0  0  0
 31 32  1  0  0  0  0
 32 33  1  0  0  0  0
 33 29  2  0  0  0  0
 34 30  1  0  0  0  0
 35 31  1  0  0  0  0
 36 41  2  0  0  0  0
 36 32  1  0  0  0  0
 37 36  1  0  0  0  0
 38 37  2  0  0  0  0
 38 40  1  0  0  0  0
 39 38  1  0  0  0  0
 40 41  1  0  0  0  0
 42 40  1  0  0  0  0
M  END
>  <minimizedAffinity>
-6.02710629

>  <minimizedRMSD>
0.0913615301

$$$$
