
 OpenBabel03232520053D

 29 32  0  0  0  0  0  0  0  0999 V2000
   46.1800   30.3830   49.1400 N   0  0  0  0  0  0  0  0  0  0  0  0
   45.3220   31.3910   49.4350 C   0  0  0  0  0  0  0  0  0  0  0  0
   45.2430   32.2270   48.3700 N   0  0  0  0  0  0  0  0  0  0  0  0
   46.0670   31.6980   47.4440 C   0  0  0  0  0  0  0  0  0  0  0  0
   46.3180   32.2050   46.1840 C   0  0  0  0  0  0  0  0  0  0  0  0
   47.1920   31.5150   45.3950 N   0  0  0  0  0  0  0  0  0  0  0  0
   47.7870   30.3900   45.8140 C   0  0  0  0  0  0  0  0  0  0  0  0
   47.5130   29.9310   47.0520 N   0  0  0  0  0  0  0  0  0  0  0  0
   46.6760   30.5410   47.8820 C   0  0  0  0  0  0  0  0  0  0  0  0
   46.4660   29.5630   49.7510 H   0  0  0  0  0  0  0  0  0  0  0  0
   44.7870   31.4970   50.3850 H   0  0  0  0  0  0  0  0  0  0  0  0
   48.7050   29.6450   45.0170 N   0  0  0  0  0  0  0  0  0  0  0  0
   48.7990   30.0630   43.7230 C   0  0  0  0  0  0  0  0  0  0  0  0
   49.7320   29.2250   43.1080 C   0  0  0  0  0  0  0  0  0  0  0  0
   50.1690   28.3370   44.0300 N   0  0  0  0  0  0  0  0  0  0  0  0
   49.5290   28.6130   45.1900 C   0  0  0  0  0  0  0  0  0  0  0  0
   45.6390   33.6660   45.4460 S   0  0  0  0  0  0  0  0  0  0  0  0
   47.7760   34.7090   42.3390 C   0  0  0  0  0  0  0  0  0  0  0  0
   47.0670   34.3280   41.2100 C   0  0  0  0  0  0  0  0  0  0  0  0
   45.8420   33.7040   41.4280 C   0  0  0  0  0  0  0  0  0  0  0  0
   45.4160   33.5070   42.7100 N   0  0  0  0  0  0  0  0  0  0  0  0
   46.1540   33.9020   43.7740 C   0  0  0  0  0  0  0  0  0  0  0  0
   47.3240   34.4990   43.5810 N   0  0  0  0  0  0  0  0  0  0  0  0
   47.3960   34.4790   40.1930 H   0  0  0  0  0  0  0  0  0  0  0  0
   45.1960   33.3600   40.6400 H   0  0  0  0  0  0  0  0  0  0  0  0
   49.0830   35.3750   42.1380 C   0  0  0  0  0  0  0  0  0  0  0  0
   49.2440   36.1460   41.1650 O   0  0  0  0  0  0  0  0  0  0  0  0
   50.1120   35.1390   43.0260 O   0  0  0  0  0  0  0  0  0  0  0  0
   51.0750   35.1040   42.6630 H   0  0  0  0  0  0  0  0  0  0  0  0
  1  2  1  0  0  0  0
  1 10  1  0  0  0  0
  2 11  1  0  0  0  0
  3  2  2  0  0  0  0
  4  9  1  0  0  0  0
  4  3  1  0  0  0  0
  5  4  2  0  0  0  0
  6  7  2  0  0  0  0
  6  5  1  0  0  0  0
  7  8  1  0  0  0  0
  8  9  2  0  0  0  0
  9  1  1  0  0  0  0
 12 16  1  0  0  0  0
 12  7  1  0  0  0  0
 13 12  1  0  0  0  0
 14 13  2  0  0  0  0
 14 15  1  0  0  0  0
 15 16  2  0  0  0  0
 17  5  1  0  0  0  0
 18 23  1  0  0  0  0
 19 20  1  0  0  0  0
 19 18  2  0  0  0  0
 20 21  2  0  0  0  0
 21 22  1  0  0  0  0
 22 17  1  0  0  0  0
 23 22  2  0  0  0  0
 24 19  1  0  0  0  0
 25 20  1  0  0  0  0
 26 18  1  0  0  0  0
 26 28  1  0  0  0  0
 27 26  2  0  0  0  0
 29 28  1  0  0  0  0
M  END
>  <minimizedAffinity>
-5.9874897

>  <minimizedRMSD>
0.120728806

$$$$
