
 OpenBabel03232521013D

 42 45  0  0  1  0  0  0  0  0999 V2000
   45.4050   32.8570   47.5070 C   0  0  0  0  0  0  0  0  0  0  0  0
   45.9300   32.6070   46.2780 C   0  0  0  0  0  0  0  0  0  0  0  0
   46.1650   31.2560   46.0090 C   0  0  0  0  0  0  0  0  0  0  0  0
   45.8980   30.2540   46.8840 N   0  0  0  0  0  0  0  0  0  0  0  0
   45.3620   30.5630   48.1250 C   0  0  0  0  0  0  0  0  0  0  0  0
   45.1320   31.8400   48.4040 N   0  0  0  0  0  0  0  0  0  0  0  0
   45.0900   29.5390   49.0690 N   0  0  0  0  0  0  0  0  0  0  0  0
   45.1900   33.8650   47.8200 H   0  0  0  0  0  0  0  0  0  0  0  0
   45.7980   28.8160   49.3850 H   0  0  0  0  0  0  0  0  0  0  0  0
   44.1360   29.4820   49.4880 H   0  0  0  0  0  0  0  0  0  0  0  0
   46.1760   33.5710   45.2610 C   0  0  2  0  0  0  0  0  0  0  0  0
   44.9620   34.6590   45.5010 C   0  0  0  0  0  0  0  0  0  0  0  0
   44.7320   35.6000   44.4400 C   0  0  0  0  0  0  0  0  0  0  0  0
   45.5380   35.5440   43.2180 C   0  0  1  0  0  0  0  0  0  0  0  0
   46.6000   34.5450   43.1620 C   0  0  0  0  0  0  0  0  0  0  0  0
   46.1500   33.3020   43.8930 C   0  0  0  0  0  0  0  0  0  0  0  0
   46.9860   34.2840   45.6020 H   0  0  0  0  0  0  0  0  0  0  0  0
   44.2850   34.7960   46.3350 H   0  0  0  0  0  0  0  0  0  0  0  0
   43.9620   36.3170   44.5600 H   0  0  0  0  0  0  0  0  0  0  0  0
   45.9740   36.5490   43.0230 H   0  0  0  0  0  0  0  0  0  0  0  0
   46.9020   34.3680   42.1110 H   0  0  0  0  0  0  0  0  0  0  0  0
   47.5140   34.9290   43.6900 H   0  0  0  0  0  0  0  0  0  0  0  0
   47.0020   32.6540   43.5580 H   0  0  0  0  0  0  0  0  0  0  0  0
   45.1970   32.9900   43.4140 H   0  0  0  0  0  0  0  0  0  0  0  0
   44.5270   35.2880   42.0590 C   0  0  0  0  0  0  0  0  0  0  0  0
   43.4600   34.4990   42.4480 F   0  0  0  0  0  0  0  0  0  0  0  0
   43.9970   36.5320   41.7240 F   0  0  0  0  0  0  0  0  0  0  0  0
   45.2040   34.8270   40.9490 F   0  0  0  0  0  0  0  0  0  0  0  0
   46.7720   30.5700   44.8830 C   0  0  0  0  0  0  0  0  0  0  0  0
   46.3920   29.8670   43.7860 C   0  0  0  0  0  0  0  0  0  0  0  0
   47.5510   29.4380   43.1180 C   0  0  0  0  0  0  0  0  0  0  0  0
   48.5690   29.9010   43.8440 N   0  0  0  0  0  0  0  0  0  0  0  0
   48.1370   30.5710   44.8870 N   0  0  0  0  0  0  0  0  0  0  0  0
   45.3320   29.7570   43.6100 H   0  0  0  0  0  0  0  0  0  0  0  0
   47.4720   28.8570   42.2110 H   0  0  0  0  0  0  0  0  0  0  0  0
   49.9420   29.6640   43.4760 C   0  0  0  0  0  0  0  0  0  0  0  0
   50.9180   29.3440   44.4240 C   0  0  0  0  0  3  0  0  0  0  0  0
   52.0710   29.1980   43.6880 C   0  0  0  0  0  0  0  0  0  0  0  0
   52.9970   28.9450   44.1820 H   0  0  0  0  0  0  0  0  0  0  0  0
   51.7930   29.4210   42.3710 N   0  0  0  0  0  0  0  0  0  0  0  0
   50.4880   29.7050   42.2470 N   0  0  0  0  0  0  0  0  0  0  0  0
   52.5500   29.3540   41.6530 H   0  0  0  0  0  0  0  0  0  0  0  0
  1  8  1  0  0  0  0
  1  6  1  0  0  0  0
  2  1  2  0  0  0  0
  3  2  1  0  0  0  0
  3  4  2  0  0  0  0
  4  5  1  0  0  0  0
  5  6  2  0  0  0  0
  5  7  1  0  0  0  0
  7  9  1  0  0  0  0
  7 10  1  0  0  0  0
 11 12  1  0  0  0  0
 11 17  1  1  0  0  0
 11  2  1  0  0  0  0
 12 18  1  0  0  0  0
 13 19  1  0  0  0  0
 13 12  2  0  0  0  0
 14 20  1  6  0  0  0
 14 13  1  0  0  0  0
 15 14  1  0  0  0  0
 15 22  1  0  0  0  0
 15 16  1  0  0  0  0
 16 11  1  0  0  0  0
 21 15  1  0  0  0  0
 23 16  1  0  0  0  0
 24 16  1  0  0  0  0
 25 26  1  0  0  0  0
 25 14  1  0  0  0  0
 27 25  1  0  0  0  0
 28 25  1  0  0  0  0
 29 33  2  0  0  0  0
 29  3  1  0  0  0  0
 30 29  1  0  0  0  0
 31 30  2  0  0  0  0
 31 32  1  0  0  0  0
 32 33  1  0  0  0  0
 34 30  1  0  0  0  0
 35 31  1  0  0  0  0
 36 32  1  0  0  0  0
 36 37  1  0  0  0  0
 38 39  1  0  0  0  0
 38 37  2  0  0  0  0
 40 38  1  0  0  0  0
 41 40  1  0  0  0  0
 41 36  2  0  0  0  0
 42 40  1  0  0  0  0
M  END
>  <minimizedAffinity>
-5.97571898

>  <minimizedRMSD>
0.0529882349

$$$$
