
 OpenBabel03232517503D

 21 22  0  0  0  0  0  0  0  0999 V2000
   44.9180   35.0740   44.0140 C   0  0  0  0  0  0  0  0  0  0  0  0
   45.4100   35.1090   42.7100 C   0  0  0  0  0  0  0  0  0  0  0  0
   46.5310   34.3180   42.3990 C   0  0  0  0  0  0  0  0  0  0  0  0
   47.0620   33.5660   43.4000 N   0  0  0  0  0  0  0  0  0  0  0  0
   46.5650   33.5530   44.6460 C   0  0  0  0  0  0  0  0  0  0  0  0
   45.5030   34.3050   44.9370 N   0  0  0  0  0  0  0  0  0  0  0  0
   43.8010   35.8220   44.4470 N   0  0  0  0  0  0  0  0  0  0  0  0
   44.9360   35.7230   41.9940 H   0  0  0  0  0  0  0  0  0  0  0  0
   47.0630   32.9160   45.3790 H   0  0  0  0  0  0  0  0  0  0  0  0
   42.8740   35.9000   43.9940 H   0  0  0  0  0  0  0  0  0  0  0  0
   43.9070   36.3720   45.3330 H   0  0  0  0  0  0  0  0  0  0  0  0
   47.0700   34.3130   41.1070 N   0  0  0  0  0  0  0  0  0  0  0  0
   46.5240   33.5850   40.1160 C   0  0  0  0  0  0  0  0  0  0  0  0
   47.1200   33.6370   38.8740 C   0  0  0  0  0  0  0  0  0  0  0  0
   46.5240   32.8340   37.7660 C   0  0  0  0  0  0  0  0  0  0  0  0
   48.2380   34.3850   38.5690 C   0  0  0  0  0  0  0  0  0  0  0  0
   48.7560   34.4100   37.4220 O   0  0  0  0  0  0  0  0  0  0  0  0
   48.7310   35.0910   39.6170 N   0  0  0  0  0  0  0  0  0  0  0  0
   48.1620   35.0510   40.8370 C   0  0  0  0  0  0  0  0  0  0  0  0
   48.6710   35.7300   41.7610 O   0  0  0  0  0  0  0  0  0  0  0  0
   49.5880   35.6940   39.4780 H   0  0  0  0  0  0  0  0  0  0  0  0
  1  7  1  0  0  0  0
  1  6  1  0  0  0  0
  2  1  2  0  0  0  0
  3  2  1  0  0  0  0
  3  4  2  0  0  0  0
  4  5  1  0  0  0  0
  5  6  2  0  0  0  0
  5  9  1  0  0  0  0
  7 11  1  0  0  0  0
  8  2  1  0  0  0  0
 10  7  1  0  0  0  0
 12  3  1  0  0  0  0
 13 12  1  0  0  0  0
 14 13  2  0  0  0  0
 15 14  1  0  0  0  0
 16 14  1  0  0  0  0
 16 18  1  0  0  0  0
 17 16  2  0  0  0  0
 18 19  1  0  0  0  0
 19 12  1  0  0  0  0
 19 20  2  0  0  0  0
 21 18  1  0  0  0  0
M  END
>  <minimizedAffinity>
-5.53421116

>  <minimizedRMSD>
2.12424946

$$$$
