
 OpenBabel03232517103D

 33 36  0  0  0  0  0  0  0  0999 V2000
   46.3280   32.8150   46.7070 C   0  0  0  0  0  0  0  0  0  0  0  0
   45.4540   32.7010   47.7950 C   0  0  0  0  0  0  0  0  0  0  0  0
   46.1870   31.9190   48.6860 C   0  0  0  0  0  0  0  0  0  0  0  0
   47.4080   31.6110   48.1250 C   0  0  0  0  0  0  0  0  0  0  0  0
   47.4280   32.1670   46.9610 O   0  0  0  0  0  0  0  0  0  0  0  0
   44.5010   33.1680   47.7680 H   0  0  0  0  0  0  0  0  0  0  0  0
   45.7380   31.6620   49.6520 H   0  0  0  0  0  0  0  0  0  0  0  0
   48.3630   30.8180   48.8200 N   0  0  0  0  0  0  0  0  0  0  0  0
   49.1870   31.3630   49.7520 C   0  0  0  0  0  0  0  0  0  0  0  0
   50.1340   30.6680   50.4660 C   0  0  0  0  0  0  0  0  0  0  0  0
   50.9900   31.3580   51.4690 C   0  0  0  0  0  0  0  0  0  0  0  0
   50.2220   29.3250   50.1880 C   0  0  0  0  0  0  0  0  0  0  0  0
   51.0670   28.6250   50.8040 O   0  0  0  0  0  0  0  0  0  0  0  0
   49.4230   28.7390   49.2680 N   0  0  0  0  0  0  0  0  0  0  0  0
   48.5330   29.4860   48.6230 C   0  0  0  0  0  0  0  0  0  0  0  0
   47.8070   28.9230   47.7790 O   0  0  0  0  0  0  0  0  0  0  0  0
   49.5440   27.7170   49.1080 H   0  0  0  0  0  0  0  0  0  0  0  0
   46.7040   34.1020   43.3950 C   0  0  0  0  0  0  0  0  0  0  0  0
   45.5460   34.7450   43.8270 C   0  0  0  0  0  0  0  0  0  0  0  0
   45.2620   34.3390   45.1310 C   0  0  0  0  0  0  0  0  0  0  0  0
   46.2550   33.4630   45.4460 N   0  0  0  0  0  0  0  0  0  0  0  0
   47.0860   33.3300   44.4370 N   0  0  0  0  0  0  0  0  0  0  0  0
   44.9010   35.4550   43.3190 H   0  0  0  0  0  0  0  0  0  0  0  0
   44.4410   34.6490   45.7440 H   0  0  0  0  0  0  0  0  0  0  0  0
   48.7000   35.4390   40.6240 C   0  0  0  0  0  0  0  0  0  0  0  0
   48.1870   34.7200   39.5300 C   0  0  0  0  0  0  0  0  0  0  0  0
   47.1760   33.7990   39.7580 C   0  0  0  0  0  0  0  0  0  0  0  0
   46.7160   33.6220   41.0300 N   0  0  0  0  0  0  0  0  0  0  0  0
   47.2370   34.3370   42.0680 C   0  0  0  0  0  0  0  0  0  0  0  0
   48.2120   35.2330   41.8840 N   0  0  0  0  0  0  0  0  0  0  0  0
   49.4800   36.1360   40.3820 H   0  0  0  0  0  0  0  0  0  0  0  0
   48.5570   34.8670   38.5250 H   0  0  0  0  0  0  0  0  0  0  0  0
   46.7200   33.2000   38.9750 H   0  0  0  0  0  0  0  0  0  0  0  0
  1  5  1  0  0  0  0
  1  2  2  0  0  0  0
  2  3  1  0  0  0  0
  3  7  1  0  0  0  0
  4  3  2  0  0  0  0
  4  8  1  0  0  0  0
  5  4  1  0  0  0  0
  6  2  1  0  0  0  0
  8  9  1  0  0  0  0
  9 10  2  0  0  0  0
 10 11  1  0  0  0  0
 12 10  1  0  0  0  0
 12 13  2  0  0  0  0
 14 12  1  0  0  0  0
 15  8  1  0  0  0  0
 15 14  1  0  0  0  0
 16 15  2  0  0  0  0
 17 14  1  0  0  0  0
 18 19  1  0  0  0  0
 18 22  2  0  0  0  0
 19 20  2  0  0  0  0
 20 21  1  0  0  0  0
 20 24  1  0  0  0  0
 21  1  1  0  0  0  0
 22 21  1  0  0  0  0
 23 19  1  0  0  0  0
 25 30  1  0  0  0  0
 26 27  1  0  0  0  0
 26 25  2  0  0  0  0
 27 28  2  0  0  0  0
 28 29  1  0  0  0  0
 29 18  1  0  0  0  0
 30 29  2  0  0  0  0
 31 25  1  0  0  0  0
 32 26  1  0  0  0  0
 33 27  1  0  0  0  0
M  END
>  <minimizedAffinity>
-6.45774078

>  <minimizedRMSD>
1.23531044

$$$$
