
 OpenBabel03232520043D

 34 37  0  0  0  0  0  0  0  0999 V2000
   46.1750   30.3840   49.1250 N   0  0  0  0  0  0  0  0  0  0  0  0
   45.2810   31.3860   49.4200 C   0  0  0  0  0  0  0  0  0  0  0  0
   45.2270   32.2040   48.3420 N   0  0  0  0  0  0  0  0  0  0  0  0
   46.0680   31.6980   47.4320 C   0  0  0  0  0  0  0  0  0  0  0  0
   46.3280   32.2140   46.1750 C   0  0  0  0  0  0  0  0  0  0  0  0
   47.2250   31.5410   45.4010 N   0  0  0  0  0  0  0  0  0  0  0  0
   47.8300   30.4240   45.8330 C   0  0  0  0  0  0  0  0  0  0  0  0
   47.5470   29.9650   47.0530 N   0  0  0  0  0  0  0  0  0  0  0  0
   46.6930   30.5530   47.8680 C   0  0  0  0  0  0  0  0  0  0  0  0
   46.4600   29.5770   49.7340 H   0  0  0  0  0  0  0  0  0  0  0  0
   44.7570   31.4470   50.3560 H   0  0  0  0  0  0  0  0  0  0  0  0
   48.7710   29.6990   45.0440 N   0  0  0  0  0  0  0  0  0  0  0  0
   49.4780   28.6410   45.4700 C   0  0  0  0  0  0  0  0  0  0  0  0
   50.3780   27.9940   44.6210 C   0  0  0  0  0  0  0  0  0  0  0  0
   51.1570   26.8230   45.1040 C   0  0  0  0  0  0  0  0  0  0  0  0
   50.5620   28.4300   43.3170 C   0  0  0  0  0  0  0  0  0  0  0  0
   51.3580   27.8890   42.5030 O   0  0  0  0  0  0  0  0  0  0  0  0
   49.8480   29.4890   42.8990 N   0  0  0  0  0  0  0  0  0  0  0  0
   48.9950   30.0760   43.7580 C   0  0  0  0  0  0  0  0  0  0  0  0
   48.3370   31.0750   43.3330 O   0  0  0  0  0  0  0  0  0  0  0  0
   49.9340   29.8740   41.9280 H   0  0  0  0  0  0  0  0  0  0  0  0
   45.6320   33.6630   45.4400 S   0  0  0  0  0  0  0  0  0  0  0  0
   47.7810   34.7220   42.3480 C   0  0  0  0  0  0  0  0  0  0  0  0
   47.0650   34.3500   41.2120 C   0  0  0  0  0  0  0  0  0  0  0  0
   45.8430   33.7340   41.4210 C   0  0  0  0  0  0  0  0  0  0  0  0
   45.4150   33.5300   42.7000 N   0  0  0  0  0  0  0  0  0  0  0  0
   46.1570   33.9140   43.7590 C   0  0  0  0  0  0  0  0  0  0  0  0
   47.3220   34.5000   43.5780 N   0  0  0  0  0  0  0  0  0  0  0  0
   47.4910   34.5570   40.2400 H   0  0  0  0  0  0  0  0  0  0  0  0
   45.2600   33.4320   40.5700 H   0  0  0  0  0  0  0  0  0  0  0  0
   49.0910   35.3820   42.1490 C   0  0  0  0  0  0  0  0  0  0  0  0
   49.2520   36.1550   41.1810 O   0  0  0  0  0  0  0  0  0  0  0  0
   50.1070   35.1360   43.0280 O   0  0  0  0  0  0  0  0  0  0  0  0
   50.8210   35.8720   43.1350 H   0  0  0  0  0  0  0  0  0  0  0  0
  1  2  1  0  0  0  0
  1 10  1  0  0  0  0
  2 11  1  0  0  0  0
  3  2  2  0  0  0  0
  4  9  1  0  0  0  0
  4  3  1  0  0  0  0
  5  4  2  0  0  0  0
  6  7  2  0  0  0  0
  6  5  1  0  0  0  0
  7  8  1  0  0  0  0
  8  9  2  0  0  0  0
  9  1  1  0  0  0  0
 12 13  1  0  0  0  0
 12  7  1  0  0  0  0
 14 15  1  0  0  0  0
 14 13  2  0  0  0  0
 16 14  1  0  0  0  0
 17 16  2  0  0  0  0
 18 16  1  0  0  0  0
 18 19  1  0  0  0  0
 19 12  1  0  0  0  0
 20 19  2  0  0  0  0
 21 18  1  0  0  0  0
 22  5  1  0  0  0  0
 23 28  1  0  0  0  0
 24 25  1  0  0  0  0
 24 23  2  0  0  0  0
 25 26  2  0  0  0  0
 26 27  1  0  0  0  0
 27 22  1  0  0  0  0
 28 27  2  0  0  0  0
 29 24  1  0  0  0  0
 30 25  1  0  0  0  0
 31 23  1  0  0  0  0
 31 33  1  0  0  0  0
 32 31  2  0  0  0  0
 33 34  1  0  0  0  0
M  END
>  <minimizedAffinity>
-6.2239089

>  <minimizedRMSD>
0.251839072

$$$$
