
 OpenBabel03232521013D

 42 45  0  0  1  0  0  0  0  0999 V2000
   45.3860   32.8560   47.4950 C   0  0  0  0  0  0  0  0  0  0  0  0
   45.9340   32.6170   46.2740 C   0  0  0  0  0  0  0  0  0  0  0  0
   46.1970   31.2670   46.0110 C   0  0  0  0  0  0  0  0  0  0  0  0
   45.9320   30.2630   46.8840 N   0  0  0  0  0  0  0  0  0  0  0  0
   45.3710   30.5590   48.1170 C   0  0  0  0  0  0  0  0  0  0  0  0
   45.1140   31.8340   48.3900 N   0  0  0  0  0  0  0  0  0  0  0  0
   45.0920   29.5330   49.0480 N   0  0  0  0  0  0  0  0  0  0  0  0
   45.1470   33.8620   47.8040 H   0  0  0  0  0  0  0  0  0  0  0  0
   44.9330   28.5260   48.7750 H   0  0  0  0  0  0  0  0  0  0  0  0
   45.0360   29.7630   50.0560 H   0  0  0  0  0  0  0  0  0  0  0  0
   46.1780   33.5830   45.2590 C   0  0  2  0  0  0  0  0  0  0  0  0
   44.9580   34.6650   45.5020 C   0  0  0  0  0  0  0  0  0  0  0  0
   44.7220   35.6050   44.4440 C   0  0  0  0  0  0  0  0  0  0  0  0
   45.5280   35.5560   43.2190 C   0  0  1  0  0  0  0  0  0  0  0  0
   46.5940   34.5580   43.1590 C   0  0  0  0  0  0  0  0  0  0  0  0
   46.1510   33.3140   43.8920 C   0  0  0  0  0  0  0  0  0  0  0  0
   46.9830   34.3030   45.6000 H   0  0  0  0  0  0  0  0  0  0  0  0
   44.2780   34.7990   46.3340 H   0  0  0  0  0  0  0  0  0  0  0  0
   43.9500   36.3180   44.5590 H   0  0  0  0  0  0  0  0  0  0  0  0
   45.9510   36.5680   43.0340 H   0  0  0  0  0  0  0  0  0  0  0  0
   47.5970   34.8820   43.5370 H   0  0  0  0  0  0  0  0  0  0  0  0
   46.7840   34.3370   42.0670 H   0  0  0  0  0  0  0  0  0  0  0  0
   45.2020   32.9560   43.4390 H   0  0  0  0  0  0  0  0  0  0  0  0
   47.0120   32.6760   43.5600 H   0  0  0  0  0  0  0  0  0  0  0  0
   44.5200   35.2960   42.0600 C   0  0  0  0  0  0  0  0  0  0  0  0
   43.4500   34.5090   42.4500 F   0  0  0  0  0  0  0  0  0  0  0  0
   43.9900   36.5360   41.7180 F   0  0  0  0  0  0  0  0  0  0  0  0
   45.1960   34.8240   40.9500 F   0  0  0  0  0  0  0  0  0  0  0  0
   46.8300   30.5920   44.8940 C   0  0  0  0  0  0  0  0  0  0  0  0
   46.4820   29.8520   43.8120 C   0  0  0  0  0  0  0  0  0  0  0  0
   47.6550   29.4640   43.1490 C   0  0  0  0  0  0  0  0  0  0  0  0
   48.6520   29.9890   43.8600 N   0  0  0  0  0  0  0  0  0  0  0  0
   48.1930   30.6580   44.8910 N   0  0  0  0  0  0  0  0  0  0  0  0
   45.4320   29.6870   43.6420 H   0  0  0  0  0  0  0  0  0  0  0  0
   47.6050   28.8660   42.2590 H   0  0  0  0  0  0  0  0  0  0  0  0
   50.8860   26.2320   43.1880 H   0  0  0  0  0  0  0  0  0  0  0  0
   51.3500   27.0970   43.5370 N   0  0  0  0  0  0  0  0  0  0  0  0
   51.4230   28.0320   42.4140 C   0  0  0  0  0  2  0  0  0  0  0  0
   50.1280   28.7940   42.3480 C   0  0  0  0  0  2  0  0  0  0  0  0
   50.0630   29.8060   43.4840 C   0  0  0  0  0  3  0  0  0  0  0  0
   50.7720   29.1640   44.6550 C   0  0  0  0  0  2  0  0  0  0  0  0
   50.5910   27.6520   44.6260 C   0  0  0  0  0  2  0  0  0  0  0  0
  1  8  1  0  0  0  0
  1  6  1  0  0  0  0
  2  1  2  0  0  0  0
  3  2  1  0  0  0  0
  3  4  2  0  0  0  0
  4  5  1  0  0  0  0
  5  6  2  0  0  0  0
  5  7  1  0  0  0  0
  7 10  1  0  0  0  0
  9  7  1  0  0  0  0
 11 12  1  0  0  0  0
 11 17  1  1  0  0  0
 11  2  1  0  0  0  0
 12 18  1  0  0  0  0
 13 19  1  0  0  0  0
 13 12  2  0  0  0  0
 14 20  1  6  0  0  0
 14 13  1  0  0  0  0
 15 14  1  0  0  0  0
 15 21  1  0  0  0  0
 15 16  1  0  0  0  0
 16 11  1  0  0  0  0
 22 15  1  0  0  0  0
 23 16  1  0  0  0  0
 24 16  1  0  0  0  0
 25 26  1  0  0  0  0
 25 14  1  0  0  0  0
 27 25  1  0  0  0  0
 28 25  1  0  0  0  0
 29  3  1  0  0  0  0
 30 29  1  0  0  0  0
 31 30  2  0  0  0  0
 31 32  1  0  0  0  0
 32 33  1  0  0  0  0
 33 29  2  0  0  0  0
 34 30  1  0  0  0  0
 35 31  1  0  0  0  0
 36 37  1  0  0  0  0
 37 42  1  0  0  0  0
 38 37  1  0  0  0  0
 39 38  1  0  0  0  0
 39 40  1  0  0  0  0
 40 32  1  0  0  0  0
 40 41  1  0  0  0  0
 42 41  1  0  0  0  0
M  END
>  <minimizedAffinity>
-5.61768341

>  <minimizedRMSD>
0.217029274

$$$$
