
 OpenBabel03232521003D

 42 45  0  0  1  0  0  0  0  0999 V2000
   45.3450   32.8940   47.5270 C   0  0  0  0  0  0  0  0  0  0  0  0
   45.9200   32.6320   46.3240 C   0  0  0  0  0  0  0  0  0  0  0  0
   46.2040   31.2790   46.0990 C   0  0  0  0  0  0  0  0  0  0  0  0
   45.9320   30.2930   46.9910 N   0  0  0  0  0  0  0  0  0  0  0  0
   45.3420   30.6130   48.2050 C   0  0  0  0  0  0  0  0  0  0  0  0
   45.0660   31.8910   48.4410 N   0  0  0  0  0  0  0  0  0  0  0  0
   45.0560   29.6070   49.1560 N   0  0  0  0  0  0  0  0  0  0  0  0
   45.0890   33.9050   47.8070 H   0  0  0  0  0  0  0  0  0  0  0  0
   44.9140   28.5910   48.9040 H   0  0  0  0  0  0  0  0  0  0  0  0
   44.9770   29.8610   50.1560 H   0  0  0  0  0  0  0  0  0  0  0  0
   46.1740   33.5760   45.2910 C   0  0  2  0  0  0  0  0  0  0  0  0
   44.9640   34.6740   45.5110 C   0  0  0  0  0  0  0  0  0  0  0  0
   44.7380   35.5950   44.4350 C   0  0  0  0  0  0  0  0  0  0  0  0
   45.5440   35.5140   43.2120 C   0  0  1  0  0  0  0  0  0  0  0  0
   46.6000   34.5060   43.1720 C   0  0  0  0  0  0  0  0  0  0  0  0
   46.1450   33.2800   43.9290 C   0  0  0  0  0  0  0  0  0  0  0  0
   46.9860   34.2940   45.6180 H   0  0  0  0  0  0  0  0  0  0  0  0
   44.2860   34.8300   46.3410 H   0  0  0  0  0  0  0  0  0  0  0  0
   43.9720   36.3180   44.5350 H   0  0  0  0  0  0  0  0  0  0  0  0
   45.9770   36.5180   43.0080 H   0  0  0  0  0  0  0  0  0  0  0  0
   47.6070   34.8270   43.5450 H   0  0  0  0  0  0  0  0  0  0  0  0
   46.7890   34.2610   42.0850 H   0  0  0  0  0  0  0  0  0  0  0  0
   45.1930   32.9230   43.4820 H   0  0  0  0  0  0  0  0  0  0  0  0
   47.0000   32.6270   43.6100 H   0  0  0  0  0  0  0  0  0  0  0  0
   44.5350   35.2420   42.0570 C   0  0  0  0  0  0  0  0  0  0  0  0
   43.4910   34.4200   42.4450 F   0  0  0  0  0  0  0  0  0  0  0  0
   43.9660   36.4710   41.7370 F   0  0  0  0  0  0  0  0  0  0  0  0
   45.2150   34.8050   40.9350 F   0  0  0  0  0  0  0  0  0  0  0  0
   46.8670   30.5840   45.0120 C   0  0  0  0  0  0  0  0  0  0  0  0
   46.5470   29.8940   43.8890 C   0  0  0  0  0  0  0  0  0  0  0  0
   47.7340   29.4370   43.3000 C   0  0  0  0  0  0  0  0  0  0  0  0
   48.7120   29.8750   44.0930 N   0  0  0  0  0  0  0  0  0  0  0  0
   48.2280   30.5520   45.1070 N   0  0  0  0  0  0  0  0  0  0  0  0
   45.5020   29.8080   43.6410 H   0  0  0  0  0  0  0  0  0  0  0  0
   47.7060   28.8630   42.3940 H   0  0  0  0  0  0  0  0  0  0  0  0
   50.7880   25.9790   43.8260 H   0  0  0  0  0  0  0  0  0  0  0  0
   51.2750   26.8460   44.1370 N   0  0  0  0  0  0  0  0  0  0  0  0
   51.4540   27.6890   42.9540 C   0  0  0  0  0  2  0  0  0  0  0  0
   50.2040   28.5020   42.7590 C   0  0  0  0  0  2  0  0  0  0  0  0
   50.1300   29.6000   43.8120 C   0  0  0  0  0  3  0  0  0  0  0  0
   50.7420   29.0160   45.0650 C   0  0  0  0  0  2  0  0  0  0  0  0
   50.4880   27.5170   45.1370 C   0  0  0  0  0  2  0  0  0  0  0  0
  1  8  1  0  0  0  0
  1  6  1  0  0  0  0
  2  1  2  0  0  0  0
  3  2  1  0  0  0  0
  3  4  2  0  0  0  0
  4  5  1  0  0  0  0
  5  6  2  0  0  0  0
  5  7  1  0  0  0  0
  7 10  1  0  0  0  0
  9  7  1  0  0  0  0
 11 12  1  0  0  0  0
 11 17  1  1  0  0  0
 11  2  1  0  0  0  0
 12 18  1  0  0  0  0
 13 19  1  0  0  0  0
 13 12  2  0  0  0  0
 14 20  1  6  0  0  0
 14 13  1  0  0  0  0
 15 14  1  0  0  0  0
 15 21  1  0  0  0  0
 15 16  1  0  0  0  0
 16 11  1  0  0  0  0
 22 15  1  0  0  0  0
 23 16  1  0  0  0  0
 24 16  1  0  0  0  0
 25 26  1  0  0  0  0
 25 14  1  0  0  0  0
 27 25  1  0  0  0  0
 28 25  1  0  0  0  0
 29 33  2  0  0  0  0
 29  3  1  0  0  0  0
 30 29  1  0  0  0  0
 31 30  2  0  0  0  0
 31 32  1  0  0  0  0
 32 33  1  0  0  0  0
 34 30  1  0  0  0  0
 35 31  1  0  0  0  0
 36 37  1  0  0  0  0
 37 42  1  0  0  0  0
 38 37  1  0  0  0  0
 39 38  1  0  0  0  0
 39 40  1  0  0  0  0
 40 32  1  0  0  0  0
 40 41  1  0  0  0  0
 41 42  1  0  0  0  0
M  END
>  <minimizedAffinity>
-5.6114645

>  <minimizedRMSD>
0.39077872

$$$$
