
 OpenBabel03232519173D

 36 38  0  0  1  0  0  0  0  0999 V2000
   44.4630   34.9090   42.4830 C   0  0  1  0  0  0  0  0  0  0  0  0
   43.4740   34.5740   42.8880 H   0  0  0  0  0  0  0  0  0  0  0  0
   45.5020   34.1430   43.2000 C   0  0  0  0  0  0  0  0  0  0  0  0
   46.8160   34.0920   42.6270 C   0  0  0  0  0  0  0  0  0  0  0  0
   47.8460   33.3780   43.2620 C   0  0  0  0  0  0  0  0  0  0  0  0
   47.5130   32.7600   44.4240 N   0  0  0  0  0  0  0  0  0  0  0  0
   46.2880   32.8180   44.9440 C   0  0  0  0  0  0  0  0  0  0  0  0
   45.2650   33.5040   44.3470 N   0  0  0  0  0  0  0  0  0  0  0  0
   47.0080   34.6090   41.6980 H   0  0  0  0  0  0  0  0  0  0  0  0
   48.8170   33.3430   42.8350 H   0  0  0  0  0  0  0  0  0  0  0  0
   45.9460   32.1370   46.2090 C   0  0  0  0  0  0  0  0  0  0  0  0
   45.9130   30.7340   46.2090 C   0  0  0  0  0  0  0  0  0  0  0  0
   45.4450   30.4210   48.0030 S   0  0  0  0  0  0  0  0  0  0  0  0
   45.3950   32.2730   48.3640 C   0  0  0  0  0  0  0  0  0  0  0  0
   45.6610   32.6590   47.3640 N   0  0  0  0  0  0  0  0  0  0  0  0
   46.0690   29.9290   45.5310 H   0  0  0  0  0  0  0  0  0  0  0  0
   45.1690   32.9550   49.3070 H   0  0  0  0  0  0  0  0  0  0  0  0
   44.6530   36.3850   42.7070 C   0  0  0  0  0  0  0  0  0  0  0  0
   45.2790   36.8150   41.8910 H   0  0  0  0  0  0  0  0  0  0  0  0
   43.6680   36.8820   42.7270 H   0  0  0  0  0  0  0  0  0  0  0  0
   45.0950   36.5530   43.7080 H   0  0  0  0  0  0  0  0  0  0  0  0
   44.4350   34.6030   41.0230 C   0  0  0  0  0  0  0  0  0  0  0  0
   45.2180   33.8530   40.7530 H   0  0  0  0  0  0  0  0  0  0  0  0
   44.7310   35.5420   40.4720 H   0  0  0  0  0  0  0  0  0  0  0  0
   43.1640   34.1910   40.5340 N   0  0  0  0  0  0  0  0  0  0  0  0
   40.2350   31.4610   42.5760 H   0  0  0  0  0  0  0  0  0  0  0  0
   40.5530   32.3500   42.0990 N   0  0  0  0  0  0  0  0  0  0  0  0
   41.8110   32.4670   41.6750 N   0  0  0  0  0  0  0  0  0  0  0  0
   41.9620   33.6830   41.1110 C   0  0  0  0  0  0  0  0  0  0  0  0
   40.7250   34.3250   41.2030 C   0  0  0  0  0  0  0  0  0  0  0  0
   39.8460   33.4610   41.8340 C   0  0  0  0  0  0  0  0  0  0  0  0
   38.7970   33.6190   42.0790 H   0  0  0  0  0  0  0  0  0  0  0  0
   42.9800   34.1320   39.1510 C   0  0  0  0  0  0  0  0  0  0  0  0
   42.1250   33.1080   38.8030 F   0  0  0  0  0  0  0  0  0  0  0  0
   44.2410   33.7720   38.6100 F   0  0  0  0  0  0  0  0  0  0  0  0
   42.5530   35.3120   38.5790 F   0  0  0  0  0  0  0  0  0  0  0  0
  1 18  1  0  0  0  0
  1  2  1  1  0  0  0
  1  3  1  0  0  0  0
  3  8  1  0  0  0  0
  4  3  2  0  0  0  0
  4  5  1  0  0  0  0
  5  6  2  0  0  0  0
  6  7  1  0  0  0  0
  7 11  1  0  0  0  0
  8  7  2  0  0  0  0
  9  4  1  0  0  0  0
 10  5  1  0  0  0  0
 11 15  1  0  0  0  0
 12 11  2  0  0  0  0
 12 13  1  0  0  0  0
 13 14  1  0  0  0  0
 14 17  1  0  0  0  0
 15 14  2  0  0  0  0
 16 12  1  0  0  0  0
 18 20  1  0  0  0  0
 18 21  1  0  0  0  0
 19 18  1  0  0  0  0
 22  1  1  0  0  0  0
 23 22  1  0  0  0  0
 24 22  1  0  0  0  0
 25 22  1  0  0  0  0
 25 29  1  0  0  0  0
 27 26  1  0  0  0  0
 28 27  1  0  0  0  0
 29 30  1  0  0  0  0
 29 28  2  0  0  0  0
 30 31  2  0  0  0  0
 31 32  1  0  0  0  0
 31 27  1  0  0  0  0
 33 25  1  0  0  0  0
 34 33  1  0  0  0  0
 35 33  1  0  0  0  0
 36 33  1  0  0  0  0
M  END
>  <minimizedAffinity>
-5.23143148

>  <minimizedRMSD>
2.51285791

$$$$
