
 OpenBabel03232521003D

 42 45  0  0  1  0  0  0  0  0999 V2000
   45.3460   32.8930   47.5290 C   0  0  0  0  0  0  0  0  0  0  0  0
   45.9220   32.6310   46.3260 C   0  0  0  0  0  0  0  0  0  0  0  0
   46.2050   31.2780   46.1020 C   0  0  0  0  0  0  0  0  0  0  0  0
   45.9330   30.2920   46.9940 N   0  0  0  0  0  0  0  0  0  0  0  0
   45.3430   30.6120   48.2080 C   0  0  0  0  0  0  0  0  0  0  0  0
   45.0670   31.8910   48.4430 N   0  0  0  0  0  0  0  0  0  0  0  0
   45.0570   29.6070   49.1590 N   0  0  0  0  0  0  0  0  0  0  0  0
   45.0910   33.9040   47.8090 H   0  0  0  0  0  0  0  0  0  0  0  0
   44.9140   28.5910   48.9070 H   0  0  0  0  0  0  0  0  0  0  0  0
   44.9780   29.8610   50.1590 H   0  0  0  0  0  0  0  0  0  0  0  0
   46.1750   33.5740   45.2920 C   0  0  2  0  0  0  0  0  0  0  0  0
   44.9650   34.6720   45.5120 C   0  0  0  0  0  0  0  0  0  0  0  0
   44.7390   35.5920   44.4350 C   0  0  0  0  0  0  0  0  0  0  0  0
   45.5460   35.5110   43.2130 C   0  0  1  0  0  0  0  0  0  0  0  0
   46.6030   34.5030   43.1740 C   0  0  0  0  0  0  0  0  0  0  0  0
   46.1470   33.2780   43.9310 C   0  0  0  0  0  0  0  0  0  0  0  0
   46.9870   34.2930   45.6200 H   0  0  0  0  0  0  0  0  0  0  0  0
   44.2860   34.8280   46.3410 H   0  0  0  0  0  0  0  0  0  0  0  0
   43.9730   36.3150   44.5340 H   0  0  0  0  0  0  0  0  0  0  0  0
   45.9790   36.5150   43.0080 H   0  0  0  0  0  0  0  0  0  0  0  0
   47.6090   34.8250   43.5460 H   0  0  0  0  0  0  0  0  0  0  0  0
   46.7920   34.2580   42.0870 H   0  0  0  0  0  0  0  0  0  0  0  0
   45.1960   32.9200   43.4830 H   0  0  0  0  0  0  0  0  0  0  0  0
   47.0030   32.6250   43.6130 H   0  0  0  0  0  0  0  0  0  0  0  0
   44.5370   35.2380   42.0570 C   0  0  0  0  0  0  0  0  0  0  0  0
   43.4960   34.4110   42.4440 F   0  0  0  0  0  0  0  0  0  0  0  0
   43.9650   36.4660   41.7400 F   0  0  0  0  0  0  0  0  0  0  0  0
   45.2190   34.8050   40.9340 F   0  0  0  0  0  0  0  0  0  0  0  0
   46.8680   30.5830   45.0150 C   0  0  0  0  0  0  0  0  0  0  0  0
   46.5470   29.8910   43.8920 C   0  0  0  0  0  0  0  0  0  0  0  0
   47.7340   29.4350   43.3030 C   0  0  0  0  0  0  0  0  0  0  0  0
   48.7120   29.8730   44.0950 N   0  0  0  0  0  0  0  0  0  0  0  0
   48.2290   30.5510   45.1090 N   0  0  0  0  0  0  0  0  0  0  0  0
   45.5030   29.8050   43.6450 H   0  0  0  0  0  0  0  0  0  0  0  0
   47.7060   28.8600   42.3980 H   0  0  0  0  0  0  0  0  0  0  0  0
   50.7890   25.9780   43.8250 H   0  0  0  0  0  0  0  0  0  0  0  0
   51.2770   26.8460   44.1360 N   0  0  0  0  0  0  0  0  0  0  0  0
   51.4550   27.6890   42.9540 C   0  0  0  0  0  2  0  0  0  0  0  0
   50.2050   28.5010   42.7610 C   0  0  0  0  0  2  0  0  0  0  0  0
   50.1300   29.5990   43.8140 C   0  0  0  0  0  3  0  0  0  0  0  0
   50.7430   29.0150   45.0660 C   0  0  0  0  0  2  0  0  0  0  0  0
   50.4900   27.5150   45.1380 C   0  0  0  0  0  2  0  0  0  0  0  0
  1  8  1  0  0  0  0
  1  6  1  0  0  0  0
  2  1  2  0  0  0  0
  3  2  1  0  0  0  0
  3  4  2  0  0  0  0
  4  5  1  0  0  0  0
  5  6  2  0  0  0  0
  5  7  1  0  0  0  0
  7 10  1  0  0  0  0
  9  7  1  0  0  0  0
 11 12  1  0  0  0  0
 11 17  1  1  0  0  0
 11  2  1  0  0  0  0
 12 18  1  0  0  0  0
 13 19  1  0  0  0  0
 13 12  2  0  0  0  0
 14 20  1  6  0  0  0
 14 13  1  0  0  0  0
 15 14  1  0  0  0  0
 15 21  1  0  0  0  0
 15 16  1  0  0  0  0
 16 11  1  0  0  0  0
 22 15  1  0  0  0  0
 23 16  1  0  0  0  0
 24 16  1  0  0  0  0
 25 26  1  0  0  0  0
 25 14  1  0  0  0  0
 27 25  1  0  0  0  0
 28 25  1  0  0  0  0
 29 33  2  0  0  0  0
 29  3  1  0  0  0  0
 30 29  1  0  0  0  0
 31 30  2  0  0  0  0
 31 32  1  0  0  0  0
 32 33  1  0  0  0  0
 34 30  1  0  0  0  0
 35 31  1  0  0  0  0
 36 37  1  0  0  0  0
 37 42  1  0  0  0  0
 38 37  1  0  0  0  0
 39 38  1  0  0  0  0
 39 40  1  0  0  0  0
 40 32  1  0  0  0  0
 40 41  1  0  0  0  0
 41 42  1  0  0  0  0
M  END
>  <minimizedAffinity>
-5.6128993

>  <minimizedRMSD>
0.591661215

$$$$
