
 OpenBabel03232521013D

 42 45  0  0  1  0  0  0  0  0999 V2000
   45.3870   32.8590   47.4950 C   0  0  0  0  0  0  0  0  0  0  0  0
   45.9350   32.6200   46.2740 C   0  0  0  0  0  0  0  0  0  0  0  0
   46.1970   31.2700   46.0110 C   0  0  0  0  0  0  0  0  0  0  0  0
   45.9330   30.2650   46.8850 N   0  0  0  0  0  0  0  0  0  0  0  0
   45.3720   30.5620   48.1180 C   0  0  0  0  0  0  0  0  0  0  0  0
   45.1150   31.8370   48.3910 N   0  0  0  0  0  0  0  0  0  0  0  0
   45.0930   29.5370   49.0500 N   0  0  0  0  0  0  0  0  0  0  0  0
   45.1490   33.8650   47.8040 H   0  0  0  0  0  0  0  0  0  0  0  0
   44.9340   28.5290   48.7770 H   0  0  0  0  0  0  0  0  0  0  0  0
   45.0380   29.7670   50.0580 H   0  0  0  0  0  0  0  0  0  0  0  0
   46.1780   33.5850   45.2590 C   0  0  2  0  0  0  0  0  0  0  0  0
   44.9580   34.6670   45.5010 C   0  0  0  0  0  0  0  0  0  0  0  0
   44.7220   35.6060   44.4420 C   0  0  0  0  0  0  0  0  0  0  0  0
   45.5270   35.5560   43.2180 C   0  0  1  0  0  0  0  0  0  0  0  0
   46.5930   34.5590   43.1580 C   0  0  0  0  0  0  0  0  0  0  0  0
   46.1510   33.3150   43.8920 C   0  0  0  0  0  0  0  0  0  0  0  0
   46.9830   34.3050   45.5990 H   0  0  0  0  0  0  0  0  0  0  0  0
   44.2780   34.8010   46.3330 H   0  0  0  0  0  0  0  0  0  0  0  0
   43.9490   36.3190   44.5570 H   0  0  0  0  0  0  0  0  0  0  0  0
   45.9500   36.5680   43.0320 H   0  0  0  0  0  0  0  0  0  0  0  0
   47.5970   34.8840   43.5360 H   0  0  0  0  0  0  0  0  0  0  0  0
   46.7830   34.3370   42.0660 H   0  0  0  0  0  0  0  0  0  0  0  0
   45.2020   32.9570   43.4390 H   0  0  0  0  0  0  0  0  0  0  0  0
   47.0120   32.6770   43.5600 H   0  0  0  0  0  0  0  0  0  0  0  0
   44.5190   35.2960   42.0580 C   0  0  0  0  0  0  0  0  0  0  0  0
   43.4510   34.5070   42.4490 F   0  0  0  0  0  0  0  0  0  0  0  0
   43.9870   36.5350   41.7170 F   0  0  0  0  0  0  0  0  0  0  0  0
   45.1960   34.8250   40.9480 F   0  0  0  0  0  0  0  0  0  0  0  0
   46.8300   30.5940   44.8950 C   0  0  0  0  0  0  0  0  0  0  0  0
   46.4810   29.8530   43.8120 C   0  0  0  0  0  0  0  0  0  0  0  0
   47.6520   29.4650   43.1490 C   0  0  0  0  0  0  0  0  0  0  0  0
   48.6500   29.9900   43.8590 N   0  0  0  0  0  0  0  0  0  0  0  0
   48.1930   30.6590   44.8910 N   0  0  0  0  0  0  0  0  0  0  0  0
   45.4300   29.6890   43.6430 H   0  0  0  0  0  0  0  0  0  0  0  0
   47.6020   28.8660   42.2600 H   0  0  0  0  0  0  0  0  0  0  0  0
   50.8830   26.2310   43.1890 H   0  0  0  0  0  0  0  0  0  0  0  0
   51.3470   27.0960   43.5380 N   0  0  0  0  0  0  0  0  0  0  0  0
   51.4200   28.0310   42.4140 C   0  0  0  0  0  2  0  0  0  0  0  0
   50.1260   28.7930   42.3480 C   0  0  0  0  0  2  0  0  0  0  0  0
   50.0610   29.8060   43.4830 C   0  0  0  0  0  3  0  0  0  0  0  0
   50.7710   29.1650   44.6540 C   0  0  0  0  0  2  0  0  0  0  0  0
   50.5900   27.6530   44.6260 C   0  0  0  0  0  2  0  0  0  0  0  0
  1  8  1  0  0  0  0
  1  6  1  0  0  0  0
  2  1  2  0  0  0  0
  3  2  1  0  0  0  0
  3  4  2  0  0  0  0
  4  5  1  0  0  0  0
  5  6  2  0  0  0  0
  5  7  1  0  0  0  0
  7 10  1  0  0  0  0
  9  7  1  0  0  0  0
 11 12  1  0  0  0  0
 11 17  1  1  0  0  0
 11  2  1  0  0  0  0
 12 18  1  0  0  0  0
 13 19  1  0  0  0  0
 13 12  2  0  0  0  0
 14 20  1  6  0  0  0
 14 13  1  0  0  0  0
 15 14  1  0  0  0  0
 15 21  1  0  0  0  0
 15 16  1  0  0  0  0
 16 11  1  0  0  0  0
 22 15  1  0  0  0  0
 23 16  1  0  0  0  0
 24 16  1  0  0  0  0
 25 26  1  0  0  0  0
 25 14  1  0  0  0  0
 27 25  1  0  0  0  0
 28 25  1  0  0  0  0
 29  3  1  0  0  0  0
 30 29  1  0  0  0  0
 31 30  2  0  0  0  0
 31 32  1  0  0  0  0
 32 33  1  0  0  0  0
 33 29  2  0  0  0  0
 34 30  1  0  0  0  0
 35 31  1  0  0  0  0
 36 37  1  0  0  0  0
 37 42  1  0  0  0  0
 38 37  1  0  0  0  0
 39 38  1  0  0  0  0
 39 40  1  0  0  0  0
 40 32  1  0  0  0  0
 40 41  1  0  0  0  0
 42 41  1  0  0  0  0
M  END
>  <minimizedAffinity>
-5.62087822

>  <minimizedRMSD>
0.383711666

$$$$
