
 OpenBabel03232520563D

 38 40  0  0  1  0  0  0  0  0999 V2000
   45.3240   32.8670   47.5190 C   0  0  0  0  0  0  0  0  0  0  0  0
   45.8810   32.5900   46.3080 C   0  0  0  0  0  0  0  0  0  0  0  0
   46.2040   31.2460   46.0670 C   0  0  0  0  0  0  0  0  0  0  0  0
   45.9810   30.2900   46.9760 N   0  0  0  0  0  0  0  0  0  0  0  0
   45.4180   30.6040   48.1950 C   0  0  0  0  0  0  0  0  0  0  0  0
   45.0990   31.8720   48.4470 N   0  0  0  0  0  0  0  0  0  0  0  0
   45.1900   29.5870   49.1630 N   0  0  0  0  0  0  0  0  0  0  0  0
   45.0530   33.8570   47.7780 H   0  0  0  0  0  0  0  0  0  0  0  0
   44.4790   29.7720   49.9050 H   0  0  0  0  0  0  0  0  0  0  0  0
   45.7420   28.6870   49.1020 H   0  0  0  0  0  0  0  0  0  0  0  0
   46.0990   33.5880   45.3120 C   0  0  2  0  0  0  0  0  0  0  0  0
   44.9670   34.6660   45.4920 C   0  0  0  0  0  0  0  0  0  0  0  0
   44.7510   35.5770   44.3980 C   0  0  0  0  0  0  0  0  0  0  0  0
   45.5480   35.4870   43.1820 C   0  0  1  0  0  0  0  0  0  0  0  0
   46.6330   34.5030   43.1760 C   0  0  0  0  0  0  0  0  0  0  0  0
   46.2110   33.2660   43.9250 C   0  0  0  0  0  0  0  0  0  0  0  0
   46.9410   34.2620   45.6890 H   0  0  0  0  0  0  0  0  0  0  0  0
   44.2670   34.9050   46.2840 H   0  0  0  0  0  0  0  0  0  0  0  0
   44.0050   36.3300   44.4480 H   0  0  0  0  0  0  0  0  0  0  0  0
   45.9910   36.4950   42.9890 H   0  0  0  0  0  0  0  0  0  0  0  0
   46.8180   34.1960   42.1070 H   0  0  0  0  0  0  0  0  0  0  0  0
   47.6000   34.8550   43.5710 H   0  0  0  0  0  0  0  0  0  0  0  0
   45.2030   32.9990   43.5020 H   0  0  0  0  0  0  0  0  0  0  0  0
   46.9220   32.5180   43.5800 H   0  0  0  0  0  0  0  0  0  0  0  0
   44.5780   35.1940   42.0150 C   0  0  0  0  0  0  0  0  0  0  0  0
   43.5650   34.3250   42.3670 F   0  0  0  0  0  0  0  0  0  0  0  0
   43.9530   36.4040   41.7020 F   0  0  0  0  0  0  0  0  0  0  0  0
   45.2880   34.7920   40.8960 F   0  0  0  0  0  0  0  0  0  0  0  0
   46.7720   30.5560   44.9610 N   0  0  0  0  0  0  0  0  0  0  0  0
   48.1460   30.5310   44.8750 C   0  0  0  0  0  0  0  0  0  0  0  0
   48.6560   29.8910   43.7640 C   0  0  0  0  0  0  0  0  0  0  0  0
   50.1170   29.8400   43.6300 C   0  0  0  0  0  0  0  0  0  0  0  0
   47.7920   29.3360   42.8400 C   0  0  0  0  0  0  0  0  0  0  0  0
   48.2710   28.7460   41.8180 O   0  0  0  0  0  0  0  0  0  0  0  0
   46.4530   29.3940   42.9830 N   0  0  0  0  0  0  0  0  0  0  0  0
   45.9160   30.0020   44.0390 C   0  0  0  0  0  0  0  0  0  0  0  0
   44.6810   30.1060   44.2580 O   0  0  0  0  0  0  0  0  0  0  0  0
   45.8050   28.9700   42.2770 H   0  0  0  0  0  0  0  0  0  0  0  0
  1  8  1  0  0  0  0
  1  6  1  0  0  0  0
  2  1  2  0  0  0  0
  3  2  1  0  0  0  0
  3  4  2  0  0  0  0
  4  5  1  0  0  0  0
  5  6  2  0  0  0  0
  5  7  1  0  0  0  0
  7  9  1  0  0  0  0
 10  7  1  0  0  0  0
 11 12  1  0  0  0  0
 11 17  1  1  0  0  0
 11  2  1  0  0  0  0
 12 18  1  0  0  0  0
 13 19  1  0  0  0  0
 13 12  2  0  0  0  0
 14 20  1  6  0  0  0
 14 13  1  0  0  0  0
 15 14  1  0  0  0  0
 15 22  1  0  0  0  0
 15 16  1  0  0  0  0
 16 11  1  0  0  0  0
 21 15  1  0  0  0  0
 23 16  1  0  0  0  0
 24 16  1  0  0  0  0
 25 26  1  0  0  0  0
 25 14  1  0  0  0  0
 27 25  1  0  0  0  0
 28 25  1  0  0  0  0
 29  3  1  0  0  0  0
 30 29  1  0  0  0  0
 31 30  2  0  0  0  0
 32 31  1  0  0  0  0
 33 35  1  0  0  0  0
 33 31  1  0  0  0  0
 34 33  2  0  0  0  0
 35 36  1  0  0  0  0
 36 37  2  0  0  0  0
 36 29  1  0  0  0  0
 38 35  1  0  0  0  0
M  END
>  <minimizedAffinity>
-5.87596941

>  <minimizedRMSD>
0.663262904

$$$$
