
 OpenBabel03232521013D

 42 45  0  0  1  0  0  0  0  0999 V2000
   45.5970   32.8270   47.5150 C   0  0  0  0  0  0  0  0  0  0  0  0
   45.9750   32.5840   46.2320 C   0  0  0  0  0  0  0  0  0  0  0  0
   46.0590   31.2270   45.9000 C   0  0  0  0  0  0  0  0  0  0  0  0
   45.7880   30.2190   46.7670 N   0  0  0  0  0  0  0  0  0  0  0  0
   45.4040   30.5200   48.0660 C   0  0  0  0  0  0  0  0  0  0  0  0
   45.3190   31.8020   48.4050 N   0  0  0  0  0  0  0  0  0  0  0  0
   45.1240   29.4900   48.9930 N   0  0  0  0  0  0  0  0  0  0  0  0
   45.5050   33.8390   47.8800 H   0  0  0  0  0  0  0  0  0  0  0  0
   44.8270   28.5170   48.7100 H   0  0  0  0  0  0  0  0  0  0  0  0
   45.2070   29.6830   50.0070 H   0  0  0  0  0  0  0  0  0  0  0  0
   46.2050   33.5620   45.2250 C   0  0  2  0  0  0  0  0  0  0  0  0
   44.9780   34.6310   45.4840 C   0  0  0  0  0  0  0  0  0  0  0  0
   44.7290   35.5790   44.4370 C   0  0  0  0  0  0  0  0  0  0  0  0
   45.5270   35.5480   43.2070 C   0  0  1  0  0  0  0  0  0  0  0  0
   46.6010   34.5600   43.1320 C   0  0  0  0  0  0  0  0  0  0  0  0
   46.1720   33.3050   43.8560 C   0  0  0  0  0  0  0  0  0  0  0  0
   47.0060   34.2840   45.5680 H   0  0  0  0  0  0  0  0  0  0  0  0
   44.3020   34.7520   46.3220 H   0  0  0  0  0  0  0  0  0  0  0  0
   43.9510   36.2850   44.5620 H   0  0  0  0  0  0  0  0  0  0  0  0
   45.9420   36.5650   43.0290 H   0  0  0  0  0  0  0  0  0  0  0  0
   47.6040   34.8880   43.5070 H   0  0  0  0  0  0  0  0  0  0  0  0
   46.7870   34.3500   42.0370 H   0  0  0  0  0  0  0  0  0  0  0  0
   45.2240   32.9430   43.4040 H   0  0  0  0  0  0  0  0  0  0  0  0
   47.0370   32.6770   43.5130 H   0  0  0  0  0  0  0  0  0  0  0  0
   44.5150   35.2910   42.0510 C   0  0  0  0  0  0  0  0  0  0  0  0
   43.4500   34.4980   42.4420 F   0  0  0  0  0  0  0  0  0  0  0  0
   43.9790   36.5310   41.7190 F   0  0  0  0  0  0  0  0  0  0  0  0
   45.1880   34.8270   40.9350 F   0  0  0  0  0  0  0  0  0  0  0  0
   46.4860   30.5370   44.6970 C   0  0  0  0  0  0  0  0  0  0  0  0
   45.9380   29.9170   43.6210 C   0  0  0  0  0  0  0  0  0  0  0  0
   46.9780   29.4100   42.8300 C   0  0  0  0  0  0  0  0  0  0  0  0
   48.1010   29.7490   43.4640 N   0  0  0  0  0  0  0  0  0  0  0  0
   47.8380   30.4130   44.5640 N   0  0  0  0  0  0  0  0  0  0  0  0
   44.8640   29.9100   43.5470 H   0  0  0  0  0  0  0  0  0  0  0  0
   46.7630   28.8780   41.9240 H   0  0  0  0  0  0  0  0  0  0  0  0
   51.8290   32.1260   43.5110 H   0  0  0  0  0  0  0  0  0  0  0  0
   51.6260   31.4300   42.7640 N   0  0  0  0  0  0  0  0  0  0  0  0
   51.7700   30.1020   43.3580 C   0  0  0  0  0  2  0  0  0  0  0  0
   50.4660   29.7310   44.0100 C   0  0  0  0  0  2  0  0  0  0  0  0
   49.4310   29.3940   42.9440 C   0  0  0  0  0  3  0  0  0  0  0  0
   49.7270   30.3030   41.7740 C   0  0  0  0  0  2  0  0  0  0  0  0
   50.2940   31.6310   42.2580 C   0  0  0  0  0  2  0  0  0  0  0  0
  1  8  1  0  0  0  0
  1  6  1  0  0  0  0
  2  1  2  0  0  0  0
  3  2  1  0  0  0  0
  3  4  2  0  0  0  0
  4  5  1  0  0  0  0
  5  6  2  0  0  0  0
  5  7  1  0  0  0  0
  7 10  1  0  0  0  0
  9  7  1  0  0  0  0
 11 12  1  0  0  0  0
 11 17  1  1  0  0  0
 11  2  1  0  0  0  0
 12 18  1  0  0  0  0
 13 19  1  0  0  0  0
 13 12  2  0  0  0  0
 14 20  1  6  0  0  0
 14 13  1  0  0  0  0
 15 14  1  0  0  0  0
 15 21  1  0  0  0  0
 15 16  1  0  0  0  0
 16 11  1  0  0  0  0
 22 15  1  0  0  0  0
 23 16  1  0  0  0  0
 24 16  1  0  0  0  0
 25 26  1  0  0  0  0
 25 14  1  0  0  0  0
 27 25  1  0  0  0  0
 28 25  1  0  0  0  0
 29  3  1  0  0  0  0
 30 29  1  0  0  0  0
 31 32  1  0  0  0  0
 31 30  2  0  0  0  0
 32 33  1  0  0  0  0
 33 29  2  0  0  0  0
 34 30  1  0  0  0  0
 35 31  1  0  0  0  0
 37 38  1  0  0  0  0
 37 36  1  0  0  0  0
 38 39  1  0  0  0  0
 40 32  1  0  0  0  0
 40 39  1  0  0  0  0
 41 42  1  0  0  0  0
 41 40  1  0  0  0  0
 42 37  1  0  0  0  0
M  END
>  <minimizedAffinity>
-6.03448153

>  <minimizedRMSD>
0.489455223

$$$$
