
 OpenBabel03232521003D

 42 45  0  0  1  0  0  0  0  0999 V2000
   45.5080   33.0300   47.2640 C   0  0  0  0  0  0  0  0  0  0  0  0
   45.9510   32.7680   46.0060 C   0  0  0  0  0  0  0  0  0  0  0  0
   46.1800   31.4110   45.7440 C   0  0  0  0  0  0  0  0  0  0  0  0
   45.9800   30.4220   46.6510 N   0  0  0  0  0  0  0  0  0  0  0  0
   45.5240   30.7430   47.9210 C   0  0  0  0  0  0  0  0  0  0  0  0
   45.3020   32.0240   48.1940 N   0  0  0  0  0  0  0  0  0  0  0  0
   45.3140   29.7340   48.8890 N   0  0  0  0  0  0  0  0  0  0  0  0
   45.3040   34.0430   47.5760 H   0  0  0  0  0  0  0  0  0  0  0  0
   45.1250   28.7240   48.6450 H   0  0  0  0  0  0  0  0  0  0  0  0
   45.3440   29.9800   49.8940 H   0  0  0  0  0  0  0  0  0  0  0  0
   46.1180   33.7160   44.9600 C   0  0  2  0  0  0  0  0  0  0  0  0
   44.9200   34.8030   45.2740 C   0  0  0  0  0  0  0  0  0  0  0  0
   44.6060   35.7250   44.2210 C   0  0  0  0  0  0  0  0  0  0  0  0
   45.3180   35.6540   42.9400 C   0  0  1  0  0  0  0  0  0  0  0  0
   46.3770   34.6550   42.8180 C   0  0  0  0  0  0  0  0  0  0  0  0
   45.9900   33.4240   43.6040 C   0  0  0  0  0  0  0  0  0  0  0  0
   46.9470   34.4400   45.2270 H   0  0  0  0  0  0  0  0  0  0  0  0
   44.3050   34.9520   46.1520 H   0  0  0  0  0  0  0  0  0  0  0  0
   43.8440   36.4410   44.3800 H   0  0  0  0  0  0  0  0  0  0  0  0
   45.7270   36.6620   42.7070 H   0  0  0  0  0  0  0  0  0  0  0  0
   47.4060   34.9830   43.1150 H   0  0  0  0  0  0  0  0  0  0  0  0
   46.4850   34.4140   41.7190 H   0  0  0  0  0  0  0  0  0  0  0  0
   45.0100   33.0590   43.2280 H   0  0  0  0  0  0  0  0  0  0  0  0
   46.8240   32.7790   43.2190 H   0  0  0  0  0  0  0  0  0  0  0  0
   44.2270   35.3760   41.8640 C   0  0  0  0  0  0  0  0  0  0  0  0
   43.1640   34.6430   42.3610 F   0  0  0  0  0  0  0  0  0  0  0  0
   43.7120   36.6160   41.5010 F   0  0  0  0  0  0  0  0  0  0  0  0
   44.8120   34.8330   40.7340 F   0  0  0  0  0  0  0  0  0  0  0  0
   46.7130   30.7130   44.5890 C   0  0  0  0  0  0  0  0  0  0  0  0
   46.3450   29.7400   43.7180 C   0  0  0  0  0  0  0  0  0  0  0  0
   47.4090   29.5150   42.8340 C   0  0  0  0  0  0  0  0  0  0  0  0
   48.3660   30.3630   43.2110 N   0  0  0  0  0  0  0  0  0  0  0  0
   47.9810   31.0790   44.2410 N   0  0  0  0  0  0  0  0  0  0  0  0
   45.3610   29.3190   43.8340 H   0  0  0  0  0  0  0  0  0  0  0  0
   47.3270   28.7780   42.0600 H   0  0  0  0  0  0  0  0  0  0  0  0
   49.8090   33.3830   40.3210 H   0  0  0  0  0  0  0  0  0  0  0  0
   50.1330   32.3930   40.2960 N   0  0  0  0  0  0  0  0  0  0  0  0
   51.0260   32.2020   41.4400 C   0  0  0  0  0  2  0  0  0  0  0  0
   50.1870   31.8620   42.6410 C   0  0  0  0  0  2  0  0  0  0  0  0
   49.6630   30.4380   42.5210 C   0  0  0  0  0  3  0  0  0  0  0  0
   49.4160   30.2070   41.0480 C   0  0  0  0  0  2  0  0  0  0  0  0
   49.0030   31.5060   40.3660 C   0  0  0  0  0  2  0  0  0  0  0  0
  1  8  1  0  0  0  0
  1  6  1  0  0  0  0
  2  1  2  0  0  0  0
  3  2  1  0  0  0  0
  3  4  2  0  0  0  0
  4  5  1  0  0  0  0
  5  6  2  0  0  0  0
  5  7  1  0  0  0  0
  7 10  1  0  0  0  0
  9  7  1  0  0  0  0
 11 17  1  1  0  0  0
 11 12  1  0  0  0  0
 11  2  1  0  0  0  0
 12 18  1  0  0  0  0
 13 19  1  0  0  0  0
 13 12  2  0  0  0  0
 14 20  1  6  0  0  0
 14 13  1  0  0  0  0
 15 14  1  0  0  0  0
 15 21  1  0  0  0  0
 15 16  1  0  0  0  0
 16 11  1  0  0  0  0
 22 15  1  0  0  0  0
 23 16  1  0  0  0  0
 24 16  1  0  0  0  0
 25 26  1  0  0  0  0
 25 14  1  0  0  0  0
 27 25  1  0  0  0  0
 28 25  1  0  0  0  0
 29  3  1  0  0  0  0
 30 34  1  0  0  0  0
 30 29  1  0  0  0  0
 31 32  1  0  0  0  0
 31 30  2  0  0  0  0
 32 33  1  0  0  0  0
 33 29  2  0  0  0  0
 35 31  1  0  0  0  0
 37 36  1  0  0  0  0
 37 42  1  0  0  0  0
 37 38  1  0  0  0  0
 38 39  1  0  0  0  0
 40 39  1  0  0  0  0
 40 32  1  0  0  0  0
 41 40  1  0  0  0  0
 42 41  1  0  0  0  0
M  END
>  <minimizedAffinity>
-6.12732553

>  <minimizedRMSD>
0.85072273

$$$$
