
 OpenBabel03232520283D

 46 50  0  0  1  0  0  0  0  0999 V2000
   46.9680   34.5330   41.3590 C   0  0  0  0  0  0  0  0  0  0  0  0
   48.2450   34.9690   41.0340 C   0  0  0  0  0  0  0  0  0  0  0  0
   48.5260   34.6750   39.7690 N   0  0  0  0  0  0  0  0  0  0  0  0
   47.4360   34.0490   39.2680 C   0  0  0  0  0  0  0  0  0  0  0  0
   47.1990   33.5340   37.9980 C   0  0  0  0  0  0  0  0  0  0  0  0
   45.9970   32.9390   37.7340 C   0  0  0  0  0  0  0  0  0  0  0  0
   44.9740   32.8060   38.6540 C   0  0  0  0  0  0  0  0  0  0  0  0
   45.2560   33.3320   39.8990 C   0  0  0  0  0  0  0  0  0  0  0  0
   46.4350   33.9390   40.2320 C   0  0  0  0  0  0  0  0  0  0  0  0
   49.3990   34.8530   39.1870 H   0  0  0  0  0  0  0  0  0  0  0  0
   47.9460   33.6000   37.2310 H   0  0  0  0  0  0  0  0  0  0  0  0
   45.8290   32.5410   36.7330 H   0  0  0  0  0  0  0  0  0  0  0  0
   44.0440   32.3290   38.3990 H   0  0  0  0  0  0  0  0  0  0  0  0
   44.4940   33.2610   40.6720 H   0  0  0  0  0  0  0  0  0  0  0  0
   44.7890   35.8850   44.0780 C   0  0  0  0  0  0  0  0  0  0  0  0
   45.4410   35.7650   42.8380 C   0  0  0  0  0  0  0  0  0  0  0  0
   46.2820   34.6650   42.6520 C   0  0  0  0  0  0  0  0  0  0  0  0
   46.4420   33.7550   43.6580 N   0  0  0  0  0  0  0  0  0  0  0  0
   45.7800   33.9310   44.8330 C   0  0  0  0  0  0  0  0  0  0  0  0
   44.9650   34.9720   45.0550 N   0  0  0  0  0  0  0  0  0  0  0  0
   44.1280   36.7030   44.2940 H   0  0  0  0  0  0  0  0  0  0  0  0
   45.2600   36.5240   42.1020 H   0  0  0  0  0  0  0  0  0  0  0  0
   46.0340   33.1090   45.5070 H   0  0  0  0  0  0  0  0  0  0  0  0
   49.1520   35.6590   41.9770 C   0  0  0  0  0  0  0  0  0  0  0  0
   49.7690   36.3930   41.4020 H   0  0  0  0  0  0  0  0  0  0  0  0
   48.5380   36.2000   42.7100 H   0  0  0  0  0  0  0  0  0  0  0  0
   50.0840   34.6920   42.6620 C   0  0  0  0  0  0  0  0  0  0  0  0
   51.1000   35.1220   42.8400 H   0  0  0  0  0  0  0  0  0  0  0  0
   49.6630   34.5250   43.6920 H   0  0  0  0  0  0  0  0  0  0  0  0
   50.2930   33.3980   41.9120 C   0  0  1  0  0  0  0  0  0  0  0  0
   50.8410   32.2100   42.5690 C   0  0  0  0  0  0  0  0  0  0  0  0
   49.3860   32.2560   42.3430 C   0  0  2  0  0  0  0  0  0  0  0  0
   50.4930   33.5880   40.8470 H   0  0  0  0  0  0  0  0  0  0  0  0
   51.1960   32.3980   43.6260 H   0  0  0  0  0  0  0  0  0  0  0  0
   51.4900   31.4770   42.0790 H   0  0  0  0  0  0  0  0  0  0  0  0
   48.7410   32.4440   43.2530 H   0  0  0  0  0  0  0  0  0  0  0  0
   48.7950   31.3610   41.3880 N   0  0  0  0  0  0  0  0  0  0  0  0
   47.7140   30.6110   41.6800 C   0  0  0  0  0  0  0  0  0  0  0  0
   47.1310   29.7460   40.7760 C   0  0  0  0  0  0  0  0  0  0  0  0
   45.9280   28.9330   41.1450 C   0  0  0  0  0  0  0  0  0  0  0  0
   47.6530   29.6170   39.5090 C   0  0  0  0  0  0  0  0  0  0  0  0
   47.0920   28.8140   38.7090 O   0  0  0  0  0  0  0  0  0  0  0  0
   48.7490   30.3790   39.2230 N   0  0  0  0  0  0  0  0  0  0  0  0
   49.2680   31.2020   40.1460 C   0  0  0  0  0  0  0  0  0  0  0  0
   50.2550   31.8280   39.7480 O   0  0  0  0  0  0  0  0  0  0  0  0
   49.1190   30.2590   38.2570 H   0  0  0  0  0  0  0  0  0  0  0  0
  1 17  1  0  0  0  0
  2  1  2  0  0  0  0
  2 24  1  0  0  0  0
  3  2  1  0  0  0  0
  4  3  1  0  0  0  0
  4  9  1  0  0  0  0
  5  4  2  0  0  0  0
  6  5  1  0  0  0  0
  6  7  2  0  0  0  0
  7  8  1  0  0  0  0
  8  9  2  0  0  0  0
  8 14  1  0  0  0  0
  9  1  1  0  0  0  0
 10  3  1  0  0  0  0
 11  5  1  0  0  0  0
 12  6  1  0  0  0  0
 13  7  1  0  0  0  0
 15 21  1  0  0  0  0
 15 20  1  0  0  0  0
 16 15  2  0  0  0  0
 17 16  1  0  0  0  0
 17 18  2  0  0  0  0
 18 19  1  0  0  0  0
 19 20  2  0  0  0  0
 19 23  1  0  0  0  0
 22 16  1  0  0  0  0
 24 27  1  0  0  0  0
 24 26  1  0  0  0  0
 25 24  1  0  0  0  0
 27 28  1  0  0  0  0
 27 29  1  0  0  0  0
 30 33  1  6  0  0  0
 30 32  1  0  0  0  0
 30 31  1  0  0  0  0
 30 27  1  0  0  0  0
 31 34  1  0  0  0  0
 32 31  1  0  0  0  0
 32 36  1  1  0  0  0
 35 31  1  0  0  0  0
 37 38  1  0  0  0  0
 37 32  1  0  0  0  0
 39 40  1  0  0  0  0
 39 38  2  0  0  0  0
 41 39  1  0  0  0  0
 42 41  2  0  0  0  0
 43 41  1  0  0  0  0
 43 44  1  0  0  0  0
 44 37  1  0  0  0  0
 45 44  2  0  0  0  0
 46 43  1  0  0  0  0
M  END
>  <minimizedAffinity>
-5.9844842

>  <minimizedRMSD>
0.586697757

$$$$
