
 OpenBabel03232518503D

 35 37  0  0  0  0  0  0  0  0999 V2000
   47.4390   33.0540   43.6450 C   0  0  0  0  0  0  0  0  0  0  0  0
   47.5640   31.8090   43.4960 O   0  0  0  0  0  0  0  0  0  0  0  0
   44.7630   35.2990   44.9090 C   0  0  0  0  0  0  0  0  0  0  0  0
   45.6910   34.8020   44.0000 C   0  0  0  0  0  0  0  0  0  0  0  0
   46.4430   33.7160   44.4080 C   0  0  0  0  0  0  0  0  0  0  0  0
   46.2490   33.1940   45.6550 N   0  0  0  0  0  0  0  0  0  0  0  0
   45.3620   33.6780   46.5070 C   0  0  0  0  0  0  0  0  0  0  0  0
   44.6440   34.7110   46.1200 N   0  0  0  0  0  0  0  0  0  0  0  0
   44.1380   36.1480   44.6560 H   0  0  0  0  0  0  0  0  0  0  0  0
   45.8730   35.3870   42.6710 C   0  0  0  0  0  0  0  0  0  0  0  0
   45.0190   36.4950   42.5920 F   0  0  0  0  0  0  0  0  0  0  0  0
   45.3970   34.5450   41.6850 F   0  0  0  0  0  0  0  0  0  0  0  0
   47.1550   35.7610   42.4080 F   0  0  0  0  0  0  0  0  0  0  0  0
   45.1220   33.1960   47.7690 O   0  0  0  0  0  0  0  0  0  0  0  0
   45.8620   32.1390   48.3430 C   0  0  0  0  0  0  0  0  0  0  0  0
   47.2110   32.4870   48.4400 F   0  0  0  0  0  0  0  0  0  0  0  0
   45.6650   30.9440   47.7250 F   0  0  0  0  0  0  0  0  0  0  0  0
   45.4450   32.0480   49.6840 F   0  0  0  0  0  0  0  0  0  0  0  0
   48.5370   33.3250   42.8480 O   0  0  0  0  0  0  0  0  0  0  0  0
   48.7540   32.8540   41.5930 C   0  0  0  0  0  0  0  0  0  0  0  0
   47.7300   32.7670   40.5020 C   0  0  0  0  0  0  0  0  0  0  0  0
   48.7050   32.0570   39.1600 S   0  0  0  0  0  0  0  0  0  0  0  0
   50.2750   31.9860   40.2020 C   0  0  0  0  0  0  0  0  0  0  0  0
   49.9560   32.4260   41.2710 N   0  0  0  0  0  0  0  0  0  0  0  0
   46.6000   33.0410   40.3870 H   0  0  0  0  0  0  0  0  0  0  0  0
   51.5500   31.4760   39.6890 N   0  0  0  0  0  0  0  0  0  0  0  0
   52.3310   30.9560   40.6590 C   0  0  0  0  0  0  0  0  0  0  0  0
   53.5510   30.4550   40.2480 C   0  0  0  0  0  0  0  0  0  0  0  0
   54.5340   29.8430   41.2090 C   0  0  0  0  0  0  0  0  0  0  0  0
   53.9230   30.4990   38.9130 C   0  0  0  0  0  0  0  0  0  0  0  0
   55.0310   30.0540   38.4750 O   0  0  0  0  0  0  0  0  0  0  0  0
   53.0750   31.0410   37.9920 N   0  0  0  0  0  0  0  0  0  0  0  0
   51.8850   31.5280   38.4000 C   0  0  0  0  0  0  0  0  0  0  0  0
   51.0210   32.0520   37.6470 O   0  0  0  0  0  0  0  0  0  0  0  0
   53.2880   31.1090   36.9550 H   0  0  0  0  0  0  0  0  0  0  0  0
  1  5  1  0  0  0  0
  2  1  2  0  0  0  0
  3  8  1  0  0  0  0
  4  5  1  0  0  0  0
  4  3  2  0  0  0  0
  5  6  2  0  0  0  0
  6  7  1  0  0  0  0
  7 14  1  0  0  0  0
  8  7  2  0  0  0  0
  9  3  1  0  0  0  0
 10  4  1  0  0  0  0
 11 10  1  0  0  0  0
 12 10  1  0  0  0  0
 13 10  1  0  0  0  0
 14 15  1  0  0  0  0
 15 16  1  0  0  0  0
 15 18  1  0  0  0  0
 17 15  1  0  0  0  0
 19  1  1  0  0  0  0
 20 19  1  0  0  0  0
 21 20  2  0  0  0  0
 22 23  1  0  0  0  0
 22 21  1  0  0  0  0
 23 24  2  0  0  0  0
 24 20  1  0  0  0  0
 25 21  1  0  0  0  0
 26 23  1  0  0  0  0
 26 27  1  0  0  0  0
 28 27  2  0  0  0  0
 28 29  1  0  0  0  0
 30 28  1  0  0  0  0
 31 30  2  0  0  0  0
 32 33  1  0  0  0  0
 32 30  1  0  0  0  0
 33 26  1  0  0  0  0
 34 33  2  0  0  0  0
 35 32  1  0  0  0  0
M  END
>  <minimizedAffinity>
-6.57703257

>  <minimizedRMSD>
0.583591521

$$$$
