
 OpenBabel03232519523D

 43 46  0  0  1  0  0  0  0  0999 V2000
   46.7820   33.9350   42.4180 N   0  0  0  0  0  0  0  0  0  0  0  0
   47.9130   34.4590   41.6700 C   0  0  0  0  0  0  0  0  0  0  0  0
   47.6000   33.9130   40.2980 C   0  0  0  0  0  0  0  0  0  0  0  0
   47.3420   32.4640   40.6300 C   0  0  0  0  0  0  0  0  0  0  0  0
   46.5870   32.5580   41.9210 C   0  0  2  0  0  0  0  0  0  0  0  0
   48.8860   34.0870   42.0050 H   0  0  0  0  0  0  0  0  0  0  0  0
   47.8470   35.5620   41.6000 H   0  0  0  0  0  0  0  0  0  0  0  0
   46.7860   34.4280   39.7960 H   0  0  0  0  0  0  0  0  0  0  0  0
   48.5300   33.9450   39.6730 H   0  0  0  0  0  0  0  0  0  0  0  0
   46.6700   32.0490   39.8450 H   0  0  0  0  0  0  0  0  0  0  0  0
   48.3030   31.9370   40.7020 H   0  0  0  0  0  0  0  0  0  0  0  0
   47.1680   31.9410   42.6480 H   0  0  0  0  0  0  0  0  0  0  0  0
   44.5540   36.2710   44.2500 C   0  0  0  0  0  0  0  0  0  0  0  0
   45.3120   35.7320   43.2050 C   0  0  0  0  0  0  0  0  0  0  0  0
   46.0000   34.5440   43.4110 C   0  0  0  0  0  0  0  0  0  0  0  0
   45.8900   33.9680   44.6420 N   0  0  0  0  0  0  0  0  0  0  0  0
   45.1530   34.5050   45.6380 C   0  0  0  0  0  0  0  0  0  0  0  0
   44.4910   35.6550   45.4300 N   0  0  0  0  0  0  0  0  0  0  0  0
   45.1620   33.7550   46.8530 N   0  0  0  0  0  0  0  0  0  0  0  0
   44.0360   37.1930   44.0560 H   0  0  0  0  0  0  0  0  0  0  0  0
   45.4240   36.1560   42.2220 H   0  0  0  0  0  0  0  0  0  0  0  0
   44.5420   32.9080   46.7810 H   0  0  0  0  0  0  0  0  0  0  0  0
   45.7510   34.1050   47.6450 H   0  0  0  0  0  0  0  0  0  0  0  0
   45.2320   32.1380   41.8850 N   0  0  0  0  0  0  0  0  0  0  0  0
   44.3130   32.4580   40.9820 C   0  0  0  0  0  0  0  0  0  0  0  0
   43.0050   31.9960   41.0270 C   0  0  0  0  0  0  0  0  0  0  0  0
   42.6160   31.1600   42.0560 C   0  0  0  0  0  0  0  0  0  0  0  0
   41.4290   30.7090   42.1430 O   0  0  0  0  0  0  0  0  0  0  0  0
   43.5450   30.8390   42.9660 N   0  0  0  0  0  0  0  0  0  0  0  0
   44.7810   31.3110   42.8700 C   0  0  0  0  0  0  0  0  0  0  0  0
   45.5950   30.9520   43.7800 O   0  0  0  0  0  0  0  0  0  0  0  0
   44.6280   33.1200   40.1740 H   0  0  0  0  0  0  0  0  0  0  0  0
   43.2670   30.2060   43.7530 H   0  0  0  0  0  0  0  0  0  0  0  0
   42.0110   32.3780   39.9920 C   0  0  0  0  0  0  0  0  0  0  0  0
   42.5500   32.4920   39.0280 H   0  0  0  0  0  0  0  0  0  0  0  0
   41.2120   31.6060   39.8710 H   0  0  0  0  0  0  0  0  0  0  0  0
   41.3820   33.6860   40.2720 C   0  0  0  0  0  0  0  0  0  0  0  0
   40.2580   34.2310   39.6770 C   0  0  0  0  0  0  0  0  0  0  0  0
   39.7640   35.4500   40.0200 C   0  0  0  0  0  0  0  0  0  0  0  0
   40.3860   36.1590   40.9730 N   0  0  0  0  0  0  0  0  0  0  0  0
   41.4970   35.6560   41.5840 C   0  0  0  0  0  0  0  0  0  0  0  0
   42.0290   36.2140   42.3700 H   0  0  0  0  0  0  0  0  0  0  0  0
   41.9700   34.4490   41.2300 N   0  0  0  0  0  0  0  0  0  0  0  0
  1 15  1  0  0  0  0
  2  6  1  0  0  0  0
  2  1  1  0  0  0  0
  3  4  1  0  0  0  0
  3  2  1  0  0  0  0
  4 11  1  0  0  0  0
  4  5  1  0  0  0  0
  5  1  1  0  0  0  0
  5 12  1  1  0  0  0
  7  2  1  0  0  0  0
  8  3  1  0  0  0  0
  9  3  1  0  0  0  0
 10  4  1  0  0  0  0
 13 18  1  0  0  0  0
 14 15  1  0  0  0  0
 14 13  2  0  0  0  0
 15 16  2  0  0  0  0
 16 17  1  0  0  0  0
 17 19  1  0  0  0  0
 18 17  2  0  0  0  0
 19 23  1  0  0  0  0
 20 13  1  0  0  0  0
 21 14  1  0  0  0  0
 22 19  1  0  0  0  0
 24  5  1  0  0  0  0
 24 30  1  0  0  0  0
 25 26  2  0  0  0  0
 25 24  1  0  0  0  0
 26 27  1  0  0  0  0
 27 28  2  0  0  0  0
 27 29  1  0  0  0  0
 29 33  1  0  0  0  0
 30 29  1  0  0  0  0
 30 31  2  0  0  0  0
 32 25  1  0  0  0  0
 34 37  1  0  0  0  0
 34 26  1  0  0  0  0
 35 34  1  0  0  0  0
 36 34  1  0  0  0  0
 37 43  1  0  0  0  0
 38 39  1  0  0  0  0
 38 37  2  0  0  0  0
 39 40  2  0  0  0  0
 40 41  1  0  0  0  0
 41 42  1  0  0  0  0
 43 41  2  0  0  0  0
M  END
>  <minimizedAffinity>
-6.32576704

>  <minimizedRMSD>
1.96309805

$$$$
