
 OpenBabel03232520583D

 37 39  0  0  1  0  0  0  0  0999 V2000
   45.3510   32.8890   47.5150 C   0  0  0  0  0  0  0  0  0  0  0  0
   45.9020   32.6360   46.3070 C   0  0  0  0  0  0  0  0  0  0  0  0
   46.1740   31.2900   46.0610 C   0  0  0  0  0  0  0  0  0  0  0  0
   45.9110   30.3020   46.9550 N   0  0  0  0  0  0  0  0  0  0  0  0
   45.3510   30.6300   48.1720 C   0  0  0  0  0  0  0  0  0  0  0  0
   45.0840   31.8990   48.4240 N   0  0  0  0  0  0  0  0  0  0  0  0
   45.1390   29.6070   49.1440 N   0  0  0  0  0  0  0  0  0  0  0  0
   45.1040   33.8960   47.8110 H   0  0  0  0  0  0  0  0  0  0  0  0
   45.7920   29.8570   49.9360 H   0  0  0  0  0  0  0  0  0  0  0  0
   44.5120   28.7830   49.1440 H   0  0  0  0  0  0  0  0  0  0  0  0
   46.1640   33.5840   45.2770 C   0  0  2  0  0  0  0  0  0  0  0  0
   44.9590   34.6840   45.5010 C   0  0  0  0  0  0  0  0  0  0  0  0
   44.7340   35.6160   44.4330 C   0  0  0  0  0  0  0  0  0  0  0  0
   45.5360   35.5400   43.2090 C   0  0  1  0  0  0  0  0  0  0  0  0
   46.5990   34.5400   43.1690 C   0  0  0  0  0  0  0  0  0  0  0  0
   46.1470   33.3040   43.9130 C   0  0  0  0  0  0  0  0  0  0  0  0
   46.9430   34.3290   45.6220 H   0  0  0  0  0  0  0  0  0  0  0  0
   44.2770   34.8410   46.3250 H   0  0  0  0  0  0  0  0  0  0  0  0
   43.9570   36.3480   44.5470 H   0  0  0  0  0  0  0  0  0  0  0  0
   45.9570   36.5500   43.0170 H   0  0  0  0  0  0  0  0  0  0  0  0
   46.9010   34.3430   42.1170 H   0  0  0  0  0  0  0  0  0  0  0  0
   47.4850   34.9350   43.7450 H   0  0  0  0  0  0  0  0  0  0  0  0
   45.2020   32.9880   43.4250 H   0  0  0  0  0  0  0  0  0  0  0  0
   47.0020   32.6550   43.5920 H   0  0  0  0  0  0  0  0  0  0  0  0
   44.5270   35.2710   42.0540 C   0  0  0  0  0  0  0  0  0  0  0  0
   43.4690   34.4680   42.4460 F   0  0  0  0  0  0  0  0  0  0  0  0
   43.9800   36.5090   41.7210 F   0  0  0  0  0  0  0  0  0  0  0  0
   45.2100   34.8170   40.9420 F   0  0  0  0  0  0  0  0  0  0  0  0
   46.8060   30.5910   44.9510 C   0  0  0  0  0  0  0  0  0  0  0  0
   46.4420   29.8970   43.8420 C   0  0  0  0  0  0  0  0  0  0  0  0
   47.6120   29.4450   43.2170 C   0  0  0  0  0  0  0  0  0  0  0  0
   48.6200   29.8860   43.9720 N   0  0  0  0  0  0  0  0  0  0  0  0
   48.1660   30.5640   44.9990 N   0  0  0  0  0  0  0  0  0  0  0  0
   45.3850   29.8100   43.6360 H   0  0  0  0  0  0  0  0  0  0  0  0
   47.5500   28.8650   42.3080 H   0  0  0  0  0  0  0  0  0  0  0  0
   50.0230   29.6140   43.6440 C   0  0  0  0  0  2  0  0  0  0  0  0
   50.3400   28.6210   44.0710 H   0  0  0  0  0  0  0  0  0  0  0  0
  1  8  1  0  0  0  0
  1  6  1  0  0  0  0
  2  1  2  0  0  0  0
  3  2  1  0  0  0  0
  3  4  2  0  0  0  0
  4  5  1  0  0  0  0
  5  6  2  0  0  0  0
  5  7  1  0  0  0  0
  7  9  1  0  0  0  0
 10  7  1  0  0  0  0
 11 12  1  0  0  0  0
 11 17  1  1  0  0  0
 11  2  1  0  0  0  0
 12 18  1  0  0  0  0
 13 19  1  0  0  0  0
 13 12  2  0  0  0  0
 14 20  1  6  0  0  0
 14 13  1  0  0  0  0
 15 14  1  0  0  0  0
 15 22  1  0  0  0  0
 15 16  1  0  0  0  0
 16 11  1  0  0  0  0
 21 15  1  0  0  0  0
 23 16  1  0  0  0  0
 24 16  1  0  0  0  0
 25 26  1  0  0  0  0
 25 14  1  0  0  0  0
 27 25  1  0  0  0  0
 28 25  1  0  0  0  0
 29 33  2  0  0  0  0
 29  3  1  0  0  0  0
 30 29  1  0  0  0  0
 31 30  2  0  0  0  0
 31 32  1  0  0  0  0
 32 33  1  0  0  0  0
 34 30  1  0  0  0  0
 35 31  1  0  0  0  0
 36 32  1  0  0  0  0
 36 37  1  0  0  0  0
M  END
>  <minimizedAffinity>
-5.66521549

>  <minimizedRMSD>
0.0686742887

$$$$
