
 OpenBabel03232520543D

 30 31  0  0  1  0  0  0  0  0999 V2000
   46.0990   33.8990   45.2650 C   0  0  2  0  0  0  0  0  0  0  0  0
   44.8880   34.8850   45.3980 C   0  0  0  0  0  0  0  0  0  0  0  0
   44.6090   35.7170   44.2550 C   0  0  0  0  0  0  0  0  0  0  0  0
   45.4110   35.6250   43.0370 C   0  0  1  0  0  0  0  0  0  0  0  0
   46.5570   34.7050   43.0610 C   0  0  0  0  0  0  0  0  0  0  0  0
   46.2390   33.5020   43.8910 C   0  0  0  0  0  0  0  0  0  0  0  0
   46.8880   34.6560   45.5890 H   0  0  0  0  0  0  0  0  0  0  0  0
   44.1790   35.0920   46.1920 H   0  0  0  0  0  0  0  0  0  0  0  0
   43.7850   36.4150   44.2980 H   0  0  0  0  0  0  0  0  0  0  0  0
   45.7730   36.6230   42.7010 H   0  0  0  0  0  0  0  0  0  0  0  0
   46.7590   34.3560   42.0190 H   0  0  0  0  0  0  0  0  0  0  0  0
   47.5050   35.1320   43.4420 H   0  0  0  0  0  0  0  0  0  0  0  0
   45.2430   33.1150   43.5120 H   0  0  0  0  0  0  0  0  0  0  0  0
   46.9630   32.7450   43.5890 H   0  0  0  0  0  0  0  0  0  0  0  0
   45.1630   33.1190   47.3810 C   0  0  0  0  0  0  0  0  0  0  0  0
   45.9700   32.9220   46.3070 C   0  0  0  0  0  0  0  0  0  0  0  0
   46.6520   31.7040   46.2500 C   0  0  0  0  0  0  0  0  0  0  0  0
   46.5230   30.7770   47.2040 N   0  0  0  0  0  0  0  0  0  0  0  0
   45.7020   31.0000   48.2860 C   0  0  0  0  0  0  0  0  0  0  0  0
   45.0410   32.1530   48.3580 N   0  0  0  0  0  0  0  0  0  0  0  0
   45.5940   30.0220   49.3170 N   0  0  0  0  0  0  0  0  0  0  0  0
   44.5780   34.0130   47.5490 H   0  0  0  0  0  0  0  0  0  0  0  0
   45.6530   29.0020   49.1320 H   0  0  0  0  0  0  0  0  0  0  0  0
   45.4470   30.3580   50.3080 H   0  0  0  0  0  0  0  0  0  0  0  0
   47.5230   31.2660   45.2670 O   0  0  0  0  0  0  0  0  0  0  0  0
   48.5260   31.3500   45.2930 H   0  0  0  0  0  0  0  0  0  0  0  0
   44.4470   35.1970   41.9020 C   0  0  0  0  0  0  0  0  0  0  0  0
   43.5060   34.2820   42.3060 F   0  0  0  0  0  0  0  0  0  0  0  0
   43.7420   36.3440   41.5230 F   0  0  0  0  0  0  0  0  0  0  0  0
   45.1670   34.7810   40.8000 F   0  0  0  0  0  0  0  0  0  0  0  0
  1  2  1  0  0  0  0
  1  7  1  1  0  0  0
  1 16  1  0  0  0  0
  2  8  1  0  0  0  0
  3  9  1  0  0  0  0
  3  2  2  0  0  0  0
  4 10  1  6  0  0  0
  4  5  1  0  0  0  0
  4  3  1  0  0  0  0
  5 12  1  0  0  0  0
  5  6  1  0  0  0  0
  6  1  1  0  0  0  0
 11  5  1  0  0  0  0
 13  6  1  0  0  0  0
 14  6  1  0  0  0  0
 15 22  1  0  0  0  0
 15 20  1  0  0  0  0
 16 15  2  0  0  0  0
 17 16  1  0  0  0  0
 17 18  2  0  0  0  0
 18 19  1  0  0  0  0
 19 20  2  0  0  0  0
 19 21  1  0  0  0  0
 21 24  1  0  0  0  0
 23 21  1  0  0  0  0
 25 26  1  0  0  0  0
 25 17  1  0  0  0  0
 27 28  1  0  0  0  0
 27  4  1  0  0  0  0
 29 27  1  0  0  0  0
 30 27  1  0  0  0  0
M  END
>  <minimizedAffinity>
-5.67320299

>  <minimizedRMSD>
0.392159373

$$$$
