
 OpenBabel03232516583D

 30 32  0  0  0  0  0  0  0  0999 V2000
   45.7440   34.6980   43.7670 C   0  0  0  0  0  0  0  0  0  0  0  0
   46.9420   34.2040   43.2860 C   0  0  0  0  0  0  0  0  0  0  0  0
   47.5720   33.1750   44.0110 C   0  0  0  0  0  0  0  0  0  0  0  0
   46.9690   32.7220   45.1400 N   0  0  0  0  0  0  0  0  0  0  0  0
   45.7940   33.2290   45.5830 C   0  0  0  0  0  0  0  0  0  0  0  0
   45.1970   34.2130   44.8860 N   0  0  0  0  0  0  0  0  0  0  0  0
   48.5110   32.7480   43.6850 H   0  0  0  0  0  0  0  0  0  0  0  0
   45.2790   32.9130   46.4600 H   0  0  0  0  0  0  0  0  0  0  0  0
   47.6220   34.6410   42.1050 N   0  0  0  0  0  0  0  0  0  0  0  0
   48.5150   35.6110   41.9010 C   0  0  0  0  0  0  0  0  0  0  0  0
   48.8540   35.6130   40.5840 N   0  0  0  0  0  0  0  0  0  0  0  0
   48.1790   34.6480   39.9560 C   0  0  0  0  0  0  0  0  0  0  0  0
   48.1090   34.1830   38.6590 C   0  0  0  0  0  0  0  0  0  0  0  0
   47.3040   33.1590   38.3390 N   0  0  0  0  0  0  0  0  0  0  0  0
   46.5340   32.5470   39.2770 C   0  0  0  0  0  0  0  0  0  0  0  0
   46.6100   33.0050   40.5280 N   0  0  0  0  0  0  0  0  0  0  0  0
   47.3900   34.0170   40.9020 C   0  0  0  0  0  0  0  0  0  0  0  0
   48.9010   34.7860   37.6320 N   0  0  0  0  0  0  0  0  0  0  0  0
   48.8800   36.2630   42.6840 H   0  0  0  0  0  0  0  0  0  0  0  0
   45.9160   31.7420   38.9640 H   0  0  0  0  0  0  0  0  0  0  0  0
   48.1860   35.2660   37.0160 H   0  0  0  0  0  0  0  0  0  0  0  0
   49.8880   34.5200   37.8830 H   0  0  0  0  0  0  0  0  0  0  0  0
   45.1580   35.7420   42.9820 C   0  0  0  0  0  0  0  0  0  0  0  0
   45.1880   36.9860   43.2390 O   0  0  0  0  0  0  0  0  0  0  0  0
   44.4740   35.4480   41.8070 O   0  0  0  0  0  0  0  0  0  0  0  0
   43.1150   35.4330   41.6580 C   0  0  0  0  0  0  0  0  0  0  0  0
   42.2050   35.6090   42.7340 N   0  0  0  0  0  0  0  0  0  0  0  0
   42.6910   35.2490   40.4730 O   0  0  0  0  0  0  0  0  0  0  0  0
   42.5980   35.7170   43.6910 H   0  0  0  0  0  0  0  0  0  0  0  0
   41.1830   35.6240   42.5320 H   0  0  0  0  0  0  0  0  0  0  0  0
  1  6  1  0  0  0  0
  2  1  2  0  0  0  0
  2  3  1  0  0  0  0
  3  4  2  0  0  0  0
  4  5  1  0  0  0  0
  5  8  1  0  0  0  0
  6  5  2  0  0  0  0
  7  3  1  0  0  0  0
  9  2  1  0  0  0  0
 10  9  1  0  0  0  0
 10 19  1  0  0  0  0
 11 10  2  0  0  0  0
 12 11  1  0  0  0  0
 12 17  1  0  0  0  0
 13 12  2  0  0  0  0
 14 13  1  0  0  0  0
 14 15  2  0  0  0  0
 15 16  1  0  0  0  0
 16 17  2  0  0  0  0
 17  9  1  0  0  0  0
 18 22  1  0  0  0  0
 18 13  1  0  0  0  0
 20 15  1  0  0  0  0
 21 18  1  0  0  0  0
 23 24  2  0  0  0  0
 23  1  1  0  0  0  0
 25 23  1  0  0  0  0
 26 25  1  0  0  0  0
 26 27  1  0  0  0  0
 27 29  1  0  0  0  0
 28 26  2  0  0  0  0
 30 27  1  0  0  0  0
M  END
>  <minimizedAffinity>
-6.06125927

>  <minimizedRMSD>
0.732977629

$$$$
