
 OpenBabel03232519163D

 34 36  0  0  1  0  0  0  0  0999 V2000
   44.4180   35.6110   43.1270 C   0  0  1  0  0  0  0  0  0  0  0  0
   43.5290   35.4990   43.8110 H   0  0  0  0  0  0  0  0  0  0  0  0
   45.4200   34.6420   43.6220 C   0  0  0  0  0  0  0  0  0  0  0  0
   46.6400   34.5110   42.8780 C   0  0  0  0  0  0  0  0  0  0  0  0
   47.6350   33.6050   43.2990 C   0  0  0  0  0  0  0  0  0  0  0  0
   47.3620   32.8920   44.4220 N   0  0  0  0  0  0  0  0  0  0  0  0
   46.2250   33.0270   45.1010 C   0  0  0  0  0  0  0  0  0  0  0  0
   45.2340   33.8940   44.7250 N   0  0  0  0  0  0  0  0  0  0  0  0
   46.7980   35.0960   42.0050 H   0  0  0  0  0  0  0  0  0  0  0  0
   48.5380   33.5070   42.7480 H   0  0  0  0  0  0  0  0  0  0  0  0
   45.9430   32.2440   46.3200 C   0  0  0  0  0  0  0  0  0  0  0  0
   46.0010   30.8370   46.2190 C   0  0  0  0  0  0  0  0  0  0  0  0
   45.5870   30.3590   47.9810 S   0  0  0  0  0  0  0  0  0  0  0  0
   45.4230   32.1720   48.4850 C   0  0  0  0  0  0  0  0  0  0  0  0
   45.6450   32.6680   47.5120 N   0  0  0  0  0  0  0  0  0  0  0  0
   46.1870   30.1050   45.5170 H   0  0  0  0  0  0  0  0  0  0  0  0
   45.1690   32.9230   49.4570 H   0  0  0  0  0  0  0  0  0  0  0  0
   44.9500   37.0000   43.2030 C   0  0  0  0  0  0  0  0  0  0  0  0
   44.2500   37.7240   43.6630 H   0  0  0  0  0  0  0  0  0  0  0  0
   45.8470   36.9980   43.8710 H   0  0  0  0  0  0  0  0  0  0  0  0
   45.3230   37.3760   42.2110 H   0  0  0  0  0  0  0  0  0  0  0  0
   43.9490   35.2720   41.7470 C   0  0  0  0  0  0  0  0  0  0  0  0
   44.2670   36.0750   41.0630 H   0  0  0  0  0  0  0  0  0  0  0  0
   44.5100   34.3390   41.4430 H   0  0  0  0  0  0  0  0  0  0  0  0
   42.5800   35.0540   41.5700 N   0  0  0  0  0  0  0  0  0  0  0  0
   41.3960   34.3680   41.8750 C   0  0  1  0  0  0  0  0  0  0  0  0
   40.0410   34.1800   42.1770 N   0  0  0  0  0  0  0  0  0  0  0  0
   41.1550   35.6430   41.8250 O   0  0  0  0  0  0  0  0  0  0  0  0
   39.2800   34.0270   41.4480 H   0  0  0  0  0  0  0  0  0  0  0  0
   39.6320   34.1610   43.1450 H   0  0  0  0  0  0  0  0  0  0  0  0
   42.0080   35.1350   40.3320 C   0  0  0  0  0  0  0  0  0  0  0  0
   40.8060   35.7500   40.2550 F   0  0  0  0  0  0  0  0  0  0  0  0
   41.7460   33.7390   40.0140 F   0  0  0  0  0  0  0  0  0  0  0  0
   42.8750   35.5970   39.3370 F   0  0  0  0  0  0  0  0  0  0  0  0
  1 18  1  0  0  0  0
  1  3  1  0  0  0  0
  1  2  1  1  0  0  0
  3  8  1  0  0  0  0
  4  5  1  0  0  0  0
  4  3  2  0  0  0  0
  5  6  2  0  0  0  0
  6  7  1  0  0  0  0
  7 11  1  0  0  0  0
  8  7  2  0  0  0  0
  9  4  1  0  0  0  0
 10  5  1  0  0  0  0
 11 15  1  0  0  0  0
 12 11  2  0  0  0  0
 12 13  1  0  0  0  0
 13 14  1  0  0  0  0
 14 17  1  0  0  0  0
 15 14  2  0  0  0  0
 16 12  1  0  0  0  0
 18 19  1  0  0  0  0
 18 20  1  0  0  0  0
 21 18  1  0  0  0  0
 22  1  1  0  0  0  0
 23 22  1  0  0  0  0
 24 22  1  0  0  0  0
 25 22  1  0  0  0  0
 25 28  1  0  0  0  0
 25 26  1  0  0  0  0
 26 27  1  1  0  0  0
 27 30  1  0  0  0  0
 28 26  1  0  0  0  0
 29 27  1  0  0  0  0
 31 25  1  0  0  0  0
 32 31  1  0  0  0  0
 33 31  1  0  0  0  0
 34 31  1  0  0  0  0
M  END
>  <minimizedAffinity>
-5.3690033

>  <minimizedRMSD>
0.979090095

$$$$
