
 OpenBabel03232507333D

 31 32  0  0  1  0  0  0  0  0999 V2000
   45.5810   33.7730   41.7910 N   0  0  0  0  0  0  0  0  0  0  0  0
   44.8540   32.6620   41.2280 C   0  0  0  0  0  0  0  0  0  0  0  0
   44.8650   32.5430   39.7670 C   0  0  0  0  0  0  0  0  0  0  0  0
   45.7720   33.2790   39.0830 O   0  0  0  0  0  0  0  0  0  0  0  0
   46.8930   33.6320   39.7640 C   0  0  0  0  0  0  0  0  0  0  0  0
   46.5930   34.4440   41.0210 C   0  0  2  0  0  0  0  0  0  0  0  0
   45.3900   34.0140   45.5170 C   0  0  0  0  0  0  0  0  0  0  0  0
   45.6730   33.5130   44.2440 C   0  0  0  0  0  0  0  0  0  0  0  0
   45.3190   34.2320   43.1070 C   0  0  0  0  0  0  0  0  0  0  0  0
   44.6790   35.4590   43.2810 N   0  0  0  0  0  0  0  0  0  0  0  0
   44.4240   35.9070   44.5310 C   0  0  0  0  0  0  0  0  0  0  0  0
   44.7730   35.1980   45.6210 N   0  0  0  0  0  0  0  0  0  0  0  0
   43.8190   32.6890   41.6230 H   0  0  0  0  0  0  0  0  0  0  0  0
   45.3130   31.7540   41.7160 H   0  0  0  0  0  0  0  0  0  0  0  0
   45.0480   31.4660   39.4930 H   0  0  0  0  0  0  0  0  0  0  0  0
   43.8500   32.7590   39.3510 H   0  0  0  0  0  0  0  0  0  0  0  0
   47.5330   34.2640   39.0840 H   0  0  0  0  0  0  0  0  0  0  0  0
   47.4640   32.7480   40.0700 H   0  0  0  0  0  0  0  0  0  0  0  0
   46.1250   35.3910   40.6550 H   0  0  0  0  0  0  0  0  0  0  0  0
   45.7220   33.3500   46.3040 H   0  0  0  0  0  0  0  0  0  0  0  0
   46.1660   32.5680   44.0750 H   0  0  0  0  0  0  0  0  0  0  0  0
   43.9300   36.8530   44.7040 H   0  0  0  0  0  0  0  0  0  0  0  0
   47.8730   34.6780   41.7430 C   0  0  0  0  0  0  0  0  0  0  0  0
   47.6080   35.4160   42.5430 H   0  0  0  0  0  0  0  0  0  0  0  0
   48.4260   35.3520   41.0120 H   0  0  0  0  0  0  0  0  0  0  0  0
   48.5920   33.7510   42.1160 O   0  0  0  0  0  0  0  0  0  0  0  0
   49.8970   33.4450   41.8260 C   0  0  0  0  0  0  0  0  0  0  0  0
   50.3600   32.5450   40.8290 N   0  0  0  0  0  0  0  0  0  0  0  0
   50.7420   34.0610   42.5570 O   0  0  0  0  0  0  0  0  0  0  0  0
   50.6790   32.3820   39.8470 H   0  0  0  0  0  0  0  0  0  0  0  0
   50.3720   31.6400   41.3690 H   0  0  0  0  0  0  0  0  0  0  0  0
  1  9  1  0  0  0  0
  2 13  1  0  0  0  0
  2 14  1  0  0  0  0
  2  1  1  0  0  0  0
  3  2  1  0  0  0  0
  4  5  1  0  0  0  0
  4  3  1  0  0  0  0
  5 18  1  0  0  0  0
  5  6  1  0  0  0  0
  6 19  1  6  0  0  0
  6 23  1  0  0  0  0
  6  1  1  0  0  0  0
  7 12  1  0  0  0  0
  7 20  1  0  0  0  0
  8  7  2  0  0  0  0
  9 10  2  0  0  0  0
  9  8  1  0  0  0  0
 10 11  1  0  0  0  0
 11 22  1  0  0  0  0
 11 12  2  0  0  0  0
 15  3  1  0  0  0  0
 16  3  1  0  0  0  0
 17  5  1  0  0  0  0
 21  8  1  0  0  0  0
 23 26  1  0  0  0  0
 23 24  1  0  0  0  0
 25 23  1  0  0  0  0
 27 26  1  0  0  0  0
 27 29  2  0  0  0  0
 28 31  1  0  0  0  0
 28 27  1  0  0  0  0
 30 28  1  0  0  0  0
M  END
>  <minimizedAffinity>
-4.32228613

>  <minimizedRMSD>
2.29077983

$$$$
