
 OpenBabel03232517243D

 27 29  0  0  0  0  0  0  0  0999 V2000
   46.7660   34.0310   43.4670 C   0  0  0  0  0  0  0  0  0  0  0  0
   47.3620   33.0950   44.2980 C   0  0  0  0  0  0  0  0  0  0  0  0
   46.8240   32.8300   45.5460 C   0  0  0  0  0  0  0  0  0  0  0  0
   45.7080   33.4960   45.9450 C   0  0  0  0  0  0  0  0  0  0  0  0
   45.0910   34.4260   45.1540 C   0  0  0  0  0  0  0  0  0  0  0  0
   45.6530   34.6600   43.9260 C   0  0  0  0  0  0  0  0  0  0  0  0
   48.2520   32.5950   43.9240 H   0  0  0  0  0  0  0  0  0  0  0  0
   47.3790   32.0820   46.1000 H   0  0  0  0  0  0  0  0  0  0  0  0
   45.3300   33.2520   46.9250 H   0  0  0  0  0  0  0  0  0  0  0  0
   44.2090   34.9190   45.5280 H   0  0  0  0  0  0  0  0  0  0  0  0
   48.7830   35.5770   40.8480 C   0  0  0  0  0  0  0  0  0  0  0  0
   48.4670   34.8310   39.7030 C   0  0  0  0  0  0  0  0  0  0  0  0
   47.5340   33.7710   39.8500 C   0  0  0  0  0  0  0  0  0  0  0  0
   47.0020   33.5420   41.0910 N   0  0  0  0  0  0  0  0  0  0  0  0
   47.3440   34.2950   42.1620 C   0  0  0  0  0  0  0  0  0  0  0  0
   48.2320   35.3040   42.0310 N   0  0  0  0  0  0  0  0  0  0  0  0
   49.4980   36.3790   40.7070 H   0  0  0  0  0  0  0  0  0  0  0  0
   48.8610   34.9790   38.7170 H   0  0  0  0  0  0  0  0  0  0  0  0
   47.2040   33.1210   39.0490 H   0  0  0  0  0  0  0  0  0  0  0  0
   44.9450   35.6660   43.1240 C   0  0  0  0  0  0  0  0  0  0  0  0
   45.1580   36.9010   43.0930 O   0  0  0  0  0  0  0  0  0  0  0  0
   43.8880   35.1570   42.2830 N   0  0  0  0  0  0  0  0  0  0  0  0
   42.7580   35.6720   41.5310 C   0  0  0  0  0  0  0  0  0  0  0  0
   42.8300   35.0880   40.1660 C   0  0  0  0  0  0  0  0  0  0  0  0
   43.5920   33.8000   40.3960 C   0  0  0  0  0  0  0  0  0  0  0  0
   43.6390   33.7740   41.9060 C   0  0  0  0  0  0  0  0  0  0  0  0
   44.4720   33.1620   42.2880 H   0  0  0  0  0  0  0  0  0  0  0  0
  1  6  2  0  0  0  0
  1  2  1  0  0  0  0
  2  3  2  0  0  0  0
  3  4  1  0  0  0  0
  3  8  1  0  0  0  0
  4  9  1  0  0  0  0
  5 10  1  0  0  0  0
  5  4  2  0  0  0  0
  6  5  1  0  0  0  0
  7  2  1  0  0  0  0
 11 16  1  0  0  0  0
 12 13  1  0  0  0  0
 12 11  2  0  0  0  0
 13 14  2  0  0  0  0
 14 15  1  0  0  0  0
 15  1  1  0  0  0  0
 16 15  2  0  0  0  0
 17 11  1  0  0  0  0
 18 12  1  0  0  0  0
 19 13  1  0  0  0  0
 20  6  1  0  0  0  0
 21 20  2  0  0  0  0
 22 20  1  0  0  0  0
 23 22  1  0  0  0  0
 24 25  1  0  0  0  0
 24 23  1  0  0  0  0
 25 26  1  0  0  0  0
 26 22  1  0  0  0  0
 26 27  1  0  0  0  0
M  END
>  <minimizedAffinity>
-5.53353834

>  <minimizedRMSD>
0.466057986

$$$$
