
 OpenBabel03232519043D

 38 38  0  0  1  0  0  0  0  0999 V2000
   44.4310   35.9180   44.7320 C   0  0  0  0  0  0  0  0  0  0  0  0
   44.5310   35.6930   43.3550 C   0  0  0  0  0  0  0  0  0  0  0  0
   45.4560   34.6730   43.0110 C   0  0  0  0  0  0  0  0  0  0  0  0
   45.4740   33.6560   43.9140 N   0  0  0  0  0  0  0  0  0  0  0  0
   45.4310   33.9050   45.2180 C   0  0  0  0  0  0  0  0  0  0  0  0
   44.8850   35.0640   45.6570 N   0  0  0  0  0  0  0  0  0  0  0  0
   45.9220   32.9830   46.1110 N   0  0  0  0  0  0  0  0  0  0  0  0
   45.2720   32.9840   47.4480 C   0  0  0  0  0  0  0  0  0  0  0  0
   46.0690   32.2140   48.4730 C   0  0  0  0  0  0  0  0  0  0  0  0
   47.2920   31.7520   48.0300 O   0  0  0  0  0  0  0  0  0  0  0  0
   47.0990   31.0490   46.8640 C   0  0  0  0  0  0  0  0  0  0  0  0
   47.0160   32.1280   45.7990 C   0  0  1  0  0  0  0  0  0  0  0  0
   43.8120   36.6550   45.2660 H   0  0  0  0  0  0  0  0  0  0  0  0
   43.8640   36.3600   42.8100 H   0  0  0  0  0  0  0  0  0  0  0  0
   46.4610   35.3000   43.1320 H   0  0  0  0  0  0  0  0  0  0  0  0
   45.4710   34.6190   41.8980 H   0  0  0  0  0  0  0  0  0  0  0  0
   45.5000   33.5290   43.0430 H   0  0  0  0  0  0  0  0  0  0  0  0
   45.0140   34.0050   47.7280 H   0  0  0  0  0  0  0  0  0  0  0  0
   44.3280   32.4270   47.2780 H   0  0  0  0  0  0  0  0  0  0  0  0
   46.2930   32.9580   49.2600 H   0  0  0  0  0  0  0  0  0  0  0  0
   45.4620   31.4100   48.9260 H   0  0  0  0  0  0  0  0  0  0  0  0
   47.8450   30.2820   46.6490 H   0  0  0  0  0  0  0  0  0  0  0  0
   46.0740   30.5840   46.9090 H   0  0  0  0  0  0  0  0  0  0  0  0
   47.9980   32.6850   45.9060 H   0  0  0  0  0  0  0  0  0  0  0  0
   46.8020   31.7610   44.4830 N   0  0  1  0  0  0  0  0  0  0  0  0
   45.5500   31.3420   44.1550 C   0  0  0  0  0  0  0  0  0  0  0  0
   45.5860   31.0180   42.6810 C   0  0  0  0  0  0  0  0  0  0  0  0
   46.8750   31.7240   42.2080 C   0  0  0  0  0  0  0  0  0  0  0  0
   47.3430   32.4380   43.4440 C   0  0  2  0  0  0  0  0  0  0  0  0
   45.7970   30.3060   44.5250 H   0  0  0  0  0  0  0  0  0  0  0  0
   44.6240   31.2810   44.7080 H   0  0  0  0  0  0  0  0  0  0  0  0
   45.5510   29.9650   42.3830 H   0  0  0  0  0  0  0  0  0  0  0  0
   44.7240   31.4910   42.1450 H   0  0  0  0  0  0  0  0  0  0  0  0
   47.4950   30.9110   41.8120 H   0  0  0  0  0  0  0  0  0  0  0  0
   46.6890   32.4240   41.3860 H   0  0  0  0  0  0  0  0  0  0  0  0
   48.0080   33.2850   43.3560 H   0  0  0  0  0  0  0  0  0  0  0  0
   48.5920   31.7080   43.6630 O   0  0  0  0  0  0  0  0  0  0  0  0
   49.1110   32.1220   44.3610 H   0  0  0  0  0  0  0  0  0  0  0  0
  1 13  1  0  0  0  0
  1  6  2  0  0  0  0
  2  1  1  0  0  0  0
  3 15  1  0  0  0  0
  4  5  2  0  0  0  0
  5  6  1  0  0  0  0
  5  7  1  0  0  0  0
  7  8  1  0  0  0  0
  8 18  1  0  0  0  0
  8  9  1  0  0  0  0
  9 21  1  0  0  0  0
  9 20  1  0  0  0  0
 10  9  1  0  0  0  0
 11 23  1  0  0  0  0
 11 10  1  0  0  0  0
 12 24  1  1  0  0  0
 12  7  1  0  0  0  0
 12 11  1  0  0  0  0
 14  2  1  0  0  0  0
 16  3  1  0  0  0  0
 17  4  1  0  0  0  0
 19  8  1  0  0  0  0
 22 11  1  0  0  0  0
 25 26  1  6  0  0  0
 25 12  1  0  0  0  0
 26 30  1  0  0  0  0
 26 31  1  0  0  0  0
 27 26  1  0  0  0  0
 28 27  1  0  0  0  0
 28 29  1  0  0  0  0
 29 36  1  1  0  0  0
 29 37  1  0  0  0  0
 29 25  1  0  0  0  0
 32 27  1  0  0  0  0
 33 27  1  0  0  0  0
 34 28  1  0  0  0  0
 35 28  1  0  0  0  0
 37 38  1  0  0  0  0
M  END
>  <minimizedAffinity>
-4.57963037

>  <minimizedRMSD>
0.487239242

$$$$
