
 OpenBabel03232518453D

 24 24  0  0  0  0  0  0  0  0999 V2000
   44.9040   35.2040   44.9170 C   0  0  0  0  0  0  0  0  0  0  0  0
   45.7720   34.7670   43.9310 C   0  0  0  0  0  0  0  0  0  0  0  0
   46.5300   33.6380   44.1890 C   0  0  0  0  0  0  0  0  0  0  0  0
   46.3770   33.0240   45.3980 N   0  0  0  0  0  0  0  0  0  0  0  0
   45.5350   33.4600   46.3350 C   0  0  0  0  0  0  0  0  0  0  0  0
   44.8180   34.5410   46.0720 N   0  0  0  0  0  0  0  0  0  0  0  0
   44.3210   36.0950   44.6870 H   0  0  0  0  0  0  0  0  0  0  0  0
   45.8910   35.4720   42.6460 C   0  0  0  0  0  0  0  0  0  0  0  0
   45.0020   36.5440   42.6680 F   0  0  0  0  0  0  0  0  0  0  0  0
   45.4230   34.6920   41.5910 F   0  0  0  0  0  0  0  0  0  0  0  0
   47.1480   35.8940   42.3700 F   0  0  0  0  0  0  0  0  0  0  0  0
   47.4790   33.0220   43.3130 C   0  0  0  0  0  0  0  0  0  0  0  0
   47.1360   32.2270   42.3740 O   0  0  0  0  0  0  0  0  0  0  0  0
   48.8460   33.0060   43.1250 O   0  0  0  0  0  0  0  0  0  0  0  0
   49.6420   33.6600   42.2710 C   0  0  0  0  0  0  0  0  0  0  0  0
   51.0440   33.7660   42.6180 N   0  0  0  0  0  0  0  0  0  0  0  0
   49.1040   34.1280   41.2390 O   0  0  0  0  0  0  0  0  0  0  0  0
   51.5470   33.3490   41.8070 H   0  0  0  0  0  0  0  0  0  0  0  0
   51.2160   34.2140   43.5560 H   0  0  0  0  0  0  0  0  0  0  0  0
   45.3520   32.8660   47.5670 O   0  0  0  0  0  0  0  0  0  0  0  0
   46.3430   32.1100   48.2100 C   0  0  0  0  0  0  0  0  0  0  0  0
   47.5370   32.7860   48.2380 F   0  0  0  0  0  0  0  0  0  0  0  0
   46.4520   30.8500   47.7220 F   0  0  0  0  0  0  0  0  0  0  0  0
   45.9600   32.0480   49.5670 F   0  0  0  0  0  0  0  0  0  0  0  0
  1  6  1  0  0  0  0
  2  3  1  0  0  0  0
  2  1  2  0  0  0  0
  3  4  2  0  0  0  0
  4  5  1  0  0  0  0
  5 20  1  0  0  0  0
  6  5  2  0  0  0  0
  7  1  1  0  0  0  0
  8  9  1  0  0  0  0
  8  2  1  0  0  0  0
 10  8  1  0  0  0  0
 11  8  1  0  0  0  0
 12  3  1  0  0  0  0
 13 12  2  0  0  0  0
 14 12  1  0  0  0  0
 15 16  1  0  0  0  0
 15 14  1  0  0  0  0
 16 19  1  0  0  0  0
 17 15  2  0  0  0  0
 18 16  1  0  0  0  0
 20 21  1  0  0  0  0
 21 22  1  0  0  0  0
 21 24  1  0  0  0  0
 23 21  1  0  0  0  0
M  END
>  <minimizedAffinity>
-5.4633646

>  <minimizedRMSD>
0.766505122

$$$$
