
 OpenBabel03232514133D

 26 27  0  0  0  0  0  0  0  0999 V2000
   46.5140   34.4310   41.5780 C   0  0  0  0  0  0  0  0  0  0  0  0
   45.8360   34.6390   40.7330 H   0  0  0  0  0  0  0  0  0  0  0  0
   46.8110   33.3520   41.5750 H   0  0  0  0  0  0  0  0  0  0  0  0
   45.2510   35.9560   43.0430 C   0  0  0  0  0  0  0  0  0  0  0  0
   45.9080   34.7370   42.8580 C   0  0  0  0  0  0  0  0  0  0  0  0
   45.9440   33.8690   43.9380 C   0  0  0  0  0  0  0  0  0  0  0  0
   45.3510   34.2470   45.0890 N   0  0  0  0  0  0  0  0  0  0  0  0
   44.7220   35.4370   45.2330 C   0  0  0  0  0  0  0  0  0  0  0  0
   44.6760   36.2790   44.2130 N   0  0  0  0  0  0  0  0  0  0  0  0
   45.2060   36.6530   42.2190 H   0  0  0  0  0  0  0  0  0  0  0  0
   44.3030   35.5690   46.2270 H   0  0  0  0  0  0  0  0  0  0  0  0
   46.5830   32.6240   43.8400 N   0  0  0  0  0  0  0  0  0  0  0  0
   45.8610   31.8620   43.7970 H   0  0  0  0  0  0  0  0  0  0  0  0
   47.5750   32.3260   43.8030 H   0  0  0  0  0  0  0  0  0  0  0  0
   47.8320   35.1970   41.4740 C   0  0  0  0  0  0  0  0  0  0  0  0
   47.8560   35.9360   42.2950 H   0  0  0  0  0  0  0  0  0  0  0  0
   47.9700   35.6910   40.5090 H   0  0  0  0  0  0  0  0  0  0  0  0
   48.9550   34.2220   41.6350 C   0  0  0  0  0  0  0  0  0  0  0  0
   49.8950   34.3280   42.6510 C   0  0  0  0  0  0  0  0  0  0  0  0
   50.7450   33.2990   42.4960 N   0  0  0  0  0  0  0  0  0  0  0  0
   50.3780   32.5490   41.4250 C   0  0  0  0  0  0  0  0  0  0  0  0
   49.2660   33.1260   40.8940 N   0  0  0  0  0  0  0  0  0  0  0  0
   49.9880   35.0720   43.4520 H   0  0  0  0  0  0  0  0  0  0  0  0
   50.7630   31.6670   40.9580 H   0  0  0  0  0  0  0  0  0  0  0  0
   48.4790   32.7080   39.7300 C   0  0  0  0  0  0  0  0  0  0  0  0
   48.1850   31.6300   39.8430 H   0  0  0  0  0  0  0  0  0  0  0  0
  1  5  1  0  0  0  0
  2  1  1  0  0  0  0
  3  1  1  0  0  0  0
  4  9  1  0  0  0  0
  5  4  2  0  0  0  0
  5  6  1  0  0  0  0
  6  7  2  0  0  0  0
  7  8  1  0  0  0  0
  8 11  1  0  0  0  0
  9  8  2  0  0  0  0
 10  4  1  0  0  0  0
 12  6  1  0  0  0  0
 13 12  1  0  0  0  0
 14 12  1  0  0  0  0
 15  1  1  0  0  0  0
 15 18  1  0  0  0  0
 15 16  1  0  0  0  0
 17 15  1  0  0  0  0
 18 19  2  0  0  0  0
 19 23  1  0  0  0  0
 20 19  1  0  0  0  0
 21 20  2  0  0  0  0
 22 21  1  0  0  0  0
 22 18  1  0  0  0  0
 24 21  1  0  0  0  0
 25 26  1  0  0  0  0
 25 22  1  0  0  0  0
M  END
>  <minimizedAffinity>
-4.44376183

>  <minimizedRMSD>
2.62133217

$$$$
