
 OpenBabel03232516163D

 43 45  0  0  1  0  0  0  0  0999 V2000
   42.1680   34.3900   39.2690 C   0  0  2  0  0  0  0  0  0  0  0  0
   41.3510   35.5350   38.7150 C   0  0  0  0  0  0  0  0  0  0  0  0
   40.1070   35.0580   38.0150 C   0  0  0  0  0  0  0  0  0  0  0  0
   39.2250   34.3680   38.9950 C   0  0  0  0  0  0  0  0  0  0  0  0
   40.0230   33.8730   40.2000 C   0  0  0  0  0  0  0  0  0  0  0  0
   41.2840   33.3230   39.7270 C   0  0  1  0  0  0  0  0  0  0  0  0
   42.7590   34.0360   38.3740 H   0  0  0  0  0  0  0  0  0  0  0  0
   41.9610   36.1060   37.9860 H   0  0  0  0  0  0  0  0  0  0  0  0
   41.0310   36.2320   39.5090 H   0  0  0  0  0  0  0  0  0  0  0  0
   39.5840   35.9550   37.6380 H   0  0  0  0  0  0  0  0  0  0  0  0
   40.3130   34.4160   37.1390 H   0  0  0  0  0  0  0  0  0  0  0  0
   38.7380   33.4840   38.4960 H   0  0  0  0  0  0  0  0  0  0  0  0
   38.3700   34.9980   39.3350 H   0  0  0  0  0  0  0  0  0  0  0  0
   39.4120   33.0070   40.5960 H   0  0  0  0  0  0  0  0  0  0  0  0
   39.9380   34.6450   40.9200 H   0  0  0  0  0  0  0  0  0  0  0  0
   41.6720   32.6270   40.5210 H   0  0  0  0  0  0  0  0  0  0  0  0
   43.4220   34.1380   41.5560 C   0  0  1  0  0  0  0  0  0  0  0  0
   42.6450   35.5020   41.5550 C   0  0  0  0  0  0  0  0  0  0  0  0
   43.0750   34.8760   40.3740 C   0  0  2  0  0  0  0  0  0  0  0  0
   42.8930   33.3190   42.0760 H   0  0  0  0  0  0  0  0  0  0  0  0
   41.7590   35.4460   42.1650 H   0  0  0  0  0  0  0  0  0  0  0  0
   43.2390   36.3850   41.9570 H   0  0  0  0  0  0  0  0  0  0  0  0
   43.9830   35.3530   39.8740 H   0  0  0  0  0  0  0  0  0  0  0  0
   47.0630   34.6270   41.8140 C   0  0  0  0  0  0  0  0  0  0  0  0
   47.3120   34.3780   43.1840 C   0  0  0  0  0  0  0  0  0  0  0  0
   46.2060   34.0520   44.0010 C   0  0  0  0  0  0  0  0  0  0  0  0
   44.9810   33.9960   43.4320 N   0  0  0  0  0  0  0  0  0  0  0  0
   44.7940   34.2370   42.1400 C   0  0  0  0  0  0  0  0  0  0  0  0
   45.8130   34.5590   41.2900 N   0  0  0  0  0  0  0  0  0  0  0  0
   48.3130   34.4370   43.5820 H   0  0  0  0  0  0  0  0  0  0  0  0
   46.3660   33.8560   45.0540 H   0  0  0  0  0  0  0  0  0  0  0  0
   48.2270   34.9530   40.9310 C   0  0  0  0  0  0  0  0  0  0  0  0
   47.8690   35.0860   39.9130 H   0  0  0  0  0  0  0  0  0  0  0  0
   48.8420   34.0060   40.9150 H   0  0  0  0  0  0  0  0  0  0  0  0
   48.8790   35.7340   41.3270 H   0  0  0  0  0  0  0  0  0  0  0  0
   41.0370   32.3700   38.6120 C   0  0  0  0  0  0  0  0  0  0  0  0
   40.1540   31.5410   38.3470 O   0  0  0  0  0  0  0  0  0  0  0  0
   42.0630   32.4590   37.6530 O   0  0  0  0  0  0  0  0  0  0  0  0
   42.8030   31.2310   37.3220 C   0  0  0  0  0  0  0  0  0  0  0  0
   42.9930   30.9580   35.9190 N   0  0  0  0  0  0  0  0  0  0  0  0
   43.2370   30.4740   38.2280 O   0  0  0  0  0  0  0  0  0  0  0  0
   43.8990   31.1340   35.4390 H   0  0  0  0  0  0  0  0  0  0  0  0
   42.1180   30.5730   35.4850 H   0  0  0  0  0  0  0  0  0  0  0  0
  1  7  1  6  0  0  0
  1  6  1  0  0  0  0
  1 19  1  0  0  0  0
  2  1  1  0  0  0  0
  2  9  1  0  0  0  0
  3  2  1  0  0  0  0
  3  4  1  0  0  0  0
  4 13  1  0  0  0  0
  4  5  1  0  0  0  0
  5 14  1  0  0  0  0
  5 15  1  0  0  0  0
  6  5  1  0  0  0  0
  6 16  1  1  0  0  0
  8  2  1  0  0  0  0
 10  3  1  0  0  0  0
 11  3  1  0  0  0  0
 12  4  1  0  0  0  0
 17 20  1  1  0  0  0
 17 28  1  0  0  0  0
 18 17  1  0  0  0  0
 18 22  1  0  0  0  0
 18 21  1  0  0  0  0
 19 23  1  6  0  0  0
 19 18  1  0  0  0  0
 19 17  1  0  0  0  0
 24 25  1  0  0  0  0
 25 30  1  0  0  0  0
 25 26  2  0  0  0  0
 26 31  1  0  0  0  0
 27 26  1  0  0  0  0
 28 27  2  0  0  0  0
 29 24  2  0  0  0  0
 29 28  1  0  0  0  0
 32 35  1  0  0  0  0
 32 24  1  0  0  0  0
 33 32  1  0  0  0  0
 34 32  1  0  0  0  0
 36  6  1  0  0  0  0
 37 36  2  0  0  0  0
 38 36  1  0  0  0  0
 39 38  1  0  0  0  0
 39 41  2  0  0  0  0
 40 39  1  0  0  0  0
 42 40  1  0  0  0  0
 43 40  1  0  0  0  0
M  END
>  <minimizedAffinity>
-5.27659988

>  <minimizedRMSD>
1.36574817

$$$$
