
 OpenBabel03232516273D

 32 33  0  0  0  0  0  0  0  0999 V2000
   45.7180   33.9330   41.6480 C   0  0  0  0  0  0  0  0  0  0  0  0
   45.3730   33.9500   45.2960 C   0  0  0  0  0  0  0  0  0  0  0  0
   44.7670   35.1930   45.5610 C   0  0  0  0  0  0  0  0  0  0  0  0
   44.4820   36.0190   44.4790 C   0  0  0  0  0  0  0  0  0  0  0  0
   44.8040   35.5790   43.2210 N   0  0  0  0  0  0  0  0  0  0  0  0
   45.3830   34.3790   43.0200 C   0  0  0  0  0  0  0  0  0  0  0  0
   45.6660   33.5670   44.0580 N   0  0  0  0  0  0  0  0  0  0  0  0
   45.6390   33.2260   46.0690 H   0  0  0  0  0  0  0  0  0  0  0  0
   44.5560   35.4380   46.6050 H   0  0  0  0  0  0  0  0  0  0  0  0
   44.0220   36.9640   44.6720 H   0  0  0  0  0  0  0  0  0  0  0  0
   44.5410   34.2290   40.7430 C   0  0  0  0  0  0  0  0  0  0  0  0
   43.7410   33.5030   41.0170 H   0  0  0  0  0  0  0  0  0  0  0  0
   44.1450   35.2450   41.0070 H   0  0  0  0  0  0  0  0  0  0  0  0
   44.8150   34.1950   39.6690 H   0  0  0  0  0  0  0  0  0  0  0  0
   45.9070   32.4320   41.6160 C   0  0  0  0  0  0  0  0  0  0  0  0
   46.1470   32.1450   40.5650 H   0  0  0  0  0  0  0  0  0  0  0  0
   44.9610   31.9180   41.8520 H   0  0  0  0  0  0  0  0  0  0  0  0
   46.7650   32.1260   42.2450 H   0  0  0  0  0  0  0  0  0  0  0  0
   46.9110   34.6370   41.0650 C   0  0  0  0  0  0  0  0  0  0  0  0
   46.7830   35.7290   41.3210 H   0  0  0  0  0  0  0  0  0  0  0  0
   46.8600   34.5280   39.9760 H   0  0  0  0  0  0  0  0  0  0  0  0
   48.1980   34.2420   41.6240 C   0  0  0  0  0  0  0  0  0  0  0  0
   48.8630   34.5890   42.7570 N   0  0  0  0  0  0  0  0  0  0  0  0
   50.0080   33.9460   42.8100 O   0  0  0  0  0  0  0  0  0  0  0  0
   50.1160   33.1790   41.7360 C   0  0  0  0  0  0  0  0  0  0  0  0
   49.0120   33.3610   41.0150 N   0  0  0  0  0  0  0  0  0  0  0  0
   51.2880   32.4340   41.6590 O   0  0  0  0  0  0  0  0  0  0  0  0
   51.3620   31.0730   41.8980 C   0  0  0  0  0  0  0  0  0  0  0  0
   51.9780   30.7960   43.1520 N   0  0  0  0  0  0  0  0  0  0  0  0
   50.9750   30.1010   41.1850 O   0  0  0  0  0  0  0  0  0  0  0  0
   51.5220   31.1590   44.0420 H   0  0  0  0  0  0  0  0  0  0  0  0
   52.8140   30.3080   43.5650 H   0  0  0  0  0  0  0  0  0  0  0  0
  1  6  1  0  0  0  0
  2  3  1  0  0  0  0
  2  8  1  0  0  0  0
  3  9  1  0  0  0  0
  4 10  1  0  0  0  0
  4  3  2  0  0  0  0
  5  4  1  0  0  0  0
  6  5  2  0  0  0  0
  6  7  1  0  0  0  0
  7  2  2  0  0  0  0
 11 13  1  0  0  0  0
 11 12  1  0  0  0  0
 11  1  1  0  0  0  0
 14 11  1  0  0  0  0
 15  1  1  0  0  0  0
 15 17  1  0  0  0  0
 15 18  1  0  0  0  0
 16 15  1  0  0  0  0
 19 20  1  0  0  0  0
 19 22  1  0  0  0  0
 19  1  1  0  0  0  0
 21 19  1  0  0  0  0
 22 23  2  0  0  0  0
 23 24  1  0  0  0  0
 25 24  1  0  0  0  0
 26 22  1  0  0  0  0
 26 25  2  0  0  0  0
 27 25  1  0  0  0  0
 27 28  1  0  0  0  0
 28 29  1  0  0  0  0
 29 32  1  0  0  0  0
 29 31  1  0  0  0  0
 30 28  2  0  0  0  0
M  END
>  <minimizedAffinity>
-4.30580282

>  <minimizedRMSD>
1.3372792

$$$$
