
 OpenBabel03232512183D

 43 43  0  0  1  0  0  0  0  0999 V2000
   48.7210   34.4100   41.8370 C   0  0  0  0  0  0  0  0  0  0  0  0
   46.4990   33.6290   44.6510 C   0  0  0  0  0  0  0  0  0  0  0  0
   45.4020   34.4640   44.2710 C   0  0  0  0  0  0  0  0  0  0  0  0
   46.0850   35.2100   42.6710 S   0  0  0  0  0  0  0  0  0  0  0  0
   47.6980   34.2460   42.8480 C   0  0  0  0  0  0  0  0  0  0  0  0
   47.5060   33.6900   43.8000 N   0  0  0  0  0  0  0  0  0  0  0  0
   44.4800   34.6480   44.7020 H   0  0  0  0  0  0  0  0  0  0  0  0
   47.1190   31.0690   47.1360 C   0  0  0  0  0  0  0  0  0  0  0  0
   46.2070   31.3960   48.1820 C   0  0  0  0  0  0  0  0  0  0  0  0
   45.3900   32.5010   47.9980 C   0  0  0  0  0  0  0  0  0  0  0  0
   45.5220   33.2000   46.8140 N   0  0  0  0  0  0  0  0  0  0  0  0
   46.3990   32.8540   45.8530 C   0  0  0  0  0  0  0  0  0  0  0  0
   47.1980   31.7980   45.9980 N   0  0  0  0  0  0  0  0  0  0  0  0
   47.7430   30.2040   47.3080 H   0  0  0  0  0  0  0  0  0  0  0  0
   46.1450   30.8260   49.0770 H   0  0  0  0  0  0  0  0  0  0  0  0
   44.6640   32.8350   48.7290 H   0  0  0  0  0  0  0  0  0  0  0  0
   50.0430   33.8290   42.4240 C   0  0  0  0  0  0  0  0  0  0  0  0
   50.8740   34.0870   41.7580 H   0  0  0  0  0  0  0  0  0  0  0  0
   50.1590   34.1790   43.4700 H   0  0  0  0  0  0  0  0  0  0  0  0
   49.8870   32.7300   42.4110 H   0  0  0  0  0  0  0  0  0  0  0  0
   48.9870   35.8580   41.5670 C   0  0  0  0  0  0  0  0  0  0  0  0
   49.8430   35.9610   40.8430 H   0  0  0  0  0  0  0  0  0  0  0  0
   49.2250   36.4020   42.5080 H   0  0  0  0  0  0  0  0  0  0  0  0
   48.0830   36.3440   41.1500 H   0  0  0  0  0  0  0  0  0  0  0  0
   48.5450   33.6460   40.6010 C   0  0  0  0  0  0  0  0  0  0  0  0
   48.3830   32.5840   40.5930 H   0  0  0  0  0  0  0  0  0  0  0  0
   49.6970   33.6790   40.1510 H   0  0  0  0  0  0  0  0  0  0  0  0
   47.8970   34.3110   39.5890 O   0  0  0  0  0  0  0  0  0  0  0  0
   48.0090   33.6370   38.3920 C   0  0  2  0  0  0  0  0  0  0  0  0
   48.4500   34.4260   37.2040 C   0  0  0  0  0  0  0  0  0  0  0  0
   47.1090   33.8660   37.2430 C   0  0  1  0  0  0  0  0  0  0  0  0
   48.3070   32.5860   38.4840 H   0  0  0  0  0  0  0  0  0  0  0  0
   48.5350   35.5320   37.3520 H   0  0  0  0  0  0  0  0  0  0  0  0
   49.1970   34.0300   36.5030 H   0  0  0  0  0  0  0  0  0  0  0  0
   46.1510   34.2890   37.5800 H   0  0  0  0  0  0  0  0  0  0  0  0
   46.9160   32.6880   36.3090 C   0  0  0  0  0  0  0  0  0  0  0  0
   47.8940   32.1620   35.6390 O   0  0  0  0  0  0  0  0  0  0  0  0
   45.6600   32.1070   36.1330 O   0  0  0  0  0  0  0  0  0  0  0  0
   45.2110   31.7630   34.8640 C   0  0  0  0  0  0  0  0  0  0  0  0
   45.1490   32.8730   33.9870 N   0  0  0  0  0  0  0  0  0  0  0  0
   44.9190   30.5620   34.6310 O   0  0  0  0  0  0  0  0  0  0  0  0
   44.1430   33.1190   34.0650 H   0  0  0  0  0 10  0  0  0  0  0  0
   44.5000   33.5770   33.5980 H   0  0  0  0  0  0  0  0  0  0  0  0
  1 17  1  0  0  0  0
  1  5  1  0  0  0  0
  2 12  1  0  0  0  0
  3  2  2  0  0  0  0
  3  7  1  0  0  0  0
  4  5  1  0  0  0  0
  4  3  1  0  0  0  0
  5  6  2  0  0  0  0
  6  2  1  0  0  0  0
  8 14  1  0  0  0  0
  8  9  1  0  0  0  0
  9 15  1  0  0  0  0
 10  9  2  0  0  0  0
 10 16  1  0  0  0  0
 11 10  1  0  0  0  0
 12 13  1  0  0  0  0
 12 11  2  0  0  0  0
 13  8  2  0  0  0  0
 17 19  1  0  0  0  0
 18 17  1  0  0  0  0
 20 17  1  0  0  0  0
 21  1  1  0  0  0  0
 21 23  1  0  0  0  0
 22 21  1  0  0  0  0
 24 21  1  0  0  0  0
 25  1  1  0  0  0  0
 26 25  1  0  0  0  0
 27 25  1  0  0  0  0
 28 25  1  0  0  0  0
 29 32  1  1  0  0  0
 29 28  1  0  0  0  0
 30 31  1  0  0  0  0
 30 33  1  0  0  0  0
 30 29  1  0  0  0  0
 31 35  1  1  0  0  0
 31 29  1  0  0  0  0
 34 30  1  0  0  0  0
 36 31  1  0  0  0  0
 37 36  2  0  0  0  0
 38 36  1  0  0  0  0
 39 38  1  0  0  0  0
 41 39  2  0  0  0  0
 43 40  1  0  0  0  0
M  END
>  <minimizedAffinity>
-6.18775702

>  <minimizedRMSD>
1.05708456

$$$$
