
 OpenBabel03232512163D

 33 34  0  0  0  0  0  0  0  0999 V2000
   48.3220   34.4240   41.6490 C   0  0  0  0  0  0  0  0  0  0  0  0
   46.3130   33.8010   44.6800 C   0  0  0  0  0  0  0  0  0  0  0  0
   45.2400   34.6670   44.4270 C   0  0  0  0  0  0  0  0  0  0  0  0
   45.7530   35.3970   42.7630 S   0  0  0  0  0  0  0  0  0  0  0  0
   47.3380   34.3610   42.7560 C   0  0  0  0  0  0  0  0  0  0  0  0
   47.2210   33.8170   43.7250 N   0  0  0  0  0  0  0  0  0  0  0  0
   44.3470   34.9370   44.9210 H   0  0  0  0  0  0  0  0  0  0  0  0
   47.2360   31.3110   47.1680 C   0  0  0  0  0  0  0  0  0  0  0  0
   46.2890   31.5450   48.2110 C   0  0  0  0  0  0  0  0  0  0  0  0
   45.3640   32.5430   48.0370 C   0  0  0  0  0  0  0  0  0  0  0  0
   45.4140   33.2460   46.8710 N   0  0  0  0  0  0  0  0  0  0  0  0
   46.2970   33.0300   45.8970 C   0  0  0  0  0  0  0  0  0  0  0  0
   47.2090   32.0590   46.0470 N   0  0  0  0  0  0  0  0  0  0  0  0
   47.9460   30.5200   47.3410 H   0  0  0  0  0  0  0  0  0  0  0  0
   46.2770   30.9680   49.1240 H   0  0  0  0  0  0  0  0  0  0  0  0
   44.6110   32.8170   48.7310 H   0  0  0  0  0  0  0  0  0  0  0  0
   49.3540   33.3890   41.8620 C   0  0  0  0  0  0  0  0  0  0  0  0
   48.8580   32.3950   41.9330 H   0  0  0  0  0  0  0  0  0  0  0  0
   49.8780   33.6130   42.8330 H   0  0  0  0  0  0  0  0  0  0  0  0
   50.0960   33.4170   41.0650 H   0  0  0  0  0  0  0  0  0  0  0  0
   48.9130   35.8140   41.5770 C   0  0  0  0  0  0  0  0  0  0  0  0
   48.1900   36.4270   41.0050 H   0  0  0  0  0  0  0  0  0  0  0  0
   49.0330   36.2680   42.5910 H   0  0  0  0  0  0  0  0  0  0  0  0
   49.9000   35.7370   41.0790 H   0  0  0  0  0  0  0  0  0  0  0  0
   47.6570   34.1570   40.3040 C   0  0  0  0  0  0  0  0  0  0  0  0
   46.6020   34.4540   40.3910 H   0  0  0  0  0  0  0  0  0  0  0  0
   47.6310   33.0610   40.0740 H   0  0  0  0  0  0  0  0  0  0  0  0
   48.2860   34.7960   39.2580 O   0  0  0  0  0  0  0  0  0  0  0  0
   48.5440   34.1910   38.0430 C   0  0  0  0  0  0  0  0  0  0  0  0
   49.4030   33.0780   38.0370 N   0  0  0  0  0  0  0  0  0  0  0  0
   48.0070   34.6590   37.0240 O   0  0  0  0  0  0  0  0  0  0  0  0
   49.5050   32.3650   38.7670 H   0  0  0  0  0  0  0  0  0  0  0  0
   50.0140   32.9580   37.1860 H   0  0  0  0  0  0  0  0  0  0  0  0
  1 17  1  0  0  0  0
  1  5  1  0  0  0  0
  2 12  1  0  0  0  0
  3  2  2  0  0  0  0
  3  7  1  0  0  0  0
  4  3  1  0  0  0  0
  5  4  1  0  0  0  0
  5  6  2  0  0  0  0
  6  2  1  0  0  0  0
  8 14  1  0  0  0  0
  8  9  1  0  0  0  0
  9 15  1  0  0  0  0
 10  9  2  0  0  0  0
 10 16  1  0  0  0  0
 11 10  1  0  0  0  0
 12 13  1  0  0  0  0
 12 11  2  0  0  0  0
 13  8  2  0  0  0  0
 17 18  1  0  0  0  0
 17 19  1  0  0  0  0
 20 17  1  0  0  0  0
 21  1  1  0  0  0  0
 21 23  1  0  0  0  0
 22 21  1  0  0  0  0
 24 21  1  0  0  0  0
 25 26  1  0  0  0  0
 25  1  1  0  0  0  0
 27 25  1  0  0  0  0
 28 25  1  0  0  0  0
 29 28  1  0  0  0  0
 30 29  1  0  0  0  0
 30 32  1  0  0  0  0
 31 29  2  0  0  0  0
 33 30  1  0  0  0  0
M  END
>  <minimizedAffinity>
-5.17486477

>  <minimizedRMSD>
1.3478868

$$$$
