
 OpenBabel03232521003D

 38 41  0  0  1  0  0  0  0  0999 V2000
   45.3760   32.8790   47.5570 C   0  0  0  0  0  0  0  0  0  0  0  0
   45.9290   32.6110   46.3500 C   0  0  0  0  0  0  0  0  0  0  0  0
   46.1910   31.2580   46.1120 C   0  0  0  0  0  0  0  0  0  0  0  0
   45.9210   30.2710   47.0030 N   0  0  0  0  0  0  0  0  0  0  0  0
   45.3540   30.6040   48.2240 C   0  0  0  0  0  0  0  0  0  0  0  0
   45.1000   31.8740   48.4680 N   0  0  0  0  0  0  0  0  0  0  0  0
   45.0910   29.5900   49.1880 N   0  0  0  0  0  0  0  0  0  0  0  0
   45.1390   33.8910   47.8430 H   0  0  0  0  0  0  0  0  0  0  0  0
   45.8890   29.7280   49.8480 H   0  0  0  0  0  0  0  0  0  0  0  0
   44.2730   28.9140   49.1630 H   0  0  0  0  0  0  0  0  0  0  0  0
   46.1850   33.5530   45.3120 C   0  0  2  0  0  0  0  0  0  0  0  0
   44.9720   34.6460   45.5220 C   0  0  0  0  0  0  0  0  0  0  0  0
   44.7560   35.5680   44.4420 C   0  0  0  0  0  0  0  0  0  0  0  0
   45.5670   35.4870   43.2260 C   0  0  1  0  0  0  0  0  0  0  0  0
   46.6260   34.4870   43.1980 C   0  0  0  0  0  0  0  0  0  0  0  0
   46.1720   33.2570   43.9510 C   0  0  0  0  0  0  0  0  0  0  0  0
   46.9620   34.3000   45.6440 H   0  0  0  0  0  0  0  0  0  0  0  0
   44.2860   34.8020   46.3440 H   0  0  0  0  0  0  0  0  0  0  0  0
   43.9900   36.2880   44.5330 H   0  0  0  0  0  0  0  0  0  0  0  0
   45.9930   36.4950   43.0210 H   0  0  0  0  0  0  0  0  0  0  0  0
   46.8890   34.2700   42.1280 H   0  0  0  0  0  0  0  0  0  0  0  0
   47.5510   34.8530   43.6900 H   0  0  0  0  0  0  0  0  0  0  0  0
   45.2440   32.8850   43.4710 H   0  0  0  0  0  0  0  0  0  0  0  0
   47.0320   32.6090   43.6370 H   0  0  0  0  0  0  0  0  0  0  0  0
   44.5640   35.2090   42.0670 C   0  0  0  0  0  0  0  0  0  0  0  0
   43.5330   34.3660   42.4430 F   0  0  0  0  0  0  0  0  0  0  0  0
   43.9770   36.4350   41.7590 F   0  0  0  0  0  0  0  0  0  0  0  0
   45.2530   34.7970   40.9440 F   0  0  0  0  0  0  0  0  0  0  0  0
   46.8280   30.5530   45.0100 C   0  0  0  0  0  0  0  0  0  0  0  0
   46.4780   29.9420   43.8500 C   0  0  0  0  0  0  0  0  0  0  0  0
   47.6430   29.4120   43.2750 C   0  0  0  0  0  0  0  0  0  0  0  0
   48.6330   29.7270   44.1100 N   0  0  0  0  0  0  0  0  0  0  0  0
   48.1780   30.3990   45.1390 N   0  0  0  0  0  0  0  0  0  0  0  0
   45.4400   29.9580   43.5720 H   0  0  0  0  0  0  0  0  0  0  0  0
   47.6050   28.8810   42.3440 H   0  0  0  0  0  0  0  0  0  0  0  0
   50.0370   29.3510   43.8730 C   0  0  0  0  0  3  0  0  0  0  0  0
   50.8090   29.0900   45.1590 C   0  0  0  0  0  2  0  0  0  0  0  0
   50.4220   27.9240   44.3160 C   0  0  0  0  0  2  0  0  0  0  0  0
  1  8  1  0  0  0  0
  1  6  1  0  0  0  0
  2  1  2  0  0  0  0
  3  2  1  0  0  0  0
  3  4  2  0  0  0  0
  4  5  1  0  0  0  0
  5  6  2  0  0  0  0
  5  7  1  0  0  0  0
  7  9  1  0  0  0  0
 10  7  1  0  0  0  0
 11 12  1  0  0  0  0
 11 17  1  1  0  0  0
 11  2  1  0  0  0  0
 12 18  1  0  0  0  0
 13 19  1  0  0  0  0
 13 12  2  0  0  0  0
 14 20  1  6  0  0  0
 14 13  1  0  0  0  0
 15 14  1  0  0  0  0
 15 22  1  0  0  0  0
 15 16  1  0  0  0  0
 16 11  1  0  0  0  0
 21 15  1  0  0  0  0
 23 16  1  0  0  0  0
 24 16  1  0  0  0  0
 25 26  1  0  0  0  0
 25 14  1  0  0  0  0
 27 25  1  0  0  0  0
 28 25  1  0  0  0  0
 29 33  2  0  0  0  0
 29  3  1  0  0  0  0
 30 29  1  0  0  0  0
 31 30  2  0  0  0  0
 31 32  1  0  0  0  0
 32 33  1  0  0  0  0
 34 30  1  0  0  0  0
 35 31  1  0  0  0  0
 36 32  1  0  0  0  0
 36 38  1  0  0  0  0
 36 37  1  0  0  0  0
 38 37  1  0  0  0  0
M  END
>  <minimizedAffinity>
-5.56038857

>  <minimizedRMSD>
0.486646801

$$$$
