
 OpenBabel03232521003D

 38 41  0  0  1  0  0  0  0  0999 V2000
   45.3780   32.8790   47.5590 C   0  0  0  0  0  0  0  0  0  0  0  0
   45.9300   32.6110   46.3510 C   0  0  0  0  0  0  0  0  0  0  0  0
   46.1910   31.2580   46.1140 C   0  0  0  0  0  0  0  0  0  0  0  0
   45.9200   30.2710   47.0040 N   0  0  0  0  0  0  0  0  0  0  0  0
   45.3550   30.6040   48.2260 C   0  0  0  0  0  0  0  0  0  0  0  0
   45.1010   31.8750   48.4700 N   0  0  0  0  0  0  0  0  0  0  0  0
   45.0920   29.5910   49.1900 N   0  0  0  0  0  0  0  0  0  0  0  0
   45.1410   33.8910   47.8450 H   0  0  0  0  0  0  0  0  0  0  0  0
   45.8900   29.7290   49.8500 H   0  0  0  0  0  0  0  0  0  0  0  0
   44.2730   28.9150   49.1660 H   0  0  0  0  0  0  0  0  0  0  0  0
   46.1860   33.5530   45.3130 C   0  0  2  0  0  0  0  0  0  0  0  0
   44.9720   34.6460   45.5230 C   0  0  0  0  0  0  0  0  0  0  0  0
   44.7560   35.5670   44.4420 C   0  0  0  0  0  0  0  0  0  0  0  0
   45.5680   35.4860   43.2270 C   0  0  1  0  0  0  0  0  0  0  0  0
   46.6270   34.4860   43.1990 C   0  0  0  0  0  0  0  0  0  0  0  0
   46.1730   33.2570   43.9520 C   0  0  0  0  0  0  0  0  0  0  0  0
   46.9630   34.3000   45.6450 H   0  0  0  0  0  0  0  0  0  0  0  0
   44.2860   34.8010   46.3450 H   0  0  0  0  0  0  0  0  0  0  0  0
   43.9900   36.2870   44.5330 H   0  0  0  0  0  0  0  0  0  0  0  0
   45.9930   36.4940   43.0210 H   0  0  0  0  0  0  0  0  0  0  0  0
   46.8900   34.2690   42.1290 H   0  0  0  0  0  0  0  0  0  0  0  0
   47.5520   34.8530   43.6910 H   0  0  0  0  0  0  0  0  0  0  0  0
   45.2450   32.8840   43.4730 H   0  0  0  0  0  0  0  0  0  0  0  0
   47.0320   32.6090   43.6390 H   0  0  0  0  0  0  0  0  0  0  0  0
   44.5640   35.2070   42.0680 C   0  0  0  0  0  0  0  0  0  0  0  0
   43.5340   34.3620   42.4430 F   0  0  0  0  0  0  0  0  0  0  0  0
   43.9760   36.4330   41.7600 F   0  0  0  0  0  0  0  0  0  0  0  0
   45.2530   34.7970   40.9440 F   0  0  0  0  0  0  0  0  0  0  0  0
   46.8270   30.5530   45.0110 C   0  0  0  0  0  0  0  0  0  0  0  0
   46.4750   29.9400   43.8520 C   0  0  0  0  0  0  0  0  0  0  0  0
   47.6400   29.4110   43.2760 C   0  0  0  0  0  0  0  0  0  0  0  0
   48.6310   29.7270   44.1100 N   0  0  0  0  0  0  0  0  0  0  0  0
   48.1770   30.4000   45.1390 N   0  0  0  0  0  0  0  0  0  0  0  0
   45.4370   29.9560   43.5750 H   0  0  0  0  0  0  0  0  0  0  0  0
   47.6020   28.8780   42.3450 H   0  0  0  0  0  0  0  0  0  0  0  0
   50.0350   29.3520   43.8710 C   0  0  0  0  0  3  0  0  0  0  0  0
   50.8090   29.0910   45.1550 C   0  0  0  0  0  2  0  0  0  0  0  0
   50.4220   27.9250   44.3120 C   0  0  0  0  0  2  0  0  0  0  0  0
  1  8  1  0  0  0  0
  1  6  1  0  0  0  0
  2  1  2  0  0  0  0
  3  2  1  0  0  0  0
  3  4  2  0  0  0  0
  4  5  1  0  0  0  0
  5  6  2  0  0  0  0
  5  7  1  0  0  0  0
  7  9  1  0  0  0  0
 10  7  1  0  0  0  0
 11 12  1  0  0  0  0
 11 17  1  1  0  0  0
 11  2  1  0  0  0  0
 12 18  1  0  0  0  0
 13 19  1  0  0  0  0
 13 12  2  0  0  0  0
 14 20  1  6  0  0  0
 14 13  1  0  0  0  0
 15 14  1  0  0  0  0
 15 22  1  0  0  0  0
 15 16  1  0  0  0  0
 16 11  1  0  0  0  0
 21 15  1  0  0  0  0
 23 16  1  0  0  0  0
 24 16  1  0  0  0  0
 25 26  1  0  0  0  0
 25 14  1  0  0  0  0
 27 25  1  0  0  0  0
 28 25  1  0  0  0  0
 29 33  2  0  0  0  0
 29  3  1  0  0  0  0
 30 29  1  0  0  0  0
 31 30  2  0  0  0  0
 31 32  1  0  0  0  0
 32 33  1  0  0  0  0
 34 30  1  0  0  0  0
 35 31  1  0  0  0  0
 36 32  1  0  0  0  0
 36 38  1  0  0  0  0
 36 37  1  0  0  0  0
 38 37  1  0  0  0  0
M  END
>  <minimizedAffinity>
-5.56327391

>  <minimizedRMSD>
0.577109993

$$$$
