
 OpenBabel03232521013D

 38 41  0  0  1  0  0  0  0  0999 V2000
   45.3660   32.8740   47.4970 C   0  0  0  0  0  0  0  0  0  0  0  0
   45.9200   32.6280   46.2860 C   0  0  0  0  0  0  0  0  0  0  0  0
   46.1920   31.2810   46.0300 C   0  0  0  0  0  0  0  0  0  0  0  0
   45.9300   30.2790   46.9060 N   0  0  0  0  0  0  0  0  0  0  0  0
   45.3620   30.5900   48.1330 C   0  0  0  0  0  0  0  0  0  0  0  0
   45.0970   31.8550   48.3950 N   0  0  0  0  0  0  0  0  0  0  0  0
   45.1080   29.5610   49.0820 N   0  0  0  0  0  0  0  0  0  0  0  0
   45.1200   33.8800   47.7980 H   0  0  0  0  0  0  0  0  0  0  0  0
   45.9050   29.6960   49.7440 H   0  0  0  0  0  0  0  0  0  0  0  0
   44.2950   28.8780   49.0490 H   0  0  0  0  0  0  0  0  0  0  0  0
   46.1670   33.5860   45.2610 C   0  0  2  0  0  0  0  0  0  0  0  0
   44.9550   34.6750   45.4980 C   0  0  0  0  0  0  0  0  0  0  0  0
   44.7310   35.6130   44.4340 C   0  0  0  0  0  0  0  0  0  0  0  0
   45.5330   35.5520   43.2110 C   0  0  1  0  0  0  0  0  0  0  0  0
   46.5920   34.5540   43.1590 C   0  0  0  0  0  0  0  0  0  0  0  0
   46.1440   33.3120   43.8960 C   0  0  0  0  0  0  0  0  0  0  0  0
   46.9460   34.3280   45.6000 H   0  0  0  0  0  0  0  0  0  0  0  0
   44.2750   34.8170   46.3270 H   0  0  0  0  0  0  0  0  0  0  0  0
   43.9650   36.3310   44.5420 H   0  0  0  0  0  0  0  0  0  0  0  0
   45.9560   36.5640   43.0180 H   0  0  0  0  0  0  0  0  0  0  0  0
   46.8470   34.3530   42.0840 H   0  0  0  0  0  0  0  0  0  0  0  0
   47.5200   34.9130   43.6500 H   0  0  0  0  0  0  0  0  0  0  0  0
   45.2120   32.9470   43.4180 H   0  0  0  0  0  0  0  0  0  0  0  0
   47.0010   32.6700   43.5660 H   0  0  0  0  0  0  0  0  0  0  0  0
   44.5200   35.2920   42.0560 C   0  0  0  0  0  0  0  0  0  0  0  0
   43.4540   34.5020   42.4470 F   0  0  0  0  0  0  0  0  0  0  0  0
   43.9870   36.5340   41.7190 F   0  0  0  0  0  0  0  0  0  0  0  0
   45.1940   34.8270   40.9440 F   0  0  0  0  0  0  0  0  0  0  0  0
   46.8340   30.5960   44.9170 C   0  0  0  0  0  0  0  0  0  0  0  0
   46.4840   29.8640   43.8300 C   0  0  0  0  0  0  0  0  0  0  0  0
   47.6630   29.4620   43.1850 C   0  0  0  0  0  0  0  0  0  0  0  0
   48.6620   29.9680   43.9100 N   0  0  0  0  0  0  0  0  0  0  0  0
   48.1980   30.6400   44.9350 N   0  0  0  0  0  0  0  0  0  0  0  0
   45.4360   29.7170   43.6440 H   0  0  0  0  0  0  0  0  0  0  0  0
   47.6290   28.8670   42.2930 H   0  0  0  0  0  0  0  0  0  0  0  0
   50.0810   29.7750   43.5700 C   0  0  0  0  0  3  0  0  0  0  0  0
   50.3200   29.6140   42.0760 C   0  0  0  0  0  2  0  0  0  0  0  0
   50.7160   30.8960   42.7230 C   0  0  0  0  0  2  0  0  0  0  0  0
  1  8  1  0  0  0  0
  1  6  1  0  0  0  0
  2  1  2  0  0  0  0
  3  2  1  0  0  0  0
  3  4  2  0  0  0  0
  4  5  1  0  0  0  0
  5  6  2  0  0  0  0
  5  7  1  0  0  0  0
  7  9  1  0  0  0  0
 10  7  1  0  0  0  0
 11 12  1  0  0  0  0
 11 17  1  1  0  0  0
 11  2  1  0  0  0  0
 12 18  1  0  0  0  0
 13 19  1  0  0  0  0
 13 12  2  0  0  0  0
 14 20  1  6  0  0  0
 14 13  1  0  0  0  0
 15 14  1  0  0  0  0
 15 22  1  0  0  0  0
 15 16  1  0  0  0  0
 16 11  1  0  0  0  0
 21 15  1  0  0  0  0
 23 16  1  0  0  0  0
 24 16  1  0  0  0  0
 25 26  1  0  0  0  0
 25 14  1  0  0  0  0
 27 25  1  0  0  0  0
 28 25  1  0  0  0  0
 29 33  2  0  0  0  0
 29  3  1  0  0  0  0
 30 29  1  0  0  0  0
 31 30  2  0  0  0  0
 31 32  1  0  0  0  0
 32 33  1  0  0  0  0
 34 30  1  0  0  0  0
 35 31  1  0  0  0  0
 36 32  1  0  0  0  0
 37 38  1  0  0  0  0
 37 36  1  0  0  0  0
 38 36  1  0  0  0  0
M  END
>  <minimizedAffinity>
-5.58895922

>  <minimizedRMSD>
0.496185124

$$$$
