
 OpenBabel03232521013D

 38 41  0  0  1  0  0  0  0  0999 V2000
   45.3670   32.8800   47.5010 C   0  0  0  0  0  0  0  0  0  0  0  0
   45.9190   32.6310   46.2900 C   0  0  0  0  0  0  0  0  0  0  0  0
   46.1880   31.2830   46.0340 C   0  0  0  0  0  0  0  0  0  0  0  0
   45.9260   30.2830   46.9120 N   0  0  0  0  0  0  0  0  0  0  0  0
   45.3600   30.5960   48.1390 C   0  0  0  0  0  0  0  0  0  0  0  0
   45.0980   31.8620   48.4000 N   0  0  0  0  0  0  0  0  0  0  0  0
   45.1050   29.5690   49.0900 N   0  0  0  0  0  0  0  0  0  0  0  0
   45.1240   33.8860   47.8010 H   0  0  0  0  0  0  0  0  0  0  0  0
   45.9030   29.7030   49.7510 H   0  0  0  0  0  0  0  0  0  0  0  0
   44.2910   28.8880   49.0590 H   0  0  0  0  0  0  0  0  0  0  0  0
   46.1670   33.5880   45.2640 C   0  0  2  0  0  0  0  0  0  0  0  0
   44.9540   34.6770   45.4980 C   0  0  0  0  0  0  0  0  0  0  0  0
   44.7300   35.6130   44.4320 C   0  0  0  0  0  0  0  0  0  0  0  0
   45.5330   35.5510   43.2100 C   0  0  1  0  0  0  0  0  0  0  0  0
   46.5920   34.5520   43.1600 C   0  0  0  0  0  0  0  0  0  0  0  0
   46.1440   33.3110   43.8990 C   0  0  0  0  0  0  0  0  0  0  0  0
   46.9460   34.3300   45.6010 H   0  0  0  0  0  0  0  0  0  0  0  0
   44.2730   34.8200   46.3260 H   0  0  0  0  0  0  0  0  0  0  0  0
   43.9640   36.3310   44.5380 H   0  0  0  0  0  0  0  0  0  0  0  0
   45.9560   36.5620   43.0160 H   0  0  0  0  0  0  0  0  0  0  0  0
   46.8480   34.3500   42.0850 H   0  0  0  0  0  0  0  0  0  0  0  0
   47.5210   34.9120   43.6510 H   0  0  0  0  0  0  0  0  0  0  0  0
   45.2130   32.9450   43.4200 H   0  0  0  0  0  0  0  0  0  0  0  0
   47.0020   32.6690   43.5700 H   0  0  0  0  0  0  0  0  0  0  0  0
   44.5210   35.2880   42.0540 C   0  0  0  0  0  0  0  0  0  0  0  0
   43.4560   34.4950   42.4450 F   0  0  0  0  0  0  0  0  0  0  0  0
   43.9860   36.5290   41.7170 F   0  0  0  0  0  0  0  0  0  0  0  0
   45.1960   34.8240   40.9420 F   0  0  0  0  0  0  0  0  0  0  0  0
   46.8270   30.5960   44.9210 C   0  0  0  0  0  0  0  0  0  0  0  0
   46.4750   29.8570   43.8390 C   0  0  0  0  0  0  0  0  0  0  0  0
   47.6520   29.4570   43.1900 C   0  0  0  0  0  0  0  0  0  0  0  0
   48.6520   29.9700   43.9080 N   0  0  0  0  0  0  0  0  0  0  0  0
   48.1910   30.6450   44.9320 N   0  0  0  0  0  0  0  0  0  0  0  0
   45.4260   29.7050   43.6600 H   0  0  0  0  0  0  0  0  0  0  0  0
   47.6160   28.8580   42.3010 H   0  0  0  0  0  0  0  0  0  0  0  0
   50.0710   29.7810   43.5620 C   0  0  0  0  0  3  0  0  0  0  0  0
   50.3040   29.6240   42.0660 C   0  0  0  0  0  2  0  0  0  0  0  0
   50.6990   30.9060   42.7130 C   0  0  0  0  0  2  0  0  0  0  0  0
  1  8  1  0  0  0  0
  1  6  1  0  0  0  0
  2  1  2  0  0  0  0
  3  2  1  0  0  0  0
  3  4  2  0  0  0  0
  4  5  1  0  0  0  0
  5  6  2  0  0  0  0
  5  7  1  0  0  0  0
  7  9  1  0  0  0  0
 10  7  1  0  0  0  0
 11 12  1  0  0  0  0
 11 17  1  1  0  0  0
 11  2  1  0  0  0  0
 12 18  1  0  0  0  0
 13 19  1  0  0  0  0
 13 12  2  0  0  0  0
 14 20  1  6  0  0  0
 14 13  1  0  0  0  0
 15 14  1  0  0  0  0
 15 22  1  0  0  0  0
 15 16  1  0  0  0  0
 16 11  1  0  0  0  0
 21 15  1  0  0  0  0
 23 16  1  0  0  0  0
 24 16  1  0  0  0  0
 25 26  1  0  0  0  0
 25 14  1  0  0  0  0
 27 25  1  0  0  0  0
 28 25  1  0  0  0  0
 29 33  2  0  0  0  0
 29  3  1  0  0  0  0
 30 29  1  0  0  0  0
 31 30  2  0  0  0  0
 31 32  1  0  0  0  0
 32 33  1  0  0  0  0
 34 30  1  0  0  0  0
 35 31  1  0  0  0  0
 36 32  1  0  0  0  0
 37 38  1  0  0  0  0
 37 36  1  0  0  0  0
 38 36  1  0  0  0  0
M  END
>  <minimizedAffinity>
-5.59350252

>  <minimizedRMSD>
0.32017985

$$$$
