
 OpenBabel03232520493D

 37 40  0  0  1  0  0  0  0  0999 V2000
   46.4680   33.1650   45.6810 C   0  0  2  0  0  0  0  0  0  0  0  0
   45.3450   34.1480   45.4320 C   0  0  0  0  0  0  0  0  0  0  0  0
   45.3790   34.9110   44.2050 C   0  0  0  0  0  0  0  0  0  0  0  0
   46.4740   34.7120   43.2570 C   0  0  1  0  0  0  0  0  0  0  0  0
   47.5630   33.8070   43.6580 C   0  0  0  0  0  0  0  0  0  0  0  0
   47.0070   32.6200   44.4000 C   0  0  0  0  0  0  0  0  0  0  0  0
   47.2350   33.7780   46.2050 H   0  0  0  0  0  0  0  0  0  0  0  0
   44.4830   34.3880   46.0400 H   0  0  0  0  0  0  0  0  0  0  0  0
   44.6090   35.6110   43.9930 H   0  0  0  0  0  0  0  0  0  0  0  0
   46.9340   35.7250   43.0760 H   0  0  0  0  0  0  0  0  0  0  0  0
   48.0590   33.4120   42.7330 H   0  0  0  0  0  0  0  0  0  0  0  0
   48.3630   34.3220   44.2320 H   0  0  0  0  0  0  0  0  0  0  0  0
   47.8020   31.8900   44.6550 H   0  0  0  0  0  0  0  0  0  0  0  0
   46.2060   32.1830   43.7860 H   0  0  0  0  0  0  0  0  0  0  0  0
   45.8860   34.3400   41.9640 N   0  0  0  0  0  0  0  0  0  0  0  0
   46.4980   33.7420   40.9250 C   0  0  0  0  0  0  0  0  0  0  0  0
   45.6450   33.5650   39.9240 N   0  0  0  0  0  0  0  0  0  0  0  0
   44.4480   34.0500   40.2970 C   0  0  0  0  0  0  0  0  0  0  0  0
   43.2230   34.1140   39.6330 C   0  0  0  0  0  0  0  0  0  0  0  0
   43.0790   33.6710   38.4630 O   0  0  0  0  0  0  0  0  0  0  0  0
   42.2090   34.6780   40.3200 N   0  0  0  0  0  0  0  0  0  0  0  0
   42.3550   35.1610   41.5880 C   0  0  0  0  0  0  0  0  0  0  0  0
   41.1710   35.7250   42.1620 N   0  0  0  0  0  0  0  0  0  0  0  0
   43.5500   35.0970   42.2330 N   0  0  0  0  0  0  0  0  0  0  0  0
   44.6030   34.5430   41.5950 C   0  0  0  0  0  0  0  0  0  0  0  0
   41.2940   34.7210   39.8130 H   0  0  0  0  0  0  0  0  0  0  0  0
   40.5420   35.4050   42.9450 H   0  0  0  0  0  0  0  0  0  0  0  0
   40.9690   36.6040   41.6570 H   0  0  0  0  0  0  0  0  0  0  0  0
   45.4180   32.5200   47.8390 C   0  0  0  0  0  0  0  0  0  0  0  0
   45.9960   32.1350   46.6290 C   0  0  0  0  0  0  0  0  0  0  0  0
   46.1150   30.7400   46.3740 C   0  0  0  0  0  0  0  0  0  0  0  0
   45.6650   29.8700   47.3120 N   0  0  0  0  0  0  0  0  0  0  0  0
   45.1090   30.2900   48.4770 C   0  0  0  0  0  0  0  0  0  0  0  0
   44.9930   31.6170   48.7220 N   0  0  0  0  0  0  0  0  0  0  0  0
   45.2800   33.5500   48.1320 H   0  0  0  0  0  0  0  0  0  0  0  0
   46.5510   30.3760   45.4600 H   0  0  0  0  0  0  0  0  0  0  0  0
   44.7730   29.5280   49.1730 H   0  0  0  0  0  0  0  0  0  0  0  0
  1  7  1  1  0  0  0
  1 30  1  0  0  0  0
  2  1  1  0  0  0  0
  2  8  1  0  0  0  0
  3  2  2  0  0  0  0
  4 10  1  6  0  0  0
  4  5  1  0  0  0  0
  4  3  1  0  0  0  0
  5 12  1  0  0  0  0
  5  6  1  0  0  0  0
  6 13  1  0  0  0  0
  6  1  1  0  0  0  0
  9  3  1  0  0  0  0
 11  5  1  0  0  0  0
 14  6  1  0  0  0  0
 15  4  1  0  0  0  0
 16 15  1  0  0  0  0
 17 18  1  0  0  0  0
 17 16  2  0  0  0  0
 18 25  2  0  0  0  0
 19 18  1  0  0  0  0
 19 21  1  0  0  0  0
 20 19  2  0  0  0  0
 21 22  1  0  0  0  0
 22 23  1  0  0  0  0
 22 24  2  0  0  0  0
 23 27  1  0  0  0  0
 25 15  1  0  0  0  0
 25 24  1  0  0  0  0
 26 21  1  0  0  0  0
 28 23  1  0  0  0  0
 29 35  1  0  0  0  0
 29 34  1  0  0  0  0
 30 29  2  0  0  0  0
 31 30  1  0  0  0  0
 31 32  2  0  0  0  0
 32 33  1  0  0  0  0
 33 34  2  0  0  0  0
 33 37  1  0  0  0  0
 36 31  1  0  0  0  0
M  END
>  <minimizedAffinity>
-6.46717787

>  <minimizedRMSD>
1.82418406

$$$$
