
 OpenBabel03232515363D

 45 49  0  0  1  0  0  0  0  0999 V2000
   46.2600   32.7930   38.7800 N   0  0  0  0  0  0  0  0  0  0  0  0
   45.2070   33.2180   38.0950 N   0  0  0  0  0  0  0  0  0  0  0  0
   45.3700   33.1380   36.7930 C   0  0  0  0  0  0  0  0  0  0  0  0
   46.6050   32.6270   36.5780 C   0  0  0  0  0  0  0  0  0  0  0  0
   47.1150   32.4320   37.8510 C   0  0  0  0  0  0  0  0  0  0  0  0
   44.6760   33.4150   35.9960 H   0  0  0  0  0  0  0  0  0  0  0  0
   47.3180   32.3200   35.3820 N   0  0  0  0  0  0  0  0  0  0  0  0
   48.5020   32.9560   35.1620 C   0  0  0  0  0  0  0  0  0  0  0  0
   49.0330   32.5500   33.9990 N   0  0  0  0  0  0  0  0  0  0  0  0
   48.2160   31.6610   33.4540 C   0  0  0  0  0  0  0  0  0  0  0  0
   48.1490   30.8770   32.3130 C   0  0  0  0  0  0  0  0  0  0  0  0
   49.0990   30.9690   31.4920 O   0  0  0  0  0  0  0  0  0  0  0  0
   47.0810   30.0590   32.1330 N   0  0  0  0  0  0  0  0  0  0  0  0
   46.0650   29.9560   33.0030 C   0  0  0  0  0  0  0  0  0  0  0  0
   45.0760   29.0470   32.6010 N   0  0  0  0  0  0  0  0  0  0  0  0
   46.0920   30.7100   34.1390 N   0  0  0  0  0  0  0  0  0  0  0  0
   47.1480   31.5170   34.3160 C   0  0  0  0  0  0  0  0  0  0  0  0
   47.1530   29.5160   31.2210 H   0  0  0  0  0  0  0  0  0  0  0  0
   44.7940   28.1360   33.0150 H   0  0  0  0  0  0  0  0  0  0  0  0
   44.4820   29.2480   31.7580 H   0  0  0  0  0  0  0  0  0  0  0  0
   46.2420   32.8080   40.2360 C   0  0  0  0  0  0  0  0  0  0  0  0
   46.9110   31.9740   40.5150 H   0  0  0  0  0  0  0  0  0  0  0  0
   45.2410   32.4990   40.6260 H   0  0  0  0  0  0  0  0  0  0  0  0
   46.5860   34.1280   40.7590 C   0  0  2  0  0  0  0  0  0  0  0  0
   46.5220   34.8550   39.8840 H   0  0  0  0  0  0  0  0  0  0  0  0
   48.5040   35.4250   41.5740 C   0  0  0  0  0  0  0  0  0  0  0  0
   47.8450   34.2500   41.3700 C   0  0  0  0  0  0  0  0  0  0  0  0
   48.5210   33.1050   41.7850 C   0  0  0  0  0  0  0  0  0  0  0  0
   49.7510   33.1460   42.3520 N   0  0  0  0  0  0  0  0  0  0  0  0
   50.3390   34.3760   42.5170 C   0  0  0  0  0  0  0  0  0  0  0  0
   49.7210   35.4770   42.1340 N   0  0  0  0  0  0  0  0  0  0  0  0
   48.0220   36.3530   41.2690 H   0  0  0  0  0  0  0  0  0  0  0  0
   48.2540   32.0600   41.7640 H   0  0  0  0  0  0  0  0  0  0  0  0
   51.3240   34.5400   42.9590 H   0  0  0  0  0  0  0  0  0  0  0  0
   45.4520   34.6970   41.6320 C   0  0  0  0  0  0  0  0  0  0  0  0
   44.1720   34.9050   41.0830 C   0  0  0  0  0  0  0  0  0  0  0  0
   43.4630   35.4120   42.1580 C   0  0  0  0  0  0  0  0  0  0  0  0
   44.3250   35.4820   43.2700 C   0  0  0  0  0  0  0  0  0  0  0  0
   45.5070   35.0440   42.9130 O   0  0  0  0  0  0  0  0  0  0  0  0
   43.8900   34.6960   40.0620 H   0  0  0  0  0  0  0  0  0  0  0  0
   42.4220   35.6940   42.1100 H   0  0  0  0  0  0  0  0  0  0  0  0
   44.0690   35.8350   44.2580 H   0  0  0  0  0  0  0  0  0  0  0  0
   48.4150   31.9060   38.2380 N   0  0  0  0  0  0  0  0  0  0  0  0
   49.0850   32.7080   38.4110 H   0  0  0  0  0  0  0  0  0  0  0  0
   48.7230   30.9360   38.3500 H   0  0  0  0  0  0  0  0  0  0  0  0
  1 21  1  0  0  0  0
  2  1  1  0  0  0  0
  3  2  2  0  0  0  0
  4  3  1  0  0  0  0
  4  5  2  0  0  0  0
  5 43  1  0  0  0  0
  5  1  1  0  0  0  0
  6  3  1  0  0  0  0
  7  4  1  0  0  0  0
  8  7  1  0  0  0  0
  9  8  2  0  0  0  0
 10  9  1  0  0  0  0
 10 17  2  0  0  0  0
 11 10  1  0  0  0  0
 12 11  2  0  0  0  0
 13 11  1  0  0  0  0
 13 14  1  0  0  0  0
 14 16  2  0  0  0  0
 15 14  1  0  0  0  0
 15 19  1  0  0  0  0
 16 17  1  0  0  0  0
 17  7  1  0  0  0  0
 18 13  1  0  0  0  0
 20 15  1  0  0  0  0
 21 22  1  0  0  0  0
 21 23  1  0  0  0  0
 21 24  1  0  0  0  0
 24 25  1  6  0  0  0
 24 27  1  0  0  0  0
 24 35  1  0  0  0  0
 26 31  1  0  0  0  0
 27 26  2  0  0  0  0
 27 28  1  0  0  0  0
 28 29  2  0  0  0  0
 29 30  1  0  0  0  0
 30 34  1  0  0  0  0
 31 30  2  0  0  0  0
 32 26  1  0  0  0  0
 33 28  1  0  0  0  0
 35 39  1  0  0  0  0
 36 35  2  0  0  0  0
 36 37  1  0  0  0  0
 37 38  2  0  0  0  0
 38 42  1  0  0  0  0
 39 38  1  0  0  0  0
 40 36  1  0  0  0  0
 41 37  1  0  0  0  0
 43 45  1  0  0  0  0
 43 44  1  0  0  0  0
M  END
>  <minimizedAffinity>
-6.20404816

>  <minimizedRMSD>
0.905805051

$$$$
