
 OpenBabel03232519283D

 45 48  0  0  1  0  0  0  0  0999 V2000
   46.1340   34.0840   40.3130 C   0  0  1  0  0  0  0  0  0  0  0  0
   47.0640   33.4540   39.2760 C   0  0  0  0  0  0  0  0  0  0  0  0
   46.1880   33.0500   38.1040 C   0  0  0  0  0  0  0  0  0  0  0  0
   45.2670   31.9220   38.5240 C   0  0  0  0  0  0  0  0  0  0  0  0
   45.3250   31.7180   40.0160 C   0  0  0  0  0  0  0  0  0  0  0  0
   45.1860   33.0300   40.7850 C   0  0  2  0  0  0  0  0  0  0  0  0
   45.6940   34.9750   39.8730 H   0  0  0  0  0  0  0  0  0  0  0  0
   47.6130   32.5880   39.6940 H   0  0  0  0  0  0  0  0  0  0  0  0
   47.7800   34.2380   38.9030 H   0  0  0  0  0  0  0  0  0  0  0  0
   45.6830   33.9290   37.7100 H   0  0  0  0  0  0  0  0  0  0  0  0
   46.9130   32.6290   37.3450 H   0  0  0  0  0  0  0  0  0  0  0  0
   44.2270   32.2300   38.2430 H   0  0  0  0  0  0  0  0  0  0  0  0
   45.5050   30.9670   38.0530 H   0  0  0  0  0  0  0  0  0  0  0  0
   46.2480   31.1710   40.3060 H   0  0  0  0  0  0  0  0  0  0  0  0
   44.4710   31.0820   40.3200 H   0  0  0  0  0  0  0  0  0  0  0  0
   45.4990   32.7280   41.8180 H   0  0  0  0  0  0  0  0  0  0  0  0
   43.7990   33.3380   40.7500 N   0  0  0  0  0  0  0  0  0  0  0  0
   43.3180   34.4070   40.0460 C   0  0  0  0  0  0  0  0  0  0  0  0
   41.9830   34.4220   40.2150 N   0  0  0  0  0  0  0  0  0  0  0  0
   41.6450   33.3980   40.9950 C   0  0  0  0  0  0  0  0  0  0  0  0
   40.3960   33.0070   41.4420 C   0  0  0  0  0  0  0  0  0  0  0  0
   39.3350   33.6350   41.1340 O   0  0  0  0  0  0  0  0  0  0  0  0
   40.3030   31.9250   42.2320 N   0  0  0  0  0  0  0  0  0  0  0  0
   41.4590   31.2740   42.5430 C   0  0  0  0  0  0  0  0  0  0  0  0
   41.3350   30.1280   43.3830 N   0  0  0  0  0  0  0  0  0  0  0  0
   42.6490   31.6630   42.1050 N   0  0  0  0  0  0  0  0  0  0  0  0
   42.7850   32.7210   41.3280 C   0  0  0  0  0  0  0  0  0  0  0  0
   39.3790   31.5920   42.5950 H   0  0  0  0  0  0  0  0  0  0  0  0
   42.0530   29.3730   43.2570 H   0  0  0  0  0  0  0  0  0  0  0  0
   40.5940   30.0080   44.0900 H   0  0  0  0  0  0  0  0  0  0  0  0
   46.9710   34.6180   41.4940 C   0  0  0  0  0  0  0  0  0  0  0  0
   48.0370   34.4440   41.1270 H   0  0  0  0  0  0  0  0  0  0  0  0
   46.8710   35.6720   41.6610 H   0  0  0  0  0  0  0  0  0  0  0  0
   46.7340   33.6790   42.6350 C   0  0  0  0  0  0  0  0  0  0  0  0
   47.7040   33.2660   43.0370 H   0  0  0  0  0  0  0  0  0  0  0  0
   46.1630   32.7710   42.3490 H   0  0  0  0  0  0  0  0  0  0  0  0
   45.8870   33.6720   44.9280 C   0  0  0  0  0  0  0  0  0  0  0  0
   45.9780   34.2980   43.6810 C   0  0  0  0  0  0  0  0  0  0  0  0
   45.3240   35.4920   43.4960 C   0  0  0  0  0  0  0  0  0  0  0  0
   44.6120   36.0210   44.5340 N   0  0  0  0  0  0  0  0  0  0  0  0
   44.5300   35.4060   45.7390 C   0  0  0  0  0  0  0  0  0  0  0  0
   45.1730   34.2280   45.9270 N   0  0  0  0  0  0  0  0  0  0  0  0
   46.4020   32.7390   45.0640 H   0  0  0  0  0  0  0  0  0  0  0  0
   45.2730   36.1060   42.6140 H   0  0  0  0  0  0  0  0  0  0  0  0
   43.9510   35.8740   46.5200 H   0  0  0  0  0  0  0  0  0  0  0  0
  1  7  1  6  0  0  0
  1  6  1  0  0  0  0
  1 31  1  0  0  0  0
  2  8  1  0  0  0  0
  2  1  1  0  0  0  0
  3  4  1  0  0  0  0
  3  2  1  0  0  0  0
  4  5  1  0  0  0  0
  5 14  1  0  0  0  0
  5 15  1  0  0  0  0
  5  6  1  0  0  0  0
  6 16  1  1  0  0  0
  9  2  1  0  0  0  0
 10  3  1  0  0  0  0
 11  3  1  0  0  0  0
 12  4  1  0  0  0  0
 13  4  1  0  0  0  0
 17  6  1  0  0  0  0
 17 27  1  0  0  0  0
 18 19  2  0  0  0  0
 18 17  1  0  0  0  0
 19 20  1  0  0  0  0
 20 27  2  0  0  0  0
 20 21  1  0  0  0  0
 21 23  1  0  0  0  0
 22 21  2  0  0  0  0
 23 24  1  0  0  0  0
 23 28  1  0  0  0  0
 24 25  1  0  0  0  0
 25 30  1  0  0  0  0
 26 24  2  0  0  0  0
 27 26  1  0  0  0  0
 29 25  1  0  0  0  0
 31 33  1  0  0  0  0
 31 34  1  0  0  0  0
 32 31  1  0  0  0  0
 34 35  1  0  0  0  0
 34 38  1  0  0  0  0
 36 34  1  0  0  0  0
 37 43  1  0  0  0  0
 37 42  1  0  0  0  0
 38 37  2  0  0  0  0
 39 38  1  0  0  0  0
 39 40  2  0  0  0  0
 40 41  1  0  0  0  0
 41 42  2  0  0  0  0
 41 45  1  0  0  0  0
 44 39  1  0  0  0  0
M  END
>  <minimizedAffinity>
-5.72080755

>  <minimizedRMSD>
3.21491957

$$$$
