
 OpenBabel03232521013D

 38 41  0  0  1  0  0  0  0  0999 V2000
   45.3650   32.8690   47.4940 C   0  0  0  0  0  0  0  0  0  0  0  0
   45.9200   32.6240   46.2830 C   0  0  0  0  0  0  0  0  0  0  0  0
   46.1950   31.2780   46.0250 C   0  0  0  0  0  0  0  0  0  0  0  0
   45.9330   30.2750   46.9010 N   0  0  0  0  0  0  0  0  0  0  0  0
   45.3640   30.5840   48.1270 C   0  0  0  0  0  0  0  0  0  0  0  0
   45.0970   31.8480   48.3900 N   0  0  0  0  0  0  0  0  0  0  0  0
   45.1100   29.5540   49.0750 N   0  0  0  0  0  0  0  0  0  0  0  0
   45.1180   33.8740   47.7950 H   0  0  0  0  0  0  0  0  0  0  0  0
   45.9060   29.6890   49.7380 H   0  0  0  0  0  0  0  0  0  0  0  0
   44.2980   28.8700   49.0400 H   0  0  0  0  0  0  0  0  0  0  0  0
   46.1680   33.5840   45.2590 C   0  0  2  0  0  0  0  0  0  0  0  0
   44.9560   34.6730   45.4980 C   0  0  0  0  0  0  0  0  0  0  0  0
   44.7310   35.6130   44.4350 C   0  0  0  0  0  0  0  0  0  0  0  0
   45.5330   35.5530   43.2120 C   0  0  1  0  0  0  0  0  0  0  0  0
   46.5910   34.5540   43.1590 C   0  0  0  0  0  0  0  0  0  0  0  0
   46.1440   33.3120   43.8940 C   0  0  0  0  0  0  0  0  0  0  0  0
   46.9470   34.3250   45.5980 H   0  0  0  0  0  0  0  0  0  0  0  0
   44.2760   34.8140   46.3280 H   0  0  0  0  0  0  0  0  0  0  0  0
   43.9660   36.3310   44.5450 H   0  0  0  0  0  0  0  0  0  0  0  0
   45.9560   36.5650   43.0210 H   0  0  0  0  0  0  0  0  0  0  0  0
   46.8460   34.3550   42.0820 H   0  0  0  0  0  0  0  0  0  0  0  0
   47.5210   34.9120   43.6490 H   0  0  0  0  0  0  0  0  0  0  0  0
   45.2110   32.9480   43.4150 H   0  0  0  0  0  0  0  0  0  0  0  0
   47.0000   32.6690   43.5620 H   0  0  0  0  0  0  0  0  0  0  0  0
   44.5190   35.2950   42.0570 C   0  0  0  0  0  0  0  0  0  0  0  0
   43.4520   34.5060   42.4480 F   0  0  0  0  0  0  0  0  0  0  0  0
   43.9890   36.5380   41.7200 F   0  0  0  0  0  0  0  0  0  0  0  0
   45.1920   34.8290   40.9450 F   0  0  0  0  0  0  0  0  0  0  0  0
   46.8380   30.5950   44.9130 C   0  0  0  0  0  0  0  0  0  0  0  0
   46.4900   29.8660   43.8220 C   0  0  0  0  0  0  0  0  0  0  0  0
   47.6700   29.4640   43.1790 C   0  0  0  0  0  0  0  0  0  0  0  0
   48.6680   29.9660   43.9090 N   0  0  0  0  0  0  0  0  0  0  0  0
   48.2020   30.6360   44.9350 N   0  0  0  0  0  0  0  0  0  0  0  0
   45.4420   29.7220   43.6330 H   0  0  0  0  0  0  0  0  0  0  0  0
   47.6370   28.8720   42.2860 H   0  0  0  0  0  0  0  0  0  0  0  0
   50.0880   29.7710   43.5730 C   0  0  0  0  0  3  0  0  0  0  0  0
   50.3310   29.6100   42.0780 C   0  0  0  0  0  2  0  0  0  0  0  0
   50.7250   30.8920   42.7260 C   0  0  0  0  0  2  0  0  0  0  0  0
  1  8  1  0  0  0  0
  1  6  1  0  0  0  0
  2  1  2  0  0  0  0
  3  2  1  0  0  0  0
  3  4  2  0  0  0  0
  4  5  1  0  0  0  0
  5  6  2  0  0  0  0
  5  7  1  0  0  0  0
  7  9  1  0  0  0  0
 10  7  1  0  0  0  0
 11 12  1  0  0  0  0
 11 17  1  1  0  0  0
 11  2  1  0  0  0  0
 12 18  1  0  0  0  0
 13 19  1  0  0  0  0
 13 12  2  0  0  0  0
 14 20  1  6  0  0  0
 14 13  1  0  0  0  0
 15 14  1  0  0  0  0
 15 22  1  0  0  0  0
 15 16  1  0  0  0  0
 16 11  1  0  0  0  0
 21 15  1  0  0  0  0
 23 16  1  0  0  0  0
 24 16  1  0  0  0  0
 25 26  1  0  0  0  0
 25 14  1  0  0  0  0
 27 25  1  0  0  0  0
 28 25  1  0  0  0  0
 29 33  2  0  0  0  0
 29  3  1  0  0  0  0
 30 29  1  0  0  0  0
 31 30  2  0  0  0  0
 31 32  1  0  0  0  0
 32 33  1  0  0  0  0
 34 30  1  0  0  0  0
 35 31  1  0  0  0  0
 36 32  1  0  0  0  0
 37 38  1  0  0  0  0
 37 36  1  0  0  0  0
 38 36  1  0  0  0  0
M  END
>  <minimizedAffinity>
-5.58814192

>  <minimizedRMSD>
0.316787481

$$$$
