
 OpenBabel03232518543D

 35 38  0  0  0  0  0  0  0  0999 V2000
   47.3840   33.3530   43.2240 C   0  0  0  0  0  0  0  0  0  0  0  0
   48.6440   33.4840   43.2810 O   0  0  0  0  0  0  0  0  0  0  0  0
   44.7760   35.3020   44.9940 C   0  0  0  0  0  0  0  0  0  0  0  0
   45.6330   34.9730   43.9530 C   0  0  0  0  0  0  0  0  0  0  0  0
   46.4430   33.8600   44.1520 C   0  0  0  0  0  0  0  0  0  0  0  0
   46.3640   33.1660   45.3170 N   0  0  0  0  0  0  0  0  0  0  0  0
   45.5410   33.4960   46.2970 C   0  0  0  0  0  0  0  0  0  0  0  0
   44.7690   34.5510   46.1160 N   0  0  0  0  0  0  0  0  0  0  0  0
   44.1180   36.1570   44.9080 H   0  0  0  0  0  0  0  0  0  0  0  0
   45.6930   35.7430   42.7080 C   0  0  0  0  0  0  0  0  0  0  0  0
   45.0140   36.9440   42.9370 F   0  0  0  0  0  0  0  0  0  0  0  0
   44.9490   35.1530   41.7180 F   0  0  0  0  0  0  0  0  0  0  0  0
   46.9630   35.9780   42.2880 F   0  0  0  0  0  0  0  0  0  0  0  0
   45.4170   32.8370   47.4930 O   0  0  0  0  0  0  0  0  0  0  0  0
   46.4700   32.1070   48.0800 C   0  0  0  0  0  0  0  0  0  0  0  0
   47.6400   32.8610   48.0930 F   0  0  0  0  0  0  0  0  0  0  0  0
   46.6420   30.8590   47.5260 F   0  0  0  0  0  0  0  0  0  0  0  0
   46.1400   31.9730   49.4410 F   0  0  0  0  0  0  0  0  0  0  0  0
   47.4640   32.6320   42.0570 O   0  0  0  0  0  0  0  0  0  0  0  0
   48.3800   31.7130   41.7130 C   0  0  0  0  0  0  0  0  0  0  0  0
   48.4000   30.3180   42.2020 C   0  0  0  0  0  0  0  0  0  0  0  0
   49.8490   29.6500   41.3770 S   0  0  0  0  0  0  0  0  0  0  0  0
   50.2270   31.2740   40.5130 C   0  0  0  0  0  0  0  0  0  0  0  0
   49.3570   31.9790   40.8980 N   0  0  0  0  0  0  0  0  0  0  0  0
   47.8450   29.6480   42.8600 H   0  0  0  0  0  0  0  0  0  0  0  0
   51.4200   31.3780   39.5920 C   0  0  0  0  0  0  0  0  0  0  0  0
   52.7220   31.2910   39.9160 C   0  0  0  0  0  0  0  0  0  0  0  0
   53.3140   31.4570   38.7250 N   0  0  0  0  0  0  0  0  0  0  0  0
   52.3700   31.6330   37.7520 C   0  0  0  0  0  0  0  0  0  0  0  0
   51.1420   31.5790   38.3280 N   0  0  0  0  0  0  0  0  0  0  0  0
   53.0360   31.1270   40.9260 H   0  0  0  0  0  0  0  0  0  0  0  0
   52.6300   31.7860   36.7010 H   0  0  0  0  0  0  0  0  0  0  0  0
   49.9250   31.7300   37.5710 C   0  0  0  0  0  0  0  0  0  0  0  0
   49.8380   31.3800   36.1520 C   0  0  0  0  0  0  0  0  0  0  0  0
   49.2900   30.4200   37.1440 C   0  0  0  0  0  0  0  0  0  0  0  0
  1  2  2  0  0  0  0
  1  5  1  0  0  0  0
  3  8  1  0  0  0  0
  4  5  1  0  0  0  0
  4  3  2  0  0  0  0
  5  6  2  0  0  0  0
  6  7  1  0  0  0  0
  7 14  1  0  0  0  0
  8  7  2  0  0  0  0
  9  3  1  0  0  0  0
 10 11  1  0  0  0  0
 10  4  1  0  0  0  0
 12 10  1  0  0  0  0
 13 10  1  0  0  0  0
 14 15  1  0  0  0  0
 15 16  1  0  0  0  0
 15 18  1  0  0  0  0
 17 15  1  0  0  0  0
 19  1  1  0  0  0  0
 20 19  1  0  0  0  0
 20 21  2  0  0  0  0
 21 25  1  0  0  0  0
 22 21  1  0  0  0  0
 23 24  2  0  0  0  0
 23 22  1  0  0  0  0
 24 20  1  0  0  0  0
 26 27  2  0  0  0  0
 26 23  1  0  0  0  0
 27 31  1  0  0  0  0
 28 27  1  0  0  0  0
 29 30  1  0  0  0  0
 29 28  2  0  0  0  0
 30 26  1  0  0  0  0
 32 29  1  0  0  0  0
 33 30  1  0  0  0  0
 34 35  1  0  0  0  0
 34 33  1  0  0  0  0
 35 33  1  0  0  0  0
M  END
>  <minimizedAffinity>
-5.77006578

>  <minimizedRMSD>
1.3067764

$$$$
