
 OpenBabel03232521003D

 38 41  0  0  1  0  0  0  0  0999 V2000
   45.3770   32.8760   47.5580 C   0  0  0  0  0  0  0  0  0  0  0  0
   45.9300   32.6090   46.3510 C   0  0  0  0  0  0  0  0  0  0  0  0
   46.1920   31.2560   46.1130 C   0  0  0  0  0  0  0  0  0  0  0  0
   45.9220   30.2690   47.0030 N   0  0  0  0  0  0  0  0  0  0  0  0
   45.3550   30.6010   48.2250 C   0  0  0  0  0  0  0  0  0  0  0  0
   45.1000   31.8720   48.4690 N   0  0  0  0  0  0  0  0  0  0  0  0
   45.0920   29.5870   49.1880 N   0  0  0  0  0  0  0  0  0  0  0  0
   45.1390   33.8880   47.8440 H   0  0  0  0  0  0  0  0  0  0  0  0
   45.8890   29.7250   49.8490 H   0  0  0  0  0  0  0  0  0  0  0  0
   44.2740   28.9110   49.1630 H   0  0  0  0  0  0  0  0  0  0  0  0
   46.1860   33.5510   45.3130 C   0  0  2  0  0  0  0  0  0  0  0  0
   44.9730   34.6440   45.5240 C   0  0  0  0  0  0  0  0  0  0  0  0
   44.7570   35.5660   44.4430 C   0  0  0  0  0  0  0  0  0  0  0  0
   45.5690   35.4860   43.2280 C   0  0  1  0  0  0  0  0  0  0  0  0
   46.6270   34.4850   43.2000 C   0  0  0  0  0  0  0  0  0  0  0  0
   46.1730   33.2560   43.9520 C   0  0  0  0  0  0  0  0  0  0  0  0
   46.9630   34.2970   45.6460 H   0  0  0  0  0  0  0  0  0  0  0  0
   44.2860   34.7990   46.3460 H   0  0  0  0  0  0  0  0  0  0  0  0
   43.9910   36.2860   44.5350 H   0  0  0  0  0  0  0  0  0  0  0  0
   45.9940   36.4930   43.0230 H   0  0  0  0  0  0  0  0  0  0  0  0
   46.8900   34.2680   42.1290 H   0  0  0  0  0  0  0  0  0  0  0  0
   47.5520   34.8520   43.6920 H   0  0  0  0  0  0  0  0  0  0  0  0
   45.2450   32.8840   43.4720 H   0  0  0  0  0  0  0  0  0  0  0  0
   47.0320   32.6080   43.6380 H   0  0  0  0  0  0  0  0  0  0  0  0
   44.5650   35.2080   42.0690 C   0  0  0  0  0  0  0  0  0  0  0  0
   43.5340   34.3640   42.4440 F   0  0  0  0  0  0  0  0  0  0  0  0
   43.9780   36.4330   41.7610 F   0  0  0  0  0  0  0  0  0  0  0  0
   45.2540   34.7970   40.9450 F   0  0  0  0  0  0  0  0  0  0  0  0
   46.8290   30.5520   45.0110 C   0  0  0  0  0  0  0  0  0  0  0  0
   46.4790   29.9400   43.8510 C   0  0  0  0  0  0  0  0  0  0  0  0
   47.6450   29.4110   43.2760 C   0  0  0  0  0  0  0  0  0  0  0  0
   48.6350   29.7260   44.1110 N   0  0  0  0  0  0  0  0  0  0  0  0
   48.1790   30.3980   45.1400 N   0  0  0  0  0  0  0  0  0  0  0  0
   45.4410   29.9550   43.5730 H   0  0  0  0  0  0  0  0  0  0  0  0
   47.6070   28.8790   42.3450 H   0  0  0  0  0  0  0  0  0  0  0  0
   50.0390   29.3510   43.8740 C   0  0  0  0  0  3  0  0  0  0  0  0
   50.8110   29.0900   45.1600 C   0  0  0  0  0  2  0  0  0  0  0  0
   50.4240   27.9240   44.3170 C   0  0  0  0  0  2  0  0  0  0  0  0
  1  8  1  0  0  0  0
  1  6  1  0  0  0  0
  2  1  2  0  0  0  0
  3  2  1  0  0  0  0
  3  4  2  0  0  0  0
  4  5  1  0  0  0  0
  5  6  2  0  0  0  0
  5  7  1  0  0  0  0
  7  9  1  0  0  0  0
 10  7  1  0  0  0  0
 11 12  1  0  0  0  0
 11 17  1  1  0  0  0
 11  2  1  0  0  0  0
 12 18  1  0  0  0  0
 13 19  1  0  0  0  0
 13 12  2  0  0  0  0
 14 20  1  6  0  0  0
 14 13  1  0  0  0  0
 15 14  1  0  0  0  0
 15 22  1  0  0  0  0
 15 16  1  0  0  0  0
 16 11  1  0  0  0  0
 21 15  1  0  0  0  0
 23 16  1  0  0  0  0
 24 16  1  0  0  0  0
 25 26  1  0  0  0  0
 25 14  1  0  0  0  0
 27 25  1  0  0  0  0
 28 25  1  0  0  0  0
 29 33  2  0  0  0  0
 29  3  1  0  0  0  0
 30 29  1  0  0  0  0
 31 30  2  0  0  0  0
 31 32  1  0  0  0  0
 32 33  1  0  0  0  0
 34 30  1  0  0  0  0
 35 31  1  0  0  0  0
 36 32  1  0  0  0  0
 36 38  1  0  0  0  0
 36 37  1  0  0  0  0
 38 37  1  0  0  0  0
M  END
>  <minimizedAffinity>
-5.56032467

>  <minimizedRMSD>
0.325069755

$$$$
