
 OpenBabel03232520093D

 30 33  0  0  0  0  0  0  0  0999 V2000
   46.1260   32.9660   45.7300 C   0  0  0  0  0  0  0  0  0  0  0  0
   45.8700   32.7470   47.0690 C   0  0  0  0  0  0  0  0  0  0  0  0
   46.3370   31.6050   47.6460 C   0  0  0  0  0  0  0  0  0  0  0  0
   47.0500   30.7310   46.8190 C   0  0  0  0  0  0  0  0  0  0  0  0
   47.0490   31.5460   45.2220 S   0  0  0  0  0  0  0  0  0  0  0  0
   45.3060   33.5000   47.6050 H   0  0  0  0  0  0  0  0  0  0  0  0
   46.1840   31.3530   48.6830 H   0  0  0  0  0  0  0  0  0  0  0  0
   47.6290   29.4860   47.1900 N   0  0  0  0  0  0  0  0  0  0  0  0
   48.9360   29.2540   47.4170 C   0  0  0  0  0  0  0  0  0  0  0  0
   49.0150   27.9460   47.7370 N   0  0  0  0  0  0  0  0  0  0  0  0
   47.7950   27.3830   47.7080 C   0  0  0  0  0  0  0  0  0  0  0  0
   47.3830   26.0880   47.9590 C   0  0  0  0  0  0  0  0  0  0  0  0
   48.2060   25.2020   48.2780 O   0  0  0  0  0  0  0  0  0  0  0  0
   46.0930   25.7590   47.8670 N   0  0  0  0  0  0  0  0  0  0  0  0
   45.2510   26.7500   47.5220 C   0  0  0  0  0  0  0  0  0  0  0  0
   43.8570   26.4880   47.3990 N   0  0  0  0  0  0  0  0  0  0  0  0
   45.5950   28.0280   47.2650 N   0  0  0  0  0  0  0  0  0  0  0  0
   46.8950   28.3690   47.3560 C   0  0  0  0  0  0  0  0  0  0  0  0
   45.6870   24.8030   48.0390 H   0  0  0  0  0  0  0  0  0  0  0  0
   43.0870   26.1780   46.7690 H   0  0  0  0  0  0  0  0  0  0  0  0
   43.0030   26.5310   48.0250 H   0  0  0  0  0  0  0  0  0  0  0  0
   44.4900   36.0170   44.5240 C   0  0  0  0  0  0  0  0  0  0  0  0
   45.0950   36.1560   43.2420 C   0  0  0  0  0  0  0  0  0  0  0  0
   46.0430   35.2040   42.8280 C   0  0  0  0  0  0  0  0  0  0  0  0
   46.3380   34.1840   43.6870 N   0  0  0  0  0  0  0  0  0  0  0  0
   45.7460   34.0820   44.8940 C   0  0  0  0  0  0  0  0  0  0  0  0
   44.8350   34.9870   45.3070 N   0  0  0  0  0  0  0  0  0  0  0  0
   43.7680   36.7590   44.8160 H   0  0  0  0  0  0  0  0  0  0  0  0
   44.8620   36.9650   42.5600 H   0  0  0  0  0  0  0  0  0  0  0  0
   46.5290   35.2670   41.8660 H   0  0  0  0  0  0  0  0  0  0  0  0
  1  2  2  0  0  0  0
  2  6  1  0  0  0  0
  2  3  1  0  0  0  0
  3  7  1  0  0  0  0
  4  8  1  0  0  0  0
  4  3  2  0  0  0  0
  5  1  1  0  0  0  0
  5  4  1  0  0  0  0
  8 18  1  0  0  0  0
  8  9  1  0  0  0  0
  9 10  2  0  0  0  0
 11 10  1  0  0  0  0
 11 12  1  0  0  0  0
 12 13  2  0  0  0  0
 14 12  1  0  0  0  0
 14 19  1  0  0  0  0
 15 14  1  0  0  0  0
 16 15  1  0  0  0  0
 16 21  1  0  0  0  0
 17 18  1  0  0  0  0
 17 15  2  0  0  0  0
 18 11  2  0  0  0  0
 20 16  1  0  0  0  0
 22 28  1  0  0  0  0
 22 27  1  0  0  0  0
 23 22  2  0  0  0  0
 24 23  1  0  0  0  0
 24 25  2  0  0  0  0
 25 26  1  0  0  0  0
 26 27  2  0  0  0  0
 26  1  1  0  0  0  0
 29 23  1  0  0  0  0
 30 24  1  0  0  0  0
M  END
>  <minimizedAffinity>
-5.10912085

>  <minimizedRMSD>
1.83324742

$$$$
