
 OpenBabel03232521013D

 38 41  0  0  1  0  0  0  0  0999 V2000
   45.3760   32.8790   47.5570 C   0  0  0  0  0  0  0  0  0  0  0  0
   45.9290   32.6110   46.3500 C   0  0  0  0  0  0  0  0  0  0  0  0
   46.1910   31.2580   46.1130 C   0  0  0  0  0  0  0  0  0  0  0  0
   45.9210   30.2710   47.0030 N   0  0  0  0  0  0  0  0  0  0  0  0
   45.3540   30.6040   48.2250 C   0  0  0  0  0  0  0  0  0  0  0  0
   45.0990   31.8740   48.4690 N   0  0  0  0  0  0  0  0  0  0  0  0
   45.0910   29.5900   49.1890 N   0  0  0  0  0  0  0  0  0  0  0  0
   45.1380   33.8910   47.8440 H   0  0  0  0  0  0  0  0  0  0  0  0
   45.8890   29.7290   49.8490 H   0  0  0  0  0  0  0  0  0  0  0  0
   44.2730   28.9140   49.1640 H   0  0  0  0  0  0  0  0  0  0  0  0
   46.1850   33.5530   45.3120 C   0  0  2  0  0  0  0  0  0  0  0  0
   44.9720   34.6460   45.5230 C   0  0  0  0  0  0  0  0  0  0  0  0
   44.7560   35.5670   44.4420 C   0  0  0  0  0  0  0  0  0  0  0  0
   45.5670   35.4870   43.2270 C   0  0  1  0  0  0  0  0  0  0  0  0
   46.6260   34.4870   43.1990 C   0  0  0  0  0  0  0  0  0  0  0  0
   46.1720   33.2570   43.9520 C   0  0  0  0  0  0  0  0  0  0  0  0
   46.9620   34.2990   45.6450 H   0  0  0  0  0  0  0  0  0  0  0  0
   44.2860   34.8020   46.3450 H   0  0  0  0  0  0  0  0  0  0  0  0
   43.9900   36.2870   44.5330 H   0  0  0  0  0  0  0  0  0  0  0  0
   45.9930   36.4950   43.0210 H   0  0  0  0  0  0  0  0  0  0  0  0
   46.8890   34.2690   42.1280 H   0  0  0  0  0  0  0  0  0  0  0  0
   47.5510   34.8530   43.6910 H   0  0  0  0  0  0  0  0  0  0  0  0
   45.2440   32.8850   43.4720 H   0  0  0  0  0  0  0  0  0  0  0  0
   47.0310   32.6090   43.6380 H   0  0  0  0  0  0  0  0  0  0  0  0
   44.5640   35.2090   42.0680 C   0  0  0  0  0  0  0  0  0  0  0  0
   43.5320   34.3660   42.4440 F   0  0  0  0  0  0  0  0  0  0  0  0
   43.9780   36.4350   41.7590 F   0  0  0  0  0  0  0  0  0  0  0  0
   45.2530   34.7960   40.9450 F   0  0  0  0  0  0  0  0  0  0  0  0
   46.8290   30.5530   45.0110 C   0  0  0  0  0  0  0  0  0  0  0  0
   46.4780   29.9420   43.8510 C   0  0  0  0  0  0  0  0  0  0  0  0
   47.6430   29.4120   43.2760 C   0  0  0  0  0  0  0  0  0  0  0  0
   48.6340   29.7270   44.1120 N   0  0  0  0  0  0  0  0  0  0  0  0
   48.1780   30.3990   45.1410 N   0  0  0  0  0  0  0  0  0  0  0  0
   45.4410   29.9580   43.5720 H   0  0  0  0  0  0  0  0  0  0  0  0
   47.6060   28.8800   42.3450 H   0  0  0  0  0  0  0  0  0  0  0  0
   50.0370   29.3510   43.8750 C   0  0  0  0  0  3  0  0  0  0  0  0
   50.8090   29.0890   45.1610 C   0  0  0  0  0  2  0  0  0  0  0  0
   50.4220   27.9240   44.3170 C   0  0  0  0  0  2  0  0  0  0  0  0
  1  8  1  0  0  0  0
  1  6  1  0  0  0  0
  2  1  2  0  0  0  0
  3  2  1  0  0  0  0
  3  4  2  0  0  0  0
  4  5  1  0  0  0  0
  5  6  2  0  0  0  0
  5  7  1  0  0  0  0
  7  9  1  0  0  0  0
 10  7  1  0  0  0  0
 11 12  1  0  0  0  0
 11 17  1  1  0  0  0
 11  2  1  0  0  0  0
 12 18  1  0  0  0  0
 13 19  1  0  0  0  0
 13 12  2  0  0  0  0
 14 20  1  6  0  0  0
 14 13  1  0  0  0  0
 15 14  1  0  0  0  0
 15 22  1  0  0  0  0
 15 16  1  0  0  0  0
 16 11  1  0  0  0  0
 21 15  1  0  0  0  0
 23 16  1  0  0  0  0
 24 16  1  0  0  0  0
 25 26  1  0  0  0  0
 25 14  1  0  0  0  0
 27 25  1  0  0  0  0
 28 25  1  0  0  0  0
 29 33  2  0  0  0  0
 29  3  1  0  0  0  0
 30 29  1  0  0  0  0
 31 30  2  0  0  0  0
 31 32  1  0  0  0  0
 32 33  1  0  0  0  0
 34 30  1  0  0  0  0
 35 31  1  0  0  0  0
 36 32  1  0  0  0  0
 36 38  1  0  0  0  0
 36 37  1  0  0  0  0
 38 37  1  0  0  0  0
M  END
>  <minimizedAffinity>
-5.55993032

>  <minimizedRMSD>
0.234073922

$$$$
