
 OpenBabel03232513333D

 40 43  0  0  1  0  0  0  0  0999 V2000
   49.5800   33.2970   37.1880 N   0  0  0  0  0  0  0  0  0  0  0  0
   48.5610   34.1530   37.0370 C   0  0  0  0  0  0  0  0  0  0  0  0
   47.7880   34.0650   38.1340 N   0  0  0  0  0  0  0  0  0  0  0  0
   48.3080   33.1590   38.9860 C   0  0  0  0  0  0  0  0  0  0  0  0
   47.9240   32.6930   40.2270 C   0  0  0  0  0  0  0  0  0  0  0  0
   48.7350   31.7670   40.7520 N   0  0  0  0  0  0  0  0  0  0  0  0
   49.8380   31.2800   40.1930 C   0  0  0  0  0  0  0  0  0  0  0  0
   50.2050   31.7420   38.9780 N   0  0  0  0  0  0  0  0  0  0  0  0
   49.4520   32.6820   38.3600 C   0  0  0  0  0  0  0  0  0  0  0  0
   50.3560   33.1330   36.4990 H   0  0  0  0  0  0  0  0  0  0  0  0
   48.4450   34.7750   36.1540 H   0  0  0  0  0  0  0  0  0  0  0  0
   50.6400   30.2440   40.9110 C   0  0  0  0  0  0  0  0  0  0  0  0
   51.4180   29.8590   40.1950 H   0  0  0  0  0  0  0  0  0  0  0  0
   50.0480   29.3910   41.2520 H   0  0  0  0  0  0  0  0  0  0  0  0
   51.4310   30.8830   42.0470 C   0  0  0  0  0  0  0  0  0  0  0  0
   52.4930   30.9030   41.7330 H   0  0  0  0  0  0  0  0  0  0  0  0
   51.0490   31.9140   42.1380 H   0  0  0  0  0  0  0  0  0  0  0  0
   51.2200   30.1890   43.3200 C   0  0  0  0  0  0  0  0  0  0  0  0
   52.1960   29.7990   44.2130 C   0  0  0  0  0  0  0  0  0  0  0  0
   51.9270   29.1470   45.4010 C   0  0  0  0  0  0  0  0  0  0  0  0
   50.5670   28.9150   45.6170 C   0  0  0  0  0  0  0  0  0  0  0  0
   50.2790   28.4020   46.5370 H   0  0  0  0  0  0  0  0  0  0  0  0
   49.5670   29.2910   44.7460 C   0  0  0  0  0  0  0  0  0  0  0  0
   49.9100   29.9320   43.5950 N   0  0  0  0  0  0  0  0  0  0  0  0
   46.4500   33.3260   41.0050 S   0  0  0  0  0  0  0  0  0  0  0  0
   46.7180   34.8400   41.9020 C   0  0  1  0  0  0  0  0  0  0  0  0
   46.3790   35.6740   41.2880 H   0  0  0  0  0  0  0  0  0  0  0  0
   46.0870   34.8000   43.2440 C   0  0  0  0  0  0  0  0  0  0  0  0
   45.1770   35.8750   43.4250 C   0  0  0  0  0  0  0  0  0  0  0  0
   44.5270   35.9230   44.6700 C   0  0  0  0  0  0  0  0  0  0  0  0
   44.7960   34.9560   45.6180 N   0  0  0  0  0  0  0  0  0  0  0  0
   45.6710   33.9700   45.3690 C   0  0  0  0  0  0  0  0  0  0  0  0
   46.3080   33.9190   44.1570 N   0  0  0  0  0  0  0  0  0  0  0  0
   44.9270   36.6600   42.7210 H   0  0  0  0  0  0  0  0  0  0  0  0
   43.8170   36.7300   44.8590 H   0  0  0  0  0  0  0  0  0  0  0  0
   45.8560   33.2290   46.1350 H   0  0  0  0  0  0  0  0  0  0  0  0
   48.2460   35.1220   42.0530 C   0  0  0  0  0  0  0  0  0  0  0  0
   48.7100   34.1490   42.3270 H   0  0  0  0  0  0  0  0  0  0  0  0
   48.6200   35.4590   41.0610 H   0  0  0  0  0  0  0  0  0  0  0  0
   48.3930   35.9010   42.8170 H   0  0  0  0  0  0  0  0  0  0  0  0
  1  9  1  0  0  0  0
  2  1  1  0  0  0  0
  2  3  2  0  0  0  0
  3  4  1  0  0  0  0
  4  5  1  0  0  0  0
  5  6  2  0  0  0  0
  5 25  1  0  0  0  0
  7  6  1  0  0  0  0
  7 12  1  0  0  0  0
  8  7  2  0  0  0  0
  9  8  1  0  0  0  0
  9  4  2  0  0  0  0
 10  1  1  0  0  0  0
 11  2  1  0  0  0  0
 12 14  1  0  0  0  0
 12 15  1  0  0  0  0
 13 12  1  0  0  0  0
 15 17  1  0  0  0  0
 15 18  1  0  0  0  0
 16 15  1  0  0  0  0
 18 24  2  0  0  0  0
 18 19  1  0  0  0  0
 19 20  2  0  0  0  0
 20 21  1  0  0  0  0
 21 22  1  0  0  0  0
 23 21  2  0  0  0  0
 24 23  1  0  0  0  0
 25 26  1  0  0  0  0
 26 27  1  6  0  0  0
 26 37  1  0  0  0  0
 26 28  1  0  0  0  0
 28 29  2  0  0  0  0
 28 33  1  0  0  0  0
 29 30  1  0  0  0  0
 30 35  1  0  0  0  0
 30 31  2  0  0  0  0
 32 31  1  0  0  0  0
 32 36  1  0  0  0  0
 33 32  2  0  0  0  0
 34 29  1  0  0  0  0
 37 38  1  0  0  0  0
 37 40  1  0  0  0  0
 39 37  1  0  0  0  0
M  END
>  <minimizedAffinity>
-5.07766628

>  <minimizedRMSD>
1.0280236

$$$$
