
 OpenBabel03232520373D

 17 18  0  0  0  0  0  0  0  0999 V2000
   44.7000   35.0790   45.5390 C   0  0  0  0  0  0  0  0  0  0  0  0
   45.2420   34.8330   44.2610 C   0  0  0  0  0  0  0  0  0  0  0  0
   46.0660   33.7310   44.0750 C   0  0  0  0  0  0  0  0  0  0  0  0
   46.3280   32.9160   45.1380 N   0  0  0  0  0  0  0  0  0  0  0  0
   45.7890   33.1850   46.3530 C   0  0  0  0  0  0  0  0  0  0  0  0
   44.9950   34.2350   46.5610 N   0  0  0  0  0  0  0  0  0  0  0  0
   44.0580   35.9390   45.6780 H   0  0  0  0  0  0  0  0  0  0  0  0
   46.4970   33.5150   43.1050 H   0  0  0  0  0  0  0  0  0  0  0  0
   46.0070   32.3950   47.5150 N   0  0  0  0  0  0  0  0  0  0  0  0
   47.0640   32.1270   48.2670 N   0  0  0  0  0  0  0  0  0  0  0  0
   46.7020   31.3000   49.2670 C   0  0  0  0  0  0  0  0  0  0  0  0
   47.3130   30.8830   50.0590 H   0  0  0  0  0  0  0  0  0  0  0  0
   45.3440   31.0080   49.1710 C   0  0  0  0  0  0  0  0  0  0  0  0
   44.9400   31.7260   48.0410 C   0  0  0  0  0  0  0  0  0  0  0  0
   43.9010   31.6810   47.7230 H   0  0  0  0  0  0  0  0  0  0  0  0
   44.8610   35.9420   42.8920 S   0  0  0  0  0  0  0  0  0  0  0  0
   43.4780   36.2480   43.0080 H   0  0  0  0  0  0  0  0  0  0  0  0
  1  7  1  0  0  0  0
  1  6  1  0  0  0  0
  2  1  2  0  0  0  0
  3  2  1  0  0  0  0
  3  4  2  0  0  0  0
  4  5  1  0  0  0  0
  5  6  2  0  0  0  0
  5  9  1  0  0  0  0
  8  3  1  0  0  0  0
  9 14  1  0  0  0  0
  9 10  1  0  0  0  0
 10 11  2  0  0  0  0
 11 12  1  0  0  0  0
 13 11  1  0  0  0  0
 14 13  2  0  0  0  0
 15 14  1  0  0  0  0
 16 17  1  0  0  0  0
 16  2  1  0  0  0  0
M  END
>  <minimizedAffinity>
-4.09672546

>  <minimizedRMSD>
1.71035767

$$$$
