
 OpenBabel03232521003D

 41 44  0  0  1  0  0  0  0  0999 V2000
   45.3840   32.8900   47.5380 C   0  0  0  0  0  0  0  0  0  0  0  0
   45.9330   32.6220   46.3280 C   0  0  0  0  0  0  0  0  0  0  0  0
   46.1870   31.2670   46.0900 C   0  0  0  0  0  0  0  0  0  0  0  0
   45.9150   30.2800   46.9810 N   0  0  0  0  0  0  0  0  0  0  0  0
   45.3530   30.6070   48.2070 C   0  0  0  0  0  0  0  0  0  0  0  0
   45.1040   31.8880   48.4530 N   0  0  0  0  0  0  0  0  0  0  0  0
   45.0670   29.6030   49.1630 N   0  0  0  0  0  0  0  0  0  0  0  0
   45.1520   33.9050   47.8240 H   0  0  0  0  0  0  0  0  0  0  0  0
   44.2630   28.9380   49.0000 H   0  0  0  0  0  0  0  0  0  0  0  0
   45.7200   29.6210   49.9850 H   0  0  0  0  0  0  0  0  0  0  0  0
   46.1880   33.5650   45.2910 C   0  0  2  0  0  0  0  0  0  0  0  0
   44.9690   34.6580   45.5080 C   0  0  0  0  0  0  0  0  0  0  0  0
   44.7450   35.5860   44.4340 C   0  0  0  0  0  0  0  0  0  0  0  0
   45.5560   35.5040   43.2140 C   0  0  1  0  0  0  0  0  0  0  0  0
   46.6120   34.5000   43.1770 C   0  0  0  0  0  0  0  0  0  0  0  0
   46.1580   33.2720   43.9310 C   0  0  0  0  0  0  0  0  0  0  0  0
   46.9560   34.3220   45.6340 H   0  0  0  0  0  0  0  0  0  0  0  0
   44.2860   34.8050   46.3360 H   0  0  0  0  0  0  0  0  0  0  0  0
   43.9720   36.3070   44.5370 H   0  0  0  0  0  0  0  0  0  0  0  0
   45.9860   36.5080   43.0130 H   0  0  0  0  0  0  0  0  0  0  0  0
   47.5480   34.8550   43.6640 H   0  0  0  0  0  0  0  0  0  0  0  0
   46.8480   34.2790   42.0950 H   0  0  0  0  0  0  0  0  0  0  0  0
   47.0030   32.6140   43.5980 H   0  0  0  0  0  0  0  0  0  0  0  0
   45.1860   32.9070   43.5390 H   0  0  0  0  0  0  0  0  0  0  0  0
   44.5460   35.2310   42.0580 C   0  0  0  0  0  0  0  0  0  0  0  0
   43.5080   34.4000   42.4390 F   0  0  0  0  0  0  0  0  0  0  0  0
   43.9700   36.4600   41.7450 F   0  0  0  0  0  0  0  0  0  0  0  0
   45.2290   34.8050   40.9350 F   0  0  0  0  0  0  0  0  0  0  0  0
   46.8220   30.5640   44.9900 C   0  0  0  0  0  0  0  0  0  0  0  0
   46.4770   29.9160   43.8480 C   0  0  0  0  0  0  0  0  0  0  0  0
   47.6410   29.4190   43.2540 C   0  0  0  0  0  0  0  0  0  0  0  0
   48.6380   29.7870   44.0590 N   0  0  0  0  0  0  0  0  0  0  0  0
   48.1790   30.4620   45.0870 N   0  0  0  0  0  0  0  0  0  0  0  0
   45.4300   29.8880   43.5940 H   0  0  0  0  0  0  0  0  0  0  0  0
   47.5970   28.8640   42.3270 H   0  0  0  0  0  0  0  0  0  0  0  0
   50.0440   29.4530   43.7850 C   0  0  0  0  0  3  0  0  0  0  0  0
   50.6650   29.0740   45.0730 C   0  0  0  0  0  2  0  0  0  0  0  0
   51.5650   27.8920   45.0800 C   0  0  0  0  0  2  0  0  0  0  0  0
   50.9910   26.7680   44.2120 C   0  0  0  0  0  2  0  0  0  0  0  0
   51.0710   27.3480   42.8070 C   0  0  0  0  0  2  0  0  0  0  0  0
   50.1060   28.4700   42.6880 C   0  0  0  0  0  2  0  0  0  0  0  0
  1  8  1  0  0  0  0
  1  6  1  0  0  0  0
  2  1  2  0  0  0  0
  3  2  1  0  0  0  0
  3  4  2  0  0  0  0
  4  5  1  0  0  0  0
  5  6  2  0  0  0  0
  5  7  1  0  0  0  0
  7 10  1  0  0  0  0
  9  7  1  0  0  0  0
 11 12  1  0  0  0  0
 11 17  1  1  0  0  0
 11  2  1  0  0  0  0
 12 18  1  0  0  0  0
 13 19  1  0  0  0  0
 13 12  2  0  0  0  0
 14 20  1  6  0  0  0
 14 13  1  0  0  0  0
 15 14  1  0  0  0  0
 15 21  1  0  0  0  0
 15 16  1  0  0  0  0
 16 11  1  0  0  0  0
 22 15  1  0  0  0  0
 23 16  1  0  0  0  0
 24 16  1  0  0  0  0
 25 26  1  0  0  0  0
 25 14  1  0  0  0  0
 27 25  1  0  0  0  0
 28 25  1  0  0  0  0
 29 33  2  0  0  0  0
 29  3  1  0  0  0  0
 30 29  1  0  0  0  0
 31 30  2  0  0  0  0
 31 32  1  0  0  0  0
 32 33  1  0  0  0  0
 34 30  1  0  0  0  0
 35 31  1  0  0  0  0
 36 32  1  0  0  0  0
 36 37  1  0  0  0  0
 37 38  1  0  0  0  0
 39 38  1  0  0  0  0
 40 39  1  0  0  0  0
 41 40  1  0  0  0  0
 41 36  1  0  0  0  0
M  END
>  <minimizedAffinity>
-5.64447451

>  <minimizedRMSD>
0.512939632

$$$$
