
 OpenBabel03232519203D

 31 33  0  0  1  0  0  0  0  0999 V2000
   45.9370   30.4590   45.0360 N   0  0  0  0  0  0  0  0  0  0  0  0
   46.1800   29.0240   44.9360 C   0  0  0  0  0  0  0  0  0  0  0  0
   47.6760   28.9600   45.1760 C   0  0  0  0  0  0  0  0  0  0  0  0
   47.9250   29.9270   46.2820 C   0  0  0  0  0  0  0  0  0  0  0  0
   46.7940   30.9650   46.0130 C   0  0  2  0  0  0  0  0  0  0  0  0
   44.9270   30.6760   45.1370 H   0  0  0  0  0  0  0  0  0  0  0  0
   45.6310   28.4470   45.6800 H   0  0  0  0  0  0  0  0  0  0  0  0
   45.9750   28.6630   43.9070 H   0  0  0  0  0  0  0  0  0  0  0  0
   47.8790   27.9000   45.4730 H   0  0  0  0  0  0  0  0  0  0  0  0
   48.1930   29.2230   44.2310 H   0  0  0  0  0  0  0  0  0  0  0  0
   48.8590   30.5220   46.1820 H   0  0  0  0  0  0  0  0  0  0  0  0
   47.8030   29.4530   47.2490 H   0  0  0  0  0  0  0  0  0  0  0  0
   46.1940   31.0690   47.3700 N   0  0  0  0  0  0  0  0  0  0  0  0
   45.4650   30.1840   48.0070 N   0  0  0  0  0  0  0  0  0  0  0  0
   45.1020   30.6380   49.2190 C   0  0  0  0  0  0  0  0  0  0  0  0
   44.4850   29.9990   49.8720 H   0  0  0  0  0  0  0  0  0  0  0  0
   45.6450   31.9020   49.3540 C   0  0  0  0  0  0  0  0  0  0  0  0
   46.3260   32.1450   48.1740 C   0  0  0  0  0  0  0  0  0  0  0  0
   46.8540   33.0760   48.0030 H   0  0  0  0  0  0  0  0  0  0  0  0
   47.2220   32.2360   45.7310 O   0  0  0  0  0  0  0  0  0  0  0  0
   47.0920   32.8400   44.4310 C   0  0  0  0  0  0  0  0  0  0  0  0
   47.6870   32.3350   43.4600 O   0  0  0  0  0  0  0  0  0  0  0  0
   44.6040   35.3840   45.2250 C   0  0  0  0  0  0  0  0  0  0  0  0
   44.5730   36.1920   44.0870 C   0  0  0  0  0  0  0  0  0  0  0  0
   45.4370   35.8660   43.0410 C   0  0  0  0  0  0  0  0  0  0  0  0
   46.2560   34.7820   43.1930 N   0  0  0  0  0  0  0  0  0  0  0  0
   46.2360   34.0290   44.3400 C   0  0  0  0  0  0  0  0  0  0  0  0
   45.4290   34.3250   45.3330 N   0  0  0  0  0  0  0  0  0  0  0  0
   43.9390   35.6200   46.0560 H   0  0  0  0  0  0  0  0  0  0  0  0
   43.9240   37.0430   43.9780 H   0  0  0  0  0  0  0  0  0  0  0  0
   45.4920   36.4280   42.1150 H   0  0  0  0  0  0  0  0  0  0  0  0
  1  6  1  0  0  0  0
  1  5  1  0  0  0  0
  2  1  1  0  0  0  0
  2  3  1  0  0  0  0
  2  7  1  0  0  0  0
  3  9  1  0  0  0  0
  3  4  1  0  0  0  0
  4 12  1  0  0  0  0
  5 20  1  6  0  0  0
  5  4  1  0  0  0  0
  5 13  1  0  0  0  0
  8  2  1  0  0  0  0
 10  3  1  0  0  0  0
 11  4  1  0  0  0  0
 13 14  1  0  0  0  0
 13 18  1  0  0  0  0
 14 15  2  0  0  0  0
 15 17  1  0  0  0  0
 15 16  1  0  0  0  0
 18 17  2  0  0  0  0
 19 18  1  0  0  0  0
 21 20  1  0  0  0  0
 22 21  2  0  0  0  0
 23 28  1  0  0  0  0
 23 29  1  0  0  0  0
 24 23  2  0  0  0  0
 25 26  2  0  0  0  0
 25 24  1  0  0  0  0
 26 27  1  0  0  0  0
 27 21  1  0  0  0  0
 27 28  2  0  0  0  0
 30 24  1  0  0  0  0
 31 25  1  0  0  0  0
M  END
>  <minimizedAffinity>
-4.6134491

>  <minimizedRMSD>
2.94902802

$$$$
