
 OpenBabel03232521013D

 41 44  0  0  1  0  0  0  0  0999 V2000
   45.3570   32.9030   47.5040 C   0  0  0  0  0  0  0  0  0  0  0  0
   45.9160   32.6450   46.2960 C   0  0  0  0  0  0  0  0  0  0  0  0
   46.1890   31.2950   46.0550 C   0  0  0  0  0  0  0  0  0  0  0  0
   45.9240   30.3010   46.9420 N   0  0  0  0  0  0  0  0  0  0  0  0
   45.3520   30.6170   48.1660 C   0  0  0  0  0  0  0  0  0  0  0  0
   45.0850   31.8940   48.4140 N   0  0  0  0  0  0  0  0  0  0  0  0
   45.0740   29.6070   49.1170 N   0  0  0  0  0  0  0  0  0  0  0  0
   45.1110   33.9130   47.7920 H   0  0  0  0  0  0  0  0  0  0  0  0
   44.2790   28.9320   48.9470 H   0  0  0  0  0  0  0  0  0  0  0  0
   45.7220   29.6300   49.9420 H   0  0  0  0  0  0  0  0  0  0  0  0
   46.1640   33.5940   45.2630 C   0  0  2  0  0  0  0  0  0  0  0  0
   44.9480   34.6880   45.4970 C   0  0  0  0  0  0  0  0  0  0  0  0
   44.7180   35.6230   44.4300 C   0  0  0  0  0  0  0  0  0  0  0  0
   45.5190   35.5490   43.2030 C   0  0  1  0  0  0  0  0  0  0  0  0
   46.5730   34.5430   43.1520 C   0  0  0  0  0  0  0  0  0  0  0  0
   46.1240   33.3110   43.9010 C   0  0  0  0  0  0  0  0  0  0  0  0
   46.9350   34.3490   45.6060 H   0  0  0  0  0  0  0  0  0  0  0  0
   44.2720   34.8300   46.3300 H   0  0  0  0  0  0  0  0  0  0  0  0
   43.9460   36.3440   44.5440 H   0  0  0  0  0  0  0  0  0  0  0  0
   45.9490   36.5530   43.0070 H   0  0  0  0  0  0  0  0  0  0  0  0
   47.5140   34.8930   43.6340 H   0  0  0  0  0  0  0  0  0  0  0  0
   46.8010   34.3290   42.0670 H   0  0  0  0  0  0  0  0  0  0  0  0
   46.9650   32.6530   43.5580 H   0  0  0  0  0  0  0  0  0  0  0  0
   45.1480   32.9490   43.5150 H   0  0  0  0  0  0  0  0  0  0  0  0
   44.5000   35.2850   42.0540 C   0  0  0  0  0  0  0  0  0  0  0  0
   43.4410   34.4870   42.4490 F   0  0  0  0  0  0  0  0  0  0  0  0
   43.9560   36.5230   41.7230 F   0  0  0  0  0  0  0  0  0  0  0  0
   45.1690   34.8220   40.9360 F   0  0  0  0  0  0  0  0  0  0  0  0
   46.8380   30.6030   44.9560 C   0  0  0  0  0  0  0  0  0  0  0  0
   46.5120   29.8140   43.9010 C   0  0  0  0  0  0  0  0  0  0  0  0
   47.6890   29.4490   43.2410 C   0  0  0  0  0  0  0  0  0  0  0  0
   48.6750   30.0320   43.9230 N   0  0  0  0  0  0  0  0  0  0  0  0
   48.1980   30.7160   44.9360 N   0  0  0  0  0  0  0  0  0  0  0  0
   45.4660   29.6060   43.7460 H   0  0  0  0  0  0  0  0  0  0  0  0
   47.6600   28.8160   42.3650 H   0  0  0  0  0  0  0  0  0  0  0  0
   50.0910   29.8930   43.5480 C   0  0  0  0  0  3  0  0  0  0  0  0
   50.7660   29.1640   44.6420 C   0  0  0  0  0  2  0  0  0  0  0  0
   51.7340   28.1010   44.2660 C   0  0  0  0  0  2  0  0  0  0  0  0
   51.2020   27.2760   43.0890 C   0  0  0  0  0  2  0  0  0  0  0  0
   51.2090   28.2760   41.9430 C   0  0  0  0  0  2  0  0  0  0  0  0
   50.1790   29.3140   42.1930 C   0  0  0  0  0  2  0  0  0  0  0  0
  1  8  1  0  0  0  0
  1  6  1  0  0  0  0
  2  1  2  0  0  0  0
  3  2  1  0  0  0  0
  3  4  2  0  0  0  0
  4  5  1  0  0  0  0
  5  6  2  0  0  0  0
  5  7  1  0  0  0  0
  7 10  1  0  0  0  0
  9  7  1  0  0  0  0
 11 12  1  0  0  0  0
 11 17  1  1  0  0  0
 11  2  1  0  0  0  0
 12 18  1  0  0  0  0
 13 19  1  0  0  0  0
 13 12  2  0  0  0  0
 14 20  1  6  0  0  0
 14 13  1  0  0  0  0
 15 14  1  0  0  0  0
 15 21  1  0  0  0  0
 15 16  1  0  0  0  0
 16 11  1  0  0  0  0
 22 15  1  0  0  0  0
 23 16  1  0  0  0  0
 24 16  1  0  0  0  0
 25 26  1  0  0  0  0
 25 14  1  0  0  0  0
 27 25  1  0  0  0  0
 28 25  1  0  0  0  0
 29  3  1  0  0  0  0
 30 29  1  0  0  0  0
 31 30  2  0  0  0  0
 31 32  1  0  0  0  0
 32 33  1  0  0  0  0
 33 29  2  0  0  0  0
 34 30  1  0  0  0  0
 35 31  1  0  0  0  0
 36 32  1  0  0  0  0
 36 37  1  0  0  0  0
 38 37  1  0  0  0  0
 39 38  1  0  0  0  0
 40 41  1  0  0  0  0
 40 39  1  0  0  0  0
 41 36  1  0  0  0  0
M  END
>  <minimizedAffinity>
-5.64912987

>  <minimizedRMSD>
0.230518281

$$$$
