
 OpenBabel03232521013D

 41 44  0  0  1  0  0  0  0  0999 V2000
   45.3970   32.8460   47.4830 C   0  0  0  0  0  0  0  0  0  0  0  0
   45.9400   32.6030   46.2650 C   0  0  0  0  0  0  0  0  0  0  0  0
   46.1950   31.2540   45.9990 C   0  0  0  0  0  0  0  0  0  0  0  0
   45.9310   30.2490   46.8720 N   0  0  0  0  0  0  0  0  0  0  0  0
   45.3750   30.5500   48.1070 C   0  0  0  0  0  0  0  0  0  0  0  0
   45.1250   31.8260   48.3790 N   0  0  0  0  0  0  0  0  0  0  0  0
   45.0980   29.5280   49.0450 N   0  0  0  0  0  0  0  0  0  0  0  0
   45.1640   33.8550   47.7900 H   0  0  0  0  0  0  0  0  0  0  0  0
   44.2940   28.8640   48.8740 H   0  0  0  0  0  0  0  0  0  0  0  0
   45.7550   29.5310   49.8640 H   0  0  0  0  0  0  0  0  0  0  0  0
   46.1860   33.5670   45.2450 C   0  0  2  0  0  0  0  0  0  0  0  0
   44.9670   34.6540   45.4920 C   0  0  0  0  0  0  0  0  0  0  0  0
   44.7350   35.6020   44.4380 C   0  0  0  0  0  0  0  0  0  0  0  0
   45.5370   35.5460   43.2110 C   0  0  1  0  0  0  0  0  0  0  0  0
   46.5940   34.5440   43.1470 C   0  0  0  0  0  0  0  0  0  0  0  0
   46.1470   33.3010   43.8800 C   0  0  0  0  0  0  0  0  0  0  0  0
   46.9550   34.3190   45.5980 H   0  0  0  0  0  0  0  0  0  0  0  0
   44.2890   34.7830   46.3270 H   0  0  0  0  0  0  0  0  0  0  0  0
   43.9610   36.3200   44.5610 H   0  0  0  0  0  0  0  0  0  0  0  0
   45.9650   36.5540   43.0280 H   0  0  0  0  0  0  0  0  0  0  0  0
   47.5330   34.8910   43.6350 H   0  0  0  0  0  0  0  0  0  0  0  0
   46.8230   34.3450   42.0590 H   0  0  0  0  0  0  0  0  0  0  0  0
   46.9900   32.6510   43.5280 H   0  0  0  0  0  0  0  0  0  0  0  0
   45.1720   32.9420   43.4870 H   0  0  0  0  0  0  0  0  0  0  0  0
   44.5200   35.2950   42.0570 C   0  0  0  0  0  0  0  0  0  0  0  0
   43.4510   34.5070   42.4470 F   0  0  0  0  0  0  0  0  0  0  0  0
   43.9900   36.5390   41.7260 F   0  0  0  0  0  0  0  0  0  0  0  0
   45.1880   34.8280   40.9410 F   0  0  0  0  0  0  0  0  0  0  0  0
   46.8250   30.5740   44.8810 C   0  0  0  0  0  0  0  0  0  0  0  0
   46.4770   29.8210   43.8070 C   0  0  0  0  0  0  0  0  0  0  0  0
   47.6430   29.4430   43.1360 C   0  0  0  0  0  0  0  0  0  0  0  0
   48.6450   29.9830   43.8310 N   0  0  0  0  0  0  0  0  0  0  0  0
   48.1880   30.6530   44.8620 N   0  0  0  0  0  0  0  0  0  0  0  0
   45.4260   29.6440   43.6490 H   0  0  0  0  0  0  0  0  0  0  0  0
   47.5970   28.8330   42.2440 H   0  0  0  0  0  0  0  0  0  0  0  0
   50.0560   29.8160   43.4490 C   0  0  0  0  0  3  0  0  0  0  0  0
   50.1740   28.5120   42.7620 C   0  0  0  0  0  2  0  0  0  0  0  0
   51.0100   28.4540   41.5340 C   0  0  0  0  0  2  0  0  0  0  0  0
   50.7820   29.6950   40.6640 C   0  0  0  0  0  2  0  0  0  0  0  0
   51.3600   30.8170   41.5140 C   0  0  0  0  0  2  0  0  0  0  0  0
   50.5040   31.0120   42.7120 C   0  0  0  0  0  2  0  0  0  0  0  0
  1  8  1  0  0  0  0
  1  6  1  0  0  0  0
  2  1  2  0  0  0  0
  3  2  1  0  0  0  0
  3  4  2  0  0  0  0
  4  5  1  0  0  0  0
  5  6  2  0  0  0  0
  5  7  1  0  0  0  0
  7 10  1  0  0  0  0
  9  7  1  0  0  0  0
 11 12  1  0  0  0  0
 11 17  1  1  0  0  0
 11  2  1  0  0  0  0
 12 18  1  0  0  0  0
 13 19  1  0  0  0  0
 13 12  2  0  0  0  0
 14 20  1  6  0  0  0
 14 13  1  0  0  0  0
 15 14  1  0  0  0  0
 15 21  1  0  0  0  0
 15 16  1  0  0  0  0
 16 11  1  0  0  0  0
 22 15  1  0  0  0  0
 23 16  1  0  0  0  0
 24 16  1  0  0  0  0
 25 26  1  0  0  0  0
 25 14  1  0  0  0  0
 27 25  1  0  0  0  0
 28 25  1  0  0  0  0
 29  3  1  0  0  0  0
 30 29  1  0  0  0  0
 31 30  2  0  0  0  0
 31 32  1  0  0  0  0
 32 33  1  0  0  0  0
 33 29  2  0  0  0  0
 34 30  1  0  0  0  0
 35 31  1  0  0  0  0
 36 32  1  0  0  0  0
 37 36  1  0  0  0  0
 38 37  1  0  0  0  0
 39 40  1  0  0  0  0
 39 38  1  0  0  0  0
 40 41  1  0  0  0  0
 41 36  1  0  0  0  0
M  END
>  <minimizedAffinity>
-5.77970648

>  <minimizedRMSD>
0.240933388

$$$$
