
 OpenBabel03232520233D

 30 33  0  0  0  0  0  0  0  0999 V2000
   45.1650   33.8530   41.4040 C   0  0  0  0  0  0  0  0  0  0  0  0
   45.8460   34.4970   42.4330 C   0  0  0  0  0  0  0  0  0  0  0  0
   47.0700   34.8370   42.0160 N   0  0  0  0  0  0  0  0  0  0  0  0
   47.1860   34.4210   40.7360 C   0  0  0  0  0  0  0  0  0  0  0  0
   48.2560   34.5350   39.8620 C   0  0  0  0  0  0  0  0  0  0  0  0
   48.1110   34.0200   38.6010 C   0  0  0  0  0  0  0  0  0  0  0  0
   46.9630   33.3860   38.1190 C   0  0  0  0  0  0  0  0  0  0  0  0
   45.9390   33.3090   39.0450 C   0  0  0  0  0  0  0  0  0  0  0  0
   46.0100   33.8000   40.3210 C   0  0  0  0  0  0  0  0  0  0  0  0
   47.8330   35.3400   42.5610 H   0  0  0  0  0  0  0  0  0  0  0  0
   49.1700   35.0120   40.1690 H   0  0  0  0  0  0  0  0  0  0  0  0
   48.9600   34.1200   37.9350 H   0  0  0  0  0  0  0  0  0  0  0  0
   46.9080   32.9990   37.1100 H   0  0  0  0  0  0  0  0  0  0  0  0
   45.0140   32.8370   38.7650 H   0  0  0  0  0  0  0  0  0  0  0  0
   41.4520   33.6330   41.0780 C   0  0  0  0  0  0  0  0  0  0  0  0
   42.7580   34.1580   41.0250 C   0  0  0  0  0  0  0  0  0  0  0  0
   43.8130   33.3270   41.4530 C   0  0  0  0  0  0  0  0  0  0  0  0
   43.5170   32.0680   41.8930 N   0  0  0  0  0  0  0  0  0  0  0  0
   42.2410   31.6110   41.9240 C   0  0  0  0  0  0  0  0  0  0  0  0
   41.2080   32.3740   41.5230 N   0  0  0  0  0  0  0  0  0  0  0  0
   40.6100   34.2440   40.7550 H   0  0  0  0  0  0  0  0  0  0  0  0
   42.9080   35.1530   40.6670 H   0  0  0  0  0  0  0  0  0  0  0  0
   42.0020   30.6130   42.2720 H   0  0  0  0  0  0  0  0  0  0  0  0
   45.3720   34.7810   43.7450 N   0  0  0  0  0  0  0  0  0  0  0  0
   45.5170   33.9850   44.7920 N   0  0  0  0  0  0  0  0  0  0  0  0
   44.9640   34.5230   45.8930 C   0  0  0  0  0  0  0  0  0  0  0  0
   44.8930   34.1650   46.9080 H   0  0  0  0  0  0  0  0  0  0  0  0
   44.4430   35.7500   45.4700 C   0  0  0  0  0  0  0  0  0  0  0  0
   44.7100   35.8880   44.1230 C   0  0  0  0  0  0  0  0  0  0  0  0
   44.4490   36.7240   43.4580 H   0  0  0  0  0  0  0  0  0  0  0  0
  1 17  1  0  0  0  0
  1  2  2  0  0  0  0
  2 24  1  0  0  0  0
  3  2  1  0  0  0  0
  3 10  1  0  0  0  0
  4  3  1  0  0  0  0
  5 11  1  0  0  0  0
  5  4  2  0  0  0  0
  6  5  1  0  0  0  0
  7  6  2  0  0  0  0
  7  8  1  0  0  0  0
  8  9  2  0  0  0  0
  9  4  1  0  0  0  0
  9  1  1  0  0  0  0
 12  6  1  0  0  0  0
 13  7  1  0  0  0  0
 14  8  1  0  0  0  0
 15 20  1  0  0  0  0
 16 15  2  0  0  0  0
 16 17  1  0  0  0  0
 17 18  2  0  0  0  0
 18 19  1  0  0  0  0
 19 23  1  0  0  0  0
 20 19  2  0  0  0  0
 21 15  1  0  0  0  0
 22 16  1  0  0  0  0
 24 29  1  0  0  0  0
 24 25  1  0  0  0  0
 25 26  2  0  0  0  0
 26 27  1  0  0  0  0
 28 26  1  0  0  0  0
 29 28  2  0  0  0  0
 30 29  1  0  0  0  0
M  END
>  <minimizedAffinity>
-5.34682989

>  <minimizedRMSD>
3.9071188

$$$$
