
 OpenBabel03232521013D

 41 44  0  0  1  0  0  0  0  0999 V2000
   45.6440   32.8450   47.4190 C   0  0  0  0  0  0  0  0  0  0  0  0
   45.9870   32.5840   46.1330 C   0  0  0  0  0  0  0  0  0  0  0  0
   46.0440   31.2250   45.8100 C   0  0  0  0  0  0  0  0  0  0  0  0
   45.7820   30.2270   46.6920 N   0  0  0  0  0  0  0  0  0  0  0  0
   45.4360   30.5460   47.9970 C   0  0  0  0  0  0  0  0  0  0  0  0
   45.3760   31.8330   48.3250 N   0  0  0  0  0  0  0  0  0  0  0  0
   45.1680   29.5310   48.9450 N   0  0  0  0  0  0  0  0  0  0  0  0
   45.5750   33.8620   47.7730 H   0  0  0  0  0  0  0  0  0  0  0  0
   44.2760   28.9690   48.8730 H   0  0  0  0  0  0  0  0  0  0  0  0
   45.9240   29.4310   49.6660 H   0  0  0  0  0  0  0  0  0  0  0  0
   46.2060   33.5480   45.1080 C   0  0  2  0  0  0  0  0  0  0  0  0
   45.0020   34.6420   45.3950 C   0  0  0  0  0  0  0  0  0  0  0  0
   44.7420   35.5940   44.3500 C   0  0  0  0  0  0  0  0  0  0  0  0
   45.5040   35.5350   43.0980 C   0  0  1  0  0  0  0  0  0  0  0  0
   46.5530   34.5260   42.9990 C   0  0  0  0  0  0  0  0  0  0  0  0
   46.1220   33.2840   43.7440 C   0  0  0  0  0  0  0  0  0  0  0  0
   46.9910   34.2940   45.4370 H   0  0  0  0  0  0  0  0  0  0  0  0
   44.3530   34.7740   46.2520 H   0  0  0  0  0  0  0  0  0  0  0  0
   43.9780   36.3160   44.4990 H   0  0  0  0  0  0  0  0  0  0  0  0
   45.9330   36.5400   42.9030 H   0  0  0  0  0  0  0  0  0  0  0  0
   47.5090   34.8660   43.4570 H   0  0  0  0  0  0  0  0  0  0  0  0
   46.7450   34.3280   41.9040 H   0  0  0  0  0  0  0  0  0  0  0  0
   46.9490   32.6290   43.3640 H   0  0  0  0  0  0  0  0  0  0  0  0
   45.1330   32.9320   43.3820 H   0  0  0  0  0  0  0  0  0  0  0  0
   44.4490   35.2920   41.9770 C   0  0  0  0  0  0  0  0  0  0  0  0
   43.3890   34.5100   42.4000 F   0  0  0  0  0  0  0  0  0  0  0  0
   43.9160   36.5390   41.6660 F   0  0  0  0  0  0  0  0  0  0  0  0
   45.0790   34.8230   40.8390 F   0  0  0  0  0  0  0  0  0  0  0  0
   46.4350   30.5160   44.6040 C   0  0  0  0  0  0  0  0  0  0  0  0
   45.8600   29.8470   43.5720 C   0  0  0  0  0  0  0  0  0  0  0  0
   46.8730   29.3600   42.7420 C   0  0  0  0  0  0  0  0  0  0  0  0
   48.0160   29.7540   43.3060 N   0  0  0  0  0  0  0  0  0  0  0  0
   47.7820   30.4370   44.4020 N   0  0  0  0  0  0  0  0  0  0  0  0
   44.7830   29.7990   43.5550 H   0  0  0  0  0  0  0  0  0  0  0  0
   46.6370   28.7910   41.8540 H   0  0  0  0  0  0  0  0  0  0  0  0
   49.3340   29.4390   42.7330 C   0  0  0  0  0  3  0  0  0  0  0  0
   49.3510   29.9700   41.3520 C   0  0  0  0  0  2  0  0  0  0  0  0
   50.5790   30.6710   40.9000 C   0  0  0  0  0  2  0  0  0  0  0  0
   51.1310   31.5710   42.0110 C   0  0  0  0  0  2  0  0  0  0  0  0
   51.5810   30.5720   43.0660 C   0  0  0  0  0  2  0  0  0  0  0  0
   50.3890   29.9090   43.6500 C   0  0  0  0  0  2  0  0  0  0  0  0
  1  8  1  0  0  0  0
  1  6  1  0  0  0  0
  2  1  2  0  0  0  0
  3  2  1  0  0  0  0
  3  4  2  0  0  0  0
  4  5  1  0  0  0  0
  5  6  2  0  0  0  0
  5  7  1  0  0  0  0
  7 10  1  0  0  0  0
  9  7  1  0  0  0  0
 11 12  1  0  0  0  0
 11 17  1  1  0  0  0
 11  2  1  0  0  0  0
 12 18  1  0  0  0  0
 13 19  1  0  0  0  0
 13 12  2  0  0  0  0
 14 20  1  6  0  0  0
 14 13  1  0  0  0  0
 15 14  1  0  0  0  0
 15 21  1  0  0  0  0
 15 16  1  0  0  0  0
 16 11  1  0  0  0  0
 22 15  1  0  0  0  0
 23 16  1  0  0  0  0
 24 16  1  0  0  0  0
 25 26  1  0  0  0  0
 25 14  1  0  0  0  0
 27 25  1  0  0  0  0
 28 25  1  0  0  0  0
 29  3  1  0  0  0  0
 30 29  1  0  0  0  0
 31 32  1  0  0  0  0
 31 30  2  0  0  0  0
 32 33  1  0  0  0  0
 33 29  2  0  0  0  0
 34 30  1  0  0  0  0
 35 31  1  0  0  0  0
 36 32  1  0  0  0  0
 36 41  1  0  0  0  0
 37 36  1  0  0  0  0
 38 37  1  0  0  0  0
 38 39  1  0  0  0  0
 39 40  1  0  0  0  0
 40 41  1  0  0  0  0
M  END
>  <minimizedAffinity>
-5.82860756

>  <minimizedRMSD>
0.507731974

$$$$
