
 OpenBabel03232521003D

 41 44  0  0  1  0  0  0  0  0999 V2000
   45.4430   32.8850   47.3510 C   0  0  0  0  0  0  0  0  0  0  0  0
   45.9580   32.6690   46.1150 C   0  0  0  0  0  0  0  0  0  0  0  0
   46.2250   31.3280   45.8210 C   0  0  0  0  0  0  0  0  0  0  0  0
   45.9960   30.3050   46.6850 N   0  0  0  0  0  0  0  0  0  0  0  0
   45.4680   30.5790   47.9380 C   0  0  0  0  0  0  0  0  0  0  0  0
   45.2070   31.8470   48.2370 N   0  0  0  0  0  0  0  0  0  0  0  0
   45.2280   29.5380   48.8660 N   0  0  0  0  0  0  0  0  0  0  0  0
   45.2050   33.8850   47.6800 H   0  0  0  0  0  0  0  0  0  0  0  0
   44.4290   28.8660   48.7040 H   0  0  0  0  0  0  0  0  0  0  0  0
   45.9050   29.5370   49.6680 H   0  0  0  0  0  0  0  0  0  0  0  0
   46.1660   33.6520   45.1060 C   0  0  2  0  0  0  0  0  0  0  0  0
   44.9430   34.7210   45.4050 C   0  0  0  0  0  0  0  0  0  0  0  0
   44.6710   35.6850   44.3740 C   0  0  0  0  0  0  0  0  0  0  0  0
   45.4390   35.6580   43.1240 C   0  0  1  0  0  0  0  0  0  0  0  0
   46.5050   34.6680   43.0140 C   0  0  0  0  0  0  0  0  0  0  0  0
   46.0920   33.4080   43.7380 C   0  0  0  0  0  0  0  0  0  0  0  0
   46.9360   34.4060   45.4500 H   0  0  0  0  0  0  0  0  0  0  0  0
   44.2880   34.8300   46.2600 H   0  0  0  0  0  0  0  0  0  0  0  0
   43.8940   36.3920   44.5300 H   0  0  0  0  0  0  0  0  0  0  0  0
   45.8520   36.6730   42.9460 H   0  0  0  0  0  0  0  0  0  0  0  0
   47.4530   35.0170   43.4810 H   0  0  0  0  0  0  0  0  0  0  0  0
   46.7050   34.4900   41.9170 H   0  0  0  0  0  0  0  0  0  0  0  0
   46.9310   32.7730   43.3520 H   0  0  0  0  0  0  0  0  0  0  0  0
   45.1100   33.0460   43.3670 H   0  0  0  0  0  0  0  0  0  0  0  0
   44.3930   35.4150   41.9950 C   0  0  0  0  0  0  0  0  0  0  0  0
   43.3050   34.6770   42.4240 F   0  0  0  0  0  0  0  0  0  0  0  0
   43.9020   36.6680   41.6420 F   0  0  0  0  0  0  0  0  0  0  0  0
   45.0240   34.8960   40.8800 F   0  0  0  0  0  0  0  0  0  0  0  0
   46.8360   30.6750   44.6780 C   0  0  0  0  0  0  0  0  0  0  0  0
   46.5150   29.7700   43.7170 C   0  0  0  0  0  0  0  0  0  0  0  0
   47.6420   29.5550   42.9190 C   0  0  0  0  0  0  0  0  0  0  0  0
   48.5950   30.3370   43.4290 N   0  0  0  0  0  0  0  0  0  0  0  0
   48.1430   31.0050   44.4640 N   0  0  0  0  0  0  0  0  0  0  0  0
   45.5090   29.3850   43.7200 H   0  0  0  0  0  0  0  0  0  0  0  0
   47.6100   28.8650   42.0880 H   0  0  0  0  0  0  0  0  0  0  0  0
   49.9530   30.4020   42.8680 C   0  0  0  0  0  3  0  0  0  0  0  0
   50.0200   29.4190   41.7650 C   0  0  0  0  0  2  0  0  0  0  0  0
   50.7020   29.8360   40.5130 C   0  0  0  0  0  2  0  0  0  0  0  0
   50.3400   31.2800   40.1520 C   0  0  0  0  0  2  0  0  0  0  0  0
   50.9890   32.0830   41.2710 C   0  0  0  0  0  2  0  0  0  0  0  0
   50.2790   31.8040   42.5450 C   0  0  0  0  0  2  0  0  0  0  0  0
  1  8  1  0  0  0  0
  1  6  1  0  0  0  0
  2  1  2  0  0  0  0
  3  2  1  0  0  0  0
  3  4  2  0  0  0  0
  4  5  1  0  0  0  0
  5  6  2  0  0  0  0
  5  7  1  0  0  0  0
  7 10  1  0  0  0  0
  9  7  1  0  0  0  0
 11 12  1  0  0  0  0
 11 17  1  1  0  0  0
 11  2  1  0  0  0  0
 12 18  1  0  0  0  0
 13 19  1  0  0  0  0
 13 12  2  0  0  0  0
 14 20  1  6  0  0  0
 14 13  1  0  0  0  0
 15 14  1  0  0  0  0
 15 21  1  0  0  0  0
 15 16  1  0  0  0  0
 16 11  1  0  0  0  0
 22 15  1  0  0  0  0
 23 16  1  0  0  0  0
 24 16  1  0  0  0  0
 25 26  1  0  0  0  0
 25 14  1  0  0  0  0
 27 25  1  0  0  0  0
 28 25  1  0  0  0  0
 29  3  1  0  0  0  0
 30 34  1  0  0  0  0
 30 29  1  0  0  0  0
 31 32  1  0  0  0  0
 31 30  2  0  0  0  0
 32 33  1  0  0  0  0
 33 29  2  0  0  0  0
 35 31  1  0  0  0  0
 36 32  1  0  0  0  0
 37 36  1  0  0  0  0
 38 37  1  0  0  0  0
 39 38  1  0  0  0  0
 39 40  1  0  0  0  0
 40 41  1  0  0  0  0
 41 36  1  0  0  0  0
M  END
>  <minimizedAffinity>
-5.9605794

>  <minimizedRMSD>
0.624912798

$$$$
