
 OpenBabel03232520533D

 33 35  0  0  1  0  0  0  0  0999 V2000
   44.4920   33.6290   42.1350 C   0  0  2  0  0  0  0  0  0  0  0  0
   44.3340   35.1370   42.2460 C   0  0  0  0  0  0  0  0  0  0  0  0
   43.3810   35.7650   41.3710 C   0  0  0  0  0  0  0  0  0  0  0  0
   42.6050   34.9840   40.4260 C   0  0  1  0  0  0  0  0  0  0  0  0
   42.8890   33.5330   40.3510 C   0  0  0  0  0  0  0  0  0  0  0  0
   43.2140   32.9990   41.7150 C   0  0  0  0  0  0  0  0  0  0  0  0
   45.2550   33.4970   41.3110 H   0  0  0  0  0  0  0  0  0  0  0  0
   44.7740   35.9190   42.8490 H   0  0  0  0  0  0  0  0  0  0  0  0
   43.1990   36.8120   41.3740 H   0  0  0  0  0  0  0  0  0  0  0  0
   42.7350   35.4190   39.4110 H   0  0  0  0  0  0  0  0  0  0  0  0
   43.7800   33.3750   39.7180 H   0  0  0  0  0  0  0  0  0  0  0  0
   41.9930   33.0070   39.9330 H   0  0  0  0  0  0  0  0  0  0  0  0
   42.4200   33.3270   42.4200 H   0  0  0  0  0  0  0  0  0  0  0  0
   43.3310   31.9160   41.6650 H   0  0  0  0  0  0  0  0  0  0  0  0
   45.4590   33.9870   44.3610 C   0  0  0  0  0  0  0  0  0  0  0  0
   45.0970   33.1160   43.3510 C   0  0  0  0  0  0  0  0  0  0  0  0
   45.3570   31.7640   43.5740 C   0  0  0  0  0  0  0  0  0  0  0  0
   45.9320   31.3540   44.7240 N   0  0  0  0  0  0  0  0  0  0  0  0
   46.2760   32.2270   45.6930 C   0  0  0  0  0  0  0  0  0  0  0  0
   46.0350   33.5500   45.5040 N   0  0  0  0  0  0  0  0  0  0  0  0
   45.3310   35.0600   44.3510 H   0  0  0  0  0  0  0  0  0  0  0  0
   45.1000   31.0310   42.8290 H   0  0  0  0  0  0  0  0  0  0  0  0
   46.8820   31.7630   46.8940 N   0  0  0  0  0  0  0  0  0  0  0  0
   47.4880   32.5270   47.7880 N   0  0  0  0  0  0  0  0  0  0  0  0
   47.9510   31.7590   48.8120 C   0  0  0  0  0  0  0  0  0  0  0  0
   48.4900   32.0210   49.7120 H   0  0  0  0  0  0  0  0  0  0  0  0
   47.5870   30.4520   48.4900 C   0  0  0  0  0  0  0  0  0  0  0  0
   46.9170   30.4710   47.2840 C   0  0  0  0  0  0  0  0  0  0  0  0
   46.5010   29.6230   46.7530 H   0  0  0  0  0  0  0  0  0  0  0  0
   41.1170   35.1980   40.7580 C   0  0  0  0  0  0  0  0  0  0  0  0
   40.9050   35.5270   42.0720 F   0  0  0  0  0  0  0  0  0  0  0  0
   40.6780   36.2930   40.0040 F   0  0  0  0  0  0  0  0  0  0  0  0
   40.3820   34.0990   40.3530 F   0  0  0  0  0  0  0  0  0  0  0  0
  1  7  1  6  0  0  0
  1  2  1  0  0  0  0
  1 16  1  0  0  0  0
  2  8  1  0  0  0  0
  3  9  1  0  0  0  0
  3  2  2  0  0  0  0
  4 10  1  6  0  0  0
  4 30  1  0  0  0  0
  4  3  1  0  0  0  0
  5  4  1  0  0  0  0
  5  6  1  0  0  0  0
  6  1  1  0  0  0  0
  6 13  1  0  0  0  0
 11  5  1  0  0  0  0
 12  5  1  0  0  0  0
 14  6  1  0  0  0  0
 15 20  1  0  0  0  0
 16 17  1  0  0  0  0
 16 15  2  0  0  0  0
 17 18  2  0  0  0  0
 18 19  1  0  0  0  0
 19 23  1  0  0  0  0
 20 19  2  0  0  0  0
 21 15  1  0  0  0  0
 22 17  1  0  0  0  0
 23 28  1  0  0  0  0
 23 24  1  0  0  0  0
 24 25  2  0  0  0  0
 25 26  1  0  0  0  0
 27 25  1  0  0  0  0
 28 27  2  0  0  0  0
 29 28  1  0  0  0  0
 30 31  1  0  0  0  0
 32 30  1  0  0  0  0
 33 30  1  0  0  0  0
M  END
>  <minimizedAffinity>
-5.55343533

>  <minimizedRMSD>
3.74667382

$$$$
