
 OpenBabel03232521003D

 41 44  0  0  1  0  0  0  0  0999 V2000
   45.6170   32.8550   47.4090 C   0  0  0  0  0  0  0  0  0  0  0  0
   46.0050   32.5900   46.1370 C   0  0  0  0  0  0  0  0  0  0  0  0
   46.1110   31.2300   45.8300 C   0  0  0  0  0  0  0  0  0  0  0  0
   45.8510   30.2340   46.7160 N   0  0  0  0  0  0  0  0  0  0  0  0
   45.4580   30.5570   48.0070 C   0  0  0  0  0  0  0  0  0  0  0  0
   45.3510   31.8440   48.3180 N   0  0  0  0  0  0  0  0  0  0  0  0
   45.1910   29.5440   48.9570 N   0  0  0  0  0  0  0  0  0  0  0  0
   45.5090   33.8730   47.7500 H   0  0  0  0  0  0  0  0  0  0  0  0
   44.3180   28.9560   48.8650 H   0  0  0  0  0  0  0  0  0  0  0  0
   45.9280   29.4730   49.7010 H   0  0  0  0  0  0  0  0  0  0  0  0
   46.2270   33.5490   45.1080 C   0  0  2  0  0  0  0  0  0  0  0  0
   45.0060   34.6310   45.3700 C   0  0  0  0  0  0  0  0  0  0  0  0
   44.7500   35.5720   44.3150 C   0  0  0  0  0  0  0  0  0  0  0  0
   45.5300   35.5130   43.0740 C   0  0  1  0  0  0  0  0  0  0  0  0
   46.5920   34.5170   42.9970 C   0  0  0  0  0  0  0  0  0  0  0  0
   46.1660   33.2760   43.7440 C   0  0  0  0  0  0  0  0  0  0  0  0
   46.9980   34.3080   45.4420 H   0  0  0  0  0  0  0  0  0  0  0  0
   44.3440   34.7610   46.2170 H   0  0  0  0  0  0  0  0  0  0  0  0
   43.9740   36.2860   44.4480 H   0  0  0  0  0  0  0  0  0  0  0  0
   45.9490   36.5230   42.8770 H   0  0  0  0  0  0  0  0  0  0  0  0
   47.5370   34.8720   43.4650 H   0  0  0  0  0  0  0  0  0  0  0  0
   46.8020   34.3130   41.9060 H   0  0  0  0  0  0  0  0  0  0  0  0
   47.0060   32.6280   43.3810 H   0  0  0  0  0  0  0  0  0  0  0  0
   45.1860   32.9090   43.3720 H   0  0  0  0  0  0  0  0  0  0  0  0
   44.4940   35.2490   41.9400 C   0  0  0  0  0  0  0  0  0  0  0  0
   43.4540   34.4310   42.3450 F   0  0  0  0  0  0  0  0  0  0  0  0
   43.9260   36.4830   41.6360 F   0  0  0  0  0  0  0  0  0  0  0  0
   45.1490   34.8120   40.8040 F   0  0  0  0  0  0  0  0  0  0  0  0
   46.5570   30.5210   44.6450 C   0  0  0  0  0  0  0  0  0  0  0  0
   46.0330   29.9470   43.5310 C   0  0  0  0  0  0  0  0  0  0  0  0
   47.0770   29.3810   42.7940 C   0  0  0  0  0  0  0  0  0  0  0  0
   48.1850   29.6360   43.4910 N   0  0  0  0  0  0  0  0  0  0  0  0
   47.9030   30.3050   44.5830 N   0  0  0  0  0  0  0  0  0  0  0  0
   44.9660   30.0140   43.3980 H   0  0  0  0  0  0  0  0  0  0  0  0
   46.8830   28.8670   41.8620 H   0  0  0  0  0  0  0  0  0  0  0  0
   49.5190   29.1990   43.0480 C   0  0  0  0  0  3  0  0  0  0  0  0
   50.3830   30.3990   43.0150 C   0  0  0  0  0  2  0  0  0  0  0  0
   51.7630   30.2680   43.5520 C   0  0  0  0  0  2  0  0  0  0  0  0
   51.7670   29.4270   44.8330 C   0  0  0  0  0  2  0  0  0  0  0  0
   51.3780   28.0440   44.3330 C   0  0  0  0  0  2  0  0  0  0  0  0
   49.9640   28.0690   43.8830 C   0  0  0  0  0  2  0  0  0  0  0  0
  1  8  1  0  0  0  0
  1  6  1  0  0  0  0
  2  1  2  0  0  0  0
  3  2  1  0  0  0  0
  3  4  2  0  0  0  0
  4  5  1  0  0  0  0
  5  6  2  0  0  0  0
  5  7  1  0  0  0  0
  7 10  1  0  0  0  0
  9  7  1  0  0  0  0
 11 12  1  0  0  0  0
 11 17  1  1  0  0  0
 11  2  1  0  0  0  0
 12 18  1  0  0  0  0
 13 19  1  0  0  0  0
 13 12  2  0  0  0  0
 14 20  1  6  0  0  0
 14 13  1  0  0  0  0
 15 14  1  0  0  0  0
 15 21  1  0  0  0  0
 15 16  1  0  0  0  0
 16 11  1  0  0  0  0
 22 15  1  0  0  0  0
 23 16  1  0  0  0  0
 24 16  1  0  0  0  0
 25 26  1  0  0  0  0
 25 14  1  0  0  0  0
 27 25  1  0  0  0  0
 28 25  1  0  0  0  0
 29  3  1  0  0  0  0
 30 29  1  0  0  0  0
 31 32  1  0  0  0  0
 31 30  2  0  0  0  0
 32 33  1  0  0  0  0
 33 29  2  0  0  0  0
 34 30  1  0  0  0  0
 35 31  1  0  0  0  0
 36 32  1  0  0  0  0
 36 41  1  0  0  0  0
 37 36  1  0  0  0  0
 37 38  1  0  0  0  0
 38 39  1  0  0  0  0
 40 39  1  0  0  0  0
 41 40  1  0  0  0  0
M  END
>  <minimizedAffinity>
-5.72920656

>  <minimizedRMSD>
0.704923213

$$$$
