
 OpenBabel03232520253D

 35 38  0  0  0  0  0  0  0  0999 V2000
   46.7950   34.4990   41.3180 C   0  0  0  0  0  0  0  0  0  0  0  0
   48.0790   34.8520   40.9730 C   0  0  0  0  0  0  0  0  0  0  0  0
   48.3410   34.4640   39.7150 N   0  0  0  0  0  0  0  0  0  0  0  0
   47.2310   33.8630   39.2510 C   0  0  0  0  0  0  0  0  0  0  0  0
   46.9710   33.2880   38.0190 C   0  0  0  0  0  0  0  0  0  0  0  0
   45.7310   32.7350   37.8040 C   0  0  0  0  0  0  0  0  0  0  0  0
   44.7030   32.7050   38.7350 C   0  0  0  0  0  0  0  0  0  0  0  0
   45.0250   33.2960   39.9460 C   0  0  0  0  0  0  0  0  0  0  0  0
   46.2280   33.8620   40.2310 C   0  0  0  0  0  0  0  0  0  0  0  0
   49.2380   34.5970   39.1810 H   0  0  0  0  0  0  0  0  0  0  0  0
   47.7320   33.2830   37.2620 H   0  0  0  0  0  0  0  0  0  0  0  0
   45.5730   32.2940   36.8220 H   0  0  0  0  0  0  0  0  0  0  0  0
   43.7470   32.2570   38.5150 H   0  0  0  0  0  0  0  0  0  0  0  0
   44.2680   33.3100   40.7230 H   0  0  0  0  0  0  0  0  0  0  0  0
   44.7870   36.1550   44.0000 C   0  0  0  0  0  0  0  0  0  0  0  0
   45.4220   35.9320   42.7630 C   0  0  0  0  0  0  0  0  0  0  0  0
   46.1340   34.7410   42.5920 C   0  0  0  0  0  0  0  0  0  0  0  0
   46.1800   33.8520   43.6320 N   0  0  0  0  0  0  0  0  0  0  0  0
   45.5540   34.1050   44.8060 C   0  0  0  0  0  0  0  0  0  0  0  0
   44.8590   35.2480   45.0000 N   0  0  0  0  0  0  0  0  0  0  0  0
   44.2270   37.0620   44.1710 H   0  0  0  0  0  0  0  0  0  0  0  0
   45.3530   36.6650   41.9810 H   0  0  0  0  0  0  0  0  0  0  0  0
   45.6580   33.3330   45.5560 H   0  0  0  0  0  0  0  0  0  0  0  0
   49.0370   35.5590   41.8610 C   0  0  0  0  0  0  0  0  0  0  0  0
   48.5380   36.4110   42.3170 H   0  0  0  0  0  0  0  0  0  0  0  0
   49.8450   35.9600   41.2060 H   0  0  0  0  0  0  0  0  0  0  0  0
   49.5660   34.6440   42.9320 C   0  0  0  0  0  0  0  0  0  0  0  0
   48.7790   34.6020   43.7110 H   0  0  0  0  0  0  0  0  0  0  0  0
   50.4250   35.1530   43.4150 H   0  0  0  0  0  0  0  0  0  0  0  0
   49.9020   33.2930   42.4060 C   0  0  0  0  0  0  0  0  0  0  0  0
   51.2240   33.0470   42.0430 C   0  0  0  0  0  0  0  0  0  0  0  0
   51.2030   31.3210   41.4650 S   0  0  0  0  0  0  0  0  0  0  0  0
   49.3400   31.2100   41.8210 C   0  0  0  0  0  0  0  0  0  0  0  0
   48.4250   30.4220   41.7480 H   0  0  0  0  0  0  0  0  0  0  0  0
   49.1370   32.2420   42.2120 N   0  0  0  0  0  0  0  0  0  0  0  0
  1 17  1  0  0  0  0
  2  1  2  0  0  0  0
  2 24  1  0  0  0  0
  3  2  1  0  0  0  0
  4  3  1  0  0  0  0
  4  9  1  0  0  0  0
  5  4  2  0  0  0  0
  6  5  1  0  0  0  0
  6  7  2  0  0  0  0
  7  8  1  0  0  0  0
  8  9  2  0  0  0  0
  8 14  1  0  0  0  0
  9  1  1  0  0  0  0
 10  3  1  0  0  0  0
 11  5  1  0  0  0  0
 12  6  1  0  0  0  0
 13  7  1  0  0  0  0
 15 21  1  0  0  0  0
 15 20  1  0  0  0  0
 16 15  2  0  0  0  0
 17 16  1  0  0  0  0
 17 18  2  0  0  0  0
 18 19  1  0  0  0  0
 19 20  2  0  0  0  0
 19 23  1  0  0  0  0
 22 16  1  0  0  0  0
 24 25  1  0  0  0  0
 24 27  1  0  0  0  0
 26 24  1  0  0  0  0
 27 29  1  0  0  0  0
 27 28  1  0  0  0  0
 30 27  1  0  0  0  0
 31 30  2  0  0  0  0
 32 33  1  0  0  0  0
 32 31  1  0  0  0  0
 33 35  2  0  0  0  0
 34 33  1  0  0  0  0
 35 30  1  0  0  0  0
M  END
>  <minimizedAffinity>
-5.58869648

>  <minimizedRMSD>
1.13663578

$$$$
