
 OpenBabel03232520333D

 44 48  0  0  1  0  0  0  0  0999 V2000
   46.9060   34.5270   41.3360 C   0  0  0  0  0  0  0  0  0  0  0  0
   48.1800   34.9340   40.9670 C   0  0  0  0  0  0  0  0  0  0  0  0
   48.4310   34.6130   39.7110 N   0  0  0  0  0  0  0  0  0  0  0  0
   47.3370   33.9950   39.2400 C   0  0  0  0  0  0  0  0  0  0  0  0
   47.0710   33.4580   37.9820 C   0  0  0  0  0  0  0  0  0  0  0  0
   45.8570   32.8750   37.7590 C   0  0  0  0  0  0  0  0  0  0  0  0
   44.8600   32.7730   38.6880 C   0  0  0  0  0  0  0  0  0  0  0  0
   45.1660   33.3180   39.9180 C   0  0  0  0  0  0  0  0  0  0  0  0
   46.3570   33.9190   40.2200 C   0  0  0  0  0  0  0  0  0  0  0  0
   49.2930   34.7760   39.1280 H   0  0  0  0  0  0  0  0  0  0  0  0
   47.8260   33.5060   37.1930 H   0  0  0  0  0  0  0  0  0  0  0  0
   45.6930   32.4650   36.7570 H   0  0  0  0  0  0  0  0  0  0  0  0
   43.9240   32.2980   38.4450 H   0  0  0  0  0  0  0  0  0  0  0  0
   44.4130   33.2740   40.7160 H   0  0  0  0  0  0  0  0  0  0  0  0
   44.7680   35.9180   44.0610 C   0  0  0  0  0  0  0  0  0  0  0  0
   45.4040   35.7880   42.8000 C   0  0  0  0  0  0  0  0  0  0  0  0
   46.2380   34.6840   42.6250 C   0  0  0  0  0  0  0  0  0  0  0  0
   46.4120   33.7830   43.6480 N   0  0  0  0  0  0  0  0  0  0  0  0
   45.7710   33.9650   44.8360 C   0  0  0  0  0  0  0  0  0  0  0  0
   44.9540   35.0230   45.0460 N   0  0  0  0  0  0  0  0  0  0  0  0
   44.1300   36.7940   44.1460 H   0  0  0  0  0  0  0  0  0  0  0  0
   45.2400   36.5150   42.0300 H   0  0  0  0  0  0  0  0  0  0  0  0
   45.9340   33.2370   45.6120 H   0  0  0  0  0  0  0  0  0  0  0  0
   49.1110   35.6400   41.9030 C   0  0  0  0  0  0  0  0  0  0  0  0
   49.7420   36.3200   41.2990 H   0  0  0  0  0  0  0  0  0  0  0  0
   48.5500   36.2600   42.6330 H   0  0  0  0  0  0  0  0  0  0  0  0
   50.0050   34.6880   42.6260 C   0  0  0  0  0  0  0  0  0  0  0  0
   49.5680   34.5550   43.6550 H   0  0  0  0  0  0  0  0  0  0  0  0
   51.0100   35.1310   42.8220 H   0  0  0  0  0  0  0  0  0  0  0  0
   50.1990   33.3770   41.9290 C   0  0  1  0  0  0  0  0  0  0  0  0
   51.0400   32.2950   42.4330 C   0  0  0  0  0  0  0  0  0  0  0  0
   49.5740   32.1800   42.6640 C   0  0  2  0  0  0  0  0  0  0  0  0
   50.0790   33.4170   40.8320 H   0  0  0  0  0  0  0  0  0  0  0  0
   51.6460   32.4350   43.3550 H   0  0  0  0  0  0  0  0  0  0  0  0
   51.5460   31.6130   41.7160 H   0  0  0  0  0  0  0  0  0  0  0  0
   49.1840   32.3330   43.6910 H   0  0  0  0  0  0  0  0  0  0  0  0
   48.9140   31.2070   41.9440 O   0  0  0  0  0  0  0  0  0  0  0  0
   47.6840   30.7230   42.3640 C   0  0  0  0  0  0  0  0  0  0  0  0
   47.2530   30.3300   43.6130 C   0  0  0  0  0  0  0  0  0  0  0  0
   45.9290   29.9130   43.5510 C   0  0  0  0  0  0  0  0  0  0  0  0
   45.3270   29.5490   44.3840 H   0  0  0  0  0  0  0  0  0  0  0  0
   45.5800   30.0620   42.2620 N   0  0  0  0  0  0  0  0  0  0  0  0
   46.5910   30.5300   41.5700 N   0  0  0  0  0  0  0  0  0  0  0  0
   44.6150   29.8120   41.9510 H   0  0  0  0  0  0  0  0  0  0  0  0
  1 17  1  0  0  0  0
  2  1  2  0  0  0  0
  2 24  1  0  0  0  0
  3  2  1  0  0  0  0
  4  3  1  0  0  0  0
  4  9  1  0  0  0  0
  5  4  2  0  0  0  0
  6  5  1  0  0  0  0
  6  7  2  0  0  0  0
  7  8  1  0  0  0  0
  8  9  2  0  0  0  0
  8 14  1  0  0  0  0
  9  1  1  0  0  0  0
 10  3  1  0  0  0  0
 11  5  1  0  0  0  0
 12  6  1  0  0  0  0
 13  7  1  0  0  0  0
 15 21  1  0  0  0  0
 15 20  1  0  0  0  0
 16 15  2  0  0  0  0
 17 16  1  0  0  0  0
 17 18  2  0  0  0  0
 18 19  1  0  0  0  0
 19 20  2  0  0  0  0
 19 23  1  0  0  0  0
 22 16  1  0  0  0  0
 24 27  1  0  0  0  0
 24 26  1  0  0  0  0
 25 24  1  0  0  0  0
 27 29  1  0  0  0  0
 27 28  1  0  0  0  0
 30 33  1  6  0  0  0
 30 31  1  0  0  0  0
 30 27  1  0  0  0  0
 30 32  1  0  0  0  0
 31 32  1  0  0  0  0
 31 34  1  0  0  0  0
 32 36  1  1  0  0  0
 35 31  1  0  0  0  0
 37 38  1  0  0  0  0
 37 32  1  0  0  0  0
 38 39  1  0  0  0  0
 40 39  2  0  0  0  0
 40 41  1  0  0  0  0
 42 40  1  0  0  0  0
 43 42  1  0  0  0  0
 43 38  2  0  0  0  0
 44 42  1  0  0  0  0
M  END
>  <minimizedAffinity>
-5.50274086

>  <minimizedRMSD>
0.406247139

$$$$
