
 OpenBabel03232521003D

 40 43  0  0  1  0  0  0  0  0999 V2000
   45.4700   32.9290   47.5610 C   0  0  0  0  0  0  0  0  0  0  0  0
   45.9320   32.6570   46.3150 C   0  0  0  0  0  0  0  0  0  0  0  0
   46.0930   31.2920   46.0400 C   0  0  0  0  0  0  0  0  0  0  0  0
   45.8150   30.3040   46.9270 N   0  0  0  0  0  0  0  0  0  0  0  0
   45.3440   30.6340   48.1890 C   0  0  0  0  0  0  0  0  0  0  0  0
   45.1850   31.9240   48.4720 N   0  0  0  0  0  0  0  0  0  0  0  0
   45.0510   29.6300   49.1380 N   0  0  0  0  0  0  0  0  0  0  0  0
   45.3130   33.9460   47.8830 H   0  0  0  0  0  0  0  0  0  0  0  0
   44.5350   28.7830   48.7750 H   0  0  0  0  0  0  0  0  0  0  0  0
   45.2860   29.6320   50.1400 H   0  0  0  0  0  0  0  0  0  0  0  0
   46.1770   33.6040   45.2810 C   0  0  2  0  0  0  0  0  0  0  0  0
   44.9500   34.6830   45.4970 C   0  0  0  0  0  0  0  0  0  0  0  0
   44.7200   35.6040   44.4200 C   0  0  0  0  0  0  0  0  0  0  0  0
   45.5260   35.5370   43.2030 C   0  0  1  0  0  0  0  0  0  0  0  0
   46.5960   34.5430   43.1620 C   0  0  0  0  0  0  0  0  0  0  0  0
   46.1590   33.3100   43.9190 C   0  0  0  0  0  0  0  0  0  0  0  0
   46.9430   34.3630   45.6200 H   0  0  0  0  0  0  0  0  0  0  0  0
   44.2670   34.8190   46.3260 H   0  0  0  0  0  0  0  0  0  0  0  0
   43.9470   36.3170   44.5120 H   0  0  0  0  0  0  0  0  0  0  0  0
   45.9350   36.5520   42.9960 H   0  0  0  0  0  0  0  0  0  0  0  0
   46.7590   34.2860   42.0740 H   0  0  0  0  0  0  0  0  0  0  0  0
   47.6010   34.8920   43.5020 H   0  0  0  0  0  0  0  0  0  0  0  0
   47.0230   32.6690   43.6030 H   0  0  0  0  0  0  0  0  0  0  0  0
   45.2170   32.9540   43.4550 H   0  0  0  0  0  0  0  0  0  0  0  0
   44.5220   35.2490   42.0460 C   0  0  0  0  0  0  0  0  0  0  0  0
   43.4810   34.4290   42.4320 F   0  0  0  0  0  0  0  0  0  0  0  0
   43.9480   36.4720   41.7120 F   0  0  0  0  0  0  0  0  0  0  0  0
   45.2100   34.8070   40.9310 F   0  0  0  0  0  0  0  0  0  0  0  0
   46.6210   30.5790   44.8900 C   0  0  0  0  0  0  0  0  0  0  0  0
   46.1660   29.9210   43.7920 C   0  0  0  0  0  0  0  0  0  0  0  0
   47.2730   29.4120   43.0970 C   0  0  0  0  0  0  0  0  0  0  0  0
   48.3390   29.7850   43.8040 N   0  0  0  0  0  0  0  0  0  0  0  0
   47.9800   30.4730   44.8620 N   0  0  0  0  0  0  0  0  0  0  0  0
   45.0960   29.8970   43.6420 H   0  0  0  0  0  0  0  0  0  0  0  0
   47.0310   28.8650   42.1990 H   0  0  0  0  0  0  0  0  0  0  0  0
   49.6570   29.4030   43.3300 C   0  0  0  0  0  3  0  0  0  0  0  0
   50.2320   30.3730   42.3580 C   0  0  0  0  0  2  0  0  0  0  0  0
   51.6380   30.7040   42.8750 C   0  0  0  0  0  2  0  0  0  0  0  0
   51.9650   29.5040   43.7440 C   0  0  0  0  0  2  0  0  0  0  0  0
   50.6510   29.3200   44.4730 C   0  0  0  0  0  2  0  0  0  0  0  0
  1  8  1  0  0  0  0
  1  6  1  0  0  0  0
  2  1  2  0  0  0  0
  3  2  1  0  0  0  0
  3  4  2  0  0  0  0
  4  5  1  0  0  0  0
  5  6  2  0  0  0  0
  5  7  1  0  0  0  0
  7 10  1  0  0  0  0
  9  7  1  0  0  0  0
 11 12  1  0  0  0  0
 11 17  1  1  0  0  0
 11  2  1  0  0  0  0
 12 18  1  0  0  0  0
 13 19  1  0  0  0  0
 13 12  2  0  0  0  0
 14 20  1  6  0  0  0
 14 13  1  0  0  0  0
 15 14  1  0  0  0  0
 15 22  1  0  0  0  0
 15 16  1  0  0  0  0
 16 11  1  0  0  0  0
 21 15  1  0  0  0  0
 23 16  1  0  0  0  0
 24 16  1  0  0  0  0
 25 26  1  0  0  0  0
 25 14  1  0  0  0  0
 27 25  1  0  0  0  0
 28 25  1  0  0  0  0
 29  3  1  0  0  0  0
 30 29  1  0  0  0  0
 31 30  2  0  0  0  0
 31 32  1  0  0  0  0
 32 33  1  0  0  0  0
 33 29  2  0  0  0  0
 34 30  1  0  0  0  0
 35 31  1  0  0  0  0
 36 32  1  0  0  0  0
 36 40  1  0  0  0  0
 37 38  1  0  0  0  0
 37 36  1  0  0  0  0
 38 39  1  0  0  0  0
 39 40  1  0  0  0  0
M  END
>  <minimizedAffinity>
-5.87125015

>  <minimizedRMSD>
0.18094945

$$$$
