
 OpenBabel03232521013D

 40 43  0  0  1  0  0  0  0  0999 V2000
   45.3850   32.8600   47.4930 C   0  0  0  0  0  0  0  0  0  0  0  0
   45.9360   32.6210   46.2760 C   0  0  0  0  0  0  0  0  0  0  0  0
   46.2000   31.2710   46.0120 C   0  0  0  0  0  0  0  0  0  0  0  0
   45.9350   30.2640   46.8830 N   0  0  0  0  0  0  0  0  0  0  0  0
   45.3710   30.5610   48.1150 C   0  0  0  0  0  0  0  0  0  0  0  0
   45.1130   31.8360   48.3870 N   0  0  0  0  0  0  0  0  0  0  0  0
   45.0890   29.5370   49.0460 N   0  0  0  0  0  0  0  0  0  0  0  0
   45.1450   33.8640   47.8030 H   0  0  0  0  0  0  0  0  0  0  0  0
   44.6500   28.6600   48.6550 H   0  0  0  0  0  0  0  0  0  0  0  0
   45.2640   29.5520   50.0600 H   0  0  0  0  0  0  0  0  0  0  0  0
   46.1790   33.5850   45.2570 C   0  0  2  0  0  0  0  0  0  0  0  0
   44.9570   34.6640   45.4960 C   0  0  0  0  0  0  0  0  0  0  0  0
   44.7250   35.6030   44.4360 C   0  0  0  0  0  0  0  0  0  0  0  0
   45.5240   35.5550   43.2140 C   0  0  1  0  0  0  0  0  0  0  0  0
   46.5920   34.5580   43.1520 C   0  0  0  0  0  0  0  0  0  0  0  0
   46.1540   33.3140   43.8900 C   0  0  0  0  0  0  0  0  0  0  0  0
   46.9490   34.3360   45.6040 H   0  0  0  0  0  0  0  0  0  0  0  0
   44.2780   34.7880   46.3310 H   0  0  0  0  0  0  0  0  0  0  0  0
   43.9540   36.3170   44.5430 H   0  0  0  0  0  0  0  0  0  0  0  0
   45.9360   36.5710   43.0220 H   0  0  0  0  0  0  0  0  0  0  0  0
   46.7490   34.3190   42.0590 H   0  0  0  0  0  0  0  0  0  0  0  0
   47.5990   34.8980   43.4920 H   0  0  0  0  0  0  0  0  0  0  0  0
   47.0140   32.6750   43.5590 H   0  0  0  0  0  0  0  0  0  0  0  0
   45.2080   32.9680   43.4240 H   0  0  0  0  0  0  0  0  0  0  0  0
   44.5140   35.2890   42.0570 C   0  0  0  0  0  0  0  0  0  0  0  0
   43.4550   34.4930   42.4440 F   0  0  0  0  0  0  0  0  0  0  0  0
   43.9690   36.5250   41.7230 F   0  0  0  0  0  0  0  0  0  0  0  0
   45.1920   34.8310   40.9420 F   0  0  0  0  0  0  0  0  0  0  0  0
   46.8380   30.5950   44.8960 C   0  0  0  0  0  0  0  0  0  0  0  0
   46.4950   29.8380   43.8220 C   0  0  0  0  0  0  0  0  0  0  0  0
   47.6720   29.4650   43.1560 C   0  0  0  0  0  0  0  0  0  0  0  0
   48.6650   30.0120   43.8560 N   0  0  0  0  0  0  0  0  0  0  0  0
   48.1990   30.6820   44.8830 N   0  0  0  0  0  0  0  0  0  0  0  0
   45.4410   29.6570   43.6640 H   0  0  0  0  0  0  0  0  0  0  0  0
   47.5210   28.8540   42.2790 H   0  0  0  0  0  0  0  0  0  0  0  0
   50.0300   29.8020   43.4070 C   0  0  0  0  0  3  0  0  0  0  0  0
   50.1650   28.6560   42.4660 C   0  0  0  0  0  2  0  0  0  0  0  0
   50.9360   29.1970   41.2550 C   0  0  0  0  0  2  0  0  0  0  0  0
   51.6600   30.3990   41.8280 C   0  0  0  0  0  2  0  0  0  0  0  0
   50.5590   31.0150   42.6650 C   0  0  0  0  0  2  0  0  0  0  0  0
  1  8  1  0  0  0  0
  1  6  1  0  0  0  0
  2  1  2  0  0  0  0
  3  2  1  0  0  0  0
  3  4  2  0  0  0  0
  4  5  1  0  0  0  0
  5  6  2  0  0  0  0
  5  7  1  0  0  0  0
  7 10  1  0  0  0  0
  9  7  1  0  0  0  0
 11 12  1  0  0  0  0
 11 17  1  1  0  0  0
 11  2  1  0  0  0  0
 12 18  1  0  0  0  0
 13 19  1  0  0  0  0
 13 12  2  0  0  0  0
 14 20  1  6  0  0  0
 14 13  1  0  0  0  0
 15 14  1  0  0  0  0
 15 22  1  0  0  0  0
 15 16  1  0  0  0  0
 16 11  1  0  0  0  0
 21 15  1  0  0  0  0
 23 16  1  0  0  0  0
 24 16  1  0  0  0  0
 25 26  1  0  0  0  0
 25 14  1  0  0  0  0
 27 25  1  0  0  0  0
 28 25  1  0  0  0  0
 29  3  1  0  0  0  0
 30 29  1  0  0  0  0
 31 30  2  0  0  0  0
 31 32  1  0  0  0  0
 32 33  1  0  0  0  0
 33 29  2  0  0  0  0
 34 30  1  0  0  0  0
 35 31  1  0  0  0  0
 36 32  1  0  0  0  0
 37 36  1  0  0  0  0
 38 39  1  0  0  0  0
 38 37  1  0  0  0  0
 39 40  1  0  0  0  0
 40 36  1  0  0  0  0
M  END
>  <minimizedAffinity>
-5.73274612

>  <minimizedRMSD>
0.136599511

$$$$
