
 OpenBabel03232521003D

 40 43  0  0  1  0  0  0  0  0999 V2000
   45.3770   32.8610   47.4870 C   0  0  0  0  0  0  0  0  0  0  0  0
   45.9330   32.6220   46.2730 C   0  0  0  0  0  0  0  0  0  0  0  0
   46.2040   31.2720   46.0140 C   0  0  0  0  0  0  0  0  0  0  0  0
   45.9400   30.2660   46.8850 N   0  0  0  0  0  0  0  0  0  0  0  0
   45.3700   30.5630   48.1150 C   0  0  0  0  0  0  0  0  0  0  0  0
   45.1060   31.8380   48.3830 N   0  0  0  0  0  0  0  0  0  0  0  0
   45.0890   29.5400   49.0470 N   0  0  0  0  0  0  0  0  0  0  0  0
   45.1320   33.8640   47.7950 H   0  0  0  0  0  0  0  0  0  0  0  0
   44.6550   28.6600   48.6570 H   0  0  0  0  0  0  0  0  0  0  0  0
   45.2600   29.5580   50.0620 H   0  0  0  0  0  0  0  0  0  0  0  0
   46.1760   33.5840   45.2530 C   0  0  2  0  0  0  0  0  0  0  0  0
   44.9590   34.6680   45.4960 C   0  0  0  0  0  0  0  0  0  0  0  0
   44.7270   35.6070   44.4370 C   0  0  0  0  0  0  0  0  0  0  0  0
   45.5220   35.5550   43.2120 C   0  0  1  0  0  0  0  0  0  0  0  0
   46.5850   34.5550   43.1460 C   0  0  0  0  0  0  0  0  0  0  0  0
   46.1450   33.3130   43.8870 C   0  0  0  0  0  0  0  0  0  0  0  0
   46.9500   34.3320   45.5970 H   0  0  0  0  0  0  0  0  0  0  0  0
   44.2840   34.7950   46.3340 H   0  0  0  0  0  0  0  0  0  0  0  0
   43.9590   36.3240   44.5460 H   0  0  0  0  0  0  0  0  0  0  0  0
   45.9360   36.5710   43.0180 H   0  0  0  0  0  0  0  0  0  0  0  0
   46.7370   34.3150   42.0530 H   0  0  0  0  0  0  0  0  0  0  0  0
   47.5950   34.8920   43.4830 H   0  0  0  0  0  0  0  0  0  0  0  0
   47.0020   32.6710   43.5530 H   0  0  0  0  0  0  0  0  0  0  0  0
   45.1970   32.9700   43.4240 H   0  0  0  0  0  0  0  0  0  0  0  0
   44.5070   35.2930   42.0590 C   0  0  0  0  0  0  0  0  0  0  0  0
   43.4440   34.5030   42.4500 F   0  0  0  0  0  0  0  0  0  0  0  0
   43.9660   36.5310   41.7240 F   0  0  0  0  0  0  0  0  0  0  0  0
   45.1780   34.8300   40.9420 F   0  0  0  0  0  0  0  0  0  0  0  0
   46.8500   30.5960   44.9010 C   0  0  0  0  0  0  0  0  0  0  0  0
   46.5140   29.8310   43.8300 C   0  0  0  0  0  0  0  0  0  0  0  0
   47.6950   29.4650   43.1680 C   0  0  0  0  0  0  0  0  0  0  0  0
   48.6830   30.0240   43.8660 N   0  0  0  0  0  0  0  0  0  0  0  0
   48.2100   30.6940   44.8890 N   0  0  0  0  0  0  0  0  0  0  0  0
   45.4620   29.6410   43.6720 H   0  0  0  0  0  0  0  0  0  0  0  0
   47.5510   28.8490   42.2930 H   0  0  0  0  0  0  0  0  0  0  0  0
   50.0500   29.8230   43.4210 C   0  0  0  0  0  3  0  0  0  0  0  0
   50.9300   29.2530   44.4770 C   0  0  0  0  0  2  0  0  0  0  0  0
   51.6270   28.0460   43.8370 C   0  0  0  0  0  2  0  0  0  0  0  0
   51.5400   28.3570   42.3550 C   0  0  0  0  0  2  0  0  0  0  0  0
   50.1130   28.8520   42.2570 C   0  0  0  0  0  2  0  0  0  0  0  0
  1  8  1  0  0  0  0
  1  6  1  0  0  0  0
  2  1  2  0  0  0  0
  3  2  1  0  0  0  0
  3  4  2  0  0  0  0
  4  5  1  0  0  0  0
  5  6  2  0  0  0  0
  5  7  1  0  0  0  0
  7 10  1  0  0  0  0
  9  7  1  0  0  0  0
 11 12  1  0  0  0  0
 11 17  1  1  0  0  0
 11  2  1  0  0  0  0
 12 18  1  0  0  0  0
 13 19  1  0  0  0  0
 13 12  2  0  0  0  0
 14 20  1  6  0  0  0
 14 13  1  0  0  0  0
 15 14  1  0  0  0  0
 15 22  1  0  0  0  0
 15 16  1  0  0  0  0
 16 11  1  0  0  0  0
 21 15  1  0  0  0  0
 23 16  1  0  0  0  0
 24 16  1  0  0  0  0
 25 26  1  0  0  0  0
 25 14  1  0  0  0  0
 27 25  1  0  0  0  0
 28 25  1  0  0  0  0
 29  3  1  0  0  0  0
 30 29  1  0  0  0  0
 31 30  2  0  0  0  0
 31 32  1  0  0  0  0
 32 33  1  0  0  0  0
 33 29  2  0  0  0  0
 34 30  1  0  0  0  0
 35 31  1  0  0  0  0
 36 32  1  0  0  0  0
 36 37  1  0  0  0  0
 38 37  1  0  0  0  0
 39 38  1  0  0  0  0
 40 39  1  0  0  0  0
 40 36  1  0  0  0  0
M  END
>  <minimizedAffinity>
-5.61543989

>  <minimizedRMSD>
0.474103868

$$$$
