
 OpenBabel03232521013D

 40 43  0  0  1  0  0  0  0  0999 V2000
   45.3750   32.8600   47.4870 C   0  0  0  0  0  0  0  0  0  0  0  0
   45.9320   32.6200   46.2730 C   0  0  0  0  0  0  0  0  0  0  0  0
   46.2030   31.2690   46.0160 C   0  0  0  0  0  0  0  0  0  0  0  0
   45.9390   30.2650   46.8890 N   0  0  0  0  0  0  0  0  0  0  0  0
   45.3680   30.5630   48.1180 C   0  0  0  0  0  0  0  0  0  0  0  0
   45.1040   31.8390   48.3840 N   0  0  0  0  0  0  0  0  0  0  0  0
   45.0860   29.5410   49.0510 N   0  0  0  0  0  0  0  0  0  0  0  0
   45.1300   33.8640   47.7930 H   0  0  0  0  0  0  0  0  0  0  0  0
   44.6530   28.6610   48.6620 H   0  0  0  0  0  0  0  0  0  0  0  0
   45.2580   29.5610   50.0660 H   0  0  0  0  0  0  0  0  0  0  0  0
   46.1750   33.5810   45.2520 C   0  0  2  0  0  0  0  0  0  0  0  0
   44.9600   34.6670   45.4960 C   0  0  0  0  0  0  0  0  0  0  0  0
   44.7280   35.6060   44.4360 C   0  0  0  0  0  0  0  0  0  0  0  0
   45.5220   35.5520   43.2100 C   0  0  1  0  0  0  0  0  0  0  0  0
   46.5830   34.5490   43.1440 C   0  0  0  0  0  0  0  0  0  0  0  0
   46.1420   33.3080   43.8860 C   0  0  0  0  0  0  0  0  0  0  0  0
   46.9510   34.3280   45.5950 H   0  0  0  0  0  0  0  0  0  0  0  0
   44.2860   34.7960   46.3340 H   0  0  0  0  0  0  0  0  0  0  0  0
   43.9620   36.3240   44.5460 H   0  0  0  0  0  0  0  0  0  0  0  0
   45.9380   36.5660   43.0150 H   0  0  0  0  0  0  0  0  0  0  0  0
   46.7340   34.3080   42.0500 H   0  0  0  0  0  0  0  0  0  0  0  0
   47.5940   34.8840   43.4790 H   0  0  0  0  0  0  0  0  0  0  0  0
   46.9970   32.6650   43.5520 H   0  0  0  0  0  0  0  0  0  0  0  0
   45.1920   32.9670   43.4250 H   0  0  0  0  0  0  0  0  0  0  0  0
   44.5040   35.2900   42.0580 C   0  0  0  0  0  0  0  0  0  0  0  0
   43.4460   34.4950   42.4490 F   0  0  0  0  0  0  0  0  0  0  0  0
   43.9590   36.5270   41.7300 F   0  0  0  0  0  0  0  0  0  0  0  0
   45.1750   34.8330   40.9390 F   0  0  0  0  0  0  0  0  0  0  0  0
   46.8490   30.5930   44.9050 C   0  0  0  0  0  0  0  0  0  0  0  0
   46.5150   29.8210   43.8380 C   0  0  0  0  0  0  0  0  0  0  0  0
   47.6950   29.4580   43.1730 C   0  0  0  0  0  0  0  0  0  0  0  0
   48.6830   30.0250   43.8670 N   0  0  0  0  0  0  0  0  0  0  0  0
   48.2090   30.6980   44.8880 N   0  0  0  0  0  0  0  0  0  0  0  0
   45.4630   29.6240   43.6830 H   0  0  0  0  0  0  0  0  0  0  0  0
   47.5520   28.8380   42.3020 H   0  0  0  0  0  0  0  0  0  0  0  0
   50.0500   29.8300   43.4180 C   0  0  0  0  0  3  0  0  0  0  0  0
   50.9310   29.2500   44.4690 C   0  0  0  0  0  2  0  0  0  0  0  0
   51.6280   28.0510   43.8170 C   0  0  0  0  0  2  0  0  0  0  0  0
   51.5400   28.3740   42.3370 C   0  0  0  0  0  2  0  0  0  0  0  0
   50.1130   28.8690   42.2460 C   0  0  0  0  0  2  0  0  0  0  0  0
  1  8  1  0  0  0  0
  1  6  1  0  0  0  0
  2  1  2  0  0  0  0
  3  2  1  0  0  0  0
  3  4  2  0  0  0  0
  4  5  1  0  0  0  0
  5  6  2  0  0  0  0
  5  7  1  0  0  0  0
  7 10  1  0  0  0  0
  9  7  1  0  0  0  0
 11 12  1  0  0  0  0
 11 17  1  1  0  0  0
 11  2  1  0  0  0  0
 12 18  1  0  0  0  0
 13 19  1  0  0  0  0
 13 12  2  0  0  0  0
 14 20  1  6  0  0  0
 14 13  1  0  0  0  0
 15 14  1  0  0  0  0
 15 22  1  0  0  0  0
 15 16  1  0  0  0  0
 16 11  1  0  0  0  0
 21 15  1  0  0  0  0
 23 16  1  0  0  0  0
 24 16  1  0  0  0  0
 25 26  1  0  0  0  0
 25 14  1  0  0  0  0
 27 25  1  0  0  0  0
 28 25  1  0  0  0  0
 29  3  1  0  0  0  0
 30 29  1  0  0  0  0
 31 30  2  0  0  0  0
 31 32  1  0  0  0  0
 32 33  1  0  0  0  0
 33 29  2  0  0  0  0
 34 30  1  0  0  0  0
 35 31  1  0  0  0  0
 36 32  1  0  0  0  0
 36 37  1  0  0  0  0
 38 37  1  0  0  0  0
 39 38  1  0  0  0  0
 40 39  1  0  0  0  0
 40 36  1  0  0  0  0
M  END
>  <minimizedAffinity>
-5.61835766

>  <minimizedRMSD>
0.211541802

$$$$
