
 OpenBabel03232517543D

 27 30  0  0  0  0  0  0  0  0999 V2000
   46.5960   32.6710   42.6430 N   0  0  0  0  0  0  0  0  0  0  0  0
   47.4620   32.2080   41.7200 C   0  0  0  0  0  0  0  0  0  0  0  0
   48.2190   31.2670   42.2860 N   0  0  0  0  0  0  0  0  0  0  0  0
   47.8440   31.1230   43.5700 C   0  0  0  0  0  0  0  0  0  0  0  0
   48.2500   30.3230   44.6320 C   0  0  0  0  0  0  0  0  0  0  0  0
   47.6190   30.4650   45.8040 N   0  0  0  0  0  0  0  0  0  0  0  0
   46.6090   31.3330   46.0410 C   0  0  0  0  0  0  0  0  0  0  0  0
   46.2030   32.1200   45.0120 N   0  0  0  0  0  0  0  0  0  0  0  0
   46.8200   32.0070   43.8010 C   0  0  0  0  0  0  0  0  0  0  0  0
   47.5290   32.5520   40.6760 H   0  0  0  0  0  0  0  0  0  0  0  0
   49.0560   29.6130   44.4890 H   0  0  0  0  0  0  0  0  0  0  0  0
   46.0320   31.3750   47.3420 N   0  0  0  0  0  0  0  0  0  0  0  0
   45.7380   32.2730   48.2900 C   0  0  0  0  0  0  0  0  0  0  0  0
   45.1740   31.6220   49.3330 N   0  0  0  0  0  0  0  0  0  0  0  0
   45.1150   30.3220   49.0390 C   0  0  0  0  0  0  0  0  0  0  0  0
   45.6450   30.1810   47.8100 N   0  0  0  0  0  0  0  0  0  0  0  0
   44.9040   35.9390   42.8970 C   0  0  0  0  0  0  0  0  0  0  0  0
   45.8930   34.9430   43.0480 C   0  0  0  0  0  0  0  0  0  0  0  0
   45.5930   33.6800   42.4900 C   0  0  0  0  0  0  0  0  0  0  0  0
   44.4010   33.4820   41.8500 N   0  0  0  0  0  0  0  0  0  0  0  0
   43.5060   34.4740   41.7420 C   0  0  0  0  0  0  0  0  0  0  0  0
   43.7390   35.6900   42.2520 N   0  0  0  0  0  0  0  0  0  0  0  0
   45.0380   37.2480   43.3820 N   0  0  0  0  0  0  0  0  0  0  0  0
   46.7900   35.1900   43.5620 H   0  0  0  0  0  0  0  0  0  0  0  0
   42.6180   34.1660   41.2130 H   0  0  0  0  0  0  0  0  0  0  0  0
   45.8620   37.8990   43.3400 H   0  0  0  0  0  0  0  0  0  0  0  0
   44.2510   37.7330   43.8750 H   0  0  0  0  0  0  0  0  0  0  0  0
  1  9  1  0  0  0  0
  2  3  2  0  0  0  0
  2  1  1  0  0  0  0
  3  4  1  0  0  0  0
  4  9  2  0  0  0  0
  4  5  1  0  0  0  0
  5  6  2  0  0  0  0
  6  7  1  0  0  0  0
  7 12  1  0  0  0  0
  8  7  2  0  0  0  0
  9  8  1  0  0  0  0
 10  2  1  0  0  0  0
 11  5  1  0  0  0  0
 12 16  1  0  0  0  0
 12 13  1  0  0  0  0
 13 14  2  0  0  0  0
 15 14  1  0  0  0  0
 16 15  2  0  0  0  0
 17 18  1  0  0  0  0
 17 23  1  0  0  0  0
 18 24  1  0  0  0  0
 19  1  1  0  0  0  0
 19 18  2  0  0  0  0
 20 19  1  0  0  0  0
 21 20  2  0  0  0  0
 21 22  1  0  0  0  0
 22 17  2  0  0  0  0
 23 27  1  0  0  0  0
 25 21  1  0  0  0  0
 26 23  1  0  0  0  0
M  END
>  <minimizedAffinity>
-5.19752741

>  <minimizedRMSD>
5.68994761

$$$$
