
 OpenBabel03232519133D

 30 32  0  0  1  0  0  0  0  0999 V2000
   45.5630   34.4240   43.8140 C   0  0  0  0  0  0  0  0  0  0  0  0
   46.6270   34.1270   42.9360 C   0  0  0  0  0  0  0  0  0  0  0  0
   47.6160   33.2050   43.3320 C   0  0  0  0  0  0  0  0  0  0  0  0
   47.4810   32.6440   44.5690 N   0  0  0  0  0  0  0  0  0  0  0  0
   46.4670   32.9500   45.3660 C   0  0  0  0  0  0  0  0  0  0  0  0
   45.4920   33.8310   45.0230 N   0  0  0  0  0  0  0  0  0  0  0  0
   46.6990   34.5910   41.9690 H   0  0  0  0  0  0  0  0  0  0  0  0
   48.4350   32.9570   42.6920 H   0  0  0  0  0  0  0  0  0  0  0  0
   46.3440   32.3540   46.7170 C   0  0  0  0  0  0  0  0  0  0  0  0
   47.3620   31.5000   47.1580 C   0  0  0  0  0  0  0  0  0  0  0  0
   46.7520   31.0790   48.8750 S   0  0  0  0  0  0  0  0  0  0  0  0
   45.2310   32.1570   48.6280 C   0  0  0  0  0  0  0  0  0  0  0  0
   45.3920   32.5370   47.6060 N   0  0  0  0  0  0  0  0  0  0  0  0
   48.2840   31.0930   46.7830 H   0  0  0  0  0  0  0  0  0  0  0  0
   44.1850   32.5470   49.2070 H   0  0  0  0  0  0  0  0  0  0  0  0
   44.5370   35.3880   43.3880 C   0  0  1  0  0  0  0  0  0  0  0  0
   43.5560   35.0940   43.8070 H   0  0  0  0  0  0  0  0  0  0  0  0
   44.8330   36.7670   43.9590 C   0  0  0  0  0  0  0  0  0  0  0  0
   43.9090   37.3730   43.8480 H   0  0  0  0  0  0  0  0  0  0  0  0
   44.9640   36.6210   45.0600 H   0  0  0  0  0  0  0  0  0  0  0  0
   45.7230   37.2140   43.5110 H   0  0  0  0  0  0  0  0  0  0  0  0
   44.4360   35.4990   41.8980 C   0  0  0  0  0  0  0  0  0  0  0  0
   45.1310   34.7340   41.4590 H   0  0  0  0  0  0  0  0  0  0  0  0
   44.9110   36.4840   41.6360 H   0  0  0  0  0  0  0  0  0  0  0  0
   43.0710   35.3820   41.3860 C   0  0  0  0  0  0  0  0  0  0  0  0
   42.6590   35.1570   40.0840 C   0  0  0  0  0  0  0  0  0  0  0  0
   41.2720   35.1170   40.0400 C   0  0  0  0  0  0  0  0  0  0  0  0
   40.8980   35.3260   41.3640 C   0  0  0  0  0  0  0  0  0  0  0  0
   39.8550   35.3490   41.6540 H   0  0  0  0  0  0  0  0  0  0  0  0
   41.9610   35.4730   42.0930 O   0  0  0  0  0  0  0  0  0  0  0  0
  1  6  1  0  0  0  0
  2  3  1  0  0  0  0
  2  1  2  0  0  0  0
  3  4  2  0  0  0  0
  4  5  1  0  0  0  0
  5  9  1  0  0  0  0
  6  5  2  0  0  0  0
  7  2  1  0  0  0  0
  8  3  1  0  0  0  0
  9 10  2  0  0  0  0
  9 13  1  0  0  0  0
 10 11  1  0  0  0  0
 12 11  1  0  0  0  0
 12 15  1  0  0  0  0
 13 12  2  0  0  0  0
 14 10  1  0  0  0  0
 16 17  1  1  0  0  0
 16  1  1  0  0  0  0
 16 18  1  0  0  0  0
 18 20  1  0  0  0  0
 19 18  1  0  0  0  0
 21 18  1  0  0  0  0
 22 16  1  0  0  0  0
 23 22  1  0  0  0  0
 24 22  1  0  0  0  0
 25 22  1  0  0  0  0
 25 30  1  0  0  0  0
 26 25  2  0  0  0  0
 27 26  1  0  0  0  0
 27 28  2  0  0  0  0
 28 29  1  0  0  0  0
 28 30  1  0  0  0  0
M  END
>  <minimizedAffinity>
-5.01267147

>  <minimizedRMSD>
1.49179363

$$$$
