
 OpenBabel03232521013D

 40 43  0  0  1  0  0  0  0  0999 V2000
   45.3850   32.8620   47.4930 C   0  0  0  0  0  0  0  0  0  0  0  0
   45.9350   32.6230   46.2770 C   0  0  0  0  0  0  0  0  0  0  0  0
   46.2000   31.2720   46.0140 C   0  0  0  0  0  0  0  0  0  0  0  0
   45.9350   30.2660   46.8850 N   0  0  0  0  0  0  0  0  0  0  0  0
   45.3710   30.5630   48.1170 C   0  0  0  0  0  0  0  0  0  0  0  0
   45.1130   31.8390   48.3880 N   0  0  0  0  0  0  0  0  0  0  0  0
   45.0890   29.5400   49.0490 N   0  0  0  0  0  0  0  0  0  0  0  0
   45.1450   33.8660   47.8040 H   0  0  0  0  0  0  0  0  0  0  0  0
   44.6510   28.6620   48.6580 H   0  0  0  0  0  0  0  0  0  0  0  0
   45.2650   29.5550   50.0630 H   0  0  0  0  0  0  0  0  0  0  0  0
   46.1780   33.5860   45.2570 C   0  0  2  0  0  0  0  0  0  0  0  0
   44.9560   34.6650   45.4960 C   0  0  0  0  0  0  0  0  0  0  0  0
   44.7240   35.6040   44.4350 C   0  0  0  0  0  0  0  0  0  0  0  0
   45.5240   35.5550   43.2140 C   0  0  1  0  0  0  0  0  0  0  0  0
   46.5910   34.5580   43.1520 C   0  0  0  0  0  0  0  0  0  0  0  0
   46.1530   33.3140   43.8910 C   0  0  0  0  0  0  0  0  0  0  0  0
   46.9480   34.3370   45.6040 H   0  0  0  0  0  0  0  0  0  0  0  0
   44.2780   34.7900   46.3310 H   0  0  0  0  0  0  0  0  0  0  0  0
   43.9540   36.3180   44.5420 H   0  0  0  0  0  0  0  0  0  0  0  0
   45.9350   36.5710   43.0210 H   0  0  0  0  0  0  0  0  0  0  0  0
   46.7480   34.3180   42.0590 H   0  0  0  0  0  0  0  0  0  0  0  0
   47.5980   34.8990   43.4920 H   0  0  0  0  0  0  0  0  0  0  0  0
   47.0130   32.6760   43.5600 H   0  0  0  0  0  0  0  0  0  0  0  0
   45.2080   32.9690   43.4250 H   0  0  0  0  0  0  0  0  0  0  0  0
   44.5140   35.2880   42.0570 C   0  0  0  0  0  0  0  0  0  0  0  0
   43.4550   34.4900   42.4430 F   0  0  0  0  0  0  0  0  0  0  0  0
   43.9660   36.5240   41.7230 F   0  0  0  0  0  0  0  0  0  0  0  0
   45.1920   34.8320   40.9410 F   0  0  0  0  0  0  0  0  0  0  0  0
   46.8380   30.5960   44.8980 C   0  0  0  0  0  0  0  0  0  0  0  0
   46.4950   29.8380   43.8240 C   0  0  0  0  0  0  0  0  0  0  0  0
   47.6720   29.4650   43.1590 C   0  0  0  0  0  0  0  0  0  0  0  0
   48.6660   30.0130   43.8580 N   0  0  0  0  0  0  0  0  0  0  0  0
   48.1990   30.6830   44.8850 N   0  0  0  0  0  0  0  0  0  0  0  0
   45.4410   29.6570   43.6670 H   0  0  0  0  0  0  0  0  0  0  0  0
   47.5220   28.8540   42.2820 H   0  0  0  0  0  0  0  0  0  0  0  0
   50.0310   29.8030   43.4100 C   0  0  0  0  0  3  0  0  0  0  0  0
   50.1670   28.6560   42.4700 C   0  0  0  0  0  2  0  0  0  0  0  0
   50.9360   29.1940   41.2580 C   0  0  0  0  0  2  0  0  0  0  0  0
   51.6590   30.3990   41.8290 C   0  0  0  0  0  2  0  0  0  0  0  0
   50.5590   31.0140   42.6650 C   0  0  0  0  0  2  0  0  0  0  0  0
  1  8  1  0  0  0  0
  1  6  1  0  0  0  0
  2  1  2  0  0  0  0
  3  2  1  0  0  0  0
  3  4  2  0  0  0  0
  4  5  1  0  0  0  0
  5  6  2  0  0  0  0
  5  7  1  0  0  0  0
  7 10  1  0  0  0  0
  9  7  1  0  0  0  0
 11 12  1  0  0  0  0
 11 17  1  1  0  0  0
 11  2  1  0  0  0  0
 12 18  1  0  0  0  0
 13 19  1  0  0  0  0
 13 12  2  0  0  0  0
 14 20  1  6  0  0  0
 14 13  1  0  0  0  0
 15 14  1  0  0  0  0
 15 22  1  0  0  0  0
 15 16  1  0  0  0  0
 16 11  1  0  0  0  0
 21 15  1  0  0  0  0
 23 16  1  0  0  0  0
 24 16  1  0  0  0  0
 25 26  1  0  0  0  0
 25 14  1  0  0  0  0
 27 25  1  0  0  0  0
 28 25  1  0  0  0  0
 29  3  1  0  0  0  0
 30 29  1  0  0  0  0
 31 30  2  0  0  0  0
 31 32  1  0  0  0  0
 32 33  1  0  0  0  0
 33 29  2  0  0  0  0
 34 30  1  0  0  0  0
 35 31  1  0  0  0  0
 36 32  1  0  0  0  0
 37 36  1  0  0  0  0
 38 39  1  0  0  0  0
 38 37  1  0  0  0  0
 39 40  1  0  0  0  0
 40 36  1  0  0  0  0
M  END
>  <minimizedAffinity>
-5.73501921

>  <minimizedRMSD>
0.49419564

$$$$
