
 OpenBabel03232521013D

 40 43  0  0  1  0  0  0  0  0999 V2000
   45.3350   32.9070   47.5090 C   0  0  0  0  0  0  0  0  0  0  0  0
   45.9150   32.6530   46.3090 C   0  0  0  0  0  0  0  0  0  0  0  0
   46.2070   31.3020   46.0790 C   0  0  0  0  0  0  0  0  0  0  0  0
   45.9400   30.3090   46.9650 N   0  0  0  0  0  0  0  0  0  0  0  0
   45.3450   30.6210   48.1790 C   0  0  0  0  0  0  0  0  0  0  0  0
   45.0610   31.8970   48.4190 N   0  0  0  0  0  0  0  0  0  0  0  0
   45.0600   29.6120   49.1250 N   0  0  0  0  0  0  0  0  0  0  0  0
   45.0720   33.9130   47.7940 H   0  0  0  0  0  0  0  0  0  0  0  0
   44.6450   28.7200   48.7430 H   0  0  0  0  0  0  0  0  0  0  0  0
   45.2140   29.6510   50.1420 H   0  0  0  0  0  0  0  0  0  0  0  0
   46.1630   33.6000   45.2760 C   0  0  2  0  0  0  0  0  0  0  0  0
   44.9500   34.6920   45.5020 C   0  0  0  0  0  0  0  0  0  0  0  0
   44.7240   35.6180   44.4290 C   0  0  0  0  0  0  0  0  0  0  0  0
   45.5200   35.5450   43.2060 C   0  0  1  0  0  0  0  0  0  0  0  0
   46.5790   34.5390   43.1560 C   0  0  0  0  0  0  0  0  0  0  0  0
   46.1330   33.3100   43.9140 C   0  0  0  0  0  0  0  0  0  0  0  0
   46.9400   34.3490   45.6110 H   0  0  0  0  0  0  0  0  0  0  0  0
   44.2750   34.8340   46.3360 H   0  0  0  0  0  0  0  0  0  0  0  0
   43.9600   36.3390   44.5270 H   0  0  0  0  0  0  0  0  0  0  0  0
   45.9400   36.5550   42.9980 H   0  0  0  0  0  0  0  0  0  0  0  0
   46.7320   34.2830   42.0660 H   0  0  0  0  0  0  0  0  0  0  0  0
   47.5900   34.8760   43.4900 H   0  0  0  0  0  0  0  0  0  0  0  0
   46.9870   32.6590   43.5900 H   0  0  0  0  0  0  0  0  0  0  0  0
   45.1840   32.9650   43.4540 H   0  0  0  0  0  0  0  0  0  0  0  0
   44.5060   35.2710   42.0550 C   0  0  0  0  0  0  0  0  0  0  0  0
   43.4550   34.4670   42.4480 F   0  0  0  0  0  0  0  0  0  0  0  0
   43.9490   36.5020   41.7230 F   0  0  0  0  0  0  0  0  0  0  0  0
   45.1810   34.8170   40.9370 F   0  0  0  0  0  0  0  0  0  0  0  0
   46.8800   30.6150   44.9910 C   0  0  0  0  0  0  0  0  0  0  0  0
   46.5700   29.8580   43.9070 C   0  0  0  0  0  0  0  0  0  0  0  0
   47.7670   29.4690   43.2880 C   0  0  0  0  0  0  0  0  0  0  0  0
   48.7390   30.0060   44.0250 N   0  0  0  0  0  0  0  0  0  0  0  0
   48.2410   30.6850   45.0310 N   0  0  0  0  0  0  0  0  0  0  0  0
   45.5200   29.6900   43.7080 H   0  0  0  0  0  0  0  0  0  0  0  0
   47.6430   28.8570   42.4080 H   0  0  0  0  0  0  0  0  0  0  0  0
   50.1180   29.7780   43.6310 C   0  0  0  0  0  3  0  0  0  0  0  0
   50.5870   28.3950   43.9240 C   0  0  0  0  0  2  0  0  0  0  0  0
   51.2020   27.8760   42.6190 C   0  0  0  0  0  2  0  0  0  0  0  0
   51.5500   29.1540   41.8800 C   0  0  0  0  0  2  0  0  0  0  0  0
   50.3040   29.9730   42.1380 C   0  0  0  0  0  2  0  0  0  0  0  0
  1  8  1  0  0  0  0
  1  6  1  0  0  0  0
  2  1  2  0  0  0  0
  3  2  1  0  0  0  0
  3  4  2  0  0  0  0
  4  5  1  0  0  0  0
  5  6  2  0  0  0  0
  5  7  1  0  0  0  0
  7 10  1  0  0  0  0
  9  7  1  0  0  0  0
 11 12  1  0  0  0  0
 11 17  1  1  0  0  0
 11  2  1  0  0  0  0
 12 18  1  0  0  0  0
 13 19  1  0  0  0  0
 13 12  2  0  0  0  0
 14 20  1  6  0  0  0
 14 13  1  0  0  0  0
 15 14  1  0  0  0  0
 15 22  1  0  0  0  0
 15 16  1  0  0  0  0
 16 11  1  0  0  0  0
 21 15  1  0  0  0  0
 23 16  1  0  0  0  0
 24 16  1  0  0  0  0
 25 26  1  0  0  0  0
 25 14  1  0  0  0  0
 27 25  1  0  0  0  0
 28 25  1  0  0  0  0
 29 33  2  0  0  0  0
 29  3  1  0  0  0  0
 30 29  1  0  0  0  0
 31 30  2  0  0  0  0
 31 32  1  0  0  0  0
 32 33  1  0  0  0  0
 34 30  1  0  0  0  0
 35 31  1  0  0  0  0
 36 37  1  0  0  0  0
 36 32  1  0  0  0  0
 38 37  1  0  0  0  0
 39 40  1  0  0  0  0
 39 38  1  0  0  0  0
 40 36  1  0  0  0  0
M  END
>  <minimizedAffinity>
-5.58468771

>  <minimizedRMSD>
0.218940094

$$$$
