
 OpenBabel03232519523D

 42 45  0  0  1  0  0  0  0  0999 V2000
   45.7270   33.6890   42.1430 N   0  0  0  0  0  0  0  0  0  0  0  0
   46.9270   33.8790   41.3390 C   0  0  0  0  0  0  0  0  0  0  0  0
   46.3140   33.8450   39.9490 C   0  0  0  0  0  0  0  0  0  0  0  0
   45.4910   32.5750   40.0530 C   0  0  0  0  0  0  0  0  0  0  0  0
   44.9390   32.6780   41.4370 C   0  0  2  0  0  0  0  0  0  0  0  0
   47.5760   33.0100   41.4790 H   0  0  0  0  0  0  0  0  0  0  0  0
   47.4000   34.8420   41.5250 H   0  0  0  0  0  0  0  0  0  0  0  0
   45.6910   34.7240   39.7780 H   0  0  0  0  0  0  0  0  0  0  0  0
   47.0890   33.6710   39.1770 H   0  0  0  0  0  0  0  0  0  0  0  0
   44.7090   32.6390   39.2500 H   0  0  0  0  0  0  0  0  0  0  0  0
   46.1430   31.7040   39.8720 H   0  0  0  0  0  0  0  0  0  0  0  0
   45.2410   31.7180   41.9370 H   0  0  0  0  0  0  0  0  0  0  0  0
   44.4970   36.1500   44.6450 C   0  0  0  0  0  0  0  0  0  0  0  0
   44.8500   35.5990   43.4160 C   0  0  0  0  0  0  0  0  0  0  0  0
   45.3510   34.3100   43.3410 C   0  0  0  0  0  0  0  0  0  0  0  0
   45.4720   33.6330   44.5260 N   0  0  0  0  0  0  0  0  0  0  0  0
   45.1300   34.1670   45.7170 C   0  0  0  0  0  0  0  0  0  0  0  0
   44.6480   35.4150   45.7640 N   0  0  0  0  0  0  0  0  0  0  0  0
   45.3210   33.3230   46.8390 N   0  0  0  0  0  0  0  0  0  0  0  0
   44.1040   37.1540   44.7260 H   0  0  0  0  0  0  0  0  0  0  0  0
   44.7370   36.1690   42.5000 H   0  0  0  0  0  0  0  0  0  0  0  0
   45.0980   32.2870   46.7670 H   0  0  0  0  0  0  0  0  0  0  0  0
   45.6720   33.5920   47.7820 H   0  0  0  0  0  0  0  0  0  0  0  0
   43.5350   32.8570   41.5400 N   0  0  0  0  0  0  0  0  0  0  0  0
   42.8320   33.9440   41.2330 C   0  0  0  0  0  0  0  0  0  0  0  0
   41.4500   34.0070   41.3720 C   0  0  0  0  0  0  0  0  0  0  0  0
   40.7500   32.9180   41.8460 C   0  0  0  0  0  0  0  0  0  0  0  0
   39.4930   32.9410   41.9850 O   0  0  0  0  0  0  0  0  0  0  0  0
   41.4680   31.8300   42.1510 N   0  0  0  0  0  0  0  0  0  0  0  0
   42.7780   31.8130   42.0040 C   0  0  0  0  0  0  0  0  0  0  0  0
   43.3690   30.7220   42.3250 O   0  0  0  0  0  0  0  0  0  0  0  0
   43.3850   34.7980   40.8610 H   0  0  0  0  0  0  0  0  0  0  0  0
   40.9410   31.0040   42.5100 H   0  0  0  0  0  0  0  0  0  0  0  0
   40.7150   35.2490   41.0040 C   0  0  0  0  0  0  0  0  0  0  0  0
   39.7650   35.3130   41.5720 H   0  0  0  0  0  0  0  0  0  0  0  0
   41.2780   36.1670   41.2600 H   0  0  0  0  0  0  0  0  0  0  0  0
   40.4220   35.1370   39.5500 C   0  0  0  0  0  0  0  0  0  0  0  0
   39.4900   34.4550   38.8020 C   0  0  0  0  0  0  0  0  0  0  0  0
   39.7590   34.7820   37.4900 C   0  0  0  0  0  0  0  0  0  0  0  0
   40.8340   35.6420   37.4750 C   0  0  0  0  0  0  0  0  0  0  0  0
   41.2830   36.0740   36.5920 H   0  0  0  0  0  0  0  0  0  0  0  0
   41.1800   35.8120   38.7270 O   0  0  0  0  0  0  0  0  0  0  0  0
  1 15  1  0  0  0  0
  2  6  1  0  0  0  0
  2  7  1  0  0  0  0
  2  1  1  0  0  0  0
  3  4  1  0  0  0  0
  3  2  1  0  0  0  0
  4  5  1  0  0  0  0
  5 24  1  0  0  0  0
  5 12  1  1  0  0  0
  5  1  1  0  0  0  0
  8  3  1  0  0  0  0
  9  3  1  0  0  0  0
 10  4  1  0  0  0  0
 11  4  1  0  0  0  0
 13 20  1  0  0  0  0
 13 18  1  0  0  0  0
 14 13  2  0  0  0  0
 15 14  1  0  0  0  0
 15 16  2  0  0  0  0
 16 17  1  0  0  0  0
 17 18  2  0  0  0  0
 17 19  1  0  0  0  0
 19 23  1  0  0  0  0
 21 14  1  0  0  0  0
 22 19  1  0  0  0  0
 24 30  1  0  0  0  0
 25 26  2  0  0  0  0
 25 24  1  0  0  0  0
 26 27  1  0  0  0  0
 27 28  2  0  0  0  0
 27 29  1  0  0  0  0
 29 33  1  0  0  0  0
 30 29  1  0  0  0  0
 30 31  2  0  0  0  0
 32 25  1  0  0  0  0
 34 36  1  0  0  0  0
 34 26  1  0  0  0  0
 34 35  1  0  0  0  0
 37 34  1  0  0  0  0
 38 37  2  0  0  0  0
 39 38  1  0  0  0  0
 40 39  2  0  0  0  0
 40 42  1  0  0  0  0
 41 40  1  0  0  0  0
 42 37  1  0  0  0  0
M  END
>  <minimizedAffinity>
-6.55882597

>  <minimizedRMSD>
1.23195744

$$$$
