
 OpenBabel03232521003D

 40 43  0  0  1  0  0  0  0  0999 V2000
   45.4070   32.8640   47.5010 C   0  0  0  0  0  0  0  0  0  0  0  0
   45.9360   32.6210   46.2750 C   0  0  0  0  0  0  0  0  0  0  0  0
   46.1760   31.2680   46.0040 C   0  0  0  0  0  0  0  0  0  0  0  0
   45.9080   30.2630   46.8760 N   0  0  0  0  0  0  0  0  0  0  0  0
   45.3670   30.5640   48.1170 C   0  0  0  0  0  0  0  0  0  0  0  0
   45.1320   31.8420   48.3960 N   0  0  0  0  0  0  0  0  0  0  0  0
   45.0830   29.5420   49.0490 N   0  0  0  0  0  0  0  0  0  0  0  0
   45.1870   33.8710   47.8180 H   0  0  0  0  0  0  0  0  0  0  0  0
   44.6250   28.6720   48.6620 H   0  0  0  0  0  0  0  0  0  0  0  0
   45.2730   29.5510   50.0600 H   0  0  0  0  0  0  0  0  0  0  0  0
   46.1790   33.5840   45.2560 C   0  0  2  0  0  0  0  0  0  0  0  0
   44.9570   34.6640   45.4950 C   0  0  0  0  0  0  0  0  0  0  0  0
   44.7260   35.6030   44.4340 C   0  0  0  0  0  0  0  0  0  0  0  0
   45.5250   35.5530   43.2120 C   0  0  1  0  0  0  0  0  0  0  0  0
   46.5920   34.5560   43.1500 C   0  0  0  0  0  0  0  0  0  0  0  0
   46.1540   33.3130   43.8890 C   0  0  0  0  0  0  0  0  0  0  0  0
   46.9490   34.3350   45.6020 H   0  0  0  0  0  0  0  0  0  0  0  0
   44.2790   34.7890   46.3300 H   0  0  0  0  0  0  0  0  0  0  0  0
   43.9550   36.3170   44.5410 H   0  0  0  0  0  0  0  0  0  0  0  0
   45.9360   36.5690   43.0190 H   0  0  0  0  0  0  0  0  0  0  0  0
   46.7480   34.3160   42.0570 H   0  0  0  0  0  0  0  0  0  0  0  0
   47.5990   34.8960   43.4900 H   0  0  0  0  0  0  0  0  0  0  0  0
   47.0140   32.6740   43.5590 H   0  0  0  0  0  0  0  0  0  0  0  0
   45.2080   32.9670   43.4240 H   0  0  0  0  0  0  0  0  0  0  0  0
   44.5140   35.2870   42.0560 C   0  0  0  0  0  0  0  0  0  0  0  0
   43.4510   34.4960   42.4440 F   0  0  0  0  0  0  0  0  0  0  0  0
   43.9740   36.5230   41.7160 F   0  0  0  0  0  0  0  0  0  0  0  0
   45.1910   34.8220   40.9430 F   0  0  0  0  0  0  0  0  0  0  0  0
   46.7880   30.5860   44.8770 C   0  0  0  0  0  0  0  0  0  0  0  0
   46.4180   29.8370   43.8060 C   0  0  0  0  0  0  0  0  0  0  0  0
   47.5790   29.4490   43.1220 C   0  0  0  0  0  0  0  0  0  0  0  0
   48.5910   29.9780   43.8090 N   0  0  0  0  0  0  0  0  0  0  0  0
   48.1500   30.6520   44.8440 N   0  0  0  0  0  0  0  0  0  0  0  0
   45.3590   29.6730   43.6630 H   0  0  0  0  0  0  0  0  0  0  0  0
   47.4070   28.8430   42.2450 H   0  0  0  0  0  0  0  0  0  0  0  0
   49.9460   29.7490   43.3400 C   0  0  0  0  0  3  0  0  0  0  0  0
   50.0330   28.6820   42.3050 C   0  0  0  0  0  2  0  0  0  0  0  0
   50.8260   29.2890   41.1420 C   0  0  0  0  0  2  0  0  0  0  0  0
   51.6010   30.4090   41.8130 C   0  0  0  0  0  2  0  0  0  0  0  0
   50.5270   30.9970   42.7030 C   0  0  0  0  0  2  0  0  0  0  0  0
  1  8  1  0  0  0  0
  1  6  1  0  0  0  0
  2  1  2  0  0  0  0
  3  2  1  0  0  0  0
  3  4  2  0  0  0  0
  4  5  1  0  0  0  0
  5  6  2  0  0  0  0
  5  7  1  0  0  0  0
  7 10  1  0  0  0  0
  9  7  1  0  0  0  0
 11 12  1  0  0  0  0
 11 17  1  1  0  0  0
 11  2  1  0  0  0  0
 12 18  1  0  0  0  0
 13 19  1  0  0  0  0
 13 12  2  0  0  0  0
 14 20  1  6  0  0  0
 14 13  1  0  0  0  0
 15 14  1  0  0  0  0
 15 22  1  0  0  0  0
 15 16  1  0  0  0  0
 16 11  1  0  0  0  0
 21 15  1  0  0  0  0
 23 16  1  0  0  0  0
 24 16  1  0  0  0  0
 25 26  1  0  0  0  0
 25 14  1  0  0  0  0
 27 25  1  0  0  0  0
 28 25  1  0  0  0  0
 29  3  1  0  0  0  0
 30 29  1  0  0  0  0
 31 30  2  0  0  0  0
 31 32  1  0  0  0  0
 32 33  1  0  0  0  0
 33 29  2  0  0  0  0
 34 30  1  0  0  0  0
 35 31  1  0  0  0  0
 36 32  1  0  0  0  0
 37 36  1  0  0  0  0
 38 39  1  0  0  0  0
 38 37  1  0  0  0  0
 39 40  1  0  0  0  0
 40 36  1  0  0  0  0
M  END
>  <minimizedAffinity>
-5.73750925

>  <minimizedRMSD>
0.283104956

$$$$
