
 OpenBabel03232520243D

 35 38  0  0  0  0  0  0  0  0999 V2000
   46.8320   34.5210   41.3060 C   0  0  0  0  0  0  0  0  0  0  0  0
   48.1230   34.8920   40.9650 C   0  0  0  0  0  0  0  0  0  0  0  0
   48.3860   34.5000   39.7190 N   0  0  0  0  0  0  0  0  0  0  0  0
   47.2870   33.8800   39.2460 C   0  0  0  0  0  0  0  0  0  0  0  0
   47.0440   33.2950   38.0120 C   0  0  0  0  0  0  0  0  0  0  0  0
   45.8230   32.7280   37.7910 C   0  0  0  0  0  0  0  0  0  0  0  0
   44.7750   32.6860   38.7180 C   0  0  0  0  0  0  0  0  0  0  0  0
   45.0800   33.2850   39.9270 C   0  0  0  0  0  0  0  0  0  0  0  0
   46.2840   33.8750   40.2220 C   0  0  0  0  0  0  0  0  0  0  0  0
   49.2640   34.6360   39.1960 H   0  0  0  0  0  0  0  0  0  0  0  0
   47.7730   33.2700   37.2280 H   0  0  0  0  0  0  0  0  0  0  0  0
   45.6270   32.2680   36.8260 H   0  0  0  0  0  0  0  0  0  0  0  0
   43.8240   32.2240   38.4960 H   0  0  0  0  0  0  0  0  0  0  0  0
   44.3090   33.2860   40.6870 H   0  0  0  0  0  0  0  0  0  0  0  0
   44.7910   36.1430   43.9820 C   0  0  0  0  0  0  0  0  0  0  0  0
   45.4360   35.9330   42.7490 C   0  0  0  0  0  0  0  0  0  0  0  0
   46.1560   34.7590   42.5730 C   0  0  0  0  0  0  0  0  0  0  0  0
   46.2080   33.8500   43.6110 N   0  0  0  0  0  0  0  0  0  0  0  0
   45.5710   34.0970   44.7820 C   0  0  0  0  0  0  0  0  0  0  0  0
   44.8600   35.2380   44.9790 N   0  0  0  0  0  0  0  0  0  0  0  0
   44.2270   37.0500   44.1340 H   0  0  0  0  0  0  0  0  0  0  0  0
   45.3570   36.6780   41.9810 H   0  0  0  0  0  0  0  0  0  0  0  0
   45.6980   33.3060   45.4960 H   0  0  0  0  0  0  0  0  0  0  0  0
   49.0440   35.6160   41.8760 C   0  0  0  0  0  0  0  0  0  0  0  0
   48.4960   36.4120   42.4240 H   0  0  0  0  0  0  0  0  0  0  0  0
   49.8160   36.1120   41.2740 H   0  0  0  0  0  0  0  0  0  0  0  0
   49.6110   34.6910   42.9190 C   0  0  0  0  0  0  0  0  0  0  0  0
   48.8550   34.6600   43.7440 H   0  0  0  0  0  0  0  0  0  0  0  0
   50.4960   35.1850   43.3690 H   0  0  0  0  0  0  0  0  0  0  0  0
   49.9080   33.3500   42.3940 C   0  0  0  0  0  0  0  0  0  0  0  0
   51.2120   33.0140   42.0230 C   0  0  0  0  0  0  0  0  0  0  0  0
   51.1610   31.7110   41.5790 C   0  0  0  0  0  0  0  0  0  0  0  0
   49.8240   31.3310   41.7080 C   0  0  0  0  0  0  0  0  0  0  0  0
   49.5310   30.3150   41.4110 H   0  0  0  0  0  0  0  0  0  0  0  0
   49.1170   32.3220   42.1900 O   0  0  0  0  0  0  0  0  0  0  0  0
  1 17  1  0  0  0  0
  2  1  2  0  0  0  0
  2 24  1  0  0  0  0
  3  2  1  0  0  0  0
  4  3  1  0  0  0  0
  4  9  1  0  0  0  0
  5  4  2  0  0  0  0
  6  5  1  0  0  0  0
  6  7  2  0  0  0  0
  7  8  1  0  0  0  0
  8  9  2  0  0  0  0
  8 14  1  0  0  0  0
  9  1  1  0  0  0  0
 10  3  1  0  0  0  0
 11  5  1  0  0  0  0
 12  6  1  0  0  0  0
 13  7  1  0  0  0  0
 15 21  1  0  0  0  0
 15 20  1  0  0  0  0
 16 15  2  0  0  0  0
 17 16  1  0  0  0  0
 17 18  2  0  0  0  0
 18 19  1  0  0  0  0
 19 20  2  0  0  0  0
 19 23  1  0  0  0  0
 22 16  1  0  0  0  0
 24 25  1  0  0  0  0
 24 27  1  0  0  0  0
 26 24  1  0  0  0  0
 27 29  1  0  0  0  0
 27 28  1  0  0  0  0
 30 27  1  0  0  0  0
 31 30  2  0  0  0  0
 32 33  2  0  0  0  0
 32 31  1  0  0  0  0
 33 35  1  0  0  0  0
 34 33  1  0  0  0  0
 35 30  1  0  0  0  0
M  END
>  <minimizedAffinity>
-5.77499437

>  <minimizedRMSD>
1.11153734

$$$$
