
 OpenBabel03232521013D

 40 43  0  0  1  0  0  0  0  0999 V2000
   45.4400   32.9300   47.5740 C   0  0  0  0  0  0  0  0  0  0  0  0
   45.9340   32.6510   46.3410 C   0  0  0  0  0  0  0  0  0  0  0  0
   46.1250   31.2860   46.0880 C   0  0  0  0  0  0  0  0  0  0  0  0
   45.8450   30.3040   46.9820 N   0  0  0  0  0  0  0  0  0  0  0  0
   45.3410   30.6420   48.2290 C   0  0  0  0  0  0  0  0  0  0  0  0
   45.1530   31.9320   48.4920 N   0  0  0  0  0  0  0  0  0  0  0  0
   45.0450   29.6450   49.1840 N   0  0  0  0  0  0  0  0  0  0  0  0
   45.2590   33.9480   47.8780 H   0  0  0  0  0  0  0  0  0  0  0  0
   44.5530   28.7840   48.8220 H   0  0  0  0  0  0  0  0  0  0  0  0
   45.2590   29.6640   50.1910 H   0  0  0  0  0  0  0  0  0  0  0  0
   46.1850   33.5890   45.3010 C   0  0  2  0  0  0  0  0  0  0  0  0
   44.9600   34.6720   45.5030 C   0  0  0  0  0  0  0  0  0  0  0  0
   44.7360   35.5850   44.4180 C   0  0  0  0  0  0  0  0  0  0  0  0
   45.5460   35.5060   43.2040 C   0  0  1  0  0  0  0  0  0  0  0  0
   46.6140   34.5090   43.1760 C   0  0  0  0  0  0  0  0  0  0  0  0
   46.1710   33.2840   43.9410 C   0  0  0  0  0  0  0  0  0  0  0  0
   46.9510   34.3490   45.6350 H   0  0  0  0  0  0  0  0  0  0  0  0
   44.2750   34.8170   46.3290 H   0  0  0  0  0  0  0  0  0  0  0  0
   43.9640   36.3000   44.5010 H   0  0  0  0  0  0  0  0  0  0  0  0
   45.9580   36.5180   42.9900 H   0  0  0  0  0  0  0  0  0  0  0  0
   46.7800   34.2430   42.0900 H   0  0  0  0  0  0  0  0  0  0  0  0
   47.6180   34.8590   43.5160 H   0  0  0  0  0  0  0  0  0  0  0  0
   47.0340   32.6380   43.6330 H   0  0  0  0  0  0  0  0  0  0  0  0
   45.2300   32.9260   43.4760 H   0  0  0  0  0  0  0  0  0  0  0  0
   44.5450   35.2110   42.0460 C   0  0  0  0  0  0  0  0  0  0  0  0
   43.5190   34.3690   42.4260 F   0  0  0  0  0  0  0  0  0  0  0  0
   43.9500   36.4270   41.7240 F   0  0  0  0  0  0  0  0  0  0  0  0
   45.2390   34.7910   40.9260 F   0  0  0  0  0  0  0  0  0  0  0  0
   46.6910   30.5670   44.9600 C   0  0  0  0  0  0  0  0  0  0  0  0
   46.2770   29.9650   43.8140 C   0  0  0  0  0  0  0  0  0  0  0  0
   47.3980   29.4040   43.1860 C   0  0  0  0  0  0  0  0  0  0  0  0
   48.4310   29.6920   43.9770 N   0  0  0  0  0  0  0  0  0  0  0  0
   48.0390   30.3760   45.0260 N   0  0  0  0  0  0  0  0  0  0  0  0
   45.2210   30.0130   43.5870 H   0  0  0  0  0  0  0  0  0  0  0  0
   47.1890   28.8940   42.2580 H   0  0  0  0  0  0  0  0  0  0  0  0
   49.7540   29.2370   43.5880 C   0  0  0  0  0  3  0  0  0  0  0  0
   50.4300   30.1580   42.6320 C   0  0  0  0  0  2  0  0  0  0  0  0
   51.8180   30.4330   43.2240 C   0  0  0  0  0  2  0  0  0  0  0  0
   52.0370   29.2390   44.1340 C   0  0  0  0  0  2  0  0  0  0  0  0
   50.6770   29.1340   44.7890 C   0  0  0  0  0  2  0  0  0  0  0  0
  1  8  1  0  0  0  0
  1  6  1  0  0  0  0
  2  1  2  0  0  0  0
  3  2  1  0  0  0  0
  3  4  2  0  0  0  0
  4  5  1  0  0  0  0
  5  6  2  0  0  0  0
  5  7  1  0  0  0  0
  7 10  1  0  0  0  0
  9  7  1  0  0  0  0
 11 12  1  0  0  0  0
 11 17  1  1  0  0  0
 11  2  1  0  0  0  0
 12 18  1  0  0  0  0
 13 19  1  0  0  0  0
 13 12  2  0  0  0  0
 14 20  1  6  0  0  0
 14 13  1  0  0  0  0
 15 14  1  0  0  0  0
 15 22  1  0  0  0  0
 15 16  1  0  0  0  0
 16 11  1  0  0  0  0
 21 15  1  0  0  0  0
 23 16  1  0  0  0  0
 24 16  1  0  0  0  0
 25 26  1  0  0  0  0
 25 14  1  0  0  0  0
 27 25  1  0  0  0  0
 28 25  1  0  0  0  0
 29 33  2  0  0  0  0
 29  3  1  0  0  0  0
 30 29  1  0  0  0  0
 31 30  2  0  0  0  0
 31 32  1  0  0  0  0
 32 33  1  0  0  0  0
 34 30  1  0  0  0  0
 35 31  1  0  0  0  0
 36 32  1  0  0  0  0
 36 40  1  0  0  0  0
 37 38  1  0  0  0  0
 37 36  1  0  0  0  0
 38 39  1  0  0  0  0
 39 40  1  0  0  0  0
M  END
>  <minimizedAffinity>
-5.86544704

>  <minimizedRMSD>
0.533658683

$$$$
