
 OpenBabel03232521013D

 40 43  0  0  1  0  0  0  0  0999 V2000
   45.4690   32.9250   47.5620 C   0  0  0  0  0  0  0  0  0  0  0  0
   45.9320   32.6540   46.3160 C   0  0  0  0  0  0  0  0  0  0  0  0
   46.0940   31.2900   46.0410 C   0  0  0  0  0  0  0  0  0  0  0  0
   45.8150   30.3010   46.9270 N   0  0  0  0  0  0  0  0  0  0  0  0
   45.3440   30.6310   48.1900 C   0  0  0  0  0  0  0  0  0  0  0  0
   45.1840   31.9200   48.4730 N   0  0  0  0  0  0  0  0  0  0  0  0
   45.0510   29.6260   49.1380 N   0  0  0  0  0  0  0  0  0  0  0  0
   45.3130   33.9420   47.8840 H   0  0  0  0  0  0  0  0  0  0  0  0
   44.5350   28.7790   48.7750 H   0  0  0  0  0  0  0  0  0  0  0  0
   45.2850   29.6280   50.1400 H   0  0  0  0  0  0  0  0  0  0  0  0
   46.1780   33.6010   45.2830 C   0  0  2  0  0  0  0  0  0  0  0  0
   44.9510   34.6800   45.4980 C   0  0  0  0  0  0  0  0  0  0  0  0
   44.7210   35.6010   44.4210 C   0  0  0  0  0  0  0  0  0  0  0  0
   45.5270   35.5350   43.2050 C   0  0  1  0  0  0  0  0  0  0  0  0
   46.5980   34.5410   43.1640 C   0  0  0  0  0  0  0  0  0  0  0  0
   46.1600   33.3080   43.9210 C   0  0  0  0  0  0  0  0  0  0  0  0
   46.9430   34.3600   45.6210 H   0  0  0  0  0  0  0  0  0  0  0  0
   44.2680   34.8160   46.3270 H   0  0  0  0  0  0  0  0  0  0  0  0
   43.9480   36.3140   44.5130 H   0  0  0  0  0  0  0  0  0  0  0  0
   45.9360   36.5500   42.9980 H   0  0  0  0  0  0  0  0  0  0  0  0
   46.7610   34.2840   42.0760 H   0  0  0  0  0  0  0  0  0  0  0  0
   47.6020   34.8900   43.5040 H   0  0  0  0  0  0  0  0  0  0  0  0
   47.0240   32.6670   43.6050 H   0  0  0  0  0  0  0  0  0  0  0  0
   45.2180   32.9520   43.4560 H   0  0  0  0  0  0  0  0  0  0  0  0
   44.5240   35.2470   42.0470 C   0  0  0  0  0  0  0  0  0  0  0  0
   43.4850   34.4240   42.4320 F   0  0  0  0  0  0  0  0  0  0  0  0
   43.9480   36.4700   41.7160 F   0  0  0  0  0  0  0  0  0  0  0  0
   45.2130   34.8090   40.9310 F   0  0  0  0  0  0  0  0  0  0  0  0
   46.6220   30.5760   44.8910 C   0  0  0  0  0  0  0  0  0  0  0  0
   46.1670   29.9180   43.7930 C   0  0  0  0  0  0  0  0  0  0  0  0
   47.2750   29.4100   43.0980 C   0  0  0  0  0  0  0  0  0  0  0  0
   48.3410   29.7830   43.8060 N   0  0  0  0  0  0  0  0  0  0  0  0
   47.9810   30.4700   44.8640 N   0  0  0  0  0  0  0  0  0  0  0  0
   45.0970   29.8950   43.6420 H   0  0  0  0  0  0  0  0  0  0  0  0
   47.0330   28.8630   42.2000 H   0  0  0  0  0  0  0  0  0  0  0  0
   49.6590   29.4010   43.3320 C   0  0  0  0  0  3  0  0  0  0  0  0
   50.2340   30.3700   42.3580 C   0  0  0  0  0  2  0  0  0  0  0  0
   51.6380   30.7020   42.8750 C   0  0  0  0  0  2  0  0  0  0  0  0
   51.9670   29.5040   43.7460 C   0  0  0  0  0  2  0  0  0  0  0  0
   50.6540   29.3210   44.4750 C   0  0  0  0  0  2  0  0  0  0  0  0
  1  8  1  0  0  0  0
  1  6  1  0  0  0  0
  2  1  2  0  0  0  0
  3  2  1  0  0  0  0
  3  4  2  0  0  0  0
  4  5  1  0  0  0  0
  5  6  2  0  0  0  0
  5  7  1  0  0  0  0
  7 10  1  0  0  0  0
  9  7  1  0  0  0  0
 11 12  1  0  0  0  0
 11 17  1  1  0  0  0
 11  2  1  0  0  0  0
 12 18  1  0  0  0  0
 13 19  1  0  0  0  0
 13 12  2  0  0  0  0
 14 20  1  6  0  0  0
 14 13  1  0  0  0  0
 15 14  1  0  0  0  0
 15 22  1  0  0  0  0
 15 16  1  0  0  0  0
 16 11  1  0  0  0  0
 21 15  1  0  0  0  0
 23 16  1  0  0  0  0
 24 16  1  0  0  0  0
 25 26  1  0  0  0  0
 25 14  1  0  0  0  0
 27 25  1  0  0  0  0
 28 25  1  0  0  0  0
 29  3  1  0  0  0  0
 30 29  1  0  0  0  0
 31 30  2  0  0  0  0
 31 32  1  0  0  0  0
 32 33  1  0  0  0  0
 33 29  2  0  0  0  0
 34 30  1  0  0  0  0
 35 31  1  0  0  0  0
 36 32  1  0  0  0  0
 36 40  1  0  0  0  0
 37 38  1  0  0  0  0
 37 36  1  0  0  0  0
 38 39  1  0  0  0  0
 39 40  1  0  0  0  0
M  END
>  <minimizedAffinity>
-5.8727212

>  <minimizedRMSD>
0.29859668

$$$$
