
 OpenBabel03232520353D

 41 44  0  0  1  0  0  0  0  0999 V2000
   46.9270   34.5100   41.3320 C   0  0  0  0  0  0  0  0  0  0  0  0
   48.1950   34.9320   40.9580 C   0  0  0  0  0  0  0  0  0  0  0  0
   48.4600   34.6360   39.7010 N   0  0  0  0  0  0  0  0  0  0  0  0
   47.3580   34.0070   39.2230 C   0  0  0  0  0  0  0  0  0  0  0  0
   47.1170   33.4860   37.9450 C   0  0  0  0  0  0  0  0  0  0  0  0
   45.9050   32.8970   37.7270 C   0  0  0  0  0  0  0  0  0  0  0  0
   44.8960   32.7660   38.6570 C   0  0  0  0  0  0  0  0  0  0  0  0
   45.1940   33.2940   39.8860 C   0  0  0  0  0  0  0  0  0  0  0  0
   46.3760   33.9060   40.2050 C   0  0  0  0  0  0  0  0  0  0  0  0
   49.3130   34.8130   39.1150 H   0  0  0  0  0  0  0  0  0  0  0  0
   47.8560   33.5480   37.1590 H   0  0  0  0  0  0  0  0  0  0  0  0
   45.7410   32.4980   36.7210 H   0  0  0  0  0  0  0  0  0  0  0  0
   43.9520   32.2910   38.4410 H   0  0  0  0  0  0  0  0  0  0  0  0
   44.4800   33.2530   40.6970 H   0  0  0  0  0  0  0  0  0  0  0  0
   44.7730   35.8610   44.0490 C   0  0  0  0  0  0  0  0  0  0  0  0
   45.4080   35.7450   42.7930 C   0  0  0  0  0  0  0  0  0  0  0  0
   46.2640   34.6460   42.6190 C   0  0  0  0  0  0  0  0  0  0  0  0
   46.4500   33.7510   43.6360 N   0  0  0  0  0  0  0  0  0  0  0  0
   45.8090   33.9210   44.8180 C   0  0  0  0  0  0  0  0  0  0  0  0
   44.9770   34.9610   45.0340 N   0  0  0  0  0  0  0  0  0  0  0  0
   44.1290   36.7270   44.1160 H   0  0  0  0  0  0  0  0  0  0  0  0
   45.2620   36.4440   41.9980 H   0  0  0  0  0  0  0  0  0  0  0  0
   45.9620   33.2100   45.6200 H   0  0  0  0  0  0  0  0  0  0  0  0
   49.1260   35.6340   41.8820 C   0  0  0  0  0  0  0  0  0  0  0  0
   49.7880   36.3070   41.2980 H   0  0  0  0  0  0  0  0  0  0  0  0
   48.5280   36.2810   42.5520 H   0  0  0  0  0  0  0  0  0  0  0  0
   49.9780   34.6780   42.6420 C   0  0  0  0  0  0  0  0  0  0  0  0
   49.4850   34.4920   43.6250 H   0  0  0  0  0  0  0  0  0  0  0  0
   50.9350   35.1890   42.9170 H   0  0  0  0  0  0  0  0  0  0  0  0
   50.2780   33.3880   41.9190 C   0  0  1  0  0  0  0  0  0  0  0  0
   51.0360   32.2830   42.5060 C   0  0  0  0  0  0  0  0  0  0  0  0
   49.5500   32.1750   42.5180 C   0  0  2  0  0  0  0  0  0  0  0  0
   50.2600   33.4680   40.8220 H   0  0  0  0  0  0  0  0  0  0  0  0
   51.6150   31.6310   41.8100 H   0  0  0  0  0  0  0  0  0  0  0  0
   51.6040   32.5020   43.4340 H   0  0  0  0  0  0  0  0  0  0  0  0
   49.1250   32.3420   43.5510 H   0  0  0  0  0  0  0  0  0  0  0  0
   49.0110   31.2510   41.6680 O   0  0  0  0  0  0  0  0  0  0  0  0
   47.9320   30.4370   41.9370 C   0  0  0  0  0  0  0  0  0  0  0  0
   46.7370   30.8220   41.9000 O   0  0  0  0  0  0  0  0  0  0  0  0
   47.6950   29.0870   42.3020 O   0  0  0  0  0  0  0  0  0  0  0  0
   47.3220   28.4360   41.6000 H   0  0  0  0  0  0  0  0  0  0  0  0
  1 17  1  0  0  0  0
  2  1  2  0  0  0  0
  2 24  1  0  0  0  0
  3  2  1  0  0  0  0
  4  3  1  0  0  0  0
  4  9  1  0  0  0  0
  5  4  2  0  0  0  0
  6  5  1  0  0  0  0
  6  7  2  0  0  0  0
  7  8  1  0  0  0  0
  8  9  2  0  0  0  0
  8 14  1  0  0  0  0
  9  1  1  0  0  0  0
 10  3  1  0  0  0  0
 11  5  1  0  0  0  0
 12  6  1  0  0  0  0
 13  7  1  0  0  0  0
 15 21  1  0  0  0  0
 15 20  1  0  0  0  0
 16 15  2  0  0  0  0
 17 16  1  0  0  0  0
 17 18  2  0  0  0  0
 18 19  1  0  0  0  0
 19 20  2  0  0  0  0
 19 23  1  0  0  0  0
 22 16  1  0  0  0  0
 24 26  1  0  0  0  0
 24 27  1  0  0  0  0
 25 24  1  0  0  0  0
 27 29  1  0  0  0  0
 27 28  1  0  0  0  0
 30 33  1  6  0  0  0
 30 31  1  0  0  0  0
 30 32  1  0  0  0  0
 30 27  1  0  0  0  0
 31 32  1  0  0  0  0
 31 35  1  0  0  0  0
 32 36  1  1  0  0  0
 34 31  1  0  0  0  0
 37 38  1  0  0  0  0
 37 32  1  0  0  0  0
 38 40  1  0  0  0  0
 39 38  2  0  0  0  0
 41 40  1  0  0  0  0
M  END
>  <minimizedAffinity>
-5.39273596

>  <minimizedRMSD>
0.0304621961

$$$$
