
 OpenBabel03232514233D

 28 30  0  0  0  0  0  0  0  0999 V2000
   44.4230   35.7820   44.3980 C   0  0  0  0  0  0  0  0  0  0  0  0
   44.9570   35.0570   43.3170 C   0  0  0  0  0  0  0  0  0  0  0  0
   45.6350   33.8840   43.6200 C   0  0  0  0  0  0  0  0  0  0  0  0
   45.7420   33.5080   44.9340 N   0  0  0  0  0  0  0  0  0  0  0  0
   45.2150   34.2330   45.9260 C   0  0  0  0  0  0  0  0  0  0  0  0
   44.5630   35.3560   45.6720 N   0  0  0  0  0  0  0  0  0  0  0  0
   43.9040   36.6890   44.1140 H   0  0  0  0  0  0  0  0  0  0  0  0
   45.2970   33.9390   46.9650 H   0  0  0  0  0  0  0  0  0  0  0  0
   44.8110   35.5100   41.9220 C   0  0  0  0  0  0  0  0  0  0  0  0
   45.6580   35.1360   41.3390 H   0  0  0  0  0  0  0  0  0  0  0  0
   44.8880   36.6240   41.8730 H   0  0  0  0  0  0  0  0  0  0  0  0
   43.4770   35.0660   41.3560 C   0  0  0  0  0  0  0  0  0  0  0  0
   43.4220   34.1760   40.3240 C   0  0  0  0  0  0  0  0  0  0  0  0
   41.6250   33.9840   40.0330 S   0  0  0  0  0  0  0  0  0  0  0  0
   41.2650   35.2170   41.4470 C   0  0  0  0  0  0  0  0  0  0  0  0
   42.3170   35.4740   41.7840 N   0  0  0  0  0  0  0  0  0  0  0  0
   44.1490   33.6380   39.7300 H   0  0  0  0  0  0  0  0  0  0  0  0
   40.2890   35.7010   41.9700 H   0  0  0  0  0  0  0  0  0  0  0  0
   46.3590   32.8740   42.3410 S   0  0  0  0  0  0  0  0  0  0  0  0
   48.1230   33.1550   42.3620 C   0  0  0  0  0  0  0  0  0  0  0  0
   49.1080   32.1830   42.2450 C   0  0  0  0  0  0  0  0  0  0  0  0
   48.7490   31.1850   42.1330 H   0  0  0  0  0  0  0  0  0  0  0  0
   50.4370   32.5550   42.2780 C   0  0  0  0  0  0  0  0  0  0  0  0
   50.7650   33.8860   42.4280 C   0  0  0  0  0  0  0  0  0  0  0  0
   51.8250   34.1780   42.4530 H   0  0  0  0  0  0  0  0  0  0  0  0
   49.8170   34.8940   42.5480 C   0  0  0  0  0  0  0  0  0  0  0  0
   50.0830   35.9290   42.6640 H   0  0  0  0  0  0  0  0  0  0  0  0
   48.4800   34.4880   42.5110 C   0  0  0  0  0  0  0  0  0  0  0  0
  1  6  1  0  0  0  0
  2  3  1  0  0  0  0
  2  1  2  0  0  0  0
  3  4  2  0  0  0  0
  4  5  1  0  0  0  0
  5  8  1  0  0  0  0
  6  5  2  0  0  0  0
  7  1  1  0  0  0  0
  9  2  1  0  0  0  0
 10  9  1  0  0  0  0
 11  9  1  0  0  0  0
 12 16  1  0  0  0  0
 12  9  1  0  0  0  0
 13 12  2  0  0  0  0
 14 13  1  0  0  0  0
 14 15  1  0  0  0  0
 15 16  2  0  0  0  0
 15 18  1  0  0  0  0
 17 13  1  0  0  0  0
 19 20  1  0  0  0  0
 19  3  1  0  0  0  0
 20 28  1  0  0  0  0
 21 23  1  0  0  0  0
 21 20  2  0  0  0  0
 22 21  1  0  0  0  0
 23 24  2  0  0  0  0
 24 25  1  0  0  0  0
 24 26  1  0  0  0  0
 26 27  1  0  0  0  0
 28 26  2  0  0  0  0
M  END
>  <minimizedAffinity>
-5.27771235

>  <minimizedRMSD>
0.945200861

$$$$
