
 OpenBabel03232520063D

 34 38  0  0  0  0  0  0  0  0999 V2000
   46.1610   30.3390   49.0490 N   0  0  0  0  0  0  0  0  0  0  0  0
   45.3050   31.3370   49.3960 C   0  0  0  0  0  0  0  0  0  0  0  0
   45.2280   32.2060   48.3560 N   0  0  0  0  0  0  0  0  0  0  0  0
   46.0350   31.7230   47.3980 C   0  0  0  0  0  0  0  0  0  0  0  0
   46.2780   32.2660   46.1640 C   0  0  0  0  0  0  0  0  0  0  0  0
   47.1350   31.6080   45.3480 N   0  0  0  0  0  0  0  0  0  0  0  0
   47.7370   30.4610   45.7160 C   0  0  0  0  0  0  0  0  0  0  0  0
   47.4760   29.9590   46.9290 N   0  0  0  0  0  0  0  0  0  0  0  0
   46.6510   30.5410   47.7850 C   0  0  0  0  0  0  0  0  0  0  0  0
   46.4580   29.5030   49.6000 H   0  0  0  0  0  0  0  0  0  0  0  0
   44.7910   31.3930   50.3510 H   0  0  0  0  0  0  0  0  0  0  0  0
   48.6330   29.7990   44.8270 N   0  0  0  0  0  0  0  0  0  0  0  0
   49.1840   28.5910   45.0400 C   0  0  0  0  0  0  0  0  0  0  0  0
   49.9750   28.2720   44.0020 N   0  0  0  0  0  0  0  0  0  0  0  0
   49.9310   29.2840   43.1140 C   0  0  0  0  0  0  0  0  0  0  0  0
   50.5910   29.3980   41.8890 C   0  0  0  0  0  0  0  0  0  0  0  0
   51.2290   28.6000   41.5650 H   0  0  0  0  0  0  0  0  0  0  0  0
   50.3200   30.5650   41.2390 N   0  0  0  0  0  0  0  0  0  0  0  0
   49.5000   31.4850   41.7530 C   0  0  0  0  0  0  0  0  0  0  0  0
   48.8670   31.3770   42.9290 N   0  0  0  0  0  0  0  0  0  0  0  0
   49.0750   30.2460   43.6520 C   0  0  0  0  0  0  0  0  0  0  0  0
   45.5940   33.7600   45.4850 S   0  0  0  0  0  0  0  0  0  0  0  0
   47.6720   34.7920   42.3410 C   0  0  0  0  0  0  0  0  0  0  0  0
   46.8840   34.5150   41.2350 C   0  0  0  0  0  0  0  0  0  0  0  0
   45.6340   33.9780   41.4720 C   0  0  0  0  0  0  0  0  0  0  0  0
   45.2510   33.7520   42.7630 N   0  0  0  0  0  0  0  0  0  0  0  0
   46.0670   34.0420   43.8070 C   0  0  0  0  0  0  0  0  0  0  0  0
   47.2670   34.5580   43.5930 N   0  0  0  0  0  0  0  0  0  0  0  0
   47.2040   34.7020   40.2170 H   0  0  0  0  0  0  0  0  0  0  0  0
   44.9410   33.7270   40.6770 H   0  0  0  0  0  0  0  0  0  0  0  0
   49.0190   35.3700   42.1090 C   0  0  0  0  0  0  0  0  0  0  0  0
   49.2080   36.0840   41.0970 O   0  0  0  0  0  0  0  0  0  0  0  0
   50.0300   35.1150   43.0010 O   0  0  0  0  0  0  0  0  0  0  0  0
   50.9760   35.2020   42.6540 H   0  0  0  0  0  0  0  0  0  0  0  0
  1  2  1  0  0  0  0
  1 10  1  0  0  0  0
  2 11  1  0  0  0  0
  3  2  2  0  0  0  0
  4  9  1  0  0  0  0
  4  3  1  0  0  0  0
  5  4  2  0  0  0  0
  6  7  2  0  0  0  0
  6  5  1  0  0  0  0
  7  8  1  0  0  0  0
  8  9  2  0  0  0  0
  9  1  1  0  0  0  0
 12 13  1  0  0  0  0
 12  7  1  0  0  0  0
 14 13  2  0  0  0  0
 15 21  1  0  0  0  0
 15 14  1  0  0  0  0
 16 15  2  0  0  0  0
 17 16  1  0  0  0  0
 18 19  2  0  0  0  0
 18 16  1  0  0  0  0
 19 20  1  0  0  0  0
 20 21  2  0  0  0  0
 21 12  1  0  0  0  0
 22  5  1  0  0  0  0
 23 28  1  0  0  0  0
 24 25  1  0  0  0  0
 24 23  2  0  0  0  0
 25 26  2  0  0  0  0
 26 27  1  0  0  0  0
 27 22  1  0  0  0  0
 28 27  2  0  0  0  0
 29 24  1  0  0  0  0
 30 25  1  0  0  0  0
 31 23  1  0  0  0  0
 31 33  1  0  0  0  0
 32 31  2  0  0  0  0
 34 33  1  0  0  0  0
M  END
>  <minimizedAffinity>
-6.37290382

>  <minimizedRMSD>
0.237475052

$$$$
