
 OpenBabel03232520023D

 22 23  0  0  0  0  0  0  0  0999 V2000
   47.6890   34.2650   43.1320 C   0  0  0  0  0  0  0  0  0  0  0  0
   46.4420   34.8670   43.0610 C   0  0  0  0  0  0  0  0  0  0  0  0
   45.3760   34.2360   43.6910 C   0  0  0  0  0  0  0  0  0  0  0  0
   45.6050   33.0600   44.3480 N   0  0  0  0  0  0  0  0  0  0  0  0
   46.8520   32.5060   44.3890 C   0  0  0  0  0  0  0  0  0  0  0  0
   47.8680   33.1080   43.7880 N   0  0  0  0  0  0  0  0  0  0  0  0
   46.2900   35.8010   42.5330 H   0  0  0  0  0  0  0  0  0  0  0  0
   44.3750   34.6510   43.6760 H   0  0  0  0  0  0  0  0  0  0  0  0
   48.8310   34.9200   42.4680 C   0  0  0  0  0  0  0  0  0  0  0  0
   48.6780   35.3190   41.2770 O   0  0  0  0  0  0  0  0  0  0  0  0
   50.0120   35.0820   43.1370 O   0  0  0  0  0  0  0  0  0  0  0  0
   50.8640   35.1800   42.5860 H   0  0  0  0  0  0  0  0  0  0  0  0
   47.1960   30.9810   45.2300 S   0  0  0  0  0  0  0  0  0  0  0  0
   46.4290   31.1260   46.8560 C   0  0  0  0  0  0  0  0  0  0  0  0
   46.5770   32.2540   47.6500 C   0  0  0  0  0  0  0  0  0  0  0  0
   47.1710   33.0580   47.2700 H   0  0  0  0  0  0  0  0  0  0  0  0
   45.9900   32.3590   48.8910 C   0  0  0  0  0  0  0  0  0  0  0  0
   45.2410   31.2720   49.3020 C   0  0  0  0  0  0  0  0  0  0  0  0
   44.7710   31.3490   50.2840 H   0  0  0  0  0  0  0  0  0  0  0  0
   45.0350   30.1120   48.5860 C   0  0  0  0  0  0  0  0  0  0  0  0
   44.4390   29.3180   48.9790 H   0  0  0  0  0  0  0  0  0  0  0  0
   45.6550   30.0830   47.3550 C   0  0  0  0  0  0  0  0  0  0  0  0
  1  6  1  0  0  0  0
  2  1  2  0  0  0  0
  2  3  1  0  0  0  0
  3  4  2  0  0  0  0
  4  5  1  0  0  0  0
  5 13  1  0  0  0  0
  6  5  2  0  0  0  0
  7  2  1  0  0  0  0
  8  3  1  0  0  0  0
  9  1  1  0  0  0  0
  9 11  1  0  0  0  0
 10  9  2  0  0  0  0
 12 11  1  0  0  0  0
 13 14  1  0  0  0  0
 14 22  2  0  0  0  0
 14 15  1  0  0  0  0
 15 17  2  0  0  0  0
 16 15  1  0  0  0  0
 17 18  1  0  0  0  0
 18 19  1  0  0  0  0
 20 21  1  0  0  0  0
 20 18  2  0  0  0  0
 22 20  1  0  0  0  0
M  END
>  <minimizedAffinity>
-5.26403999

>  <minimizedRMSD>
3.17437816

$$$$
