
 OpenBabel03232520533D

 36 39  0  0  1  0  0  0  0  0999 V2000
   46.5890   33.0200   44.9210 C   0  0  2  0  0  0  0  0  0  0  0  0
   45.3920   33.8150   45.3950 C   0  0  0  0  0  0  0  0  0  0  0  0
   44.9930   34.9510   44.6090 C   0  0  0  0  0  0  0  0  0  0  0  0
   45.7170   35.3110   43.4040 C   0  0  1  0  0  0  0  0  0  0  0  0
   46.9130   34.5150   43.0710 C   0  0  0  0  0  0  0  0  0  0  0  0
   46.7160   33.0780   43.4410 C   0  0  0  0  0  0  0  0  0  0  0  0
   47.4790   33.5530   45.3670 H   0  0  0  0  0  0  0  0  0  0  0  0
   44.7120   33.7380   46.2330 H   0  0  0  0  0  0  0  0  0  0  0  0
   44.1470   35.5610   44.8920 H   0  0  0  0  0  0  0  0  0  0  0  0
   46.0240   36.3770   43.4660 H   0  0  0  0  0  0  0  0  0  0  0  0
   47.7870   34.9510   43.6080 H   0  0  0  0  0  0  0  0  0  0  0  0
   47.1080   34.5660   41.9790 H   0  0  0  0  0  0  0  0  0  0  0  0
   45.8660   32.6680   42.8970 H   0  0  0  0  0  0  0  0  0  0  0  0
   47.6710   32.5390   43.1900 H   0  0  0  0  0  0  0  0  0  0  0  0
   47.2510   31.4550   46.6880 C   0  0  0  0  0  0  0  0  0  0  0  0
   46.5670   31.6920   45.5110 C   0  0  0  0  0  0  0  0  0  0  0  0
   45.8960   30.6060   44.9570 C   0  0  0  0  0  0  0  0  0  0  0  0
   45.9170   29.3900   45.5410 N   0  0  0  0  0  0  0  0  0  0  0  0
   46.6020   29.1900   46.7020 C   0  0  0  0  0  0  0  0  0  0  0  0
   47.2670   30.2340   47.2680 N   0  0  0  0  0  0  0  0  0  0  0  0
   47.8230   32.1750   47.2520 H   0  0  0  0  0  0  0  0  0  0  0  0
   45.3450   30.7290   44.0400 H   0  0  0  0  0  0  0  0  0  0  0  0
   46.5580   27.8680   47.2310 N   0  0  0  0  0  0  0  0  0  0  0  0
   47.4500   27.0640   47.8380 C   0  0  0  0  0  0  0  0  0  0  0  0
   46.8330   25.8860   48.1310 N   0  0  0  0  0  0  0  0  0  0  0  0
   45.5490   25.9560   47.7040 C   0  0  0  0  0  0  0  0  0  0  0  0
   44.5900   24.9720   47.8110 C   0  0  0  0  0  0  0  0  0  0  0  0
   44.7810   24.0120   48.2660 H   0  0  0  0  0  0  0  0  0  0  0  0
   43.3770   25.3150   47.2940 N   0  0  0  0  0  0  0  0  0  0  0  0
   43.1600   26.5120   46.7360 C   0  0  0  0  0  0  0  0  0  0  0  0
   44.1480   27.4210   46.6680 N   0  0  0  0  0  0  0  0  0  0  0  0
   45.3870   27.1890   47.1470 C   0  0  0  0  0  0  0  0  0  0  0  0
   44.7250   35.2580   42.2310 C   0  0  0  0  0  0  0  0  0  0  0  0
   43.6560   34.4290   42.4720 F   0  0  0  0  0  0  0  0  0  0  0  0
   44.1960   36.5430   42.0740 F   0  0  0  0  0  0  0  0  0  0  0  0
   45.3960   34.9440   41.0590 F   0  0  0  0  0  0  0  0  0  0  0  0
  1  7  1  1  0  0  0
  1  2  1  0  0  0  0
  1 16  1  0  0  0  0
  2  8  1  0  0  0  0
  3  9  1  0  0  0  0
  3  2  2  0  0  0  0
  4 10  1  1  0  0  0
  4  3  1  0  0  0  0
  5  4  1  0  0  0  0
  5  6  1  0  0  0  0
  5 11  1  0  0  0  0
  6  1  1  0  0  0  0
 12  5  1  0  0  0  0
 13  6  1  0  0  0  0
 14  6  1  0  0  0  0
 15 21  1  0  0  0  0
 15 20  1  0  0  0  0
 16 15  2  0  0  0  0
 17 16  1  0  0  0  0
 17 18  2  0  0  0  0
 18 19  1  0  0  0  0
 19 23  1  0  0  0  0
 19 20  2  0  0  0  0
 22 17  1  0  0  0  0
 23 24  1  0  0  0  0
 24 25  2  0  0  0  0
 26 27  1  0  0  0  0
 26 25  1  0  0  0  0
 27 28  1  0  0  0  0
 29 27  2  0  0  0  0
 30 29  1  0  0  0  0
 31 30  2  0  0  0  0
 31 32  1  0  0  0  0
 32 23  1  0  0  0  0
 32 26  2  0  0  0  0
 33 34  1  0  0  0  0
 33  4  1  0  0  0  0
 35 33  1  0  0  0  0
 36 33  1  0  0  0  0
M  END
>  <minimizedAffinity>
-5.43754148

>  <minimizedRMSD>
1.93779588

$$$$
