
 OpenBabel03232518593D

 49 53  0  0  1  0  0  0  0  0999 V2000
   46.0480   32.0890   45.2940 C   0  0  1  0  0  0  0  0  0  0  0  0
   45.0270   31.9670   44.8210 H   0  0  0  0  0  0  0  0  0  0  0  0
   45.8080   32.1280   48.9930 C   0  0  0  0  0  0  0  0  0  0  0  0
   45.4280   30.7780   49.2670 C   0  0  0  0  0  0  0  0  0  0  0  0
   45.2680   29.8880   48.1680 C   0  0  0  0  0  0  0  0  0  0  0  0
   45.4900   30.3840   46.9220 N   0  0  0  0  0  0  0  0  0  0  0  0
   45.8470   31.6590   46.7040 C   0  0  0  0  0  0  0  0  0  0  0  0
   46.0030   32.5200   47.7370 N   0  0  0  0  0  0  0  0  0  0  0  0
   45.9060   32.7230   49.8690 H   0  0  0  0  0  0  0  0  0  0  0  0
   45.2370   30.3090   50.2030 H   0  0  0  0  0  0  0  0  0  0  0  0
   44.9910   28.8690   48.2710 H   0  0  0  0  0  0  0  0  0  0  0  0
   46.6030   33.4450   45.1540 C   0  0  0  0  0  0  0  0  0  0  0  0
   46.9150   33.9580   46.0830 H   0  0  0  0  0  0  0  0  0  0  0  0
   47.5480   33.3990   44.5350 H   0  0  0  0  0  0  0  0  0  0  0  0
   45.6690   34.2610   44.3480 C   0  0  0  0  0  0  0  0  0  0  0  0
   44.8960   35.2190   44.9660 C   0  0  0  0  0  0  0  0  0  0  0  0
   44.1170   35.8290   44.0140 C   0  0  0  0  0  0  0  0  0  0  0  0
   44.4670   35.1980   42.8510 N   0  0  0  0  0  0  0  0  0  0  0  0
   45.3700   34.2860   43.0460 N   0  0  0  0  0  0  0  0  0  0  0  0
   44.8020   35.5490   46.0040 H   0  0  0  0  0  0  0  0  0  0  0  0
   43.3910   36.6150   44.0920 H   0  0  0  0  0  0  0  0  0  0  0  0
   44.4660   34.6160   40.5120 N   0  0  0  0  0  0  0  0  0  0  0  0
   43.3520   34.1270   39.7160 C   0  0  0  0  0  0  0  0  0  0  0  0
   42.2590   34.0000   40.7820 C   0  0  0  0  0  0  0  0  0  0  0  0
   42.4120   35.3070   41.5180 C   0  0  0  0  0  0  0  0  0  0  0  0
   43.9170   35.4770   41.5210 C   0  0  1  0  0  0  0  0  0  0  0  0
   45.0800   33.8740   40.8570 H   0  0  0  0  0  0  0  0  0  0  0  0
   43.5600   33.0870   39.3850 H   0  0  0  0  0  0  0  0  0  0  0  0
   43.0340   34.8130   38.9320 H   0  0  0  0  0  0  0  0  0  0  0  0
   42.4540   33.1280   41.4330 H   0  0  0  0  0  0  0  0  0  0  0  0
   41.2610   33.9730   40.3080 H   0  0  0  0  0  0  0  0  0  0  0  0
   42.0180   35.2110   42.5630 H   0  0  0  0  0  0  0  0  0  0  0  0
   41.8680   36.1170   41.0230 H   0  0  0  0  0  0  0  0  0  0  0  0
   44.1450   36.5390   41.3150 H   0  0  0  0  0  0  0  0  0  0  0  0
   46.8810   31.0360   44.5790 C   0  0  0  0  0  0  0  0  0  0  0  0
   47.9400   31.1600   44.9370 H   0  0  0  0  0  0  0  0  0  0  0  0
   46.4980   30.0550   45.0250 H   0  0  0  0  0  0  0  0  0  0  0  0
   46.7630   30.9140   43.1580 C   0  0  0  0  0  0  0  0  0  0  0  0
   45.7830   30.4780   42.3590 N   0  0  0  0  0  0  0  0  0  0  0  0
   45.7560   30.3900   41.0510 C   0  0  0  0  0  0  0  0  0  0  0  0
   46.8160   30.7640   40.3180 N   0  0  0  0  0  0  0  0  0  0  0  0
   47.8770   31.2260   41.0050 C   0  0  0  0  0  0  0  0  0  0  0  0
   48.9430   31.6060   40.2200 C   0  0  0  0  0  0  0  0  0  0  0  0
   50.0750   32.0980   40.8150 C   0  0  0  0  0  0  0  0  0  0  0  0
   50.9170   32.4010   40.2140 H   0  0  0  0  0  0  0  0  0  0  0  0
   50.1180   32.2010   42.1970 C   0  0  0  0  0  0  0  0  0  0  0  0
   51.0240   32.5910   42.6020 H   0  0  0  0  0  0  0  0  0  0  0  0
   49.0180   31.8020   42.9180 C   0  0  0  0  0  0  0  0  0  0  0  0
   47.8490   31.2970   42.3780 C   0  0  0  0  0  0  0  0  0  0  0  0
  1  2  1  6  0  0  0
  1  7  1  0  0  0  0
  3  4  1  0  0  0  0
  3  9  1  0  0  0  0
  4 10  1  0  0  0  0
  5 11  1  0  0  0  0
  5  4  2  0  0  0  0
  6  5  1  0  0  0  0
  7  6  2  0  0  0  0
  7  8  1  0  0  0  0
  8  3  2  0  0  0  0
 12  1  1  0  0  0  0
 12 13  1  0  0  0  0
 14 12  1  0  0  0  0
 15 16  1  0  0  0  0
 15 12  1  0  0  0  0
 16 20  1  0  0  0  0
 17 21  1  0  0  0  0
 17 16  2  0  0  0  0
 18 19  1  0  0  0  0
 18 17  1  0  0  0  0
 19 15  2  0  0  0  0
 22 27  1  0  0  0  0
 22 26  1  0  0  0  0
 23 22  1  0  0  0  0
 23 24  1  0  0  0  0
 24 30  1  0  0  0  0
 24 25  1  0  0  0  0
 25 26  1  0  0  0  0
 25 32  1  0  0  0  0
 26 34  1  6  0  0  0
 26 18  1  0  0  0  0
 28 23  1  0  0  0  0
 29 23  1  0  0  0  0
 31 24  1  0  0  0  0
 33 25  1  0  0  0  0
 35 36  1  0  0  0  0
 35 37  1  0  0  0  0
 35  1  1  0  0  0  0
 38 35  1  0  0  0  0
 39 38  2  0  0  0  0
 40 39  1  0  0  0  0
 41 42  1  0  0  0  0
 41 40  2  0  0  0  0
 42 49  1  0  0  0  0
 43 44  1  0  0  0  0
 43 42  2  0  0  0  0
 44 46  2  0  0  0  0
 45 44  1  0  0  0  0
 46 47  1  0  0  0  0
 46 48  1  0  0  0  0
 49 48  2  0  0  0  0
 49 38  1  0  0  0  0
M  END
>  <minimizedAffinity>
-5.63427734

>  <minimizedRMSD>
0.521948576

$$$$
