
 OpenBabel03232519553D

 26 29  0  0  0  0  0  0  0  0999 V2000
   45.4170   34.0750   41.7630 N   0  0  0  0  0  0  0  0  0  0  0  0
   46.5280   34.0580   41.0590 C   0  0  0  0  0  0  0  0  0  0  0  0
   46.2480   33.6880   39.7470 C   0  0  0  0  0  0  0  0  0  0  0  0
   44.9330   33.4830   39.6820 N   0  0  0  0  0  0  0  0  0  0  0  0
   44.4120   33.7170   40.9090 C   0  0  0  0  0  0  0  0  0  0  0  0
   46.9490   33.5810   38.9250 H   0  0  0  0  0  0  0  0  0  0  0  0
   43.3530   33.6210   41.1340 H   0  0  0  0  0  0  0  0  0  0  0  0
   47.8560   34.3540   41.4700 N   0  0  0  0  0  0  0  0  0  0  0  0
   48.5120   35.5270   41.7070 C   0  0  0  0  0  0  0  0  0  0  0  0
   49.7850   35.2490   42.0850 N   0  0  0  0  0  0  0  0  0  0  0  0
   49.9670   33.9170   42.0990 C   0  0  0  0  0  0  0  0  0  0  0  0
   51.0640   33.1140   42.4080 C   0  0  0  0  0  0  0  0  0  0  0  0
   51.9710   33.6370   42.7000 H   0  0  0  0  0  0  0  0  0  0  0  0
   50.9550   31.7670   42.3320 N   0  0  0  0  0  0  0  0  0  0  0  0
   49.7850   31.2480   41.9600 C   0  0  0  0  0  0  0  0  0  0  0  0
   48.7120   32.0000   41.6560 N   0  0  0  0  0  0  0  0  0  0  0  0
   48.7650   33.3620   41.7160 C   0  0  0  0  0  0  0  0  0  0  0  0
   44.6460   35.6720   43.3650 C   0  0  0  0  0  0  0  0  0  0  0  0
   45.2140   34.3830   43.1060 C   0  0  0  0  0  0  0  0  0  0  0  0
   45.5030   33.5760   44.1990 C   0  0  0  0  0  0  0  0  0  0  0  0
   45.2310   34.0510   45.4460 N   0  0  0  0  0  0  0  0  0  0  0  0
   44.6900   35.2820   45.6490 C   0  0  0  0  0  0  0  0  0  0  0  0
   44.3970   36.0980   44.5970 N   0  0  0  0  0  0  0  0  0  0  0  0
   44.3820   36.3820   42.5910 H   0  0  0  0  0  0  0  0  0  0  0  0
   45.9250   32.6130   43.9970 H   0  0  0  0  0  0  0  0  0  0  0  0
   44.5080   35.5760   46.6790 H   0  0  0  0  0  0  0  0  0  0  0  0
  1 19  1  0  0  0  0
  2  8  1  0  0  0  0
  2  1  1  0  0  0  0
  3  2  2  0  0  0  0
  4  3  1  0  0  0  0
  4  5  2  0  0  0  0
  5  7  1  0  0  0  0
  5  1  1  0  0  0  0
  6  3  1  0  0  0  0
  8  9  1  0  0  0  0
  8 17  1  0  0  0  0
  9 10  2  0  0  0  0
 10 11  1  0  0  0  0
 11 12  1  0  0  0  0
 12 13  1  0  0  0  0
 14 12  2  0  0  0  0
 15 14  1  0  0  0  0
 16 17  1  0  0  0  0
 16 15  2  0  0  0  0
 17 11  2  0  0  0  0
 18 23  1  0  0  0  0
 19 18  2  0  0  0  0
 19 20  1  0  0  0  0
 20 21  2  0  0  0  0
 21 22  1  0  0  0  0
 22 26  1  0  0  0  0
 23 22  2  0  0  0  0
 24 18  1  0  0  0  0
 25 20  1  0  0  0  0
M  END
>  <minimizedAffinity>
-4.95574331

>  <minimizedRMSD>
2.95018911

$$$$
