
 OpenBabel03232520153D

 35 38  0  0  0  0  0  0  0  0999 V2000
   47.6150   34.1790   42.1510 C   0  0  0  0  0  0  0  0  0  0  0  0
   48.5120   35.3080   41.7890 C   0  0  0  0  0  0  0  0  0  0  0  0
   49.8530   35.3170   42.4570 C   0  0  0  0  0  0  0  0  0  0  0  0
   50.5220   33.9910   42.4770 C   0  0  0  0  0  0  0  0  0  0  0  0
   49.6460   32.8350   42.1270 C   0  0  0  0  0  0  0  0  0  0  0  0
   48.3000   33.0100   42.7620 C   0  0  0  0  0  0  0  0  0  0  0  0
   48.0300   36.2680   42.1550 H   0  0  0  0  0  0  0  0  0  0  0  0
   48.6900   35.4990   40.7360 H   0  0  0  0  0  0  0  0  0  0  0  0
   50.4450   36.1330   41.9950 H   0  0  0  0  0  0  0  0  0  0  0  0
   49.6770   35.5930   43.5380 H   0  0  0  0  0  0  0  0  0  0  0  0
   51.3390   34.0270   41.6960 H   0  0  0  0  0  0  0  0  0  0  0  0
   51.0840   33.7970   43.4370 H   0  0  0  0  0  0  0  0  0  0  0  0
   50.1190   31.9300   42.6200 H   0  0  0  0  0  0  0  0  0  0  0  0
   49.6310   32.5600   41.0560 H   0  0  0  0  0  0  0  0  0  0  0  0
   48.4850   33.2290   43.8340 H   0  0  0  0  0  0  0  0  0  0  0  0
   47.6520   32.1130   42.7060 H   0  0  0  0  0  0  0  0  0  0  0  0
   46.8370   33.6650   41.0180 N   0  0  0  0  0  0  0  0  0  0  0  0
   45.6510   32.9800   41.0590 C   0  0  0  0  0  0  0  0  0  0  0  0
   45.2220   32.6640   39.8490 N   0  0  0  0  0  0  0  0  0  0  0  0
   46.1130   33.1290   38.9560 C   0  0  0  0  0  0  0  0  0  0  0  0
   46.1440   33.0690   37.5820 C   0  0  0  0  0  0  0  0  0  0  0  0
   45.3230   32.5660   37.0840 H   0  0  0  0  0  0  0  0  0  0  0  0
   47.1910   33.6390   36.9550 N   0  0  0  0  0  0  0  0  0  0  0  0
   48.1830   34.2540   37.6610 C   0  0  0  0  0  0  0  0  0  0  0  0
   48.0870   34.2750   39.0030 N   0  0  0  0  0  0  0  0  0  0  0  0
   47.0970   33.7410   39.7010 C   0  0  0  0  0  0  0  0  0  0  0  0
   45.2920   34.3860   45.0480 C   0  0  0  0  0  0  0  0  0  0  0  0
   44.5550   35.5460   44.7730 C   0  0  0  0  0  0  0  0  0  0  0  0
   44.8640   36.2510   43.6010 C   0  0  0  0  0  0  0  0  0  0  0  0
   45.8560   35.7620   42.8110 N   0  0  0  0  0  0  0  0  0  0  0  0
   46.5510   34.6420   43.0960 C   0  0  0  0  0  0  0  0  0  0  0  0
   46.2560   33.9560   44.2290 N   0  0  0  0  0  0  0  0  0  0  0  0
   45.0350   33.8640   45.9510 H   0  0  0  0  0  0  0  0  0  0  0  0
   43.7650   35.9590   45.3790 H   0  0  0  0  0  0  0  0  0  0  0  0
   44.4020   37.1410   43.2550 H   0  0  0  0  0  0  0  0  0  0  0  0
  1  6  1  0  0  0  0
  1 31  1  0  0  0  0
  2  1  1  0  0  0  0
  2  7  1  0  0  0  0
  2  3  1  0  0  0  0
  3  4  1  0  0  0  0
  3 10  1  0  0  0  0
  4 12  1  0  0  0  0
  5  4  1  0  0  0  0
  5 13  1  0  0  0  0
  5  6  1  0  0  0  0
  6 15  1  0  0  0  0
  8  2  1  0  0  0  0
  9  3  1  0  0  0  0
 11  4  1  0  0  0  0
 14  5  1  0  0  0  0
 16  6  1  0  0  0  0
 17 18  1  0  0  0  0
 17  1  1  0  0  0  0
 19 18  2  0  0  0  0
 20 26  1  0  0  0  0
 20 19  1  0  0  0  0
 21 20  2  0  0  0  0
 22 21  1  0  0  0  0
 23 21  1  0  0  0  0
 23 24  2  0  0  0  0
 24 25  1  0  0  0  0
 25 26  2  0  0  0  0
 26 17  1  0  0  0  0
 27 33  1  0  0  0  0
 28 27  1  0  0  0  0
 28 34  1  0  0  0  0
 29 28  2  0  0  0  0
 30 31  2  0  0  0  0
 30 29  1  0  0  0  0
 31 32  1  0  0  0  0
 32 27  2  0  0  0  0
 35 29  1  0  0  0  0
M  END
>  <minimizedAffinity>
-6.23750496

>  <minimizedRMSD>
1.40496218

$$$$
