
 OpenBabel03232519343D

 49 52  0  0  1  0  0  0  0  0999 V2000
   47.1870   34.2270   40.1820 C   0  0  1  0  0  0  0  0  0  0  0  0
   48.3020   34.4170   39.1380 C   0  0  0  0  0  0  0  0  0  0  0  0
   47.7010   33.9150   37.8250 C   0  0  0  0  0  0  0  0  0  0  0  0
   47.5390   32.4300   37.9080 C   0  0  0  0  0  0  0  0  0  0  0  0
   47.6730   31.9580   39.3210 C   0  0  0  0  0  0  0  0  0  0  0  0
   46.8460   32.8280   40.2980 C   0  0  2  0  0  0  0  0  0  0  0  0
   46.4620   34.9750   39.8940 H   0  0  0  0  0  0  0  0  0  0  0  0
   49.2010   33.8530   39.3630 H   0  0  0  0  0  0  0  0  0  0  0  0
   48.5200   35.5150   39.0450 H   0  0  0  0  0  0  0  0  0  0  0  0
   48.4890   34.1890   37.0630 H   0  0  0  0  0  0  0  0  0  0  0  0
   46.8180   34.4690   37.5090 H   0  0  0  0  0  0  0  0  0  0  0  0
   46.6850   32.0170   37.3440 H   0  0  0  0  0  0  0  0  0  0  0  0
   48.4280   31.9730   37.3790 H   0  0  0  0  0  0  0  0  0  0  0  0
   47.2070   30.9400   39.3480 H   0  0  0  0  0  0  0  0  0  0  0  0
   48.7310   31.8870   39.6060 H   0  0  0  0  0  0  0  0  0  0  0  0
   47.2010   32.2480   41.1820 H   0  0  0  0  0  0  0  0  0  0  0  0
   47.6940   34.7850   41.5370 C   0  0  0  0  0  0  0  0  0  0  0  0
   47.4740   35.8420   41.6630 H   0  0  0  0  0  0  0  0  0  0  0  0
   48.8210   34.7520   41.4010 H   0  0  0  0  0  0  0  0  0  0  0  0
   47.2300   33.8420   42.5590 C   0  0  0  0  0  0  0  0  0  0  0  0
   48.1150   33.4330   43.0960 H   0  0  0  0  0  0  0  0  0  0  0  0
   46.5440   33.0200   42.2690 H   0  0  0  0  0  0  0  0  0  0  0  0
   46.1510   33.8120   44.7110 C   0  0  0  0  0  0  0  0  0  0  0  0
   46.3190   34.4640   43.4900 C   0  0  0  0  0  0  0  0  0  0  0  0
   45.6320   35.5800   43.1700 C   0  0  0  0  0  0  0  0  0  0  0  0
   44.7520   36.0630   44.0900 N   0  0  0  0  0  0  0  0  0  0  0  0
   44.5630   35.4480   45.2960 C   0  0  0  0  0  0  0  0  0  0  0  0
   45.2590   34.3320   45.6000 N   0  0  0  0  0  0  0  0  0  0  0  0
   46.7040   32.9190   44.9610 H   0  0  0  0  0  0  0  0  0  0  0  0
   45.6610   36.1680   42.2740 H   0  0  0  0  0  0  0  0  0  0  0  0
   43.8420   35.8990   45.9750 H   0  0  0  0  0  0  0  0  0  0  0  0
   45.4330   32.5480   39.8730 C   0  0  0  0  0  0  0  0  0  0  0  0
   45.3030   32.2970   38.8000 H   0  0  0  0  0  0  0  0  0  0  0  0
   45.0940   31.6450   40.4120 H   0  0  0  0  0  0  0  0  0  0  0  0
   44.5300   33.7520   40.0900 C   0  0  0  0  0  0  0  0  0  0  0  0
   44.9560   34.5380   39.3940 H   0  0  0  0  0  0  0  0  0  0  0  0
   44.3330   34.0570   41.0890 H   0  0  0  0  0  0  0  0  0  0  0  0
   43.2060   33.5060   39.4140 C   0  0  0  0  0  0  0  0  0  0  0  0
   42.9810   32.5760   38.4670 N   0  0  0  0  0  0  0  0  0  0  0  0
   41.7720   32.3850   37.9120 C   0  0  0  0  0  0  0  0  0  0  0  0
   40.6900   33.1090   38.2570 N   0  0  0  0  0  0  0  0  0  0  0  0
   40.8340   34.0570   39.1950 C   0  0  0  0  0  0  0  0  0  0  0  0
   39.7200   34.7720   39.5130 C   0  0  0  0  0  0  0  0  0  0  0  0
   39.8370   35.7610   40.4690 C   0  0  0  0  0  0  0  0  0  0  0  0
   38.9190   36.3250   40.7050 H   0  0  0  0  0  0  0  0  0  0  0  0
   41.0670   36.0080   41.0800 C   0  0  0  0  0  0  0  0  0  0  0  0
   41.0940   36.7900   41.8140 H   0  0  0  0  0  0  0  0  0  0  0  0
   42.1460   35.2390   40.7010 C   0  0  0  0  0  0  0  0  0  0  0  0
   42.0840   34.2360   39.7510 C   0  0  0  0  0  0  0  0  0  0  0  0
  1  7  1  6  0  0  0
  1  6  1  0  0  0  0
  1 17  1  0  0  0  0
  2  8  1  0  0  0  0
  2  1  1  0  0  0  0
  3  4  1  0  0  0  0
  3  2  1  0  0  0  0
  4  5  1  0  0  0  0
  5 14  1  0  0  0  0
  5 15  1  0  0  0  0
  5  6  1  0  0  0  0
  6 16  1  1  0  0  0
  9  2  1  0  0  0  0
 10  3  1  0  0  0  0
 11  3  1  0  0  0  0
 12  4  1  0  0  0  0
 13  4  1  0  0  0  0
 17 18  1  0  0  0  0
 17 20  1  0  0  0  0
 19 17  1  0  0  0  0
 20 21  1  0  0  0  0
 20 24  1  0  0  0  0
 22 20  1  0  0  0  0
 23 29  1  0  0  0  0
 23 28  1  0  0  0  0
 24 23  2  0  0  0  0
 25 24  1  0  0  0  0
 25 26  2  0  0  0  0
 26 27  1  0  0  0  0
 27 28  2  0  0  0  0
 27 31  1  0  0  0  0
 30 25  1  0  0  0  0
 32 35  1  0  0  0  0
 32  6  1  0  0  0  0
 32 34  1  0  0  0  0
 33 32  1  0  0  0  0
 35 37  1  0  0  0  0
 36 35  1  0  0  0  0
 38 49  1  0  0  0  0
 38 35  1  0  0  0  0
 39 38  2  0  0  0  0
 40 41  2  0  0  0  0
 40 39  1  0  0  0  0
 41 42  1  0  0  0  0
 42 43  2  0  0  0  0
 42 49  1  0  0  0  0
 43 44  1  0  0  0  0
 44 45  1  0  0  0  0
 44 46  2  0  0  0  0
 46 47  1  0  0  0  0
 48 46  1  0  0  0  0
 49 48  2  0  0  0  0
M  END
>  <minimizedAffinity>
-6.21134186

>  <minimizedRMSD>
1.22853982

$$$$
