
 OpenBabel03232521013D

 44 47  0  0  1  0  0  0  0  0999 V2000
   45.3520   32.9130   47.5130 C   0  0  0  0  0  0  0  0  0  0  0  0
   45.9050   32.6530   46.3000 C   0  0  0  0  0  0  0  0  0  0  0  0
   46.1710   31.3010   46.0600 C   0  0  0  0  0  0  0  0  0  0  0  0
   45.9060   30.3110   46.9510 N   0  0  0  0  0  0  0  0  0  0  0  0
   45.3400   30.6280   48.1770 C   0  0  0  0  0  0  0  0  0  0  0  0
   45.0800   31.9090   48.4250 N   0  0  0  0  0  0  0  0  0  0  0  0
   45.0630   29.6190   49.1290 N   0  0  0  0  0  0  0  0  0  0  0  0
   45.1100   33.9230   47.8040 H   0  0  0  0  0  0  0  0  0  0  0  0
   44.9760   29.9080   50.1280 H   0  0  0  0  0  0  0  0  0  0  0  0
   44.9500   28.6120   48.8370 H   0  0  0  0  0  0  0  0  0  0  0  0
   46.1510   33.6010   45.2690 C   0  0  2  0  0  0  0  0  0  0  0  0
   44.9470   34.6990   45.5000 C   0  0  0  0  0  0  0  0  0  0  0  0
   44.7160   35.6260   44.4270 C   0  0  0  0  0  0  0  0  0  0  0  0
   45.5110   35.5480   43.2000 C   0  0  1  0  0  0  0  0  0  0  0  0
   46.5690   34.5430   43.1530 C   0  0  0  0  0  0  0  0  0  0  0  0
   46.1180   33.3130   43.9060 C   0  0  0  0  0  0  0  0  0  0  0  0
   46.9700   34.3120   45.5890 H   0  0  0  0  0  0  0  0  0  0  0  0
   44.2740   34.8550   46.3340 H   0  0  0  0  0  0  0  0  0  0  0  0
   43.9510   36.3500   44.5410 H   0  0  0  0  0  0  0  0  0  0  0  0
   45.9460   36.5520   42.9900 H   0  0  0  0  0  0  0  0  0  0  0  0
   46.8090   34.3260   42.0720 H   0  0  0  0  0  0  0  0  0  0  0  0
   47.5070   34.9060   43.6380 H   0  0  0  0  0  0  0  0  0  0  0  0
   46.9730   32.6620   43.5780 H   0  0  0  0  0  0  0  0  0  0  0  0
   45.2020   32.8810   43.4560 H   0  0  0  0  0  0  0  0  0  0  0  0
   44.4940   35.2810   42.0520 C   0  0  0  0  0  0  0  0  0  0  0  0
   43.4360   34.4810   42.4530 F   0  0  0  0  0  0  0  0  0  0  0  0
   43.9460   36.5160   41.7200 F   0  0  0  0  0  0  0  0  0  0  0  0
   45.1650   34.8220   40.9350 F   0  0  0  0  0  0  0  0  0  0  0  0
   46.8110   30.6060   44.9590 C   0  0  0  0  0  0  0  0  0  0  0  0
   46.4750   29.8160   43.9080 C   0  0  0  0  0  0  0  0  0  0  0  0
   47.6530   29.4450   43.2430 C   0  0  0  0  0  0  0  0  0  0  0  0
   48.6410   30.0270   43.9230 N   0  0  0  0  0  0  0  0  0  0  0  0
   48.1710   30.7150   44.9360 N   0  0  0  0  0  0  0  0  0  0  0  0
   45.4330   29.6090   43.7520 H   0  0  0  0  0  0  0  0  0  0  0  0
   47.6300   28.8110   42.3680 H   0  0  0  0  0  0  0  0  0  0  0  0
   50.0330   29.8960   43.5640 C   0  0  0  0  0  0  0  0  0  0  0  0
   50.9100   29.2340   44.4170 C   0  0  0  0  0  0  0  0  0  0  0  0
   50.4740   28.8350   45.3440 H   0  0  0  0  0  0  0  0  0  0  0  0
   52.2620   29.0780   44.1220 C   0  0  0  0  0  3  0  0  0  0  0  0
   52.7450   29.6020   42.9420 C   0  0  0  0  0  0  0  0  0  0  0  0
   53.7830   29.4570   42.7620 H   0  0  0  0  0  0  0  0  0  0  0  0
   51.8770   30.2620   42.0890 C   0  0  0  0  0  0  0  0  0  0  0  0
   52.2580   30.6690   41.1670 H   0  0  0  0  0  0  0  0  0  0  0  0
   50.5300   30.4100   42.3960 C   0  0  0  0  0  3  0  0  0  0  0  0
  1  8  1  0  0  0  0
  1  6  1  0  0  0  0
  2  1  2  0  0  0  0
  3  2  1  0  0  0  0
  3  4  2  0  0  0  0
  4  5  1  0  0  0  0
  5  6  2  0  0  0  0
  5  7  1  0  0  0  0
  7  9  1  0  0  0  0
 10  7  1  0  0  0  0
 11 12  1  0  0  0  0
 11 17  1  1  0  0  0
 11  2  1  0  0  0  0
 12 18  1  0  0  0  0
 13 19  1  0  0  0  0
 13 12  2  0  0  0  0
 14 20  1  6  0  0  0
 14 13  1  0  0  0  0
 15 14  1  0  0  0  0
 15 22  1  0  0  0  0
 15 16  1  0  0  0  0
 16 11  1  0  0  0  0
 21 15  1  0  0  0  0
 23 16  1  0  0  0  0
 24 16  1  0  0  0  0
 25 26  1  0  0  0  0
 25 14  1  0  0  0  0
 27 25  1  0  0  0  0
 28 25  1  0  0  0  0
 29  3  1  0  0  0  0
 30 29  1  0  0  0  0
 31 30  2  0  0  0  0
 31 32  1  0  0  0  0
 32 33  1  0  0  0  0
 33 29  2  0  0  0  0
 34 30  1  0  0  0  0
 35 31  1  0  0  0  0
 36 32  1  0  0  0  0
 36 37  1  0  0  0  0
 37 38  1  0  0  0  0
 39 37  2  0  0  0  0
 40 39  1  0  0  0  0
 41 40  1  0  0  0  0
 42 44  1  0  0  0  0
 42 40  2  0  0  0  0
 43 42  1  0  0  0  0
 44 36  2  0  0  0  0
M  END
>  <minimizedAffinity>
-5.91010046

>  <minimizedRMSD>
0.20901987

$$$$
