
 OpenBabel03232521013D

 44 47  0  0  1  0  0  0  0  0999 V2000
   45.3500   32.9190   47.5090 C   0  0  0  0  0  0  0  0  0  0  0  0
   45.9030   32.6570   46.2960 C   0  0  0  0  0  0  0  0  0  0  0  0
   46.1700   31.3050   46.0580 C   0  0  0  0  0  0  0  0  0  0  0  0
   45.9050   30.3170   46.9510 N   0  0  0  0  0  0  0  0  0  0  0  0
   45.3400   30.6350   48.1760 C   0  0  0  0  0  0  0  0  0  0  0  0
   45.0790   31.9160   48.4220 N   0  0  0  0  0  0  0  0  0  0  0  0
   45.0640   29.6270   49.1300 N   0  0  0  0  0  0  0  0  0  0  0  0
   45.1080   33.9300   47.7990 H   0  0  0  0  0  0  0  0  0  0  0  0
   44.9770   29.9170   50.1290 H   0  0  0  0  0  0  0  0  0  0  0  0
   44.9510   28.6200   48.8390 H   0  0  0  0  0  0  0  0  0  0  0  0
   46.1480   33.6040   45.2640 C   0  0  2  0  0  0  0  0  0  0  0  0
   44.9460   34.7030   45.4960 C   0  0  0  0  0  0  0  0  0  0  0  0
   44.7140   35.6300   44.4220 C   0  0  0  0  0  0  0  0  0  0  0  0
   45.5070   35.5500   43.1940 C   0  0  1  0  0  0  0  0  0  0  0  0
   46.5630   34.5430   43.1460 C   0  0  0  0  0  0  0  0  0  0  0  0
   46.1130   33.3150   43.9010 C   0  0  0  0  0  0  0  0  0  0  0  0
   46.9690   34.3150   45.5810 H   0  0  0  0  0  0  0  0  0  0  0  0
   44.2750   34.8610   46.3310 H   0  0  0  0  0  0  0  0  0  0  0  0
   43.9500   36.3540   44.5360 H   0  0  0  0  0  0  0  0  0  0  0  0
   45.9420   36.5530   42.9820 H   0  0  0  0  0  0  0  0  0  0  0  0
   46.8010   34.3250   42.0650 H   0  0  0  0  0  0  0  0  0  0  0  0
   47.5030   34.9070   43.6300 H   0  0  0  0  0  0  0  0  0  0  0  0
   46.9670   32.6630   43.5720 H   0  0  0  0  0  0  0  0  0  0  0  0
   45.1950   32.8830   43.4540 H   0  0  0  0  0  0  0  0  0  0  0  0
   44.4870   35.2820   42.0480 C   0  0  0  0  0  0  0  0  0  0  0  0
   43.4300   34.4840   42.4510 F   0  0  0  0  0  0  0  0  0  0  0  0
   43.9400   36.5180   41.7160 F   0  0  0  0  0  0  0  0  0  0  0  0
   45.1560   34.8210   40.9300 F   0  0  0  0  0  0  0  0  0  0  0  0
   46.8100   30.6090   44.9580 C   0  0  0  0  0  0  0  0  0  0  0  0
   46.4740   29.8180   43.9080 C   0  0  0  0  0  0  0  0  0  0  0  0
   47.6510   29.4470   43.2430 C   0  0  0  0  0  0  0  0  0  0  0  0
   48.6390   30.0280   43.9220 N   0  0  0  0  0  0  0  0  0  0  0  0
   48.1700   30.7180   44.9350 N   0  0  0  0  0  0  0  0  0  0  0  0
   45.4320   29.6110   43.7520 H   0  0  0  0  0  0  0  0  0  0  0  0
   47.6290   28.8110   42.3690 H   0  0  0  0  0  0  0  0  0  0  0  0
   50.0320   29.8980   43.5640 C   0  0  0  0  0  0  0  0  0  0  0  0
   50.9080   29.2350   44.4170 C   0  0  0  0  0  0  0  0  0  0  0  0
   50.4730   28.8370   45.3450 H   0  0  0  0  0  0  0  0  0  0  0  0
   52.2610   29.0790   44.1220 C   0  0  0  0  0  3  0  0  0  0  0  0
   52.7430   29.6020   42.9430 C   0  0  0  0  0  0  0  0  0  0  0  0
   53.7810   29.4560   42.7630 H   0  0  0  0  0  0  0  0  0  0  0  0
   51.8760   30.2620   42.0880 C   0  0  0  0  0  0  0  0  0  0  0  0
   52.2580   30.6690   41.1670 H   0  0  0  0  0  0  0  0  0  0  0  0
   50.5290   30.4100   42.3960 C   0  0  0  0  0  3  0  0  0  0  0  0
  1  8  1  0  0  0  0
  1  6  1  0  0  0  0
  2  1  2  0  0  0  0
  3  2  1  0  0  0  0
  3  4  2  0  0  0  0
  4  5  1  0  0  0  0
  5  6  2  0  0  0  0
  5  7  1  0  0  0  0
  7  9  1  0  0  0  0
 10  7  1  0  0  0  0
 11 12  1  0  0  0  0
 11 17  1  1  0  0  0
 11  2  1  0  0  0  0
 12 18  1  0  0  0  0
 13 19  1  0  0  0  0
 13 12  2  0  0  0  0
 14 20  1  6  0  0  0
 14 13  1  0  0  0  0
 15 14  1  0  0  0  0
 15 22  1  0  0  0  0
 15 16  1  0  0  0  0
 16 11  1  0  0  0  0
 21 15  1  0  0  0  0
 23 16  1  0  0  0  0
 24 16  1  0  0  0  0
 25 26  1  0  0  0  0
 25 14  1  0  0  0  0
 27 25  1  0  0  0  0
 28 25  1  0  0  0  0
 29  3  1  0  0  0  0
 30 29  1  0  0  0  0
 31 30  2  0  0  0  0
 31 32  1  0  0  0  0
 32 33  1  0  0  0  0
 33 29  2  0  0  0  0
 34 30  1  0  0  0  0
 35 31  1  0  0  0  0
 36 32  1  0  0  0  0
 36 37  1  0  0  0  0
 37 38  1  0  0  0  0
 39 37  2  0  0  0  0
 40 39  1  0  0  0  0
 41 40  1  0  0  0  0
 42 44  1  0  0  0  0
 42 40  2  0  0  0  0
 43 42  1  0  0  0  0
 44 36  2  0  0  0  0
M  END
>  <minimizedAffinity>
-5.91063166

>  <minimizedRMSD>
0.252337366

$$$$
