
 OpenBabel03232521013D

 44 47  0  0  1  0  0  0  0  0999 V2000
   45.3500   32.9150   47.5090 C   0  0  0  0  0  0  0  0  0  0  0  0
   45.9030   32.6540   46.2970 C   0  0  0  0  0  0  0  0  0  0  0  0
   46.1700   31.3010   46.0580 C   0  0  0  0  0  0  0  0  0  0  0  0
   45.9060   30.3130   46.9510 N   0  0  0  0  0  0  0  0  0  0  0  0
   45.3400   30.6310   48.1760 C   0  0  0  0  0  0  0  0  0  0  0  0
   45.0790   31.9120   48.4220 N   0  0  0  0  0  0  0  0  0  0  0  0
   45.0640   29.6240   49.1300 N   0  0  0  0  0  0  0  0  0  0  0  0
   45.1080   33.9260   47.7990 H   0  0  0  0  0  0  0  0  0  0  0  0
   44.9770   29.9130   50.1290 H   0  0  0  0  0  0  0  0  0  0  0  0
   44.9510   28.6160   48.8390 H   0  0  0  0  0  0  0  0  0  0  0  0
   46.1490   33.6010   45.2640 C   0  0  2  0  0  0  0  0  0  0  0  0
   44.9480   34.7000   45.4970 C   0  0  0  0  0  0  0  0  0  0  0  0
   44.7160   35.6280   44.4240 C   0  0  0  0  0  0  0  0  0  0  0  0
   45.5080   35.5470   43.1950 C   0  0  1  0  0  0  0  0  0  0  0  0
   46.5630   34.5400   43.1460 C   0  0  0  0  0  0  0  0  0  0  0  0
   46.1120   33.3110   43.9010 C   0  0  0  0  0  0  0  0  0  0  0  0
   46.9700   34.3110   45.5810 H   0  0  0  0  0  0  0  0  0  0  0  0
   44.2770   34.8590   46.3320 H   0  0  0  0  0  0  0  0  0  0  0  0
   43.9520   36.3530   44.5390 H   0  0  0  0  0  0  0  0  0  0  0  0
   45.9430   36.5500   42.9830 H   0  0  0  0  0  0  0  0  0  0  0  0
   46.8010   34.3210   42.0650 H   0  0  0  0  0  0  0  0  0  0  0  0
   47.5030   34.9020   43.6300 H   0  0  0  0  0  0  0  0  0  0  0  0
   46.9650   32.6590   43.5720 H   0  0  0  0  0  0  0  0  0  0  0  0
   45.1940   32.8810   43.4540 H   0  0  0  0  0  0  0  0  0  0  0  0
   44.4870   35.2810   42.0500 C   0  0  0  0  0  0  0  0  0  0  0  0
   43.4320   34.4800   42.4520 F   0  0  0  0  0  0  0  0  0  0  0  0
   43.9380   36.5160   41.7210 F   0  0  0  0  0  0  0  0  0  0  0  0
   45.1550   34.8230   40.9300 F   0  0  0  0  0  0  0  0  0  0  0  0
   46.8110   30.6050   44.9590 C   0  0  0  0  0  0  0  0  0  0  0  0
   46.4750   29.8140   43.9080 C   0  0  0  0  0  0  0  0  0  0  0  0
   47.6530   29.4430   43.2440 C   0  0  0  0  0  0  0  0  0  0  0  0
   48.6410   30.0260   43.9220 N   0  0  0  0  0  0  0  0  0  0  0  0
   48.1710   30.7160   44.9350 N   0  0  0  0  0  0  0  0  0  0  0  0
   45.4340   29.6060   43.7530 H   0  0  0  0  0  0  0  0  0  0  0  0
   47.6300   28.8070   42.3700 H   0  0  0  0  0  0  0  0  0  0  0  0
   50.0330   29.8960   43.5640 C   0  0  0  0  0  0  0  0  0  0  0  0
   50.9100   29.2340   44.4170 C   0  0  0  0  0  0  0  0  0  0  0  0
   50.4750   28.8370   45.3460 H   0  0  0  0  0  0  0  0  0  0  0  0
   52.2640   29.0790   44.1220 C   0  0  0  0  0  3  0  0  0  0  0  0
   52.7440   29.6020   42.9420 C   0  0  0  0  0  0  0  0  0  0  0  0
   53.7820   29.4570   42.7620 H   0  0  0  0  0  0  0  0  0  0  0  0
   51.8770   30.2620   42.0880 C   0  0  0  0  0  0  0  0  0  0  0  0
   52.2580   30.6680   41.1660 H   0  0  0  0  0  0  0  0  0  0  0  0
   50.5300   30.4090   42.3950 C   0  0  0  0  0  3  0  0  0  0  0  0
  1  8  1  0  0  0  0
  1  6  1  0  0  0  0
  2  1  2  0  0  0  0
  3  2  1  0  0  0  0
  3  4  2  0  0  0  0
  4  5  1  0  0  0  0
  5  6  2  0  0  0  0
  5  7  1  0  0  0  0
  7  9  1  0  0  0  0
 10  7  1  0  0  0  0
 11 12  1  0  0  0  0
 11 17  1  1  0  0  0
 11  2  1  0  0  0  0
 12 18  1  0  0  0  0
 13 19  1  0  0  0  0
 13 12  2  0  0  0  0
 14 20  1  6  0  0  0
 14 13  1  0  0  0  0
 15 14  1  0  0  0  0
 15 22  1  0  0  0  0
 15 16  1  0  0  0  0
 16 11  1  0  0  0  0
 21 15  1  0  0  0  0
 23 16  1  0  0  0  0
 24 16  1  0  0  0  0
 25 26  1  0  0  0  0
 25 14  1  0  0  0  0
 27 25  1  0  0  0  0
 28 25  1  0  0  0  0
 29  3  1  0  0  0  0
 30 29  1  0  0  0  0
 31 30  2  0  0  0  0
 31 32  1  0  0  0  0
 32 33  1  0  0  0  0
 33 29  2  0  0  0  0
 34 30  1  0  0  0  0
 35 31  1  0  0  0  0
 36 32  1  0  0  0  0
 36 37  1  0  0  0  0
 37 38  1  0  0  0  0
 39 37  2  0  0  0  0
 40 39  1  0  0  0  0
 41 40  1  0  0  0  0
 42 44  1  0  0  0  0
 42 40  2  0  0  0  0
 43 42  1  0  0  0  0
 44 36  2  0  0  0  0
M  END
>  <minimizedAffinity>
-5.9060173

>  <minimizedRMSD>
0.330684751

$$$$
