
 OpenBabel03232519203D

 26 27  0  0  1  0  0  0  0  0999 V2000
   45.0110   30.8000   46.7750 N   0  0  0  0  0  0  0  0  0  0  0  0
   44.9790   29.3490   46.8880 C   0  0  0  0  0  0  0  0  0  0  0  0
   46.4360   29.0060   47.0520 C   0  0  0  0  0  0  0  0  0  0  0  0
   47.0100   30.0980   47.8870 C   0  0  0  0  0  0  0  0  0  0  0  0
   46.0940   31.2780   47.4970 C   0  0  2  0  0  0  0  0  0  0  0  0
   44.8330   31.1430   45.8260 H   0  0  0  0  0  0  0  0  0  0  0  0
   44.3510   29.0010   47.7110 H   0  0  0  0  0  0  0  0  0  0  0  0
   44.6720   28.9340   45.9020 H   0  0  0  0  0  0  0  0  0  0  0  0
   46.9410   28.9730   46.0670 H   0  0  0  0  0  0  0  0  0  0  0  0
   46.5070   27.9990   47.5490 H   0  0  0  0  0  0  0  0  0  0  0  0
   48.0500   30.3170   47.5670 H   0  0  0  0  0  0  0  0  0  0  0  0
   46.9060   29.8310   48.9280 H   0  0  0  0  0  0  0  0  0  0  0  0
   45.6850   31.9260   49.1870 S   0  0  0  0  0  0  0  0  0  0  0  0
   46.7290   32.8190   49.4950 H   0  0  0  0  0  0  0  0  0  0  0  0
   46.6970   32.3530   46.8960 O   0  0  0  0  0  0  0  0  0  0  0  0
   46.7110   32.5570   45.4740 C   0  0  0  0  0  0  0  0  0  0  0  0
   47.2540   31.7080   44.7470 O   0  0  0  0  0  0  0  0  0  0  0  0
   44.5550   35.4870   45.2640 C   0  0  0  0  0  0  0  0  0  0  0  0
   44.8040   36.0000   43.9790 C   0  0  0  0  0  0  0  0  0  0  0  0
   45.7380   35.3290   43.1920 C   0  0  0  0  0  0  0  0  0  0  0  0
   46.3520   34.2110   43.7220 N   0  0  0  0  0  0  0  0  0  0  0  0
   46.0580   33.7730   44.9800 C   0  0  0  0  0  0  0  0  0  0  0  0
   45.1730   34.4030   45.7340 N   0  0  0  0  0  0  0  0  0  0  0  0
   43.8250   35.9940   45.9060 H   0  0  0  0  0  0  0  0  0  0  0  0
   44.3120   36.8620   43.6020 H   0  0  0  0  0  0  0  0  0  0  0  0
   45.9530   35.6870   42.2140 H   0  0  0  0  0  0  0  0  0  0  0  0
  1  2  1  0  0  0  0
  1  5  1  0  0  0  0
  2  3  1  0  0  0  0
  2  7  1  0  0  0  0
  3 10  1  0  0  0  0
  3  4  1  0  0  0  0
  4 12  1  0  0  0  0
  5 15  1  6  0  0  0
  5  4  1  0  0  0  0
  5 13  1  0  0  0  0
  6  1  1  0  0  0  0
  8  2  1  0  0  0  0
  9  3  1  0  0  0  0
 11  4  1  0  0  0  0
 13 14  1  0  0  0  0
 16 15  1  0  0  0  0
 17 16  2  0  0  0  0
 18 23  1  0  0  0  0
 18 24  1  0  0  0  0
 19 18  2  0  0  0  0
 20 21  2  0  0  0  0
 20 19  1  0  0  0  0
 21 22  1  0  0  0  0
 22 16  1  0  0  0  0
 22 23  2  0  0  0  0
 25 19  1  0  0  0  0
 26 20  1  0  0  0  0
M  END
>  <minimizedAffinity>
-4.3562336

>  <minimizedRMSD>
1.51195943

$$$$
