
 OpenBabel03232515283D

 21 22  0  0  1  0  0  0  0  0999 V2000
   45.4830   33.5830   44.8130 C   0  0  1  0  0  0  0  0  0  0  0  0
   44.6580   33.0050   44.3640 H   0  0  0  0  0  0  0  0  0  0  0  0
   47.6040   33.0970   43.7480 C   0  0  0  0  0  0  0  0  0  0  0  0
   46.4910   33.9430   43.8180 C   0  0  0  0  0  0  0  0  0  0  0  0
   46.4410   35.0280   42.9490 C   0  0  0  0  0  0  0  0  0  0  0  0
   47.4810   35.1830   42.0970 N   0  0  0  0  0  0  0  0  0  0  0  0
   48.5400   34.3710   42.0370 C   0  0  0  0  0  0  0  0  0  0  0  0
   48.6060   33.3300   42.8590 N   0  0  0  0  0  0  0  0  0  0  0  0
   47.7780   32.2140   44.3620 H   0  0  0  0  0  0  0  0  0  0  0  0
   45.5820   35.6610   43.0190 H   0  0  0  0  0  0  0  0  0  0  0  0
   49.2160   34.7220   41.2740 H   0  0  0  0  0  0  0  0  0  0  0  0
   46.1140   32.8100   45.8970 C   0  0  0  0  0  0  0  0  0  0  0  0
   46.1170   31.4500   46.1900 C   0  0  0  0  0  0  0  0  0  0  0  0
   46.8620   31.2570   47.3180 N   0  0  0  0  0  0  0  0  0  0  0  0
   47.3190   32.4370   47.7350 C   0  0  0  0  0  0  0  0  0  0  0  0
   46.8630   33.3660   46.8720 N   0  0  0  0  0  0  0  0  0  0  0  0
   47.0830   34.3790   46.9800 H   0  0  0  0  0  0  0  0  0  0  0  0
   44.9240   34.8890   45.3640 C   0  0  0  0  0  0  0  0  0  0  0  0
   44.5710   35.5570   44.5840 H   0  0  0  0  0  0  0  0  0  0  0  0
   45.7460   35.3610   45.9520 H   0  0  0  0  0  0  0  0  0  0  0  0
   44.1310   34.6240   46.1060 H   0  0  0  0  0  0  0  0  0  0  0  0
  1  2  1  6  0  0  0
  1 18  1  0  0  0  0
  1 12  1  0  0  0  0
  3  4  1  0  0  0  0
  3  9  1  0  0  0  0
  4  1  1  0  0  0  0
  5 10  1  0  0  0  0
  5  4  2  0  0  0  0
  6  5  1  0  0  0  0
  7  6  2  0  0  0  0
  7  8  1  0  0  0  0
  8  3  2  0  0  0  0
 11  7  1  0  0  0  0
 12 13  2  0  0  0  0
 12 16  1  0  0  0  0
 13 14  1  0  0  0  0
 14 15  2  0  0  0  0
 16 17  1  0  0  0  0
 16 15  1  0  0  0  0
 18 20  1  0  0  0  0
 18 21  1  0  0  0  0
 19 18  1  0  0  0  0
M  END
>  <minimizedAffinity>
-4.17211342

>  <minimizedRMSD>
5.50429869

$$$$
