
 OpenBabel03232520573D

 30 31  0  0  1  0  0  0  0  0999 V2000
   46.1360   33.7010   45.2950 C   0  0  2  0  0  0  0  0  0  0  0  0
   44.9760   34.7530   45.4550 C   0  0  0  0  0  0  0  0  0  0  0  0
   44.7200   35.6350   44.3440 C   0  0  0  0  0  0  0  0  0  0  0  0
   45.5120   35.5300   43.1260 C   0  0  1  0  0  0  0  0  0  0  0  0
   46.6320   34.5790   43.1440 C   0  0  0  0  0  0  0  0  0  0  0  0
   46.2000   33.3430   43.9100 C   0  0  0  0  0  0  0  0  0  0  0  0
   46.9690   34.4070   45.6120 H   0  0  0  0  0  0  0  0  0  0  0  0
   44.2790   34.9840   46.2520 H   0  0  0  0  0  0  0  0  0  0  0  0
   43.9340   36.3760   44.4020 H   0  0  0  0  0  0  0  0  0  0  0  0
   45.8920   36.5570   42.8850 H   0  0  0  0  0  0  0  0  0  0  0  0
   46.9760   34.3440   42.1290 H   0  0  0  0  0  0  0  0  0  0  0  0
   47.4600   35.0260   43.7480 H   0  0  0  0  0  0  0  0  0  0  0  0
   46.7560   32.5410   43.4900 H   0  0  0  0  0  0  0  0  0  0  0  0
   45.1310   33.1780   43.5390 H   0  0  0  0  0  0  0  0  0  0  0  0
   45.1870   32.9350   47.4460 C   0  0  0  0  0  0  0  0  0  0  0  0
   45.9320   32.7260   46.3240 C   0  0  0  0  0  0  0  0  0  0  0  0
   46.4790   31.4380   46.1810 C   0  0  0  0  0  0  0  0  0  0  0  0
   46.2790   30.4810   47.0910 N   0  0  0  0  0  0  0  0  0  0  0  0
   45.5170   30.7370   48.2110 C   0  0  0  0  0  0  0  0  0  0  0  0
   44.9890   31.9480   48.3660 N   0  0  0  0  0  0  0  0  0  0  0  0
   45.3280   29.7100   49.1900 N   0  0  0  0  0  0  0  0  0  0  0  0
   44.7280   33.8730   47.6580 H   0  0  0  0  0  0  0  0  0  0  0  0
   45.2830   30.0400   50.1820 H   0  0  0  0  0  0  0  0  0  0  0  0
   45.2490   28.7140   48.8360 H   0  0  0  0  0  0  0  0  0  0  0  0
   47.5130   30.7800   44.8810 S   0  0  0  0  0  0  0  0  0  0  0  0
   48.6010   31.6230   44.6250 H   0  0  0  0  0  0  0  0  0  0  0  0
   44.5430   35.1860   41.9670 C   0  0  0  0  0  0  0  0  0  0  0  0
   43.5570   34.3070   42.3440 F   0  0  0  0  0  0  0  0  0  0  0  0
   43.9020   36.3790   41.6270 F   0  0  0  0  0  0  0  0  0  0  0  0
   45.2720   34.7790   40.8570 F   0  0  0  0  0  0  0  0  0  0  0  0
  1  2  1  0  0  0  0
  1  7  1  1  0  0  0
  1 16  1  0  0  0  0
  2  8  1  0  0  0  0
  3  9  1  0  0  0  0
  3  2  2  0  0  0  0
  4 10  1  6  0  0  0
  4  5  1  0  0  0  0
  4  3  1  0  0  0  0
  5 12  1  0  0  0  0
  5  6  1  0  0  0  0
  6  1  1  0  0  0  0
 11  5  1  0  0  0  0
 13  6  1  0  0  0  0
 14  6  1  0  0  0  0
 15 22  1  0  0  0  0
 15 20  1  0  0  0  0
 16 15  2  0  0  0  0
 17 16  1  0  0  0  0
 17 18  2  0  0  0  0
 18 19  1  0  0  0  0
 19 20  2  0  0  0  0
 19 21  1  0  0  0  0
 21 23  1  0  0  0  0
 24 21  1  0  0  0  0
 25 17  1  0  0  0  0
 26 25  1  0  0  0  0
 27 28  1  0  0  0  0
 27  4  1  0  0  0  0
 29 27  1  0  0  0  0
 30 27  1  0  0  0  0
M  END
>  <minimizedAffinity>
-5.63165903

>  <minimizedRMSD>
0.161396205

$$$$
