
 OpenBabel03232520333D

 43 47  0  0  1  0  0  0  0  0999 V2000
   46.7860   34.5290   41.3580 C   0  0  0  0  0  0  0  0  0  0  0  0
   48.0620   34.9170   40.9660 C   0  0  0  0  0  0  0  0  0  0  0  0
   48.3050   34.5560   39.7120 N   0  0  0  0  0  0  0  0  0  0  0  0
   47.1900   33.9300   39.2770 C   0  0  0  0  0  0  0  0  0  0  0  0
   46.9090   33.3520   38.0280 C   0  0  0  0  0  0  0  0  0  0  0  0
   45.6900   32.7740   37.8390 C   0  0  0  0  0  0  0  0  0  0  0  0
   44.6990   32.7060   38.7780 C   0  0  0  0  0  0  0  0  0  0  0  0
   45.0330   33.2880   39.9770 C   0  0  0  0  0  0  0  0  0  0  0  0
   46.2270   33.8910   40.2610 C   0  0  0  0  0  0  0  0  0  0  0  0
   49.1510   34.6860   39.1010 H   0  0  0  0  0  0  0  0  0  0  0  0
   47.6530   33.3680   37.2260 H   0  0  0  0  0  0  0  0  0  0  0  0
   45.5210   32.3360   36.8460 H   0  0  0  0  0  0  0  0  0  0  0  0
   43.7410   32.2490   38.6220 H   0  0  0  0  0  0  0  0  0  0  0  0
   44.3020   33.2860   40.7990 H   0  0  0  0  0  0  0  0  0  0  0  0
   44.7300   36.0510   44.0640 C   0  0  0  0  0  0  0  0  0  0  0  0
   45.3530   35.8750   42.8060 C   0  0  0  0  0  0  0  0  0  0  0  0
   46.1350   34.7320   42.6450 C   0  0  0  0  0  0  0  0  0  0  0  0
   46.2760   33.8370   43.6790 N   0  0  0  0  0  0  0  0  0  0  0  0
   45.6490   34.0710   44.8580 C   0  0  0  0  0  0  0  0  0  0  0  0
   44.8800   35.1650   45.0600 N   0  0  0  0  0  0  0  0  0  0  0  0
   44.1100   36.9050   44.2730 H   0  0  0  0  0  0  0  0  0  0  0  0
   45.2080   36.6090   42.0320 H   0  0  0  0  0  0  0  0  0  0  0  0
   45.8840   33.2580   45.5320 H   0  0  0  0  0  0  0  0  0  0  0  0
   49.0050   35.6370   41.8540 C   0  0  0  0  0  0  0  0  0  0  0  0
   48.4260   36.2650   42.5850 H   0  0  0  0  0  0  0  0  0  0  0  0
   49.6170   36.3490   41.2680 H   0  0  0  0  0  0  0  0  0  0  0  0
   49.8840   34.7000   42.6170 C   0  0  0  0  0  0  0  0  0  0  0  0
   50.8520   35.2290   42.8000 H   0  0  0  0  0  0  0  0  0  0  0  0
   49.4570   34.5260   43.6290 H   0  0  0  0  0  0  0  0  0  0  0  0
   50.1630   33.4070   41.9080 C   0  0  1  0  0  0  0  0  0  0  0  0
   51.1280   32.4030   42.3750 C   0  0  0  0  0  0  0  0  0  0  0  0
   49.6820   32.1670   42.6750 C   0  0  2  0  0  0  0  0  0  0  0  0
   49.9530   33.4500   40.8290 H   0  0  0  0  0  0  0  0  0  0  0  0
   51.8280   32.7030   43.1930 H   0  0  0  0  0  0  0  0  0  0  0  0
   51.6410   31.7940   41.6050 H   0  0  0  0  0  0  0  0  0  0  0  0
   49.4340   32.2590   43.7400 H   0  0  0  0  0  0  0  0  0  0  0  0
   49.0790   31.1440   41.9760 O   0  0  0  0  0  0  0  0  0  0  0  0
   48.4900   30.2270   42.8290 C   0  0  0  0  0  0  0  0  0  0  0  0
   47.9890   31.0130   44.0260 C   0  0  0  0  0  0  0  0  0  0  0  0
   47.2920   30.1530   45.0540 C   0  0  0  0  0  0  0  0  0  0  0  0
   47.9470   28.7950   45.1480 C   0  0  0  0  0  0  0  0  0  0  0  0
   49.4090   29.0070   44.8140 C   0  0  0  0  0  0  0  0  0  0  0  0
   49.5270   29.2690   43.3120 C   0  0  0  0  0  0  0  0  0  0  0  0
  1 17  1  0  0  0  0
  2  1  2  0  0  0  0
  2 24  1  0  0  0  0
  3  2  1  0  0  0  0
  4  3  1  0  0  0  0
  4  9  1  0  0  0  0
  5  4  2  0  0  0  0
  6  5  1  0  0  0  0
  6  7  2  0  0  0  0
  7  8  1  0  0  0  0
  8  9  2  0  0  0  0
  8 14  1  0  0  0  0
  9  1  1  0  0  0  0
 10  3  1  0  0  0  0
 11  5  1  0  0  0  0
 12  6  1  0  0  0  0
 13  7  1  0  0  0  0
 15 21  1  0  0  0  0
 15 20  1  0  0  0  0
 16 15  2  0  0  0  0
 17 16  1  0  0  0  0
 17 18  2  0  0  0  0
 18 19  1  0  0  0  0
 19 20  2  0  0  0  0
 19 23  1  0  0  0  0
 22 16  1  0  0  0  0
 24 25  1  0  0  0  0
 24 27  1  0  0  0  0
 26 24  1  0  0  0  0
 27 28  1  0  0  0  0
 27 29  1  0  0  0  0
 30 33  1  6  0  0  0
 30 31  1  0  0  0  0
 30 27  1  0  0  0  0
 30 32  1  0  0  0  0
 31 32  1  0  0  0  0
 31 34  1  0  0  0  0
 32 36  1  1  0  0  0
 35 31  1  0  0  0  0
 37 32  1  0  0  0  0
 37 38  1  0  0  0  0
 38 43  1  0  0  0  0
 38 39  1  0  0  0  0
 39 40  1  0  0  0  0
 40 41  1  0  0  0  0
 42 41  1  0  0  0  0
 43 42  1  0  0  0  0
M  END
>  <minimizedAffinity>
-5.70510912

>  <minimizedRMSD>
0.680403829

$$$$
