
 OpenBabel03232519183D

 39 41  0  0  1  0  0  0  0  0999 V2000
   43.5050   33.5120   41.2690 C   0  0  1  0  0  0  0  0  0  0  0  0
   43.7850   32.4820   41.6150 H   0  0  0  0  0  0  0  0  0  0  0  0
   42.0400   33.5760   41.1790 C   0  0  0  0  0  0  0  0  0  0  0  0
   41.4320   34.8410   40.8730 C   0  0  0  0  0  0  0  0  0  0  0  0
   40.0350   34.9420   40.7750 C   0  0  0  0  0  0  0  0  0  0  0  0
   39.3300   33.8030   40.9790 N   0  0  0  0  0  0  0  0  0  0  0  0
   39.9120   32.6390   41.2610 C   0  0  0  0  0  0  0  0  0  0  0  0
   41.2610   32.5100   41.3640 N   0  0  0  0  0  0  0  0  0  0  0  0
   42.0840   35.6940   40.7270 H   0  0  0  0  0  0  0  0  0  0  0  0
   39.5930   35.8900   40.5470 H   0  0  0  0  0  0  0  0  0  0  0  0
   39.1170   31.4180   41.4760 C   0  0  0  0  0  0  0  0  0  0  0  0
   39.7540   30.3100   42.0620 C   0  0  0  0  0  0  0  0  0  0  0  0
   38.3190   29.0960   42.0920 S   0  0  0  0  0  0  0  0  0  0  0  0
   37.1610   30.3520   41.3040 C   0  0  0  0  0  0  0  0  0  0  0  0
   37.8520   31.2140   41.1880 N   0  0  0  0  0  0  0  0  0  0  0  0
   40.7130   30.0700   42.4240 H   0  0  0  0  0  0  0  0  0  0  0  0
   36.0590   30.3070   41.0050 H   0  0  0  0  0  0  0  0  0  0  0  0
   44.1130   33.6940   39.8940 C   0  0  0  0  0  0  0  0  0  0  0  0
   44.4400   34.7490   39.8140 H   0  0  0  0  0  0  0  0  0  0  0  0
   43.3320   33.4750   39.1200 H   0  0  0  0  0  0  0  0  0  0  0  0
   44.9330   32.9880   39.6980 H   0  0  0  0  0  0  0  0  0  0  0  0
   44.0620   34.5040   42.2160 C   0  0  0  0  0  0  0  0  0  0  0  0
   44.0900   35.5090   41.8110 H   0  0  0  0  0  0  0  0  0  0  0  0
   43.3120   34.5680   43.0650 H   0  0  0  0  0  0  0  0  0  0  0  0
   45.2990   34.1790   42.8110 N   0  0  0  0  0  0  0  0  0  0  0  0
   45.7520   33.1660   43.7050 C   0  0  0  0  0  0  0  0  0  0  0  0
   46.3830   32.0560   43.2040 C   0  0  0  0  0  0  0  0  0  0  0  0
   46.8490   31.0330   44.0020 C   0  0  0  0  0  0  0  0  0  0  0  0
   46.6500   31.1790   45.3100 N   0  0  0  0  0  0  0  0  0  0  0  0
   46.0260   32.2750   45.8140 C   0  0  0  0  0  0  0  0  0  0  0  0
   45.5670   33.2810   45.0410 N   0  0  0  0  0  0  0  0  0  0  0  0
   46.5360   31.9560   42.1240 H   0  0  0  0  0  0  0  0  0  0  0  0
   47.3410   30.1750   43.5730 H   0  0  0  0  0  0  0  0  0  0  0  0
   45.8070   32.3770   47.5890 S   0  0  0  0  0  0  0  0  0  0  0  0
   47.0020   32.0270   48.2480 H   0  0  0  0  0  0  0  0  0  0  0  0
   46.4340   34.9700   42.5430 C   0  0  0  0  0  0  0  0  0  0  0  0
   47.4340   34.7270   43.4390 F   0  0  0  0  0  0  0  0  0  0  0  0
   45.9900   36.2990   42.8200 F   0  0  0  0  0  0  0  0  0  0  0  0
   46.8870   34.9200   41.2540 F   0  0  0  0  0  0  0  0  0  0  0  0
  1  2  1  1  0  0  0
  1 22  1  0  0  0  0
  3  1  1  0  0  0  0
  3  8  1  0  0  0  0
  4  3  2  0  0  0  0
  5  4  1  0  0  0  0
  5  6  2  0  0  0  0
  6  7  1  0  0  0  0
  7  8  2  0  0  0  0
  7 11  1  0  0  0  0
  9  4  1  0  0  0  0
 10  5  1  0  0  0  0
 11 12  2  0  0  0  0
 12 13  1  0  0  0  0
 12 16  1  0  0  0  0
 14 13  1  0  0  0  0
 15 14  2  0  0  0  0
 15 11  1  0  0  0  0
 17 14  1  0  0  0  0
 18  1  1  0  0  0  0
 19 18  1  0  0  0  0
 20 18  1  0  0  0  0
 21 18  1  0  0  0  0
 22 25  1  0  0  0  0
 22 24  1  0  0  0  0
 23 22  1  0  0  0  0
 25 26  1  0  0  0  0
 26 31  1  0  0  0  0
 27 26  2  0  0  0  0
 27 28  1  0  0  0  0
 28 29  2  0  0  0  0
 29 30  1  0  0  0  0
 30 34  1  0  0  0  0
 31 30  2  0  0  0  0
 32 27  1  0  0  0  0
 33 28  1  0  0  0  0
 34 35  1  0  0  0  0
 36 25  1  0  0  0  0
 36 38  1  0  0  0  0
 36 37  1  0  0  0  0
 39 36  1  0  0  0  0
M  END
>  <minimizedAffinity>
-5.42411661

>  <minimizedRMSD>
0.655382037

$$$$
