
 OpenBabel03232516003D

 34 36  0  0  0  0  0  0  0  0999 V2000
   48.3640   34.6880   41.6430 C   0  0  0  0  0  0  0  0  0  0  0  0
   45.2060   35.1190   43.6980 C   0  0  0  0  0  0  0  0  0  0  0  0
   46.1340   35.3290   42.6510 C   0  0  0  0  0  0  0  0  0  0  0  0
   47.3280   34.5660   42.6620 C   0  0  0  0  0  0  0  0  0  0  0  0
   47.5100   33.6780   43.6770 N   0  0  0  0  0  0  0  0  0  0  0  0
   46.5830   33.5210   44.6530 C   0  0  0  0  0  0  0  0  0  0  0  0
   45.4500   34.2290   44.6630 N   0  0  0  0  0  0  0  0  0  0  0  0
   44.3330   35.7430   43.6030 H   0  0  0  0  0  0  0  0  0  0  0  0
   46.0010   36.0270   41.8470 H   0  0  0  0  0  0  0  0  0  0  0  0
   46.7920   32.7990   45.4260 H   0  0  0  0  0  0  0  0  0  0  0  0
   47.7050   34.3950   40.2860 C   0  0  0  0  0  0  0  0  0  0  0  0
   46.7650   33.8290   40.4170 H   0  0  0  0  0  0  0  0  0  0  0  0
   47.4270   35.3690   39.8210 H   0  0  0  0  0  0  0  0  0  0  0  0
   48.3620   33.8350   39.6170 H   0  0  0  0  0  0  0  0  0  0  0  0
   49.0660   35.9820   41.5900 C   0  0  0  0  0  0  0  0  0  0  0  0
   49.5650   36.1600   40.6330 H   0  0  0  0  0  0  0  0  0  0  0  0
   49.8480   35.9940   42.3850 H   0  0  0  0  0  0  0  0  0  0  0  0
   48.3750   36.8320   41.8350 H   0  0  0  0  0  0  0  0  0  0  0  0
   49.3860   33.5870   41.8520 C   0  0  0  0  0  0  0  0  0  0  0  0
   49.2280   33.1390   42.8670 H   0  0  0  0  0  0  0  0  0  0  0  0
   50.3950   34.0550   41.8790 H   0  0  0  0  0  0  0  0  0  0  0  0
   49.2450   32.5680   40.9110 O   0  0  0  0  0  0  0  0  0  0  0  0
   50.3920   31.9620   40.4110 C   0  0  0  0  0  0  0  0  0  0  0  0
   51.5790   32.0520   41.0500 N   0  0  0  0  0  0  0  0  0  0  0  0
   52.4780   31.4050   40.3820 O   0  0  0  0  0  0  0  0  0  0  0  0
   51.9710   30.8740   39.3130 C   0  0  0  0  0  0  0  0  0  0  0  0
   50.6870   31.2190   39.3330 N   0  0  0  0  0  0  0  0  0  0  0  0
   52.6140   30.1050   38.3420 O   0  0  0  0  0  0  0  0  0  0  0  0
   53.9860   30.2580   38.1710 C   0  0  0  0  0  0  0  0  0  0  0  0
   54.4040   30.1460   36.7070 C   0  0  0  0  0  0  0  0  0  0  0  0
   55.8110   30.7440   36.6750 C   0  0  0  0  0  0  0  0  0  0  0  0
   56.7300   29.8640   37.4520 C   0  0  0  0  0  0  0  0  0  0  0  0
   56.2350   29.3570   38.7480 C   0  0  0  0  0  0  0  0  0  0  0  0
   54.7710   29.2030   38.9150 C   0  0  0  0  0  0  0  0  0  0  0  0
  1 19  1  0  0  0  0
  1  4  1  0  0  0  0
  2  7  1  0  0  0  0
  3  4  1  0  0  0  0
  3  2  2  0  0  0  0
  4  5  2  0  0  0  0
  5  6  1  0  0  0  0
  6  7  2  0  0  0  0
  6 10  1  0  0  0  0
  8  2  1  0  0  0  0
  9  3  1  0  0  0  0
 11 12  1  0  0  0  0
 11  1  1  0  0  0  0
 13 11  1  0  0  0  0
 14 11  1  0  0  0  0
 15  1  1  0  0  0  0
 15 18  1  0  0  0  0
 15 17  1  0  0  0  0
 16 15  1  0  0  0  0
 19 21  1  0  0  0  0
 19 20  1  0  0  0  0
 22 19  1  0  0  0  0
 23 22  1  0  0  0  0
 23 24  2  0  0  0  0
 25 24  1  0  0  0  0
 26 27  2  0  0  0  0
 26 25  1  0  0  0  0
 27 23  1  0  0  0  0
 28 26  1  0  0  0  0
 29 28  1  0  0  0  0
 29 34  1  0  0  0  0
 30 29  1  0  0  0  0
 31 30  1  0  0  0  0
 31 32  1  0  0  0  0
 32 33  1  0  0  0  0
 33 34  1  0  0  0  0
M  END
>  <minimizedAffinity>
-4.94578314

>  <minimizedRMSD>
2.0191977

$$$$
