
 OpenBabel03232519343D

 43 45  0  0  1  0  0  0  0  0999 V2000
   47.0610   34.4370   40.4480 C   0  0  1  0  0  0  0  0  0  0  0  0
   48.3480   34.3270   39.6140 C   0  0  0  0  0  0  0  0  0  0  0  0
   47.8650   34.0230   38.1970 C   0  0  0  0  0  0  0  0  0  0  0  0
   47.3190   32.6260   38.1730 C   0  0  0  0  0  0  0  0  0  0  0  0
   47.0950   32.1200   39.5640 C   0  0  0  0  0  0  0  0  0  0  0  0
   46.3610   33.1640   40.4390 C   0  0  2  0  0  0  0  0  0  0  0  0
   46.5930   35.3250   40.0170 H   0  0  0  0  0  0  0  0  0  0  0  0
   48.8650   35.2920   39.6680 H   0  0  0  0  0  0  0  0  0  0  0  0
   49.0350   33.5680   39.9960 H   0  0  0  0  0  0  0  0  0  0  0  0
   48.8010   34.1020   37.5730 H   0  0  0  0  0  0  0  0  0  0  0  0
   47.1700   34.8040   37.8950 H   0  0  0  0  0  0  0  0  0  0  0  0
   48.1050   31.9670   37.7450 H   0  0  0  0  0  0  0  0  0  0  0  0
   46.4520   32.5040   37.4950 H   0  0  0  0  0  0  0  0  0  0  0  0
   46.3890   31.2600   39.4880 H   0  0  0  0  0  0  0  0  0  0  0  0
   48.0460   31.7890   40.0220 H   0  0  0  0  0  0  0  0  0  0  0  0
   46.4250   32.5290   41.3460 H   0  0  0  0  0  0  0  0  0  0  0  0
   47.4350   34.8310   41.8920 C   0  0  0  0  0  0  0  0  0  0  0  0
   48.5750   34.8060   41.9290 H   0  0  0  0  0  0  0  0  0  0  0  0
   47.2040   35.8740   42.1160 H   0  0  0  0  0  0  0  0  0  0  0  0
   46.9210   33.7770   42.7670 C   0  0  0  0  0  0  0  0  0  0  0  0
   47.7070   33.0980   43.1750 H   0  0  0  0  0  0  0  0  0  0  0  0
   46.1220   33.0870   42.3860 H   0  0  0  0  0  0  0  0  0  0  0  0
   46.0990   33.5880   45.0250 C   0  0  0  0  0  0  0  0  0  0  0  0
   46.1130   34.3160   43.8350 C   0  0  0  0  0  0  0  0  0  0  0  0
   45.3700   35.4310   43.6710 C   0  0  0  0  0  0  0  0  0  0  0  0
   44.5950   35.8290   44.7140 N   0  0  0  0  0  0  0  0  0  0  0  0
   44.5560   35.1440   45.8840 C   0  0  0  0  0  0  0  0  0  0  0  0
   45.3070   34.0300   46.0350 N   0  0  0  0  0  0  0  0  0  0  0  0
   46.6980   32.6960   45.1530 H   0  0  0  0  0  0  0  0  0  0  0  0
   45.2890   36.0660   42.8160 H   0  0  0  0  0  0  0  0  0  0  0  0
   43.9630   35.4180   46.7300 H   0  0  0  0  0  0  0  0  0  0  0  0
   45.0220   33.2540   39.7830 C   0  0  0  0  0  0  0  0  0  0  0  0
   44.9880   33.5340   38.7390 H   0  0  0  0  0  0  0  0  0  0  0  0
   44.5390   32.2440   39.8460 H   0  0  0  0  0  0  0  0  0  0  0  0
   44.0840   34.1970   40.5300 C   0  0  0  0  0  0  0  0  0  0  0  0
   43.6480   33.8490   41.4380 H   0  0  0  0  0  0  0  0  0  0  0  0
   44.4630   35.2530   40.5250 H   0  0  0  0  0  0  0  0  0  0  0  0
   42.9040   34.3050   39.5660 C   0  0  0  0  0  0  0  0  0  0  0  0
   41.9210   33.4080   39.1940 C   0  0  0  0  0  0  0  0  0  0  0  0
   41.1210   34.0230   38.3040 N   0  0  0  0  0  0  0  0  0  0  0  0
   41.6090   35.2640   38.1390 C   0  0  0  0  0  0  0  0  0  0  0  0
   42.7000   35.4580   38.9030 N   0  0  0  0  0  0  0  0  0  0  0  0
   43.2420   36.3510   38.9320 H   0  0  0  0  0  0  0  0  0  0  0  0
  1  7  1  6  0  0  0
  1 17  1  0  0  0  0
  2  8  1  0  0  0  0
  2  9  1  0  0  0  0
  2  1  1  0  0  0  0
  3  2  1  0  0  0  0
  4  3  1  0  0  0  0
  4  5  1  0  0  0  0
  5 15  1  0  0  0  0
  5  6  1  0  0  0  0
  6  1  1  0  0  0  0
  6 16  1  1  0  0  0
 10  3  1  0  0  0  0
 11  3  1  0  0  0  0
 12  4  1  0  0  0  0
 13  4  1  0  0  0  0
 14  5  1  0  0  0  0
 17 18  1  0  0  0  0
 17 19  1  0  0  0  0
 17 20  1  0  0  0  0
 20 21  1  0  0  0  0
 20 24  1  0  0  0  0
 22 20  1  0  0  0  0
 23 29  1  0  0  0  0
 23 28  1  0  0  0  0
 24 23  2  0  0  0  0
 25 24  1  0  0  0  0
 25 26  2  0  0  0  0
 26 27  1  0  0  0  0
 27 28  2  0  0  0  0
 27 31  1  0  0  0  0
 30 25  1  0  0  0  0
 32 34  1  0  0  0  0
 32  6  1  0  0  0  0
 32 35  1  0  0  0  0
 33 32  1  0  0  0  0
 35 36  1  0  0  0  0
 37 35  1  0  0  0  0
 38 35  1  0  0  0  0
 39 38  2  0  0  0  0
 40 39  1  0  0  0  0
 41 40  2  0  0  0  0
 41 42  1  0  0  0  0
 42 43  1  0  0  0  0
 42 38  1  0  0  0  0
M  END
>  <minimizedAffinity>
-4.90978146

>  <minimizedRMSD>
1.67674661

$$$$
