
 OpenBabel03232519133D

 30 32  0  0  1  0  0  0  0  0999 V2000
   45.5290   34.7050   43.7080 C   0  0  0  0  0  0  0  0  0  0  0  0
   46.5830   34.4420   42.8160 C   0  0  0  0  0  0  0  0  0  0  0  0
   47.5740   33.5100   43.1830 C   0  0  0  0  0  0  0  0  0  0  0  0
   47.4460   32.9090   44.4010 N   0  0  0  0  0  0  0  0  0  0  0  0
   46.4390   33.1820   45.2170 C   0  0  0  0  0  0  0  0  0  0  0  0
   45.4710   34.0760   44.8880 N   0  0  0  0  0  0  0  0  0  0  0  0
   46.6330   34.9430   41.8700 H   0  0  0  0  0  0  0  0  0  0  0  0
   48.3790   33.2980   42.5190 H   0  0  0  0  0  0  0  0  0  0  0  0
   46.3080   32.5380   46.5450 C   0  0  0  0  0  0  0  0  0  0  0  0
   47.2810   31.5760   46.8890 C   0  0  0  0  0  0  0  0  0  0  0  0
   46.6910   31.1150   48.6020 S   0  0  0  0  0  0  0  0  0  0  0  0
   45.2540   32.3180   48.4910 C   0  0  0  0  0  0  0  0  0  0  0  0
   45.4000   32.7540   47.4770 N   0  0  0  0  0  0  0  0  0  0  0  0
   48.1190   31.1420   46.4600 H   0  0  0  0  0  0  0  0  0  0  0  0
   44.2960   32.7230   49.1470 H   0  0  0  0  0  0  0  0  0  0  0  0
   44.4920   35.6880   43.3170 C   0  0  1  0  0  0  0  0  0  0  0  0
   43.6140   35.5580   43.9590 H   0  0  0  0  0  0  0  0  0  0  0  0
   44.9930   37.1010   43.5700 C   0  0  0  0  0  0  0  0  0  0  0  0
   45.8080   37.2870   42.8250 H   0  0  0  0  0  0  0  0  0  0  0  0
   44.1600   37.8010   43.3560 H   0  0  0  0  0  0  0  0  0  0  0  0
   45.3430   37.1510   44.6020 H   0  0  0  0  0  0  0  0  0  0  0  0
   44.0970   35.5670   41.8790 C   0  0  0  0  0  0  0  0  0  0  0  0
   44.2110   36.6040   41.4450 H   0  0  0  0  0  0  0  0  0  0  0  0
   44.8680   34.9760   41.3320 H   0  0  0  0  0  0  0  0  0  0  0  0
   42.7500   35.0280   41.6790 C   0  0  0  0  0  0  0  0  0  0  0  0
   42.5860   33.7080   41.3690 N   0  0  0  0  0  0  0  0  0  0  0  0
   41.3220   33.4700   41.2430 O   0  0  0  0  0  0  0  0  0  0  0  0
   40.6140   34.5380   41.4460 C   0  0  0  0  0  0  0  0  0  0  0  0
   39.5410   34.5880   41.3950 H   0  0  0  0  0  0  0  0  0  0  0  0
   41.5120   35.5290   41.7220 N   0  0  0  0  0  0  0  0  0  0  0  0
  1  6  1  0  0  0  0
  2  3  1  0  0  0  0
  2  1  2  0  0  0  0
  3  4  2  0  0  0  0
  4  5  1  0  0  0  0
  5  9  1  0  0  0  0
  6  5  2  0  0  0  0
  7  2  1  0  0  0  0
  8  3  1  0  0  0  0
  9 10  2  0  0  0  0
  9 13  1  0  0  0  0
 10 11  1  0  0  0  0
 12 11  1  0  0  0  0
 12 15  1  0  0  0  0
 13 12  2  0  0  0  0
 14 10  1  0  0  0  0
 16 18  1  0  0  0  0
 16  1  1  0  0  0  0
 16 17  1  1  0  0  0
 18 21  1  0  0  0  0
 19 18  1  0  0  0  0
 20 18  1  0  0  0  0
 22 16  1  0  0  0  0
 23 22  1  0  0  0  0
 24 22  1  0  0  0  0
 25 30  1  0  0  0  0
 25 22  1  0  0  0  0
 26 25  2  0  0  0  0
 27 26  1  0  0  0  0
 27 28  1  0  0  0  0
 28 30  2  0  0  0  0
 29 28  1  0  0  0  0
M  END
>  <minimizedAffinity>
-4.95340633

>  <minimizedRMSD>
1.09149945

$$$$
