
 OpenBabel03232519523D

 42 45  0  0  1  0  0  0  0  0999 V2000
   46.5560   33.8300   42.4630 N   0  0  0  0  0  0  0  0  0  0  0  0
   47.7470   34.2920   41.7660 C   0  0  0  0  0  0  0  0  0  0  0  0
   47.3740   33.9320   40.3450 C   0  0  0  0  0  0  0  0  0  0  0  0
   46.9200   32.5110   40.5180 C   0  0  0  0  0  0  0  0  0  0  0  0
   46.1800   32.5670   41.8230 C   0  0  2  0  0  0  0  0  0  0  0  0
   48.6610   33.7650   42.0870 H   0  0  0  0  0  0  0  0  0  0  0  0
   47.7940   35.3790   41.8480 H   0  0  0  0  0  0  0  0  0  0  0  0
   48.2990   33.9030   39.7470 H   0  0  0  0  0  0  0  0  0  0  0  0
   46.6080   34.6000   39.9620 H   0  0  0  0  0  0  0  0  0  0  0  0
   47.7490   31.8020   40.4800 H   0  0  0  0  0  0  0  0  0  0  0  0
   46.1680   32.2990   39.7210 H   0  0  0  0  0  0  0  0  0  0  0  0
   46.6810   31.7960   42.4630 H   0  0  0  0  0  0  0  0  0  0  0  0
   44.5220   36.1500   44.5240 C   0  0  0  0  0  0  0  0  0  0  0  0
   45.1910   35.6220   43.4250 C   0  0  0  0  0  0  0  0  0  0  0  0
   45.8630   34.4180   43.5280 C   0  0  0  0  0  0  0  0  0  0  0  0
   45.8220   33.8020   44.7510 N   0  0  0  0  0  0  0  0  0  0  0  0
   45.1730   34.3150   45.8160 C   0  0  0  0  0  0  0  0  0  0  0  0
   44.5260   35.4860   45.6930 N   0  0  0  0  0  0  0  0  0  0  0  0
   45.2500   33.5230   46.9900 N   0  0  0  0  0  0  0  0  0  0  0  0
   43.9880   37.0850   44.4840 H   0  0  0  0  0  0  0  0  0  0  0  0
   45.1830   36.1660   42.4780 H   0  0  0  0  0  0  0  0  0  0  0  0
   44.4920   33.0060   47.4720 H   0  0  0  0  0  0  0  0  0  0  0  0
   46.1630   33.3860   47.5110 H   0  0  0  0  0  0  0  0  0  0  0  0
   44.7850   32.3270   41.7570 N   0  0  0  0  0  0  0  0  0  0  0  0
   43.9290   32.8310   40.8770 C   0  0  0  0  0  0  0  0  0  0  0  0
   42.5770   32.5380   40.8930 C   0  0  0  0  0  0  0  0  0  0  0  0
   42.0710   31.6830   41.8590 C   0  0  0  0  0  0  0  0  0  0  0  0
   40.8380   31.3740   41.9270 O   0  0  0  0  0  0  0  0  0  0  0  0
   42.9360   31.1750   42.7450 N   0  0  0  0  0  0  0  0  0  0  0  0
   44.2250   31.4930   42.6830 C   0  0  0  0  0  0  0  0  0  0  0  0
   44.9780   30.9630   43.5670 O   0  0  0  0  0  0  0  0  0  0  0  0
   44.3220   33.5000   40.1220 H   0  0  0  0  0  0  0  0  0  0  0  0
   42.5510   30.5380   43.4630 H   0  0  0  0  0  0  0  0  0  0  0  0
   41.6340   33.1020   39.9110 C   0  0  0  0  0  0  0  0  0  0  0  0
   42.1820   33.1330   38.9230 H   0  0  0  0  0  0  0  0  0  0  0  0
   40.8330   32.3500   39.7530 H   0  0  0  0  0  0  0  0  0  0  0  0
   41.1080   34.4300   40.2610 C   0  0  0  0  0  0  0  0  0  0  0  0
   41.6050   35.0710   41.3600 N   0  0  0  0  0  0  0  0  0  0  0  0
   41.0180   36.2200   41.4980 O   0  0  0  0  0  0  0  0  0  0  0  0
   40.1450   36.4040   40.5540 C   0  0  0  0  0  0  0  0  0  0  0  0
   39.5080   37.2480   40.4020 H   0  0  0  0  0  0  0  0  0  0  0  0
   40.2000   35.2840   39.7790 N   0  0  0  0  0  0  0  0  0  0  0  0
  1 15  1  0  0  0  0
  2  7  1  0  0  0  0
  2  6  1  0  0  0  0
  2  1  1  0  0  0  0
  3  4  1  0  0  0  0
  3  2  1  0  0  0  0
  4  5  1  0  0  0  0
  5  1  1  0  0  0  0
  5 12  1  1  0  0  0
  8  3  1  0  0  0  0
  9  3  1  0  0  0  0
 10  4  1  0  0  0  0
 11  4  1  0  0  0  0
 13 18  1  0  0  0  0
 14 15  1  0  0  0  0
 14 13  2  0  0  0  0
 15 16  2  0  0  0  0
 16 17  1  0  0  0  0
 17 19  1  0  0  0  0
 18 17  2  0  0  0  0
 19 22  1  0  0  0  0
 19 23  1  0  0  0  0
 20 13  1  0  0  0  0
 21 14  1  0  0  0  0
 24  5  1  0  0  0  0
 24 30  1  0  0  0  0
 25 26  2  0  0  0  0
 25 24  1  0  0  0  0
 26 27  1  0  0  0  0
 27 28  2  0  0  0  0
 27 29  1  0  0  0  0
 29 33  1  0  0  0  0
 30 29  1  0  0  0  0
 30 31  2  0  0  0  0
 32 25  1  0  0  0  0
 34 37  1  0  0  0  0
 34 26  1  0  0  0  0
 35 34  1  0  0  0  0
 36 34  1  0  0  0  0
 37 38  2  0  0  0  0
 38 39  1  0  0  0  0
 40 39  1  0  0  0  0
 41 40  1  0  0  0  0
 42 37  1  0  0  0  0
 42 40  2  0  0  0  0
M  END
>  <minimizedAffinity>
-6.3386364

>  <minimizedRMSD>
1.41574252

$$$$
