
 OpenBabel03232519563D

 21 23  0  0  0  0  0  0  0  0999 V2000
   43.9500   34.0500   41.5610 N   0  0  0  0  0  0  0  0  0  0  0  0
   44.6490   33.8640   40.4400 C   0  0  0  0  0  0  0  0  0  0  0  0
   43.6710   33.7570   39.4130 C   0  0  0  0  0  0  0  0  0  0  0  0
   42.4450   33.8850   39.9370 N   0  0  0  0  0  0  0  0  0  0  0  0
   42.5960   34.0690   41.2740 C   0  0  0  0  0  0  0  0  0  0  0  0
   43.6810   33.6050   38.3690 H   0  0  0  0  0  0  0  0  0  0  0  0
   41.8060   34.2080   42.0020 H   0  0  0  0  0  0  0  0  0  0  0  0
   44.1800   35.4590   43.4790 C   0  0  0  0  0  0  0  0  0  0  0  0
   44.4200   34.1720   42.8670 C   0  0  0  0  0  0  0  0  0  0  0  0
   45.0740   33.1850   43.6260 C   0  0  0  0  0  0  0  0  0  0  0  0
   45.4550   33.4780   44.8980 N   0  0  0  0  0  0  0  0  0  0  0  0
   45.2100   34.7120   45.4430 C   0  0  0  0  0  0  0  0  0  0  0  0
   44.5760   35.6990   44.7400 N   0  0  0  0  0  0  0  0  0  0  0  0
   43.6800   36.2400   42.9290 H   0  0  0  0  0  0  0  0  0  0  0  0
   45.2440   32.2340   43.2200 H   0  0  0  0  0  0  0  0  0  0  0  0
   45.5480   34.8590   46.4620 H   0  0  0  0  0  0  0  0  0  0  0  0
   46.0070   33.7840   40.0950 C   0  0  0  0  0  0  0  0  0  0  0  0
   47.1600   34.3070   40.5020 C   0  0  0  0  0  0  0  0  0  0  0  0
   48.3620   34.1490   39.9940 C   0  0  0  0  0  0  0  0  0  0  0  0
   48.3860   33.3080   38.8710 C   0  0  0  0  0  0  0  0  0  0  0  0
   46.5720   32.8230   38.6760 S   0  0  0  0  0  0  0  0  0  0  0  0
  1  9  1  0  0  0  0
  2  1  1  0  0  0  0
  3  4  1  0  0  0  0
  3  2  2  0  0  0  0
  4  5  2  0  0  0  0
  5  1  1  0  0  0  0
  5  7  1  0  0  0  0
  6  3  1  0  0  0  0
  8 13  1  0  0  0  0
  9  8  2  0  0  0  0
  9 10  1  0  0  0  0
 10 11  2  0  0  0  0
 11 12  1  0  0  0  0
 12 16  1  0  0  0  0
 13 12  2  0  0  0  0
 14  8  1  0  0  0  0
 15 10  1  0  0  0  0
 17  2  1  0  0  0  0
 17 18  2  0  0  0  0
 19 18  1  0  0  0  0
 20 19  2  0  0  0  0
 21 20  1  0  0  0  0
 21 17  1  0  0  0  0
M  END
>  <minimizedAffinity>
-3.96754503

>  <minimizedRMSD>
1.32313907

$$$$
