
 OpenBabel03232521013D

 45 49  0  0  1  0  0  0  0  0999 V2000
   45.4420   32.9270   47.5120 C   0  0  0  0  0  0  0  0  0  0  0  0
   45.9320   32.6580   46.2750 C   0  0  0  0  0  0  0  0  0  0  0  0
   46.1300   31.2940   46.0190 C   0  0  0  0  0  0  0  0  0  0  0  0
   45.8610   30.3090   46.9110 N   0  0  0  0  0  0  0  0  0  0  0  0
   45.3620   30.6420   48.1590 C   0  0  0  0  0  0  0  0  0  0  0  0
   45.1650   31.9400   48.4300 N   0  0  0  0  0  0  0  0  0  0  0  0
   45.0780   29.6370   49.1130 N   0  0  0  0  0  0  0  0  0  0  0  0
   45.2560   33.9180   47.8200 H   0  0  0  0  0  0  0  0  0  0  0  0
   44.2480   29.8270   49.7500 H   0  0  0  0  0  0  0  0  0  0  0  0
   45.6420   28.7610   49.1940 H   0  0  0  0  0  0  0  0  0  0  0  0
   46.1650   33.6030   45.2350 C   0  0  2  0  0  0  0  0  0  0  0  0
   44.9550   34.6980   45.4770 C   0  0  0  0  0  0  0  0  0  0  0  0
   44.7150   35.6250   44.4070 C   0  0  0  0  0  0  0  0  0  0  0  0
   45.5040   35.5420   43.1700 C   0  0  1  0  0  0  0  0  0  0  0  0
   46.5480   34.5290   43.1090 C   0  0  0  0  0  0  0  0  0  0  0  0
   46.0990   33.3080   43.8750 C   0  0  0  0  0  0  0  0  0  0  0  0
   46.9430   34.3540   45.5580 H   0  0  0  0  0  0  0  0  0  0  0  0
   44.2960   34.8350   46.3270 H   0  0  0  0  0  0  0  0  0  0  0  0
   43.9320   36.3580   44.5330 H   0  0  0  0  0  0  0  0  0  0  0  0
   45.9350   36.5440   42.9670 H   0  0  0  0  0  0  0  0  0  0  0  0
   46.7380   34.2910   42.0200 H   0  0  0  0  0  0  0  0  0  0  0  0
   47.5370   34.8280   43.4980 H   0  0  0  0  0  0  0  0  0  0  0  0
   46.9320   32.6420   43.5280 H   0  0  0  0  0  0  0  0  0  0  0  0
   45.1170   32.9470   43.4820 H   0  0  0  0  0  0  0  0  0  0  0  0
   44.4680   35.2880   42.0360 C   0  0  0  0  0  0  0  0  0  0  0  0
   43.4140   34.4850   42.4460 F   0  0  0  0  0  0  0  0  0  0  0  0
   43.9220   36.5260   41.7110 F   0  0  0  0  0  0  0  0  0  0  0  0
   45.1200   34.8220   40.9110 F   0  0  0  0  0  0  0  0  0  0  0  0
   46.6980   30.5820   44.8870 C   0  0  0  0  0  0  0  0  0  0  0  0
   46.2820   29.8250   43.8390 C   0  0  0  0  0  0  0  0  0  0  0  0
   47.4310   29.4130   43.1310 C   0  0  0  0  0  0  0  0  0  0  0  0
   48.4650   29.9390   43.7830 N   0  0  0  0  0  0  0  0  0  0  0  0
   48.0690   30.6330   44.8220 N   0  0  0  0  0  0  0  0  0  0  0  0
   45.2300   29.6740   43.7260 H   0  0  0  0  0  0  0  0  0  0  0  0
   47.3350   28.7980   42.2600 H   0  0  0  0  0  0  0  0  0  0  0  0
   49.8350   29.7430   43.3600 C   0  0  0  0  0  0  0  0  0  0  0  0
   50.7010   28.8420   43.9950 C   0  0  0  0  0  3  0  0  0  0  0  0
   51.8960   28.8910   43.3710 N   0  0  0  0  0  0  0  0  0  0  0  0
   51.8290   29.7860   42.3650 C   0  0  0  0  0  0  0  0  0  0  0  0
   52.7820   30.1890   41.4460 C   0  0  0  0  0  3  0  0  0  0  0  0
   52.3780   31.1400   40.5320 C   0  0  0  0  0  3  0  0  0  0  0  0
   51.1060   31.6880   40.5010 C   0  0  0  0  0  3  0  0  0  0  0  0
   50.1710   31.2720   41.4260 C   0  0  0  0  0  3  0  0  0  0  0  0
   50.5430   30.3340   42.3390 C   0  0  0  0  0  0  0  0  0  0  0  0
   52.7080   28.2970   43.6740 H   0  0  0  0  0  0  0  0  0  0  0  0
  1  8  1  0  0  0  0
  1  6  1  0  0  0  0
  2  1  2  0  0  0  0
  3  2  1  0  0  0  0
  3  4  2  0  0  0  0
  4  5  1  0  0  0  0
  5  6  2  0  0  0  0
  5  7  1  0  0  0  0
  7 10  1  0  0  0  0
  7  9  1  0  0  0  0
 11 12  1  0  0  0  0
 11 17  1  1  0  0  0
 11  2  1  0  0  0  0
 12 18  1  0  0  0  0
 13 19  1  0  0  0  0
 13 12  2  0  0  0  0
 14 20  1  6  0  0  0
 14 13  1  0  0  0  0
 15 14  1  0  0  0  0
 15 22  1  0  0  0  0
 15 16  1  0  0  0  0
 16 11  1  0  0  0  0
 21 15  1  0  0  0  0
 23 16  1  0  0  0  0
 24 16  1  0  0  0  0
 25 26  1  0  0  0  0
 25 14  1  0  0  0  0
 27 25  1  0  0  0  0
 28 25  1  0  0  0  0
 29  3  1  0  0  0  0
 30 29  1  0  0  0  0
 31 32  1  0  0  0  0
 31 30  2  0  0  0  0
 32 33  1  0  0  0  0
 33 29  2  0  0  0  0
 34 30  1  0  0  0  0
 35 31  1  0  0  0  0
 36 32  1  0  0  0  0
 36 37  2  0  0  0  0
 38 45  1  0  0  0  0
 38 37  1  0  0  0  0
 39 38  1  0  0  0  0
 40 39  2  0  0  0  0
 41 40  1  0  0  0  0
 42 41  2  0  0  0  0
 42 43  1  0  0  0  0
 43 44  2  0  0  0  0
 44 39  1  0  0  0  0
 44 36  1  0  0  0  0
M  END
>  <minimizedAffinity>
-6.2922864

>  <minimizedRMSD>
1.3478663

$$$$
