
 OpenBabel03232521013D

 45 49  0  0  1  0  0  0  0  0999 V2000
   45.3400   32.8200   47.4590 C   0  0  0  0  0  0  0  0  0  0  0  0
   45.9390   32.5980   46.2610 C   0  0  0  0  0  0  0  0  0  0  0  0
   46.2550   31.2550   46.0150 C   0  0  0  0  0  0  0  0  0  0  0  0
   45.9930   30.2440   46.8810 N   0  0  0  0  0  0  0  0  0  0  0  0
   45.3800   30.5290   48.0890 C   0  0  0  0  0  0  0  0  0  0  0  0
   45.0690   31.8070   48.3500 N   0  0  0  0  0  0  0  0  0  0  0  0
   45.1000   29.4970   49.0160 N   0  0  0  0  0  0  0  0  0  0  0  0
   45.0590   33.7920   47.7560 H   0  0  0  0  0  0  0  0  0  0  0  0
   44.2130   29.6200   49.5890 H   0  0  0  0  0  0  0  0  0  0  0  0
   45.7190   28.6640   49.1350 H   0  0  0  0  0  0  0  0  0  0  0  0
   46.1780   33.5670   45.2450 C   0  0  2  0  0  0  0  0  0  0  0  0
   44.9610   34.6520   45.4980 C   0  0  0  0  0  0  0  0  0  0  0  0
   44.7280   35.6020   44.4470 C   0  0  0  0  0  0  0  0  0  0  0  0
   45.5310   35.5500   43.2170 C   0  0  1  0  0  0  0  0  0  0  0  0
   46.5800   34.5420   43.1440 C   0  0  0  0  0  0  0  0  0  0  0  0
   46.1280   33.3030   43.8780 C   0  0  0  0  0  0  0  0  0  0  0  0
   46.9500   34.3140   45.5930 H   0  0  0  0  0  0  0  0  0  0  0  0
   44.2930   34.7670   46.3440 H   0  0  0  0  0  0  0  0  0  0  0  0
   43.9410   36.3290   44.5810 H   0  0  0  0  0  0  0  0  0  0  0  0
   45.9600   36.5580   43.0400 H   0  0  0  0  0  0  0  0  0  0  0  0
   46.7820   34.3300   42.0520 H   0  0  0  0  0  0  0  0  0  0  0  0
   47.5640   34.8370   43.5500 H   0  0  0  0  0  0  0  0  0  0  0  0
   46.9680   32.6490   43.5250 H   0  0  0  0  0  0  0  0  0  0  0  0
   45.1520   32.9460   43.4670 H   0  0  0  0  0  0  0  0  0  0  0  0
   44.5080   35.3170   42.0660 C   0  0  0  0  0  0  0  0  0  0  0  0
   43.4320   34.5340   42.4590 F   0  0  0  0  0  0  0  0  0  0  0  0
   43.9920   36.5660   41.7340 F   0  0  0  0  0  0  0  0  0  0  0  0
   45.1690   34.8390   40.9520 F   0  0  0  0  0  0  0  0  0  0  0  0
   46.9560   30.5970   44.9260 C   0  0  0  0  0  0  0  0  0  0  0  0
   46.6810   29.7920   43.8680 C   0  0  0  0  0  0  0  0  0  0  0  0
   47.9040   29.4960   43.2300 C   0  0  0  0  0  0  0  0  0  0  0  0
   48.8390   30.1330   43.9300 N   0  0  0  0  0  0  0  0  0  0  0  0
   48.3160   30.7900   44.9360 N   0  0  0  0  0  0  0  0  0  0  0  0
   45.6580   29.5300   43.7000 H   0  0  0  0  0  0  0  0  0  0  0  0
   47.9210   28.8670   42.3630 H   0  0  0  0  0  0  0  0  0  0  0  0
   50.2440   30.0780   43.5850 C   0  0  0  0  0  0  0  0  0  0  0  0
   50.7770   30.7500   42.4750 C   0  0  0  0  0  3  0  0  0  0  0  0
   52.1010   30.5020   42.4260 N   0  0  0  0  0  0  0  0  0  0  0  0
   52.4360   29.7010   43.4570 C   0  0  0  0  0  0  0  0  0  0  0  0
   53.6590   29.1740   43.8350 C   0  0  0  0  0  3  0  0  0  0  0  0
   53.6530   28.3770   44.9620 C   0  0  0  0  0  3  0  0  0  0  0  0
   52.5160   28.0960   45.7000 C   0  0  0  0  0  3  0  0  0  0  0  0
   51.3080   28.6310   45.3070 C   0  0  0  0  0  3  0  0  0  0  0  0
   51.2850   29.4210   44.1990 C   0  0  0  0  0  0  0  0  0  0  0  0
   52.7180   30.9040   41.6740 H   0  0  0  0  0  0  0  0  0  0  0  0
  1  8  1  0  0  0  0
  1  6  1  0  0  0  0
  2  1  2  0  0  0  0
  3  2  1  0  0  0  0
  3  4  2  0  0  0  0
  4  5  1  0  0  0  0
  5  6  2  0  0  0  0
  5  7  1  0  0  0  0
  7 10  1  0  0  0  0
  7  9  1  0  0  0  0
 11 12  1  0  0  0  0
 11 17  1  1  0  0  0
 11  2  1  0  0  0  0
 12 18  1  0  0  0  0
 13 19  1  0  0  0  0
 13 12  2  0  0  0  0
 14 20  1  6  0  0  0
 14 13  1  0  0  0  0
 15 14  1  0  0  0  0
 15 22  1  0  0  0  0
 15 16  1  0  0  0  0
 16 11  1  0  0  0  0
 21 15  1  0  0  0  0
 23 16  1  0  0  0  0
 24 16  1  0  0  0  0
 25 26  1  0  0  0  0
 25 14  1  0  0  0  0
 27 25  1  0  0  0  0
 28 25  1  0  0  0  0
 29 33  2  0  0  0  0
 29  3  1  0  0  0  0
 30 29  1  0  0  0  0
 31 30  2  0  0  0  0
 31 32  1  0  0  0  0
 32 33  1  0  0  0  0
 34 30  1  0  0  0  0
 35 31  1  0  0  0  0
 36 32  1  0  0  0  0
 36 44  1  0  0  0  0
 37 36  2  0  0  0  0
 38 37  1  0  0  0  0
 38 39  1  0  0  0  0
 39 40  2  0  0  0  0
 39 44  1  0  0  0  0
 40 41  1  0  0  0  0
 41 42  2  0  0  0  0
 43 42  1  0  0  0  0
 44 43  2  0  0  0  0
 45 38  1  0  0  0  0
M  END
>  <minimizedAffinity>
-6.06515265

>  <minimizedRMSD>
0.639622867

$$$$
