
 OpenBabel03232520563D

 33 35  0  0  1  0  0  0  0  0999 V2000
   46.1030   33.5180   45.2240 C   0  0  2  0  0  0  0  0  0  0  0  0
   45.0150   34.6510   45.4880 C   0  0  0  0  0  0  0  0  0  0  0  0
   44.7800   35.5860   44.4190 C   0  0  0  0  0  0  0  0  0  0  0  0
   45.5090   35.4820   43.1620 C   0  0  1  0  0  0  0  0  0  0  0  0
   46.5300   34.4020   43.0630 C   0  0  0  0  0  0  0  0  0  0  0  0
   46.0050   33.1990   43.8340 C   0  0  0  0  0  0  0  0  0  0  0  0
   46.9740   34.1620   45.5080 H   0  0  0  0  0  0  0  0  0  0  0  0
   44.3680   34.9050   46.3190 H   0  0  0  0  0  0  0  0  0  0  0  0
   44.0690   36.3660   44.5250 H   0  0  0  0  0  0  0  0  0  0  0  0
   45.9630   36.4660   42.9270 H   0  0  0  0  0  0  0  0  0  0  0  0
   46.6200   34.1230   41.9960 H   0  0  0  0  0  0  0  0  0  0  0  0
   47.5230   34.7420   43.4090 H   0  0  0  0  0  0  0  0  0  0  0  0
   46.2560   32.3440   43.2970 H   0  0  0  0  0  0  0  0  0  0  0  0
   44.8470   33.2700   43.5960 H   0  0  0  0  0  0  0  0  0  0  0  0
   45.4780   32.7920   47.5230 C   0  0  0  0  0  0  0  0  0  0  0  0
   45.8830   32.5230   46.2320 C   0  0  0  0  0  0  0  0  0  0  0  0
   45.9690   31.1870   45.9390 C   0  0  0  0  0  0  0  0  0  0  0  0
   45.6700   30.2350   46.8430 N   0  0  0  0  0  0  0  0  0  0  0  0
   45.2750   30.5330   48.1020 C   0  0  0  0  0  0  0  0  0  0  0  0
   45.1830   31.8140   48.4360 N   0  0  0  0  0  0  0  0  0  0  0  0
   45.0260   29.4850   49.0390 N   0  0  0  0  0  0  0  0  0  0  0  0
   45.3860   33.8070   47.8610 H   0  0  0  0  0  0  0  0  0  0  0  0
   44.1520   29.4040   49.6000 H   0  0  0  0  0  0  0  0  0  0  0  0
   45.7780   28.7640   49.1570 H   0  0  0  0  0  0  0  0  0  0  0  0
   46.7020   30.5770   44.7520 C   0  0  0  0  0  0  0  0  0  0  0  0
   48.1840   30.4840   44.8870 C   0  0  0  0  0  3  0  0  0  0  0  0
   48.7530   29.8820   43.8130 C   0  0  0  0  0  3  0  0  0  0  0  0
   48.0910   29.3960   42.7020 C   0  0  0  0  0  3  0  0  0  0  0  0
   46.3440   29.8600   43.2480 S   0  0  0  0  0  0  0  0  0  0  0  0
   44.4610   35.2580   42.0420 C   0  0  0  0  0  0  0  0  0  0  0  0
   43.4020   34.4780   42.4420 F   0  0  0  0  0  0  0  0  0  0  0  0
   43.9380   36.5140   41.7410 F   0  0  0  0  0  0  0  0  0  0  0  0
   45.0830   34.7890   40.8970 F   0  0  0  0  0  0  0  0  0  0  0  0
  1  2  1  0  0  0  0
  1  7  1  1  0  0  0
  1 16  1  0  0  0  0
  2  8  1  0  0  0  0
  3  9  1  0  0  0  0
  3  2  2  0  0  0  0
  4 10  1  6  0  0  0
  4  3  1  0  0  0  0
  5  4  1  0  0  0  0
  5 12  1  0  0  0  0
  5  6  1  0  0  0  0
  6  1  1  0  0  0  0
 11  5  1  0  0  0  0
 13  6  1  0  0  0  0
 14  6  1  0  0  0  0
 15 22  1  0  0  0  0
 15 20  1  0  0  0  0
 16 15  2  0  0  0  0
 17 16  1  0  0  0  0
 17 18  2  0  0  0  0
 18 19  1  0  0  0  0
 19 20  2  0  0  0  0
 19 21  1  0  0  0  0
 21 24  1  0  0  0  0
 21 23  1  0  0  0  0
 25 26  2  0  0  0  0
 25 17  1  0  0  0  0
 27 26  1  0  0  0  0
 28 29  1  0  0  0  0
 28 27  2  0  0  0  0
 29 25  1  0  0  0  0
 30 31  1  0  0  0  0
 30  4  1  0  0  0  0
 32 30  1  0  0  0  0
 33 30  1  0  0  0  0
M  END
>  <minimizedAffinity>
-5.50643349

>  <minimizedRMSD>
0.595054686

$$$$
