
 OpenBabel03232521013D

 45 49  0  0  1  0  0  0  0  0999 V2000
   45.3820   32.8700   47.4520 C   0  0  0  0  0  0  0  0  0  0  0  0
   45.9310   32.6280   46.2340 C   0  0  0  0  0  0  0  0  0  0  0  0
   46.1990   31.2750   45.9840 C   0  0  0  0  0  0  0  0  0  0  0  0
   45.9400   30.2750   46.8640 N   0  0  0  0  0  0  0  0  0  0  0  0
   45.3790   30.5820   48.0920 C   0  0  0  0  0  0  0  0  0  0  0  0
   45.1140   31.8690   48.3570 N   0  0  0  0  0  0  0  0  0  0  0  0
   45.1040   29.5620   49.0320 N   0  0  0  0  0  0  0  0  0  0  0  0
   45.1390   33.8510   47.7540 H   0  0  0  0  0  0  0  0  0  0  0  0
   44.2420   29.7130   49.6370 H   0  0  0  0  0  0  0  0  0  0  0  0
   45.7020   28.7120   49.1340 H   0  0  0  0  0  0  0  0  0  0  0  0
   46.1610   33.5850   45.2060 C   0  0  2  0  0  0  0  0  0  0  0  0
   44.9570   34.6820   45.4700 C   0  0  0  0  0  0  0  0  0  0  0  0
   44.7140   35.6250   44.4140 C   0  0  0  0  0  0  0  0  0  0  0  0
   45.4950   35.5550   43.1710 C   0  0  1  0  0  0  0  0  0  0  0  0
   46.5340   34.5380   43.0900 C   0  0  0  0  0  0  0  0  0  0  0  0
   46.0850   33.3090   43.8420 C   0  0  0  0  0  0  0  0  0  0  0  0
   46.9450   34.3290   45.5340 H   0  0  0  0  0  0  0  0  0  0  0  0
   44.3040   34.8110   46.3260 H   0  0  0  0  0  0  0  0  0  0  0  0
   43.9350   36.3590   44.5550 H   0  0  0  0  0  0  0  0  0  0  0  0
   45.9300   36.5580   42.9780 H   0  0  0  0  0  0  0  0  0  0  0  0
   46.7170   34.3140   41.9970 H   0  0  0  0  0  0  0  0  0  0  0  0
   47.5280   34.8280   43.4770 H   0  0  0  0  0  0  0  0  0  0  0  0
   46.9140   32.6450   43.4810 H   0  0  0  0  0  0  0  0  0  0  0  0
   45.1000   32.9570   43.4510 H   0  0  0  0  0  0  0  0  0  0  0  0
   44.4520   35.3200   42.0400 C   0  0  0  0  0  0  0  0  0  0  0  0
   43.3850   34.5350   42.4520 F   0  0  0  0  0  0  0  0  0  0  0  0
   43.9270   36.5680   41.7180 F   0  0  0  0  0  0  0  0  0  0  0  0
   45.0920   34.8440   40.9130 F   0  0  0  0  0  0  0  0  0  0  0  0
   46.8410   30.5930   44.8740 C   0  0  0  0  0  0  0  0  0  0  0  0
   46.5110   29.7620   43.8520 C   0  0  0  0  0  0  0  0  0  0  0  0
   47.6980   29.4540   43.1540 C   0  0  0  0  0  0  0  0  0  0  0  0
   48.6690   30.1090   43.7860 N   0  0  0  0  0  0  0  0  0  0  0  0
   48.2000   30.7890   44.8040 N   0  0  0  0  0  0  0  0  0  0  0  0
   45.4810   29.4950   43.7460 H   0  0  0  0  0  0  0  0  0  0  0  0
   47.6700   28.8060   42.3030 H   0  0  0  0  0  0  0  0  0  0  0  0
   50.0520   30.0490   43.3660 C   0  0  0  0  0  0  0  0  0  0  0  0
   50.4810   30.5010   42.1100 C   0  0  0  0  0  3  0  0  0  0  0  0
   51.8140   30.3090   42.0240 N   0  0  0  0  0  0  0  0  0  0  0  0
   52.2530   29.7550   43.1710 C   0  0  0  0  0  0  0  0  0  0  0  0
   53.5230   29.3740   43.5650 C   0  0  0  0  0  3  0  0  0  0  0  0
   53.6270   28.8290   44.8290 C   0  0  0  0  0  3  0  0  0  0  0  0
   52.5530   28.6550   45.6840 C   0  0  0  0  0  3  0  0  0  0  0  0
   51.2940   29.0410   45.2720 C   0  0  0  0  0  3  0  0  0  0  0  0
   51.1640   29.5820   44.0300 C   0  0  0  0  0  0  0  0  0  0  0  0
   52.3610   30.5740   41.1660 H   0  0  0  0  0  0  0  0  0  0  0  0
  1  8  1  0  0  0  0
  1  6  1  0  0  0  0
  2  1  2  0  0  0  0
  3  2  1  0  0  0  0
  3  4  2  0  0  0  0
  4  5  1  0  0  0  0
  5  6  2  0  0  0  0
  5  7  1  0  0  0  0
  7 10  1  0  0  0  0
  7  9  1  0  0  0  0
 11 12  1  0  0  0  0
 11 17  1  1  0  0  0
 11  2  1  0  0  0  0
 12 18  1  0  0  0  0
 13 19  1  0  0  0  0
 13 12  2  0  0  0  0
 14 20  1  6  0  0  0
 14 13  1  0  0  0  0
 15 14  1  0  0  0  0
 15 22  1  0  0  0  0
 15 16  1  0  0  0  0
 16 11  1  0  0  0  0
 21 15  1  0  0  0  0
 23 16  1  0  0  0  0
 24 16  1  0  0  0  0
 25 26  1  0  0  0  0
 25 14  1  0  0  0  0
 27 25  1  0  0  0  0
 28 25  1  0  0  0  0
 29  3  1  0  0  0  0
 30 29  1  0  0  0  0
 31 32  1  0  0  0  0
 31 30  2  0  0  0  0
 32 33  1  0  0  0  0
 33 29  2  0  0  0  0
 34 30  1  0  0  0  0
 35 31  1  0  0  0  0
 36 32  1  0  0  0  0
 36 44  1  0  0  0  0
 37 36  2  0  0  0  0
 38 37  1  0  0  0  0
 38 39  1  0  0  0  0
 39 40  2  0  0  0  0
 39 44  1  0  0  0  0
 40 41  1  0  0  0  0
 41 42  2  0  0  0  0
 43 42  1  0  0  0  0
 44 43  2  0  0  0  0
 45 38  1  0  0  0  0
M  END
>  <minimizedAffinity>
-6.07574224

>  <minimizedRMSD>
0.375041693

$$$$
