
 OpenBabel03232519443D

 43 46  0  0  0  0  0  0  0  0999 V2000
   46.4040   34.4050   42.0520 N   0  0  0  0  0  0  0  0  0  0  0  0
   47.5740   35.1320   41.9170 C   0  0  0  0  0  0  0  0  0  0  0  0
   48.3190   35.0740   40.7740 C   0  0  0  0  0  0  0  0  0  0  0  0
   47.8590   34.2510   39.7410 C   0  0  0  0  0  0  0  0  0  0  0  0
   48.5210   34.1860   38.6880 O   0  0  0  0  0  0  0  0  0  0  0  0
   46.7170   33.5690   39.9330 N   0  0  0  0  0  0  0  0  0  0  0  0
   46.0060   33.6460   41.0640 C   0  0  0  0  0  0  0  0  0  0  0  0
   44.9690   33.0630   41.2950 O   0  0  0  0  0  0  0  0  0  0  0  0
   47.9850   35.7850   42.6760 H   0  0  0  0  0  0  0  0  0  0  0  0
   49.2370   35.6290   40.6340 H   0  0  0  0  0  0  0  0  0  0  0  0
   46.2170   32.7130   38.9280 C   0  0  0  0  0  0  0  0  0  0  0  0
   45.3290   33.1020   37.9520 C   0  0  0  0  0  0  0  0  0  0  0  0
   44.8820   32.2130   37.0060 C   0  0  0  0  0  0  0  0  0  0  0  0
   45.3170   30.9040   37.0130 C   0  0  0  0  0  0  0  0  0  0  0  0
   46.1930   30.5390   37.9820 C   0  0  0  0  0  0  0  0  0  0  0  0
   46.6860   31.3970   38.9760 C   0  0  0  0  0  0  0  0  0  0  0  0
   45.0520   34.1430   38.0360 H   0  0  0  0  0  0  0  0  0  0  0  0
   44.1850   32.6040   36.2770 H   0  0  0  0  0  0  0  0  0  0  0  0
   44.9580   30.2160   36.2610 H   0  0  0  0  0  0  0  0  0  0  0  0
   46.5090   29.4880   37.9430 H   0  0  0  0  0  0  0  0  0  0  0  0
   47.6470   30.8970   39.9970 C   0  0  0  0  0  0  0  0  0  0  0  0
   47.7780   29.8000   39.7250 H   0  0  0  0  0  0  0  0  0  0  0  0
   48.9820   31.5410   39.9880 C   0  0  0  0  0  0  0  0  0  0  0  0
   49.6660   30.6520   40.3050 H   0  0  0  0  0  0  0  0  0  0  0  0
   49.2800   32.1390   40.8660 H   0  0  0  0  0  0  0  0  0  0  0  0
   49.4710   31.7080   39.0340 H   0  0  0  0  0  0  0  0  0  0  0  0
   47.1260   30.9730   41.4000 C   0  0  0  0  0  0  0  0  0  0  0  0
   47.6060   30.0320   41.8870 H   0  0  0  0  0  0  0  0  0  0  0  0
   47.6430   31.6810   42.0730 H   0  0  0  0  0  0  0  0  0  0  0  0
   46.1010   30.7090   41.5730 H   0  0  0  0  0  0  0  0  0  0  0  0
   44.4710   36.0260   44.7560 C   0  0  0  0  0  0  0  0  0  0  0  0
   45.0550   35.7780   43.4980 C   0  0  0  0  0  0  0  0  0  0  0  0
   45.8160   34.6400   43.3440 C   0  0  0  0  0  0  0  0  0  0  0  0
   45.9860   33.8000   44.3850 N   0  0  0  0  0  0  0  0  0  0  0  0
   45.4050   34.0730   45.5900 C   0  0  0  0  0  0  0  0  0  0  0  0
   44.6660   35.1550   45.7780 N   0  0  0  0  0  0  0  0  0  0  0  0
   43.8630   36.9080   44.9240 H   0  0  0  0  0  0  0  0  0  0  0  0
   44.8820   36.4830   42.7120 H   0  0  0  0  0  0  0  0  0  0  0  0
   45.6980   33.0370   46.6270 C   0  0  0  0  0  0  0  0  0  0  0  0
   45.3150   32.6780   47.8540 C   0  0  0  0  0  0  0  0  0  0  0  0
   45.8980   31.6060   48.4220 C   0  0  0  0  0  0  0  0  0  0  0  0
   46.8850   30.9250   47.6780 C   0  0  0  0  0  0  0  0  0  0  0  0
   46.9130   31.9530   46.0810 S   0  0  0  0  0  0  0  0  0  0  0  0
  1 33  1  0  0  0  0
  2  1  1  0  0  0  0
  2  9  1  0  0  0  0
  3  2  2  0  0  0  0
  4  6  1  0  0  0  0
  4  3  1  0  0  0  0
  5  4  2  0  0  0  0
  6  7  1  0  0  0  0
  7  8  2  0  0  0  0
  7  1  1  0  0  0  0
 10  3  1  0  0  0  0
 11 16  1  0  0  0  0
 11  6  1  0  0  0  0
 12 17  1  0  0  0  0
 12 11  2  0  0  0  0
 13 14  2  0  0  0  0
 13 12  1  0  0  0  0
 14 15  1  0  0  0  0
 15 16  2  0  0  0  0
 16 21  1  0  0  0  0
 18 13  1  0  0  0  0
 19 14  1  0  0  0  0
 20 15  1  0  0  0  0
 21 27  1  0  0  0  0
 22 21  1  0  0  0  0
 23 21  1  0  0  0  0
 23 24  1  0  0  0  0
 23 25  1  0  0  0  0
 26 23  1  0  0  0  0
 27 30  1  0  0  0  0
 27 28  1  0  0  0  0
 27 29  1  0  0  0  0
 31 37  1  0  0  0  0
 31 36  1  0  0  0  0
 32 31  2  0  0  0  0
 33 32  1  0  0  0  0
 33 34  2  0  0  0  0
 34 35  1  0  0  0  0
 35 36  2  0  0  0  0
 35 39  1  0  0  0  0
 38 32  1  0  0  0  0
 39 40  2  0  0  0  0
 40 41  1  0  0  0  0
 42 41  2  0  0  0  0
 43 39  1  0  0  0  0
 43 42  1  0  0  0  0
M  END
>  <minimizedAffinity>
-6.19430256

>  <minimizedRMSD>
0.483326733

$$$$
