
 OpenBabel03232518053D

 46 48  0  0  1  0  0  0  0  0999 V2000
   48.4660   33.1620   41.6260 C   0  0  0  0  0  0  0  0  0  0  0  0
   48.0880   32.7220   42.5360 H   0  0  0  0  0  0  0  0  0  0  0  0
   48.1880   32.3910   40.7920 H   0  0  0  0  0  0  0  0  0  0  0  0
   47.9370   34.4620   41.2090 C   0  0  0  0  0  0  0  0  0  0  0  0
   44.1720   34.8220   41.3590 C   0  0  0  0  0  0  0  0  0  0  0  0
   45.4200   34.4390   40.8520 C   0  0  0  0  0  0  0  0  0  0  0  0
   46.5710   34.7840   41.5810 C   0  0  0  0  0  0  0  0  0  0  0  0
   46.4130   35.4730   42.7420 N   0  0  0  0  0  0  0  0  0  0  0  0
   45.1670   35.8240   43.1940 C   0  0  0  0  0  0  0  0  0  0  0  0
   44.0760   35.5060   42.5190 N   0  0  0  0  0  0  0  0  0  0  0  0
   45.5750   33.8920   39.9310 H   0  0  0  0  0  0  0  0  0  0  0  0
   45.0510   36.3720   44.1200 H   0  0  0  0  0  0  0  0  0  0  0  0
   43.0210   34.4270   40.5560 C   0  0  0  0  0  0  0  0  0  0  0  0
   42.4490   35.0520   39.6910 O   0  0  0  0  0  0  0  0  0  0  0  0
   42.5430   33.4420   40.6890 H   0  0  0  0  0  0  0  0  0  0  0  0
   48.8340   35.6270   41.5300 C   0  0  0  0  0  0  0  0  0  0  0  0
   48.8770   36.3900   40.7210 H   0  0  0  0  0  0  0  0  0  0  0  0
   49.8630   35.2520   41.6730 H   0  0  0  0  0  0  0  0  0  0  0  0
   48.4320   36.1290   42.4400 H   0  0  0  0  0  0  0  0  0  0  0  0
   48.0020   34.3890   39.6580 C   0  0  0  0  0  0  0  0  0  0  0  0
   47.4720   33.4820   39.3220 H   0  0  0  0  0  0  0  0  0  0  0  0
   47.6560   35.3220   39.2030 H   0  0  0  0  0  0  0  0  0  0  0  0
   49.0770   34.2290   39.4310 H   0  0  0  0  0  0  0  0  0  0  0  0
   49.8790   33.2770   41.5720 O   0  0  0  0  0  0  0  0  0  0  0  0
   50.2880   31.9810   41.4040 C   0  0  1  0  0  0  0  0  0  0  0  0
   51.5970   31.6430   40.8830 C   0  0  0  0  0  0  0  0  0  0  0  0
   51.4290   31.5770   42.3580 C   0  0  2  0  0  0  0  0  0  0  0  0
   49.5050   31.1620   41.3610 H   0  0  0  0  0  0  0  0  0  0  0  0
   52.2070   32.4990   40.4770 H   0  0  0  0  0  0  0  0  0  0  0  0
   51.7690   30.7290   40.2930 H   0  0  0  0  0  0  0  0  0  0  0  0
   51.9390   32.3380   42.9450 H   0  0  0  0  0  0  0  0  0  0  0  0
   51.2650   30.2400   43.0280 C   0  0  1  0  0  0  0  0  0  0  0  0
   51.1350   30.4090   44.1120 H   0  0  0  0  0  0  0  0  0  0  0  0
   50.0920   29.4270   42.5310 C   0  0  0  0  0  0  0  0  0  0  0  0
   49.7220   28.7610   43.3240 H   0  0  0  0  0  0  0  0  0  0  0  0
   49.2450   30.1520   42.3530 H   0  0  0  0  0  0  0  0  0  0  0  0
   50.3240   28.9490   41.5770 H   0  0  0  0  0  0  0  0  0  0  0  0
   52.4880   29.3890   42.7760 C   0  0  0  0  0  0  0  0  0  0  0  0
   52.1860   28.3330   42.8040 H   0  0  0  0  0  0  0  0  0  0  0  0
   52.8930   29.6680   41.7730 H   0  0  0  0  0  0  0  0  0  0  0  0
   53.5300   29.5990   43.8170 C   0  0  0  0  0  0  0  0  0  0  0  0
   53.1150   30.0260   45.0300 N   0  0  0  0  0  0  0  0  0  0  0  0
   54.1340   30.1530   45.7950 O   0  0  0  0  0  0  0  0  0  0  0  0
   55.2300   29.8340   45.1690 C   0  0  0  0  0  0  0  0  0  0  0  0
   56.2180   29.8570   45.5960 H   0  0  0  0  0  0  0  0  0  0  0  0
   54.8780   29.4830   43.9280 N   0  0  0  0  0  0  0  0  0  0  0  0
  1  2  1  0  0  0  0
  3  1  1  0  0  0  0
  4 16  1  0  0  0  0
  4  7  1  0  0  0  0
  4  1  1  0  0  0  0
  5 10  1  0  0  0  0
  6  5  2  0  0  0  0
  6  7  1  0  0  0  0
  7  8  2  0  0  0  0
  8  9  1  0  0  0  0
  9 12  1  0  0  0  0
 10  9  2  0  0  0  0
 11  6  1  0  0  0  0
 13 15  1  0  0  0  0
 13  5  1  0  0  0  0
 14 13  2  0  0  0  0
 16 18  1  0  0  0  0
 16 19  1  0  0  0  0
 17 16  1  0  0  0  0
 20  4  1  0  0  0  0
 21 20  1  0  0  0  0
 22 20  1  0  0  0  0
 23 20  1  0  0  0  0
 24  1  1  0  0  0  0
 25 28  1  6  0  0  0
 25 24  1  0  0  0  0
 25 27  1  0  0  0  0
 26 25  1  0  0  0  0
 26 27  1  0  0  0  0
 27 31  1  1  0  0  0
 27 32  1  0  0  0  0
 29 26  1  0  0  0  0
 30 26  1  0  0  0  0
 32 33  1  1  0  0  0
 34 32  1  0  0  0  0
 34 35  1  0  0  0  0
 36 34  1  0  0  0  0
 37 34  1  0  0  0  0
 38 39  1  0  0  0  0
 38 32  1  0  0  0  0
 38 41  1  0  0  0  0
 40 38  1  0  0  0  0
 41 46  1  0  0  0  0
 41 42  2  0  0  0  0
 42 43  1  0  0  0  0
 44 45  1  0  0  0  0
 44 43  1  0  0  0  0
 46 44  2  0  0  0  0
M  END
>  <minimizedAffinity>
-4.27919626

>  <minimizedRMSD>
2.54835033

$$$$
