
 OpenBabel03232521013D

 45 49  0  0  1  0  0  0  0  0999 V2000
   45.3690   32.9520   47.4980 C   0  0  0  0  0  0  0  0  0  0  0  0
   45.8950   32.6700   46.2780 C   0  0  0  0  0  0  0  0  0  0  0  0
   46.1360   31.3090   46.0480 C   0  0  0  0  0  0  0  0  0  0  0  0
   45.8720   30.3330   46.9520 N   0  0  0  0  0  0  0  0  0  0  0  0
   45.3340   30.6700   48.1840 C   0  0  0  0  0  0  0  0  0  0  0  0
   45.0960   31.9640   48.4270 N   0  0  0  0  0  0  0  0  0  0  0  0
   45.0540   29.6770   49.1470 N   0  0  0  0  0  0  0  0  0  0  0  0
   45.1490   33.9700   47.7790 H   0  0  0  0  0  0  0  0  0  0  0  0
   45.5970   29.5510   50.0480 H   0  0  0  0  0  0  0  0  0  0  0  0
   44.2570   29.0390   48.9310 H   0  0  0  0  0  0  0  0  0  0  0  0
   46.1340   33.6030   45.2290 C   0  0  2  0  0  0  0  0  0  0  0  0
   44.9480   34.7190   45.4730 C   0  0  0  0  0  0  0  0  0  0  0  0
   44.7100   35.6390   44.3950 C   0  0  0  0  0  0  0  0  0  0  0  0
   45.4850   35.5350   43.1530 C   0  0  1  0  0  0  0  0  0  0  0  0
   46.5190   34.5100   43.0940 C   0  0  0  0  0  0  0  0  0  0  0  0
   46.0610   33.2980   43.8720 C   0  0  0  0  0  0  0  0  0  0  0  0
   46.9500   34.3210   45.5310 H   0  0  0  0  0  0  0  0  0  0  0  0
   44.2930   34.8910   46.3180 H   0  0  0  0  0  0  0  0  0  0  0  0
   43.9580   36.3740   44.5120 H   0  0  0  0  0  0  0  0  0  0  0  0
   45.9330   36.5280   42.9230 H   0  0  0  0  0  0  0  0  0  0  0  0
   46.7370   34.2780   42.0130 H   0  0  0  0  0  0  0  0  0  0  0  0
   47.4940   34.8460   43.5080 H   0  0  0  0  0  0  0  0  0  0  0  0
   46.8870   32.6230   43.5230 H   0  0  0  0  0  0  0  0  0  0  0  0
   45.0990   32.9540   43.4390 H   0  0  0  0  0  0  0  0  0  0  0  0
   44.4360   35.2770   42.0310 C   0  0  0  0  0  0  0  0  0  0  0  0
   43.3910   34.4730   42.4490 F   0  0  0  0  0  0  0  0  0  0  0  0
   43.8840   36.5170   41.7180 F   0  0  0  0  0  0  0  0  0  0  0  0
   45.0790   34.8220   40.8940 F   0  0  0  0  0  0  0  0  0  0  0  0
   46.7430   30.5930   44.9420 C   0  0  0  0  0  0  0  0  0  0  0  0
   46.3830   29.7130   43.9710 C   0  0  0  0  0  0  0  0  0  0  0  0
   47.5380   29.3870   43.2350 C   0  0  0  0  0  0  0  0  0  0  0  0
   48.5270   30.0820   43.7940 N   0  0  0  0  0  0  0  0  0  0  0  0
   48.0890   30.8000   44.8000 N   0  0  0  0  0  0  0  0  0  0  0  0
   45.3470   29.4250   43.9220 H   0  0  0  0  0  0  0  0  0  0  0  0
   47.4860   28.7090   42.4210 H   0  0  0  0  0  0  0  0  0  0  0  0
   49.8950   30.0260   43.3220 C   0  0  0  0  0  0  0  0  0  0  0  0
   50.0200   30.5810   42.0460 C   0  0  0  0  0  3  0  0  0  0  0  0
   51.3150   30.5670   41.5140 C   0  0  0  0  0  3  0  0  0  0  0  0
   52.4220   30.0420   42.1880 C   0  0  0  0  0  3  0  0  0  0  0  0
   52.2100   29.5140   43.4380 C   0  0  0  0  0  0  0  0  0  0  0  0
   53.2810   28.9820   44.1420 C   0  0  0  0  0  3  0  0  0  0  0  0
   53.0300   28.4660   45.3890 C   0  0  0  0  0  3  0  0  0  0  0  0
   51.7580   28.4540   45.9690 C   0  0  0  0  0  3  0  0  0  0  0  0
   50.6770   28.9910   45.2590 C   0  0  0  0  0  3  0  0  0  0  0  0
   50.9560   29.5040   44.0060 C   0  0  0  0  0  0  0  0  0  0  0  0
  1  8  1  0  0  0  0
  1  6  1  0  0  0  0
  2  1  2  0  0  0  0
  3  2  1  0  0  0  0
  3  4  2  0  0  0  0
  4  5  1  0  0  0  0
  5  6  2  0  0  0  0
  5  7  1  0  0  0  0
  7  9  1  0  0  0  0
 10  7  1  0  0  0  0
 11 12  1  0  0  0  0
 11 17  1  1  0  0  0
 11  2  1  0  0  0  0
 12 18  1  0  0  0  0
 13 19  1  0  0  0  0
 13 12  2  0  0  0  0
 14 20  1  6  0  0  0
 14 13  1  0  0  0  0
 15 14  1  0  0  0  0
 15 22  1  0  0  0  0
 15 16  1  0  0  0  0
 16 11  1  0  0  0  0
 21 15  1  0  0  0  0
 23 16  1  0  0  0  0
 24 16  1  0  0  0  0
 25 26  1  0  0  0  0
 25 14  1  0  0  0  0
 27 25  1  0  0  0  0
 28 25  1  0  0  0  0
 29  3  1  0  0  0  0
 30 29  1  0  0  0  0
 31 32  1  0  0  0  0
 31 30  2  0  0  0  0
 32 33  1  0  0  0  0
 33 29  2  0  0  0  0
 34 30  1  0  0  0  0
 35 31  1  0  0  0  0
 36 32  1  0  0  0  0
 36 45  1  0  0  0  0
 37 36  2  0  0  0  0
 38 37  1  0  0  0  0
 38 39  2  0  0  0  0
 39 40  1  0  0  0  0
 40 45  2  0  0  0  0
 40 41  1  0  0  0  0
 41 42  2  0  0  0  0
 42 43  1  0  0  0  0
 44 43  2  0  0  0  0
 45 44  1  0  0  0  0
M  END
>  <minimizedAffinity>
-6.2064352

>  <minimizedRMSD>
1.11169755

$$$$
