
 OpenBabel03232518133D

 36 39  0  0  0  0  0  0  0  0999 V2000
   45.8540   32.9310   46.6480 C   0  0  0  0  0  0  0  0  0  0  0  0
   45.1820   32.7750   47.8800 C   0  0  0  0  0  0  0  0  0  0  0  0
   45.9970   31.9450   48.6090 C   0  0  0  0  0  0  0  0  0  0  0  0
   47.0770   31.6140   47.8970 N   0  0  0  0  0  0  0  0  0  0  0  0
   47.0010   32.2070   46.7060 N   0  0  0  0  0  0  0  0  0  0  0  0
   44.2510   33.2910   47.9930 H   0  0  0  0  0  0  0  0  0  0  0  0
   45.6610   31.6840   49.6240 H   0  0  0  0  0  0  0  0  0  0  0  0
   48.1050   30.7650   48.3990 C   0  0  0  0  0  0  0  0  0  0  0  0
   48.5070   29.5010   47.7440 C   0  0  0  0  0  0  0  0  0  0  0  0
   49.8620   28.9510   48.8970 S   0  0  0  0  0  0  0  0  0  0  0  0
   49.6230   30.4780   49.9900 C   0  0  0  0  0  0  0  0  0  0  0  0
   48.7860   31.0620   49.4990 N   0  0  0  0  0  0  0  0  0  0  0  0
   48.0280   29.1840   46.8750 H   0  0  0  0  0  0  0  0  0  0  0  0
   50.5310   30.5660   51.1790 C   0  0  0  0  0  0  0  0  0  0  0  0
   50.9100   29.4890   51.9090 C   0  0  0  0  0  0  0  0  0  0  0  0
   51.7610   29.7700   52.9800 C   0  0  0  0  0  0  0  0  0  0  0  0
   52.1510   31.0530   53.2300 N   0  0  0  0  0  0  0  0  0  0  0  0
   51.7340   32.0790   52.4610 C   0  0  0  0  0  0  0  0  0  0  0  0
   52.0890   33.0580   52.7290 H   0  0  0  0  0  0  0  0  0  0  0  0
   50.9130   31.8280   51.4210 N   0  0  0  0  0  0  0  0  0  0  0  0
   45.5600   33.8070   45.1350 S   0  0  0  0  0  0  0  0  0  0  0  0
   48.5210   33.7230   42.4140 C   0  0  0  0  0  0  0  0  0  0  0  0
   47.7150   34.1600   43.4690 C   0  0  0  0  0  0  0  0  0  0  0  0
   46.6410   33.3670   43.8360 C   0  0  0  0  0  0  0  0  0  0  0  0
   46.4240   32.2040   43.1510 N   0  0  0  0  0  0  0  0  0  0  0  0
   47.2350   31.8300   42.1390 C   0  0  0  0  0  0  0  0  0  0  0  0
   48.2610   32.5810   41.7830 N   0  0  0  0  0  0  0  0  0  0  0  0
   47.8680   35.0660   44.0170 H   0  0  0  0  0  0  0  0  0  0  0  0
   47.0340   30.8910   41.6100 H   0  0  0  0  0  0  0  0  0  0  0  0
   49.6430   34.6650   42.1140 C   0  0  0  0  0  0  0  0  0  0  0  0
   50.3140   34.8340   42.9660 H   0  0  0  0  0  0  0  0  0  0  0  0
   50.2280   34.1750   41.3060 H   0  0  0  0  0  0  0  0  0  0  0  0
   49.1050   35.9580   41.5390 C   0  0  0  0  0  0  0  0  0  0  0  0
   48.9650   36.6500   42.4040 H   0  0  0  0  0  0  0  0  0  0  0  0
   48.1290   35.8300   41.0670 H   0  0  0  0  0  0  0  0  0  0  0  0
   49.8320   36.4400   40.8490 H   0  0  0  0  0  0  0  0  0  0  0  0
  1  5  2  0  0  0  0
  1  2  1  0  0  0  0
  2  6  1  0  0  0  0
  2  3  2  0  0  0  0
  3  7  1  0  0  0  0
  4  8  1  0  0  0  0
  4  3  1  0  0  0  0
  5  4  1  0  0  0  0
  8 12  1  0  0  0  0
  9  8  2  0  0  0  0
  9 10  1  0  0  0  0
 10 11  1  0  0  0  0
 11 14  1  0  0  0  0
 12 11  2  0  0  0  0
 13  9  1  0  0  0  0
 14 20  2  0  0  0  0
 14 15  1  0  0  0  0
 15 16  2  0  0  0  0
 16 17  1  0  0  0  0
 18 19  1  0  0  0  0
 18 17  2  0  0  0  0
 20 18  1  0  0  0  0
 21  1  1  0  0  0  0
 22 23  1  0  0  0  0
 23 24  2  0  0  0  0
 23 28  1  0  0  0  0
 24 21  1  0  0  0  0
 25 24  1  0  0  0  0
 26 25  2  0  0  0  0
 27 26  1  0  0  0  0
 27 22  2  0  0  0  0
 29 26  1  0  0  0  0
 30 22  1  0  0  0  0
 30 31  1  0  0  0  0
 32 30  1  0  0  0  0
 33 30  1  0  0  0  0
 33 34  1  0  0  0  0
 35 33  1  0  0  0  0
 36 33  1  0  0  0  0
M  END
>  <minimizedAffinity>
-6.0751214

>  <minimizedRMSD>
5.68138885

$$$$
