
 OpenBabel03232521013D

 45 49  0  0  1  0  0  0  0  0999 V2000
   45.4560   32.9380   47.5920 C   0  0  0  0  0  0  0  0  0  0  0  0
   45.9340   32.6400   46.3560 C   0  0  0  0  0  0  0  0  0  0  0  0
   46.1080   31.2720   46.1130 C   0  0  0  0  0  0  0  0  0  0  0  0
   45.8260   30.3020   47.0200 N   0  0  0  0  0  0  0  0  0  0  0  0
   45.3380   30.6560   48.2670 C   0  0  0  0  0  0  0  0  0  0  0  0
   45.1650   31.9570   48.5230 N   0  0  0  0  0  0  0  0  0  0  0  0
   45.0410   29.6700   49.2330 N   0  0  0  0  0  0  0  0  0  0  0  0
   45.2890   33.9630   47.8840 H   0  0  0  0  0  0  0  0  0  0  0  0
   45.6030   29.5150   50.1180 H   0  0  0  0  0  0  0  0  0  0  0  0
   44.2100   29.0700   49.0370 H   0  0  0  0  0  0  0  0  0  0  0  0
   46.1860   33.5680   45.3050 C   0  0  2  0  0  0  0  0  0  0  0  0
   44.9750   34.6660   45.5080 C   0  0  0  0  0  0  0  0  0  0  0  0
   44.7510   35.5720   44.4160 C   0  0  0  0  0  0  0  0  0  0  0  0
   45.5600   35.4710   43.1960 C   0  0  1  0  0  0  0  0  0  0  0  0
   46.6120   34.4630   43.1740 C   0  0  0  0  0  0  0  0  0  0  0  0
   46.1540   33.2510   43.9500 C   0  0  0  0  0  0  0  0  0  0  0  0
   46.9820   34.3030   45.6230 H   0  0  0  0  0  0  0  0  0  0  0  0
   44.2950   34.8340   46.3340 H   0  0  0  0  0  0  0  0  0  0  0  0
   43.9830   36.2960   44.5070 H   0  0  0  0  0  0  0  0  0  0  0  0
   45.9970   36.4700   42.9690 H   0  0  0  0  0  0  0  0  0  0  0  0
   46.8630   34.2260   42.1010 H   0  0  0  0  0  0  0  0  0  0  0  0
   47.5700   34.8190   43.6100 H   0  0  0  0  0  0  0  0  0  0  0  0
   47.0000   32.5870   43.6290 H   0  0  0  0  0  0  0  0  0  0  0  0
   45.2100   32.8870   43.4950 H   0  0  0  0  0  0  0  0  0  0  0  0
   44.5450   35.1860   42.0490 C   0  0  0  0  0  0  0  0  0  0  0  0
   43.5280   34.3310   42.4340 F   0  0  0  0  0  0  0  0  0  0  0  0
   43.9470   36.4050   41.7430 F   0  0  0  0  0  0  0  0  0  0  0  0
   45.2300   34.7770   40.9190 F   0  0  0  0  0  0  0  0  0  0  0  0
   46.6510   30.5360   44.9870 C   0  0  0  0  0  0  0  0  0  0  0  0
   46.2080   29.7890   43.9420 C   0  0  0  0  0  0  0  0  0  0  0  0
   47.3340   29.3240   43.2360 C   0  0  0  0  0  0  0  0  0  0  0  0
   48.3900   29.8120   43.8850 N   0  0  0  0  0  0  0  0  0  0  0  0
   48.0190   30.5280   44.9190 N   0  0  0  0  0  0  0  0  0  0  0  0
   45.1430   29.6780   43.8280 H   0  0  0  0  0  0  0  0  0  0  0  0
   47.2190   28.7160   42.3740 H   0  0  0  0  0  0  0  0  0  0  0  0
   49.7550   29.5620   43.4700 C   0  0  0  0  0  0  0  0  0  0  0  0
   50.3040   28.4680   44.1460 C   0  0  0  0  0  3  0  0  0  0  0  0
   51.6240   28.1570   43.8020 C   0  0  0  0  0  3  0  0  0  0  0  0
   52.3660   28.8710   42.8550 C   0  0  0  0  0  3  0  0  0  0  0  0
   51.7510   29.9320   42.2390 C   0  0  0  0  0  0  0  0  0  0  0  0
   52.4510   30.6670   41.2930 C   0  0  0  0  0  3  0  0  0  0  0  0
   51.8010   31.7210   40.6980 C   0  0  0  0  0  3  0  0  0  0  0  0
   50.4830   32.0770   41.0020 C   0  0  0  0  0  3  0  0  0  0  0  0
   49.7770   31.3350   41.9560 C   0  0  0  0  0  3  0  0  0  0  0  0
   50.4530   30.2800   42.5400 C   0  0  0  0  0  0  0  0  0  0  0  0
  1  8  1  0  0  0  0
  1  6  1  0  0  0  0
  2  1  2  0  0  0  0
  3  2  1  0  0  0  0
  3  4  2  0  0  0  0
  4  5  1  0  0  0  0
  5  6  2  0  0  0  0
  5  7  1  0  0  0  0
  7  9  1  0  0  0  0
 10  7  1  0  0  0  0
 11 12  1  0  0  0  0
 11 17  1  1  0  0  0
 11  2  1  0  0  0  0
 12 18  1  0  0  0  0
 13 19  1  0  0  0  0
 13 12  2  0  0  0  0
 14 20  1  6  0  0  0
 14 13  1  0  0  0  0
 15 14  1  0  0  0  0
 15 22  1  0  0  0  0
 15 16  1  0  0  0  0
 16 11  1  0  0  0  0
 21 15  1  0  0  0  0
 23 16  1  0  0  0  0
 24 16  1  0  0  0  0
 25 26  1  0  0  0  0
 25 14  1  0  0  0  0
 27 25  1  0  0  0  0
 28 25  1  0  0  0  0
 29  3  1  0  0  0  0
 30 29  1  0  0  0  0
 31 32  1  0  0  0  0
 31 30  2  0  0  0  0
 32 33  1  0  0  0  0
 33 29  2  0  0  0  0
 34 30  1  0  0  0  0
 35 31  1  0  0  0  0
 36 32  1  0  0  0  0
 36 37  1  0  0  0  0
 38 37  2  0  0  0  0
 39 38  1  0  0  0  0
 40 45  1  0  0  0  0
 40 39  2  0  0  0  0
 41 40  1  0  0  0  0
 42 43  1  0  0  0  0
 42 41  2  0  0  0  0
 43 44  2  0  0  0  0
 44 45  1  0  0  0  0
 45 36  2  0  0  0  0
M  END
>  <minimizedAffinity>
-6.42894745

>  <minimizedRMSD>
0.359330684

$$$$
