
 OpenBabel03232517273D

 27 29  0  0  0  0  0  0  0  0999 V2000
   46.8380   33.9640   43.4260 C   0  0  0  0  0  0  0  0  0  0  0  0
   47.4670   33.0410   44.2480 C   0  0  0  0  0  0  0  0  0  0  0  0
   46.9610   32.7450   45.5000 C   0  0  0  0  0  0  0  0  0  0  0  0
   45.8300   33.3760   45.9140 C   0  0  0  0  0  0  0  0  0  0  0  0
   45.1700   34.2990   45.1390 C   0  0  0  0  0  0  0  0  0  0  0  0
   45.7150   34.5550   43.9090 C   0  0  0  0  0  0  0  0  0  0  0  0
   48.3750   32.5570   43.8730 H   0  0  0  0  0  0  0  0  0  0  0  0
   47.5260   32.0100   46.0640 H   0  0  0  0  0  0  0  0  0  0  0  0
   45.5020   33.0810   46.9160 H   0  0  0  0  0  0  0  0  0  0  0  0
   44.2680   34.7720   45.5270 H   0  0  0  0  0  0  0  0  0  0  0  0
   48.7780   35.5370   40.7740 C   0  0  0  0  0  0  0  0  0  0  0  0
   48.4330   34.7800   39.6360 C   0  0  0  0  0  0  0  0  0  0  0  0
   47.5170   33.7110   39.7900 C   0  0  0  0  0  0  0  0  0  0  0  0
   47.0180   33.4770   41.0420 N   0  0  0  0  0  0  0  0  0  0  0  0
   47.3930   34.2520   42.1130 C   0  0  0  0  0  0  0  0  0  0  0  0
   48.2520   35.2540   41.9660 N   0  0  0  0  0  0  0  0  0  0  0  0
   49.4850   36.3590   40.6420 H   0  0  0  0  0  0  0  0  0  0  0  0
   48.8340   34.9730   38.6500 H   0  0  0  0  0  0  0  0  0  0  0  0
   47.2080   33.0880   38.9610 H   0  0  0  0  0  0  0  0  0  0  0  0
   44.9710   35.5360   43.1310 C   0  0  0  0  0  0  0  0  0  0  0  0
   45.0220   36.7920   43.2050 O   0  0  0  0  0  0  0  0  0  0  0  0
   44.0640   34.9700   42.1560 N   0  0  0  0  0  0  0  0  0  0  0  0
   43.4590   35.7190   41.0690 C   0  0  0  0  0  0  0  0  0  0  0  0
   42.0030   35.4600   40.8790 C   0  0  0  0  0  0  0  0  0  0  0  0
   41.6010   34.3320   41.5760 O   0  0  0  0  0  0  0  0  0  0  0  0
   42.5560   33.3400   41.2580 C   0  0  0  0  0  0  0  0  0  0  0  0
   43.6860   33.5480   42.2090 C   0  0  0  0  0  0  0  0  0  0  0  0
  1  6  2  0  0  0  0
  1  2  1  0  0  0  0
  2  3  2  0  0  0  0
  3  4  1  0  0  0  0
  3  8  1  0  0  0  0
  4  9  1  0  0  0  0
  5 10  1  0  0  0  0
  5  4  2  0  0  0  0
  6  5  1  0  0  0  0
  7  2  1  0  0  0  0
 11 16  1  0  0  0  0
 12 13  1  0  0  0  0
 12 11  2  0  0  0  0
 13 14  2  0  0  0  0
 14 15  1  0  0  0  0
 15  1  1  0  0  0  0
 16 15  2  0  0  0  0
 17 11  1  0  0  0  0
 18 12  1  0  0  0  0
 19 13  1  0  0  0  0
 20 21  2  0  0  0  0
 20  6  1  0  0  0  0
 22 27  1  0  0  0  0
 22 20  1  0  0  0  0
 23 22  1  0  0  0  0
 24 23  1  0  0  0  0
 24 25  1  0  0  0  0
 26 25  1  0  0  0  0
 26 27  1  0  0  0  0
M  END
>  <minimizedAffinity>
-5.46308279

>  <minimizedRMSD>
0.67768544

$$$$
