
 OpenBabel03232521013D

 45 49  0  0  1  0  0  0  0  0999 V2000
   45.4080   32.9480   47.5420 C   0  0  0  0  0  0  0  0  0  0  0  0
   45.9180   32.6320   46.3240 C   0  0  0  0  0  0  0  0  0  0  0  0
   46.1240   31.2630   46.1160 C   0  0  0  0  0  0  0  0  0  0  0  0
   45.8420   30.3090   47.0390 N   0  0  0  0  0  0  0  0  0  0  0  0
   45.3220   30.6810   48.2680 C   0  0  0  0  0  0  0  0  0  0  0  0
   45.1170   31.9840   48.4900 N   0  0  0  0  0  0  0  0  0  0  0  0
   45.0250   29.7120   49.2500 N   0  0  0  0  0  0  0  0  0  0  0  0
   45.2150   33.9760   47.8070 H   0  0  0  0  0  0  0  0  0  0  0  0
   45.5710   29.5880   50.1500 H   0  0  0  0  0  0  0  0  0  0  0  0
   44.2100   29.0900   49.0510 H   0  0  0  0  0  0  0  0  0  0  0  0
   46.1730   33.5410   45.2570 C   0  0  2  0  0  0  0  0  0  0  0  0
   44.9990   34.6760   45.4730 C   0  0  0  0  0  0  0  0  0  0  0  0
   44.7760   35.5760   44.3750 C   0  0  0  0  0  0  0  0  0  0  0  0
   45.5560   35.4380   43.1390 C   0  0  1  0  0  0  0  0  0  0  0  0
   46.5780   34.4000   43.1060 C   0  0  0  0  0  0  0  0  0  0  0  0
   46.1020   33.2100   43.9060 C   0  0  0  0  0  0  0  0  0  0  0  0
   46.9960   34.2560   45.5490 H   0  0  0  0  0  0  0  0  0  0  0  0
   44.3420   34.8720   46.3120 H   0  0  0  0  0  0  0  0  0  0  0  0
   44.0320   36.3220   44.4740 H   0  0  0  0  0  0  0  0  0  0  0  0
   46.0150   36.4210   42.8920 H   0  0  0  0  0  0  0  0  0  0  0  0
   46.7980   34.1440   42.0310 H   0  0  0  0  0  0  0  0  0  0  0  0
   47.5540   34.7330   43.5180 H   0  0  0  0  0  0  0  0  0  0  0  0
   46.9220   32.5180   43.5750 H   0  0  0  0  0  0  0  0  0  0  0  0
   45.1380   32.8680   43.4770 H   0  0  0  0  0  0  0  0  0  0  0  0
   44.5080   35.1700   42.0180 C   0  0  0  0  0  0  0  0  0  0  0  0
   43.4890   34.3290   42.4270 F   0  0  0  0  0  0  0  0  0  0  0  0
   43.9190   36.3980   41.7290 F   0  0  0  0  0  0  0  0  0  0  0  0
   45.1580   34.7530   40.8700 F   0  0  0  0  0  0  0  0  0  0  0  0
   46.7060   30.5130   45.0190 C   0  0  0  0  0  0  0  0  0  0  0  0
   46.3050   29.6880   44.0160 C   0  0  0  0  0  0  0  0  0  0  0  0
   47.4530   29.2680   43.3180 C   0  0  0  0  0  0  0  0  0  0  0  0
   48.4790   29.8580   43.9290 N   0  0  0  0  0  0  0  0  0  0  0  0
   48.0700   30.5950   44.9330 N   0  0  0  0  0  0  0  0  0  0  0  0
   45.2490   29.4990   43.9220 H   0  0  0  0  0  0  0  0  0  0  0  0
   47.3710   28.6120   42.4880 H   0  0  0  0  0  0  0  0  0  0  0  0
   49.8540   29.6830   43.5080 C   0  0  0  0  0  0  0  0  0  0  0  0
   50.5100   28.7250   44.2870 C   0  0  0  0  0  3  0  0  0  0  0  0
   51.8470   28.4940   43.9460 C   0  0  0  0  0  3  0  0  0  0  0  0
   52.5050   29.1580   42.9040 C   0  0  0  0  0  3  0  0  0  0  0  0
   51.7870   30.0830   42.1880 C   0  0  0  0  0  0  0  0  0  0  0  0
   52.4010   30.7640   41.1480 C   0  0  0  0  0  3  0  0  0  0  0  0
   51.6480   31.6820   40.4560 C   0  0  0  0  0  3  0  0  0  0  0  0
   50.3090   31.9530   40.7540 C   0  0  0  0  0  3  0  0  0  0  0  0
   49.6910   31.2660   41.8040 C   0  0  0  0  0  3  0  0  0  0  0  0
   50.4690   30.3470   42.4850 C   0  0  0  0  0  0  0  0  0  0  0  0
  1  8  1  0  0  0  0
  1  6  1  0  0  0  0
  2  1  2  0  0  0  0
  3  2  1  0  0  0  0
  3  4  2  0  0  0  0
  4  5  1  0  0  0  0
  5  6  2  0  0  0  0
  5  7  1  0  0  0  0
  7  9  1  0  0  0  0
 10  7  1  0  0  0  0
 11 12  1  0  0  0  0
 11 17  1  1  0  0  0
 11  2  1  0  0  0  0
 12 18  1  0  0  0  0
 13 19  1  0  0  0  0
 13 12  2  0  0  0  0
 14 20  1  6  0  0  0
 14 13  1  0  0  0  0
 15 14  1  0  0  0  0
 15 22  1  0  0  0  0
 15 16  1  0  0  0  0
 16 11  1  0  0  0  0
 21 15  1  0  0  0  0
 23 16  1  0  0  0  0
 24 16  1  0  0  0  0
 25 26  1  0  0  0  0
 25 14  1  0  0  0  0
 27 25  1  0  0  0  0
 28 25  1  0  0  0  0
 29  3  1  0  0  0  0
 30 29  1  0  0  0  0
 31 32  1  0  0  0  0
 31 30  2  0  0  0  0
 32 33  1  0  0  0  0
 33 29  2  0  0  0  0
 34 30  1  0  0  0  0
 35 31  1  0  0  0  0
 36 32  1  0  0  0  0
 36 37  1  0  0  0  0
 38 37  2  0  0  0  0
 39 38  1  0  0  0  0
 40 45  1  0  0  0  0
 40 39  2  0  0  0  0
 41 40  1  0  0  0  0
 42 43  1  0  0  0  0
 42 41  2  0  0  0  0
 43 44  2  0  0  0  0
 44 45  1  0  0  0  0
 45 36  2  0  0  0  0
M  END
>  <minimizedAffinity>
-6.41663408

>  <minimizedRMSD>
0.225381583

$$$$
