
 OpenBabel03232517463D

 23 25  0  0  0  0  0  0  0  0999 V2000
   46.2730   33.1760   45.6320 N   0  0  0  0  0  0  0  0  0  0  0  0
   47.0160   33.1260   44.5280 C   0  0  0  0  0  0  0  0  0  0  0  0
   46.5440   34.1050   43.6400 C   0  0  0  0  0  0  0  0  0  0  0  0
   45.5300   34.7240   44.2200 N   0  0  0  0  0  0  0  0  0  0  0  0
   45.3560   34.1660   45.4340 C   0  0  0  0  0  0  0  0  0  0  0  0
   47.8460   32.4450   44.3470 H   0  0  0  0  0  0  0  0  0  0  0  0
   44.5660   34.5340   46.0790 H   0  0  0  0  0  0  0  0  0  0  0  0
   45.3570   32.6740   47.7740 C   0  0  0  0  0  0  0  0  0  0  0  0
   46.3540   32.4060   46.7950 C   0  0  0  0  0  0  0  0  0  0  0  0
   47.3020   31.4330   47.0620 C   0  0  0  0  0  0  0  0  0  0  0  0
   47.2310   30.7770   48.2540 N   0  0  0  0  0  0  0  0  0  0  0  0
   46.2820   31.0400   49.1680 C   0  0  0  0  0  0  0  0  0  0  0  0
   45.3590   31.9810   48.9230 N   0  0  0  0  0  0  0  0  0  0  0  0
   44.5660   33.3880   47.7150 H   0  0  0  0  0  0  0  0  0  0  0  0
   48.0510   31.2470   46.3030 H   0  0  0  0  0  0  0  0  0  0  0  0
   46.2810   30.4850   50.0920 H   0  0  0  0  0  0  0  0  0  0  0  0
   47.1220   34.3400   42.3200 C   0  0  0  0  0  0  0  0  0  0  0  0
   48.1960   35.1870   42.1850 C   0  0  0  0  0  0  0  0  0  0  0  0
   48.7010   35.3680   40.8930 C   0  0  0  0  0  0  0  0  0  0  0  0
   48.1510   34.7320   39.8170 N   0  0  0  0  0  0  0  0  0  0  0  0
   47.1010   33.9130   39.9960 C   0  0  0  0  0  0  0  0  0  0  0  0
   46.6050   33.3690   39.1880 H   0  0  0  0  0  0  0  0  0  0  0  0
   46.6090   33.7330   41.2340 N   0  0  0  0  0  0  0  0  0  0  0  0
  1  9  1  0  0  0  0
  2  1  1  0  0  0  0
  3  4  1  0  0  0  0
  3  2  2  0  0  0  0
  4  5  2  0  0  0  0
  5  1  1  0  0  0  0
  5  7  1  0  0  0  0
  6  2  1  0  0  0  0
  8 13  1  0  0  0  0
  9 10  1  0  0  0  0
  9  8  2  0  0  0  0
 10 11  2  0  0  0  0
 11 12  1  0  0  0  0
 12 16  1  0  0  0  0
 13 12  2  0  0  0  0
 14  8  1  0  0  0  0
 15 10  1  0  0  0  0
 17  3  1  0  0  0  0
 18 17  1  0  0  0  0
 19 18  2  0  0  0  0
 20 21  2  0  0  0  0
 20 19  1  0  0  0  0
 21 23  1  0  0  0  0
 22 21  1  0  0  0  0
 23 17  2  0  0  0  0
M  END
>  <minimizedAffinity>
-4.96341753

>  <minimizedRMSD>
5.67601871

$$$$
