
 OpenBabel03232519393D

 36 39  0  0  0  0  0  0  0  0999 V2000
   46.5940   34.4440   42.0640 N   0  0  0  0  0  0  0  0  0  0  0  0
   47.6690   35.2950   41.9470 C   0  0  0  0  0  0  0  0  0  0  0  0
   48.4080   35.3540   40.7880 C   0  0  0  0  0  0  0  0  0  0  0  0
   48.0360   34.5250   39.7340 C   0  0  0  0  0  0  0  0  0  0  0  0
   48.6900   34.5600   38.6700 O   0  0  0  0  0  0  0  0  0  0  0  0
   46.9760   33.7210   39.9210 N   0  0  0  0  0  0  0  0  0  0  0  0
   46.2670   33.6730   41.0510 C   0  0  0  0  0  0  0  0  0  0  0  0
   45.2950   32.9590   41.2700 O   0  0  0  0  0  0  0  0  0  0  0  0
   48.0190   35.9670   42.7170 H   0  0  0  0  0  0  0  0  0  0  0  0
   49.2590   36.0120   40.6610 H   0  0  0  0  0  0  0  0  0  0  0  0
   46.5510   32.8460   38.8790 C   0  0  0  0  0  0  0  0  0  0  0  0
   45.5440   33.1800   37.9590 C   0  0  0  0  0  0  0  0  0  0  0  0
   45.1670   32.3100   36.9680 C   0  0  0  0  0  0  0  0  0  0  0  0
   45.7890   31.0730   36.8680 C   0  0  0  0  0  0  0  0  0  0  0  0
   46.7700   30.7720   37.7800 C   0  0  0  0  0  0  0  0  0  0  0  0
   47.1880   31.6180   38.8020 C   0  0  0  0  0  0  0  0  0  0  0  0
   45.1140   34.1570   38.1060 H   0  0  0  0  0  0  0  0  0  0  0  0
   44.3830   32.6510   36.3040 H   0  0  0  0  0  0  0  0  0  0  0  0
   45.4910   30.4030   36.0950 H   0  0  0  0  0  0  0  0  0  0  0  0
   47.2150   29.8040   37.6540 H   0  0  0  0  0  0  0  0  0  0  0  0
   48.2320   31.2590   39.7510 C   0  0  0  0  0  0  0  0  0  0  0  0
   49.5730   31.3920   39.4740 C   0  0  0  0  0  0  0  0  0  0  0  0
   50.6030   31.0680   40.3330 C   0  0  0  0  0  0  0  0  0  0  0  0
   50.2610   30.5770   41.5550 N   0  0  0  0  0  0  0  0  0  0  0  0
   48.9520   30.4400   41.8400 C   0  0  0  0  0  0  0  0  0  0  0  0
   48.5330   30.0580   42.7830 H   0  0  0  0  0  0  0  0  0  0  0  0
   47.9810   30.7680   40.9750 N   0  0  0  0  0  0  0  0  0  0  0  0
   44.5310   35.7360   44.8510 C   0  0  0  0  0  0  0  0  0  0  0  0
   45.1220   35.6160   43.5720 C   0  0  0  0  0  0  0  0  0  0  0  0
   45.9950   34.5650   43.3550 C   0  0  0  0  0  0  0  0  0  0  0  0
   46.2590   33.6780   44.3760 N   0  0  0  0  0  0  0  0  0  0  0  0
   45.6680   33.8300   45.5910 C   0  0  0  0  0  0  0  0  0  0  0  0
   44.8180   34.8390   45.8320 N   0  0  0  0  0  0  0  0  0  0  0  0
   43.8430   36.5530   45.0420 H   0  0  0  0  0  0  0  0  0  0  0  0
   44.8950   36.3270   42.7930 H   0  0  0  0  0  0  0  0  0  0  0  0
   45.9090   33.1030   46.3660 H   0  0  0  0  0  0  0  0  0  0  0  0
  1 30  1  0  0  0  0
  2  1  1  0  0  0  0
  2  9  1  0  0  0  0
  3  2  2  0  0  0  0
  4  6  1  0  0  0  0
  4  3  1  0  0  0  0
  5  4  2  0  0  0  0
  6  7  1  0  0  0  0
  7  8  2  0  0  0  0
  7  1  1  0  0  0  0
 10  3  1  0  0  0  0
 11  6  1  0  0  0  0
 12 17  1  0  0  0  0
 12 11  2  0  0  0  0
 13 12  1  0  0  0  0
 14 13  2  0  0  0  0
 14 15  1  0  0  0  0
 15 16  2  0  0  0  0
 16 11  1  0  0  0  0
 16 21  1  0  0  0  0
 18 13  1  0  0  0  0
 19 14  1  0  0  0  0
 20 15  1  0  0  0  0
 21 27  1  0  0  0  0
 22 21  2  0  0  0  0
 22 23  1  0  0  0  0
 23 24  2  0  0  0  0
 24 25  1  0  0  0  0
 25 26  1  0  0  0  0
 27 25  2  0  0  0  0
 28 34  1  0  0  0  0
 28 33  1  0  0  0  0
 29 28  2  0  0  0  0
 30 29  1  0  0  0  0
 30 31  2  0  0  0  0
 31 32  1  0  0  0  0
 32 33  2  0  0  0  0
 32 36  1  0  0  0  0
 35 29  1  0  0  0  0
M  END
>  <minimizedAffinity>
-5.3313899

>  <minimizedRMSD>
0.727540076

$$$$
