
 OpenBabel03232521013D

 45 49  0  0  1  0  0  0  0  0999 V2000
   45.4560   32.9370   47.5920 C   0  0  0  0  0  0  0  0  0  0  0  0
   45.9340   32.6400   46.3560 C   0  0  0  0  0  0  0  0  0  0  0  0
   46.1080   31.2720   46.1130 C   0  0  0  0  0  0  0  0  0  0  0  0
   45.8260   30.3020   47.0190 N   0  0  0  0  0  0  0  0  0  0  0  0
   45.3390   30.6550   48.2670 C   0  0  0  0  0  0  0  0  0  0  0  0
   45.1650   31.9570   48.5230 N   0  0  0  0  0  0  0  0  0  0  0  0
   45.0420   29.6700   49.2320 N   0  0  0  0  0  0  0  0  0  0  0  0
   45.2900   33.9620   47.8850 H   0  0  0  0  0  0  0  0  0  0  0  0
   45.6030   29.5140   50.1170 H   0  0  0  0  0  0  0  0  0  0  0  0
   44.2110   29.0690   49.0360 H   0  0  0  0  0  0  0  0  0  0  0  0
   46.1860   33.5680   45.3050 C   0  0  2  0  0  0  0  0  0  0  0  0
   44.9750   34.6660   45.5080 C   0  0  0  0  0  0  0  0  0  0  0  0
   44.7500   35.5720   44.4160 C   0  0  0  0  0  0  0  0  0  0  0  0
   45.5600   35.4720   43.1960 C   0  0  1  0  0  0  0  0  0  0  0  0
   46.6130   34.4640   43.1740 C   0  0  0  0  0  0  0  0  0  0  0  0
   46.1550   33.2510   43.9500 C   0  0  0  0  0  0  0  0  0  0  0  0
   46.9820   34.3030   45.6230 H   0  0  0  0  0  0  0  0  0  0  0  0
   44.2950   34.8330   46.3350 H   0  0  0  0  0  0  0  0  0  0  0  0
   43.9830   36.2950   44.5070 H   0  0  0  0  0  0  0  0  0  0  0  0
   45.9970   36.4700   42.9700 H   0  0  0  0  0  0  0  0  0  0  0  0
   46.8630   34.2260   42.1010 H   0  0  0  0  0  0  0  0  0  0  0  0
   47.5700   34.8200   43.6110 H   0  0  0  0  0  0  0  0  0  0  0  0
   47.0000   32.5870   43.6290 H   0  0  0  0  0  0  0  0  0  0  0  0
   45.2100   32.8870   43.4950 H   0  0  0  0  0  0  0  0  0  0  0  0
   44.5450   35.1860   42.0490 C   0  0  0  0  0  0  0  0  0  0  0  0
   43.5280   34.3320   42.4340 F   0  0  0  0  0  0  0  0  0  0  0  0
   43.9470   36.4060   41.7430 F   0  0  0  0  0  0  0  0  0  0  0  0
   45.2300   34.7770   40.9190 F   0  0  0  0  0  0  0  0  0  0  0  0
   46.6510   30.5360   44.9870 C   0  0  0  0  0  0  0  0  0  0  0  0
   46.2080   29.7900   43.9410 C   0  0  0  0  0  0  0  0  0  0  0  0
   47.3340   29.3250   43.2350 C   0  0  0  0  0  0  0  0  0  0  0  0
   48.3900   29.8120   43.8840 N   0  0  0  0  0  0  0  0  0  0  0  0
   48.0190   30.5270   44.9190 N   0  0  0  0  0  0  0  0  0  0  0  0
   45.1430   29.6790   43.8270 H   0  0  0  0  0  0  0  0  0  0  0  0
   47.2180   28.7170   42.3730 H   0  0  0  0  0  0  0  0  0  0  0  0
   49.7550   29.5620   43.4690 C   0  0  0  0  0  0  0  0  0  0  0  0
   50.3030   28.4680   44.1450 C   0  0  0  0  0  3  0  0  0  0  0  0
   51.6230   28.1560   43.8030 C   0  0  0  0  0  3  0  0  0  0  0  0
   52.3650   28.8710   42.8550 C   0  0  0  0  0  3  0  0  0  0  0  0
   51.7510   29.9310   42.2390 C   0  0  0  0  0  0  0  0  0  0  0  0
   52.4510   30.6670   41.2930 C   0  0  0  0  0  3  0  0  0  0  0  0
   51.8010   31.7210   40.6980 C   0  0  0  0  0  3  0  0  0  0  0  0
   50.4830   32.0770   41.0020 C   0  0  0  0  0  3  0  0  0  0  0  0
   49.7780   31.3340   41.9560 C   0  0  0  0  0  3  0  0  0  0  0  0
   50.4530   30.2790   42.5400 C   0  0  0  0  0  0  0  0  0  0  0  0
  1  8  1  0  0  0  0
  1  6  1  0  0  0  0
  2  1  2  0  0  0  0
  3  2  1  0  0  0  0
  3  4  2  0  0  0  0
  4  5  1  0  0  0  0
  5  6  2  0  0  0  0
  5  7  1  0  0  0  0
  7  9  1  0  0  0  0
 10  7  1  0  0  0  0
 11 12  1  0  0  0  0
 11 17  1  1  0  0  0
 11  2  1  0  0  0  0
 12 18  1  0  0  0  0
 13 19  1  0  0  0  0
 13 12  2  0  0  0  0
 14 20  1  6  0  0  0
 14 13  1  0  0  0  0
 15 14  1  0  0  0  0
 15 22  1  0  0  0  0
 15 16  1  0  0  0  0
 16 11  1  0  0  0  0
 21 15  1  0  0  0  0
 23 16  1  0  0  0  0
 24 16  1  0  0  0  0
 25 26  1  0  0  0  0
 25 14  1  0  0  0  0
 27 25  1  0  0  0  0
 28 25  1  0  0  0  0
 29  3  1  0  0  0  0
 30 29  1  0  0  0  0
 31 32  1  0  0  0  0
 31 30  2  0  0  0  0
 32 33  1  0  0  0  0
 33 29  2  0  0  0  0
 34 30  1  0  0  0  0
 35 31  1  0  0  0  0
 36 32  1  0  0  0  0
 36 37  1  0  0  0  0
 38 37  2  0  0  0  0
 39 38  1  0  0  0  0
 40 45  1  0  0  0  0
 40 39  2  0  0  0  0
 41 40  1  0  0  0  0
 42 43  1  0  0  0  0
 42 41  2  0  0  0  0
 43 44  2  0  0  0  0
 44 45  1  0  0  0  0
 45 36  2  0  0  0  0
M  END
>  <minimizedAffinity>
-6.42906904

>  <minimizedRMSD>
0.621391892

$$$$
