
 OpenBabel03232519523D

 43 46  0  0  1  0  0  0  0  0999 V2000
   46.7740   33.9270   42.4130 N   0  0  0  0  0  0  0  0  0  0  0  0
   47.9050   34.4630   41.6580 C   0  0  0  0  0  0  0  0  0  0  0  0
   47.5870   33.9070   40.2970 C   0  0  0  0  0  0  0  0  0  0  0  0
   47.3290   32.4580   40.6330 C   0  0  0  0  0  0  0  0  0  0  0  0
   46.5770   32.5490   41.9200 C   0  0  2  0  0  0  0  0  0  0  0  0
   47.8910   35.5720   41.6360 H   0  0  0  0  0  0  0  0  0  0  0  0
   48.8630   34.0350   42.0260 H   0  0  0  0  0  0  0  0  0  0  0  0
   46.6540   34.3860   39.9460 H   0  0  0  0  0  0  0  0  0  0  0  0
   48.4400   34.0470   39.5870 H   0  0  0  0  0  0  0  0  0  0  0  0
   48.2890   31.8920   40.6940 H   0  0  0  0  0  0  0  0  0  0  0  0
   46.6730   32.0400   39.8450 H   0  0  0  0  0  0  0  0  0  0  0  0
   47.1600   31.9400   42.6460 H   0  0  0  0  0  0  0  0  0  0  0  0
   44.5480   36.2640   44.2600 C   0  0  0  0  0  0  0  0  0  0  0  0
   45.3050   35.7200   43.2110 C   0  0  0  0  0  0  0  0  0  0  0  0
   45.9960   34.5350   43.4080 C   0  0  0  0  0  0  0  0  0  0  0  0
   45.8910   33.9580   44.6460 N   0  0  0  0  0  0  0  0  0  0  0  0
   45.1680   34.4790   45.6400 C   0  0  0  0  0  0  0  0  0  0  0  0
   44.4970   35.6340   45.4430 N   0  0  0  0  0  0  0  0  0  0  0  0
   45.1720   33.7460   46.8530 N   0  0  0  0  0  0  0  0  0  0  0  0
   44.0110   37.1950   44.0910 H   0  0  0  0  0  0  0  0  0  0  0  0
   45.3460   36.2200   42.2640 H   0  0  0  0  0  0  0  0  0  0  0  0
   45.8970   33.4950   47.5470 H   0  0  0  0  0  0  0  0  0  0  0  0
   44.1780   33.4690   46.9290 H   0  0  0  0  0  0  0  0  0  0  0  0
   45.2180   32.1270   41.8850 N   0  0  0  0  0  0  0  0  0  0  0  0
   44.2920   32.4430   40.9890 C   0  0  0  0  0  0  0  0  0  0  0  0
   42.9970   31.9800   41.0440 C   0  0  0  0  0  0  0  0  0  0  0  0
   42.6070   31.1470   42.0680 C   0  0  0  0  0  0  0  0  0  0  0  0
   41.4290   30.6870   42.1750 O   0  0  0  0  0  0  0  0  0  0  0  0
   43.5440   30.8300   42.9740 N   0  0  0  0  0  0  0  0  0  0  0  0
   44.7830   31.3030   42.8740 C   0  0  0  0  0  0  0  0  0  0  0  0
   45.5990   30.9450   43.7810 O   0  0  0  0  0  0  0  0  0  0  0  0
   44.6120   33.1090   40.1720 H   0  0  0  0  0  0  0  0  0  0  0  0
   43.2470   30.1980   43.7520 H   0  0  0  0  0  0  0  0  0  0  0  0
   41.9850   32.3610   40.0170 C   0  0  0  0  0  0  0  0  0  0  0  0
   42.4820   32.2860   39.0290 H   0  0  0  0  0  0  0  0  0  0  0  0
   41.1940   31.5490   40.0000 H   0  0  0  0  0  0  0  0  0  0  0  0
   41.3350   33.6530   40.2470 C   0  0  0  0  0  0  0  0  0  0  0  0
   40.2390   34.2340   39.6580 C   0  0  0  0  0  0  0  0  0  0  0  0
   39.7880   35.4780   40.0310 C   0  0  0  0  0  0  0  0  0  0  0  0
   38.9220   35.8230   39.4950 H   0  0  0  0  0  0  0  0  0  0  0  0
   40.4120   36.1840   41.0000 N   0  0  0  0  0  0  0  0  0  0  0  0
   41.5010   35.6170   41.5920 C   0  0  0  0  0  0  0  0  0  0  0  0
   41.9450   34.3880   41.2220 N   0  0  0  0  0  0  0  0  0  0  0  0
  1 15  1  0  0  0  0
  2  7  1  0  0  0  0
  2  1  1  0  0  0  0
  3  4  1  0  0  0  0
  3  2  1  0  0  0  0
  4 10  1  0  0  0  0
  4  5  1  0  0  0  0
  5  1  1  0  0  0  0
  5 12  1  1  0  0  0
  6  2  1  0  0  0  0
  8  3  1  0  0  0  0
  9  3  1  0  0  0  0
 11  4  1  0  0  0  0
 13 18  1  0  0  0  0
 14 15  1  0  0  0  0
 14 13  2  0  0  0  0
 15 16  2  0  0  0  0
 16 17  1  0  0  0  0
 17 19  1  0  0  0  0
 18 17  2  0  0  0  0
 19 23  1  0  0  0  0
 19 22  1  0  0  0  0
 20 13  1  0  0  0  0
 21 14  1  0  0  0  0
 24  5  1  0  0  0  0
 24 30  1  0  0  0  0
 25 26  2  0  0  0  0
 25 24  1  0  0  0  0
 26 27  1  0  0  0  0
 27 28  2  0  0  0  0
 27 29  1  0  0  0  0
 29 33  1  0  0  0  0
 30 29  1  0  0  0  0
 30 31  2  0  0  0  0
 32 25  1  0  0  0  0
 34 37  1  0  0  0  0
 34 26  1  0  0  0  0
 35 34  1  0  0  0  0
 36 34  1  0  0  0  0
 37 43  1  0  0  0  0
 38 39  1  0  0  0  0
 38 37  2  0  0  0  0
 39 41  2  0  0  0  0
 40 39  1  0  0  0  0
 41 42  1  0  0  0  0
 43 42  2  0  0  0  0
M  END
>  <minimizedAffinity>
-6.33446789

>  <minimizedRMSD>
1.98366416

$$$$
