
 OpenBabel03232520473D

 39 42  0  0  0  0  0  0  0  0999 V2000
   46.4540   34.6330   42.1890 C   0  0  0  0  0  0  0  0  0  0  0  0
   47.7620   35.0090   42.0510 C   0  0  0  0  0  0  0  0  0  0  0  0
   48.4500   34.8550   40.8440 C   0  0  0  0  0  0  0  0  0  0  0  0
   47.7880   34.2960   39.7310 C   0  0  0  0  0  0  0  0  0  0  0  0
   46.4830   33.9280   39.8910 C   0  0  0  0  0  0  0  0  0  0  0  0
   45.8360   34.0960   41.0970 C   0  0  0  0  0  0  0  0  0  0  0  0
   48.3540   35.4470   42.8530 H   0  0  0  0  0  0  0  0  0  0  0  0
   49.4840   35.1570   40.7530 H   0  0  0  0  0  0  0  0  0  0  0  0
   48.2880   34.1620   38.7830 H   0  0  0  0  0  0  0  0  0  0  0  0
   45.9440   33.4990   39.0650 H   0  0  0  0  0  0  0  0  0  0  0  0
   44.4780   33.6950   41.2040 N   0  0  0  0  0  0  0  0  0  0  0  0
   43.6400   34.6440   40.6770 C   0  0  0  0  0  0  0  0  0  0  0  0
   42.2630   34.4650   40.6730 C   0  0  0  0  0  0  0  0  0  0  0  0
   41.7740   33.2920   41.2210 C   0  0  0  0  0  0  0  0  0  0  0  0
   40.5360   33.0580   41.2530 O   0  0  0  0  0  0  0  0  0  0  0  0
   42.6220   32.3890   41.7260 N   0  0  0  0  0  0  0  0  0  0  0  0
   43.9530   32.5760   41.7230 C   0  0  0  0  0  0  0  0  0  0  0  0
   44.8130   31.7870   42.1720 O   0  0  0  0  0  0  0  0  0  0  0  0
   43.9540   35.5780   40.2360 H   0  0  0  0  0  0  0  0  0  0  0  0
   42.2880   31.4870   42.1490 H   0  0  0  0  0  0  0  0  0  0  0  0
   41.3300   35.4770   40.1090 C   0  0  0  0  0  0  0  0  0  0  0  0
   40.7480   34.9560   39.3090 H   0  0  0  0  0  0  0  0  0  0  0  0
   40.7170   35.9640   40.8700 H   0  0  0  0  0  0  0  0  0  0  0  0
   41.9480   36.2290   39.5530 H   0  0  0  0  0  0  0  0  0  0  0  0
   44.4170   35.9740   45.0580 C   0  0  0  0  0  0  0  0  0  0  0  0
   44.9700   35.8860   43.7750 C   0  0  0  0  0  0  0  0  0  0  0  0
   45.8190   34.8320   43.4840 C   0  0  0  0  0  0  0  0  0  0  0  0
   46.0750   33.9400   44.4470 N   0  0  0  0  0  0  0  0  0  0  0  0
   45.5340   34.0340   45.6850 C   0  0  0  0  0  0  0  0  0  0  0  0
   44.7110   35.0480   45.9800 N   0  0  0  0  0  0  0  0  0  0  0  0
   43.7650   36.8170   45.2180 H   0  0  0  0  0  0  0  0  0  0  0  0
   44.7620   36.6070   43.0000 H   0  0  0  0  0  0  0  0  0  0  0  0
   45.8790   33.0050   46.6640 C   0  0  0  0  0  0  0  0  0  0  0  0
   46.9820   32.1970   46.4790 C   0  0  0  0  0  0  0  0  0  0  0  0
   47.1970   31.2660   47.4760 C   0  0  0  0  0  0  0  0  0  0  0  0
   46.4190   31.1170   48.5660 N   0  0  0  0  0  0  0  0  0  0  0  0
   45.3420   31.9450   48.6970 C   0  0  0  0  0  0  0  0  0  0  0  0
   44.6540   31.9100   49.5330 H   0  0  0  0  0  0  0  0  0  0  0  0
   45.0930   32.8680   47.7480 N   0  0  0  0  0  0  0  0  0  0  0  0
  1 27  1  0  0  0  0
  2  1  1  0  0  0  0
  2  7  1  0  0  0  0
  3  2  2  0  0  0  0
  4  5  2  0  0  0  0
  4  3  1  0  0  0  0
  5  6  1  0  0  0  0
  6 11  1  0  0  0  0
  6  1  2  0  0  0  0
  8  3  1  0  0  0  0
  9  4  1  0  0  0  0
 10  5  1  0  0  0  0
 11 17  1  0  0  0  0
 12 11  1  0  0  0  0
 13 12  2  0  0  0  0
 13 14  1  0  0  0  0
 14 15  2  0  0  0  0
 14 16  1  0  0  0  0
 16 20  1  0  0  0  0
 17 16  1  0  0  0  0
 17 18  2  0  0  0  0
 19 12  1  0  0  0  0
 21 13  1  0  0  0  0
 21 23  1  0  0  0  0
 22 21  1  0  0  0  0
 24 21  1  0  0  0  0
 25 31  1  0  0  0  0
 25 30  1  0  0  0  0
 26 25  2  0  0  0  0
 27 26  1  0  0  0  0
 27 28  2  0  0  0  0
 28 29  1  0  0  0  0
 29 30  2  0  0  0  0
 29 33  1  0  0  0  0
 32 26  1  0  0  0  0
 33 39  1  0  0  0  0
 34 33  2  0  0  0  0
 34 35  1  0  0  0  0
 35 36  2  0  0  0  0
 36 37  1  0  0  0  0
 37 38  1  0  0  0  0
 39 37  2  0  0  0  0
M  END
>  <minimizedAffinity>
-7.65320921

>  <minimizedRMSD>
0.27819553

$$$$
