
 OpenBabel03232520413D

 29 32  0  0  0  0  0  0  0  0999 V2000
   44.3860   31.9950   38.6490 C   0  0  0  0  0  0  0  0  0  0  0  0
   43.1970   31.3910   38.2130 C   0  0  0  0  0  0  0  0  0  0  0  0
   43.0890   31.0060   36.8740 C   0  0  0  0  0  0  0  0  0  0  0  0
   44.1410   31.2260   36.0220 N   0  0  0  0  0  0  0  0  0  0  0  0
   45.2770   31.8190   36.5060 C   0  0  0  0  0  0  0  0  0  0  0  0
   45.3860   32.1900   37.7870 N   0  0  0  0  0  0  0  0  0  0  0  0
   44.4310   32.2790   39.6930 H   0  0  0  0  0  0  0  0  0  0  0  0
   42.1890   30.5440   36.5190 H   0  0  0  0  0  0  0  0  0  0  0  0
   46.4310   32.0780   35.6430 C   0  0  0  0  0  0  0  0  0  0  0  0
   47.6080   32.5340   36.2010 C   0  0  0  0  0  0  0  0  0  0  0  0
   48.7290   32.7930   35.4190 C   0  0  0  0  0  0  0  0  0  0  0  0
   48.6830   32.5990   34.0580 C   0  0  0  0  0  0  0  0  0  0  0  0
   47.4780   32.1390   33.5320 C   0  0  0  0  0  0  0  0  0  0  0  0
   46.4110   31.8960   34.3110 N   0  0  0  0  0  0  0  0  0  0  0  0
   47.7050   32.7050   37.2570 H   0  0  0  0  0  0  0  0  0  0  0  0
   49.6640   33.1510   35.8290 H   0  0  0  0  0  0  0  0  0  0  0  0
   49.4890   32.7670   33.3510 H   0  0  0  0  0  0  0  0  0  0  0  0
   47.2720   31.9340   32.4890 H   0  0  0  0  0  0  0  0  0  0  0  0
   41.7940   31.0890   39.3150 S   0  0  0  0  0  0  0  0  0  0  0  0
   40.5900   32.4080   39.1680 C   0  0  0  0  0  0  0  0  0  0  0  0
   39.5040   32.1770   38.3200 C   0  0  0  0  0  0  0  0  0  0  0  0
   38.5580   33.1740   38.1840 C   0  0  0  0  0  0  0  0  0  0  0  0
   38.6590   34.3680   38.8540 C   0  0  0  0  0  0  0  0  0  0  0  0
   39.7170   34.5990   39.6830 C   0  0  0  0  0  0  0  0  0  0  0  0
   39.8410   35.8020   40.3720 C   0  0  0  0  0  0  0  0  0  0  0  0
   40.9230   36.0090   41.2060 C   0  0  0  0  0  0  0  0  0  0  0  0
   41.8630   35.0010   41.3310 C   0  0  0  0  0  0  0  0  0  0  0  0
   41.7760   33.7890   40.6620 C   0  0  0  0  0  0  0  0  0  0  0  0
   40.6790   33.6210   39.8390 C   0  0  0  0  0  0  0  0  0  0  0  0
  1  7  1  0  0  0  0
  2  1  1  0  0  0  0
  2 19  1  0  0  0  0
  3  2  2  0  0  0  0
  4  5  2  0  0  0  0
  4  3  1  0  0  0  0
  5  6  1  0  0  0  0
  6  1  2  0  0  0  0
  8  3  1  0  0  0  0
  9 10  1  0  0  0  0
  9  5  1  0  0  0  0
 10 15  1  0  0  0  0
 11 16  1  0  0  0  0
 11 10  2  0  0  0  0
 12 11  1  0  0  0  0
 13 12  2  0  0  0  0
 13 14  1  0  0  0  0
 14  9  2  0  0  0  0
 17 12  1  0  0  0  0
 18 13  1  0  0  0  0
 20 19  1  0  0  0  0
 20 29  1  0  0  0  0
 21 20  2  0  0  0  0
 22 21  1  0  0  0  0
 22 23  2  0  0  0  0
 23 24  1  0  0  0  0
 24 29  2  0  0  0  0
 24 25  1  0  0  0  0
 25 26  2  0  0  0  0
 26 27  1  0  0  0  0
 28 27  2  0  0  0  0
 29 28  1  0  0  0  0
M  END
>  <minimizedAffinity>
-5.28336573

>  <minimizedRMSD>
5.97119713

$$$$
