
 OpenBabel03232520053D

 31 34  0  0  0  0  0  0  0  0999 V2000
   46.1940   30.3690   49.0680 N   0  0  0  0  0  0  0  0  0  0  0  0
   45.3640   31.3800   49.4230 C   0  0  0  0  0  0  0  0  0  0  0  0
   45.2730   32.2410   48.3810 N   0  0  0  0  0  0  0  0  0  0  0  0
   46.0620   31.7200   47.4100 C   0  0  0  0  0  0  0  0  0  0  0  0
   46.2750   32.2720   46.1660 C   0  0  0  0  0  0  0  0  0  0  0  0
   47.1220   31.5830   45.3310 N   0  0  0  0  0  0  0  0  0  0  0  0
   47.7060   30.4350   45.7090 C   0  0  0  0  0  0  0  0  0  0  0  0
   47.4580   29.9480   46.9360 N   0  0  0  0  0  0  0  0  0  0  0  0
   46.6510   30.5490   47.8120 C   0  0  0  0  0  0  0  0  0  0  0  0
   46.4900   29.5250   49.6400 H   0  0  0  0  0  0  0  0  0  0  0  0
   44.8600   31.4670   50.3970 H   0  0  0  0  0  0  0  0  0  0  0  0
   48.6040   29.7280   44.7900 C   0  0  0  0  0  0  0  0  0  0  0  0
   48.9100   30.3100   43.5730 C   0  0  0  0  0  0  0  0  0  0  0  0
   49.7550   29.5780   42.7790 C   0  0  0  0  0  0  0  0  0  0  0  0
   50.2680   28.3890   43.1170 N   0  0  0  0  0  0  0  0  0  0  0  0
   49.9340   27.8680   44.3180 C   0  0  0  0  0  0  0  0  0  0  0  0
   50.3670   26.9090   44.5520 H   0  0  0  0  0  0  0  0  0  0  0  0
   49.1070   28.5490   45.1330 N   0  0  0  0  0  0  0  0  0  0  0  0
   45.6100   33.7510   45.4900 S   0  0  0  0  0  0  0  0  0  0  0  0
   47.6820   34.7870   42.3330 C   0  0  0  0  0  0  0  0  0  0  0  0
   46.8980   34.4930   41.2330 C   0  0  0  0  0  0  0  0  0  0  0  0
   45.6440   33.9370   41.4700 C   0  0  0  0  0  0  0  0  0  0  0  0
   45.2690   33.7190   42.7610 N   0  0  0  0  0  0  0  0  0  0  0  0
   46.0760   34.0260   43.7950 C   0  0  0  0  0  0  0  0  0  0  0  0
   47.2720   34.5550   43.5890 N   0  0  0  0  0  0  0  0  0  0  0  0
   47.1890   34.6620   40.2110 H   0  0  0  0  0  0  0  0  0  0  0  0
   44.9640   33.6750   40.6700 H   0  0  0  0  0  0  0  0  0  0  0  0
   49.0170   35.3790   42.1030 C   0  0  0  0  0  0  0  0  0  0  0  0
   49.2060   36.0890   41.0890 O   0  0  0  0  0  0  0  0  0  0  0  0
   50.0310   35.1400   43.0040 O   0  0  0  0  0  0  0  0  0  0  0  0
   50.9880   35.3200   42.6940 H   0  0  0  0  0  0  0  0  0  0  0  0
  1  2  1  0  0  0  0
  1 10  1  0  0  0  0
  2 11  1  0  0  0  0
  3  2  2  0  0  0  0
  4  9  1  0  0  0  0
  4  3  1  0  0  0  0
  5  4  2  0  0  0  0
  6  7  2  0  0  0  0
  6  5  1  0  0  0  0
  7  8  1  0  0  0  0
  8  9  2  0  0  0  0
  9  1  1  0  0  0  0
 12 18  1  0  0  0  0
 12  7  1  0  0  0  0
 13 12  2  0  0  0  0
 14 15  2  0  0  0  0
 14 13  1  0  0  0  0
 15 16  1  0  0  0  0
 16 17  1  0  0  0  0
 16 18  2  0  0  0  0
 19  5  1  0  0  0  0
 20 25  1  0  0  0  0
 21 22  1  0  0  0  0
 21 20  2  0  0  0  0
 22 23  2  0  0  0  0
 23 24  1  0  0  0  0
 24 19  1  0  0  0  0
 25 24  2  0  0  0  0
 26 21  1  0  0  0  0
 27 22  1  0  0  0  0
 28 20  1  0  0  0  0
 28 30  1  0  0  0  0
 29 28  2  0  0  0  0
 31 30  1  0  0  0  0
M  END
>  <minimizedAffinity>
-5.76704121

>  <minimizedRMSD>
0.562891424

$$$$
