
 OpenBabel03232519103D

 43 45  0  0  1  0  0  0  0  0999 V2000
   46.1460   31.6060   42.2500 C   0  0  0  0  0  0  0  0  0  0  0  0
   46.7870   32.0000   45.8400 C   0  0  0  0  0  0  0  0  0  0  0  0
   46.0290   33.1130   46.0860 C   0  0  0  0  0  0  0  0  0  0  0  0
   45.3340   33.4860   44.4750 S   0  0  0  0  0  0  0  0  0  0  0  0
   46.2290   32.0000   43.6940 C   0  0  0  0  0  0  0  0  0  0  0  0
   46.7590   31.6120   44.6260 N   0  0  0  0  0  0  0  0  0  0  0  0
   45.8760   33.6620   47.0570 H   0  0  0  0  0  0  0  0  0  0  0  0
   48.4730   31.3390   49.1760 C   0  0  0  0  0  0  0  0  0  0  0  0
   47.7530   31.9840   48.1770 C   0  0  0  0  0  0  0  0  0  0  0  0
   47.5410   31.3640   46.9310 C   0  0  0  0  0  0  0  0  0  0  0  0
   48.0860   30.1430   46.8230 N   0  0  0  0  0  0  0  0  0  0  0  0
   48.7770   29.5020   47.7560 C   0  0  0  0  0  0  0  0  0  0  0  0
   48.9600   30.1100   48.9170 N   0  0  0  0  0  0  0  0  0  0  0  0
   48.6110   31.8520   50.1150 H   0  0  0  0  0  0  0  0  0  0  0  0
   47.3360   32.9720   48.3220 H   0  0  0  0  0  0  0  0  0  0  0  0
   49.1930   28.5150   47.6080 H   0  0  0  0  0  0  0  0  0  0  0  0
   44.8220   30.9180   42.0560 C   0  0  0  0  0  0  0  0  0  0  0  0
   44.7440   30.2030   42.9280 H   0  0  0  0  0  0  0  0  0  0  0  0
   44.8060   30.2380   41.1660 H   0  0  0  0  0  0  0  0  0  0  0  0
   43.9570   31.5710   42.1450 H   0  0  0  0  0  0  0  0  0  0  0  0
   47.2740   30.6770   41.9820 C   0  0  0  0  0  0  0  0  0  0  0  0
   48.1740   31.2710   41.7270 H   0  0  0  0  0  0  0  0  0  0  0  0
   47.5080   30.0870   42.8790 H   0  0  0  0  0  0  0  0  0  0  0  0
   46.9810   30.0060   41.1620 H   0  0  0  0  0  0  0  0  0  0  0  0
   46.2480   32.8050   41.3910 C   0  0  1  0  0  0  0  0  0  0  0  0
   46.0840   32.3810   40.3530 H   0  0  0  0  0  0  0  0  0  0  0  0
   45.0860   33.7630   41.4690 C   0  0  0  0  0  0  0  0  0  0  0  0
   45.1770   35.1020   41.7920 C   0  0  0  0  0  0  0  0  0  0  0  0
   44.0820   35.9270   41.8560 C   0  0  0  0  0  0  0  0  0  0  0  0
   44.1930   36.9630   42.1120 H   0  0  0  0  0  0  0  0  0  0  0  0
   42.8550   35.4510   41.6020 N   0  0  0  0  0  0  0  0  0  0  0  0
   42.7360   34.1550   41.2840 C   0  0  0  0  0  0  0  0  0  0  0  0
   43.8010   33.3560   41.2220 N   0  0  0  0  0  0  0  0  0  0  0  0
   47.4980   33.4500   41.4530 N   0  0  0  0  0  0  0  0  0  0  0  0
   48.5810   34.1240   42.0500 C   0  0  0  0  0  0  0  0  0  0  0  0
   49.6640   34.7440   42.0820 O   0  0  0  0  0  0  0  0  0  0  0  0
   48.4400   34.1820   43.4890 N   0  0  0  0  0  0  0  0  0  0  0  0
   48.8170   33.4640   44.1460 H   0  0  0  0  0  0  0  0  0  0  0  0
   47.9620   34.9240   44.0100 H   0  0  0  0  0  0  0  0  0  0  0  0
   48.2250   33.6770   40.1780 C   0  0  0  0  0  0  0  0  0  0  0  0
   47.3120   33.2090   39.2010 F   0  0  0  0  0  0  0  0  0  0  0  0
   49.3550   33.0540   40.0970 F   0  0  0  0  0  0  0  0  0  0  0  0
   48.2730   35.0680   39.9660 F   0  0  0  0  0  0  0  0  0  0  0  0
  1  5  1  0  0  0  0
  2  3  2  0  0  0  0
  2 10  1  0  0  0  0
  3  7  1  0  0  0  0
  4  3  1  0  0  0  0
  5  4  1  0  0  0  0
  5  6  2  0  0  0  0
  6  2  1  0  0  0  0
  8 14  1  0  0  0  0
  9 15  1  0  0  0  0
  9  8  2  0  0  0  0
 10  9  1  0  0  0  0
 11 10  2  0  0  0  0
 11 12  1  0  0  0  0
 12 13  2  0  0  0  0
 13  8  1  0  0  0  0
 16 12  1  0  0  0  0
 17 20  1  0  0  0  0
 17  1  1  0  0  0  0
 17 18  1  0  0  0  0
 19 17  1  0  0  0  0
 21  1  1  0  0  0  0
 21 23  1  0  0  0  0
 22 21  1  0  0  0  0
 24 21  1  0  0  0  0
 25 26  1  6  0  0  0
 25 34  1  0  0  0  0
 25 27  1  0  0  0  0
 25  1  1  0  0  0  0
 27 28  1  0  0  0  0
 28 29  2  0  0  0  0
 29 30  1  0  0  0  0
 31 29  1  0  0  0  0
 32 31  2  0  0  0  0
 33 32  1  0  0  0  0
 33 27  2  0  0  0  0
 34 35  1  0  0  0  0
 35 36  2  0  0  0  0
 35 37  1  0  0  0  0
 37 39  1  0  0  0  0
 37 38  1  0  0  0  0
 40 34  1  0  0  0  0
 41 40  1  0  0  0  0
 42 40  1  0  0  0  0
 43 40  1  0  0  0  0
M  END
>  <minimizedAffinity>
-5.228302

>  <minimizedRMSD>
1.96201539

$$$$
