
 OpenBabel03232520573D

 35 37  0  0  1  0  0  0  0  0999 V2000
   46.1160   33.6030   45.3310 C   0  0  2  0  0  0  0  0  0  0  0  0
   44.9730   34.6870   45.5280 C   0  0  0  0  0  0  0  0  0  0  0  0
   44.7420   35.5950   44.4350 C   0  0  0  0  0  0  0  0  0  0  0  0
   45.5150   35.5080   43.2130 C   0  0  1  0  0  0  0  0  0  0  0  0
   46.6120   34.5120   43.1940 C   0  0  0  0  0  0  0  0  0  0  0  0
   46.1300   33.2790   43.9420 C   0  0  0  0  0  0  0  0  0  0  0  0
   46.9500   34.2980   45.6550 H   0  0  0  0  0  0  0  0  0  0  0  0
   44.2780   34.9340   46.3230 H   0  0  0  0  0  0  0  0  0  0  0  0
   44.0040   36.3480   44.4780 H   0  0  0  0  0  0  0  0  0  0  0  0
   45.9500   36.5030   42.9810 H   0  0  0  0  0  0  0  0  0  0  0  0
   47.5470   34.8700   43.6660 H   0  0  0  0  0  0  0  0  0  0  0  0
   46.8600   34.2410   42.1480 H   0  0  0  0  0  0  0  0  0  0  0  0
   45.0220   33.2030   43.6040 H   0  0  0  0  0  0  0  0  0  0  0  0
   46.5910   32.4780   43.4440 H   0  0  0  0  0  0  0  0  0  0  0  0
   45.3320   32.8830   47.5660 C   0  0  0  0  0  0  0  0  0  0  0  0
   45.8900   32.6250   46.3460 C   0  0  0  0  0  0  0  0  0  0  0  0
   46.1910   31.2850   46.1010 C   0  0  0  0  0  0  0  0  0  0  0  0
   45.9480   30.3130   47.0000 N   0  0  0  0  0  0  0  0  0  0  0  0
   45.3860   30.6120   48.2190 C   0  0  0  0  0  0  0  0  0  0  0  0
   45.0900   31.8810   48.4790 N   0  0  0  0  0  0  0  0  0  0  0  0
   45.1540   29.5930   49.1850 N   0  0  0  0  0  0  0  0  0  0  0  0
   45.0640   33.8610   47.8640 H   0  0  0  0  0  0  0  0  0  0  0  0
   46.0670   29.1640   49.4730 H   0  0  0  0  0  0  0  0  0  0  0  0
   44.2210   29.3140   49.5500 H   0  0  0  0  0  0  0  0  0  0  0  0
   46.8330   30.6150   44.9800 C   0  0  0  0  0  0  0  0  0  0  0  0
   46.1080   29.8080   44.1140 C   0  0  0  0  0  3  0  0  0  0  0  0
   46.6040   29.0630   43.0660 C   0  0  0  0  0  3  0  0  0  0  0  0
   47.9330   29.1420   42.8820 N   0  0  0  0  0  0  0  0  0  0  0  0
   48.6820   29.9080   43.6900 C   0  0  0  0  0  0  0  0  0  0  0  0
   49.7730   30.0050   43.5810 H   0  0  0  0  0  0  0  0  0  0  0  0
   48.1560   30.6170   44.7000 N   0  0  0  0  0  0  0  0  0  0  0  0
   44.5300   35.2110   42.0560 C   0  0  0  0  0  0  0  0  0  0  0  0
   43.5070   34.3700   42.4270 F   0  0  0  0  0  0  0  0  0  0  0  0
   43.9460   36.4310   41.7250 F   0  0  0  0  0  0  0  0  0  0  0  0
   45.2350   34.7830   40.9400 F   0  0  0  0  0  0  0  0  0  0  0  0
  1  2  1  0  0  0  0
  1  7  1  1  0  0  0
  1 16  1  0  0  0  0
  2  8  1  0  0  0  0
  3  9  1  0  0  0  0
  3  2  2  0  0  0  0
  4 10  1  6  0  0  0
  4  3  1  0  0  0  0
  5  4  1  0  0  0  0
  5 11  1  0  0  0  0
  5  6  1  0  0  0  0
  6  1  1  0  0  0  0
 12  5  1  0  0  0  0
 13  6  1  0  0  0  0
 14  6  1  0  0  0  0
 15 22  1  0  0  0  0
 15 20  1  0  0  0  0
 16 15  2  0  0  0  0
 17 16  1  0  0  0  0
 17 18  2  0  0  0  0
 18 19  1  0  0  0  0
 19 20  2  0  0  0  0
 19 21  1  0  0  0  0
 21 23  1  0  0  0  0
 21 24  1  0  0  0  0
 25 17  1  0  0  0  0
 26 25  2  0  0  0  0
 27 26  1  0  0  0  0
 28 27  2  0  0  0  0
 28 29  1  0  0  0  0
 29 31  2  0  0  0  0
 30 29  1  0  0  0  0
 31 25  1  0  0  0  0
 32 33  1  0  0  0  0
 32  4  1  0  0  0  0
 34 32  1  0  0  0  0
 35 32  1  0  0  0  0
M  END
>  <minimizedAffinity>
-5.64470148

>  <minimizedRMSD>
0.540361106

$$$$
