
 OpenBabel03232519293D

 38 40  0  0  1  0  0  0  0  0999 V2000
   46.9990   34.3160   40.4190 C   0  0  1  0  0  0  0  0  0  0  0  0
   48.1910   34.1520   39.4570 C   0  0  0  0  0  0  0  0  0  0  0  0
   47.6110   33.8870   38.0910 C   0  0  0  0  0  0  0  0  0  0  0  0
   46.9260   32.5510   38.0890 C   0  0  0  0  0  0  0  0  0  0  0  0
   46.7640   32.0060   39.4790 C   0  0  0  0  0  0  0  0  0  0  0  0
   46.2320   33.0560   40.4620 C   0  0  2  0  0  0  0  0  0  0  0  0
   46.4660   35.2100   40.0730 H   0  0  0  0  0  0  0  0  0  0  0  0
   48.8590   33.3490   39.7590 H   0  0  0  0  0  0  0  0  0  0  0  0
   48.7370   35.1250   39.4590 H   0  0  0  0  0  0  0  0  0  0  0  0
   48.4810   33.7970   37.3710 H   0  0  0  0  0  0  0  0  0  0  0  0
   47.0260   34.7250   37.7060 H   0  0  0  0  0  0  0  0  0  0  0  0
   45.9330   32.6100   37.6010 H   0  0  0  0  0  0  0  0  0  0  0  0
   47.4880   31.7890   37.5100 H   0  0  0  0  0  0  0  0  0  0  0  0
   47.7530   31.6230   39.8040 H   0  0  0  0  0  0  0  0  0  0  0  0
   46.0620   31.1550   39.4850 H   0  0  0  0  0  0  0  0  0  0  0  0
   46.4210   32.5490   41.4560 H   0  0  0  0  0  0  0  0  0  0  0  0
   44.7940   33.1190   40.1790 C   0  0  0  0  0  0  0  0  0  0  0  0
   43.9900   32.0520   39.9110 C   0  0  0  0  0  0  0  0  0  0  0  0
   42.6350   32.0770   39.6530 C   0  0  0  0  0  0  0  0  0  0  0  0
   42.0320   33.3000   39.6660 N   0  0  0  0  0  0  0  0  0  0  0  0
   42.8020   34.3930   39.9280 C   0  0  0  0  0  0  0  0  0  0  0  0
   42.4340   35.4190   39.9660 H   0  0  0  0  0  0  0  0  0  0  0  0
   44.1200   34.3090   40.1740 N   0  0  0  0  0  0  0  0  0  0  0  0
   47.5610   34.6840   41.8080 C   0  0  0  0  0  0  0  0  0  0  0  0
   48.6690   34.4320   41.7210 H   0  0  0  0  0  0  0  0  0  0  0  0
   47.4610   35.7220   42.0590 H   0  0  0  0  0  0  0  0  0  0  0  0
   46.9990   33.6670   42.7600 C   0  0  0  0  0  0  0  0  0  0  0  0
   47.7760   33.0600   43.2660 H   0  0  0  0  0  0  0  0  0  0  0  0
   46.3400   32.9200   42.2410 H   0  0  0  0  0  0  0  0  0  0  0  0
   46.0170   33.6860   44.9890 C   0  0  0  0  0  0  0  0  0  0  0  0
   46.1450   34.2920   43.7290 C   0  0  0  0  0  0  0  0  0  0  0  0
   45.4490   35.4440   43.4560 C   0  0  0  0  0  0  0  0  0  0  0  0
   44.6520   35.9570   44.4370 N   0  0  0  0  0  0  0  0  0  0  0  0
   44.5270   35.3730   45.6550 C   0  0  0  0  0  0  0  0  0  0  0  0
   45.2110   34.2360   45.9310 N   0  0  0  0  0  0  0  0  0  0  0  0
   46.5570   32.7940   45.2000 H   0  0  0  0  0  0  0  0  0  0  0  0
   45.4320   36.0190   42.5450 H   0  0  0  0  0  0  0  0  0  0  0  0
   43.8770   35.8230   46.4010 H   0  0  0  0  0  0  0  0  0  0  0  0
  1  7  1  6  0  0  0
  1  6  1  0  0  0  0
  1 24  1  0  0  0  0
  2  9  1  0  0  0  0
  2  8  1  0  0  0  0
  2  1  1  0  0  0  0
  3  2  1  0  0  0  0
  4  3  1  0  0  0  0
  4  5  1  0  0  0  0
  5 15  1  0  0  0  0
  5 14  1  0  0  0  0
  5  6  1  0  0  0  0
  6 16  1  1  0  0  0
 10  3  1  0  0  0  0
 11  3  1  0  0  0  0
 12  4  1  0  0  0  0
 13  4  1  0  0  0  0
 17  6  1  0  0  0  0
 18 17  2  0  0  0  0
 19 20  2  0  0  0  0
 19 18  1  0  0  0  0
 20 21  1  0  0  0  0
 21 22  1  0  0  0  0
 21 23  2  0  0  0  0
 23 17  1  0  0  0  0
 24 26  1  0  0  0  0
 24 27  1  0  0  0  0
 25 24  1  0  0  0  0
 27 28  1  0  0  0  0
 27 31  1  0  0  0  0
 29 27  1  0  0  0  0
 30 36  1  0  0  0  0
 30 35  1  0  0  0  0
 31 30  2  0  0  0  0
 32 31  1  0  0  0  0
 32 33  2  0  0  0  0
 33 34  1  0  0  0  0
 34 35  2  0  0  0  0
 34 38  1  0  0  0  0
 37 32  1  0  0  0  0
M  END
>  <minimizedAffinity>
-4.57689095

>  <minimizedRMSD>
2.1404376

$$$$
