
 OpenBabel03232520153D

 32 34  0  0  0  0  0  0  0  0999 V2000
   47.4010   33.9900   42.3970 C   0  0  0  0  0  0  0  0  0  0  0  0
   48.1310   35.1340   41.7870 C   0  0  0  0  0  0  0  0  0  0  0  0
   49.5330   35.3800   42.2730 C   0  0  0  0  0  0  0  0  0  0  0  0
   50.3360   34.1340   42.4190 C   0  0  0  0  0  0  0  0  0  0  0  0
   49.5380   32.8560   42.2350 C   0  0  0  0  0  0  0  0  0  0  0  0
   48.2990   32.9980   43.0810 C   0  0  0  0  0  0  0  0  0  0  0  0
   48.1550   35.1770   40.6940 H   0  0  0  0  0  0  0  0  0  0  0  0
   47.5780   36.0820   42.0700 H   0  0  0  0  0  0  0  0  0  0  0  0
   50.0440   36.0340   41.5380 H   0  0  0  0  0  0  0  0  0  0  0  0
   49.5200   35.9860   43.2140 H   0  0  0  0  0  0  0  0  0  0  0  0
   50.7190   34.0800   43.4600 H   0  0  0  0  0  0  0  0  0  0  0  0
   51.2640   34.1270   41.7800 H   0  0  0  0  0  0  0  0  0  0  0  0
   50.1440   32.0380   42.6760 H   0  0  0  0  0  0  0  0  0  0  0  0
   49.3500   32.6280   41.1820 H   0  0  0  0  0  0  0  0  0  0  0  0
   48.6640   33.3730   44.0800 H   0  0  0  0  0  0  0  0  0  0  0  0
   47.7880   32.0300   43.1890 H   0  0  0  0  0  0  0  0  0  0  0  0
   45.3690   34.2820   45.5020 C   0  0  0  0  0  0  0  0  0  0  0  0
   44.5790   35.4090   45.2400 C   0  0  0  0  0  0  0  0  0  0  0  0
   44.7490   36.0620   44.0150 C   0  0  0  0  0  0  0  0  0  0  0  0
   45.6720   35.5620   43.1520 N   0  0  0  0  0  0  0  0  0  0  0  0
   46.4150   34.4790   43.4270 C   0  0  0  0  0  0  0  0  0  0  0  0
   46.2560   33.8410   44.6160 N   0  0  0  0  0  0  0  0  0  0  0  0
   45.3390   33.6840   46.4060 H   0  0  0  0  0  0  0  0  0  0  0  0
   43.8830   35.7000   46.0150 H   0  0  0  0  0  0  0  0  0  0  0  0
   44.1450   36.9190   43.8200 H   0  0  0  0  0  0  0  0  0  0  0  0
   46.5250   33.2290   41.4620 C   0  0  0  0  0  0  0  0  0  0  0  0
   45.6850   32.1580   41.6450 C   0  0  0  0  0  0  0  0  0  0  0  0
   44.9830   31.6330   40.5840 C   0  0  0  0  0  0  0  0  0  0  0  0
   45.1110   32.1660   39.3430 N   0  0  0  0  0  0  0  0  0  0  0  0
   45.9430   33.2260   39.1600 C   0  0  0  0  0  0  0  0  0  0  0  0
   46.0340   33.6440   38.1480 H   0  0  0  0  0  0  0  0  0  0  0  0
   46.6280   33.7400   40.1960 N   0  0  0  0  0  0  0  0  0  0  0  0
  1  6  1  0  0  0  0
  1 21  1  0  0  0  0
  2  8  1  0  0  0  0
  2  3  1  0  0  0  0
  2  1  1  0  0  0  0
  3  4  1  0  0  0  0
  3 10  1  0  0  0  0
  4 11  1  0  0  0  0
  5  4  1  0  0  0  0
  5 13  1  0  0  0  0
  5  6  1  0  0  0  0
  6 16  1  0  0  0  0
  6 15  1  0  0  0  0
  7  2  1  0  0  0  0
  9  3  1  0  0  0  0
 12  4  1  0  0  0  0
 14  5  1  0  0  0  0
 17 23  1  0  0  0  0
 18 17  1  0  0  0  0
 18 24  1  0  0  0  0
 19 18  2  0  0  0  0
 20 21  2  0  0  0  0
 20 19  1  0  0  0  0
 21 22  1  0  0  0  0
 22 17  2  0  0  0  0
 25 19  1  0  0  0  0
 26 27  1  0  0  0  0
 26  1  1  0  0  0  0
 28 27  2  0  0  0  0
 29 28  1  0  0  0  0
 30 29  2  0  0  0  0
 30 32  1  0  0  0  0
 31 30  1  0  0  0  0
 32 26  2  0  0  0  0
M  END
>  <minimizedAffinity>
-5.2870779

>  <minimizedRMSD>
0.859126449

$$$$
