
 OpenBabel03232518093D

 24 25  0  0  0  0  0  0  0  0999 V2000
   47.4880   34.3900   42.9640 C   0  0  0  0  0  0  0  0  0  0  0  0
   46.5350   34.9280   42.0720 C   0  0  0  0  0  0  0  0  0  0  0  0
   45.1890   34.7900   42.3920 C   0  0  0  0  0  0  0  0  0  0  0  0
   44.8570   34.1460   43.5440 N   0  0  0  0  0  0  0  0  0  0  0  0
   45.8000   33.6470   44.3690 C   0  0  0  0  0  0  0  0  0  0  0  0
   47.1010   33.7710   44.0760 N   0  0  0  0  0  0  0  0  0  0  0  0
   46.7870   35.4450   41.1470 H   0  0  0  0  0  0  0  0  0  0  0  0
   45.4660   33.1470   45.2690 H   0  0  0  0  0  0  0  0  0  0  0  0
   48.8790   34.6050   42.5050 C   0  0  0  0  0  0  0  0  0  0  0  0
   49.2720   33.6900   41.9900 H   0  0  0  0  0  0  0  0  0  0  0  0
   49.5010   34.8310   43.3980 H   0  0  0  0  0  0  0  0  0  0  0  0
   48.9500   35.7450   41.5080 C   0  0  0  0  0  0  0  0  0  0  0  0
   48.3850   36.5940   41.9760 H   0  0  0  0  0  0  0  0  0  0  0  0
   48.4740   35.4190   40.5650 H   0  0  0  0  0  0  0  0  0  0  0  0
   49.9850   36.0300   41.3100 H   0  0  0  0  0  0  0  0  0  0  0  0
   43.9280   35.4340   41.3310 S   0  0  0  0  0  0  0  0  0  0  0  0
   42.4620   34.4040   41.3700 C   0  0  0  0  0  0  0  0  0  0  0  0
   42.4000   33.0300   41.2630 C   0  0  0  0  0  0  0  0  0  0  0  0
   41.1700   32.4060   41.3160 C   0  0  0  0  0  0  0  0  0  0  0  0
   41.1610   31.3400   41.2310 H   0  0  0  0  0  0  0  0  0  0  0  0
   40.0010   33.1210   41.4720 C   0  0  0  0  0  0  0  0  0  0  0  0
   40.0690   34.5030   41.5780 C   0  0  0  0  0  0  0  0  0  0  0  0
   39.1370   35.0710   41.7020 H   0  0  0  0  0  0  0  0  0  0  0  0
   41.2960   35.1580   41.5290 C   0  0  0  0  0  0  0  0  0  0  0  0
  1  6  1  0  0  0  0
  2  3  1  0  0  0  0
  2  1  2  0  0  0  0
  3  4  2  0  0  0  0
  4  5  1  0  0  0  0
  5  8  1  0  0  0  0
  6  5  2  0  0  0  0
  7  2  1  0  0  0  0
  9  1  1  0  0  0  0
  9 11  1  0  0  0  0
 10  9  1  0  0  0  0
 12 13  1  0  0  0  0
 12  9  1  0  0  0  0
 14 12  1  0  0  0  0
 15 12  1  0  0  0  0
 16 17  1  0  0  0  0
 16  3  1  0  0  0  0
 17 24  1  0  0  0  0
 18 19  1  0  0  0  0
 18 17  2  0  0  0  0
 19 21  2  0  0  0  0
 20 19  1  0  0  0  0
 21 22  1  0  0  0  0
 22 23  1  0  0  0  0
 24 22  2  0  0  0  0
M  END
>  <minimizedAffinity>
-4.58206272

>  <minimizedRMSD>
5.20370054

$$$$
