
 OpenBabel03232521013D

 43 46  0  0  1  0  0  0  0  0999 V2000
   45.3110   32.9080   47.5060 C   0  0  0  0  0  0  0  0  0  0  0  0
   45.8900   32.6470   46.3070 C   0  0  0  0  0  0  0  0  0  0  0  0
   46.1910   31.3020   46.0790 C   0  0  0  0  0  0  0  0  0  0  0  0
   45.9300   30.3150   46.9730 N   0  0  0  0  0  0  0  0  0  0  0  0
   45.3370   30.6310   48.1840 C   0  0  0  0  0  0  0  0  0  0  0  0
   45.0440   31.9040   48.4200 N   0  0  0  0  0  0  0  0  0  0  0  0
   45.0780   29.6250   49.1490 N   0  0  0  0  0  0  0  0  0  0  0  0
   45.0410   33.9140   47.7890 H   0  0  0  0  0  0  0  0  0  0  0  0
   45.7470   29.7540   49.9550 H   0  0  0  0  0  0  0  0  0  0  0  0
   44.3770   28.8520   49.1560 H   0  0  0  0  0  0  0  0  0  0  0  0
   46.1480   33.5940   45.2780 C   0  0  2  0  0  0  0  0  0  0  0  0
   44.9470   34.6970   45.5040 C   0  0  0  0  0  0  0  0  0  0  0  0
   44.7220   35.6270   44.4310 C   0  0  0  0  0  0  0  0  0  0  0  0
   45.5240   35.5480   43.2100 C   0  0  1  0  0  0  0  0  0  0  0  0
   46.5780   34.5360   43.1630 C   0  0  0  0  0  0  0  0  0  0  0  0
   46.1190   33.3070   43.9140 C   0  0  0  0  0  0  0  0  0  0  0  0
   46.9890   34.2820   45.6020 H   0  0  0  0  0  0  0  0  0  0  0  0
   44.2660   34.8600   46.3300 H   0  0  0  0  0  0  0  0  0  0  0  0
   43.9460   36.3610   44.5470 H   0  0  0  0  0  0  0  0  0  0  0  0
   45.9730   36.5350   42.9700 H   0  0  0  0  0  0  0  0  0  0  0  0
   46.7670   34.2960   42.0750 H   0  0  0  0  0  0  0  0  0  0  0  0
   47.5680   34.8800   43.5440 H   0  0  0  0  0  0  0  0  0  0  0  0
   45.1710   32.9680   43.4480 H   0  0  0  0  0  0  0  0  0  0  0  0
   46.9770   32.6570   43.5940 H   0  0  0  0  0  0  0  0  0  0  0  0
   44.5100   35.2800   42.0560 C   0  0  0  0  0  0  0  0  0  0  0  0
   43.4500   34.4820   42.4480 F   0  0  0  0  0  0  0  0  0  0  0  0
   43.9650   36.5170   41.7200 F   0  0  0  0  0  0  0  0  0  0  0  0
   45.1870   34.8210   40.9410 F   0  0  0  0  0  0  0  0  0  0  0  0
   46.8510   30.6100   44.9890 C   0  0  0  0  0  0  0  0  0  0  0  0
   46.5320   29.8150   43.9360 C   0  0  0  0  0  0  0  0  0  0  0  0
   47.7230   29.4490   43.2890 C   0  0  0  0  0  0  0  0  0  0  0  0
   48.6960   30.0400   43.9810 N   0  0  0  0  0  0  0  0  0  0  0  0
   48.2110   30.7290   44.9870 N   0  0  0  0  0  0  0  0  0  0  0  0
   45.4880   29.6050   43.7730 H   0  0  0  0  0  0  0  0  0  0  0  0
   47.6920   28.8160   42.4210 H   0  0  0  0  0  0  0  0  0  0  0  0
   50.0660   29.8800   43.5940 C   0  0  0  0  0  0  0  0  0  0  0  0
   50.9580   29.1920   44.4060 C   0  0  0  0  0  3  0  0  0  0  0  0
   52.2620   29.0570   44.0070 C   0  0  0  0  0  0  0  0  0  0  0  0
   52.9330   28.5090   44.6740 H   0  0  0  0  0  0  0  0  0  0  0  0
   52.7120   29.5960   42.8030 C   0  0  0  0  0  3  0  0  0  0  0  0
   51.7870   30.2770   42.0190 C   0  0  0  0  0  0  0  0  0  0  0  0
   52.0980   30.7090   41.0790 H   0  0  0  0  0  0  0  0  0  0  0  0
   50.4750   30.4350   42.3800 C   0  0  0  0  0  3  0  0  0  0  0  0
  1  8  1  0  0  0  0
  1  6  1  0  0  0  0
  2  1  2  0  0  0  0
  3  2  1  0  0  0  0
  3  4  2  0  0  0  0
  4  5  1  0  0  0  0
  5  6  2  0  0  0  0
  5  7  1  0  0  0  0
  7 10  1  0  0  0  0
  7  9  1  0  0  0  0
 11 12  1  0  0  0  0
 11 17  1  1  0  0  0
 11  2  1  0  0  0  0
 12 18  1  0  0  0  0
 13 19  1  0  0  0  0
 13 12  2  0  0  0  0
 14 20  1  6  0  0  0
 14 13  1  0  0  0  0
 15 14  1  0  0  0  0
 15 22  1  0  0  0  0
 15 16  1  0  0  0  0
 16 11  1  0  0  0  0
 21 15  1  0  0  0  0
 23 16  1  0  0  0  0
 24 16  1  0  0  0  0
 25 26  1  0  0  0  0
 25 14  1  0  0  0  0
 27 25  1  0  0  0  0
 28 25  1  0  0  0  0
 29  3  1  0  0  0  0
 30 29  1  0  0  0  0
 31 30  2  0  0  0  0
 31 32  1  0  0  0  0
 32 33  1  0  0  0  0
 33 29  2  0  0  0  0
 34 30  1  0  0  0  0
 35 31  1  0  0  0  0
 36 32  1  0  0  0  0
 36 37  1  0  0  0  0
 38 37  2  0  0  0  0
 38 39  1  0  0  0  0
 40 38  1  0  0  0  0
 41 43  1  0  0  0  0
 41 40  2  0  0  0  0
 42 41  1  0  0  0  0
 43 36  2  0  0  0  0
M  END
>  <minimizedAffinity>
-5.87534714

>  <minimizedRMSD>
0.487938106

$$$$
