
 OpenBabel03232511163D

 42 45  0  0  1  0  0  0  0  0999 V2000
   48.3590   30.7140   47.9010 C   0  0  2  0  0  0  0  0  0  0  0  0
   49.0700   31.5690   47.8160 H   0  0  0  0  0  0  0  0  0  0  0  0
   47.0190   32.0880   46.2670 C   0  0  2  0  0  0  0  0  0  0  0  0
   46.6290   30.6690   45.9170 C   0  0  0  0  0  0  0  0  0  0  0  0
   47.0660   30.9790   47.2840 C   0  0  1  0  0  0  0  0  0  0  0  0
   47.7960   32.4980   45.6290 H   0  0  0  0  0  0  0  0  0  0  0  0
   47.3470   30.1450   45.2570 H   0  0  0  0  0  0  0  0  0  0  0  0
   45.5720   30.4880   45.6770 H   0  0  0  0  0  0  0  0  0  0  0  0
   46.2040   30.9520   48.0330 H   0  0  0  0  0  0  0  0  0  0  0  0
   45.8890   33.0910   46.4420 C   0  0  0  0  0  0  0  0  0  0  0  0
   45.2280   32.9720   47.5340 O   0  0  0  0  0  0  0  0  0  0  0  0
   44.4810   35.9310   44.6700 C   0  0  0  0  0  0  0  0  0  0  0  0
   45.1160   35.8860   43.4140 C   0  0  0  0  0  0  0  0  0  0  0  0
   46.0370   34.8620   43.2240 C   0  0  0  0  0  0  0  0  0  0  0  0
   46.2440   34.0030   44.2430 N   0  0  0  0  0  0  0  0  0  0  0  0
   45.6160   34.0760   45.4340 C   0  0  0  0  0  0  0  0  0  0  0  0
   44.7090   35.0570   45.6720 N   0  0  0  0  0  0  0  0  0  0  0  0
   43.7660   36.7260   44.8220 H   0  0  0  0  0  0  0  0  0  0  0  0
   44.8740   36.6190   42.6820 H   0  0  0  0  0  0  0  0  0  0  0  0
   46.5520   34.7850   42.2750 H   0  0  0  0  0  0  0  0  0  0  0  0
   49.0880   29.5470   47.2600 C   0  0  0  0  0  0  0  0  0  0  0  0
   48.5420   28.6230   47.6040 H   0  0  0  0  0  0  0  0  0  0  0  0
   49.0100   29.5390   46.1610 H   0  0  0  0  0  0  0  0  0  0  0  0
   50.1110   29.4270   47.6430 H   0  0  0  0  0  0  0  0  0  0  0  0
   48.2240   30.4190   49.3710 C   0  0  0  0  0  0  0  0  0  0  0  0
   47.5430   31.1820   49.8000 H   0  0  0  0  0  0  0  0  0  0  0  0
   47.6970   29.4500   49.4890 H   0  0  0  0  0  0  0  0  0  0  0  0
   49.4750   30.4270   50.1240 C   0  0  0  0  0  0  0  0  0  0  0  0
   50.2310   29.3860   50.6160 C   0  0  0  0  0  0  0  0  0  0  0  0
   51.3900   29.6050   51.3000 C   0  0  0  0  0  0  0  0  0  0  0  0
   51.7930   30.8860   51.4920 N   0  0  0  0  0  0  0  0  0  0  0  0
   51.0760   31.9240   51.0230 C   0  0  0  0  0  0  0  0  0  0  0  0
   49.9400   31.6880   50.3540 N   0  0  0  0  0  0  0  0  0  0  0  0
   49.7830   28.4130   50.3870 H   0  0  0  0  0  0  0  0  0  0  0  0
   51.9100   28.7240   51.6460 H   0  0  0  0  0  0  0  0  0  0  0  0
   51.5800   33.2760   51.2720 C   0  0  0  0  0  0  0  0  0  0  0  0
   52.3720   33.4800   52.4020 C   0  0  0  0  0  0  0  0  0  0  0  0
   52.8370   34.7490   52.6220 C   0  0  0  0  0  0  0  0  0  0  0  0
   52.4950   35.7400   51.7190 C   0  0  0  0  0  0  0  0  0  0  0  0
   52.8910   36.7170   51.9480 H   0  0  0  0  0  0  0  0  0  0  0  0
   51.7030   35.5080   50.6010 C   0  0  0  0  0  0  0  0  0  0  0  0
   51.2510   34.2410   50.3990 N   0  0  0  0  0  0  0  0  0  0  0  0
  1  2  1  6  0  0  0
  1 25  1  0  0  0  0
  3  6  1  6  0  0  0
  3 10  1  0  0  0  0
  3  5  1  0  0  0  0
  4  3  1  0  0  0  0
  4  5  1  0  0  0  0
  5  1  1  0  0  0  0
  5  9  1  1  0  0  0
  7  4  1  0  0  0  0
  8  4  1  0  0  0  0
 10 11  2  0  0  0  0
 12 18  1  0  0  0  0
 12 17  1  0  0  0  0
 13 12  2  0  0  0  0
 14 13  1  0  0  0  0
 14 15  2  0  0  0  0
 15 16  1  0  0  0  0
 16 17  2  0  0  0  0
 16 10  1  0  0  0  0
 19 13  1  0  0  0  0
 20 14  1  0  0  0  0
 21 22  1  0  0  0  0
 21 24  1  0  0  0  0
 21  1  1  0  0  0  0
 23 21  1  0  0  0  0
 25 27  1  0  0  0  0
 25 26  1  0  0  0  0
 25 28  1  0  0  0  0
 28 33  2  0  0  0  0
 28 29  1  0  0  0  0
 29 30  2  0  0  0  0
 30 31  1  0  0  0  0
 30 35  1  0  0  0  0
 32 36  1  0  0  0  0
 32 31  2  0  0  0  0
 33 32  1  0  0  0  0
 34 29  1  0  0  0  0
 36 37  1  0  0  0  0
 37 38  2  0  0  0  0
 39 40  1  0  0  0  0
 39 38  1  0  0  0  0
 41 39  2  0  0  0  0
 42 41  1  0  0  0  0
 42 36  2  0  0  0  0
M  END
>  <minimizedAffinity>
-6.04570627

>  <minimizedRMSD>
1.14455116

$$$$
