
 OpenBabel03232520563D

 35 37  0  0  1  0  0  0  0  0999 V2000
   46.1330   33.5930   45.3130 C   0  0  2  0  0  0  0  0  0  0  0  0
   44.9690   34.6770   45.5170 C   0  0  0  0  0  0  0  0  0  0  0  0
   44.7280   35.5950   44.4350 C   0  0  0  0  0  0  0  0  0  0  0  0
   45.5150   35.5080   43.2160 C   0  0  1  0  0  0  0  0  0  0  0  0
   46.6120   34.5160   43.1930 C   0  0  0  0  0  0  0  0  0  0  0  0
   46.1310   33.2720   43.9340 C   0  0  0  0  0  0  0  0  0  0  0  0
   46.9350   34.3240   45.6420 H   0  0  0  0  0  0  0  0  0  0  0  0
   44.2710   34.9070   46.3170 H   0  0  0  0  0  0  0  0  0  0  0  0
   43.9670   36.3460   44.5030 H   0  0  0  0  0  0  0  0  0  0  0  0
   45.9310   36.5190   42.9950 H   0  0  0  0  0  0  0  0  0  0  0  0
   47.4890   34.8900   43.7630 H   0  0  0  0  0  0  0  0  0  0  0  0
   46.8850   34.3080   42.1560 H   0  0  0  0  0  0  0  0  0  0  0  0
   46.6160   32.5030   43.4100 H   0  0  0  0  0  0  0  0  0  0  0  0
   45.0210   33.1640   43.5960 H   0  0  0  0  0  0  0  0  0  0  0  0
   45.3750   32.9180   47.5740 C   0  0  0  0  0  0  0  0  0  0  0  0
   45.9070   32.6360   46.3480 C   0  0  0  0  0  0  0  0  0  0  0  0
   46.1570   31.2750   46.1060 C   0  0  0  0  0  0  0  0  0  0  0  0
   45.8880   30.3170   47.0110 N   0  0  0  0  0  0  0  0  0  0  0  0
   45.3510   30.6470   48.2360 C   0  0  0  0  0  0  0  0  0  0  0  0
   45.1060   31.9280   48.4940 N   0  0  0  0  0  0  0  0  0  0  0  0
   45.0860   29.6460   49.2100 N   0  0  0  0  0  0  0  0  0  0  0  0
   45.1640   33.9460   47.8200 H   0  0  0  0  0  0  0  0  0  0  0  0
   44.7130   28.7100   48.9670 H   0  0  0  0  0  0  0  0  0  0  0  0
   45.2910   29.9140   50.1910 H   0  0  0  0  0  0  0  0  0  0  0  0
   46.7540   30.5430   44.9970 C   0  0  0  0  0  0  0  0  0  0  0  0
   46.0230   29.7890   44.0580 C   0  0  0  0  0  3  0  0  0  0  0  0
   46.5290   29.0750   43.0000 C   0  0  0  0  0  3  0  0  0  0  0  0
   47.9000   29.1170   42.8690 C   0  0  0  0  0  0  0  0  0  0  0  0
   48.3440   28.5640   42.0430 H   0  0  0  0  0  0  0  0  0  0  0  0
   48.6230   29.8470   43.7770 C   0  0  0  0  0  3  0  0  0  0  0  0
   48.0980   30.5260   44.7890 N   0  0  0  0  0  0  0  0  0  0  0  0
   44.5300   35.2220   42.0550 C   0  0  0  0  0  0  0  0  0  0  0  0
   43.5030   34.3810   42.4190 F   0  0  0  0  0  0  0  0  0  0  0  0
   43.9490   36.4420   41.7220 F   0  0  0  0  0  0  0  0  0  0  0  0
   45.2360   34.7910   40.9390 F   0  0  0  0  0  0  0  0  0  0  0  0
  1  2  1  0  0  0  0
  1  7  1  1  0  0  0
  1 16  1  0  0  0  0
  2  8  1  0  0  0  0
  3  9  1  0  0  0  0
  3  2  2  0  0  0  0
  4 10  1  6  0  0  0
  4  3  1  0  0  0  0
  5  4  1  0  0  0  0
  5 11  1  0  0  0  0
  5  6  1  0  0  0  0
  6  1  1  0  0  0  0
 12  5  1  0  0  0  0
 13  6  1  0  0  0  0
 14  6  1  0  0  0  0
 15 22  1  0  0  0  0
 15 20  1  0  0  0  0
 16 15  2  0  0  0  0
 17 16  1  0  0  0  0
 17 18  2  0  0  0  0
 18 19  1  0  0  0  0
 19 20  2  0  0  0  0
 19 21  1  0  0  0  0
 21 24  1  0  0  0  0
 23 21  1  0  0  0  0
 25 17  1  0  0  0  0
 26 25  2  0  0  0  0
 27 26  1  0  0  0  0
 28 27  2  0  0  0  0
 28 30  1  0  0  0  0
 29 28  1  0  0  0  0
 30 31  2  0  0  0  0
 31 25  1  0  0  0  0
 32 33  1  0  0  0  0
 32  4  1  0  0  0  0
 34 32  1  0  0  0  0
 35 32  1  0  0  0  0
M  END
>  <minimizedAffinity>
-5.65411139

>  <minimizedRMSD>
0.516430974

$$$$
