
 OpenBabel03232521013D

 43 46  0  0  1  0  0  0  0  0999 V2000
   45.3110   32.9050   47.5050 C   0  0  0  0  0  0  0  0  0  0  0  0
   45.8910   32.6450   46.3070 C   0  0  0  0  0  0  0  0  0  0  0  0
   46.1910   31.3000   46.0780 C   0  0  0  0  0  0  0  0  0  0  0  0
   45.9300   30.3130   46.9710 N   0  0  0  0  0  0  0  0  0  0  0  0
   45.3370   30.6280   48.1830 C   0  0  0  0  0  0  0  0  0  0  0  0
   45.0450   31.9010   48.4190 N   0  0  0  0  0  0  0  0  0  0  0  0
   45.0780   29.6210   49.1470 N   0  0  0  0  0  0  0  0  0  0  0  0
   45.0410   33.9110   47.7890 H   0  0  0  0  0  0  0  0  0  0  0  0
   45.7480   29.7500   49.9530 H   0  0  0  0  0  0  0  0  0  0  0  0
   44.3770   28.8480   49.1540 H   0  0  0  0  0  0  0  0  0  0  0  0
   46.1490   33.5920   45.2780 C   0  0  2  0  0  0  0  0  0  0  0  0
   44.9480   34.6950   45.5040 C   0  0  0  0  0  0  0  0  0  0  0  0
   44.7230   35.6260   44.4320 C   0  0  0  0  0  0  0  0  0  0  0  0
   45.5250   35.5480   43.2110 C   0  0  1  0  0  0  0  0  0  0  0  0
   46.5790   34.5360   43.1630 C   0  0  0  0  0  0  0  0  0  0  0  0
   46.1200   33.3060   43.9140 C   0  0  0  0  0  0  0  0  0  0  0  0
   46.9900   34.2800   45.6030 H   0  0  0  0  0  0  0  0  0  0  0  0
   44.2670   34.8580   46.3300 H   0  0  0  0  0  0  0  0  0  0  0  0
   43.9480   36.3610   44.5480 H   0  0  0  0  0  0  0  0  0  0  0  0
   45.9740   36.5340   42.9710 H   0  0  0  0  0  0  0  0  0  0  0  0
   46.7680   34.2960   42.0750 H   0  0  0  0  0  0  0  0  0  0  0  0
   47.5700   34.8790   43.5440 H   0  0  0  0  0  0  0  0  0  0  0  0
   45.1710   32.9670   43.4480 H   0  0  0  0  0  0  0  0  0  0  0  0
   46.9780   32.6560   43.5940 H   0  0  0  0  0  0  0  0  0  0  0  0
   44.5110   35.2800   42.0570 C   0  0  0  0  0  0  0  0  0  0  0  0
   43.4500   34.4840   42.4490 F   0  0  0  0  0  0  0  0  0  0  0  0
   43.9670   36.5180   41.7200 F   0  0  0  0  0  0  0  0  0  0  0  0
   45.1880   34.8200   40.9430 F   0  0  0  0  0  0  0  0  0  0  0  0
   46.8520   30.6080   44.9880 C   0  0  0  0  0  0  0  0  0  0  0  0
   46.5330   29.8130   43.9340 C   0  0  0  0  0  0  0  0  0  0  0  0
   47.7240   29.4480   43.2870 C   0  0  0  0  0  0  0  0  0  0  0  0
   48.6980   30.0400   43.9790 N   0  0  0  0  0  0  0  0  0  0  0  0
   48.2120   30.7270   44.9860 N   0  0  0  0  0  0  0  0  0  0  0  0
   45.4900   29.6030   43.7710 H   0  0  0  0  0  0  0  0  0  0  0  0
   47.6940   28.8150   42.4190 H   0  0  0  0  0  0  0  0  0  0  0  0
   50.0680   29.8800   43.5930 C   0  0  0  0  0  0  0  0  0  0  0  0
   50.9580   29.1890   44.4040 C   0  0  0  0  0  3  0  0  0  0  0  0
   52.2630   29.0540   44.0050 C   0  0  0  0  0  0  0  0  0  0  0  0
   52.9330   28.5040   44.6690 H   0  0  0  0  0  0  0  0  0  0  0  0
   52.7140   29.5960   42.8010 C   0  0  0  0  0  3  0  0  0  0  0  0
   51.7890   30.2790   42.0190 C   0  0  0  0  0  0  0  0  0  0  0  0
   52.1010   30.7120   41.0790 H   0  0  0  0  0  0  0  0  0  0  0  0
   50.4760   30.4370   42.3800 C   0  0  0  0  0  3  0  0  0  0  0  0
  1  8  1  0  0  0  0
  1  6  1  0  0  0  0
  2  1  2  0  0  0  0
  3  2  1  0  0  0  0
  3  4  2  0  0  0  0
  4  5  1  0  0  0  0
  5  6  2  0  0  0  0
  5  7  1  0  0  0  0
  7 10  1  0  0  0  0
  7  9  1  0  0  0  0
 11 12  1  0  0  0  0
 11 17  1  1  0  0  0
 11  2  1  0  0  0  0
 12 18  1  0  0  0  0
 13 19  1  0  0  0  0
 13 12  2  0  0  0  0
 14 20  1  6  0  0  0
 14 13  1  0  0  0  0
 15 14  1  0  0  0  0
 15 22  1  0  0  0  0
 15 16  1  0  0  0  0
 16 11  1  0  0  0  0
 21 15  1  0  0  0  0
 23 16  1  0  0  0  0
 24 16  1  0  0  0  0
 25 26  1  0  0  0  0
 25 14  1  0  0  0  0
 27 25  1  0  0  0  0
 28 25  1  0  0  0  0
 29  3  1  0  0  0  0
 30 29  1  0  0  0  0
 31 30  2  0  0  0  0
 31 32  1  0  0  0  0
 32 33  1  0  0  0  0
 33 29  2  0  0  0  0
 34 30  1  0  0  0  0
 35 31  1  0  0  0  0
 36 32  1  0  0  0  0
 36 37  1  0  0  0  0
 38 37  2  0  0  0  0
 38 39  1  0  0  0  0
 40 38  1  0  0  0  0
 41 43  1  0  0  0  0
 41 40  2  0  0  0  0
 42 41  1  0  0  0  0
 43 36  2  0  0  0  0
M  END
>  <minimizedAffinity>
-5.87565613

>  <minimizedRMSD>
0.244315118

$$$$
