
 OpenBabel03232520123D

 38 41  0  0  1  0  0  0  0  0999 V2000
   49.1230   28.9210   48.6850 N   0  0  0  0  0  0  0  0  0  0  0  0
   49.1930   27.6090   48.0800 C   0  0  0  0  0  0  0  0  0  0  0  0
   50.6140   27.1250   47.9700 C   0  0  0  0  0  0  0  0  0  0  0  0
   51.4640   27.5500   49.1290 C   0  0  0  0  0  0  0  0  0  0  0  0
   50.5990   27.9410   50.3110 C   0  0  0  0  0  0  0  0  0  0  0  0
   49.8520   29.1800   49.9130 C   0  0  1  0  0  0  0  0  0  0  0  0
   48.7910   27.7110   47.0480 H   0  0  0  0  0  0  0  0  0  0  0  0
   48.5200   26.8780   48.5790 H   0  0  0  0  0  0  0  0  0  0  0  0
   51.0430   27.3930   46.9880 H   0  0  0  0  0  0  0  0  0  0  0  0
   50.5550   26.0000   48.0230 H   0  0  0  0  0  0  0  0  0  0  0  0
   52.2440   26.8020   49.3900 H   0  0  0  0  0  0  0  0  0  0  0  0
   52.0500   28.4510   48.8120 H   0  0  0  0  0  0  0  0  0  0  0  0
   49.8300   27.1240   50.3940 H   0  0  0  0  0  0  0  0  0  0  0  0
   51.1560   28.0430   51.2370 H   0  0  0  0  0  0  0  0  0  0  0  0
   49.0560   29.3180   50.6930 H   0  0  0  0  0  0  0  0  0  0  0  0
   47.1860   32.0130   46.9240 C   0  0  0  0  0  0  0  0  0  0  0  0
   47.1470   32.0430   48.2920 C   0  0  0  0  0  0  0  0  0  0  0  0
   47.7670   31.0510   48.9870 C   0  0  0  0  0  0  0  0  0  0  0  0
   48.3960   30.0800   48.2300 C   0  0  0  0  0  0  0  0  0  0  0  0
   48.1130   30.5640   46.5480 S   0  0  0  0  0  0  0  0  0  0  0  0
   46.6170   32.8630   48.7770 H   0  0  0  0  0  0  0  0  0  0  0  0
   47.8030   30.9690   50.0500 H   0  0  0  0  0  0  0  0  0  0  0  0
   45.0350   34.5650   45.3870 C   0  0  0  0  0  0  0  0  0  0  0  0
   45.5770   34.6430   44.0880 C   0  0  0  0  0  0  0  0  0  0  0  0
   46.6640   33.8190   43.7750 C   0  0  0  0  0  0  0  0  0  0  0  0
   47.1730   32.9640   44.7300 N   0  0  0  0  0  0  0  0  0  0  0  0
   46.6140   32.9310   45.9610 C   0  0  0  0  0  0  0  0  0  0  0  0
   45.5700   33.7160   46.2760 N   0  0  0  0  0  0  0  0  0  0  0  0
   44.2060   35.2140   45.5770 H   0  0  0  0  0  0  0  0  0  0  0  0
   45.2510   35.2740   43.2840 H   0  0  0  0  0  0  0  0  0  0  0  0
   47.1570   33.7980   42.8090 H   0  0  0  0  0  0  0  0  0  0  0  0
   50.6720   30.3930   49.8870 C   0  0  0  0  0  0  0  0  0  0  0  0
   50.5540   31.3520   50.8980 C   0  0  0  0  0  0  0  0  0  0  0  0
   51.2530   32.5280   51.0000 C   0  0  0  0  0  0  0  0  0  0  0  0
   52.1700   32.7840   49.9950 C   0  0  0  0  0  0  0  0  0  0  0  0
   52.7360   33.6890   50.0370 H   0  0  0  0  0  0  0  0  0  0  0  0
   52.2900   31.8280   48.9850 C   0  0  0  0  0  0  0  0  0  0  0  0
   51.5680   30.6930   48.9470 N   0  0  0  0  0  0  0  0  0  0  0  0
  1  6  1  0  0  0  0
  2  8  1  0  0  0  0
  2  1  1  0  0  0  0
  3 10  1  0  0  0  0
  3  2  1  0  0  0  0
  3  4  1  0  0  0  0
  4 11  1  0  0  0  0
  4  5  1  0  0  0  0
  5 13  1  0  0  0  0
  5 14  1  0  0  0  0
  6  5  1  0  0  0  0
  6 15  1  1  0  0  0
  7  2  1  0  0  0  0
  9  3  1  0  0  0  0
 12  4  1  0  0  0  0
 16 17  2  0  0  0  0
 17 21  1  0  0  0  0
 17 18  1  0  0  0  0
 18 22  1  0  0  0  0
 19  1  1  0  0  0  0
 19 18  2  0  0  0  0
 20 16  1  0  0  0  0
 20 19  1  0  0  0  0
 23 29  1  0  0  0  0
 23 28  1  0  0  0  0
 24 23  2  0  0  0  0
 25 24  1  0  0  0  0
 25 26  2  0  0  0  0
 26 27  1  0  0  0  0
 27 28  2  0  0  0  0
 27 16  1  0  0  0  0
 30 24  1  0  0  0  0
 31 25  1  0  0  0  0
 32  6  1  0  0  0  0
 32 33  1  0  0  0  0
 33 34  2  0  0  0  0
 35 36  1  0  0  0  0
 35 34  1  0  0  0  0
 37 35  2  0  0  0  0
 38 37  1  0  0  0  0
 38 32  2  0  0  0  0
M  END
>  <minimizedAffinity>
-4.91086292

>  <minimizedRMSD>
2.46284604

$$$$
