
 OpenBabel03232521013D

 43 46  0  0  1  0  0  0  0  0999 V2000
   45.3120   32.9080   47.5030 C   0  0  0  0  0  0  0  0  0  0  0  0
   45.8900   32.6480   46.3040 C   0  0  0  0  0  0  0  0  0  0  0  0
   46.1900   31.3030   46.0740 C   0  0  0  0  0  0  0  0  0  0  0  0
   45.9310   30.3160   46.9670 N   0  0  0  0  0  0  0  0  0  0  0  0
   45.3390   30.6310   48.1800 C   0  0  0  0  0  0  0  0  0  0  0  0
   45.0470   31.9040   48.4160 N   0  0  0  0  0  0  0  0  0  0  0  0
   45.0810   29.6240   49.1440 N   0  0  0  0  0  0  0  0  0  0  0  0
   45.0420   33.9140   47.7870 H   0  0  0  0  0  0  0  0  0  0  0  0
   45.7520   29.7530   49.9500 H   0  0  0  0  0  0  0  0  0  0  0  0
   44.3810   28.8510   49.1520 H   0  0  0  0  0  0  0  0  0  0  0  0
   46.1470   33.5970   45.2750 C   0  0  2  0  0  0  0  0  0  0  0  0
   44.9450   34.6990   45.5030 C   0  0  0  0  0  0  0  0  0  0  0  0
   44.7190   35.6300   44.4320 C   0  0  0  0  0  0  0  0  0  0  0  0
   45.5200   35.5520   43.2090 C   0  0  1  0  0  0  0  0  0  0  0  0
   46.5740   34.5400   43.1600 C   0  0  0  0  0  0  0  0  0  0  0  0
   46.1160   33.3110   43.9110 C   0  0  0  0  0  0  0  0  0  0  0  0
   46.9880   34.2840   45.5990 H   0  0  0  0  0  0  0  0  0  0  0  0
   44.2660   34.8610   46.3300 H   0  0  0  0  0  0  0  0  0  0  0  0
   43.9430   36.3640   44.5490 H   0  0  0  0  0  0  0  0  0  0  0  0
   45.9680   36.5390   42.9690 H   0  0  0  0  0  0  0  0  0  0  0  0
   46.7610   34.3010   42.0720 H   0  0  0  0  0  0  0  0  0  0  0  0
   47.5650   34.8840   43.5400 H   0  0  0  0  0  0  0  0  0  0  0  0
   45.1670   32.9710   43.4460 H   0  0  0  0  0  0  0  0  0  0  0  0
   46.9740   32.6610   43.5900 H   0  0  0  0  0  0  0  0  0  0  0  0
   44.5040   35.2850   42.0560 C   0  0  0  0  0  0  0  0  0  0  0  0
   43.4430   34.4890   42.4500 F   0  0  0  0  0  0  0  0  0  0  0  0
   43.9610   36.5230   41.7200 F   0  0  0  0  0  0  0  0  0  0  0  0
   45.1790   34.8240   40.9420 F   0  0  0  0  0  0  0  0  0  0  0  0
   46.8500   30.6120   44.9830 C   0  0  0  0  0  0  0  0  0  0  0  0
   46.5310   29.8100   43.9350 C   0  0  0  0  0  0  0  0  0  0  0  0
   47.7210   29.4520   43.2820 C   0  0  0  0  0  0  0  0  0  0  0  0
   48.6940   30.0550   43.9660 N   0  0  0  0  0  0  0  0  0  0  0  0
   48.2090   30.7430   44.9720 N   0  0  0  0  0  0  0  0  0  0  0  0
   45.4880   29.5900   43.7800 H   0  0  0  0  0  0  0  0  0  0  0  0
   47.6900   28.8150   42.4170 H   0  0  0  0  0  0  0  0  0  0  0  0
   50.0620   29.9050   43.5710 C   0  0  0  0  0  0  0  0  0  0  0  0
   50.5170   30.4370   42.3720 C   0  0  0  0  0  3  0  0  0  0  0  0
   51.8330   30.2770   42.0230 C   0  0  0  0  0  0  0  0  0  0  0  0
   52.1530   30.7100   41.0720 H   0  0  0  0  0  0  0  0  0  0  0  0
   52.7240   29.5900   42.8470 C   0  0  0  0  0  3  0  0  0  0  0  0
   52.2270   29.0730   44.0370 C   0  0  0  0  0  0  0  0  0  0  0  0
   52.8870   28.5340   44.7030 H   0  0  0  0  0  0  0  0  0  0  0  0
   50.9200   29.2100   44.4250 C   0  0  0  0  0  3  0  0  0  0  0  0
  1  8  1  0  0  0  0
  1  6  1  0  0  0  0
  2  1  2  0  0  0  0
  3  2  1  0  0  0  0
  3  4  2  0  0  0  0
  4  5  1  0  0  0  0
  5  6  2  0  0  0  0
  5  7  1  0  0  0  0
  7 10  1  0  0  0  0
  7  9  1  0  0  0  0
 11 12  1  0  0  0  0
 11 17  1  1  0  0  0
 11  2  1  0  0  0  0
 12 18  1  0  0  0  0
 13 19  1  0  0  0  0
 13 12  2  0  0  0  0
 14 20  1  6  0  0  0
 14 13  1  0  0  0  0
 15 14  1  0  0  0  0
 15 22  1  0  0  0  0
 15 16  1  0  0  0  0
 16 11  1  0  0  0  0
 21 15  1  0  0  0  0
 23 16  1  0  0  0  0
 24 16  1  0  0  0  0
 25 26  1  0  0  0  0
 25 14  1  0  0  0  0
 27 25  1  0  0  0  0
 28 25  1  0  0  0  0
 29  3  1  0  0  0  0
 30 29  1  0  0  0  0
 31 30  2  0  0  0  0
 31 32  1  0  0  0  0
 32 33  1  0  0  0  0
 33 29  2  0  0  0  0
 34 30  1  0  0  0  0
 35 31  1  0  0  0  0
 36 32  1  0  0  0  0
 36 43  1  0  0  0  0
 37 36  2  0  0  0  0
 38 37  1  0  0  0  0
 38 40  2  0  0  0  0
 39 38  1  0  0  0  0
 40 41  1  0  0  0  0
 41 43  2  0  0  0  0
 41 42  1  0  0  0  0
M  END
>  <minimizedAffinity>
-5.87322235

>  <minimizedRMSD>
0.572414756

$$$$
