
 OpenBabel03232518373D

 45 48  0  0  1  0  0  0  0  0999 V2000
   44.1940   34.4670   40.6090 C   0  0  0  0  0  0  0  0  0  0  0  0
   42.8630   34.8420   40.6240 C   0  0  0  0  0  0  0  0  0  0  0  0
   42.0310   34.3050   39.6290 C   0  0  0  0  0  0  0  0  0  0  0  0
   42.5740   33.4450   38.7020 N   0  0  0  0  0  0  0  0  0  0  0  0
   43.9040   33.1040   38.7310 C   0  0  0  0  0  0  0  0  0  0  0  0
   44.6890   33.6310   39.6950 N   0  0  0  0  0  0  0  0  0  0  0  0
   42.4210   35.5020   41.3210 H   0  0  0  0  0  0  0  0  0  0  0  0
   44.2940   32.4280   37.9900 H   0  0  0  0  0  0  0  0  0  0  0  0
   40.5800   34.6020   39.5480 C   0  0  0  0  0  0  0  0  0  0  0  0
   40.1790   34.8690   38.0880 C   0  0  0  0  0  0  0  0  0  0  0  0
   39.2530   33.8410   37.5500 C   0  0  0  0  0  0  0  0  0  0  0  0
   38.0280   33.6160   38.3850 C   0  0  0  0  0  0  0  0  0  0  0  0
   38.2730   33.9630   39.8400 C   0  0  0  0  0  0  0  0  0  0  0  0
   39.6970   33.5700   40.1500 C   0  0  0  0  0  0  0  0  0  0  0  0
   40.4370   35.5760   40.0930 H   0  0  0  0  0  0  0  0  0  0  0  0
   41.1010   34.8590   37.4770 H   0  0  0  0  0  0  0  0  0  0  0  0
   39.6690   35.8500   38.0040 H   0  0  0  0  0  0  0  0  0  0  0  0
   38.9270   34.1600   36.5620 H   0  0  0  0  0  0  0  0  0  0  0  0
   39.7490   32.8560   37.4390 H   0  0  0  0  0  0  0  0  0  0  0  0
   37.2280   34.3120   38.0400 H   0  0  0  0  0  0  0  0  0  0  0  0
   37.6190   32.5890   38.3330 H   0  0  0  0  0  0  0  0  0  0  0  0
   37.6050   33.3950   40.5280 H   0  0  0  0  0  0  0  0  0  0  0  0
   38.2270   35.0730   40.0240 H   0  0  0  0  0  0  0  0  0  0  0  0
   39.8910   32.6220   39.5680 H   0  0  0  0  0  0  0  0  0  0  0  0
   39.8900   33.4210   41.2090 H   0  0  0  0  0  0  0  0  0  0  0  0
   45.1200   35.0140   41.6350 C   0  0  1  0  0  0  0  0  0  0  0  0
   44.4160   35.6050   42.8360 C   0  0  0  0  0  0  0  0  0  0  0  0
   44.9960   34.8850   44.0380 C   0  0  0  0  0  0  0  0  0  0  0  0
   45.3550   33.5550   43.4650 C   0  0  0  0  0  0  0  0  0  0  0  0
   45.9980   33.8950   42.1620 C   0  0  2  0  0  0  0  0  0  0  0  0
   45.6720   35.8440   41.1730 H   0  0  0  0  0  0  0  0  0  0  0  0
   43.3270   35.4080   42.7380 H   0  0  0  0  0  0  0  0  0  0  0  0
   44.5370   36.6820   42.9550 H   0  0  0  0  0  0  0  0  0  0  0  0
   45.9220   35.3880   44.3750 H   0  0  0  0  0  0  0  0  0  0  0  0
   44.2400   34.8150   44.8600 H   0  0  0  0  0  0  0  0  0  0  0  0
   44.4480   32.9570   43.2660 H   0  0  0  0  0  0  0  0  0  0  0  0
   46.0360   32.9630   44.1300 H   0  0  0  0  0  0  0  0  0  0  0  0
   45.8870   32.9980   41.4990 H   0  0  0  0  0  0  0  0  0  0  0  0
   47.4160   34.2600   42.2250 C   0  0  0  0  0  0  0  0  0  0  0  0
   48.2740   33.3240   42.7710 C   0  0  0  0  0  0  0  0  0  0  0  0
   49.6370   33.6250   42.8540 C   0  0  0  0  0  0  0  0  0  0  0  0
   50.0380   34.8580   42.3770 C   0  0  0  0  0  0  0  0  0  0  0  0
   51.0900   35.1560   42.4130 H   0  0  0  0  0  0  0  0  0  0  0  0
   49.1730   35.8080   41.8250 C   0  0  0  0  0  0  0  0  0  0  0  0
   47.8640   35.4460   41.7770 N   0  0  0  0  0  0  0  0  0  0  0  0
  1  2  1  0  0  0  0
  1 26  1  0  0  0  0
  2  7  1  0  0  0  0
  3  2  2  0  0  0  0
  4  5  2  0  0  0  0
  4  3  1  0  0  0  0
  5  6  1  0  0  0  0
  6  1  2  0  0  0  0
  8  5  1  0  0  0  0
  9  3  1  0  0  0  0
  9 15  1  0  0  0  0
  9 14  1  0  0  0  0
 10  9  1  0  0  0  0
 11 10  1  0  0  0  0
 11 12  1  0  0  0  0
 12 13  1  0  0  0  0
 13 23  1  0  0  0  0
 13 14  1  0  0  0  0
 13 22  1  0  0  0  0
 14 25  1  0  0  0  0
 16 10  1  0  0  0  0
 17 10  1  0  0  0  0
 18 11  1  0  0  0  0
 19 11  1  0  0  0  0
 20 12  1  0  0  0  0
 21 12  1  0  0  0  0
 24 14  1  0  0  0  0
 26 31  1  6  0  0  0
 26 30  1  0  0  0  0
 26 27  1  0  0  0  0
 27 33  1  0  0  0  0
 27 28  1  0  0  0  0
 28 34  1  0  0  0  0
 28 35  1  0  0  0  0
 29 28  1  0  0  0  0
 29 37  1  0  0  0  0
 30 38  1  6  0  0  0
 30 39  1  0  0  0  0
 30 29  1  0  0  0  0
 32 27  1  0  0  0  0
 36 29  1  0  0  0  0
 39 40  1  0  0  0  0
 40 41  2  0  0  0  0
 42 43  1  0  0  0  0
 42 41  1  0  0  0  0
 44 42  2  0  0  0  0
 45 44  1  0  0  0  0
 45 39  2  0  0  0  0
M  END
>  <minimizedAffinity>
-6.68186092

>  <minimizedRMSD>
7.93188143

$$$$
