
 OpenBabel03232518433D

 23 24  0  0  0  0  0  0  0  0999 V2000
   45.0070   34.9800   44.7810 C   0  0  0  0  0  0  0  0  0  0  0  0
   45.9440   34.7010   43.7960 C   0  0  0  0  0  0  0  0  0  0  0  0
   46.8380   33.6930   44.0580 C   0  0  0  0  0  0  0  0  0  0  0  0
   46.7680   33.0300   45.2440 N   0  0  0  0  0  0  0  0  0  0  0  0
   45.8570   33.3160   46.1800 C   0  0  0  0  0  0  0  0  0  0  0  0
   44.9760   34.3020   45.9320 N   0  0  0  0  0  0  0  0  0  0  0  0
   44.2780   35.7650   44.6280 H   0  0  0  0  0  0  0  0  0  0  0  0
   47.8680   33.3090   43.0970 C   0  0  0  0  0  0  0  0  0  0  0  0
   47.5200   32.2720   42.2520 C   0  0  0  0  0  0  0  0  0  0  0  0
   48.4690   31.8730   41.3230 C   0  0  0  0  0  0  0  0  0  0  0  0
   49.7210   32.4550   41.2050 C   0  0  0  0  0  0  0  0  0  0  0  0
   50.4410   32.1200   40.4670 H   0  0  0  0  0  0  0  0  0  0  0  0
   49.9930   33.4820   42.0830 C   0  0  0  0  0  0  0  0  0  0  0  0
   49.0880   33.8840   42.9920 N   0  0  0  0  0  0  0  0  0  0  0  0
   45.9770   35.4500   42.5280 C   0  0  0  0  0  0  0  0  0  0  0  0
   45.0730   36.5120   42.6560 F   0  0  0  0  0  0  0  0  0  0  0  0
   45.4960   34.7110   41.4740 F   0  0  0  0  0  0  0  0  0  0  0  0
   47.2240   35.9360   42.2360 F   0  0  0  0  0  0  0  0  0  0  0  0
   45.7470   32.6750   47.3920 O   0  0  0  0  0  0  0  0  0  0  0  0
   46.8120   32.0450   48.0440 C   0  0  0  0  0  0  0  0  0  0  0  0
   47.9040   32.8960   48.1560 F   0  0  0  0  0  0  0  0  0  0  0  0
   47.1380   30.8500   47.4720 F   0  0  0  0  0  0  0  0  0  0  0  0
   46.3960   31.8140   49.3610 F   0  0  0  0  0  0  0  0  0  0  0  0
  1  6  1  0  0  0  0
  2  3  1  0  0  0  0
  2  1  2  0  0  0  0
  3  4  2  0  0  0  0
  4  5  1  0  0  0  0
  5 19  1  0  0  0  0
  6  5  2  0  0  0  0
  7  1  1  0  0  0  0
  8  3  1  0  0  0  0
  9  8  2  0  0  0  0
 10  9  1  0  0  0  0
 11 10  2  0  0  0  0
 11 13  1  0  0  0  0
 12 11  1  0  0  0  0
 13 14  2  0  0  0  0
 14  8  1  0  0  0  0
 15 16  1  0  0  0  0
 15  2  1  0  0  0  0
 17 15  1  0  0  0  0
 18 15  1  0  0  0  0
 19 20  1  0  0  0  0
 20 21  1  0  0  0  0
 20 23  1  0  0  0  0
 22 20  1  0  0  0  0
M  END
>  <minimizedAffinity>
-5.50552082

>  <minimizedRMSD>
1.16417396

$$$$
