
 OpenBabel03232520063D

 31 34  0  0  0  0  0  0  0  0999 V2000
   46.1900   30.3610   49.0880 N   0  0  0  0  0  0  0  0  0  0  0  0
   45.3280   31.3790   49.4000 C   0  0  0  0  0  0  0  0  0  0  0  0
   45.2530   32.2130   48.3330 N   0  0  0  0  0  0  0  0  0  0  0  0
   46.0740   31.6810   47.3930 C   0  0  0  0  0  0  0  0  0  0  0  0
   46.3060   32.2040   46.1430 C   0  0  0  0  0  0  0  0  0  0  0  0
   47.1640   31.5200   45.3490 N   0  0  0  0  0  0  0  0  0  0  0  0
   47.7720   30.3750   45.7560 C   0  0  0  0  0  0  0  0  0  0  0  0
   47.5050   29.9170   46.9870 N   0  0  0  0  0  0  0  0  0  0  0  0
   46.6760   30.5250   47.8310 C   0  0  0  0  0  0  0  0  0  0  0  0
   46.4820   29.5440   49.6780 H   0  0  0  0  0  0  0  0  0  0  0  0
   44.8090   31.4700   50.3540 H   0  0  0  0  0  0  0  0  0  0  0  0
   48.6970   29.6540   44.8820 C   0  0  0  0  0  0  0  0  0  0  0  0
   49.0270   30.2390   43.6570 C   0  0  0  0  0  0  0  0  0  0  0  0
   49.9000   29.5350   42.8540 C   0  0  0  0  0  0  0  0  0  0  0  0
   50.3980   28.3360   43.2590 C   0  0  0  0  0  0  0  0  0  0  0  0
   51.0820   27.7480   42.6700 H   0  0  0  0  0  0  0  0  0  0  0  0
   50.0400   27.8000   44.4820 C   0  0  0  0  0  0  0  0  0  0  0  0
   49.1920   28.4670   45.2780 N   0  0  0  0  0  0  0  0  0  0  0  0
   45.6360   33.6560   45.4140 S   0  0  0  0  0  0  0  0  0  0  0  0
   47.7830   34.7350   42.3330 C   0  0  0  0  0  0  0  0  0  0  0  0
   47.0750   34.3770   41.1950 C   0  0  0  0  0  0  0  0  0  0  0  0
   45.8480   33.7600   41.4030 C   0  0  0  0  0  0  0  0  0  0  0  0
   45.4170   33.5440   42.6820 N   0  0  0  0  0  0  0  0  0  0  0  0
   46.1610   33.9190   43.7390 C   0  0  0  0  0  0  0  0  0  0  0  0
   47.3360   34.5110   43.5590 N   0  0  0  0  0  0  0  0  0  0  0  0
   47.4850   34.5830   40.2080 H   0  0  0  0  0  0  0  0  0  0  0  0
   45.2710   33.4690   40.5350 H   0  0  0  0  0  0  0  0  0  0  0  0
   49.0920   35.3940   42.1350 C   0  0  0  0  0  0  0  0  0  0  0  0
   49.2610   36.1720   41.1660 O   0  0  0  0  0  0  0  0  0  0  0  0
   50.1150   35.1430   43.0220 O   0  0  0  0  0  0  0  0  0  0  0  0
   51.0710   35.4280   42.7980 H   0  0  0  0  0  0  0  0  0  0  0  0
  1  2  1  0  0  0  0
  1 10  1  0  0  0  0
  2 11  1  0  0  0  0
  3  2  2  0  0  0  0
  4  9  1  0  0  0  0
  4  3  1  0  0  0  0
  5  4  2  0  0  0  0
  6  7  2  0  0  0  0
  6  5  1  0  0  0  0
  7  8  1  0  0  0  0
  8  9  2  0  0  0  0
  9  1  1  0  0  0  0
 12 18  1  0  0  0  0
 12  7  1  0  0  0  0
 13 12  2  0  0  0  0
 14 15  2  0  0  0  0
 14 13  1  0  0  0  0
 15 17  1  0  0  0  0
 16 15  1  0  0  0  0
 17 18  2  0  0  0  0
 19  5  1  0  0  0  0
 20 25  1  0  0  0  0
 21 22  1  0  0  0  0
 21 20  2  0  0  0  0
 22 23  2  0  0  0  0
 23 24  1  0  0  0  0
 24 19  1  0  0  0  0
 25 24  2  0  0  0  0
 26 21  1  0  0  0  0
 27 22  1  0  0  0  0
 28 20  1  0  0  0  0
 28 30  1  0  0  0  0
 29 28  2  0  0  0  0
 31 30  1  0  0  0  0
M  END
>  <minimizedAffinity>
-5.79250336

>  <minimizedRMSD>
0.229661122

$$$$
