
 OpenBabel03232520413D

 27 29  0  0  0  0  0  0  0  0999 V2000
   43.5720   35.6420   42.3720 C   0  0  0  0  0  0  0  0  0  0  0  0
   42.7260   35.3340   41.2730 C   0  0  0  0  0  0  0  0  0  0  0  0
   43.2360   34.5970   40.2290 C   0  0  0  0  0  0  0  0  0  0  0  0
   44.5430   34.1690   40.2490 N   0  0  0  0  0  0  0  0  0  0  0  0
   45.3130   34.4880   41.3200 C   0  0  0  0  0  0  0  0  0  0  0  0
   44.8370   35.2070   42.3550 N   0  0  0  0  0  0  0  0  0  0  0  0
   43.1240   36.2150   43.1510 H   0  0  0  0  0  0  0  0  0  0  0  0
   42.6380   34.3290   39.3580 H   0  0  0  0  0  0  0  0  0  0  0  0
   46.7150   34.0690   41.4190 C   0  0  0  0  0  0  0  0  0  0  0  0
   47.6940   34.9810   41.7020 C   0  0  0  0  0  0  0  0  0  0  0  0
   49.0290   34.6280   41.8050 C   0  0  0  0  0  0  0  0  0  0  0  0
   49.4100   33.3140   41.6180 C   0  0  0  0  0  0  0  0  0  0  0  0
   48.3930   32.4040   41.3290 C   0  0  0  0  0  0  0  0  0  0  0  0
   47.1020   32.7840   41.2380 N   0  0  0  0  0  0  0  0  0  0  0  0
   47.4350   36.0260   41.8570 H   0  0  0  0  0  0  0  0  0  0  0  0
   49.7910   35.3730   42.0320 H   0  0  0  0  0  0  0  0  0  0  0  0
   50.4280   32.9790   41.6840 H   0  0  0  0  0  0  0  0  0  0  0  0
   48.6090   31.3490   41.1680 H   0  0  0  0  0  0  0  0  0  0  0  0
   41.0000   35.8740   41.1970 S   0  0  0  0  0  0  0  0  0  0  0  0
   39.9650   34.4570   40.8420 C   0  0  0  0  0  0  0  0  0  0  0  0
   40.0300   33.3400   41.6310 C   0  0  0  0  0  0  0  0  0  0  0  0
   39.2800   32.2110   41.4380 C   0  0  0  0  0  0  0  0  0  0  0  0
   39.3920   31.3730   42.1060 H   0  0  0  0  0  0  0  0  0  0  0  0
   38.4100   32.2500   40.3540 C   0  0  0  0  0  0  0  0  0  0  0  0
   38.3270   33.3760   39.5370 C   0  0  0  0  0  0  0  0  0  0  0  0
   37.6250   33.3470   38.7020 H   0  0  0  0  0  0  0  0  0  0  0  0
   39.1110   34.4970   39.7760 C   0  0  0  0  0  0  0  0  0  0  0  0
  1  7  1  0  0  0  0
  2  1  2  0  0  0  0
  3  4  2  0  0  0  0
  3  2  1  0  0  0  0
  4  5  1  0  0  0  0
  5  9  1  0  0  0  0
  5  6  2  0  0  0  0
  6  1  1  0  0  0  0
  8  3  1  0  0  0  0
  9 10  1  0  0  0  0
 10 11  2  0  0  0  0
 10 15  1  0  0  0  0
 11 16  1  0  0  0  0
 12 17  1  0  0  0  0
 12 11  1  0  0  0  0
 13 12  2  0  0  0  0
 14 13  1  0  0  0  0
 14  9  2  0  0  0  0
 18 13  1  0  0  0  0
 19  2  1  0  0  0  0
 20 19  1  0  0  0  0
 20 21  1  0  0  0  0
 22 21  2  0  0  0  0
 22 23  1  0  0  0  0
 24 22  1  0  0  0  0
 25 27  1  0  0  0  0
 25 24  2  0  0  0  0
 26 25  1  0  0  0  0
 27 20  2  0  0  0  0
M  END
>  <minimizedAffinity>
-5.44574594

>  <minimizedRMSD>
1.60427201

$$$$
