
 OpenBabel03232520573D

 34 36  0  0  1  0  0  0  0  0999 V2000
   46.0910   33.5980   45.2630 C   0  0  2  0  0  0  0  0  0  0  0  0
   44.9750   34.7050   45.4960 C   0  0  0  0  0  0  0  0  0  0  0  0
   44.7380   35.6360   44.4200 C   0  0  0  0  0  0  0  0  0  0  0  0
   45.4890   35.5380   43.1800 C   0  0  1  0  0  0  0  0  0  0  0  0
   46.5580   34.5020   43.1180 C   0  0  0  0  0  0  0  0  0  0  0  0
   46.0560   33.2820   43.8720 C   0  0  0  0  0  0  0  0  0  0  0  0
   46.9480   34.2700   45.5690 H   0  0  0  0  0  0  0  0  0  0  0  0
   44.2970   34.9590   46.3100 H   0  0  0  0  0  0  0  0  0  0  0  0
   44.0070   36.4060   44.5000 H   0  0  0  0  0  0  0  0  0  0  0  0
   45.9480   36.5210   42.9180 H   0  0  0  0  0  0  0  0  0  0  0  0
   46.6850   34.2050   42.0580 H   0  0  0  0  0  0  0  0  0  0  0  0
   47.5230   34.8210   43.5530 H   0  0  0  0  0  0  0  0  0  0  0  0
   44.9350   33.2540   43.5670 H   0  0  0  0  0  0  0  0  0  0  0  0
   46.4630   32.4590   43.3620 H   0  0  0  0  0  0  0  0  0  0  0  0
   45.3380   32.8800   47.5090 C   0  0  0  0  0  0  0  0  0  0  0  0
   45.8700   32.6120   46.2780 C   0  0  0  0  0  0  0  0  0  0  0  0
   46.1280   31.2750   46.0200 C   0  0  0  0  0  0  0  0  0  0  0  0
   45.8710   30.3120   46.9140 N   0  0  0  0  0  0  0  0  0  0  0  0
   45.3360   30.6150   48.1450 C   0  0  0  0  0  0  0  0  0  0  0  0
   45.0790   31.8880   48.4230 N   0  0  0  0  0  0  0  0  0  0  0  0
   45.1110   29.5840   49.1100 N   0  0  0  0  0  0  0  0  0  0  0  0
   45.1050   33.8660   47.8120 H   0  0  0  0  0  0  0  0  0  0  0  0
   45.6990   28.7340   49.1450 H   0  0  0  0  0  0  0  0  0  0  0  0
   44.3160   29.7460   49.7730 H   0  0  0  0  0  0  0  0  0  0  0  0
   46.7460   30.6130   44.8760 C   0  0  0  0  0  0  0  0  0  0  0  0
   46.0640   29.8610   43.8820 C   0  0  0  0  0  3  0  0  0  0  0  0
   47.4690   29.2440   42.8580 S   0  0  0  0  0  0  0  0  0  0  0  0
   48.7290   30.1250   43.9740 C   0  0  0  0  0  0  0  0  0  0  0  0
   49.8560   30.0950   43.8140 H   0  0  0  0  0  0  0  0  0  0  0  0
   48.0800   30.6260   44.7530 N   0  0  0  0  0  0  0  0  0  0  0  0
   44.4680   35.2750   42.0420 C   0  0  0  0  0  0  0  0  0  0  0  0
   43.4160   34.4820   42.4360 F   0  0  0  0  0  0  0  0  0  0  0  0
   43.9320   36.5180   41.7140 F   0  0  0  0  0  0  0  0  0  0  0  0
   45.1170   34.8100   40.9160 F   0  0  0  0  0  0  0  0  0  0  0  0
  1  2  1  0  0  0  0
  1  7  1  1  0  0  0
  1 16  1  0  0  0  0
  2  8  1  0  0  0  0
  3  9  1  0  0  0  0
  3  2  2  0  0  0  0
  4 10  1  6  0  0  0
  4  3  1  0  0  0  0
  5  4  1  0  0  0  0
  5 12  1  0  0  0  0
  5  6  1  0  0  0  0
  6  1  1  0  0  0  0
 11  5  1  0  0  0  0
 13  6  1  0  0  0  0
 14  6  1  0  0  0  0
 15 22  1  0  0  0  0
 15 20  1  0  0  0  0
 16 15  2  0  0  0  0
 17 16  1  0  0  0  0
 17 18  2  0  0  0  0
 18 19  1  0  0  0  0
 19 20  2  0  0  0  0
 19 21  1  0  0  0  0
 21 23  1  0  0  0  0
 21 24  1  0  0  0  0
 25 17  1  0  0  0  0
 26 25  2  0  0  0  0
 27 26  1  0  0  0  0
 27 28  1  0  0  0  0
 28 30  2  0  0  0  0
 29 28  1  0  0  0  0
 30 25  1  0  0  0  0
 31 32  1  0  0  0  0
 31  4  1  0  0  0  0
 33 31  1  0  0  0  0
 34 31  1  0  0  0  0
M  END
>  <minimizedAffinity>
-5.57896519

>  <minimizedRMSD>
0.289824665

$$$$
