
 OpenBabel03232519563D

 22 24  0  0  0  0  0  0  0  0999 V2000
   43.9230   34.0720   41.4930 N   0  0  0  0  0  0  0  0  0  0  0  0
   44.5760   33.8930   40.3620 C   0  0  0  0  0  0  0  0  0  0  0  0
   43.5760   33.7960   39.3490 C   0  0  0  0  0  0  0  0  0  0  0  0
   42.3700   33.9240   39.9060 N   0  0  0  0  0  0  0  0  0  0  0  0
   42.5690   34.0970   41.2320 C   0  0  0  0  0  0  0  0  0  0  0  0
   43.6620   33.6470   38.3060 H   0  0  0  0  0  0  0  0  0  0  0  0
   41.7640   34.2290   41.9440 H   0  0  0  0  0  0  0  0  0  0  0  0
   44.1960   35.4920   43.4130 C   0  0  0  0  0  0  0  0  0  0  0  0
   44.3900   34.2050   42.8020 C   0  0  0  0  0  0  0  0  0  0  0  0
   45.0240   33.1990   43.5410 C   0  0  0  0  0  0  0  0  0  0  0  0
   45.4380   33.4670   44.8110 N   0  0  0  0  0  0  0  0  0  0  0  0
   45.2370   34.7050   45.3620 C   0  0  0  0  0  0  0  0  0  0  0  0
   44.6190   35.7110   44.6710 N   0  0  0  0  0  0  0  0  0  0  0  0
   43.7170   36.2680   42.8760 H   0  0  0  0  0  0  0  0  0  0  0  0
   45.1890   32.1970   43.2210 H   0  0  0  0  0  0  0  0  0  0  0  0
   45.5990   34.8220   46.3740 H   0  0  0  0  0  0  0  0  0  0  0  0
   46.0050   33.8460   40.0920 C   0  0  0  0  0  0  0  0  0  0  0  0
   46.4790   33.0040   38.9740 C   0  0  0  0  0  0  0  0  0  0  0  0
   48.2660   33.2230   38.9800 S   0  0  0  0  0  0  0  0  0  0  0  0
   48.1760   34.3840   40.4360 C   0  0  0  0  0  0  0  0  0  0  0  0
   48.9070   34.9750   41.0620 H   0  0  0  0  0  0  0  0  0  0  0  0
   47.0440   34.4190   40.6490 N   0  0  0  0  0  0  0  0  0  0  0  0
  1  9  1  0  0  0  0
  2  1  1  0  0  0  0
  3  4  1  0  0  0  0
  3  2  2  0  0  0  0
  4  5  2  0  0  0  0
  5  1  1  0  0  0  0
  5  7  1  0  0  0  0
  6  3  1  0  0  0  0
  8 13  1  0  0  0  0
  9  8  2  0  0  0  0
  9 10  1  0  0  0  0
 10 11  2  0  0  0  0
 11 12  1  0  0  0  0
 12 16  1  0  0  0  0
 13 12  2  0  0  0  0
 14  8  1  0  0  0  0
 15 10  1  0  0  0  0
 17  2  1  0  0  0  0
 17 22  1  0  0  0  0
 18 19  1  0  0  0  0
 18 17  2  0  0  0  0
 19 20  1  0  0  0  0
 20 22  2  0  0  0  0
 20 21  1  0  0  0  0
M  END
>  <minimizedAffinity>
-3.89418077

>  <minimizedRMSD>
1.22160852

$$$$
