
 OpenBabel03232520573D

 34 36  0  0  1  0  0  0  0  0999 V2000
   46.0840   33.6030   45.2600 C   0  0  2  0  0  0  0  0  0  0  0  0
   44.9770   34.7200   45.4910 C   0  0  0  0  0  0  0  0  0  0  0  0
   44.7420   35.6450   44.4090 C   0  0  0  0  0  0  0  0  0  0  0  0
   45.4850   35.5310   43.1660 C   0  0  1  0  0  0  0  0  0  0  0  0
   46.5460   34.4860   43.1060 C   0  0  0  0  0  0  0  0  0  0  0  0
   46.0390   33.2760   43.8720 C   0  0  0  0  0  0  0  0  0  0  0  0
   46.9470   34.2690   45.5570 H   0  0  0  0  0  0  0  0  0  0  0  0
   44.3060   34.9860   46.3070 H   0  0  0  0  0  0  0  0  0  0  0  0
   44.0180   36.4210   44.4880 H   0  0  0  0  0  0  0  0  0  0  0  0
   45.9510   36.5090   42.8940 H   0  0  0  0  0  0  0  0  0  0  0  0
   46.6650   34.1800   42.0480 H   0  0  0  0  0  0  0  0  0  0  0  0
   47.5160   34.8010   43.5340 H   0  0  0  0  0  0  0  0  0  0  0  0
   44.9150   33.2550   43.5740 H   0  0  0  0  0  0  0  0  0  0  0  0
   46.4360   32.4460   43.3660 H   0  0  0  0  0  0  0  0  0  0  0  0
   45.3380   32.9070   47.5170 C   0  0  0  0  0  0  0  0  0  0  0  0
   45.8600   32.6260   46.2840 C   0  0  0  0  0  0  0  0  0  0  0  0
   46.1040   31.2840   46.0340 C   0  0  0  0  0  0  0  0  0  0  0  0
   45.8440   30.3310   46.9370 N   0  0  0  0  0  0  0  0  0  0  0  0
   45.3200   30.6470   48.1690 C   0  0  0  0  0  0  0  0  0  0  0  0
   45.0760   31.9250   48.4390 N   0  0  0  0  0  0  0  0  0  0  0  0
   45.0910   29.6250   49.1430 N   0  0  0  0  0  0  0  0  0  0  0  0
   45.1170   33.8980   47.8140 H   0  0  0  0  0  0  0  0  0  0  0  0
   45.6720   28.7700   49.1800 H   0  0  0  0  0  0  0  0  0  0  0  0
   44.3020   29.8000   49.8100 H   0  0  0  0  0  0  0  0  0  0  0  0
   46.7080   30.6090   44.8910 C   0  0  0  0  0  0  0  0  0  0  0  0
   48.0970   30.5430   44.6010 C   0  0  0  0  0  3  0  0  0  0  0  0
   48.0940   29.6620   42.9800 S   0  0  0  0  0  0  0  0  0  0  0  0
   46.1980   29.5450   42.9950 C   0  0  0  0  0  0  0  0  0  0  0  0
   45.5810   29.0580   42.1710 H   0  0  0  0  0  0  0  0  0  0  0  0
   45.9140   30.0530   43.9640 N   0  0  0  0  0  0  0  0  0  0  0  0
   44.4570   35.2680   42.0360 C   0  0  0  0  0  0  0  0  0  0  0  0
   43.4060   34.4760   42.4380 F   0  0  0  0  0  0  0  0  0  0  0  0
   43.9190   36.5110   41.7110 F   0  0  0  0  0  0  0  0  0  0  0  0
   45.0970   34.8020   40.9060 F   0  0  0  0  0  0  0  0  0  0  0  0
  1  2  1  0  0  0  0
  1  7  1  1  0  0  0
  1 16  1  0  0  0  0
  2  8  1  0  0  0  0
  3  9  1  0  0  0  0
  3  2  2  0  0  0  0
  4 10  1  6  0  0  0
  4  3  1  0  0  0  0
  5  4  1  0  0  0  0
  5 12  1  0  0  0  0
  5  6  1  0  0  0  0
  6  1  1  0  0  0  0
 11  5  1  0  0  0  0
 13  6  1  0  0  0  0
 14  6  1  0  0  0  0
 15 22  1  0  0  0  0
 15 20  1  0  0  0  0
 16 15  2  0  0  0  0
 17 16  1  0  0  0  0
 17 18  2  0  0  0  0
 18 19  1  0  0  0  0
 19 20  2  0  0  0  0
 19 21  1  0  0  0  0
 21 23  1  0  0  0  0
 21 24  1  0  0  0  0
 25 17  1  0  0  0  0
 26 25  2  0  0  0  0
 27 28  1  0  0  0  0
 27 26  1  0  0  0  0
 28 30  2  0  0  0  0
 29 28  1  0  0  0  0
 30 25  1  0  0  0  0
 31 32  1  0  0  0  0
 31  4  1  0  0  0  0
 33 31  1  0  0  0  0
 34 31  1  0  0  0  0
M  END
>  <minimizedAffinity>
-5.51975203

>  <minimizedRMSD>
0.311175525

$$$$
