
 OpenBabel03232520573D

 34 36  0  0  1  0  0  0  0  0999 V2000
   46.0850   33.6000   45.2640 C   0  0  2  0  0  0  0  0  0  0  0  0
   44.9780   34.7170   45.4940 C   0  0  0  0  0  0  0  0  0  0  0  0
   44.7430   35.6430   44.4130 C   0  0  0  0  0  0  0  0  0  0  0  0
   45.4880   35.5310   43.1710 C   0  0  1  0  0  0  0  0  0  0  0  0
   46.5490   34.4870   43.1110 C   0  0  0  0  0  0  0  0  0  0  0  0
   46.0420   33.2760   43.8750 C   0  0  0  0  0  0  0  0  0  0  0  0
   46.9480   34.2670   45.5610 H   0  0  0  0  0  0  0  0  0  0  0  0
   44.3060   34.9810   46.3110 H   0  0  0  0  0  0  0  0  0  0  0  0
   44.0180   36.4180   44.4920 H   0  0  0  0  0  0  0  0  0  0  0  0
   45.9520   36.5090   42.9000 H   0  0  0  0  0  0  0  0  0  0  0  0
   46.6690   34.1820   42.0530 H   0  0  0  0  0  0  0  0  0  0  0  0
   47.5180   34.8020   43.5400 H   0  0  0  0  0  0  0  0  0  0  0  0
   44.9190   33.2540   43.5760 H   0  0  0  0  0  0  0  0  0  0  0  0
   46.4400   32.4460   43.3680 H   0  0  0  0  0  0  0  0  0  0  0  0
   45.3410   32.9030   47.5200 C   0  0  0  0  0  0  0  0  0  0  0  0
   45.8620   32.6230   46.2860 C   0  0  0  0  0  0  0  0  0  0  0  0
   46.1050   31.2810   46.0350 C   0  0  0  0  0  0  0  0  0  0  0  0
   45.8440   30.3270   46.9360 N   0  0  0  0  0  0  0  0  0  0  0  0
   45.3220   30.6420   48.1700 C   0  0  0  0  0  0  0  0  0  0  0  0
   45.0780   31.9190   48.4410 N   0  0  0  0  0  0  0  0  0  0  0  0
   45.0920   29.6190   49.1420 N   0  0  0  0  0  0  0  0  0  0  0  0
   45.1200   33.8930   47.8180 H   0  0  0  0  0  0  0  0  0  0  0  0
   45.6730   28.7640   49.1780 H   0  0  0  0  0  0  0  0  0  0  0  0
   44.3040   29.7930   49.8100 H   0  0  0  0  0  0  0  0  0  0  0  0
   46.7080   30.6070   44.8900 C   0  0  0  0  0  0  0  0  0  0  0  0
   48.0970   30.5410   44.5990 C   0  0  0  0  0  3  0  0  0  0  0  0
   48.0940   29.6620   42.9780 S   0  0  0  0  0  0  0  0  0  0  0  0
   46.1980   29.5460   42.9940 C   0  0  0  0  0  0  0  0  0  0  0  0
   45.5800   29.0590   42.1700 H   0  0  0  0  0  0  0  0  0  0  0  0
   45.9140   30.0520   43.9640 N   0  0  0  0  0  0  0  0  0  0  0  0
   44.4600   35.2680   42.0390 C   0  0  0  0  0  0  0  0  0  0  0  0
   43.4090   34.4760   42.4400 F   0  0  0  0  0  0  0  0  0  0  0  0
   43.9230   36.5110   41.7140 F   0  0  0  0  0  0  0  0  0  0  0  0
   45.1020   34.8010   40.9100 F   0  0  0  0  0  0  0  0  0  0  0  0
  1  2  1  0  0  0  0
  1  7  1  1  0  0  0
  1 16  1  0  0  0  0
  2  8  1  0  0  0  0
  3  9  1  0  0  0  0
  3  2  2  0  0  0  0
  4 10  1  6  0  0  0
  4  3  1  0  0  0  0
  5  4  1  0  0  0  0
  5 12  1  0  0  0  0
  5  6  1  0  0  0  0
  6  1  1  0  0  0  0
 11  5  1  0  0  0  0
 13  6  1  0  0  0  0
 14  6  1  0  0  0  0
 15 22  1  0  0  0  0
 15 20  1  0  0  0  0
 16 15  2  0  0  0  0
 17 16  1  0  0  0  0
 17 18  2  0  0  0  0
 18 19  1  0  0  0  0
 19 20  2  0  0  0  0
 19 21  1  0  0  0  0
 21 23  1  0  0  0  0
 21 24  1  0  0  0  0
 25 17  1  0  0  0  0
 26 25  2  0  0  0  0
 27 28  1  0  0  0  0
 27 26  1  0  0  0  0
 28 30  2  0  0  0  0
 29 28  1  0  0  0  0
 30 25  1  0  0  0  0
 31 32  1  0  0  0  0
 31  4  1  0  0  0  0
 33 31  1  0  0  0  0
 34 31  1  0  0  0  0
M  END
>  <minimizedAffinity>
-5.51974201

>  <minimizedRMSD>
0.490166932

$$$$
