
 OpenBabel03232520053D

 30 33  0  0  0  0  0  0  0  0999 V2000
   46.2040   30.3710   49.1100 N   0  0  0  0  0  0  0  0  0  0  0  0
   45.3340   31.3900   49.4180 C   0  0  0  0  0  0  0  0  0  0  0  0
   45.2600   32.2160   48.3480 N   0  0  0  0  0  0  0  0  0  0  0  0
   46.0850   31.6870   47.4070 C   0  0  0  0  0  0  0  0  0  0  0  0
   46.3130   32.2060   46.1490 C   0  0  0  0  0  0  0  0  0  0  0  0
   47.1840   31.5060   45.3550 N   0  0  0  0  0  0  0  0  0  0  0  0
   47.7720   30.3850   45.7880 C   0  0  0  0  0  0  0  0  0  0  0  0
   47.5200   29.9220   47.0130 N   0  0  0  0  0  0  0  0  0  0  0  0
   46.6880   30.5400   47.8470 C   0  0  0  0  0  0  0  0  0  0  0  0
   46.4740   29.5770   49.7210 H   0  0  0  0  0  0  0  0  0  0  0  0
   44.8160   31.4870   50.3580 H   0  0  0  0  0  0  0  0  0  0  0  0
   48.7080   29.5750   45.0170 C   0  0  0  0  0  0  0  0  0  0  0  0
   49.2760   28.2370   45.2930 C   0  0  0  0  0  0  0  0  0  0  0  0
   50.3600   27.9680   43.8140 S   0  0  0  0  0  0  0  0  0  0  0  0
   49.8570   29.6610   43.1240 C   0  0  0  0  0  0  0  0  0  0  0  0
   50.4090   29.7860   42.1380 H   0  0  0  0  0  0  0  0  0  0  0  0
   49.1330   30.0990   43.8830 N   0  0  0  0  0  0  0  0  0  0  0  0
   45.6340   33.6590   45.4200 S   0  0  0  0  0  0  0  0  0  0  0  0
   47.7960   34.7280   42.3310 C   0  0  0  0  0  0  0  0  0  0  0  0
   47.0820   34.3590   41.2030 C   0  0  0  0  0  0  0  0  0  0  0  0
   45.8550   33.7400   41.4110 C   0  0  0  0  0  0  0  0  0  0  0  0
   45.4220   33.5320   42.6910 N   0  0  0  0  0  0  0  0  0  0  0  0
   46.1710   33.9180   43.7450 C   0  0  0  0  0  0  0  0  0  0  0  0
   47.3410   34.5080   43.5620 N   0  0  0  0  0  0  0  0  0  0  0  0
   47.4970   34.5610   40.2310 H   0  0  0  0  0  0  0  0  0  0  0  0
   45.3170   33.4630   40.5380 H   0  0  0  0  0  0  0  0  0  0  0  0
   49.1090   35.3900   42.1330 C   0  0  0  0  0  0  0  0  0  0  0  0
   49.2520   36.1630   41.1540 O   0  0  0  0  0  0  0  0  0  0  0  0
   50.1310   35.1450   43.0180 O   0  0  0  0  0  0  0  0  0  0  0  0
   50.9720   35.7120   43.0240 H   0  0  0  0  0  0  0  0  0  0  0  0
  1  2  1  0  0  0  0
  1 10  1  0  0  0  0
  2 11  1  0  0  0  0
  3  2  2  0  0  0  0
  4  9  1  0  0  0  0
  4  3  1  0  0  0  0
  5  4  2  0  0  0  0
  6  7  2  0  0  0  0
  6  5  1  0  0  0  0
  7  8  1  0  0  0  0
  8  9  2  0  0  0  0
  9  1  1  0  0  0  0
 12 13  2  0  0  0  0
 12  7  1  0  0  0  0
 14 13  1  0  0  0  0
 15 14  1  0  0  0  0
 15 17  2  0  0  0  0
 16 15  1  0  0  0  0
 17 12  1  0  0  0  0
 18  5  1  0  0  0  0
 19 24  1  0  0  0  0
 20 21  1  0  0  0  0
 20 19  2  0  0  0  0
 21 22  2  0  0  0  0
 22 23  1  0  0  0  0
 23 18  1  0  0  0  0
 24 23  2  0  0  0  0
 25 20  1  0  0  0  0
 26 21  1  0  0  0  0
 27 19  1  0  0  0  0
 27 29  1  0  0  0  0
 28 27  2  0  0  0  0
 29 30  1  0  0  0  0
M  END
>  <minimizedAffinity>
-5.70593309

>  <minimizedRMSD>
0.501886308

$$$$
