
 OpenBabel03232518583D

 40 43  0  0  1  0  0  0  0  0999 V2000
   46.6800   33.2380   45.0700 C   0  0  0  0  0  0  0  0  0  0  0  0
   47.5500   33.1340   44.3570 H   0  0  0  0  0  0  0  0  0  0  0  0
   47.1070   33.7030   45.9540 H   0  0  0  0  0  0  0  0  0  0  0  0
   45.7190   34.1210   44.3510 C   0  0  0  0  0  0  0  0  0  0  0  0
   45.0030   35.0490   45.0520 C   0  0  0  0  0  0  0  0  0  0  0  0
   44.1990   35.7230   44.1680 C   0  0  0  0  0  0  0  0  0  0  0  0
   44.4870   35.1430   42.9540 N   0  0  0  0  0  0  0  0  0  0  0  0
   45.3790   34.2000   43.0560 N   0  0  0  0  0  0  0  0  0  0  0  0
   44.9940   35.2950   46.1160 H   0  0  0  0  0  0  0  0  0  0  0  0
   43.4830   36.5230   44.2870 H   0  0  0  0  0  0  0  0  0  0  0  0
   44.3960   34.7150   40.5850 N   0  0  0  0  0  0  0  0  0  0  0  0
   43.2650   34.2610   39.8030 C   0  0  0  0  0  0  0  0  0  0  0  0
   42.2210   34.0250   40.8920 C   0  0  0  0  0  0  0  0  0  0  0  0
   42.3800   35.2960   41.7160 C   0  0  0  0  0  0  0  0  0  0  0  0
   43.8810   35.5110   41.6670 C   0  0  1  0  0  0  0  0  0  0  0  0
   44.9560   33.9040   40.9000 H   0  0  0  0  0  0  0  0  0  0  0  0
   42.8810   35.0060   39.0970 H   0  0  0  0  0  0  0  0  0  0  0  0
   43.4300   33.2490   39.3470 H   0  0  0  0  0  0  0  0  0  0  0  0
   42.4430   33.1200   41.4680 H   0  0  0  0  0  0  0  0  0  0  0  0
   41.2150   34.0250   40.4600 H   0  0  0  0  0  0  0  0  0  0  0  0
   42.0360   35.1040   42.7710 H   0  0  0  0  0  0  0  0  0  0  0  0
   41.7960   36.1120   41.2780 H   0  0  0  0  0  0  0  0  0  0  0  0
   44.1080   36.5750   41.4320 H   0  0  0  0  0  0  0  0  0  0  0  0
   46.0310   31.9450   45.3120 C   0  0  2  0  0  0  0  0  0  0  0  0
   45.0250   31.8420   44.8150 H   0  0  0  0  0  0  0  0  0  0  0  0
   45.8370   32.2510   48.9800 C   0  0  0  0  0  0  0  0  0  0  0  0
   45.4080   30.9270   49.3580 C   0  0  0  0  0  0  0  0  0  0  0  0
   45.2080   29.9660   48.3180 C   0  0  0  0  0  0  0  0  0  0  0  0
   45.4300   30.3450   47.0180 N   0  0  0  0  0  0  0  0  0  0  0  0
   45.8270   31.5900   46.7270 C   0  0  0  0  0  0  0  0  0  0  0  0
   46.0280   32.5320   47.7010 N   0  0  0  0  0  0  0  0  0  0  0  0
   45.9630   32.9100   49.8210 H   0  0  0  0  0  0  0  0  0  0  0  0
   45.2370   30.6410   50.3880 H   0  0  0  0  0  0  0  0  0  0  0  0
   44.8870   28.9670   48.5720 H   0  0  0  0  0  0  0  0  0  0  0  0
   46.8150   30.7910   44.6290 C   0  0  0  0  0  0  0  0  0  0  0  0
   47.1320   30.1340   45.4590 H   0  0  0  0  0  0  0  0  0  0  0  0
   46.1210   30.2190   43.9850 H   0  0  0  0  0  0  0  0  0  0  0  0
   47.9970   31.2990   43.8880 C   0  0  0  0  0  0  0  0  0  0  0  0
   48.0440   30.9240   42.4150 C   0  0  0  0  0  0  0  0  0  0  0  0
   48.9720   30.2120   43.3550 C   0  0  0  0  0  0  0  0  0  0  0  0
  1 24  1  0  0  0  0
  1  3  1  0  0  0  0
  2  1  1  0  0  0  0
  4  5  1  0  0  0  0
  4  1  1  0  0  0  0
  5  9  1  0  0  0  0
  6 10  1  0  0  0  0
  6  5  2  0  0  0  0
  7  8  1  0  0  0  0
  7  6  1  0  0  0  0
  8  4  2  0  0  0  0
 11 16  1  0  0  0  0
 11 15  1  0  0  0  0
 12 11  1  0  0  0  0
 12 13  1  0  0  0  0
 13 19  1  0  0  0  0
 13 14  1  0  0  0  0
 14 21  1  0  0  0  0
 15 23  1  6  0  0  0
 15 14  1  0  0  0  0
 15  7  1  0  0  0  0
 17 12  1  0  0  0  0
 18 12  1  0  0  0  0
 20 13  1  0  0  0  0
 22 14  1  0  0  0  0
 24 25  1  6  0  0  0
 24 30  1  0  0  0  0
 26 27  1  0  0  0  0
 26 32  1  0  0  0  0
 27 33  1  0  0  0  0
 28 34  1  0  0  0  0
 28 27  2  0  0  0  0
 29 28  1  0  0  0  0
 30 29  2  0  0  0  0
 30 31  1  0  0  0  0
 31 26  2  0  0  0  0
 35 24  1  0  0  0  0
 35 36  1  0  0  0  0
 37 35  1  0  0  0  0
 38 35  1  0  0  0  0
 39 40  1  0  0  0  0
 39 38  1  0  0  0  0
 40 38  1  0  0  0  0
M  END
>  <minimizedAffinity>
-5.05687189

>  <minimizedRMSD>
0.747522652

$$$$
