
 OpenBabel03232520573D

 34 36  0  0  1  0  0  0  0  0999 V2000
   46.0840   33.6020   45.2610 C   0  0  2  0  0  0  0  0  0  0  0  0
   44.9770   34.7190   45.4920 C   0  0  0  0  0  0  0  0  0  0  0  0
   44.7410   35.6440   44.4100 C   0  0  0  0  0  0  0  0  0  0  0  0
   45.4860   35.5310   43.1670 C   0  0  1  0  0  0  0  0  0  0  0  0
   46.5460   34.4870   43.1070 C   0  0  0  0  0  0  0  0  0  0  0  0
   46.0400   33.2770   43.8730 C   0  0  0  0  0  0  0  0  0  0  0  0
   46.9470   34.2690   45.5580 H   0  0  0  0  0  0  0  0  0  0  0  0
   44.3060   34.9840   46.3080 H   0  0  0  0  0  0  0  0  0  0  0  0
   44.0170   36.4200   44.4890 H   0  0  0  0  0  0  0  0  0  0  0  0
   45.9510   36.5100   42.8960 H   0  0  0  0  0  0  0  0  0  0  0  0
   46.6660   34.1820   42.0500 H   0  0  0  0  0  0  0  0  0  0  0  0
   47.5160   34.8020   43.5360 H   0  0  0  0  0  0  0  0  0  0  0  0
   44.9170   33.2550   43.5740 H   0  0  0  0  0  0  0  0  0  0  0  0
   46.4380   32.4470   43.3670 H   0  0  0  0  0  0  0  0  0  0  0  0
   45.3390   32.9060   47.5180 C   0  0  0  0  0  0  0  0  0  0  0  0
   45.8610   32.6250   46.2840 C   0  0  0  0  0  0  0  0  0  0  0  0
   46.1040   31.2830   46.0340 C   0  0  0  0  0  0  0  0  0  0  0  0
   45.8440   30.3300   46.9360 N   0  0  0  0  0  0  0  0  0  0  0  0
   45.3210   30.6460   48.1690 C   0  0  0  0  0  0  0  0  0  0  0  0
   45.0770   31.9230   48.4400 N   0  0  0  0  0  0  0  0  0  0  0  0
   45.0920   29.6230   49.1420 N   0  0  0  0  0  0  0  0  0  0  0  0
   45.1180   33.8970   47.8150 H   0  0  0  0  0  0  0  0  0  0  0  0
   45.6730   28.7680   49.1790 H   0  0  0  0  0  0  0  0  0  0  0  0
   44.3030   29.7980   49.8100 H   0  0  0  0  0  0  0  0  0  0  0  0
   46.7080   30.6090   44.8900 C   0  0  0  0  0  0  0  0  0  0  0  0
   48.0970   30.5440   44.5990 C   0  0  0  0  0  3  0  0  0  0  0  0
   48.0930   29.6620   42.9790 S   0  0  0  0  0  0  0  0  0  0  0  0
   46.1980   29.5440   42.9950 C   0  0  0  0  0  0  0  0  0  0  0  0
   45.5810   29.0560   42.1720 H   0  0  0  0  0  0  0  0  0  0  0  0
   45.9130   30.0520   43.9640 N   0  0  0  0  0  0  0  0  0  0  0  0
   44.4570   35.2680   42.0370 C   0  0  0  0  0  0  0  0  0  0  0  0
   43.4080   34.4750   42.4380 F   0  0  0  0  0  0  0  0  0  0  0  0
   43.9190   36.5110   41.7120 F   0  0  0  0  0  0  0  0  0  0  0  0
   45.0990   34.8030   40.9070 F   0  0  0  0  0  0  0  0  0  0  0  0
  1  2  1  0  0  0  0
  1  7  1  1  0  0  0
  1 16  1  0  0  0  0
  2  8  1  0  0  0  0
  3  9  1  0  0  0  0
  3  2  2  0  0  0  0
  4 10  1  6  0  0  0
  4  3  1  0  0  0  0
  5  4  1  0  0  0  0
  5 12  1  0  0  0  0
  5  6  1  0  0  0  0
  6  1  1  0  0  0  0
 11  5  1  0  0  0  0
 13  6  1  0  0  0  0
 14  6  1  0  0  0  0
 15 22  1  0  0  0  0
 15 20  1  0  0  0  0
 16 15  2  0  0  0  0
 17 16  1  0  0  0  0
 17 18  2  0  0  0  0
 18 19  1  0  0  0  0
 19 20  2  0  0  0  0
 19 21  1  0  0  0  0
 21 23  1  0  0  0  0
 21 24  1  0  0  0  0
 25 17  1  0  0  0  0
 26 25  2  0  0  0  0
 27 28  1  0  0  0  0
 27 26  1  0  0  0  0
 28 30  2  0  0  0  0
 29 28  1  0  0  0  0
 30 25  1  0  0  0  0
 31 32  1  0  0  0  0
 31  4  1  0  0  0  0
 33 31  1  0  0  0  0
 34 31  1  0  0  0  0
M  END
>  <minimizedAffinity>
-5.52117777

>  <minimizedRMSD>
0.505866826

$$$$
