
 OpenBabel03232519183D

 43 46  0  0  1  0  0  0  0  0999 V2000
   44.2270   34.3790   42.1970 C   0  0  0  0  0  0  0  0  0  0  0  0
   44.2140   35.4220   41.8840 H   0  0  0  0  0  0  0  0  0  0  0  0
   43.5440   34.3630   43.1030 H   0  0  0  0  0  0  0  0  0  0  0  0
   43.6140   33.4420   41.2260 C   0  0  1  0  0  0  0  0  0  0  0  0
   43.8710   32.3960   41.5060 H   0  0  0  0  0  0  0  0  0  0  0  0
   42.1410   33.5560   41.1890 C   0  0  0  0  0  0  0  0  0  0  0  0
   41.5590   34.8380   40.9610 C   0  0  0  0  0  0  0  0  0  0  0  0
   40.1650   34.9740   40.9180 C   0  0  0  0  0  0  0  0  0  0  0  0
   39.4380   33.8490   41.1010 N   0  0  0  0  0  0  0  0  0  0  0  0
   39.9950   32.6720   41.3110 C   0  0  0  0  0  0  0  0  0  0  0  0
   41.3430   32.4970   41.3600 N   0  0  0  0  0  0  0  0  0  0  0  0
   42.1470   35.7270   40.8160 H   0  0  0  0  0  0  0  0  0  0  0  0
   39.7220   35.9450   40.7450 H   0  0  0  0  0  0  0  0  0  0  0  0
   39.1790   31.4480   41.5030 C   0  0  0  0  0  0  0  0  0  0  0  0
   39.7930   30.3330   42.0810 C   0  0  0  0  0  0  0  0  0  0  0  0
   38.3460   29.1290   42.0670 S   0  0  0  0  0  0  0  0  0  0  0  0
   37.2200   30.4090   41.2770 C   0  0  0  0  0  0  0  0  0  0  0  0
   37.9150   31.2680   41.1840 N   0  0  0  0  0  0  0  0  0  0  0  0
   40.7160   30.0690   42.4520 H   0  0  0  0  0  0  0  0  0  0  0  0
   36.0710   30.5280   40.8880 H   0  0  0  0  0  0  0  0  0  0  0  0
   44.1810   33.6810   39.8470 C   0  0  0  0  0  0  0  0  0  0  0  0
   45.1230   33.1390   39.7250 H   0  0  0  0  0  0  0  0  0  0  0  0
   44.3910   34.7750   39.7510 H   0  0  0  0  0  0  0  0  0  0  0  0
   43.4220   33.4340   39.1020 H   0  0  0  0  0  0  0  0  0  0  0  0
   45.5040   34.0290   42.6880 N   0  0  0  0  0  0  0  0  0  0  0  0
   46.0370   32.9330   43.4230 C   0  0  0  0  0  0  0  0  0  0  0  0
   46.7370   31.9540   42.7440 C   0  0  0  0  0  0  0  0  0  0  0  0
   47.2790   30.8570   43.3910 C   0  0  0  0  0  0  0  0  0  0  0  0
   47.0830   30.7980   44.7210 N   0  0  0  0  0  0  0  0  0  0  0  0
   46.3980   31.7600   45.3740 C   0  0  0  0  0  0  0  0  0  0  0  0
   45.8620   32.8390   44.7620 N   0  0  0  0  0  0  0  0  0  0  0  0
   46.8560   32.0650   41.6780 H   0  0  0  0  0  0  0  0  0  0  0  0
   47.8220   30.1090   42.8320 H   0  0  0  0  0  0  0  0  0  0  0  0
   46.2840   31.5280   46.8270 C   0  0  0  0  0  0  0  0  0  0  0  0
   45.1530   30.9290   47.5070 C   0  0  0  0  0  0  0  0  0  0  0  0
   45.7780   30.9980   49.2600 S   0  0  0  0  0  0  0  0  0  0  0  0
   47.3840   31.7920   48.7580 C   0  0  0  0  0  0  0  0  0  0  0  0
   48.0890   32.0170   49.5440 H   0  0  0  0  0  0  0  0  0  0  0  0
   47.3280   31.9170   47.5400 N   0  0  0  0  0  0  0  0  0  0  0  0
   46.5910   34.8920   42.4710 C   0  0  0  0  0  0  0  0  0  0  0  0
   47.5810   34.6920   43.3870 F   0  0  0  0  0  0  0  0  0  0  0  0
   46.0600   36.1860   42.7650 F   0  0  0  0  0  0  0  0  0  0  0  0
   47.0820   34.9030   41.1950 F   0  0  0  0  0  0  0  0  0  0  0  0
  1 25  1  0  0  0  0
  1  3  1  0  0  0  0
  2  1  1  0  0  0  0
  4  5  1  1  0  0  0
  4  1  1  0  0  0  0
  6  4  1  0  0  0  0
  6 11  1  0  0  0  0
  7  6  2  0  0  0  0
  8  7  1  0  0  0  0
  8  9  2  0  0  0  0
  9 10  1  0  0  0  0
 10 11  2  0  0  0  0
 10 14  1  0  0  0  0
 12  7  1  0  0  0  0
 13  8  1  0  0  0  0
 14 15  2  0  0  0  0
 15 19  1  0  0  0  0
 16 15  1  0  0  0  0
 17 16  1  0  0  0  0
 18 17  2  0  0  0  0
 18 14  1  0  0  0  0
 20 17  1  0  0  0  0
 21  4  1  0  0  0  0
 22 21  1  0  0  0  0
 23 21  1  0  0  0  0
 24 21  1  0  0  0  0
 25 26  1  0  0  0  0
 26 31  1  0  0  0  0
 27 28  1  0  0  0  0
 27 26  2  0  0  0  0
 28 29  2  0  0  0  0
 29 30  1  0  0  0  0
 30 34  1  0  0  0  0
 31 30  2  0  0  0  0
 32 27  1  0  0  0  0
 33 28  1  0  0  0  0
 34 35  2  0  0  0  0
 34 39  1  0  0  0  0
 35 36  1  0  0  0  0
 37 36  1  0  0  0  0
 37 38  1  0  0  0  0
 39 37  2  0  0  0  0
 40 25  1  0  0  0  0
 40 42  1  0  0  0  0
 40 41  1  0  0  0  0
 43 40  1  0  0  0  0
M  END
>  <minimizedAffinity>
-5.90428638

>  <minimizedRMSD>
1.47379506

$$$$
