
 OpenBabel03232518003D

 37 39  0  0  1  0  0  0  0  0999 V2000
   47.9460   34.3930   41.1800 C   0  0  0  0  0  0  0  0  0  0  0  0
   44.1910   34.8130   41.3450 C   0  0  0  0  0  0  0  0  0  0  0  0
   45.4330   34.4130   40.8330 C   0  0  0  0  0  0  0  0  0  0  0  0
   46.5850   34.7500   41.5810 C   0  0  0  0  0  0  0  0  0  0  0  0
   46.4340   35.4430   42.7510 N   0  0  0  0  0  0  0  0  0  0  0  0
   45.2040   35.8040   43.1950 C   0  0  0  0  0  0  0  0  0  0  0  0
   44.0970   35.4950   42.5050 N   0  0  0  0  0  0  0  0  0  0  0  0
   45.5680   33.8660   39.9110 H   0  0  0  0  0  0  0  0  0  0  0  0
   45.1620   36.3470   44.1250 H   0  0  0  0  0  0  0  0  0  0  0  0
   43.0410   34.4240   40.5370 C   0  0  0  0  0  0  0  0  0  0  0  0
   42.4520   35.0820   39.7050 O   0  0  0  0  0  0  0  0  0  0  0  0
   42.6320   33.4190   40.6720 H   0  0  0  0  0  0  0  0  0  0  0  0
   48.8570   35.5820   41.5160 C   0  0  0  0  0  0  0  0  0  0  0  0
   49.8510   35.3390   41.1230 H   0  0  0  0  0  0  0  0  0  0  0  0
   48.8440   35.7290   42.6240 H   0  0  0  0  0  0  0  0  0  0  0  0
   48.3930   36.4450   40.9900 H   0  0  0  0  0  0  0  0  0  0  0  0
   48.0110   34.3440   39.6460 C   0  0  0  0  0  0  0  0  0  0  0  0
   47.2090   34.9680   39.2290 H   0  0  0  0  0  0  0  0  0  0  0  0
   47.9090   33.3140   39.2990 H   0  0  0  0  0  0  0  0  0  0  0  0
   48.9760   34.7250   39.2570 H   0  0  0  0  0  0  0  0  0  0  0  0
   48.4910   33.1550   41.6440 C   0  0  0  0  0  0  0  0  0  0  0  0
   48.2180   32.7290   42.5900 H   0  0  0  0  0  0  0  0  0  0  0  0
   48.0980   32.3470   40.8630 H   0  0  0  0  0  0  0  0  0  0  0  0
   49.8880   33.1690   41.4670 O   0  0  0  0  0  0  0  0  0  0  0  0
   50.1790   31.8820   41.0610 C   0  0  1  0  0  0  0  0  0  0  0  0
   50.7460   31.5590   39.7500 C   0  0  0  0  0  0  0  0  0  0  0  0
   51.6710   31.6340   40.9290 C   0  0  2  0  0  0  0  0  0  0  0  0
   49.6230   31.0390   41.5800 H   0  0  0  0  0  0  0  0  0  0  0  0
   50.8570   32.3250   38.9590 H   0  0  0  0  0  0  0  0  0  0  0  0
   50.5150   30.5630   39.3000 H   0  0  0  0  0  0  0  0  0  0  0  0
   52.3820   32.4880   40.8690 H   0  0  0  0  0  0  0  0  0  0  0  0
   52.1910   30.3620   41.5010 C   0  0  0  0  0  0  0  0  0  0  0  0
   52.1550   29.9730   43.0030 C   0  0  0  0  0  0  0  0  0  0  0  0
   52.9420   28.2550   42.8330 S   0  0  0  0  0  0  0  0  0  0  0  0
   53.1420   28.3910   40.9650 C   0  0  0  0  0  0  0  0  0  0  0  0
   53.5780   27.5350   40.5590 H   0  0  0  0  0  0  0  0  0  0  0  0
   52.6630   29.6050   40.5250 N   0  0  0  0  0  0  0  0  0  0  0  0
  1 13  1  0  0  0  0
  1  4  1  0  0  0  0
  1 21  1  0  0  0  0
  2  7  1  0  0  0  0
  3  2  2  0  0  0  0
  3  4  1  0  0  0  0
  4  5  2  0  0  0  0
  5  6  1  0  0  0  0
  6  9  1  0  0  0  0
  7  6  2  0  0  0  0
  8  3  1  0  0  0  0
 10 12  1  0  0  0  0
 10  2  1  0  0  0  0
 11 10  2  0  0  0  0
 13 15  1  0  0  0  0
 14 13  1  0  0  0  0
 16 13  1  0  0  0  0
 17  1  1  0  0  0  0
 18 17  1  0  0  0  0
 19 17  1  0  0  0  0
 20 17  1  0  0  0  0
 21 22  1  0  0  0  0
 23 21  1  0  0  0  0
 24 21  1  0  0  0  0
 25 24  1  0  0  0  0
 25 28  1  1  0  0  0
 26 27  1  0  0  0  0
 26 25  1  0  0  0  0
 27 31  1  1  0  0  0
 27 25  1  0  0  0  0
 27 32  1  0  0  0  0
 29 26  1  0  0  0  0
 30 26  1  0  0  0  0
 32 33  2  0  0  0  0
 34 33  1  0  0  0  0
 35 34  1  0  0  0  0
 36 35  1  0  0  0  0
 37 35  2  0  0  0  0
 37 32  1  0  0  0  0
M  END
>  <minimizedAffinity>
-4.30350685

>  <minimizedRMSD>
1.21403301

$$$$
