
 OpenBabel03232520573D

 34 36  0  0  1  0  0  0  0  0999 V2000
   46.0900   33.6020   45.2610 C   0  0  2  0  0  0  0  0  0  0  0  0
   44.9730   34.7090   45.4930 C   0  0  0  0  0  0  0  0  0  0  0  0
   44.7350   35.6390   44.4170 C   0  0  0  0  0  0  0  0  0  0  0  0
   45.4870   35.5400   43.1770 C   0  0  1  0  0  0  0  0  0  0  0  0
   46.5560   34.5040   43.1150 C   0  0  0  0  0  0  0  0  0  0  0  0
   46.0560   33.2850   43.8710 C   0  0  0  0  0  0  0  0  0  0  0  0
   46.9460   34.2740   45.5660 H   0  0  0  0  0  0  0  0  0  0  0  0
   44.2960   34.9630   46.3080 H   0  0  0  0  0  0  0  0  0  0  0  0
   44.0040   36.4080   44.4970 H   0  0  0  0  0  0  0  0  0  0  0  0
   45.9450   36.5230   42.9140 H   0  0  0  0  0  0  0  0  0  0  0  0
   46.6830   34.2070   42.0560 H   0  0  0  0  0  0  0  0  0  0  0  0
   47.5210   34.8250   43.5500 H   0  0  0  0  0  0  0  0  0  0  0  0
   44.9340   33.2560   43.5660 H   0  0  0  0  0  0  0  0  0  0  0  0
   46.4630   32.4620   43.3610 H   0  0  0  0  0  0  0  0  0  0  0  0
   45.3380   32.8840   47.5080 C   0  0  0  0  0  0  0  0  0  0  0  0
   45.8700   32.6160   46.2760 C   0  0  0  0  0  0  0  0  0  0  0  0
   46.1280   31.2790   46.0200 C   0  0  0  0  0  0  0  0  0  0  0  0
   45.8710   30.3170   46.9140 N   0  0  0  0  0  0  0  0  0  0  0  0
   45.3370   30.6200   48.1460 C   0  0  0  0  0  0  0  0  0  0  0  0
   45.0790   31.8940   48.4220 N   0  0  0  0  0  0  0  0  0  0  0  0
   45.1120   29.5890   49.1110 N   0  0  0  0  0  0  0  0  0  0  0  0
   45.1050   33.8710   47.8100 H   0  0  0  0  0  0  0  0  0  0  0  0
   45.7000   28.7400   49.1460 H   0  0  0  0  0  0  0  0  0  0  0  0
   44.3170   29.7520   49.7740 H   0  0  0  0  0  0  0  0  0  0  0  0
   46.7450   30.6170   44.8760 C   0  0  0  0  0  0  0  0  0  0  0  0
   46.0630   29.8630   43.8820 C   0  0  0  0  0  3  0  0  0  0  0  0
   47.4670   29.2460   42.8580 S   0  0  0  0  0  0  0  0  0  0  0  0
   48.7270   30.1280   43.9730 C   0  0  0  0  0  0  0  0  0  0  0  0
   49.8540   30.0990   43.8120 H   0  0  0  0  0  0  0  0  0  0  0  0
   48.0800   30.6300   44.7520 N   0  0  0  0  0  0  0  0  0  0  0  0
   44.4660   35.2760   42.0390 C   0  0  0  0  0  0  0  0  0  0  0  0
   43.4140   34.4820   42.4340 F   0  0  0  0  0  0  0  0  0  0  0  0
   43.9290   36.5180   41.7110 F   0  0  0  0  0  0  0  0  0  0  0  0
   45.1150   34.8100   40.9140 F   0  0  0  0  0  0  0  0  0  0  0  0
  1  2  1  0  0  0  0
  1  7  1  1  0  0  0
  1 16  1  0  0  0  0
  2  8  1  0  0  0  0
  3  9  1  0  0  0  0
  3  2  2  0  0  0  0
  4 10  1  6  0  0  0
  4  3  1  0  0  0  0
  5  4  1  0  0  0  0
  5 12  1  0  0  0  0
  5  6  1  0  0  0  0
  6  1  1  0  0  0  0
 11  5  1  0  0  0  0
 13  6  1  0  0  0  0
 14  6  1  0  0  0  0
 15 22  1  0  0  0  0
 15 20  1  0  0  0  0
 16 15  2  0  0  0  0
 17 16  1  0  0  0  0
 17 18  2  0  0  0  0
 18 19  1  0  0  0  0
 19 20  2  0  0  0  0
 19 21  1  0  0  0  0
 21 23  1  0  0  0  0
 21 24  1  0  0  0  0
 25 17  1  0  0  0  0
 26 25  2  0  0  0  0
 27 26  1  0  0  0  0
 27 28  1  0  0  0  0
 28 30  2  0  0  0  0
 29 28  1  0  0  0  0
 30 25  1  0  0  0  0
 31 32  1  0  0  0  0
 31  4  1  0  0  0  0
 33 31  1  0  0  0  0
 34 31  1  0  0  0  0
M  END
>  <minimizedAffinity>
-5.58171797

>  <minimizedRMSD>
0.453418881

$$$$
