
 OpenBabel03232520093D

 22 24  0  0  0  0  0  0  0  0999 V2000
   45.8550   33.0960   46.3820 C   0  0  0  0  0  0  0  0  0  0  0  0
   45.3790   32.8730   47.6580 C   0  0  0  0  0  0  0  0  0  0  0  0
   46.0680   32.0450   48.4870 C   0  0  0  0  0  0  0  0  0  0  0  0
   47.2360   31.4660   47.9750 C   0  0  0  0  0  0  0  0  0  0  0  0
   47.3300   32.1130   46.3180 S   0  0  0  0  0  0  0  0  0  0  0  0
   44.4670   33.3730   47.9470 H   0  0  0  0  0  0  0  0  0  0  0  0
   45.7820   31.8050   49.4970 H   0  0  0  0  0  0  0  0  0  0  0  0
   44.3440   35.9090   44.5950 C   0  0  0  0  0  0  0  0  0  0  0  0
   44.3350   35.4040   43.2610 C   0  0  0  0  0  0  0  0  0  0  0  0
   44.8500   34.1040   43.0110 C   0  0  0  0  0  0  0  0  0  0  0  0
   45.3330   33.3980   44.0750 N   0  0  0  0  0  0  0  0  0  0  0  0
   45.3250   33.9130   45.3230 C   0  0  0  0  0  0  0  0  0  0  0  0
   44.8380   35.1460   45.5750 N   0  0  0  0  0  0  0  0  0  0  0  0
   43.9360   36.8970   44.6880 H   0  0  0  0  0  0  0  0  0  0  0  0
   43.9480   35.9760   42.4320 H   0  0  0  0  0  0  0  0  0  0  0  0
   44.8640   33.6860   42.0360 H   0  0  0  0  0  0  0  0  0  0  0  0
   48.1900   30.5630   48.5560 C   0  0  0  0  0  0  0  0  0  0  0  0
   48.5310   29.3620   47.9420 C   0  0  0  0  0  0  0  0  0  0  0  0
   49.7500   28.6480   49.0960 S   0  0  0  0  0  0  0  0  0  0  0  0
   49.5840   30.1480   50.2520 C   0  0  0  0  0  0  0  0  0  0  0  0
   50.1230   30.3310   51.2310 H   0  0  0  0  0  0  0  0  0  0  0  0
   48.8210   30.7700   49.6940 N   0  0  0  0  0  0  0  0  0  0  0  0
  1  2  2  0  0  0  0
  2  6  1  0  0  0  0
  2  3  1  0  0  0  0
  3  7  1  0  0  0  0
  4  3  2  0  0  0  0
  4 17  1  0  0  0  0
  5  1  1  0  0  0  0
  5  4  1  0  0  0  0
  8 14  1  0  0  0  0
  8 13  1  0  0  0  0
  9  8  2  0  0  0  0
 10  9  1  0  0  0  0
 10 11  2  0  0  0  0
 11 12  1  0  0  0  0
 12 13  2  0  0  0  0
 12  1  1  0  0  0  0
 15  9  1  0  0  0  0
 16 10  1  0  0  0  0
 17 22  1  0  0  0  0
 18 17  2  0  0  0  0
 18 19  1  0  0  0  0
 19 20  1  0  0  0  0
 20 21  1  0  0  0  0
 22 20  2  0  0  0  0
M  END
>  <minimizedAffinity>
-4.49301291

>  <minimizedRMSD>
1.01662529

$$$$
