
 OpenBabel03232519023D

 28 30  0  0  1  0  0  0  0  0999 V2000
   44.4630   35.9610   44.7990 C   0  0  0  0  0  0  0  0  0  0  0  0
   44.9670   35.8640   43.4820 C   0  0  0  0  0  0  0  0  0  0  0  0
   45.7950   34.7890   43.1930 C   0  0  0  0  0  0  0  0  0  0  0  0
   46.0750   33.8970   44.1830 N   0  0  0  0  0  0  0  0  0  0  0  0
   45.5850   34.0160   45.4180 C   0  0  0  0  0  0  0  0  0  0  0  0
   44.7810   35.0430   45.7310 N   0  0  0  0  0  0  0  0  0  0  0  0
   45.9110   33.0520   46.4170 N   0  0  0  0  0  0  0  0  0  0  0  0
   45.1120   33.0540   47.6200 C   0  0  0  0  0  0  0  0  0  0  0  0
   45.6620   32.1910   48.7110 C   0  0  0  0  0  0  0  0  0  0  0  0
   46.9270   31.7000   48.4510 O   0  0  0  0  0  0  0  0  0  0  0  0
   46.9000   31.0400   47.2370 C   0  0  0  0  0  0  0  0  0  0  0  0
   47.0170   32.1240   46.1830 C   0  0  1  0  0  0  0  0  0  0  0  0
   43.8000   36.7960   45.0800 H   0  0  0  0  0  0  0  0  0  0  0  0
   44.7150   36.5950   42.7400 H   0  0  0  0  0  0  0  0  0  0  0  0
   46.2220   34.6520   42.1910 H   0  0  0  0  0  0  0  0  0  0  0  0
   44.1150   32.6540   47.3330 H   0  0  0  0  0  0  0  0  0  0  0  0
   44.9100   34.1000   47.9800 H   0  0  0  0  0  0  0  0  0  0  0  0
   45.0160   31.3270   48.9660 H   0  0  0  0  0  0  0  0  0  0  0  0
   45.7310   32.8100   49.6410 H   0  0  0  0  0  0  0  0  0  0  0  0
   47.6690   30.2540   47.1180 H   0  0  0  0  0  0  0  0  0  0  0  0
   45.8750   30.5710   47.1680 H   0  0  0  0  0  0  0  0  0  0  0  0
   47.9250   32.6960   46.3980 H   0  0  0  0  0  0  0  0  0  0  0  0
   46.9590   31.5560   44.8040 C   0  0  0  0  0  0  0  0  0  0  0  0
   45.8270   30.7870   44.4710 C   0  0  0  0  0  0  0  0  0  0  0  0
   46.2000   30.3300   42.7480 S   0  0  0  0  0  0  0  0  0  0  0  0
   47.8330   31.2570   42.7620 C   0  0  0  0  0  0  0  0  0  0  0  0
   48.6260   31.4110   41.9970 H   0  0  0  0  0  0  0  0  0  0  0  0
   47.9690   31.8000   43.9600 N   0  0  0  0  0  0  0  0  0  0  0  0
  1 13  1  0  0  0  0
  1  6  1  0  0  0  0
  2  1  2  0  0  0  0
  3  2  1  0  0  0  0
  3  4  2  0  0  0  0
  4  5  1  0  0  0  0
  5  6  2  0  0  0  0
  5  7  1  0  0  0  0
  7  8  1  0  0  0  0
  8 17  1  0  0  0  0
  8  9  1  0  0  0  0
  9 18  1  0  0  0  0
  9 19  1  0  0  0  0
 10  9  1  0  0  0  0
 11 10  1  0  0  0  0
 12 22  1  1  0  0  0
 12  7  1  0  0  0  0
 12 11  1  0  0  0  0
 14  2  1  0  0  0  0
 15  3  1  0  0  0  0
 16  8  1  0  0  0  0
 20 11  1  0  0  0  0
 21 11  1  0  0  0  0
 23 12  1  0  0  0  0
 24 23  2  0  0  0  0
 25 26  1  0  0  0  0
 25 24  1  0  0  0  0
 26 28  2  0  0  0  0
 27 26  1  0  0  0  0
 28 23  1  0  0  0  0
M  END
>  <minimizedAffinity>
-4.70540428

>  <minimizedRMSD>
0.807845712

$$$$
