
 OpenBabel03232519493D

 40 43  0  0  1  0  0  0  0  0999 V2000
   46.6840   34.0490   42.6580 N   0  0  0  0  0  0  0  0  0  0  0  0
   48.0120   34.4930   42.2290 C   0  0  0  0  0  0  0  0  0  0  0  0
   47.7250   34.8210   40.7830 C   0  0  0  0  0  0  0  0  0  0  0  0
   47.0130   33.5540   40.3610 C   0  0  0  0  0  0  0  0  0  0  0  0
   46.1530   33.2460   41.5480 C   0  0  2  0  0  0  0  0  0  0  0  0
   48.3520   35.3370   42.8240 H   0  0  0  0  0  0  0  0  0  0  0  0
   48.7110   33.6140   42.2310 H   0  0  0  0  0  0  0  0  0  0  0  0
   48.6620   34.9640   40.2190 H   0  0  0  0  0  0  0  0  0  0  0  0
   47.0550   35.7060   40.7470 H   0  0  0  0  0  0  0  0  0  0  0  0
   47.8200   32.8160   40.1720 H   0  0  0  0  0  0  0  0  0  0  0  0
   46.4520   33.6850   39.4190 H   0  0  0  0  0  0  0  0  0  0  0  0
   46.4240   32.2030   41.8310 H   0  0  0  0  0  0  0  0  0  0  0  0
   44.7570   33.3790   41.3600 N   0  0  0  0  0  0  0  0  0  0  0  0
   44.0990   34.2910   40.6450 C   0  0  0  0  0  0  0  0  0  0  0  0
   42.7230   34.3230   40.5330 C   0  0  0  0  0  0  0  0  0  0  0  0
   41.9610   33.3700   41.1860 C   0  0  0  0  0  0  0  0  0  0  0  0
   40.6860   33.3460   41.1220 O   0  0  0  0  0  0  0  0  0  0  0  0
   42.6220   32.4480   41.9080 N   0  0  0  0  0  0  0  0  0  0  0  0
   43.9500   32.4630   41.9820 C   0  0  0  0  0  0  0  0  0  0  0  0
   44.4750   31.5480   42.6910 O   0  0  0  0  0  0  0  0  0  0  0  0
   44.7170   35.0320   40.1390 H   0  0  0  0  0  0  0  0  0  0  0  0
   42.0510   31.7350   42.3970 H   0  0  0  0  0  0  0  0  0  0  0  0
   42.0290   35.3480   39.7330 C   0  0  0  0  0  0  0  0  0  0  0  0
   41.0380   35.0150   39.3990 H   0  0  0  0  0  0  0  0  0  0  0  0
   41.9200   36.2910   40.3420 H   0  0  0  0  0  0  0  0  0  0  0  0
   42.6350   35.6260   38.8530 H   0  0  0  0  0  0  0  0  0  0  0  0
   44.5190   35.5660   45.2610 C   0  0  0  0  0  0  0  0  0  0  0  0
   45.1520   35.3750   44.0340 C   0  0  0  0  0  0  0  0  0  0  0  0
   46.0170   34.3040   43.8520 C   0  0  0  0  0  0  0  0  0  0  0  0
   46.1890   33.4900   44.9220 N   0  0  0  0  0  0  0  0  0  0  0  0
   45.5800   33.6660   46.1230 C   0  0  0  0  0  0  0  0  0  0  0  0
   44.7510   34.7100   46.2640 N   0  0  0  0  0  0  0  0  0  0  0  0
   43.8390   36.3860   45.4480 H   0  0  0  0  0  0  0  0  0  0  0  0
   44.9730   36.0530   43.2300 H   0  0  0  0  0  0  0  0  0  0  0  0
   45.8530   32.7050   47.2140 C   0  0  0  0  0  0  0  0  0  0  0  0
   47.1810   32.3080   47.4670 C   0  0  0  0  0  0  0  0  0  0  0  0
   46.9360   31.1330   48.8970 S   0  0  0  0  0  0  0  0  0  0  0  0
   45.0710   31.4150   48.8640 C   0  0  0  0  0  0  0  0  0  0  0  0
   44.2180   30.9980   49.4960 H   0  0  0  0  0  0  0  0  0  0  0  0
   44.9380   32.1670   47.9970 N   0  0  0  0  0  0  0  0  0  0  0  0
  1 29  1  0  0  0  0
  2  7  1  0  0  0  0
  2  1  1  0  0  0  0
  2  6  1  0  0  0  0
  3  2  1  0  0  0  0
  4  3  1  0  0  0  0
  4  5  1  0  0  0  0
  5 12  1  1  0  0  0
  5  1  1  0  0  0  0
  8  3  1  0  0  0  0
  9  3  1  0  0  0  0
 10  4  1  0  0  0  0
 11  4  1  0  0  0  0
 13  5  1  0  0  0  0
 13 19  1  0  0  0  0
 14 13  1  0  0  0  0
 15 14  2  0  0  0  0
 15 16  1  0  0  0  0
 16 18  1  0  0  0  0
 17 16  2  0  0  0  0
 18 19  1  0  0  0  0
 18 22  1  0  0  0  0
 19 20  2  0  0  0  0
 21 14  1  0  0  0  0
 23 25  1  0  0  0  0
 23 15  1  0  0  0  0
 24 23  1  0  0  0  0
 26 23  1  0  0  0  0
 27 33  1  0  0  0  0
 27 32  1  0  0  0  0
 28 27  2  0  0  0  0
 29 28  1  0  0  0  0
 29 30  2  0  0  0  0
 30 31  1  0  0  0  0
 31 32  2  0  0  0  0
 31 35  1  0  0  0  0
 34 28  1  0  0  0  0
 35 36  2  0  0  0  0
 35 40  1  0  0  0  0
 36 37  1  0  0  0  0
 38 37  1  0  0  0  0
 38 39  1  0  0  0  0
 40 38  2  0  0  0  0
M  END
>  <minimizedAffinity>
-6.55665684

>  <minimizedRMSD>
0.928456008

$$$$
