
 OpenBabel03232520163D

 31 33  0  0  0  0  0  0  0  0999 V2000
   47.4780   34.0590   42.3250 C   0  0  0  0  0  0  0  0  0  0  0  0
   48.2880   35.2160   41.7890 C   0  0  0  0  0  0  0  0  0  0  0  0
   49.6590   35.3620   42.3230 C   0  0  0  0  0  0  0  0  0  0  0  0
   50.4080   34.0710   42.4500 C   0  0  0  0  0  0  0  0  0  0  0  0
   49.5660   32.8600   42.1380 C   0  0  0  0  0  0  0  0  0  0  0  0
   48.2840   32.9860   42.9500 C   0  0  0  0  0  0  0  0  0  0  0  0
   47.7230   36.1520   41.9100 H   0  0  0  0  0  0  0  0  0  0  0  0
   48.3650   35.0610   40.6840 H   0  0  0  0  0  0  0  0  0  0  0  0
   49.6070   35.9570   43.2700 H   0  0  0  0  0  0  0  0  0  0  0  0
   50.2230   36.0140   41.6120 H   0  0  0  0  0  0  0  0  0  0  0  0
   50.7220   33.9820   43.5310 H   0  0  0  0  0  0  0  0  0  0  0  0
   51.3620   34.0880   41.8840 H   0  0  0  0  0  0  0  0  0  0  0  0
   50.1350   31.9570   42.3880 H   0  0  0  0  0  0  0  0  0  0  0  0
   49.2970   32.9530   41.0540 H   0  0  0  0  0  0  0  0  0  0  0  0
   47.7860   32.0180   42.9630 H   0  0  0  0  0  0  0  0  0  0  0  0
   48.6140   33.2810   43.9760 H   0  0  0  0  0  0  0  0  0  0  0  0
   45.3400   34.3240   45.3320 C   0  0  0  0  0  0  0  0  0  0  0  0
   44.5630   35.4630   45.0790 C   0  0  0  0  0  0  0  0  0  0  0  0
   44.7910   36.1340   43.8640 C   0  0  0  0  0  0  0  0  0  0  0  0
   45.7310   35.6630   43.0070 N   0  0  0  0  0  0  0  0  0  0  0  0
   46.4580   34.5620   43.2870 C   0  0  0  0  0  0  0  0  0  0  0  0
   46.2620   33.8960   44.4490 N   0  0  0  0  0  0  0  0  0  0  0  0
   45.2670   33.7160   46.2260 H   0  0  0  0  0  0  0  0  0  0  0  0
   43.8480   35.7460   45.8290 H   0  0  0  0  0  0  0  0  0  0  0  0
   44.2030   36.9960   43.6720 H   0  0  0  0  0  0  0  0  0  0  0  0
   46.6750   33.4230   41.2100 C   0  0  0  0  0  0  0  0  0  0  0  0
   46.9250   33.8840   39.9090 C   0  0  0  0  0  0  0  0  0  0  0  0
   45.8190   32.9240   38.9050 S   0  0  0  0  0  0  0  0  0  0  0  0
   45.1460   31.9970   40.4210 C   0  0  0  0  0  0  0  0  0  0  0  0
   44.3600   31.1370   40.8060 H   0  0  0  0  0  0  0  0  0  0  0  0
   45.7590   32.4890   41.2330 N   0  0  0  0  0  0  0  0  0  0  0  0
  1  6  1  0  0  0  0
  1 21  1  0  0  0  0
  2  7  1  0  0  0  0
  2  3  1  0  0  0  0
  2  1  1  0  0  0  0
  3  4  1  0  0  0  0
  3  9  1  0  0  0  0
  4 11  1  0  0  0  0
  5 13  1  0  0  0  0
  5  4  1  0  0  0  0
  5  6  1  0  0  0  0
  6 15  1  0  0  0  0
  6 16  1  0  0  0  0
  8  2  1  0  0  0  0
 10  3  1  0  0  0  0
 12  4  1  0  0  0  0
 14  5  1  0  0  0  0
 17 23  1  0  0  0  0
 18 17  1  0  0  0  0
 18 24  1  0  0  0  0
 19 18  2  0  0  0  0
 20 21  2  0  0  0  0
 20 19  1  0  0  0  0
 21 22  1  0  0  0  0
 22 17  2  0  0  0  0
 25 19  1  0  0  0  0
 26 31  1  0  0  0  0
 26  1  1  0  0  0  0
 27 26  2  0  0  0  0
 28 27  1  0  0  0  0
 28 29  1  0  0  0  0
 29 30  1  0  0  0  0
 29 31  2  0  0  0  0
M  END
>  <minimizedAffinity>
-5.24490404

>  <minimizedRMSD>
0.785514414

$$$$
