
 OpenBabel03232520573D

 34 36  0  0  1  0  0  0  0  0999 V2000
   46.0950   33.5950   45.2400 C   0  0  2  0  0  0  0  0  0  0  0  0
   44.9890   34.7140   45.4820 C   0  0  0  0  0  0  0  0  0  0  0  0
   44.7420   35.6320   44.4020 C   0  0  0  0  0  0  0  0  0  0  0  0
   45.4820   35.5240   43.1480 C   0  0  1  0  0  0  0  0  0  0  0  0
   46.5310   34.4900   43.0890 C   0  0  0  0  0  0  0  0  0  0  0  0
   46.0260   33.2700   43.8550 C   0  0  0  0  0  0  0  0  0  0  0  0
   46.9610   34.2650   45.5180 H   0  0  0  0  0  0  0  0  0  0  0  0
   44.3320   34.9760   46.3020 H   0  0  0  0  0  0  0  0  0  0  0  0
   44.0130   36.4070   44.4960 H   0  0  0  0  0  0  0  0  0  0  0  0
   45.9170   36.5180   42.9060 H   0  0  0  0  0  0  0  0  0  0  0  0
   46.8050   34.2610   42.0610 H   0  0  0  0  0  0  0  0  0  0  0  0
   47.4470   34.8370   43.6200 H   0  0  0  0  0  0  0  0  0  0  0  0
   44.8780   33.2920   43.5890 H   0  0  0  0  0  0  0  0  0  0  0  0
   46.3480   32.4560   43.2930 H   0  0  0  0  0  0  0  0  0  0  0  0
   45.3280   32.8700   47.4880 C   0  0  0  0  0  0  0  0  0  0  0  0
   45.8900   32.6200   46.2620 C   0  0  0  0  0  0  0  0  0  0  0  0
   46.1760   31.2960   46.0310 C   0  0  0  0  0  0  0  0  0  0  0  0
   45.9010   30.3430   46.9560 N   0  0  0  0  0  0  0  0  0  0  0  0
   45.3450   30.6260   48.1550 C   0  0  0  0  0  0  0  0  0  0  0  0
   45.0580   31.8940   48.4230 N   0  0  0  0  0  0  0  0  0  0  0  0
   45.1010   29.5930   49.0930 N   0  0  0  0  0  0  0  0  0  0  0  0
   45.0650   33.8690   47.7920 H   0  0  0  0  0  0  0  0  0  0  0  0
   45.4850   29.6130   50.0780 H   0  0  0  0  0  0  0  0  0  0  0  0
   44.5330   28.7370   48.8980 H   0  0  0  0  0  0  0  0  0  0  0  0
   47.0290   30.7190   44.9660 C   0  0  0  0  0  0  0  0  0  0  0  0
   46.5830   29.7960   44.0140 C   0  0  0  0  0  3  0  0  0  0  0  0
   47.5880   29.4390   43.1490 C   0  0  0  0  0  3  0  0  0  0  0  0
   48.6350   30.1800   43.6240 C   0  0  0  0  0  0  0  0  0  0  0  0
   49.6400   30.1820   43.2050 H   0  0  0  0  0  0  0  0  0  0  0  0
   48.2550   30.8730   44.6420 O   0  0  0  0  0  0  0  0  0  0  0  0
   44.4430   35.2660   42.0280 C   0  0  0  0  0  0  0  0  0  0  0  0
   43.3990   34.4720   42.4320 F   0  0  0  0  0  0  0  0  0  0  0  0
   43.8990   36.5090   41.7060 F   0  0  0  0  0  0  0  0  0  0  0  0
   45.0830   34.7900   40.8950 F   0  0  0  0  0  0  0  0  0  0  0  0
  1  2  1  0  0  0  0
  1  7  1  1  0  0  0
  1 16  1  0  0  0  0
  2  8  1  0  0  0  0
  3  9  1  0  0  0  0
  3  2  2  0  0  0  0
  4 10  1  6  0  0  0
  4  3  1  0  0  0  0
  5  4  1  0  0  0  0
  5 12  1  0  0  0  0
  5  6  1  0  0  0  0
  6  1  1  0  0  0  0
 11  5  1  0  0  0  0
 13  6  1  0  0  0  0
 14  6  1  0  0  0  0
 15 22  1  0  0  0  0
 15 20  1  0  0  0  0
 16 15  2  0  0  0  0
 17 16  1  0  0  0  0
 17 18  2  0  0  0  0
 18 19  1  0  0  0  0
 19 20  2  0  0  0  0
 19 21  1  0  0  0  0
 21 23  1  0  0  0  0
 24 21  1  0  0  0  0
 25 17  1  0  0  0  0
 26 25  2  0  0  0  0
 27 28  2  0  0  0  0
 27 26  1  0  0  0  0
 28 30  1  0  0  0  0
 29 28  1  0  0  0  0
 30 25  1  0  0  0  0
 31 32  1  0  0  0  0
 31  4  1  0  0  0  0
 33 31  1  0  0  0  0
 34 31  1  0  0  0  0
M  END
>  <minimizedAffinity>
-5.5557332

>  <minimizedRMSD>
0.480965853

$$$$
