
 OpenBabel03232520563D

 34 36  0  0  1  0  0  0  0  0999 V2000
   46.1050   33.5290   45.2230 C   0  0  2  0  0  0  0  0  0  0  0  0
   45.0170   34.6630   45.4810 C   0  0  0  0  0  0  0  0  0  0  0  0
   44.7780   35.5930   44.4100 C   0  0  0  0  0  0  0  0  0  0  0  0
   45.5090   35.4840   43.1510 C   0  0  1  0  0  0  0  0  0  0  0  0
   46.5410   34.4350   43.0770 C   0  0  0  0  0  0  0  0  0  0  0  0
   46.0230   33.2170   43.8350 C   0  0  0  0  0  0  0  0  0  0  0  0
   46.9830   34.1830   45.5010 H   0  0  0  0  0  0  0  0  0  0  0  0
   44.3690   34.9270   46.3070 H   0  0  0  0  0  0  0  0  0  0  0  0
   44.0620   36.3780   44.5150 H   0  0  0  0  0  0  0  0  0  0  0  0
   45.9570   36.4730   42.9150 H   0  0  0  0  0  0  0  0  0  0  0  0
   46.8060   34.2110   42.0450 H   0  0  0  0  0  0  0  0  0  0  0  0
   47.4660   34.7640   43.6050 H   0  0  0  0  0  0  0  0  0  0  0  0
   44.8740   33.2580   43.5770 H   0  0  0  0  0  0  0  0  0  0  0  0
   46.3290   32.4030   43.2650 H   0  0  0  0  0  0  0  0  0  0  0  0
   45.4290   32.8120   47.5020 C   0  0  0  0  0  0  0  0  0  0  0  0
   45.8910   32.5480   46.2380 C   0  0  0  0  0  0  0  0  0  0  0  0
   46.0590   31.2130   45.9650 C   0  0  0  0  0  0  0  0  0  0  0  0
   45.7710   30.2620   46.8870 N   0  0  0  0  0  0  0  0  0  0  0  0
   45.3160   30.5570   48.1260 C   0  0  0  0  0  0  0  0  0  0  0  0
   45.1450   31.8360   48.4350 N   0  0  0  0  0  0  0  0  0  0  0  0
   45.0540   29.5240   49.0580 N   0  0  0  0  0  0  0  0  0  0  0  0
   45.2640   33.8200   47.8410 H   0  0  0  0  0  0  0  0  0  0  0  0
   45.5000   29.4920   50.0160 H   0  0  0  0  0  0  0  0  0  0  0  0
   44.4100   28.7190   48.8850 H   0  0  0  0  0  0  0  0  0  0  0  0
   46.7960   30.5980   44.8350 C   0  0  0  0  0  0  0  0  0  0  0  0
   48.1870   30.4660   44.7830 C   0  0  0  0  0  3  0  0  0  0  0  0
   48.5910   29.8550   43.6210 C   0  0  0  0  0  3  0  0  0  0  0  0
   47.3940   29.6340   42.9960 C   0  0  0  0  0  0  0  0  0  0  0  0
   47.2760   29.1580   42.0240 H   0  0  0  0  0  0  0  0  0  0  0  0
   46.4310   30.0730   43.7290 O   0  0  0  0  0  0  0  0  0  0  0  0
   44.4590   35.2510   42.0350 C   0  0  0  0  0  0  0  0  0  0  0  0
   43.4090   34.4650   42.4370 F   0  0  0  0  0  0  0  0  0  0  0  0
   43.9290   36.5050   41.7310 F   0  0  0  0  0  0  0  0  0  0  0  0
   45.0860   34.7810   40.8920 F   0  0  0  0  0  0  0  0  0  0  0  0
  1  2  1  0  0  0  0
  1  7  1  1  0  0  0
  1 16  1  0  0  0  0
  2  8  1  0  0  0  0
  3  9  1  0  0  0  0
  3  2  2  0  0  0  0
  4 10  1  6  0  0  0
  4  3  1  0  0  0  0
  5  4  1  0  0  0  0
  5 12  1  0  0  0  0
  5  6  1  0  0  0  0
  6  1  1  0  0  0  0
 11  5  1  0  0  0  0
 13  6  1  0  0  0  0
 14  6  1  0  0  0  0
 15 22  1  0  0  0  0
 15 20  1  0  0  0  0
 16 15  2  0  0  0  0
 17 16  1  0  0  0  0
 17 18  2  0  0  0  0
 18 19  1  0  0  0  0
 19 20  2  0  0  0  0
 19 21  1  0  0  0  0
 21 23  1  0  0  0  0
 24 21  1  0  0  0  0
 25 17  1  0  0  0  0
 26 25  2  0  0  0  0
 27 26  1  0  0  0  0
 28 27  2  0  0  0  0
 28 30  1  0  0  0  0
 29 28  1  0  0  0  0
 30 25  1  0  0  0  0
 31 32  1  0  0  0  0
 31  4  1  0  0  0  0
 33 31  1  0  0  0  0
 34 31  1  0  0  0  0
M  END
>  <minimizedAffinity>
-5.5574398

>  <minimizedRMSD>
0.516777575

$$$$
