
 OpenBabel03232520463D

 38 41  0  0  0  0  0  0  0  0999 V2000
   46.4180   34.6810   42.1690 C   0  0  0  0  0  0  0  0  0  0  0  0
   47.7290   35.0340   42.0280 C   0  0  0  0  0  0  0  0  0  0  0  0
   48.4360   34.8200   40.8480 C   0  0  0  0  0  0  0  0  0  0  0  0
   47.7880   34.2170   39.7530 C   0  0  0  0  0  0  0  0  0  0  0  0
   46.4710   33.8620   39.8950 C   0  0  0  0  0  0  0  0  0  0  0  0
   45.8070   34.0980   41.0970 C   0  0  0  0  0  0  0  0  0  0  0  0
   48.2470   35.5000   42.8590 H   0  0  0  0  0  0  0  0  0  0  0  0
   49.4720   35.1320   40.8260 H   0  0  0  0  0  0  0  0  0  0  0  0
   48.3850   34.0840   38.8850 H   0  0  0  0  0  0  0  0  0  0  0  0
   45.9770   33.4020   39.0590 H   0  0  0  0  0  0  0  0  0  0  0  0
   44.4440   33.7140   41.1970 N   0  0  0  0  0  0  0  0  0  0  0  0
   43.6230   34.6530   40.6260 C   0  0  0  0  0  0  0  0  0  0  0  0
   42.2450   34.4800   40.6120 C   0  0  0  0  0  0  0  0  0  0  0  0
   41.7370   33.3260   41.1930 C   0  0  0  0  0  0  0  0  0  0  0  0
   40.4990   33.1070   41.2140 O   0  0  0  0  0  0  0  0  0  0  0  0
   42.5790   32.4340   41.7400 N   0  0  0  0  0  0  0  0  0  0  0  0
   43.9050   32.6140   41.7470 C   0  0  0  0  0  0  0  0  0  0  0  0
   44.7550   31.8390   42.2320 O   0  0  0  0  0  0  0  0  0  0  0  0
   43.9450   35.5620   40.1610 H   0  0  0  0  0  0  0  0  0  0  0  0
   42.2360   31.5420   42.1930 H   0  0  0  0  0  0  0  0  0  0  0  0
   41.3250   35.4780   40.0010 C   0  0  0  0  0  0  0  0  0  0  0  0
   40.3340   35.0400   39.9290 H   0  0  0  0  0  0  0  0  0  0  0  0
   41.6750   35.7920   38.9960 H   0  0  0  0  0  0  0  0  0  0  0  0
   41.2770   36.3370   40.7070 H   0  0  0  0  0  0  0  0  0  0  0  0
   44.3820   36.1820   44.9550 C   0  0  0  0  0  0  0  0  0  0  0  0
   44.9530   36.0450   43.6890 C   0  0  0  0  0  0  0  0  0  0  0  0
   45.7630   34.9460   43.4380 C   0  0  0  0  0  0  0  0  0  0  0  0
   45.9500   34.0740   44.4350 N   0  0  0  0  0  0  0  0  0  0  0  0
   45.3870   34.2190   45.6610 C   0  0  0  0  0  0  0  0  0  0  0  0
   44.5990   35.2870   45.9090 N   0  0  0  0  0  0  0  0  0  0  0  0
   43.7480   37.0530   45.1300 H   0  0  0  0  0  0  0  0  0  0  0  0
   44.7980   36.7510   42.8890 H   0  0  0  0  0  0  0  0  0  0  0  0
   45.6830   33.1860   46.6480 C   0  0  0  0  0  0  0  0  0  0  0  0
   46.8150   32.4210   46.4810 C   0  0  0  0  0  0  0  0  0  0  0  0
   46.8670   31.5190   47.5460 C   0  0  0  0  0  0  0  0  0  0  0  0
   45.7330   31.8090   48.3030 C   0  0  0  0  0  0  0  0  0  0  0  0
   45.3700   31.3480   49.2300 H   0  0  0  0  0  0  0  0  0  0  0  0
   45.0610   32.8010   47.7370 O   0  0  0  0  0  0  0  0  0  0  0  0
  1 27  1  0  0  0  0
  2  1  1  0  0  0  0
  2  7  1  0  0  0  0
  3  2  2  0  0  0  0
  4  5  2  0  0  0  0
  4  3  1  0  0  0  0
  5  6  1  0  0  0  0
  6 11  1  0  0  0  0
  6  1  2  0  0  0  0
  8  3  1  0  0  0  0
  9  4  1  0  0  0  0
 10  5  1  0  0  0  0
 11 17  1  0  0  0  0
 12 11  1  0  0  0  0
 13 12  2  0  0  0  0
 13 14  1  0  0  0  0
 14 15  2  0  0  0  0
 14 16  1  0  0  0  0
 16 17  1  0  0  0  0
 16 20  1  0  0  0  0
 17 18  2  0  0  0  0
 19 12  1  0  0  0  0
 21 13  1  0  0  0  0
 21 24  1  0  0  0  0
 22 21  1  0  0  0  0
 23 21  1  0  0  0  0
 25 31  1  0  0  0  0
 25 30  1  0  0  0  0
 26 25  2  0  0  0  0
 27 26  1  0  0  0  0
 27 28  2  0  0  0  0
 28 29  1  0  0  0  0
 29 30  2  0  0  0  0
 29 33  1  0  0  0  0
 32 26  1  0  0  0  0
 33 38  1  0  0  0  0
 34 33  2  0  0  0  0
 34 35  1  0  0  0  0
 35 36  2  0  0  0  0
 36 37  1  0  0  0  0
 38 36  1  0  0  0  0
M  END
>  <minimizedAffinity>
-7.47261477

>  <minimizedRMSD>
0.260683089

$$$$
