
 OpenBabel03232519353D

 43 45  0  0  1  0  0  0  0  0999 V2000
   46.7180   34.3650   40.4330 C   0  0  1  0  0  0  0  0  0  0  0  0
   47.9290   33.8980   39.6040 C   0  0  0  0  0  0  0  0  0  0  0  0
   47.3600   33.5850   38.2220 C   0  0  0  0  0  0  0  0  0  0  0  0
   46.4900   32.3750   38.3120 C   0  0  0  0  0  0  0  0  0  0  0  0
   46.1930   32.0490   39.7420 C   0  0  0  0  0  0  0  0  0  0  0  0
   45.7430   33.2990   40.5270 C   0  0  2  0  0  0  0  0  0  0  0  0
   46.4820   35.3210   39.9880 H   0  0  0  0  0  0  0  0  0  0  0  0
   48.6110   34.7660   39.4840 H   0  0  0  0  0  0  0  0  0  0  0  0
   48.4400   33.0430   40.0350 H   0  0  0  0  0  0  0  0  0  0  0  0
   46.9250   34.4700   37.7660 H   0  0  0  0  0  0  0  0  0  0  0  0
   48.2730   33.3540   37.6000 H   0  0  0  0  0  0  0  0  0  0  0  0
   45.6030   32.4430   37.6520 H   0  0  0  0  0  0  0  0  0  0  0  0
   47.0500   31.4940   37.9210 H   0  0  0  0  0  0  0  0  0  0  0  0
   47.0620   31.5520   40.2090 H   0  0  0  0  0  0  0  0  0  0  0  0
   45.3520   31.3250   39.7520 H   0  0  0  0  0  0  0  0  0  0  0  0
   45.6510   32.7280   41.4810 H   0  0  0  0  0  0  0  0  0  0  0  0
   47.2130   34.7720   41.8430 C   0  0  0  0  0  0  0  0  0  0  0  0
   48.3530   34.7470   41.7580 H   0  0  0  0  0  0  0  0  0  0  0  0
   47.0010   35.8150   42.0760 H   0  0  0  0  0  0  0  0  0  0  0  0
   46.7350   33.7320   42.7610 C   0  0  0  0  0  0  0  0  0  0  0  0
   45.9130   33.0470   42.4230 H   0  0  0  0  0  0  0  0  0  0  0  0
   47.6040   33.1200   43.1320 H   0  0  0  0  0  0  0  0  0  0  0  0
   45.9970   33.5640   45.0460 C   0  0  0  0  0  0  0  0  0  0  0  0
   45.9870   34.2950   43.8590 C   0  0  0  0  0  0  0  0  0  0  0  0
   45.2760   35.4360   43.7290 C   0  0  0  0  0  0  0  0  0  0  0  0
   44.5600   35.8570   44.8030 N   0  0  0  0  0  0  0  0  0  0  0  0
   44.5450   35.1730   45.9680 C   0  0  0  0  0  0  0  0  0  0  0  0
   45.2640   34.0240   46.0960 N   0  0  0  0  0  0  0  0  0  0  0  0
   46.5670   32.6500   45.1510 H   0  0  0  0  0  0  0  0  0  0  0  0
   45.1820   36.0800   42.8770 H   0  0  0  0  0  0  0  0  0  0  0  0
   43.9830   35.4890   46.8310 H   0  0  0  0  0  0  0  0  0  0  0  0
   44.4410   33.6620   39.8680 C   0  0  0  0  0  0  0  0  0  0  0  0
   43.8190   32.7450   39.9170 H   0  0  0  0  0  0  0  0  0  0  0  0
   44.4780   33.9550   38.8290 H   0  0  0  0  0  0  0  0  0  0  0  0
   43.6850   34.7320   40.6490 C   0  0  0  0  0  0  0  0  0  0  0  0
   44.1300   35.7250   40.3420 H   0  0  0  0  0  0  0  0  0  0  0  0
   43.5200   34.5720   41.6820 H   0  0  0  0  0  0  0  0  0  0  0  0
   42.2910   34.8600   40.0020 C   0  0  0  0  0  0  0  0  0  0  0  0
   41.3660   35.7240   40.8060 C   0  0  0  0  0  0  0  0  0  0  0  0
   39.9570   35.3530   40.3760 C   0  0  0  0  0  0  0  0  0  0  0  0
   39.9310   34.7590   38.9910 C   0  0  0  0  0  0  0  0  0  0  0  0
   40.9360   35.3910   38.0650 C   0  0  0  0  0  0  0  0  0  0  0  0
   42.3530   35.1820   38.5460 C   0  0  0  0  0  0  0  0  0  0  0  0
  1  7  1  6  0  0  0
  1  6  1  0  0  0  0
  1 17  1  0  0  0  0
  2  9  1  0  0  0  0
  2  1  1  0  0  0  0
  3  4  1  0  0  0  0
  3  2  1  0  0  0  0
  4  5  1  0  0  0  0
  5 15  1  0  0  0  0
  5 14  1  0  0  0  0
  5  6  1  0  0  0  0
  6 16  1  1  0  0  0
  8  2  1  0  0  0  0
 10  3  1  0  0  0  0
 11  3  1  0  0  0  0
 12  4  1  0  0  0  0
 13  4  1  0  0  0  0
 17 19  1  0  0  0  0
 17 20  1  0  0  0  0
 18 17  1  0  0  0  0
 20 22  1  0  0  0  0
 20 24  1  0  0  0  0
 21 20  1  0  0  0  0
 23 29  1  0  0  0  0
 23 28  1  0  0  0  0
 24 23  2  0  0  0  0
 25 24  1  0  0  0  0
 25 26  2  0  0  0  0
 26 27  1  0  0  0  0
 27 28  2  0  0  0  0
 27 31  1  0  0  0  0
 30 25  1  0  0  0  0
 32 33  1  0  0  0  0
 32  6  1  0  0  0  0
 32 35  1  0  0  0  0
 34 32  1  0  0  0  0
 35 37  1  0  0  0  0
 36 35  1  0  0  0  0
 38 35  1  0  0  0  0
 38 39  1  0  0  0  0
 40 39  1  0  0  0  0
 41 40  1  0  0  0  0
 42 43  1  0  0  0  0
 42 41  1  0  0  0  0
 43 38  1  0  0  0  0
M  END
>  <minimizedAffinity>
-5.64746618

>  <minimizedRMSD>
2.1943965

$$$$
