
 OpenBabel03232520573D

 34 36  0  0  1  0  0  0  0  0999 V2000
   45.8840   33.2300   44.3230 C   0  0  2  0  0  0  0  0  0  0  0  0
   45.4410   34.7400   44.5670 C   0  0  0  0  0  0  0  0  0  0  0  0
   45.0280   35.4930   43.4130 C   0  0  0  0  0  0  0  0  0  0  0  0
   45.0210   34.8820   42.0880 C   0  0  1  0  0  0  0  0  0  0  0  0
   45.5290   33.5020   41.9950 C   0  0  0  0  0  0  0  0  0  0  0  0
   45.0790   32.7550   43.2480 C   0  0  0  0  0  0  0  0  0  0  0  0
   46.9430   33.4950   44.0290 H   0  0  0  0  0  0  0  0  0  0  0  0
   45.3640   35.3840   45.4340 H   0  0  0  0  0  0  0  0  0  0  0  0
   44.7180   36.5110   43.5040 H   0  0  0  0  0  0  0  0  0  0  0  0
   45.5840   35.5400   41.3910 H   0  0  0  0  0  0  0  0  0  0  0  0
   45.2030   33.0200   41.0750 H   0  0  0  0  0  0  0  0  0  0  0  0
   46.6430   33.4970   42.0100 H   0  0  0  0  0  0  0  0  0  0  0  0
   44.0150   33.2290   43.4270 H   0  0  0  0  0  0  0  0  0  0  0  0
   44.8230   31.8060   42.9100 H   0  0  0  0  0  0  0  0  0  0  0  0
   45.5170   33.2300   46.7790 C   0  0  0  0  0  0  0  0  0  0  0  0
   45.8790   32.6120   45.6090 C   0  0  0  0  0  0  0  0  0  0  0  0
   46.1640   31.2750   45.7420 C   0  0  0  0  0  0  0  0  0  0  0  0
   46.0730   30.6490   46.9420 N   0  0  0  0  0  0  0  0  0  0  0  0
   45.7120   31.2900   48.0760 C   0  0  0  0  0  0  0  0  0  0  0  0
   45.4340   32.5850   47.9950 N   0  0  0  0  0  0  0  0  0  0  0  0
   45.6560   30.5920   49.3060 N   0  0  0  0  0  0  0  0  0  0  0  0
   45.2770   34.2790   46.8090 H   0  0  0  0  0  0  0  0  0  0  0  0
   46.1950   30.9000   50.1630 H   0  0  0  0  0  0  0  0  0  0  0  0
   45.0900   29.7290   49.4730 H   0  0  0  0  0  0  0  0  0  0  0  0
   46.8490   30.3870   44.7730 C   0  0  0  0  0  0  0  0  0  0  0  0
   48.2350   30.3390   44.5940 C   0  0  0  0  0  3  0  0  0  0  0  0
   48.5880   29.4230   43.6340 C   0  0  0  0  0  3  0  0  0  0  0  0
   47.3650   28.9360   43.2570 C   0  0  0  0  0  0  0  0  0  0  0  0
   47.2050   28.1720   42.4990 H   0  0  0  0  0  0  0  0  0  0  0  0
   46.4360   29.5180   43.9330 O   0  0  0  0  0  0  0  0  0  0  0  0
   43.5590   34.9260   41.5740 C   0  0  0  0  0  0  0  0  0  0  0  0
   42.6700   35.3770   42.5170 F   0  0  0  0  0  0  0  0  0  0  0  0
   43.5400   35.8520   40.5300 F   0  0  0  0  0  0  0  0  0  0  0  0
   43.2110   33.6960   41.0410 F   0  0  0  0  0  0  0  0  0  0  0  0
  1  7  1  6  0  0  0
  1  2  1  0  0  0  0
  1 16  1  0  0  0  0
  2  8  1  0  0  0  0
  3  9  1  0  0  0  0
  3  2  2  0  0  0  0
  4 10  1  6  0  0  0
  4  3  1  0  0  0  0
  5 12  1  0  0  0  0
  5  4  1  0  0  0  0
  5  6  1  0  0  0  0
  6 13  1  0  0  0  0
  6  1  1  0  0  0  0
 11  5  1  0  0  0  0
 14  6  1  0  0  0  0
 15 22  1  0  0  0  0
 15 20  1  0  0  0  0
 16 17  1  0  0  0  0
 16 15  2  0  0  0  0
 17 18  2  0  0  0  0
 18 19  1  0  0  0  0
 19 21  1  0  0  0  0
 20 19  2  0  0  0  0
 21 24  1  0  0  0  0
 21 23  1  0  0  0  0
 25 17  1  0  0  0  0
 26 25  2  0  0  0  0
 27 26  1  0  0  0  0
 28 27  2  0  0  0  0
 28 30  1  0  0  0  0
 29 28  1  0  0  0  0
 30 25  1  0  0  0  0
 31  4  1  0  0  0  0
 31 32  1  0  0  0  0
 33 31  1  0  0  0  0
 34 31  1  0  0  0  0
M  END
>  <minimizedAffinity>
-4.8306098

>  <minimizedRMSD>
1.27006125

$$$$
