
 OpenBabel03232520573D

 34 36  0  0  1  0  0  0  0  0999 V2000
   46.1040   33.5310   45.2250 C   0  0  2  0  0  0  0  0  0  0  0  0
   45.0150   34.6640   45.4820 C   0  0  0  0  0  0  0  0  0  0  0  0
   44.7760   35.5940   44.4120 C   0  0  0  0  0  0  0  0  0  0  0  0
   45.5080   35.4870   43.1530 C   0  0  1  0  0  0  0  0  0  0  0  0
   46.5420   34.4390   43.0790 C   0  0  0  0  0  0  0  0  0  0  0  0
   46.0240   33.2200   43.8370 C   0  0  0  0  0  0  0  0  0  0  0  0
   46.9810   34.1870   45.5030 H   0  0  0  0  0  0  0  0  0  0  0  0
   44.3660   34.9270   46.3080 H   0  0  0  0  0  0  0  0  0  0  0  0
   44.0580   36.3790   44.5160 H   0  0  0  0  0  0  0  0  0  0  0  0
   45.9550   36.4770   42.9170 H   0  0  0  0  0  0  0  0  0  0  0  0
   46.8070   34.2160   42.0470 H   0  0  0  0  0  0  0  0  0  0  0  0
   47.4660   34.7690   43.6080 H   0  0  0  0  0  0  0  0  0  0  0  0
   44.8750   33.2600   43.5780 H   0  0  0  0  0  0  0  0  0  0  0  0
   46.3310   32.4060   43.2660 H   0  0  0  0  0  0  0  0  0  0  0  0
   45.4290   32.8130   47.5030 C   0  0  0  0  0  0  0  0  0  0  0  0
   45.8910   32.5500   46.2390 C   0  0  0  0  0  0  0  0  0  0  0  0
   46.0590   31.2150   45.9650 C   0  0  0  0  0  0  0  0  0  0  0  0
   45.7710   30.2630   46.8870 N   0  0  0  0  0  0  0  0  0  0  0  0
   45.3170   30.5580   48.1260 C   0  0  0  0  0  0  0  0  0  0  0  0
   45.1460   31.8370   48.4360 N   0  0  0  0  0  0  0  0  0  0  0  0
   45.0550   29.5250   49.0570 N   0  0  0  0  0  0  0  0  0  0  0  0
   45.2640   33.8210   47.8440 H   0  0  0  0  0  0  0  0  0  0  0  0
   45.5010   29.4920   50.0150 H   0  0  0  0  0  0  0  0  0  0  0  0
   44.4110   28.7190   48.8840 H   0  0  0  0  0  0  0  0  0  0  0  0
   46.7950   30.6000   44.8350 C   0  0  0  0  0  0  0  0  0  0  0  0
   48.1860   30.4670   44.7820 C   0  0  0  0  0  3  0  0  0  0  0  0
   48.5900   29.8560   43.6210 C   0  0  0  0  0  3  0  0  0  0  0  0
   47.3940   29.6380   42.9940 C   0  0  0  0  0  0  0  0  0  0  0  0
   47.2750   29.1640   42.0220 H   0  0  0  0  0  0  0  0  0  0  0  0
   46.4300   30.0770   43.7290 O   0  0  0  0  0  0  0  0  0  0  0  0
   44.4600   35.2530   42.0350 C   0  0  0  0  0  0  0  0  0  0  0  0
   43.4080   34.4680   42.4380 F   0  0  0  0  0  0  0  0  0  0  0  0
   43.9300   36.5070   41.7290 F   0  0  0  0  0  0  0  0  0  0  0  0
   45.0870   34.7810   40.8940 F   0  0  0  0  0  0  0  0  0  0  0  0
  1  2  1  0  0  0  0
  1  7  1  1  0  0  0
  1 16  1  0  0  0  0
  2  8  1  0  0  0  0
  3  9  1  0  0  0  0
  3  2  2  0  0  0  0
  4 10  1  6  0  0  0
  4  3  1  0  0  0  0
  5  4  1  0  0  0  0
  5 12  1  0  0  0  0
  5  6  1  0  0  0  0
  6  1  1  0  0  0  0
 11  5  1  0  0  0  0
 13  6  1  0  0  0  0
 14  6  1  0  0  0  0
 15 22  1  0  0  0  0
 15 20  1  0  0  0  0
 16 15  2  0  0  0  0
 17 16  1  0  0  0  0
 17 18  2  0  0  0  0
 18 19  1  0  0  0  0
 19 20  2  0  0  0  0
 19 21  1  0  0  0  0
 21 23  1  0  0  0  0
 24 21  1  0  0  0  0
 25 17  1  0  0  0  0
 26 25  2  0  0  0  0
 27 26  1  0  0  0  0
 28 27  2  0  0  0  0
 28 30  1  0  0  0  0
 29 28  1  0  0  0  0
 30 25  1  0  0  0  0
 31 32  1  0  0  0  0
 31  4  1  0  0  0  0
 33 31  1  0  0  0  0
 34 31  1  0  0  0  0
M  END
>  <minimizedAffinity>
-5.56146765

>  <minimizedRMSD>
0.453834355

$$$$
