
 OpenBabel03232517353D

 44 47  0  0  0  0  0  0  0  0999 V2000
   46.6710   34.3850   41.4000 N   0  0  0  0  0  0  0  0  0  0  0  0
   46.0430   33.8530   40.3310 C   0  0  0  0  0  0  0  0  0  0  0  0
   46.7080   33.7490   39.1070 C   0  0  0  0  0  0  0  0  0  0  0  0
   48.0140   34.2240   39.1010 C   0  0  0  0  0  0  0  0  0  0  0  0
   48.6510   34.1500   38.0170 O   0  0  0  0  0  0  0  0  0  0  0  0
   48.6160   34.7480   40.1810 N   0  0  0  0  0  0  0  0  0  0  0  0
   47.9210   34.8240   41.3450 C   0  0  0  0  0  0  0  0  0  0  0  0
   48.5480   35.3210   42.3040 O   0  0  0  0  0  0  0  0  0  0  0  0
   49.5940   35.0750   40.0820 H   0  0  0  0  0  0  0  0  0  0  0  0
   44.6150   33.3940   40.5020 C   0  0  0  0  0  0  0  0  0  0  0  0
   44.4180   32.2740   41.4560 C   0  0  0  0  0  0  0  0  0  0  0  0
   42.9610   32.3320   41.8840 C   0  0  0  0  0  0  0  0  0  0  0  0
   42.1710   32.5790   40.6110 C   0  0  0  0  0  0  0  0  0  0  0  0
   42.2990   33.9760   40.0460 C   0  0  0  0  0  0  0  0  0  0  0  0
   43.6170   34.4900   40.6110 C   0  0  0  0  0  0  0  0  0  0  0  0
   44.3990   32.9880   39.4750 H   0  0  0  0  0  0  0  0  0  0  0  0
   45.1390   31.9950   42.1750 H   0  0  0  0  0  0  0  0  0  0  0  0
   44.3910   31.3030   40.8500 H   0  0  0  0  0  0  0  0  0  0  0  0
   42.6220   31.2930   42.1900 H   0  0  0  0  0  0  0  0  0  0  0  0
   42.7300   32.9550   42.7270 H   0  0  0  0  0  0  0  0  0  0  0  0
   41.1140   32.2890   40.6840 H   0  0  0  0  0  0  0  0  0  0  0  0
   42.6210   31.8830   39.8490 H   0  0  0  0  0  0  0  0  0  0  0  0
   42.3480   33.9200   38.9180 H   0  0  0  0  0  0  0  0  0  0  0  0
   41.4560   34.6320   40.2610 H   0  0  0  0  0  0  0  0  0  0  0  0
   43.9290   35.4330   40.1790 H   0  0  0  0  0  0  0  0  0  0  0  0
   43.2100   34.5800   41.6700 H   0  0  0  0  0  0  0  0  0  0  0  0
   44.7630   35.9960   44.1240 C   0  0  0  0  0  0  0  0  0  0  0  0
   45.3690   35.7980   42.8580 C   0  0  0  0  0  0  0  0  0  0  0  0
   46.0770   34.5680   42.6720 C   0  0  0  0  0  0  0  0  0  0  0  0
   46.0970   33.7320   43.7070 N   0  0  0  0  0  0  0  0  0  0  0  0
   45.5200   33.9460   44.8820 C   0  0  0  0  0  0  0  0  0  0  0  0
   44.8510   35.0780   45.0950 N   0  0  0  0  0  0  0  0  0  0  0  0
   44.2140   36.9090   44.3240 H   0  0  0  0  0  0  0  0  0  0  0  0
   45.2720   36.5710   42.1030 H   0  0  0  0  0  0  0  0  0  0  0  0
   45.6890   33.0980   45.5580 H   0  0  0  0  0  0  0  0  0  0  0  0
   46.0710   33.1770   37.9440 C   0  0  0  0  0  0  0  0  0  0  0  0
   45.0140   33.4890   37.7810 H   0  0  0  0  0  0  0  0  0  0  0  0
   46.5730   33.6540   37.0440 H   0  0  0  0  0  0  0  0  0  0  0  0
   46.2860   31.7100   37.7000 C   0  0  0  0  0  0  0  0  0  0  0  0
   46.7050   31.5500   36.2310 C   0  0  0  0  0  0  0  0  0  0  0  0
   47.0390   30.0740   35.9670 C   0  0  0  0  0  0  0  0  0  0  0  0
   45.7250   29.3310   36.0980 C   0  0  0  0  0  0  0  0  0  0  0  0
   45.2540   29.5080   37.5290 C   0  0  0  0  0  0  0  0  0  0  0  0
   44.9410   30.9560   37.7900 C   0  0  0  0  0  0  0  0  0  0  0  0
  1 29  1  0  0  0  0
  2 10  1  0  0  0  0
  2  1  1  0  0  0  0
  3  2  2  0  0  0  0
  4  3  1  0  0  0  0
  4  6  1  0  0  0  0
  5  4  2  0  0  0  0
  6  7  1  0  0  0  0
  7  1  1  0  0  0  0
  7  8  2  0  0  0  0
  9  6  1  0  0  0  0
 10 15  1  0  0  0  0
 10 11  1  0  0  0  0
 11 12  1  0  0  0  0
 11 17  1  0  0  0  0
 12 19  1  0  0  0  0
 12 20  1  0  0  0  0
 13 21  1  0  0  0  0
 13 12  1  0  0  0  0
 14 24  1  0  0  0  0
 14 13  1  0  0  0  0
 14 15  1  0  0  0  0
 15 26  1  0  0  0  0
 16 10  1  0  0  0  0
 18 11  1  0  0  0  0
 22 13  1  0  0  0  0
 23 14  1  0  0  0  0
 25 15  1  0  0  0  0
 27 33  1  0  0  0  0
 27 32  1  0  0  0  0
 28 27  2  0  0  0  0
 29 28  1  0  0  0  0
 29 30  2  0  0  0  0
 30 31  1  0  0  0  0
 31 32  2  0  0  0  0
 31 35  1  0  0  0  0
 34 28  1  0  0  0  0
 36  3  1  0  0  0  0
 37 36  1  0  0  0  0
 38 36  1  0  0  0  0
 39 44  1  0  0  0  0
 39 36  1  0  0  0  0
 40 39  1  0  0  0  0
 41 42  1  0  0  0  0
 41 40  1  0  0  0  0
 42 43  1  0  0  0  0
 43 44  1  0  0  0  0
M  END
>  <minimizedAffinity>
-5.48916912

>  <minimizedRMSD>
0.502918541

$$$$
