
 OpenBabel03232520533D

 32 34  0  0  1  0  0  0  0  0999 V2000
   44.6490   34.1140   42.1180 C   0  0  2  0  0  0  0  0  0  0  0  0
   43.9080   35.4340   42.2310 C   0  0  0  0  0  0  0  0  0  0  0  0
   43.0400   35.7950   41.1370 C   0  0  0  0  0  0  0  0  0  0  0  0
   42.8890   34.9280   39.9830 C   0  0  1  0  0  0  0  0  0  0  0  0
   43.7270   33.7090   39.9390 C   0  0  0  0  0  0  0  0  0  0  0  0
   43.8740   33.1310   41.3150 C   0  0  0  0  0  0  0  0  0  0  0  0
   45.5700   34.3980   41.5270 H   0  0  0  0  0  0  0  0  0  0  0  0
   43.8500   36.2310   42.9610 H   0  0  0  0  0  0  0  0  0  0  0  0
   42.4810   36.7070   41.1330 H   0  0  0  0  0  0  0  0  0  0  0  0
   43.0940   35.5150   39.0590 H   0  0  0  0  0  0  0  0  0  0  0  0
   43.3170   33.0000   39.2050 H   0  0  0  0  0  0  0  0  0  0  0  0
   44.7510   33.9830   39.5970 H   0  0  0  0  0  0  0  0  0  0  0  0
   44.5050   32.2240   41.2130 H   0  0  0  0  0  0  0  0  0  0  0  0
   42.9140   32.8490   41.7460 H   0  0  0  0  0  0  0  0  0  0  0  0
   45.4640   32.3660   43.6340 C   0  0  0  0  0  0  0  0  0  0  0  0
   45.0730   33.6770   43.4360 C   0  0  0  0  0  0  0  0  0  0  0  0
   45.1000   34.5170   44.5430 C   0  0  0  0  0  0  0  0  0  0  0  0
   45.4970   34.0450   45.7610 N   0  0  0  0  0  0  0  0  0  0  0  0
   45.8740   32.7480   45.9200 C   0  0  0  0  0  0  0  0  0  0  0  0
   45.8530   31.9170   44.8450 N   0  0  0  0  0  0  0  0  0  0  0  0
   45.4970   31.5900   42.8830 H   0  0  0  0  0  0  0  0  0  0  0  0
   44.8090   35.5550   44.4570 H   0  0  0  0  0  0  0  0  0  0  0  0
   46.3000   32.2290   47.2150 C   0  0  0  0  0  0  0  0  0  0  0  0
   47.4780   31.7990   47.7760 C   0  0  0  0  0  0  0  0  0  0  0  0
   47.1290   31.4380   49.0810 C   0  0  0  0  0  0  0  0  0  0  0  0
   45.7810   31.6650   49.2340 C   0  0  0  0  0  0  0  0  0  0  0  0
   45.2970   31.4500   50.1810 H   0  0  0  0  0  0  0  0  0  0  0  0
   45.3020   32.1450   48.0900 O   0  0  0  0  0  0  0  0  0  0  0  0
   41.4060   34.5470   39.8740 C   0  0  0  0  0  0  0  0  0  0  0  0
   40.7830   34.4710   41.1000 F   0  0  0  0  0  0  0  0  0  0  0  0
   40.7660   35.5670   39.1670 F   0  0  0  0  0  0  0  0  0  0  0  0
   41.2730   33.3860   39.1340 F   0  0  0  0  0  0  0  0  0  0  0  0
  1  7  1  6  0  0  0
  1  2  1  0  0  0  0
  1 16  1  0  0  0  0
  2  8  1  0  0  0  0
  3  2  2  0  0  0  0
  4 10  1  6  0  0  0
  4  3  1  0  0  0  0
  5  4  1  0  0  0  0
  5  6  1  0  0  0  0
  6 14  1  0  0  0  0
  6  1  1  0  0  0  0
  9  3  1  0  0  0  0
 11  5  1  0  0  0  0
 12  5  1  0  0  0  0
 13  6  1  0  0  0  0
 15 20  1  0  0  0  0
 16 15  2  0  0  0  0
 16 17  1  0  0  0  0
 17 18  2  0  0  0  0
 18 19  1  0  0  0  0
 19 23  1  0  0  0  0
 20 19  2  0  0  0  0
 21 15  1  0  0  0  0
 22 17  1  0  0  0  0
 23 24  2  0  0  0  0
 23 28  1  0  0  0  0
 24 25  1  0  0  0  0
 25 26  2  0  0  0  0
 26 27  1  0  0  0  0
 28 26  1  0  0  0  0
 29  4  1  0  0  0  0
 29 30  1  0  0  0  0
 31 29  1  0  0  0  0
 32 29  1  0  0  0  0
M  END
>  <minimizedAffinity>
-5.49847937

>  <minimizedRMSD>
3.84321547

$$$$
