
 OpenBabel03232519263D

 21 22  0  0  0  0  0  0  0  0999 V2000
   47.3310   33.8440   42.5430 C   0  0  0  0  0  0  0  0  0  0  0  0
   46.9540   32.9440   42.0700 H   0  0  0  0  0  0  0  0  0  0  0  0
   48.2570   33.5290   43.0990 H   0  0  0  0  0  0  0  0  0  0  0  0
   46.1440   33.8400   44.6850 C   0  0  0  0  0  0  0  0  0  0  0  0
   46.3680   34.4380   43.4390 C   0  0  0  0  0  0  0  0  0  0  0  0
   45.6390   35.5820   43.1390 C   0  0  0  0  0  0  0  0  0  0  0  0
   44.7590   36.0470   44.0680 N   0  0  0  0  0  0  0  0  0  0  0  0
   44.5600   35.4570   45.2590 C   0  0  0  0  0  0  0  0  0  0  0  0
   45.2540   34.3490   45.5690 N   0  0  0  0  0  0  0  0  0  0  0  0
   46.6560   32.9380   45.0330 H   0  0  0  0  0  0  0  0  0  0  0  0
   45.7860   36.0690   42.1850 H   0  0  0  0  0  0  0  0  0  0  0  0
   43.8220   36.0070   45.8110 H   0  0  0  0  0  0  0  0  0  0  0  0
   47.7430   34.8890   41.5050 C   0  0  0  0  0  0  0  0  0  0  0  0
   48.7960   35.2030   41.6540 H   0  0  0  0  0  0  0  0  0  0  0  0
   47.1170   35.7790   41.5570 H   0  0  0  0  0  0  0  0  0  0  0  0
   47.6250   34.2290   40.1380 C   0  0  0  0  0  0  0  0  0  0  0  0
   48.5660   34.8950   39.1400 C   0  0  0  0  0  0  0  0  0  0  0  0
   48.2190   34.2850   37.7760 C   0  0  0  0  0  0  0  0  0  0  0  0
   48.6870   32.8520   37.7660 C   0  0  0  0  0  0  0  0  0  0  0  0
   48.9650   32.3310   39.1540 C   0  0  0  0  0  0  0  0  0  0  0  0
   47.9470   32.7710   40.1810 C   0  0  0  0  0  0  0  0  0  0  0  0
  1  3  1  0  0  0  0
  1  5  1  0  0  0  0
  2  1  1  0  0  0  0
  4 10  1  0  0  0  0
  4  9  1  0  0  0  0
  5  4  2  0  0  0  0
  6  5  1  0  0  0  0
  6  7  2  0  0  0  0
  7  8  1  0  0  0  0
  8  9  2  0  0  0  0
  8 12  1  0  0  0  0
 11  6  1  0  0  0  0
 13 15  1  0  0  0  0
 13 14  1  0  0  0  0
 13  1  1  0  0  0  0
 16 21  1  0  0  0  0
 16 13  1  0  0  0  0
 17 16  1  0  0  0  0
 18 17  1  0  0  0  0
 19 18  1  0  0  0  0
 19 20  1  0  0  0  0
 20 21  1  0  0  0  0
M  END
>  <minimizedAffinity>
-4.1531477

>  <minimizedRMSD>
4.41366386

$$$$
