
 OpenBabel03232519193D

 27 28  0  0  1  0  0  0  0  0999 V2000
   45.2090   30.7580   46.6230 N   0  0  0  0  0  0  0  0  0  0  0  0
   45.6290   29.4710   47.1820 C   0  0  0  0  0  0  0  0  0  0  0  0
   46.8550   29.8720   47.9760 C   0  0  0  0  0  0  0  0  0  0  0  0
   46.4810   31.1630   48.6270 C   0  0  0  0  0  0  0  0  0  0  0  0
   45.5000   31.7390   47.5680 C   0  0  2  0  0  0  0  0  0  0  0  0
   44.2000   30.6740   46.3320 H   0  0  0  0  0  0  0  0  0  0  0  0
   45.9600   28.8200   46.3500 H   0  0  0  0  0  0  0  0  0  0  0  0
   44.8450   29.0250   47.8220 H   0  0  0  0  0  0  0  0  0  0  0  0
   47.1400   29.0920   48.7140 H   0  0  0  0  0  0  0  0  0  0  0  0
   47.6890   30.0580   47.2680 H   0  0  0  0  0  0  0  0  0  0  0  0
   47.3550   31.8200   48.7390 H   0  0  0  0  0  0  0  0  0  0  0  0
   45.9540   30.9270   49.5530 H   0  0  0  0  0  0  0  0  0  0  0  0
   44.3540   32.1190   48.4350 N   0  0  0  0  0  0  0  0  0  0  0  0
   44.6550   32.5250   49.3250 H   0  0  0  0  0  0  0  0  0  0  0  0
   43.6610   32.6320   47.8830 H   0  0  0  0  0  0  0  0  0  0  0  0
   45.8730   32.9280   46.9920 O   0  0  0  0  0  0  0  0  0  0  0  0
   46.4190   33.0200   45.6650 C   0  0  0  0  0  0  0  0  0  0  0  0
   47.2540   32.1750   45.2870 O   0  0  0  0  0  0  0  0  0  0  0  0
   44.4690   35.8600   44.4700 C   0  0  0  0  0  0  0  0  0  0  0  0
   44.9760   36.1060   43.2040 C   0  0  0  0  0  0  0  0  0  0  0  0
   46.0180   35.3020   42.7460 C   0  0  0  0  0  0  0  0  0  0  0  0
   46.4720   34.3170   43.5890 N   0  0  0  0  0  0  0  0  0  0  0  0
   45.9290   34.1230   44.8290 C   0  0  0  0  0  0  0  0  0  0  0  0
   44.9400   34.8870   45.2650 N   0  0  0  0  0  0  0  0  0  0  0  0
   43.6550   36.4630   44.8740 H   0  0  0  0  0  0  0  0  0  0  0  0
   44.5750   36.8890   42.6000 H   0  0  0  0  0  0  0  0  0  0  0  0
   46.4590   35.4360   41.7740 H   0  0  0  0  0  0  0  0  0  0  0  0
  1  2  1  0  0  0  0
  1  5  1  0  0  0  0
  2  8  1  0  0  0  0
  2  3  1  0  0  0  0
  3  4  1  0  0  0  0
  3  9  1  0  0  0  0
  4 11  1  0  0  0  0
  4 12  1  0  0  0  0
  5 16  1  6  0  0  0
  5 13  1  0  0  0  0
  5  4  1  0  0  0  0
  6  1  1  0  0  0  0
  7  2  1  0  0  0  0
 10  3  1  0  0  0  0
 13 14  1  0  0  0  0
 15 13  1  0  0  0  0
 17 16  1  0  0  0  0
 18 17  2  0  0  0  0
 19 25  1  0  0  0  0
 19 24  1  0  0  0  0
 20 19  2  0  0  0  0
 21 20  1  0  0  0  0
 21 22  2  0  0  0  0
 22 23  1  0  0  0  0
 23 24  2  0  0  0  0
 23 17  1  0  0  0  0
 26 20  1  0  0  0  0
 27 21  1  0  0  0  0
M  END
>  <minimizedAffinity>
-4.90959215

>  <minimizedRMSD>
0.841087937

$$$$
