
 OpenBabel03232520593D

 38 40  0  0  1  0  0  0  0  0999 V2000
   45.3810   32.8730   47.4990 C   0  0  0  0  0  0  0  0  0  0  0  0
   45.9290   32.6240   46.2840 C   0  0  0  0  0  0  0  0  0  0  0  0
   46.1910   31.2740   46.0290 C   0  0  0  0  0  0  0  0  0  0  0  0
   45.9260   30.2740   46.9060 N   0  0  0  0  0  0  0  0  0  0  0  0
   45.3640   30.5810   48.1370 C   0  0  0  0  0  0  0  0  0  0  0  0
   45.1090   31.8590   48.4000 N   0  0  0  0  0  0  0  0  0  0  0  0
   45.0870   29.5640   49.0830 N   0  0  0  0  0  0  0  0  0  0  0  0
   45.1440   33.8820   47.7990 H   0  0  0  0  0  0  0  0  0  0  0  0
   44.1780   29.1960   49.3970 H   0  0  0  0  0  0  0  0  0  0  0  0
   46.0280   29.2560   49.4050 H   0  0  0  0  0  0  0  0  0  0  0  0
   46.1760   33.5800   45.2600 C   0  0  2  0  0  0  0  0  0  0  0  0
   44.9600   34.6690   45.4950 C   0  0  0  0  0  0  0  0  0  0  0  0
   44.7340   35.6100   44.4340 C   0  0  0  0  0  0  0  0  0  0  0  0
   45.5340   35.5480   43.2100 C   0  0  1  0  0  0  0  0  0  0  0  0
   46.5920   34.5460   43.1560 C   0  0  0  0  0  0  0  0  0  0  0  0
   46.1460   33.3060   43.8950 C   0  0  0  0  0  0  0  0  0  0  0  0
   46.9440   34.3350   45.6060 H   0  0  0  0  0  0  0  0  0  0  0  0
   44.2800   34.8070   46.3270 H   0  0  0  0  0  0  0  0  0  0  0  0
   43.9660   36.3280   44.5470 H   0  0  0  0  0  0  0  0  0  0  0  0
   45.9550   36.5560   43.0200 H   0  0  0  0  0  0  0  0  0  0  0  0
   47.5050   34.9160   43.6560 H   0  0  0  0  0  0  0  0  0  0  0  0
   46.8680   34.3630   42.0970 H   0  0  0  0  0  0  0  0  0  0  0  0
   45.2120   32.8850   43.4690 H   0  0  0  0  0  0  0  0  0  0  0  0
   46.9960   32.6570   43.5540 H   0  0  0  0  0  0  0  0  0  0  0  0
   44.5190   35.2860   42.0560 C   0  0  0  0  0  0  0  0  0  0  0  0
   43.4560   34.4910   42.4470 F   0  0  0  0  0  0  0  0  0  0  0  0
   43.9790   36.5240   41.7220 F   0  0  0  0  0  0  0  0  0  0  0  0
   45.1930   34.8240   40.9420 F   0  0  0  0  0  0  0  0  0  0  0  0
   46.8260   30.5880   44.9160 C   0  0  0  0  0  0  0  0  0  0  0  0
   46.4730   29.9040   43.7980 C   0  0  0  0  0  0  0  0  0  0  0  0
   47.6420   29.4590   43.1690 C   0  0  0  0  0  0  0  0  0  0  0  0
   48.6440   29.8930   43.9330 N   0  0  0  0  0  0  0  0  0  0  0  0
   48.1880   30.5610   44.9670 N   0  0  0  0  0  0  0  0  0  0  0  0
   45.4130   29.8180   43.5850 H   0  0  0  0  0  0  0  0  0  0  0  0
   47.5700   28.8970   42.2660 H   0  0  0  0  0  0  0  0  0  0  0  0
   50.0430   29.6120   43.5820 C   0  0  0  0  0  2  0  0  0  0  0  0
   50.7890   29.0750   44.7920 C   0  0  0  0  0  2  0  0  0  0  0  0
   51.7500   29.6150   44.9340 H   0  0  0  0  0  0  0  0  0  0  0  0
  1  8  1  0  0  0  0
  1  6  1  0  0  0  0
  2  1  2  0  0  0  0
  3  2  1  0  0  0  0
  3  4  2  0  0  0  0
  4  5  1  0  0  0  0
  5  6  2  0  0  0  0
  5  7  1  0  0  0  0
  7  9  1  0  0  0  0
  7 10  1  0  0  0  0
 11 12  1  0  0  0  0
 11 17  1  1  0  0  0
 11  2  1  0  0  0  0
 12 18  1  0  0  0  0
 13 19  1  0  0  0  0
 13 12  2  0  0  0  0
 14 20  1  6  0  0  0
 14 13  1  0  0  0  0
 15 14  1  0  0  0  0
 15 21  1  0  0  0  0
 15 16  1  0  0  0  0
 16 11  1  0  0  0  0
 22 15  1  0  0  0  0
 23 16  1  0  0  0  0
 24 16  1  0  0  0  0
 25 26  1  0  0  0  0
 25 14  1  0  0  0  0
 27 25  1  0  0  0  0
 28 25  1  0  0  0  0
 29 33  2  0  0  0  0
 29  3  1  0  0  0  0
 30 29  1  0  0  0  0
 31 30  2  0  0  0  0
 31 32  1  0  0  0  0
 32 33  1  0  0  0  0
 34 30  1  0  0  0  0
 35 31  1  0  0  0  0
 36 32  1  0  0  0  0
 36 37  1  0  0  0  0
 37 38  1  0  0  0  0
M  END
>  <minimizedAffinity>
-5.48191118

>  <minimizedRMSD>
0.11003951

$$$$
