
 OpenBabel03232520593D

 38 40  0  0  1  0  0  0  0  0999 V2000
   45.3940   32.8800   47.5040 C   0  0  0  0  0  0  0  0  0  0  0  0
   45.9280   32.6300   46.2820 C   0  0  0  0  0  0  0  0  0  0  0  0
   46.1750   31.2790   46.0200 C   0  0  0  0  0  0  0  0  0  0  0  0
   45.9100   30.2790   46.8970 N   0  0  0  0  0  0  0  0  0  0  0  0
   45.3630   30.5860   48.1350 C   0  0  0  0  0  0  0  0  0  0  0  0
   45.1220   31.8660   48.4040 N   0  0  0  0  0  0  0  0  0  0  0  0
   45.0870   29.5690   49.0800 N   0  0  0  0  0  0  0  0  0  0  0  0
   45.1680   33.8900   47.8090 H   0  0  0  0  0  0  0  0  0  0  0  0
   44.1780   29.2090   49.4020 H   0  0  0  0  0  0  0  0  0  0  0  0
   46.0280   29.2520   49.3920 H   0  0  0  0  0  0  0  0  0  0  0  0
   46.1720   33.5880   45.2580 C   0  0  2  0  0  0  0  0  0  0  0  0
   44.9530   34.6740   45.4940 C   0  0  0  0  0  0  0  0  0  0  0  0
   44.7260   35.6140   44.4320 C   0  0  0  0  0  0  0  0  0  0  0  0
   45.5260   35.5550   43.2090 C   0  0  1  0  0  0  0  0  0  0  0  0
   46.5860   34.5560   43.1550 C   0  0  0  0  0  0  0  0  0  0  0  0
   46.1440   33.3140   43.8930 C   0  0  0  0  0  0  0  0  0  0  0  0
   46.9380   34.3440   45.6050 H   0  0  0  0  0  0  0  0  0  0  0  0
   44.2730   34.8100   46.3250 H   0  0  0  0  0  0  0  0  0  0  0  0
   43.9560   36.3300   44.5450 H   0  0  0  0  0  0  0  0  0  0  0  0
   45.9450   36.5640   43.0190 H   0  0  0  0  0  0  0  0  0  0  0  0
   47.4990   34.9270   43.6560 H   0  0  0  0  0  0  0  0  0  0  0  0
   46.8630   34.3730   42.0960 H   0  0  0  0  0  0  0  0  0  0  0  0
   45.2100   32.8910   43.4670 H   0  0  0  0  0  0  0  0  0  0  0  0
   46.9950   32.6670   43.5520 H   0  0  0  0  0  0  0  0  0  0  0  0
   44.5120   35.2910   42.0550 C   0  0  0  0  0  0  0  0  0  0  0  0
   43.4490   34.4950   42.4460 F   0  0  0  0  0  0  0  0  0  0  0  0
   43.9710   36.5270   41.7190 F   0  0  0  0  0  0  0  0  0  0  0  0
   45.1880   34.8280   40.9410 F   0  0  0  0  0  0  0  0  0  0  0  0
   46.7920   30.5910   44.8990 C   0  0  0  0  0  0  0  0  0  0  0  0
   46.4240   29.8630   43.8140 C   0  0  0  0  0  0  0  0  0  0  0  0
   47.5840   29.4510   43.1480 C   0  0  0  0  0  0  0  0  0  0  0  0
   48.5970   29.9480   43.8580 N   0  0  0  0  0  0  0  0  0  0  0  0
   48.1560   30.6230   44.8920 N   0  0  0  0  0  0  0  0  0  0  0  0
   45.3610   29.7260   43.6490 H   0  0  0  0  0  0  0  0  0  0  0  0
   47.4990   28.8630   42.2630 H   0  0  0  0  0  0  0  0  0  0  0  0
   49.9910   29.7170   43.4540 C   0  0  0  0  0  2  0  0  0  0  0  0
   50.7880   29.1550   44.6180 C   0  0  0  0  0  2  0  0  0  0  0  0
   51.7390   29.7150   44.7520 H   0  0  0  0  0  0  0  0  0  0  0  0
  1  8  1  0  0  0  0
  1  6  1  0  0  0  0
  2  1  2  0  0  0  0
  3  2  1  0  0  0  0
  3  4  2  0  0  0  0
  4  5  1  0  0  0  0
  5  6  2  0  0  0  0
  5  7  1  0  0  0  0
  7 10  1  0  0  0  0
  7  9  1  0  0  0  0
 11 12  1  0  0  0  0
 11 17  1  1  0  0  0
 11  2  1  0  0  0  0
 12 18  1  0  0  0  0
 13 19  1  0  0  0  0
 13 12  2  0  0  0  0
 14 20  1  6  0  0  0
 14 13  1  0  0  0  0
 15 14  1  0  0  0  0
 15 21  1  0  0  0  0
 15 16  1  0  0  0  0
 16 11  1  0  0  0  0
 22 15  1  0  0  0  0
 23 16  1  0  0  0  0
 24 16  1  0  0  0  0
 25 26  1  0  0  0  0
 25 14  1  0  0  0  0
 27 25  1  0  0  0  0
 28 25  1  0  0  0  0
 29  3  1  0  0  0  0
 30 29  1  0  0  0  0
 31 30  2  0  0  0  0
 31 32  1  0  0  0  0
 32 33  1  0  0  0  0
 33 29  2  0  0  0  0
 34 30  1  0  0  0  0
 35 31  1  0  0  0  0
 36 32  1  0  0  0  0
 36 37  1  0  0  0  0
 37 38  1  0  0  0  0
M  END
>  <minimizedAffinity>
-5.49062395

>  <minimizedRMSD>
0.294088125

$$$$
