
 OpenBabel03232518093D

 26 27  0  0  0  0  0  0  0  0999 V2000
   47.0560   35.0280   41.8440 C   0  0  0  0  0  0  0  0  0  0  0  0
   46.3540   34.3010   40.8650 C   0  0  0  0  0  0  0  0  0  0  0  0
   44.9810   34.1870   40.9810 C   0  0  0  0  0  0  0  0  0  0  0  0
   44.3690   34.7880   42.0420 N   0  0  0  0  0  0  0  0  0  0  0  0
   45.0800   35.4770   42.9610 C   0  0  0  0  0  0  0  0  0  0  0  0
   46.4040   35.5980   42.8660 N   0  0  0  0  0  0  0  0  0  0  0  0
   46.8200   33.8120   40.0090 H   0  0  0  0  0  0  0  0  0  0  0  0
   44.5430   35.9370   43.7870 H   0  0  0  0  0  0  0  0  0  0  0  0
   48.5180   35.0590   41.5810 C   0  0  0  0  0  0  0  0  0  0  0  0
   48.7870   35.6050   40.6660 H   0  0  0  0  0  0  0  0  0  0  0  0
   48.9550   35.5580   42.4950 H   0  0  0  0  0  0  0  0  0  0  0  0
   49.0980   33.6670   41.5850 C   0  0  0  0  0  0  0  0  0  0  0  0
   48.5740   33.0590   42.3500 H   0  0  0  0  0  0  0  0  0  0  0  0
   49.0460   33.1900   40.5920 H   0  0  0  0  0  0  0  0  0  0  0  0
   50.1630   33.7380   41.9110 H   0  0  0  0  0  0  0  0  0  0  0  0
   43.9940   33.3040   39.8230 S   0  0  0  0  0  0  0  0  0  0  0  0
   42.5630   34.2310   39.2910 C   0  0  0  0  0  0  0  0  0  0  0  0
   42.2590   35.3410   38.5140 C   0  0  0  0  0  0  0  0  0  0  0  0
   40.8810   35.4670   38.5620 C   0  0  0  0  0  0  0  0  0  0  0  0
   40.3740   34.4850   39.3310 N   0  0  0  0  0  0  0  0  0  0  0  0
   41.3810   33.7490   39.7630 N   0  0  0  0  0  0  0  0  0  0  0  0
   43.1270   35.8140   38.0790 H   0  0  0  0  0  0  0  0  0  0  0  0
   40.4600   36.2960   38.0020 H   0  0  0  0  0  0  0  0  0  0  0  0
   38.9470   34.3640   39.5650 C   0  0  0  0  0  0  0  0  0  0  0  0
   38.2380   33.4950   38.5850 C   0  0  0  0  0  0  0  0  0  0  0  0
   37.9090   34.0420   37.6770 H   0  0  0  0  0  0  0  0  0  0  0  0
  1  6  1  0  0  0  0
  2  3  1  0  0  0  0
  2  1  2  0  0  0  0
  3  4  2  0  0  0  0
  4  5  1  0  0  0  0
  5  8  1  0  0  0  0
  6  5  2  0  0  0  0
  7  2  1  0  0  0  0
  9 12  1  0  0  0  0
  9  1  1  0  0  0  0
  9 11  1  0  0  0  0
 10  9  1  0  0  0  0
 12 15  1  0  0  0  0
 12 13  1  0  0  0  0
 14 12  1  0  0  0  0
 16  3  1  0  0  0  0
 17 21  2  0  0  0  0
 17 16  1  0  0  0  0
 18 19  2  0  0  0  0
 18 17  1  0  0  0  0
 19 20  1  0  0  0  0
 20 24  1  0  0  0  0
 20 21  1  0  0  0  0
 22 18  1  0  0  0  0
 23 19  1  0  0  0  0
 25 24  1  0  0  0  0
 26 25  1  0  0  0  0
M  END
>  <minimizedAffinity>
-4.3120203

>  <minimizedRMSD>
7.07573891

$$$$
