
 OpenBabel03232519043D

 39 39  0  0  1  0  0  0  0  0999 V2000
   44.4330   35.8690   44.6630 C   0  0  0  0  0  0  0  0  0  0  0  0
   44.4180   35.6660   43.2790 C   0  0  0  0  0  0  0  0  0  0  0  0
   45.3080   34.6550   42.8400 C   0  0  0  0  0  0  0  0  0  0  0  0
   45.4140   33.6250   43.7230 N   0  0  0  0  0  0  0  0  0  0  0  0
   45.4760   33.8560   45.0280 C   0  0  0  0  0  0  0  0  0  0  0  0
   44.9630   35.0040   45.5280 N   0  0  0  0  0  0  0  0  0  0  0  0
   46.0300   32.9210   45.8760 N   0  0  0  0  0  0  0  0  0  0  0  0
   45.4720   32.8970   47.2510 C   0  0  0  0  0  0  0  0  0  0  0  0
   46.3100   32.0800   48.2020 C   0  0  0  0  0  0  0  0  0  0  0  0
   47.5120   31.6510   47.6790 O   0  0  0  0  0  0  0  0  0  0  0  0
   47.2600   30.9760   46.5090 C   0  0  0  0  0  0  0  0  0  0  0  0
   47.1030   32.0810   45.4740 C   0  0  1  0  0  0  0  0  0  0  0  0
   43.8580   36.5980   45.2460 H   0  0  0  0  0  0  0  0  0  0  0  0
   43.7100   36.3360   42.7920 H   0  0  0  0  0  0  0  0  0  0  0  0
   46.3170   35.2880   42.8810 H   0  0  0  0  0  0  0  0  0  0  0  0
   45.2290   34.6050   41.7310 H   0  0  0  0  0  0  0  0  0  0  0  0
   45.3710   33.5060   42.8500 H   0  0  0  0  0  0  0  0  0  0  0  0
   45.2880   33.9350   47.5860 H   0  0  0  0  0  0  0  0  0  0  0  0
   44.4850   32.4050   47.1540 H   0  0  0  0  0  0  0  0  0  0  0  0
   45.7290   31.2530   48.6240 H   0  0  0  0  0  0  0  0  0  0  0  0
   46.5660   32.7810   49.0230 H   0  0  0  0  0  0  0  0  0  0  0  0
   46.2850   30.4390   46.5430 H   0  0  0  0  0  0  0  0  0  0  0  0
   48.0320   30.2390   46.2200 H   0  0  0  0  0  0  0  0  0  0  0  0
   48.0440   32.7080   45.5800 H   0  0  0  0  0  0  0  0  0  0  0  0
   46.8160   31.7390   44.1650 N   0  0  1  0  0  0  0  0  0  0  0  0
   45.5440   31.3000   43.9130 C   0  0  0  0  0  0  0  0  0  0  0  0
   45.4800   31.0160   42.4330 C   0  0  0  0  0  0  0  0  0  0  0  0
   46.7310   31.7320   41.8940 C   0  0  0  0  0  0  0  0  0  0  0  0
   47.2610   32.4530   43.1120 C   0  0  2  0  0  0  0  0  0  0  0  0
   44.6710   31.2040   44.5390 H   0  0  0  0  0  0  0  0  0  0  0  0
   45.8420   30.2620   44.2360 H   0  0  0  0  0  0  0  0  0  0  0  0
   45.4520   29.9690   42.1110 H   0  0  0  0  0  0  0  0  0  0  0  0
   44.5960   31.4810   41.9470 H   0  0  0  0  0  0  0  0  0  0  0  0
   46.4550   32.4390   41.0550 H   0  0  0  0  0  0  0  0  0  0  0  0
   47.3250   30.9660   41.4290 H   0  0  0  0  0  0  0  0  0  0  0  0
   47.8580   33.3390   42.9870 H   0  0  0  0  0  0  0  0  0  0  0  0
   48.5850   31.7230   43.2150 N   0  0  0  0  0  0  0  0  0  0  0  0
   48.7660   31.2770   42.3260 H   0  0  0  0  0  0  0  0  0  0  0  0
   49.2910   32.2490   43.7010 H   0  0  0  0  0  0  0  0  0  0  0  0
  1 13  1  0  0  0  0
  1  6  2  0  0  0  0
  2  1  1  0  0  0  0
  3 15  1  0  0  0  0
  4  5  2  0  0  0  0
  5  6  1  0  0  0  0
  5  7  1  0  0  0  0
  7  8  1  0  0  0  0
  8 18  1  0  0  0  0
  8  9  1  0  0  0  0
  9 20  1  0  0  0  0
  9 21  1  0  0  0  0
 10  9  1  0  0  0  0
 11 22  1  0  0  0  0
 11 10  1  0  0  0  0
 12 24  1  1  0  0  0
 12  7  1  0  0  0  0
 12 11  1  0  0  0  0
 14  2  1  0  0  0  0
 16  3  1  0  0  0  0
 17  4  1  0  0  0  0
 19  8  1  0  0  0  0
 23 11  1  0  0  0  0
 25 26  1  1  0  0  0
 25 12  1  0  0  0  0
 26 31  1  0  0  0  0
 26 30  1  0  0  0  0
 27 26  1  0  0  0  0
 28 27  1  0  0  0  0
 28 29  1  0  0  0  0
 29 36  1  1  0  0  0
 29 37  1  0  0  0  0
 29 25  1  0  0  0  0
 32 27  1  0  0  0  0
 33 27  1  0  0  0  0
 34 28  1  0  0  0  0
 35 28  1  0  0  0  0
 37 39  1  0  0  0  0
 38 37  1  0  0  0  0
M  END
>  <minimizedAffinity>
-4.49564171

>  <minimizedRMSD>
0.750723898

$$$$
