
 OpenBabel03232520593D

 38 40  0  0  1  0  0  0  0  0999 V2000
   45.3970   32.8860   47.5090 C   0  0  0  0  0  0  0  0  0  0  0  0
   45.9280   32.6330   46.2880 C   0  0  0  0  0  0  0  0  0  0  0  0
   46.1720   31.2800   46.0260 C   0  0  0  0  0  0  0  0  0  0  0  0
   45.9060   30.2820   46.9050 N   0  0  0  0  0  0  0  0  0  0  0  0
   45.3620   30.5920   48.1440 C   0  0  0  0  0  0  0  0  0  0  0  0
   45.1250   31.8730   48.4110 N   0  0  0  0  0  0  0  0  0  0  0  0
   45.0860   29.5770   49.0910 N   0  0  0  0  0  0  0  0  0  0  0  0
   45.1750   33.8960   47.8140 H   0  0  0  0  0  0  0  0  0  0  0  0
   44.1770   29.2190   49.4150 H   0  0  0  0  0  0  0  0  0  0  0  0
   46.0270   29.2580   49.4010 H   0  0  0  0  0  0  0  0  0  0  0  0
   46.1730   33.5890   45.2620 C   0  0  2  0  0  0  0  0  0  0  0  0
   44.9530   34.6730   45.4930 C   0  0  0  0  0  0  0  0  0  0  0  0
   44.7250   35.6110   44.4290 C   0  0  0  0  0  0  0  0  0  0  0  0
   45.5270   35.5500   43.2070 C   0  0  1  0  0  0  0  0  0  0  0  0
   46.5890   34.5530   43.1580 C   0  0  0  0  0  0  0  0  0  0  0  0
   46.1470   33.3120   43.8970 C   0  0  0  0  0  0  0  0  0  0  0  0
   46.9380   34.3470   45.6090 H   0  0  0  0  0  0  0  0  0  0  0  0
   44.2700   34.8100   46.3230 H   0  0  0  0  0  0  0  0  0  0  0  0
   43.9540   36.3260   44.5400 H   0  0  0  0  0  0  0  0  0  0  0  0
   45.9450   36.5600   43.0160 H   0  0  0  0  0  0  0  0  0  0  0  0
   47.5000   34.9260   43.6590 H   0  0  0  0  0  0  0  0  0  0  0  0
   46.8680   34.3690   42.0990 H   0  0  0  0  0  0  0  0  0  0  0  0
   45.2150   32.8860   43.4700 H   0  0  0  0  0  0  0  0  0  0  0  0
   47.0000   32.6660   43.5590 H   0  0  0  0  0  0  0  0  0  0  0  0
   44.5160   35.2830   42.0520 C   0  0  0  0  0  0  0  0  0  0  0  0
   43.4590   34.4780   42.4400 F   0  0  0  0  0  0  0  0  0  0  0  0
   43.9660   36.5160   41.7200 F   0  0  0  0  0  0  0  0  0  0  0  0
   45.1950   34.8280   40.9380 F   0  0  0  0  0  0  0  0  0  0  0  0
   46.7860   30.5900   44.9050 C   0  0  0  0  0  0  0  0  0  0  0  0
   46.4150   29.8570   43.8250 C   0  0  0  0  0  0  0  0  0  0  0  0
   47.5720   29.4460   43.1550 C   0  0  0  0  0  0  0  0  0  0  0  0
   48.5870   29.9480   43.8580 N   0  0  0  0  0  0  0  0  0  0  0  0
   48.1490   30.6250   44.8920 N   0  0  0  0  0  0  0  0  0  0  0  0
   45.3510   29.7170   43.6650 H   0  0  0  0  0  0  0  0  0  0  0  0
   47.4850   28.8540   42.2720 H   0  0  0  0  0  0  0  0  0  0  0  0
   49.9800   29.7190   43.4490 C   0  0  0  0  0  2  0  0  0  0  0  0
   50.4970   30.9080   42.6570 C   0  0  0  0  0  2  0  0  0  0  0  0
   50.9870   30.5730   41.7180 H   0  0  0  0  0  0  0  0  0  0  0  0
  1  8  1  0  0  0  0
  1  6  1  0  0  0  0
  2  1  2  0  0  0  0
  3  2  1  0  0  0  0
  3  4  2  0  0  0  0
  4  5  1  0  0  0  0
  5  6  2  0  0  0  0
  5  7  1  0  0  0  0
  7 10  1  0  0  0  0
  7  9  1  0  0  0  0
 11 12  1  0  0  0  0
 11 17  1  1  0  0  0
 11  2  1  0  0  0  0
 12 18  1  0  0  0  0
 13 19  1  0  0  0  0
 13 12  2  0  0  0  0
 14 20  1  6  0  0  0
 14 13  1  0  0  0  0
 15 14  1  0  0  0  0
 15 21  1  0  0  0  0
 15 16  1  0  0  0  0
 16 11  1  0  0  0  0
 22 15  1  0  0  0  0
 23 16  1  0  0  0  0
 24 16  1  0  0  0  0
 25 26  1  0  0  0  0
 25 14  1  0  0  0  0
 27 25  1  0  0  0  0
 28 25  1  0  0  0  0
 29  3  1  0  0  0  0
 30 29  1  0  0  0  0
 31 30  2  0  0  0  0
 31 32  1  0  0  0  0
 32 33  1  0  0  0  0
 33 29  2  0  0  0  0
 34 30  1  0  0  0  0
 35 31  1  0  0  0  0
 36 32  1  0  0  0  0
 37 36  1  0  0  0  0
 38 37  1  0  0  0  0
M  END
>  <minimizedAffinity>
-5.53433275

>  <minimizedRMSD>
0.124540977

$$$$
