
 OpenBabel03232520383D

 22 24  0  0  0  0  0  0  0  0999 V2000
   46.3960   32.1400   46.5880 C   0  0  0  0  0  0  0  0  0  0  0  0
   46.8560   32.5820   47.7780 N   0  0  0  0  0  0  0  0  0  0  0  0
   46.7790   31.9180   48.9270 C   0  0  0  0  0  0  0  0  0  0  0  0
   46.2160   30.7100   48.9940 N   0  0  0  0  0  0  0  0  0  0  0  0
   45.7200   30.1660   47.8650 C   0  0  0  0  0  0  0  0  0  0  0  0
   45.1410   28.9190   47.9490 C   0  0  0  0  0  0  0  0  0  0  0  0
   44.6180   28.3160   46.8240 C   0  0  0  0  0  0  0  0  0  0  0  0
   44.1890   27.3490   46.9780 H   0  0  0  0  0  0  0  0  0  0  0  0
   44.7040   29.0200   45.6240 C   0  0  0  0  0  0  0  0  0  0  0  0
   44.2810   28.5050   44.7830 H   0  0  0  0  0  0  0  0  0  0  0  0
   45.2940   30.2580   45.6170 C   0  0  0  0  0  0  0  0  0  0  0  0
   45.8260   30.8950   46.7030 C   0  0  0  0  0  0  0  0  0  0  0  0
   47.8620   32.9670   43.4280 C   0  0  0  0  0  0  0  0  0  0  0  0
   47.0550   33.9840   42.8900 C   0  0  0  0  0  0  0  0  0  0  0  0
   45.9600   34.4250   43.6110 C   0  0  0  0  0  0  0  0  0  0  0  0
   45.7200   33.8470   44.8150 N   0  0  0  0  0  0  0  0  0  0  0  0
   46.4870   32.8880   45.3140 C   0  0  0  0  0  0  0  0  0  0  0  0
   47.5350   32.4660   44.6220 N   0  0  0  0  0  0  0  0  0  0  0  0
   48.6920   32.6760   42.8140 H   0  0  0  0  0  0  0  0  0  0  0  0
   45.2980   35.1830   43.2880 H   0  0  0  0  0  0  0  0  0  0  0  0
   47.4150   34.7170   41.2920 S   0  0  0  0  0  0  0  0  0  0  0  0
   48.7760   35.1130   41.2930 H   0  0  0  0  0  0  0  0  0  0  0  0
  1 12  2  0  0  0  0
  1  2  1  0  0  0  0
  2  3  2  0  0  0  0
  3  4  1  0  0  0  0
  5  6  1  0  0  0  0
  5  4  2  0  0  0  0
  7  8  1  0  0  0  0
  7  6  2  0  0  0  0
  9  7  1  0  0  0  0
 10  9  1  0  0  0  0
 11  9  2  0  0  0  0
 11 12  1  0  0  0  0
 12  5  1  0  0  0  0
 13 18  1  0  0  0  0
 14 13  2  0  0  0  0
 14 15  1  0  0  0  0
 15 16  2  0  0  0  0
 16 17  1  0  0  0  0
 17  1  1  0  0  0  0
 18 17  2  0  0  0  0
 19 13  1  0  0  0  0
 20 15  1  0  0  0  0
 21 22  1  0  0  0  0
 21 14  1  0  0  0  0
M  END
>  <minimizedAffinity>
-4.27172947

>  <minimizedRMSD>
3.02109528

$$$$
