
 OpenBabel03232520573D

 40 43  0  0  1  0  0  0  0  0999 V2000
   45.3760   32.8760   47.5300 C   0  0  0  0  0  0  0  0  0  0  0  0
   45.9140   32.6100   46.2680 C   0  0  0  0  0  0  0  0  0  0  0  0
   46.1470   31.2860   46.0170 C   0  0  0  0  0  0  0  0  0  0  0  0
   45.8450   30.3520   46.9530 N   0  0  0  0  0  0  0  0  0  0  0  0
   45.3260   30.6280   48.1630 C   0  0  0  0  0  0  0  0  0  0  0  0
   45.0910   31.8970   48.4540 N   0  0  0  0  0  0  0  0  0  0  0  0
   45.0910   29.5770   49.0930 N   0  0  0  0  0  0  0  0  0  0  0  0
   45.1590   33.8610   47.8500 H   0  0  0  0  0  0  0  0  0  0  0  0
   44.2200   29.5670   49.6570 H   0  0  0  0  0  0  0  0  0  0  0  0
   45.8200   28.8280   49.1850 H   0  0  0  0  0  0  0  0  0  0  0  0
   46.1150   33.5920   45.2530 C   0  0  2  0  0  0  0  0  0  0  0  0
   44.9830   34.7010   45.4930 C   0  0  0  0  0  0  0  0  0  0  0  0
   44.7280   35.6270   44.4260 C   0  0  0  0  0  0  0  0  0  0  0  0
   45.4780   35.5370   43.1770 C   0  0  1  0  0  0  0  0  0  0  0  0
   46.5440   34.5340   43.1290 C   0  0  0  0  0  0  0  0  0  0  0  0
   46.0480   33.2840   43.8710 C   0  0  0  0  0  0  0  0  0  0  0  0
   46.9570   34.2810   45.5470 H   0  0  0  0  0  0  0  0  0  0  0  0
   44.3210   34.9360   46.3190 H   0  0  0  0  0  0  0  0  0  0  0  0
   43.9750   36.3880   44.5450 H   0  0  0  0  0  0  0  0  0  0  0  0
   45.8880   36.5460   42.9590 H   0  0  0  0  0  0  0  0  0  0  0  0
   47.4350   34.9080   43.6900 H   0  0  0  0  0  0  0  0  0  0  0  0
   46.8620   34.3430   42.1080 H   0  0  0  0  0  0  0  0  0  0  0  0
   44.8810   33.3340   43.5930 H   0  0  0  0  0  0  0  0  0  0  0  0
   46.3260   32.5130   43.2460 H   0  0  0  0  0  0  0  0  0  0  0  0
   44.4610   35.2700   42.0410 C   0  0  0  0  0  0  0  0  0  0  0  0
   43.4140   34.4700   42.4280 F   0  0  0  0  0  0  0  0  0  0  0  0
   43.9120   36.5110   41.7090 F   0  0  0  0  0  0  0  0  0  0  0  0
   45.1170   34.7950   40.9190 F   0  0  0  0  0  0  0  0  0  0  0  0
   46.8720   30.6450   44.8990 C   0  0  0  0  0  0  0  0  0  0  0  0
   48.1510   30.6270   44.6610 N   0  0  0  0  0  0  0  0  0  0  0  0
   48.8550   30.1280   43.6810 C   0  0  0  0  0  3  0  0  0  0  0  0
   48.1730   29.5040   42.7080 N   0  0  0  0  0  0  0  0  0  0  0  0
   46.8230   29.4220   42.7830 C   0  0  0  0  0  0  0  0  0  0  0  0
   46.2170   28.7980   41.7330 C   0  0  0  0  0  3  0  0  0  0  0  0
   44.8460   28.7100   41.7210 C   0  0  0  0  0  0  0  0  0  0  0  0
   44.3950   28.2110   40.8770 H   0  0  0  0  0  0  0  0  0  0  0  0
   44.1470   29.2700   42.7890 C   0  0  0  0  0  0  0  0  0  0  0  0
   43.0780   29.1540   42.6920 H   0  0  0  0  0  0  0  0  0  0  0  0
   44.8620   29.8760   43.7970 C   0  0  0  0  0  3  0  0  0  0  0  0
   46.2220   29.9960   43.8740 C   0  0  0  0  0  0  0  0  0  0  0  0
  1  8  1  0  0  0  0
  1  6  1  0  0  0  0
  2  1  2  0  0  0  0
  3  2  1  0  0  0  0
  3  4  2  0  0  0  0
  4  5  1  0  0  0  0
  5  6  2  0  0  0  0
  5  7  1  0  0  0  0
  7 10  1  0  0  0  0
  7  9  1  0  0  0  0
 11 12  1  0  0  0  0
 11 17  1  1  0  0  0
 11  2  1  0  0  0  0
 12 18  1  0  0  0  0
 13 19  1  0  0  0  0
 13 12  2  0  0  0  0
 14 20  1  6  0  0  0
 14 13  1  0  0  0  0
 15 14  1  0  0  0  0
 15 21  1  0  0  0  0
 15 16  1  0  0  0  0
 16 11  1  0  0  0  0
 22 15  1  0  0  0  0
 23 16  1  0  0  0  0
 24 16  1  0  0  0  0
 25 26  1  0  0  0  0
 25 14  1  0  0  0  0
 27 25  1  0  0  0  0
 28 25  1  0  0  0  0
 29  3  1  0  0  0  0
 30 29  1  0  0  0  0
 31 30  2  0  0  0  0
 32 33  2  0  0  0  0
 32 31  1  0  0  0  0
 33 40  1  0  0  0  0
 34 33  1  0  0  0  0
 35 34  2  0  0  0  0
 35 37  1  0  0  0  0
 36 35  1  0  0  0  0
 37 39  2  0  0  0  0
 38 37  1  0  0  0  0
 39 40  1  0  0  0  0
 40 29  2  0  0  0  0
M  END
>  <minimizedAffinity>
-5.80449009

>  <minimizedRMSD>
1.1533277

$$$$
