
 OpenBabel03232519103D

 41 43  0  0  1  0  0  0  0  0999 V2000
   45.4400   31.8930   42.6040 C   0  0  0  0  0  0  0  0  0  0  0  0
   46.7160   32.1610   46.0360 C   0  0  0  0  0  0  0  0  0  0  0  0
   46.2030   33.3840   46.3690 C   0  0  0  0  0  0  0  0  0  0  0  0
   45.3320   33.8610   44.8920 S   0  0  0  0  0  0  0  0  0  0  0  0
   45.8110   32.2660   43.9950 C   0  0  0  0  0  0  0  0  0  0  0  0
   46.4190   31.7940   44.8510 N   0  0  0  0  0  0  0  0  0  0  0  0
   46.2900   33.9640   47.3170 H   0  0  0  0  0  0  0  0  0  0  0  0
   48.5610   31.0860   49.1730 C   0  0  0  0  0  0  0  0  0  0  0  0
   47.7990   31.8540   48.2990 C   0  0  0  0  0  0  0  0  0  0  0  0
   47.5160   31.3990   47.0050 C   0  0  0  0  0  0  0  0  0  0  0  0
   48.0440   30.1950   46.7270 N   0  0  0  0  0  0  0  0  0  0  0  0
   48.7750   29.4380   47.5380 C   0  0  0  0  0  0  0  0  0  0  0  0
   49.0200   29.9020   48.7510 N   0  0  0  0  0  0  0  0  0  0  0  0
   48.7530   31.4820   50.1620 H   0  0  0  0  0  0  0  0  0  0  0  0
   47.3990   32.8210   48.5790 H   0  0  0  0  0  0  0  0  0  0  0  0
   49.1080   28.4960   47.1260 H   0  0  0  0  0  0  0  0  0  0  0  0
   43.9370   31.9940   42.5000 C   0  0  0  0  0  0  0  0  0  0  0  0
   43.5820   30.9070   42.6490 H   0  0  0  0  0  0  0  0  0  0  0  0
   43.5630   32.2260   41.4960 H   0  0  0  0  0  0  0  0  0  0  0  0
   43.4580   32.5110   43.3460 H   0  0  0  0  0  0  0  0  0  0  0  0
   45.8650   30.4700   42.4040 C   0  0  0  0  0  0  0  0  0  0  0  0
   44.9910   29.7950   42.3990 H   0  0  0  0  0  0  0  0  0  0  0  0
   46.3550   30.3930   41.4070 H   0  0  0  0  0  0  0  0  0  0  0  0
   46.6130   30.1600   43.1380 H   0  0  0  0  0  0  0  0  0  0  0  0
   46.1070   32.8030   41.6350 C   0  0  2  0  0  0  0  0  0  0  0  0
   45.8910   32.3030   40.6630 H   0  0  0  0  0  0  0  0  0  0  0  0
   47.5080   32.8770   41.8400 N   0  0  0  0  0  0  0  0  0  0  0  0
   48.7190   33.3000   42.4370 C   0  0  0  0  0  0  0  0  0  0  0  0
   49.9680   33.3930   42.5660 O   0  0  0  0  0  0  0  0  0  0  0  0
   48.4520   34.1140   43.6010 N   0  0  0  0  0  0  0  0  0  0  0  0
   48.2910   35.1330   43.5100 H   0  0  0  0  0  0  0  0  0  0  0  0
   48.4100   33.7060   44.5820 H   0  0  0  0  0  0  0  0  0  0  0  0
   48.3860   32.1550   40.8700 C   0  0  0  0  0  0  0  0  0  0  0  0
   47.4690   31.7010   39.8910 F   0  0  0  0  0  0  0  0  0  0  0  0
   49.0630   31.1840   41.3830 F   0  0  0  0  0  0  0  0  0  0  0  0
   49.1560   33.1090   40.2050 F   0  0  0  0  0  0  0  0  0  0  0  0
   45.4570   34.1510   41.3770 C   0  0  0  0  0  0  0  0  0  0  0  0
   43.9590   34.0770   41.2700 C   0  0  0  0  0  0  0  0  0  0  0  0
   43.5750   35.5440   41.2390 C   0  0  0  0  0  0  0  0  0  0  0  0
   44.5860   36.2030   42.1080 C   0  0  0  0  0  0  0  0  0  0  0  0
   45.5770   35.1190   42.5270 C   0  0  0  0  0  0  0  0  0  0  0  0
  1  5  1  0  0  0  0
  2  3  2  0  0  0  0
  2 10  1  0  0  0  0
  3  7  1  0  0  0  0
  4  3  1  0  0  0  0
  5  6  2  0  0  0  0
  5  4  1  0  0  0  0
  6  2  1  0  0  0  0
  8 14  1  0  0  0  0
  9 15  1  0  0  0  0
  9  8  2  0  0  0  0
 10  9  1  0  0  0  0
 11 10  2  0  0  0  0
 11 12  1  0  0  0  0
 12 13  2  0  0  0  0
 13  8  1  0  0  0  0
 16 12  1  0  0  0  0
 17  1  1  0  0  0  0
 17 18  1  0  0  0  0
 17 20  1  0  0  0  0
 19 17  1  0  0  0  0
 21  1  1  0  0  0  0
 21 24  1  0  0  0  0
 22 21  1  0  0  0  0
 23 21  1  0  0  0  0
 25 26  1  6  0  0  0
 25 27  1  0  0  0  0
 25  1  1  0  0  0  0
 27 28  1  0  0  0  0
 28 29  2  0  0  0  0
 28 30  1  0  0  0  0
 30 32  1  0  0  0  0
 31 30  1  0  0  0  0
 33 35  1  0  0  0  0
 33 27  1  0  0  0  0
 34 33  1  0  0  0  0
 36 33  1  0  0  0  0
 37 25  1  0  0  0  0
 37 41  1  0  0  0  0
 38 37  1  0  0  0  0
 39 38  1  0  0  0  0
 39 40  1  0  0  0  0
 40 41  1  0  0  0  0
M  END
>  <minimizedAffinity>
-4.9667716

>  <minimizedRMSD>
1.86885679

$$$$
