
 OpenBabel03232517043D

 23 24  0  0  1  0  0  0  0  0999 V2000
   44.4430   34.9640   42.3820 C   0  0  1  0  0  0  0  0  0  0  0  0
   44.0440   33.9340   42.5870 H   0  0  0  0  0  0  0  0  0  0  0  0
   45.8200   34.8150   41.8360 C   0  0  0  0  0  0  0  0  0  0  0  0
   45.9280   34.1080   40.6240 C   0  0  0  0  0  0  0  0  0  0  0  0
   47.1830   33.9280   40.0410 C   0  0  0  0  0  0  0  0  0  0  0  0
   48.2590   34.4740   40.7160 N   0  0  0  0  0  0  0  0  0  0  0  0
   48.1150   35.1480   41.8790 C   0  0  0  0  0  0  0  0  0  0  0  0
   46.9110   35.3120   42.4250 N   0  0  0  0  0  0  0  0  0  0  0  0
   45.1520   33.6660   40.0560 H   0  0  0  0  0  0  0  0  0  0  0  0
   47.3510   33.3980   39.1140 H   0  0  0  0  0  0  0  0  0  0  0  0
   49.0370   35.5200   42.2970 H   0  0  0  0  0  0  0  0  0  0  0  0
   44.4370   35.6480   43.7320 C   0  0  0  0  0  0  0  0  0  0  0  0
   43.5240   35.4050   44.2750 H   0  0  0  0  0  0  0  0  0  0  0  0
   45.3400   35.3580   44.3090 H   0  0  0  0  0  0  0  0  0  0  0  0
   44.5140   36.7380   43.5360 H   0  0  0  0  0  0  0  0  0  0  0  0
   43.5340   35.6890   41.4160 C   0  0  0  0  0  0  0  0  0  0  0  0
   44.0680   36.0070   40.5260 H   0  0  0  0  0  0  0  0  0  0  0  0
   43.2430   36.6400   41.9540 H   0  0  0  0  0  0  0  0  0  0  0  0
   42.3360   34.9030   41.0300 C   0  0  0  0  0  0  0  0  0  0  0  0
   41.0600   35.2800   41.7040 C   0  0  0  0  0  0  0  0  0  0  0  0
   40.4450   36.2680   40.7230 C   0  0  0  0  0  0  0  0  0  0  0  0
   40.6930   35.6190   39.3990 C   0  0  0  0  0  0  0  0  0  0  0  0
   42.1230   35.1210   39.5330 C   0  0  0  0  0  0  0  0  0  0  0  0
  1  2  1  1  0  0  0
  1 12  1  0  0  0  0
  3  1  1  0  0  0  0
  3  8  1  0  0  0  0
  4  3  2  0  0  0  0
  5  4  1  0  0  0  0
  5  6  2  0  0  0  0
  6  7  1  0  0  0  0
  7 11  1  0  0  0  0
  7  8  2  0  0  0  0
  9  4  1  0  0  0  0
 10  5  1  0  0  0  0
 12 13  1  0  0  0  0
 12 14  1  0  0  0  0
 15 12  1  0  0  0  0
 16 18  1  0  0  0  0
 16  1  1  0  0  0  0
 17 16  1  0  0  0  0
 19 16  1  0  0  0  0
 19 20  1  0  0  0  0
 21 20  1  0  0  0  0
 22 23  1  0  0  0  0
 22 21  1  0  0  0  0
 23 19  1  0  0  0  0
M  END
>  <minimizedAffinity>
-4.65498781

>  <minimizedRMSD>
3.9111135

$$$$
