
 OpenBabel03232520463D

 44 48  0  0  1  0  0  0  0  0999 V2000
   46.9160   34.4970   41.9880 C   0  0  0  0  0  0  0  0  0  0  0  0
   48.1240   35.1170   41.8760 C   0  0  0  0  0  0  0  0  0  0  0  0
   48.7720   35.2400   40.6420 C   0  0  0  0  0  0  0  0  0  0  0  0
   48.1650   34.7130   39.4930 C   0  0  0  0  0  0  0  0  0  0  0  0
   46.9500   34.0930   39.6300 C   0  0  0  0  0  0  0  0  0  0  0  0
   46.3350   33.9880   40.8660 C   0  0  0  0  0  0  0  0  0  0  0  0
   48.6460   35.5450   42.7270 H   0  0  0  0  0  0  0  0  0  0  0  0
   49.7160   35.7150   40.5040 H   0  0  0  0  0  0  0  0  0  0  0  0
   48.6090   34.7720   38.5100 H   0  0  0  0  0  0  0  0  0  0  0  0
   46.4540   33.6730   38.7500 H   0  0  0  0  0  0  0  0  0  0  0  0
   45.0840   33.3360   40.9600 N   0  0  0  0  0  0  0  0  0  0  0  0
   44.0650   34.2220   40.7360 C   0  0  0  0  0  0  0  0  0  0  0  0
   42.7350   33.7820   40.7860 C   0  0  0  0  0  0  0  0  0  0  0  0
   42.4970   32.4480   41.0610 C   0  0  0  0  0  0  0  0  0  0  0  0
   41.3300   31.9990   41.1170 O   0  0  0  0  0  0  0  0  0  0  0  0
   43.5310   31.6230   41.2730 N   0  0  0  0  0  0  0  0  0  0  0  0
   44.8190   32.0390   41.2280 C   0  0  0  0  0  0  0  0  0  0  0  0
   45.8410   31.3460   41.4110 O   0  0  0  0  0  0  0  0  0  0  0  0
   44.1550   35.2550   40.5220 H   0  0  0  0  0  0  0  0  0  0  0  0
   43.4290   30.5890   41.4880 H   0  0  0  0  0  0  0  0  0  0  0  0
   41.5940   34.7070   40.5490 C   0  0  0  0  0  0  0  0  0  0  0  0
   41.8860   35.6000   39.9930 H   0  0  0  0  0  0  0  0  0  0  0  0
   40.7970   34.1320   40.0710 H   0  0  0  0  0  0  0  0  0  0  0  0
   41.2820   35.0540   41.5770 H   0  0  0  0  0  0  0  0  0  0  0  0
   44.9490   35.0860   45.1380 C   0  0  0  0  0  0  0  0  0  0  0  0
   45.4280   35.2880   43.8590 C   0  0  0  0  0  0  0  0  0  0  0  0
   46.3270   34.4080   43.3240 C   0  0  0  0  0  0  0  0  0  0  0  0
   46.6930   33.3670   44.1140 N   0  0  0  0  0  0  0  0  0  0  0  0
   46.2030   33.1900   45.3790 C   0  0  0  0  0  0  0  0  0  0  0  0
   45.3440   34.0590   45.8530 N   0  0  0  0  0  0  0  0  0  0  0  0
   44.2410   35.7390   45.6190 H   0  0  0  0  0  0  0  0  0  0  0  0
   45.1130   36.1270   43.2670 H   0  0  0  0  0  0  0  0  0  0  0  0
   46.9110   31.9750   45.6740 C   0  0  2  0  0  0  0  0  0  0  0  0
   47.5110   30.9450   45.9240 N   0  0  0  0  0  0  0  0  0  0  0  0
   48.1820   29.9420   46.0480 C   0  0  0  0  0  0  0  0  0  0  0  0
   47.5610   29.6780   47.2020 N   0  0  0  0  0  0  0  0  0  0  0  0
   46.5840   30.4940   47.7120 C   0  0  0  0  0  0  0  0  0  0  0  0
   46.0600   30.0320   48.9470 C   0  0  0  0  0  0  0  0  0  0  0  0
   45.0900   30.8280   49.4750 C   0  0  0  0  0  0  0  0  0  0  0  0
   44.7100   30.4570   50.4110 H   0  0  0  0  0  0  0  0  0  0  0  0
   44.6100   31.9880   48.9200 C   0  0  0  0  0  0  0  0  0  0  0  0
   43.8530   32.6070   49.3340 H   0  0  0  0  0  0  0  0  0  0  0  0
   45.2340   32.2750   47.7280 C   0  0  0  0  0  0  0  0  0  0  0  0
   46.2570   31.6500   46.9410 C   0  0  0  0  0  0  0  0  0  0  0  0
  1 27  1  0  0  0  0
  2  1  1  0  0  0  0
  2  7  1  0  0  0  0
  3  2  2  0  0  0  0
  4  5  2  0  0  0  0
  4  3  1  0  0  0  0
  5  6  1  0  0  0  0
  6 11  1  0  0  0  0
  6  1  2  0  0  0  0
  8  3  1  0  0  0  0
  9  4  1  0  0  0  0
 10  5  1  0  0  0  0
 11 17  1  0  0  0  0
 12 13  2  0  0  0  0
 12 11  1  0  0  0  0
 13 14  1  0  0  0  0
 14 15  2  0  0  0  0
 14 16  1  0  0  0  0
 16 20  1  0  0  0  0
 17 16  1  0  0  0  0
 17 18  2  0  0  0  0
 19 12  1  0  0  0  0
 21 13  1  0  0  0  0
 21 24  1  0  0  0  0
 22 21  1  0  0  0  0
 23 21  1  0  0  0  0
 25 31  1  0  0  0  0
 25 30  1  0  0  0  0
 26 25  2  0  0  0  0
 27 26  1  0  0  0  0
 27 28  2  0  0  0  0
 28 29  1  0  0  0  0
 29 30  2  0  0  0  0
 32 26  1  0  0  0  0
 33 29  1  6  0  0  0
 33 34  1  0  0  0  0
 33 44  1  0  0  0  0
 34 35  1  0  0  0  0
 35 36  1  0  0  0  0
 36 37  1  0  0  0  0
 37 38  1  0  0  0  0
 38 39  2  0  0  0  0
 39 40  1  0  0  0  0
 41 42  1  0  0  0  0
 41 39  1  0  0  0  0
 43 41  2  0  0  0  0
 44 37  2  0  0  0  0
 44 43  1  0  0  0  0
M  END
>  <minimizedAffinity>
-6.95195532

>  <minimizedRMSD>
1.4630512

$$$$
