
 OpenBabel03232518523D

 37 40  0  0  0  0  0  0  0  0999 V2000
   48.4150   33.0260   41.9530 O   0  0  0  0  0  0  0  0  0  0  0  0
   48.4850   33.1560   40.5970 C   0  0  0  0  0  0  0  0  0  0  0  0
   47.7090   34.1510   39.7870 C   0  0  0  0  0  0  0  0  0  0  0  0
   48.2990   33.7440   38.1110 S   0  0  0  0  0  0  0  0  0  0  0  0
   49.4390   32.3710   38.7350 C   0  0  0  0  0  0  0  0  0  0  0  0
   49.2840   32.3640   39.9120 N   0  0  0  0  0  0  0  0  0  0  0  0
   47.0310   34.8910   39.9850 H   0  0  0  0  0  0  0  0  0  0  0  0
   50.1790   31.7080   37.6280 C   0  0  0  0  0  0  0  0  0  0  0  0
   49.6810   31.4400   36.4130 N   0  0  0  0  0  0  0  0  0  0  0  0
   50.3880   30.8390   35.4440 C   0  0  0  0  0  0  0  0  0  0  0  0
   51.6630   30.4660   35.6450 N   0  0  0  0  0  0  0  0  0  0  0  0
   52.2510   30.6920   36.8320 C   0  0  0  0  0  0  0  0  0  0  0  0
   53.5560   30.3150   37.0490 C   0  0  0  0  0  0  0  0  0  0  0  0
   54.1570   30.5530   38.2830 C   0  0  0  0  0  0  0  0  0  0  0  0
   55.1840   30.2430   38.4180 H   0  0  0  0  0  0  0  0  0  0  0  0
   53.3630   31.1840   39.2500 C   0  0  0  0  0  0  0  0  0  0  0  0
   53.9510   31.3150   40.1740 H   0  0  0  0  0  0  0  0  0  0  0  0
   52.0590   31.5520   39.0080 C   0  0  0  0  0  0  0  0  0  0  0  0
   51.4820   31.3120   37.7910 C   0  0  0  0  0  0  0  0  0  0  0  0
   47.2710   32.8130   42.6890 C   0  0  0  0  0  0  0  0  0  0  0  0
   46.9070   31.8460   41.9660 O   0  0  0  0  0  0  0  0  0  0  0  0
   45.2400   34.8010   45.0780 C   0  0  0  0  0  0  0  0  0  0  0  0
   45.8750   34.4990   43.8800 C   0  0  0  0  0  0  0  0  0  0  0  0
   46.5610   33.3070   43.8120 C   0  0  0  0  0  0  0  0  0  0  0  0
   46.5820   32.4910   44.9130 N   0  0  0  0  0  0  0  0  0  0  0  0
   45.9710   32.7930   46.0480 C   0  0  0  0  0  0  0  0  0  0  0  0
   45.3140   33.9370   46.1080 N   0  0  0  0  0  0  0  0  0  0  0  0
   44.7000   35.7430   45.1250 H   0  0  0  0  0  0  0  0  0  0  0  0
   45.8240   35.4070   42.7280 C   0  0  0  0  0  0  0  0  0  0  0  0
   45.0210   36.4940   43.0970 F   0  0  0  0  0  0  0  0  0  0  0  0
   45.1320   34.8350   41.6770 F   0  0  0  0  0  0  0  0  0  0  0  0
   47.0500   35.8450   42.3260 F   0  0  0  0  0  0  0  0  0  0  0  0
   45.9600   32.0150   47.1760 O   0  0  0  0  0  0  0  0  0  0  0  0
   47.1160   31.7570   47.9440 C   0  0  0  0  0  0  0  0  0  0  0  0
   47.8800   32.8950   48.1260 F   0  0  0  0  0  0  0  0  0  0  0  0
   47.8350   30.7050   47.4370 F   0  0  0  0  0  0  0  0  0  0  0  0
   46.6610   31.4340   49.2360 F   0  0  0  0  0  0  0  0  0  0  0  0
  1 20  1  0  0  0  0
  2  1  1  0  0  0  0
  3  7  1  0  0  0  0
  3  2  2  0  0  0  0
  4  5  1  0  0  0  0
  4  3  1  0  0  0  0
  5  6  2  0  0  0  0
  6  2  1  0  0  0  0
  8 19  1  0  0  0  0
  8  5  1  0  0  0  0
  9  8  2  0  0  0  0
 10 11  2  0  0  0  0
 10  9  1  0  0  0  0
 11 12  1  0  0  0  0
 12 13  2  0  0  0  0
 12 19  1  0  0  0  0
 13 14  1  0  0  0  0
 14 15  1  0  0  0  0
 14 16  2  0  0  0  0
 16 17  1  0  0  0  0
 18 16  1  0  0  0  0
 19 18  2  0  0  0  0
 20 24  1  0  0  0  0
 21 20  2  0  0  0  0
 22 28  1  0  0  0  0
 22 27  1  0  0  0  0
 23 22  2  0  0  0  0
 24 23  1  0  0  0  0
 24 25  2  0  0  0  0
 25 26  1  0  0  0  0
 26 27  2  0  0  0  0
 26 33  1  0  0  0  0
 29 30  1  0  0  0  0
 29 23  1  0  0  0  0
 31 29  1  0  0  0  0
 32 29  1  0  0  0  0
 33 34  1  0  0  0  0
 34 35  1  0  0  0  0
 34 37  1  0  0  0  0
 36 34  1  0  0  0  0
M  END
>  <minimizedAffinity>
-6.22273159

>  <minimizedRMSD>
1.98738182

$$$$
