
 OpenBabel03232520433D

 46 50  0  0  1  0  0  0  0  0999 V2000
   38.5360   33.0160   38.9530 N   0  0  0  0  0  0  0  0  0  0  0  0
   38.3890   33.7150   40.1850 C   0  0  0  0  0  0  0  0  0  0  0  0
   39.5620   33.4830   41.1030 C   0  0  0  0  0  0  0  0  0  0  0  0
   40.8080   33.9380   40.4070 C   0  0  1  0  0  0  0  0  0  0  0  0
   40.5640   34.3930   39.0010 C   0  0  0  0  0  0  0  0  0  0  0  0
   39.7380   33.3940   38.2140 C   0  0  1  0  0  0  0  0  0  0  0  0
   37.6620   33.1410   38.4160 H   0  0  0  0  0  0  0  0  0  0  0  0
   38.3750   34.8190   39.9870 H   0  0  0  0  0  0  0  0  0  0  0  0
   37.4290   33.4530   40.6270 H   0  0  0  0  0  0  0  0  0  0  0  0
   39.3520   34.0620   42.0460 H   0  0  0  0  0  0  0  0  0  0  0  0
   39.5740   32.4180   41.4160 H   0  0  0  0  0  0  0  0  0  0  0  0
   41.4860   33.0530   40.4050 H   0  0  0  0  0  0  0  0  0  0  0  0
   40.0660   35.3640   38.9680 H   0  0  0  0  0  0  0  0  0  0  0  0
   41.5500   34.4790   38.5080 H   0  0  0  0  0  0  0  0  0  0  0  0
   39.3630   33.9460   37.3300 H   0  0  0  0  0  0  0  0  0  0  0  0
   40.5570   32.2040   37.8740 C   0  0  0  0  0  0  0  0  0  0  0  0
   41.8820   32.3510   38.1740 N   0  0  0  0  0  0  0  0  0  0  0  0
   42.7570   31.3490   37.9270 C   0  0  0  0  0  3  0  0  0  0  0  0
   42.3900   30.1640   37.3820 N   0  0  0  0  0  0  0  0  0  0  0  0
   41.0940   30.0140   37.0850 C   0  0  0  0  0  0  0  0  0  0  0  0
   40.5560   28.8700   36.5220 C   0  0  0  0  0  3  0  0  0  0  0  0
   39.2150   28.7210   36.2170 C   0  0  0  0  0  0  0  0  0  0  0  0
   38.8520   27.7960   35.7760 H   0  0  0  0  0  0  0  0  0  0  0  0
   38.3390   29.7580   36.4780 C   0  0  0  0  0  0  0  0  0  0  0  0
   37.2960   29.6300   36.2360 H   0  0  0  0  0  0  0  0  0  0  0  0
   38.8300   30.9240   37.0410 C   0  0  0  0  0  3  0  0  0  0  0  0
   40.1650   31.0060   37.3180 C   0  0  0  0  0  0  0  0  0  0  0  0
   41.5510   35.2460   41.3790 S   0  0  0  0  0  0  0  0  0  0  0  0
   44.0030   35.4850   42.6650 C   0  0  0  0  0  0  0  0  0  0  0  0
   43.3270   35.0060   41.5470 C   0  0  0  0  0  0  0  0  0  0  0  0
   44.0530   34.3520   40.5960 C   0  0  0  0  0  0  0  0  0  0  0  0
   45.3950   34.1740   40.7330 N   0  0  0  0  0  0  0  0  0  0  0  0
   46.0270   34.6560   41.8380 C   0  0  0  0  0  0  0  0  0  0  0  0
   45.3370   35.3070   42.7990 N   0  0  0  0  0  0  0  0  0  0  0  0
   43.4730   36.0060   43.4410 H   0  0  0  0  0  0  0  0  0  0  0  0
   43.6250   33.9540   39.7100 H   0  0  0  0  0  0  0  0  0  0  0  0
   47.4600   34.5070   42.0620 C   0  0  0  0  0  0  0  0  0  0  0  0
   48.3000   35.5700   41.9080 C   0  0  0  0  0  0  0  0  0  0  0  0
   49.6640   35.4690   42.1100 C   0  0  0  0  0  0  0  0  0  0  0  0
   50.2130   34.2570   42.4820 C   0  0  0  0  0  0  0  0  0  0  0  0
   49.3330   33.1850   42.6340 C   0  0  0  0  0  0  0  0  0  0  0  0
   48.0080   33.3200   42.4280 N   0  0  0  0  0  0  0  0  0  0  0  0
   47.9220   36.5400   41.6180 H   0  0  0  0  0  0  0  0  0  0  0  0
   50.3460   36.2870   41.9970 H   0  0  0  0  0  0  0  0  0  0  0  0
   51.2480   34.0440   42.6710 H   0  0  0  0  0  0  0  0  0  0  0  0
   49.6680   32.1980   42.9230 H   0  0  0  0  0  0  0  0  0  0  0  0
  1  2  1  0  0  0  0
  2  9  1  0  0  0  0
  2  3  1  0  0  0  0
  3 11  1  0  0  0  0
  3 10  1  0  0  0  0
  4 12  1  6  0  0  0
  4  3  1  0  0  0  0
  4 28  1  0  0  0  0
  5  4  1  0  0  0  0
  6 15  1  6  0  0  0
  6  1  1  0  0  0  0
  6  5  1  0  0  0  0
  7  1  1  0  0  0  0
  8  2  1  0  0  0  0
 13  5  1  0  0  0  0
 14  5  1  0  0  0  0
 16 17  1  0  0  0  0
 16  6  1  0  0  0  0
 18 17  2  0  0  0  0
 19 18  1  0  0  0  0
 20 27  1  0  0  0  0
 20 19  2  0  0  0  0
 21 20  1  0  0  0  0
 22 24  1  0  0  0  0
 22 21  2  0  0  0  0
 23 22  1  0  0  0  0
 24 26  2  0  0  0  0
 25 24  1  0  0  0  0
 26 27  1  0  0  0  0
 27 16  2  0  0  0  0
 28 30  1  0  0  0  0
 29 34  1  0  0  0  0
 29 35  1  0  0  0  0
 30 29  2  0  0  0  0
 31 32  2  0  0  0  0
 31 30  1  0  0  0  0
 32 33  1  0  0  0  0
 33 37  1  0  0  0  0
 33 34  2  0  0  0  0
 36 31  1  0  0  0  0
 37 42  1  0  0  0  0
 38 37  2  0  0  0  0
 38 39  1  0  0  0  0
 39 40  2  0  0  0  0
 40 41  1  0  0  0  0
 40 45  1  0  0  0  0
 41 46  1  0  0  0  0
 42 41  2  0  0  0  0
 43 38  1  0  0  0  0
 44 39  1  0  0  0  0
M  END
>  <minimizedAffinity>
-6.4539094

>  <minimizedRMSD>
1.1809504

$$$$
