
 OpenBabel03232520573D

 40 43  0  0  1  0  0  0  0  0999 V2000
   45.2620   32.6160   47.6460 C   0  0  0  0  0  0  0  0  0  0  0  0
   45.9540   32.3560   46.4600 C   0  0  0  0  0  0  0  0  0  0  0  0
   46.2740   31.0400   46.2670 C   0  0  0  0  0  0  0  0  0  0  0  0
   45.9090   30.1090   47.1820 N   0  0  0  0  0  0  0  0  0  0  0  0
   45.2430   30.3790   48.3190 C   0  0  0  0  0  0  0  0  0  0  0  0
   44.9190   31.6400   48.5530 N   0  0  0  0  0  0  0  0  0  0  0  0
   44.9510   29.3340   49.2390 N   0  0  0  0  0  0  0  0  0  0  0  0
   44.9650   33.5940   47.9170 H   0  0  0  0  0  0  0  0  0  0  0  0
   44.0220   29.2910   49.7000 H   0  0  0  0  0  0  0  0  0  0  0  0
   45.6980   28.6220   49.4300 H   0  0  0  0  0  0  0  0  0  0  0  0
   46.2240   33.3290   45.4530 C   0  0  2  0  0  0  0  0  0  0  0  0
   45.1150   34.4700   45.6440 C   0  0  0  0  0  0  0  0  0  0  0  0
   44.9310   35.4000   44.5660 C   0  0  0  0  0  0  0  0  0  0  0  0
   45.7300   35.2860   43.3500 C   0  0  1  0  0  0  0  0  0  0  0  0
   46.7690   34.2530   43.3480 C   0  0  0  0  0  0  0  0  0  0  0  0
   46.2060   33.0190   44.0690 C   0  0  0  0  0  0  0  0  0  0  0  0
   47.0730   33.9950   45.7810 H   0  0  0  0  0  0  0  0  0  0  0  0
   44.4260   34.7260   46.4410 H   0  0  0  0  0  0  0  0  0  0  0  0
   44.1960   36.1820   44.6530 H   0  0  0  0  0  0  0  0  0  0  0  0
   46.1780   36.2820   43.1480 H   0  0  0  0  0  0  0  0  0  0  0  0
   47.6450   34.6030   43.9450 H   0  0  0  0  0  0  0  0  0  0  0  0
   47.1230   34.0500   42.3410 H   0  0  0  0  0  0  0  0  0  0  0  0
   45.0540   33.1020   43.7420 H   0  0  0  0  0  0  0  0  0  0  0  0
   46.4880   32.2400   43.4580 H   0  0  0  0  0  0  0  0  0  0  0  0
   44.7550   35.0450   42.1720 C   0  0  0  0  0  0  0  0  0  0  0  0
   43.7480   34.1610   42.4750 F   0  0  0  0  0  0  0  0  0  0  0  0
   44.1420   36.2740   41.9160 F   0  0  0  0  0  0  0  0  0  0  0  0
   45.4610   34.6910   41.0360 F   0  0  0  0  0  0  0  0  0  0  0  0
   47.1510   30.4160   45.2520 C   0  0  0  0  0  0  0  0  0  0  0  0
   46.9250   30.2320   43.9830 N   0  0  0  0  0  0  0  0  0  0  0  0
   47.6210   29.6540   43.0420 C   0  0  0  0  0  3  0  0  0  0  0  0
   48.8030   29.1310   43.4030 N   0  0  0  0  0  0  0  0  0  0  0  0
   49.2110   29.2250   44.6930 C   0  0  0  0  0  0  0  0  0  0  0  0
   50.4090   28.6370   44.9690 C   0  0  0  0  0  3  0  0  0  0  0  0
   50.8700   28.6590   46.2640 C   0  0  0  0  0  0  0  0  0  0  0  0
   51.8210   28.1880   46.4530 H   0  0  0  0  0  0  0  0  0  0  0  0
   50.0800   29.2840   47.2270 C   0  0  0  0  0  0  0  0  0  0  0  0
   50.5200   29.2500   48.2120 H   0  0  0  0  0  0  0  0  0  0  0  0
   48.8860   29.8450   46.8360 C   0  0  0  0  0  3  0  0  0  0  0  0
   48.3680   29.8630   45.5690 C   0  0  0  0  0  0  0  0  0  0  0  0
  1  8  1  0  0  0  0
  1  6  1  0  0  0  0
  2  1  2  0  0  0  0
  3  2  1  0  0  0  0
  3  4  2  0  0  0  0
  4  5  1  0  0  0  0
  5  6  2  0  0  0  0
  5  7  1  0  0  0  0
  7 10  1  0  0  0  0
  7  9  1  0  0  0  0
 11 12  1  0  0  0  0
 11 17  1  1  0  0  0
 11  2  1  0  0  0  0
 12 18  1  0  0  0  0
 13 19  1  0  0  0  0
 13 12  2  0  0  0  0
 14 20  1  6  0  0  0
 14 13  1  0  0  0  0
 15 14  1  0  0  0  0
 15 21  1  0  0  0  0
 15 16  1  0  0  0  0
 16 11  1  0  0  0  0
 22 15  1  0  0  0  0
 23 16  1  0  0  0  0
 24 16  1  0  0  0  0
 25 26  1  0  0  0  0
 25 14  1  0  0  0  0
 27 25  1  0  0  0  0
 28 25  1  0  0  0  0
 29 40  1  0  0  0  0
 29  3  1  0  0  0  0
 30 29  2  0  0  0  0
 31 32  2  0  0  0  0
 31 30  1  0  0  0  0
 32 33  1  0  0  0  0
 33 34  2  0  0  0  0
 33 40  1  0  0  0  0
 34 35  1  0  0  0  0
 35 36  1  0  0  0  0
 35 37  2  0  0  0  0
 37 38  1  0  0  0  0
 39 37  1  0  0  0  0
 40 39  2  0  0  0  0
M  END
>  <minimizedAffinity>
-5.99668455

>  <minimizedRMSD>
0.372651279

$$$$
