
 OpenBabel03232520153D

 37 40  0  0  0  0  0  0  0  0999 V2000
   47.3930   34.0470   42.3490 C   0  0  0  0  0  0  0  0  0  0  0  0
   48.1240   35.2290   41.7290 C   0  0  0  0  0  0  0  0  0  0  0  0
   49.4730   35.5400   42.1820 C   0  0  0  0  0  0  0  0  0  0  0  0
   50.3370   34.3560   42.3720 C   0  0  0  0  0  0  0  0  0  0  0  0
   49.6260   33.0530   42.3640 C   0  0  0  0  0  0  0  0  0  0  0  0
   48.3090   33.2360   43.0980 C   0  0  0  0  0  0  0  0  0  0  0  0
   47.4920   36.1550   41.8660 H   0  0  0  0  0  0  0  0  0  0  0  0
   48.1710   35.1360   40.6070 H   0  0  0  0  0  0  0  0  0  0  0  0
   49.9330   36.2150   41.4680 H   0  0  0  0  0  0  0  0  0  0  0  0
   49.3980   36.0710   43.1730 H   0  0  0  0  0  0  0  0  0  0  0  0
   51.1330   34.3060   41.5750 H   0  0  0  0  0  0  0  0  0  0  0  0
   50.9390   34.4310   43.3200 H   0  0  0  0  0  0  0  0  0  0  0  0
   49.4860   32.7820   41.2910 H   0  0  0  0  0  0  0  0  0  0  0  0
   50.2520   32.2590   42.8150 H   0  0  0  0  0  0  0  0  0  0  0  0
   48.6380   33.9640   43.9310 H   0  0  0  0  0  0  0  0  0  0  0  0
   48.0450   32.4160   43.7410 H   0  0  0  0  0  0  0  0  0  0  0  0
   46.5120   33.6420   41.2530 C   0  0  0  0  0  0  0  0  0  0  0  0
   45.2620   33.1230   41.4940 N   0  0  0  0  0  0  0  0  0  0  0  0
   44.4410   32.6920   40.5480 C   0  0  0  0  0  0  0  0  0  0  0  0
   44.7260   32.7060   39.2430 N   0  0  0  0  0  0  0  0  0  0  0  0
   45.9200   33.1920   38.8790 C   0  0  0  0  0  0  0  0  0  0  0  0
   46.2640   33.2550   37.5500 C   0  0  0  0  0  0  0  0  0  0  0  0
   47.4790   33.7770   37.1540 C   0  0  0  0  0  0  0  0  0  0  0  0
   47.6320   33.7720   36.0860 H   0  0  0  0  0  0  0  0  0  0  0  0
   48.3290   34.2320   38.1620 C   0  0  0  0  0  0  0  0  0  0  0  0
   49.2630   34.6300   37.8070 H   0  0  0  0  0  0  0  0  0  0  0  0
   47.9280   34.1390   39.4520 C   0  0  0  0  0  0  0  0  0  0  0  0
   46.7350   33.6270   39.8960 C   0  0  0  0  0  0  0  0  0  0  0  0
   45.1870   34.4410   45.3470 C   0  0  0  0  0  0  0  0  0  0  0  0
   44.4810   35.6120   45.0660 C   0  0  0  0  0  0  0  0  0  0  0  0
   44.7950   36.2640   43.8550 C   0  0  0  0  0  0  0  0  0  0  0  0
   45.7500   35.7290   43.0390 N   0  0  0  0  0  0  0  0  0  0  0  0
   46.4210   34.5850   43.3390 C   0  0  0  0  0  0  0  0  0  0  0  0
   46.1060   33.9700   44.5140 N   0  0  0  0  0  0  0  0  0  0  0  0
   44.9540   33.9430   46.2640 H   0  0  0  0  0  0  0  0  0  0  0  0
   43.7290   36.0650   45.6690 H   0  0  0  0  0  0  0  0  0  0  0  0
   44.3470   37.1660   43.4970 H   0  0  0  0  0  0  0  0  0  0  0  0
  1  6  1  0  0  0  0
  1 33  1  0  0  0  0
  2  7  1  0  0  0  0
  2  3  1  0  0  0  0
  2  1  1  0  0  0  0
  3  4  1  0  0  0  0
  3 10  1  0  0  0  0
  4 12  1  0  0  0  0
  5  4  1  0  0  0  0
  5 14  1  0  0  0  0
  5  6  1  0  0  0  0
  6 16  1  0  0  0  0
  6 15  1  0  0  0  0
  8  2  1  0  0  0  0
  9  3  1  0  0  0  0
 11  4  1  0  0  0  0
 13  5  1  0  0  0  0
 17 18  1  0  0  0  0
 17  1  1  0  0  0  0
 19 18  2  0  0  0  0
 20 19  1  0  0  0  0
 21 20  2  0  0  0  0
 21 28  1  0  0  0  0
 22 21  1  0  0  0  0
 23 22  2  0  0  0  0
 23 25  1  0  0  0  0
 24 23  1  0  0  0  0
 25 27  2  0  0  0  0
 26 25  1  0  0  0  0
 27 28  1  0  0  0  0
 28 17  2  0  0  0  0
 29 35  1  0  0  0  0
 30 29  1  0  0  0  0
 30 36  1  0  0  0  0
 31 30  2  0  0  0  0
 32 33  2  0  0  0  0
 32 31  1  0  0  0  0
 33 34  1  0  0  0  0
 34 29  2  0  0  0  0
 37 31  1  0  0  0  0
M  END
>  <minimizedAffinity>
-6.63720655

>  <minimizedRMSD>
0.590119779

$$$$
