
 OpenBabel03232518013D

 43 46  0  0  1  0  0  0  0  0999 V2000
   48.4410   33.0250   41.4690 C   0  0  0  0  0  0  0  0  0  0  0  0
   48.1630   32.5160   42.3720 H   0  0  0  0  0  0  0  0  0  0  0  0
   47.9590   32.3360   40.6160 H   0  0  0  0  0  0  0  0  0  0  0  0
   47.9790   34.3450   41.1600 C   0  0  0  0  0  0  0  0  0  0  0  0
   44.2260   34.7900   41.3560 C   0  0  0  0  0  0  0  0  0  0  0  0
   45.4620   34.3800   40.8340 C   0  0  0  0  0  0  0  0  0  0  0  0
   46.6240   34.7130   41.5670 C   0  0  0  0  0  0  0  0  0  0  0  0
   46.4790   35.4120   42.7340 N   0  0  0  0  0  0  0  0  0  0  0  0
   45.2460   35.7760   43.1800 C   0  0  0  0  0  0  0  0  0  0  0  0
   44.1460   35.4750   42.5120 N   0  0  0  0  0  0  0  0  0  0  0  0
   45.5880   33.8290   39.9120 H   0  0  0  0  0  0  0  0  0  0  0  0
   45.1610   36.3170   44.0880 H   0  0  0  0  0  0  0  0  0  0  0  0
   43.0660   34.3970   40.5380 C   0  0  0  0  0  0  0  0  0  0  0  0
   42.4650   35.0960   39.7430 O   0  0  0  0  0  0  0  0  0  0  0  0
   42.5410   33.4510   40.4840 H   0  0  0  0  0  0  0  0  0  0  0  0
   48.9370   35.4170   41.6830 C   0  0  0  0  0  0  0  0  0  0  0  0
   49.9860   35.1790   41.5020 H   0  0  0  0  0  0  0  0  0  0  0  0
   48.6980   36.4230   41.2490 H   0  0  0  0  0  0  0  0  0  0  0  0
   48.6810   35.5170   42.7710 H   0  0  0  0  0  0  0  0  0  0  0  0
   48.0920   34.4980   39.6360 C   0  0  0  0  0  0  0  0  0  0  0  0
   49.1720   34.4720   39.3880 H   0  0  0  0  0  0  0  0  0  0  0  0
   47.5250   33.7140   39.1080 H   0  0  0  0  0  0  0  0  0  0  0  0
   47.7310   35.5270   39.4200 H   0  0  0  0  0  0  0  0  0  0  0  0
   49.8080   32.9590   41.2530 O   0  0  0  0  0  0  0  0  0  0  0  0
   50.0210   31.7480   40.6300 C   0  0  1  0  0  0  0  0  0  0  0  0
   50.1640   31.5990   39.1890 C   0  0  0  0  0  0  0  0  0  0  0  0
   51.3470   31.5980   39.9790 C   0  0  2  0  0  0  0  0  0  0  0  0
   49.6380   30.8970   41.2290 H   0  0  0  0  0  0  0  0  0  0  0  0
   49.8590   32.5890   38.6600 H   0  0  0  0  0  0  0  0  0  0  0  0
   49.7150   30.8690   38.5160 H   0  0  0  0  0  0  0  0  0  0  0  0
   51.8420   32.6460   39.8620 H   0  0  0  0  0  0  0  0  0  0  0  0
   52.4330   30.7590   40.3520 C   0  0  0  0  0  0  0  0  0  0  0  0
   52.5550   30.1280   41.5550 N   0  0  0  0  0  0  0  0  0  0  0  0
   53.5510   29.3740   41.9660 C   0  0  0  0  0  0  0  0  0  0  0  0
   54.6140   29.1380   41.1890 N   0  0  0  0  0  0  0  0  0  0  0  0
   54.6410   29.6900   39.9700 C   0  0  0  0  0  0  0  0  0  0  0  0
   55.7250   29.4360   39.1650 C   0  0  0  0  0  0  0  0  0  0  0  0
   55.7720   29.9790   37.9010 C   0  0  0  0  0  0  0  0  0  0  0  0
   56.6070   29.8040   37.2390 H   0  0  0  0  0  0  0  0  0  0  0  0
   54.7270   30.7740   37.4500 C   0  0  0  0  0  0  0  0  0  0  0  0
   54.7330   31.2130   36.4650 H   0  0  0  0  0  0  0  0  0  0  0  0
   53.6860   30.9710   38.3270 C   0  0  0  0  0  0  0  0  0  0  0  0
   53.5610   30.4680   39.6070 C   0  0  0  0  0  0  0  0  0  0  0  0
  1  2  1  0  0  0  0
  3  1  1  0  0  0  0
  4  1  1  0  0  0  0
  4  7  1  0  0  0  0
  4 16  1  0  0  0  0
  5 10  1  0  0  0  0
  6  5  2  0  0  0  0
  6  7  1  0  0  0  0
  7  8  2  0  0  0  0
  8  9  1  0  0  0  0
  9 12  1  0  0  0  0
 10  9  2  0  0  0  0
 11  6  1  0  0  0  0
 13  5  1  0  0  0  0
 14 13  2  0  0  0  0
 15 13  1  0  0  0  0
 16 19  1  0  0  0  0
 17 16  1  0  0  0  0
 18 16  1  0  0  0  0
 20  4  1  0  0  0  0
 21 20  1  0  0  0  0
 22 20  1  0  0  0  0
 23 20  1  0  0  0  0
 24  1  1  0  0  0  0
 25 28  1  1  0  0  0
 25 24  1  0  0  0  0
 26 27  1  0  0  0  0
 26 25  1  0  0  0  0
 27 31  1  6  0  0  0
 27 32  1  0  0  0  0
 27 25  1  0  0  0  0
 29 26  1  0  0  0  0
 30 26  1  0  0  0  0
 32 33  1  0  0  0  0
 33 34  2  0  0  0  0
 35 34  1  0  0  0  0
 36 35  2  0  0  0  0
 37 36  1  0  0  0  0
 38 37  2  0  0  0  0
 39 38  1  0  0  0  0
 40 38  1  0  0  0  0
 40 42  2  0  0  0  0
 41 40  1  0  0  0  0
 42 43  1  0  0  0  0
 43 36  1  0  0  0  0
 43 32  2  0  0  0  0
M  END
>  <minimizedAffinity>
-5.15449286

>  <minimizedRMSD>
3.66273928

$$$$
