
 OpenBabel03232517353D

 43 46  0  0  0  0  0  0  0  0999 V2000
   46.6770   34.3970   41.4180 N   0  0  0  0  0  0  0  0  0  0  0  0
   46.0650   33.8450   40.3470 C   0  0  0  0  0  0  0  0  0  0  0  0
   46.7370   33.7280   39.1290 C   0  0  0  0  0  0  0  0  0  0  0  0
   48.0390   34.2120   39.1280 C   0  0  0  0  0  0  0  0  0  0  0  0
   48.6760   34.1270   38.0500 O   0  0  0  0  0  0  0  0  0  0  0  0
   48.6240   34.7530   40.2030 N   0  0  0  0  0  0  0  0  0  0  0  0
   47.9240   34.8430   41.3640 C   0  0  0  0  0  0  0  0  0  0  0  0
   48.5430   35.3590   42.3200 O   0  0  0  0  0  0  0  0  0  0  0  0
   49.6110   35.0900   40.1100 H   0  0  0  0  0  0  0  0  0  0  0  0
   44.6380   33.3750   40.5150 C   0  0  0  0  0  0  0  0  0  0  0  0
   44.4370   32.2620   41.4720 C   0  0  0  0  0  0  0  0  0  0  0  0
   42.9750   32.3220   41.8950 C   0  0  0  0  0  0  0  0  0  0  0  0
   42.1890   32.5650   40.6210 C   0  0  0  0  0  0  0  0  0  0  0  0
   42.3140   33.9520   40.0530 C   0  0  0  0  0  0  0  0  0  0  0  0
   43.6370   34.4710   40.6130 C   0  0  0  0  0  0  0  0  0  0  0  0
   44.4270   32.9630   39.4900 H   0  0  0  0  0  0  0  0  0  0  0  0
   45.1500   31.9870   42.2000 H   0  0  0  0  0  0  0  0  0  0  0  0
   44.4100   31.2870   40.8700 H   0  0  0  0  0  0  0  0  0  0  0  0
   42.6370   31.2840   42.2060 H   0  0  0  0  0  0  0  0  0  0  0  0
   42.7480   32.9480   42.7360 H   0  0  0  0  0  0  0  0  0  0  0  0
   42.6210   31.8480   39.8700 H   0  0  0  0  0  0  0  0  0  0  0  0
   41.1360   32.2380   40.7350 H   0  0  0  0  0  0  0  0  0  0  0  0
   42.4910   33.8990   38.9400 H   0  0  0  0  0  0  0  0  0  0  0  0
   41.4750   34.6200   40.2500 H   0  0  0  0  0  0  0  0  0  0  0  0
   43.9470   35.4130   40.1770 H   0  0  0  0  0  0  0  0  0  0  0  0
   43.2220   34.5700   41.6710 H   0  0  0  0  0  0  0  0  0  0  0  0
   44.7480   36.0380   44.1080 C   0  0  0  0  0  0  0  0  0  0  0  0
   45.3680   35.8300   42.8380 C   0  0  0  0  0  0  0  0  0  0  0  0
   46.0710   34.5950   42.6790 C   0  0  0  0  0  0  0  0  0  0  0  0
   46.0810   33.7700   43.7220 N   0  0  0  0  0  0  0  0  0  0  0  0
   45.4930   33.9940   44.8930 C   0  0  0  0  0  0  0  0  0  0  0  0
   44.8250   35.1300   45.0870 N   0  0  0  0  0  0  0  0  0  0  0  0
   44.1980   36.9450   44.3060 H   0  0  0  0  0  0  0  0  0  0  0  0
   45.2800   36.5960   42.0710 H   0  0  0  0  0  0  0  0  0  0  0  0
   45.6600   33.1490   45.5710 H   0  0  0  0  0  0  0  0  0  0  0  0
   46.1060   33.1280   37.9700 C   0  0  0  0  0  0  0  0  0  0  0  0
   45.0920   33.5250   37.7390 H   0  0  0  0  0  0  0  0  0  0  0  0
   46.6820   33.5130   37.0730 H   0  0  0  0  0  0  0  0  0  0  0  0
   46.2080   31.6520   37.8220 C   0  0  0  0  0  0  0  0  0  0  0  0
   44.8250   31.0000   37.6640 C   0  0  0  0  0  0  0  0  0  0  0  0
   45.2060   29.6370   37.1620 C   0  0  0  0  0  0  0  0  0  0  0  0
   46.5490   29.7980   36.4500 C   0  0  0  0  0  0  0  0  0  0  0  0
   46.8260   31.3010   36.4910 C   0  0  0  0  0  0  0  0  0  0  0  0
  1 29  1  0  0  0  0
  2 10  1  0  0  0  0
  2  1  1  0  0  0  0
  3  2  2  0  0  0  0
  4  3  1  0  0  0  0
  4  6  1  0  0  0  0
  5  4  2  0  0  0  0
  6  7  1  0  0  0  0
  7  1  1  0  0  0  0
  7  8  2  0  0  0  0
  9  6  1  0  0  0  0
 10 15  1  0  0  0  0
 10 11  1  0  0  0  0
 11 12  1  0  0  0  0
 11 17  1  0  0  0  0
 12 19  1  0  0  0  0
 12 20  1  0  0  0  0
 13 22  1  0  0  0  0
 13 12  1  0  0  0  0
 14 24  1  0  0  0  0
 14 15  1  0  0  0  0
 14 13  1  0  0  0  0
 15 26  1  0  0  0  0
 16 10  1  0  0  0  0
 18 11  1  0  0  0  0
 21 13  1  0  0  0  0
 23 14  1  0  0  0  0
 25 15  1  0  0  0  0
 27 33  1  0  0  0  0
 27 32  1  0  0  0  0
 28 27  2  0  0  0  0
 29 28  1  0  0  0  0
 29 30  2  0  0  0  0
 30 31  1  0  0  0  0
 31 32  2  0  0  0  0
 31 35  1  0  0  0  0
 34 28  1  0  0  0  0
 36  3  1  0  0  0  0
 37 36  1  0  0  0  0
 38 36  1  0  0  0  0
 39 36  1  0  0  0  0
 40 39  1  0  0  0  0
 41 40  1  0  0  0  0
 42 43  1  0  0  0  0
 42 41  1  0  0  0  0
 43 39  1  0  0  0  0
M  END
>  <minimizedAffinity>
-5.40163088

>  <minimizedRMSD>
0.253365904

$$$$
