
 OpenBabel03232519493D

 46 50  0  0  1  0  0  0  0  0999 V2000
   46.3600   33.6830   42.1240 N   0  0  0  0  0  0  0  0  0  0  0  0
   47.6430   33.9790   41.4930 C   0  0  0  0  0  0  0  0  0  0  0  0
   47.1760   34.3690   40.1160 C   0  0  0  0  0  0  0  0  0  0  0  0
   46.2770   33.2080   39.8040 C   0  0  0  0  0  0  0  0  0  0  0  0
   45.5810   32.9670   41.1010 C   0  0  2  0  0  0  0  0  0  0  0  0
   48.2870   33.0720   41.4070 H   0  0  0  0  0  0  0  0  0  0  0  0
   48.1360   34.8380   41.9750 H   0  0  0  0  0  0  0  0  0  0  0  0
   46.6230   35.3320   40.1700 H   0  0  0  0  0  0  0  0  0  0  0  0
   48.0100   34.3990   39.3800 H   0  0  0  0  0  0  0  0  0  0  0  0
   45.5460   33.4310   38.9900 H   0  0  0  0  0  0  0  0  0  0  0  0
   46.9330   32.3830   39.4600 H   0  0  0  0  0  0  0  0  0  0  0  0
   45.7760   31.8960   41.3370 H   0  0  0  0  0  0  0  0  0  0  0  0
   44.1850   33.2440   41.1280 N   0  0  0  0  0  0  0  0  0  0  0  0
   43.5370   34.2790   40.5610 C   0  0  0  0  0  0  0  0  0  0  0  0
   42.1640   34.4380   40.6640 C   0  0  0  0  0  0  0  0  0  0  0  0
   41.4100   33.5160   41.3680 C   0  0  0  0  0  0  0  0  0  0  0  0
   40.1430   33.6180   41.4940 O   0  0  0  0  0  0  0  0  0  0  0  0
   42.0670   32.4820   41.9330 N   0  0  0  0  0  0  0  0  0  0  0  0
   43.3950   32.3640   41.8100 C   0  0  0  0  0  0  0  0  0  0  0  0
   43.9030   31.3580   42.3760 O   0  0  0  0  0  0  0  0  0  0  0  0
   44.1580   34.9790   40.0190 H   0  0  0  0  0  0  0  0  0  0  0  0
   41.5000   31.7860   42.4630 H   0  0  0  0  0  0  0  0  0  0  0  0
   41.4780   35.5850   40.0300 C   0  0  0  0  0  0  0  0  0  0  0  0
   42.1420   35.9520   39.2140 H   0  0  0  0  0  0  0  0  0  0  0  0
   41.3170   36.3560   40.8050 H   0  0  0  0  0  0  0  0  0  0  0  0
   40.4880   35.2680   39.6190 H   0  0  0  0  0  0  0  0  0  0  0  0
   44.7570   35.3420   45.0200 C   0  0  0  0  0  0  0  0  0  0  0  0
   45.1790   35.1280   43.7020 C   0  0  0  0  0  0  0  0  0  0  0  0
   45.9100   33.9820   43.4060 C   0  0  0  0  0  0  0  0  0  0  0  0
   46.1450   33.1710   44.4500 N   0  0  0  0  0  0  0  0  0  0  0  0
   45.7640   33.3370   45.7060 C   0  0  0  0  0  0  0  0  0  0  0  0
   45.0590   34.4480   45.9820 N   0  0  0  0  0  0  0  0  0  0  0  0
   44.1890   36.2250   45.2680 H   0  0  0  0  0  0  0  0  0  0  0  0
   44.9420   35.8390   42.9210 H   0  0  0  0  0  0  0  0  0  0  0  0
   46.0040   32.4730   46.8540 C   0  0  0  0  0  0  0  0  0  0  0  0
   45.4270   32.7390   48.0550 N   0  0  0  0  0  0  0  0  0  0  0  0
   45.5780   32.0250   49.1540 C   0  0  0  0  0  0  0  0  0  0  0  0
   46.3480   30.9290   49.1710 N   0  0  0  0  0  0  0  0  0  0  0  0
   46.9690   30.5730   48.0270 C   0  0  0  0  0  0  0  0  0  0  0  0
   47.7620   29.4570   48.0210 C   0  0  0  0  0  0  0  0  0  0  0  0
   48.4250   29.0490   46.8650 C   0  0  0  0  0  0  0  0  0  0  0  0
   49.0470   28.1760   46.8450 H   0  0  0  0  0  0  0  0  0  0  0  0
   48.2320   29.8400   45.7260 C   0  0  0  0  0  0  0  0  0  0  0  0
   48.7600   29.4950   44.8480 H   0  0  0  0  0  0  0  0  0  0  0  0
   47.4240   30.9520   45.7930 C   0  0  0  0  0  0  0  0  0  0  0  0
   46.7750   31.3570   46.9110 C   0  0  0  0  0  0  0  0  0  0  0  0
  1 29  1  0  0  0  0
  2  7  1  0  0  0  0
  2  1  1  0  0  0  0
  3  8  1  0  0  0  0
  3  2  1  0  0  0  0
  4  3  1  0  0  0  0
  4  5  1  0  0  0  0
  5 13  1  0  0  0  0
  5 12  1  1  0  0  0
  5  1  1  0  0  0  0
  6  2  1  0  0  0  0
  9  3  1  0  0  0  0
 10  4  1  0  0  0  0
 11  4  1  0  0  0  0
 13 19  1  0  0  0  0
 14 15  2  0  0  0  0
 14 13  1  0  0  0  0
 15 16  1  0  0  0  0
 16 17  2  0  0  0  0
 16 18  1  0  0  0  0
 18 22  1  0  0  0  0
 19 18  1  0  0  0  0
 19 20  2  0  0  0  0
 21 14  1  0  0  0  0
 23 15  1  0  0  0  0
 23 25  1  0  0  0  0
 24 23  1  0  0  0  0
 26 23  1  0  0  0  0
 27 33  1  0  0  0  0
 27 32  1  0  0  0  0
 28 27  2  0  0  0  0
 29 28  1  0  0  0  0
 29 30  2  0  0  0  0
 30 31  1  0  0  0  0
 31 32  2  0  0  0  0
 31 35  1  0  0  0  0
 34 28  1  0  0  0  0
 35 46  2  0  0  0  0
 35 36  1  0  0  0  0
 36 37  2  0  0  0  0
 37 38  1  0  0  0  0
 39 38  2  0  0  0  0
 40 39  1  0  0  0  0
 41 40  2  0  0  0  0
 42 41  1  0  0  0  0
 43 45  2  0  0  0  0
 43 41  1  0  0  0  0
 44 43  1  0  0  0  0
 45 46  1  0  0  0  0
 46 39  1  0  0  0  0
M  END
>  <minimizedAffinity>
-6.96230936

>  <minimizedRMSD>
1.32121801

$$$$
