
 OpenBabel03232519353D

 46 48  0  0  1  0  0  0  0  0999 V2000
   46.7610   34.3820   40.5060 C   0  0  1  0  0  0  0  0  0  0  0  0
   47.9500   33.9250   39.6450 C   0  0  0  0  0  0  0  0  0  0  0  0
   47.3510   33.6370   38.2710 C   0  0  0  0  0  0  0  0  0  0  0  0
   46.4950   32.4120   38.3700 C   0  0  0  0  0  0  0  0  0  0  0  0
   46.2110   32.0760   39.8000 C   0  0  0  0  0  0  0  0  0  0  0  0
   45.7780   33.3220   40.6060 C   0  0  2  0  0  0  0  0  0  0  0  0
   46.5020   35.3440   40.0540 H   0  0  0  0  0  0  0  0  0  0  0  0
   48.7200   34.7290   39.5740 H   0  0  0  0  0  0  0  0  0  0  0  0
   48.4640   33.0550   40.0660 H   0  0  0  0  0  0  0  0  0  0  0  0
   48.2210   33.4630   37.5710 H   0  0  0  0  0  0  0  0  0  0  0  0
   46.8300   34.5200   37.9060 H   0  0  0  0  0  0  0  0  0  0  0  0
   45.6120   32.4220   37.7030 H   0  0  0  0  0  0  0  0  0  0  0  0
   47.1050   31.5550   37.9920 H   0  0  0  0  0  0  0  0  0  0  0  0
   47.0850   31.5690   40.2570 H   0  0  0  0  0  0  0  0  0  0  0  0
   45.3610   31.3600   39.8200 H   0  0  0  0  0  0  0  0  0  0  0  0
   45.7190   32.7470   41.5560 H   0  0  0  0  0  0  0  0  0  0  0  0
   47.2800   34.7750   41.9040 C   0  0  0  0  0  0  0  0  0  0  0  0
   47.0950   35.8230   42.1450 H   0  0  0  0  0  0  0  0  0  0  0  0
   48.4150   34.7260   41.7870 H   0  0  0  0  0  0  0  0  0  0  0  0
   46.8200   33.7380   42.8300 C   0  0  0  0  0  0  0  0  0  0  0  0
   47.6550   33.0990   43.2210 H   0  0  0  0  0  0  0  0  0  0  0  0
   46.0230   33.0210   42.4950 H   0  0  0  0  0  0  0  0  0  0  0  0
   46.0220   33.5650   45.0990 C   0  0  0  0  0  0  0  0  0  0  0  0
   46.0380   34.2940   43.9090 C   0  0  0  0  0  0  0  0  0  0  0  0
   45.3200   35.4270   43.7570 C   0  0  0  0  0  0  0  0  0  0  0  0
   44.5710   35.8430   44.8100 N   0  0  0  0  0  0  0  0  0  0  0  0
   44.5320   35.1610   45.9780 C   0  0  0  0  0  0  0  0  0  0  0  0
   45.2560   34.0250   46.1220 N   0  0  0  0  0  0  0  0  0  0  0  0
   46.5980   32.6570   45.2200 H   0  0  0  0  0  0  0  0  0  0  0  0
   45.2410   36.0690   42.9030 H   0  0  0  0  0  0  0  0  0  0  0  0
   43.9490   35.4600   46.8350 H   0  0  0  0  0  0  0  0  0  0  0  0
   44.4760   33.6890   39.9730 C   0  0  0  0  0  0  0  0  0  0  0  0
   44.5000   33.9540   38.9110 H   0  0  0  0  0  0  0  0  0  0  0  0
   43.7910   32.8210   40.0520 H   0  0  0  0  0  0  0  0  0  0  0  0
   43.8190   34.8810   40.6710 C   0  0  0  0  0  0  0  0  0  0  0  0
   43.6410   34.7970   41.7190 H   0  0  0  0  0  0  0  0  0  0  0  0
   44.2210   35.8610   40.2980 H   0  0  0  0  0  0  0  0  0  0  0  0
   42.4250   34.8860   40.0520 C   0  0  0  0  0  0  0  0  0  0  0  0
   41.3630   35.4100   40.7830 C   0  0  0  0  0  0  0  0  0  0  0  0
   41.5760   35.8020   41.7840 H   0  0  0  0  0  0  0  0  0  0  0  0
   40.0680   35.4710   40.3390 C   0  0  0  0  0  0  0  0  0  0  0  0
   39.8220   34.9790   39.0890 C   0  0  0  0  0  0  0  0  0  0  0  0
   38.8260   34.9790   38.6410 H   0  0  0  0  0  0  0  0  0  0  0  0
   40.8540   34.4540   38.3400 C   0  0  0  0  0  0  0  0  0  0  0  0
   40.7030   34.0460   37.3310 H   0  0  0  0  0  0  0  0  0  0  0  0
   42.1560   34.3940   38.7920 C   0  0  0  0  0  0  0  0  0  0  0  0
  1  7  1  6  0  0  0
  1  6  1  0  0  0  0
  1 17  1  0  0  0  0
  2  9  1  0  0  0  0
  2  1  1  0  0  0  0
  3  4  1  0  0  0  0
  3  2  1  0  0  0  0
  4  5  1  0  0  0  0
  5 15  1  0  0  0  0
  5 14  1  0  0  0  0
  5  6  1  0  0  0  0
  6 16  1  1  0  0  0
  8  2  1  0  0  0  0
 10  3  1  0  0  0  0
 11  3  1  0  0  0  0
 12  4  1  0  0  0  0
 13  4  1  0  0  0  0
 17 18  1  0  0  0  0
 17 20  1  0  0  0  0
 19 17  1  0  0  0  0
 20 21  1  0  0  0  0
 20 24  1  0  0  0  0
 22 20  1  0  0  0  0
 23 29  1  0  0  0  0
 23 28  1  0  0  0  0
 24 23  2  0  0  0  0
 25 24  1  0  0  0  0
 25 26  2  0  0  0  0
 26 27  1  0  0  0  0
 27 28  2  0  0  0  0
 27 31  1  0  0  0  0
 30 25  1  0  0  0  0
 32 34  1  0  0  0  0
 32  6  1  0  0  0  0
 32 35  1  0  0  0  0
 33 32  1  0  0  0  0
 35 36  1  0  0  0  0
 37 35  1  0  0  0  0
 38 35  1  0  0  0  0
 38 39  1  0  0  0  0
 39 40  1  0  0  0  0
 41 39  2  0  0  0  0
 42 41  1  0  0  0  0
 43 42  1  0  0  0  0
 44 46  1  0  0  0  0
 44 42  2  0  0  0  0
 45 44  1  0  0  0  0
 46 38  2  0  0  0  0
M  END
>  <minimizedAffinity>
-5.53199196

>  <minimizedRMSD>
2.33976889

$$$$
