
 OpenBabel03232517463D

 22 24  0  0  0  0  0  0  0  0999 V2000
   46.7760   31.9990   47.6290 N   0  0  0  0  0  0  0  0  0  0  0  0
   46.7230   32.7060   46.5220 C   0  0  0  0  0  0  0  0  0  0  0  0
   45.5430   33.4440   46.5240 C   0  0  0  0  0  0  0  0  0  0  0  0
   44.8990   33.1670   47.6410 N   0  0  0  0  0  0  0  0  0  0  0  0
   45.6430   32.2800   48.3340 C   0  0  0  0  0  0  0  0  0  0  0  0
   47.5230   32.6450   45.7990 H   0  0  0  0  0  0  0  0  0  0  0  0
   45.3090   31.9070   49.2920 H   0  0  0  0  0  0  0  0  0  0  0  0
   48.7180   31.6270   48.9840 C   0  0  0  0  0  0  0  0  0  0  0  0
   47.7570   31.1030   48.0960 C   0  0  0  0  0  0  0  0  0  0  0  0
   47.8450   29.7490   47.7470 C   0  0  0  0  0  0  0  0  0  0  0  0
   48.8520   29.0030   48.2800 N   0  0  0  0  0  0  0  0  0  0  0  0
   49.7580   29.5520   49.1340 C   0  0  0  0  0  0  0  0  0  0  0  0
   49.6880   30.8650   49.4840 N   0  0  0  0  0  0  0  0  0  0  0  0
   48.7550   32.6520   49.3270 H   0  0  0  0  0  0  0  0  0  0  0  0
   47.1010   29.3780   47.0700 H   0  0  0  0  0  0  0  0  0  0  0  0
   50.4600   28.7790   49.4280 H   0  0  0  0  0  0  0  0  0  0  0  0
   45.2540   34.3150   45.3880 C   0  0  0  0  0  0  0  0  0  0  0  0
   45.9720   34.1810   44.2250 C   0  0  0  0  0  0  0  0  0  0  0  0
   45.5280   35.0790   43.3430 N   0  0  0  0  0  0  0  0  0  0  0  0
   44.5360   35.7800   43.9350 C   0  0  0  0  0  0  0  0  0  0  0  0
   44.3650   35.3100   45.1980 N   0  0  0  0  0  0  0  0  0  0  0  0
   43.7170   35.5780   45.9540 H   0  0  0  0  0  0  0  0  0  0  0  0
  1  9  1  0  0  0  0
  1  5  1  0  0  0  0
  2  3  2  0  0  0  0
  2  1  1  0  0  0  0
  3  4  1  0  0  0  0
  4  5  2  0  0  0  0
  5  7  1  0  0  0  0
  6  2  1  0  0  0  0
  8 14  1  0  0  0  0
  8 13  1  0  0  0  0
  9  8  2  0  0  0  0
 10  9  1  0  0  0  0
 10 11  2  0  0  0  0
 11 12  1  0  0  0  0
 12 16  1  0  0  0  0
 12 13  2  0  0  0  0
 15 10  1  0  0  0  0
 17  3  1  0  0  0  0
 18 17  2  0  0  0  0
 19 20  2  0  0  0  0
 19 18  1  0  0  0  0
 20 21  1  0  0  0  0
 21 17  1  0  0  0  0
 21 22  1  0  0  0  0
M  END
>  <minimizedAffinity>
-4.78138399

>  <minimizedRMSD>
7.69354486

$$$$
