
 OpenBabel03232520533D

 32 34  0  0  1  0  0  0  0  0999 V2000
   46.8110   32.8910   44.9890 C   0  0  2  0  0  0  0  0  0  0  0  0
   45.5760   33.6240   45.4540 C   0  0  0  0  0  0  0  0  0  0  0  0
   45.1370   34.7430   44.6590 C   0  0  0  0  0  0  0  0  0  0  0  0
   45.8610   35.1420   43.4590 C   0  0  1  0  0  0  0  0  0  0  0  0
   47.1130   34.4120   43.1540 C   0  0  0  0  0  0  0  0  0  0  0  0
   46.9600   32.9640   43.5100 C   0  0  0  0  0  0  0  0  0  0  0  0
   47.6670   33.4660   45.4520 H   0  0  0  0  0  0  0  0  0  0  0  0
   44.8800   33.5310   46.2770 H   0  0  0  0  0  0  0  0  0  0  0  0
   44.2820   35.3210   44.9020 H   0  0  0  0  0  0  0  0  0  0  0  0
   46.1150   36.2210   43.5370 H   0  0  0  0  0  0  0  0  0  0  0  0
   47.9500   34.8480   43.7110 H   0  0  0  0  0  0  0  0  0  0  0  0
   47.3380   34.5400   42.0730 H   0  0  0  0  0  0  0  0  0  0  0  0
   47.9270   32.4760   43.2530 H   0  0  0  0  0  0  0  0  0  0  0  0
   46.0890   32.4990   43.0300 H   0  0  0  0  0  0  0  0  0  0  0  0
   45.9950   31.2550   46.6180 C   0  0  0  0  0  0  0  0  0  0  0  0
   46.8460   31.5610   45.5720 C   0  0  0  0  0  0  0  0  0  0  0  0
   47.7090   30.5500   45.1460 C   0  0  0  0  0  0  0  0  0  0  0  0
   47.6960   29.3430   45.7390 N   0  0  0  0  0  0  0  0  0  0  0  0
   46.8450   29.0640   46.7700 C   0  0  0  0  0  0  0  0  0  0  0  0
   45.9960   30.0320   47.2020 N   0  0  0  0  0  0  0  0  0  0  0  0
   45.2690   31.9150   47.0700 H   0  0  0  0  0  0  0  0  0  0  0  0
   48.3930   30.7390   44.3320 H   0  0  0  0  0  0  0  0  0  0  0  0
   46.8250   27.7570   47.4190 C   0  0  0  0  0  0  0  0  0  0  0  0
   45.6770   27.0090   47.5910 C   0  0  0  0  0  3  0  0  0  0  0  0
   46.0650   25.8770   48.2240 N   0  0  0  0  0  0  0  0  0  0  0  0
   47.3950   25.9340   48.4300 C   0  0  0  0  0  3  0  0  0  0  0  0
   47.8850   27.1040   47.9330 N   0  0  0  0  0  0  0  0  0  0  0  0
   48.8640   27.4660   47.9250 H   0  0  0  0  0  0  0  0  0  0  0  0
   44.8900   35.0450   42.2700 C   0  0  0  0  0  0  0  0  0  0  0  0
   43.8870   34.1350   42.4740 F   0  0  0  0  0  0  0  0  0  0  0  0
   44.2760   36.2950   42.1490 F   0  0  0  0  0  0  0  0  0  0  0  0
   45.5940   34.8160   41.1020 F   0  0  0  0  0  0  0  0  0  0  0  0
  1  7  1  1  0  0  0
  1  2  1  0  0  0  0
  1 16  1  0  0  0  0
  2  8  1  0  0  0  0
  3  9  1  0  0  0  0
  3  2  2  0  0  0  0
  4 10  1  1  0  0  0
  4  3  1  0  0  0  0
  5  4  1  0  0  0  0
  5  6  1  0  0  0  0
  5 11  1  0  0  0  0
  6  1  1  0  0  0  0
 12  5  1  0  0  0  0
 13  6  1  0  0  0  0
 14  6  1  0  0  0  0
 15 21  1  0  0  0  0
 15 20  1  0  0  0  0
 16 15  2  0  0  0  0
 17 16  1  0  0  0  0
 17 18  2  0  0  0  0
 18 19  1  0  0  0  0
 19 20  2  0  0  0  0
 19 23  1  0  0  0  0
 22 17  1  0  0  0  0
 23 24  2  0  0  0  0
 23 27  1  0  0  0  0
 24 25  1  0  0  0  0
 25 26  2  0  0  0  0
 27 26  1  0  0  0  0
 28 27  1  0  0  0  0
 29 30  1  0  0  0  0
 29  4  1  0  0  0  0
 31 29  1  0  0  0  0
 32 29  1  0  0  0  0
M  END
>  <minimizedAffinity>
-4.78567362

>  <minimizedRMSD>
2.13429332

$$$$
