
 OpenBabel03232520463D

 38 41  0  0  0  0  0  0  0  0999 V2000
   46.5220   34.5630   42.1720 C   0  0  0  0  0  0  0  0  0  0  0  0
   47.8270   34.9320   42.0270 C   0  0  0  0  0  0  0  0  0  0  0  0
   48.4880   34.8230   40.8020 C   0  0  0  0  0  0  0  0  0  0  0  0
   47.8030   34.3230   39.6840 C   0  0  0  0  0  0  0  0  0  0  0  0
   46.4960   33.9580   39.8420 C   0  0  0  0  0  0  0  0  0  0  0  0
   45.8680   34.0780   41.0740 C   0  0  0  0  0  0  0  0  0  0  0  0
   48.4380   35.3280   42.8300 H   0  0  0  0  0  0  0  0  0  0  0  0
   49.5220   35.1120   40.6730 H   0  0  0  0  0  0  0  0  0  0  0  0
   48.2780   34.2220   38.7140 H   0  0  0  0  0  0  0  0  0  0  0  0
   45.9130   33.5640   39.0180 H   0  0  0  0  0  0  0  0  0  0  0  0
   44.5090   33.6860   41.1910 N   0  0  0  0  0  0  0  0  0  0  0  0
   43.6780   34.6330   40.6780 C   0  0  0  0  0  0  0  0  0  0  0  0
   42.2920   34.4610   40.6870 C   0  0  0  0  0  0  0  0  0  0  0  0
   41.8100   33.2860   41.2370 C   0  0  0  0  0  0  0  0  0  0  0  0
   40.5670   33.0590   41.2800 O   0  0  0  0  0  0  0  0  0  0  0  0
   42.6540   32.3740   41.7320 N   0  0  0  0  0  0  0  0  0  0  0  0
   43.9890   32.5550   41.7180 C   0  0  0  0  0  0  0  0  0  0  0  0
   44.8560   31.7680   42.1520 O   0  0  0  0  0  0  0  0  0  0  0  0
   43.9860   35.5690   40.2360 H   0  0  0  0  0  0  0  0  0  0  0  0
   42.3500   31.4590   42.1650 H   0  0  0  0  0  0  0  0  0  0  0  0
   41.3550   35.4690   40.1400 C   0  0  0  0  0  0  0  0  0  0  0  0
   41.0510   36.0890   41.0290 H   0  0  0  0  0  0  0  0  0  0  0  0
   41.9660   36.1570   39.5050 H   0  0  0  0  0  0  0  0  0  0  0  0
   40.4960   35.0480   39.6100 H   0  0  0  0  0  0  0  0  0  0  0  0
   44.4590   35.7210   45.1090 C   0  0  0  0  0  0  0  0  0  0  0  0
   44.9720   35.6830   43.8090 C   0  0  0  0  0  0  0  0  0  0  0  0
   45.9140   34.7110   43.4820 C   0  0  0  0  0  0  0  0  0  0  0  0
   46.2740   33.8620   44.4500 N   0  0  0  0  0  0  0  0  0  0  0  0
   45.7680   33.9120   45.7050 C   0  0  0  0  0  0  0  0  0  0  0  0
   44.8640   34.8390   46.0310 N   0  0  0  0  0  0  0  0  0  0  0  0
   43.7230   36.5220   45.2690 H   0  0  0  0  0  0  0  0  0  0  0  0
   44.7010   36.3540   43.0050 H   0  0  0  0  0  0  0  0  0  0  0  0
   46.2430   32.9320   46.6660 C   0  0  0  0  0  0  0  0  0  0  0  0
   45.7480   31.6330   46.8040 C   0  0  0  0  0  3  0  0  0  0  0  0
   46.4770   31.1200   47.7920 N   0  0  0  0  0  0  0  0  0  0  0  0
   47.3710   31.9850   48.2670 C   0  0  0  0  0  3  0  0  0  0  0  0
   47.2270   33.1250   47.5620 N   0  0  0  0  0  0  0  0  0  0  0  0
   47.8150   33.9550   47.7460 H   0  0  0  0  0  0  0  0  0  0  0  0
  1 27  1  0  0  0  0
  2  1  1  0  0  0  0
  2  7  1  0  0  0  0
  3  2  2  0  0  0  0
  4  5  2  0  0  0  0
  4  3  1  0  0  0  0
  5  6  1  0  0  0  0
  6 11  1  0  0  0  0
  6  1  2  0  0  0  0
  8  3  1  0  0  0  0
  9  4  1  0  0  0  0
 10  5  1  0  0  0  0
 11 17  1  0  0  0  0
 12 13  2  0  0  0  0
 12 11  1  0  0  0  0
 13 14  1  0  0  0  0
 14 15  2  0  0  0  0
 14 16  1  0  0  0  0
 16 20  1  0  0  0  0
 17 16  1  0  0  0  0
 17 18  2  0  0  0  0
 19 12  1  0  0  0  0
 21 13  1  0  0  0  0
 21 22  1  0  0  0  0
 23 21  1  0  0  0  0
 24 21  1  0  0  0  0
 25 31  1  0  0  0  0
 25 30  1  0  0  0  0
 26 25  2  0  0  0  0
 27 26  1  0  0  0  0
 27 28  2  0  0  0  0
 28 29  1  0  0  0  0
 29 30  2  0  0  0  0
 29 33  1  0  0  0  0
 32 26  1  0  0  0  0
 33 34  2  0  0  0  0
 33 37  1  0  0  0  0
 34 35  1  0  0  0  0
 35 36  2  0  0  0  0
 37 38  1  0  0  0  0
 37 36  1  0  0  0  0
M  END
>  <minimizedAffinity>
-7.54670811

>  <minimizedRMSD>
0.423446566

$$$$
