
 OpenBabel03232520463D

 38 41  0  0  0  0  0  0  0  0999 V2000
   46.4680   34.6450   42.1580 C   0  0  0  0  0  0  0  0  0  0  0  0
   47.7740   35.0180   42.0240 C   0  0  0  0  0  0  0  0  0  0  0  0
   48.4610   34.8570   40.8190 C   0  0  0  0  0  0  0  0  0  0  0  0
   47.8040   34.2990   39.7110 C   0  0  0  0  0  0  0  0  0  0  0  0
   46.4970   33.9310   39.8590 C   0  0  0  0  0  0  0  0  0  0  0  0
   45.8420   34.1040   41.0700 C   0  0  0  0  0  0  0  0  0  0  0  0
   48.3640   35.4560   42.8190 H   0  0  0  0  0  0  0  0  0  0  0  0
   49.4960   35.1480   40.6980 H   0  0  0  0  0  0  0  0  0  0  0  0
   48.3010   34.1580   38.7580 H   0  0  0  0  0  0  0  0  0  0  0  0
   45.9340   33.4950   39.0420 H   0  0  0  0  0  0  0  0  0  0  0  0
   44.4830   33.7060   41.1770 N   0  0  0  0  0  0  0  0  0  0  0  0
   43.6530   34.6480   40.6520 C   0  0  0  0  0  0  0  0  0  0  0  0
   42.2670   34.4690   40.6490 C   0  0  0  0  0  0  0  0  0  0  0  0
   41.7860   33.2950   41.2010 C   0  0  0  0  0  0  0  0  0  0  0  0
   40.5440   33.0630   41.2330 O   0  0  0  0  0  0  0  0  0  0  0  0
   42.6290   32.3900   41.7080 N   0  0  0  0  0  0  0  0  0  0  0  0
   43.9640   32.5760   41.7050 C   0  0  0  0  0  0  0  0  0  0  0  0
   44.8300   31.7950   42.1510 O   0  0  0  0  0  0  0  0  0  0  0  0
   43.9610   35.5830   40.2080 H   0  0  0  0  0  0  0  0  0  0  0  0
   42.3250   31.4750   42.1430 H   0  0  0  0  0  0  0  0  0  0  0  0
   41.3320   35.4700   40.0880 C   0  0  0  0  0  0  0  0  0  0  0  0
   41.0170   36.0930   40.9720 H   0  0  0  0  0  0  0  0  0  0  0  0
   41.9450   36.1580   39.4550 H   0  0  0  0  0  0  0  0  0  0  0  0
   40.4800   35.0440   39.5530 H   0  0  0  0  0  0  0  0  0  0  0  0
   44.4210   35.9900   45.0250 C   0  0  0  0  0  0  0  0  0  0  0  0
   44.9730   35.9040   43.7430 C   0  0  0  0  0  0  0  0  0  0  0  0
   45.8320   34.8490   43.4470 C   0  0  0  0  0  0  0  0  0  0  0  0
   46.0780   33.9710   44.4240 N   0  0  0  0  0  0  0  0  0  0  0  0
   45.5360   34.0680   45.6610 C   0  0  0  0  0  0  0  0  0  0  0  0
   44.7110   35.0750   45.9580 N   0  0  0  0  0  0  0  0  0  0  0  0
   43.7560   36.8560   45.1620 H   0  0  0  0  0  0  0  0  0  0  0  0
   44.7930   36.5970   42.9320 H   0  0  0  0  0  0  0  0  0  0  0  0
   45.8840   33.0490   46.6350 C   0  0  0  0  0  0  0  0  0  0  0  0
   45.1560   32.7550   47.7900 C   0  0  0  0  0  3  0  0  0  0  0  0
   45.8490   31.7680   48.3570 N   0  0  0  0  0  0  0  0  0  0  0  0
   46.9290   31.4360   47.6540 C   0  0  0  0  0  3  0  0  0  0  0  0
   46.9550   32.2370   46.5710 N   0  0  0  0  0  0  0  0  0  0  0  0
   47.7070   32.1700   45.8640 H   0  0  0  0  0  0  0  0  0  0  0  0
  1 27  1  0  0  0  0
  2  1  1  0  0  0  0
  2  7  1  0  0  0  0
  3  2  2  0  0  0  0
  4  5  2  0  0  0  0
  4  3  1  0  0  0  0
  5  6  1  0  0  0  0
  6 11  1  0  0  0  0
  6  1  2  0  0  0  0
  8  3  1  0  0  0  0
  9  4  1  0  0  0  0
 10  5  1  0  0  0  0
 11 17  1  0  0  0  0
 12 11  1  0  0  0  0
 13 12  2  0  0  0  0
 13 14  1  0  0  0  0
 14 15  2  0  0  0  0
 14 16  1  0  0  0  0
 16 20  1  0  0  0  0
 17 16  1  0  0  0  0
 17 18  2  0  0  0  0
 19 12  1  0  0  0  0
 21 13  1  0  0  0  0
 21 22  1  0  0  0  0
 23 21  1  0  0  0  0
 24 21  1  0  0  0  0
 25 31  1  0  0  0  0
 25 30  1  0  0  0  0
 26 25  2  0  0  0  0
 27 26  1  0  0  0  0
 27 28  2  0  0  0  0
 28 29  1  0  0  0  0
 29 30  2  0  0  0  0
 29 33  1  0  0  0  0
 32 26  1  0  0  0  0
 33 34  2  0  0  0  0
 34 35  1  0  0  0  0
 36 35  2  0  0  0  0
 37 33  1  0  0  0  0
 37 36  1  0  0  0  0
 38 37  1  0  0  0  0
M  END
>  <minimizedAffinity>
-7.26356173

>  <minimizedRMSD>
0.188590705

$$$$
