
 OpenBabel03232520233D

 29 32  0  0  0  0  0  0  0  0999 V2000
   45.2220   33.7820   41.5110 C   0  0  0  0  0  0  0  0  0  0  0  0
   45.8760   34.4540   42.5270 C   0  0  0  0  0  0  0  0  0  0  0  0
   47.0770   34.8570   42.0930 N   0  0  0  0  0  0  0  0  0  0  0  0
   47.2060   34.4560   40.8170 C   0  0  0  0  0  0  0  0  0  0  0  0
   48.2530   34.6220   39.9230 C   0  0  0  0  0  0  0  0  0  0  0  0
   48.1180   34.1050   38.6590 C   0  0  0  0  0  0  0  0  0  0  0  0
   47.0040   33.4180   38.1950 C   0  0  0  0  0  0  0  0  0  0  0  0
   45.9980   33.2870   39.1330 C   0  0  0  0  0  0  0  0  0  0  0  0
   46.0560   33.7740   40.4130 C   0  0  0  0  0  0  0  0  0  0  0  0
   47.8000   35.3910   42.6400 H   0  0  0  0  0  0  0  0  0  0  0  0
   49.1600   35.1510   40.2210 H   0  0  0  0  0  0  0  0  0  0  0  0
   48.9700   34.2640   37.9990 H   0  0  0  0  0  0  0  0  0  0  0  0
   46.9520   33.0310   37.1870 H   0  0  0  0  0  0  0  0  0  0  0  0
   45.0990   32.7510   38.8110 H   0  0  0  0  0  0  0  0  0  0  0  0
   41.5360   33.3220   41.1420 C   0  0  0  0  0  0  0  0  0  0  0  0
   42.8110   33.9180   41.0800 C   0  0  0  0  0  0  0  0  0  0  0  0
   43.8990   33.1850   41.5670 C   0  0  0  0  0  0  0  0  0  0  0  0
   43.6740   31.9260   42.0790 N   0  0  0  0  0  0  0  0  0  0  0  0
   42.4230   31.4030   42.1140 C   0  0  0  0  0  0  0  0  0  0  0  0
   41.3550   32.0910   41.6500 N   0  0  0  0  0  0  0  0  0  0  0  0
   40.6920   33.8880   40.7670 H   0  0  0  0  0  0  0  0  0  0  0  0
   42.9460   34.9060   40.6710 H   0  0  0  0  0  0  0  0  0  0  0  0
   42.2280   30.4290   42.5080 H   0  0  0  0  0  0  0  0  0  0  0  0
   45.3850   34.7150   43.8820 C   0  0  0  0  0  0  0  0  0  0  0  0
   44.6360   35.7430   44.4460 C   0  0  0  0  0  0  0  0  0  0  0  0
   44.4650   35.4790   45.7520 N   0  0  0  0  0  0  0  0  0  0  0  0
   45.0910   34.3040   46.0220 C   0  0  0  0  0  0  0  0  0  0  0  0
   45.6570   33.8280   44.8840 N   0  0  0  0  0  0  0  0  0  0  0  0
   46.1820   32.9280   44.9080 H   0  0  0  0  0  0  0  0  0  0  0  0
  1 17  1  0  0  0  0
  1  2  2  0  0  0  0
  2 24  1  0  0  0  0
  3  2  1  0  0  0  0
  3 10  1  0  0  0  0
  4  3  1  0  0  0  0
  5 11  1  0  0  0  0
  5  4  2  0  0  0  0
  6  5  1  0  0  0  0
  7  6  2  0  0  0  0
  7  8  1  0  0  0  0
  8  9  2  0  0  0  0
  9  4  1  0  0  0  0
  9  1  1  0  0  0  0
 12  6  1  0  0  0  0
 13  7  1  0  0  0  0
 14  8  1  0  0  0  0
 15 20  1  0  0  0  0
 16 15  2  0  0  0  0
 16 17  1  0  0  0  0
 17 18  2  0  0  0  0
 18 19  1  0  0  0  0
 19 23  1  0  0  0  0
 20 19  2  0  0  0  0
 21 15  1  0  0  0  0
 22 16  1  0  0  0  0
 24 25  2  0  0  0  0
 24 28  1  0  0  0  0
 25 26  1  0  0  0  0
 26 27  2  0  0  0  0
 28 29  1  0  0  0  0
 28 27  1  0  0  0  0
M  END
>  <minimizedAffinity>
-5.48770905

>  <minimizedRMSD>
3.91820049

$$$$
