
 OpenBabel03232517563D

 37 40  0  0  0  0  0  0  0  0999 V2000
   47.1240   30.4560   45.4260 N   0  0  0  0  0  0  0  0  0  0  0  0
   47.1270   29.1290   45.1200 C   0  0  0  0  0  0  0  0  0  0  0  0
   47.6060   28.9860   43.8710 N   0  0  0  0  0  0  0  0  0  0  0  0
   47.9080   30.1950   43.3860 C   0  0  0  0  0  0  0  0  0  0  0  0
   48.4220   30.6900   42.1950 C   0  0  0  0  0  0  0  0  0  0  0  0
   48.5910   32.0110   42.0690 N   0  0  0  0  0  0  0  0  0  0  0  0
   48.3010   32.9250   43.0100 C   0  0  0  0  0  0  0  0  0  0  0  0
   47.7980   32.4700   44.1810 N   0  0  0  0  0  0  0  0  0  0  0  0
   47.6050   31.1340   44.3650 C   0  0  0  0  0  0  0  0  0  0  0  0
   46.7880   28.3590   45.8010 H   0  0  0  0  0  0  0  0  0  0  0  0
   48.6690   29.9970   41.4130 H   0  0  0  0  0  0  0  0  0  0  0  0
   45.3820   32.7840   47.6870 C   0  0  0  0  0  0  0  0  0  0  0  0
   45.8300   32.1590   46.5200 C   0  0  0  0  0  0  0  0  0  0  0  0
   46.7010   31.0520   46.6310 C   0  0  0  0  0  0  0  0  0  0  0  0
   47.0450   30.6690   47.8690 N   0  0  0  0  0  0  0  0  0  0  0  0
   46.6050   31.2810   48.9750 C   0  0  0  0  0  0  0  0  0  0  0  0
   45.7830   32.3290   48.8950 N   0  0  0  0  0  0  0  0  0  0  0  0
   44.5110   33.8980   47.7090 N   0  0  0  0  0  0  0  0  0  0  0  0
   45.4650   32.5840   45.5950 H   0  0  0  0  0  0  0  0  0  0  0  0
   46.9790   30.8460   49.8850 H   0  0  0  0  0  0  0  0  0  0  0  0
   44.9470   34.8610   47.7780 H   0  0  0  0  0  0  0  0  0  0  0  0
   43.4690   33.9700   47.6700 H   0  0  0  0  0  0  0  0  0  0  0  0
   48.5460   34.3410   42.7190 C   0  0  0  0  0  0  0  0  0  0  0  0
   48.1290   34.9060   43.6070 H   0  0  0  0  0  0  0  0  0  0  0  0
   49.6090   34.5650   42.7240 H   0  0  0  0  0  0  0  0  0  0  0  0
   47.8870   34.8210   41.4640 C   0  0  0  0  0  0  0  0  0  0  0  0
   48.2790   35.8030   41.1770 H   0  0  0  0  0  0  0  0  0  0  0  0
   48.0050   34.0720   40.6400 H   0  0  0  0  0  0  0  0  0  0  0  0
   46.4240   34.9370   41.7350 C   0  0  0  0  0  0  0  0  0  0  0  0
   45.9970   35.6590   42.8360 C   0  0  0  0  0  0  0  0  0  0  0  0
   46.7500   36.1180   43.4650 H   0  0  0  0  0  0  0  0  0  0  0  0
   44.6530   35.7680   43.0910 C   0  0  0  0  0  0  0  0  0  0  0  0
   43.6920   35.1840   42.2900 C   0  0  0  0  0  0  0  0  0  0  0  0
   42.6640   35.3460   42.6010 H   0  0  0  0  0  0  0  0  0  0  0  0
   44.1060   34.4600   41.1890 C   0  0  0  0  0  0  0  0  0  0  0  0
   43.3530   34.0140   40.5790 H   0  0  0  0  0  0  0  0  0  0  0  0
   45.4560   34.3440   40.9230 C   0  0  0  0  0  0  0  0  0  0  0  0
  1 14  1  0  0  0  0
  2  1  1  0  0  0  0
  2 10  1  0  0  0  0
  3  2  2  0  0  0  0
  4  3  1  0  0  0  0
  4  9  1  0  0  0  0
  5  4  2  0  0  0  0
  6  5  1  0  0  0  0
  6  7  2  0  0  0  0
  7  8  1  0  0  0  0
  8  9  2  0  0  0  0
  9  1  1  0  0  0  0
 11  5  1  0  0  0  0
 12 18  1  0  0  0  0
 12 17  1  0  0  0  0
 13 14  1  0  0  0  0
 13 12  2  0  0  0  0
 14 15  2  0  0  0  0
 15 16  1  0  0  0  0
 16 20  1  0  0  0  0
 17 16  2  0  0  0  0
 18 21  1  0  0  0  0
 19 13  1  0  0  0  0
 22 18  1  0  0  0  0
 23 25  1  0  0  0  0
 23  7  1  0  0  0  0
 23 24  1  0  0  0  0
 26 29  1  0  0  0  0
 26 23  1  0  0  0  0
 27 26  1  0  0  0  0
 28 26  1  0  0  0  0
 29 30  1  0  0  0  0
 30 32  2  0  0  0  0
 30 31  1  0  0  0  0
 33 34  1  0  0  0  0
 33 32  1  0  0  0  0
 35 33  2  0  0  0  0
 36 35  1  0  0  0  0
 37 35  1  0  0  0  0
 37 29  2  0  0  0  0
M  END
>  <minimizedAffinity>
-5.9280653

>  <minimizedRMSD>
4.00038815

$$$$
