
 OpenBabel03232520513D

 29 31  0  0  1  0  0  0  0  0999 V2000
   46.4170   34.1370   44.4940 C   0  0  2  0  0  0  0  0  0  0  0  0
   45.3020   34.6330   45.3870 C   0  0  0  0  0  0  0  0  0  0  0  0
   44.5170   35.7480   44.8930 C   0  0  0  0  0  0  0  0  0  0  0  0
   44.8100   36.3500   43.5870 C   0  0  2  0  0  0  0  0  0  0  0  0
   46.0110   35.8400   42.8700 C   0  0  0  0  0  0  0  0  0  0  0  0
   46.0510   34.3270   43.0550 C   0  0  0  0  0  0  0  0  0  0  0  0
   47.3010   34.8040   44.7220 H   0  0  0  0  0  0  0  0  0  0  0  0
   44.9650   34.3110   46.3490 H   0  0  0  0  0  0  0  0  0  0  0  0
   43.7220   36.1380   45.4780 H   0  0  0  0  0  0  0  0  0  0  0  0
   43.9020   36.2970   42.9570 H   0  0  0  0  0  0  0  0  0  0  0  0
   46.9620   36.3000   43.1370 H   0  0  0  0  0  0  0  0  0  0  0  0
   45.8540   35.9830   41.7660 H   0  0  0  0  0  0  0  0  0  0  0  0
   44.9880   33.9750   42.9550 H   0  0  0  0  0  0  0  0  0  0  0  0
   46.7260   33.8460   42.3550 H   0  0  0  0  0  0  0  0  0  0  0  0
   46.5850   32.3370   46.1910 C   0  0  0  0  0  0  0  0  0  0  0  0
   46.7660   32.7660   44.8770 C   0  0  0  0  0  0  0  0  0  0  0  0
   47.3030   31.8340   43.9510 C   0  0  0  0  0  0  0  0  0  0  0  0
   47.6090   30.5920   44.3810 N   0  0  0  0  0  0  0  0  0  0  0  0
   47.4210   30.2090   45.6670 C   0  0  0  0  0  0  0  0  0  0  0  0
   46.9140   31.0780   46.5520 N   0  0  0  0  0  0  0  0  0  0  0  0
   46.1820   32.9810   46.9600 H   0  0  0  0  0  0  0  0  0  0  0  0
   47.4780   32.0760   42.9160 H   0  0  0  0  0  0  0  0  0  0  0  0
   47.6760   29.2050   45.9820 H   0  0  0  0  0  0  0  0  0  0  0  0
   45.0810   37.8040   43.8570 C   0  0  0  0  0  0  0  0  0  0  0  0
   45.4270   38.9160   43.1170 C   0  0  0  0  0  3  0  0  0  0  0  0
   45.5220   39.9610   43.9870 N   0  0  0  0  0  0  0  0  0  0  0  0
   45.2470   39.5300   45.2300 C   0  0  0  0  0  3  0  0  0  0  0  0
   44.9780   38.2090   45.1470 N   0  0  0  0  0  0  0  0  0  0  0  0
   44.7370   37.7040   46.0450 H   0  0  0  0  0  0  0  0  0  0  0  0
  1  7  1  1  0  0  0
  1 16  1  0  0  0  0
  1  2  1  0  0  0  0
  2  8  1  0  0  0  0
  3  2  2  0  0  0  0
  3  9  1  0  0  0  0
  4 10  1  6  0  0  0
  4 24  1  0  0  0  0
  4  3  1  0  0  0  0
  5  6  1  0  0  0  0
  5 11  1  0  0  0  0
  5  4  1  0  0  0  0
  6  1  1  0  0  0  0
 12  5  1  0  0  0  0
 13  6  1  0  0  0  0
 14  6  1  0  0  0  0
 15 20  1  0  0  0  0
 15 21  1  0  0  0  0
 16 15  2  0  0  0  0
 17 18  2  0  0  0  0
 17 16  1  0  0  0  0
 18 19  1  0  0  0  0
 19 23  1  0  0  0  0
 19 20  2  0  0  0  0
 22 17  1  0  0  0  0
 24 28  1  0  0  0  0
 25 24  2  0  0  0  0
 25 26  1  0  0  0  0
 26 27  2  0  0  0  0
 28 27  1  0  0  0  0
 28 29  1  0  0  0  0
M  END
>  <minimizedAffinity>
-3.91616964

>  <minimizedRMSD>
1.95765758

$$$$
