
 OpenBabel03232520513D

 29 31  0  0  1  0  0  0  0  0999 V2000
   46.4170   34.1380   44.4930 C   0  0  2  0  0  0  0  0  0  0  0  0
   45.3010   34.6340   45.3870 C   0  0  0  0  0  0  0  0  0  0  0  0
   44.5160   35.7490   44.8930 C   0  0  0  0  0  0  0  0  0  0  0  0
   44.8100   36.3510   43.5870 C   0  0  2  0  0  0  0  0  0  0  0  0
   46.0110   35.8410   42.8700 C   0  0  0  0  0  0  0  0  0  0  0  0
   46.0510   34.3280   43.0550 C   0  0  0  0  0  0  0  0  0  0  0  0
   47.3010   34.8040   44.7220 H   0  0  0  0  0  0  0  0  0  0  0  0
   44.9640   34.3110   46.3480 H   0  0  0  0  0  0  0  0  0  0  0  0
   43.7220   36.1380   45.4780 H   0  0  0  0  0  0  0  0  0  0  0  0
   43.9020   36.2990   42.9570 H   0  0  0  0  0  0  0  0  0  0  0  0
   46.9620   36.3010   43.1380 H   0  0  0  0  0  0  0  0  0  0  0  0
   45.8540   35.9850   41.7670 H   0  0  0  0  0  0  0  0  0  0  0  0
   44.9880   33.9770   42.9550 H   0  0  0  0  0  0  0  0  0  0  0  0
   46.7260   33.8470   42.3550 H   0  0  0  0  0  0  0  0  0  0  0  0
   46.5830   32.3360   46.1900 C   0  0  0  0  0  0  0  0  0  0  0  0
   46.7650   32.7670   44.8770 C   0  0  0  0  0  0  0  0  0  0  0  0
   47.3040   31.8350   43.9500 C   0  0  0  0  0  0  0  0  0  0  0  0
   47.6090   30.5930   44.3800 N   0  0  0  0  0  0  0  0  0  0  0  0
   47.4200   30.2090   45.6660 C   0  0  0  0  0  0  0  0  0  0  0  0
   46.9120   31.0770   46.5500 N   0  0  0  0  0  0  0  0  0  0  0  0
   46.1790   32.9800   46.9590 H   0  0  0  0  0  0  0  0  0  0  0  0
   47.4800   32.0770   42.9160 H   0  0  0  0  0  0  0  0  0  0  0  0
   47.6750   29.2050   45.9810 H   0  0  0  0  0  0  0  0  0  0  0  0
   45.0810   37.8050   43.8580 C   0  0  0  0  0  0  0  0  0  0  0  0
   45.4280   38.9170   43.1170 C   0  0  0  0  0  3  0  0  0  0  0  0
   45.5220   39.9620   43.9870 N   0  0  0  0  0  0  0  0  0  0  0  0
   45.2470   39.5300   45.2310 C   0  0  0  0  0  3  0  0  0  0  0  0
   44.9780   38.2100   45.1470 N   0  0  0  0  0  0  0  0  0  0  0  0
   44.7370   37.7040   46.0460 H   0  0  0  0  0  0  0  0  0  0  0  0
  1  7  1  1  0  0  0
  1 16  1  0  0  0  0
  1  2  1  0  0  0  0
  2  8  1  0  0  0  0
  3  2  2  0  0  0  0
  3  9  1  0  0  0  0
  4 10  1  6  0  0  0
  4 24  1  0  0  0  0
  4  3  1  0  0  0  0
  5  6  1  0  0  0  0
  5 11  1  0  0  0  0
  5  4  1  0  0  0  0
  6  1  1  0  0  0  0
 12  5  1  0  0  0  0
 13  6  1  0  0  0  0
 14  6  1  0  0  0  0
 15 20  1  0  0  0  0
 15 21  1  0  0  0  0
 16 15  2  0  0  0  0
 17 18  2  0  0  0  0
 17 16  1  0  0  0  0
 18 19  1  0  0  0  0
 19 23  1  0  0  0  0
 19 20  2  0  0  0  0
 22 17  1  0  0  0  0
 24 28  1  0  0  0  0
 25 24  2  0  0  0  0
 25 26  1  0  0  0  0
 26 27  2  0  0  0  0
 28 27  1  0  0  0  0
 28 29  1  0  0  0  0
M  END
>  <minimizedAffinity>
-3.91592169

>  <minimizedRMSD>
1.95816445

$$$$
