
 OpenBabel03232520163D

 31 33  0  0  0  0  0  0  0  0999 V2000
   47.4440   34.0740   42.3170 C   0  0  0  0  0  0  0  0  0  0  0  0
   48.2940   35.2370   41.8750 C   0  0  0  0  0  0  0  0  0  0  0  0
   49.6740   35.2480   42.4100 C   0  0  0  0  0  0  0  0  0  0  0  0
   50.3620   33.9250   42.3900 C   0  0  0  0  0  0  0  0  0  0  0  0
   49.4590   32.7710   42.0240 C   0  0  0  0  0  0  0  0  0  0  0  0
   48.2000   32.9110   42.8470 C   0  0  0  0  0  0  0  0  0  0  0  0
   47.8080   36.2100   42.1680 H   0  0  0  0  0  0  0  0  0  0  0  0
   48.3680   35.2910   40.7690 H   0  0  0  0  0  0  0  0  0  0  0  0
   50.2420   36.0200   41.8700 H   0  0  0  0  0  0  0  0  0  0  0  0
   49.6160   35.6060   43.4750 H   0  0  0  0  0  0  0  0  0  0  0  0
   51.2030   33.9600   41.6530 H   0  0  0  0  0  0  0  0  0  0  0  0
   50.8160   33.6980   43.3740 H   0  0  0  0  0  0  0  0  0  0  0  0
   49.9640   31.8370   42.3490 H   0  0  0  0  0  0  0  0  0  0  0  0
   49.2860   32.6780   40.9500 H   0  0  0  0  0  0  0  0  0  0  0  0
   48.5060   32.9900   43.9020 H   0  0  0  0  0  0  0  0  0  0  0  0
   47.6000   31.9930   42.6880 H   0  0  0  0  0  0  0  0  0  0  0  0
   45.4390   34.2560   45.4340 C   0  0  0  0  0  0  0  0  0  0  0  0
   44.6060   35.3580   45.2110 C   0  0  0  0  0  0  0  0  0  0  0  0
   44.7420   36.0330   44.0040 C   0  0  0  0  0  0  0  0  0  0  0  0
   45.6680   35.5890   43.1130 N   0  0  0  0  0  0  0  0  0  0  0  0
   46.4650   34.5200   43.3470 C   0  0  0  0  0  0  0  0  0  0  0  0
   46.3350   33.8590   44.5270 N   0  0  0  0  0  0  0  0  0  0  0  0
   45.3760   33.7000   46.3500 H   0  0  0  0  0  0  0  0  0  0  0  0
   43.9020   35.6370   45.9730 H   0  0  0  0  0  0  0  0  0  0  0  0
   44.1180   36.8870   43.7960 H   0  0  0  0  0  0  0  0  0  0  0  0
   46.5890   33.6390   41.1530 C   0  0  0  0  0  0  0  0  0  0  0  0
   46.1010   32.3290   41.2730 C   0  0  0  0  0  0  0  0  0  0  0  0
   45.3560   32.0300   40.1980 N   0  0  0  0  0  0  0  0  0  0  0  0
   45.3730   33.1270   39.4140 C   0  0  0  0  0  0  0  0  0  0  0  0
   46.1120   34.0960   39.9820 N   0  0  0  0  0  0  0  0  0  0  0  0
   46.4000   35.0730   39.7620 H   0  0  0  0  0  0  0  0  0  0  0  0
  1  6  1  0  0  0  0
  1 21  1  0  0  0  0
  2  7  1  0  0  0  0
  2  1  1  0  0  0  0
  2  3  1  0  0  0  0
  3 10  1  0  0  0  0
  4  3  1  0  0  0  0
  4 12  1  0  0  0  0
  5 13  1  0  0  0  0
  5  4  1  0  0  0  0
  5  6  1  0  0  0  0
  6 15  1  0  0  0  0
  8  2  1  0  0  0  0
  9  3  1  0  0  0  0
 11  4  1  0  0  0  0
 14  5  1  0  0  0  0
 16  6  1  0  0  0  0
 17 23  1  0  0  0  0
 18 17  1  0  0  0  0
 18 24  1  0  0  0  0
 19 18  2  0  0  0  0
 20 21  2  0  0  0  0
 20 19  1  0  0  0  0
 21 22  1  0  0  0  0
 22 17  2  0  0  0  0
 25 19  1  0  0  0  0
 26 27  2  0  0  0  0
 26  1  1  0  0  0  0
 28 27  1  0  0  0  0
 29 30  1  0  0  0  0
 29 28  2  0  0  0  0
 30 26  1  0  0  0  0
 31 30  1  0  0  0  0
M  END
>  <minimizedAffinity>
-5.4179225

>  <minimizedRMSD>
0.310981661

$$$$
