
 OpenBabel03232517143D

 36 40  0  0  0  0  0  0  0  0999 V2000
   46.4080   32.6800   46.9450 C   0  0  0  0  0  0  0  0  0  0  0  0
   45.5820   32.5060   48.0330 C   0  0  0  0  0  0  0  0  0  0  0  0
   46.3280   31.7690   48.9250 C   0  0  0  0  0  0  0  0  0  0  0  0
   47.5740   31.5160   48.3610 C   0  0  0  0  0  0  0  0  0  0  0  0
   47.5300   32.0880   47.2010 O   0  0  0  0  0  0  0  0  0  0  0  0
   44.6020   32.9140   48.0310 H   0  0  0  0  0  0  0  0  0  0  0  0
   45.9440   31.4710   49.8910 H   0  0  0  0  0  0  0  0  0  0  0  0
   46.6900   33.9970   43.6460 C   0  0  0  0  0  0  0  0  0  0  0  0
   45.5510   34.6390   44.1150 C   0  0  0  0  0  0  0  0  0  0  0  0
   45.3130   34.2090   45.4160 C   0  0  0  0  0  0  0  0  0  0  0  0
   46.3140   33.3210   45.6920 N   0  0  0  0  0  0  0  0  0  0  0  0
   47.1320   33.1850   44.6620 N   0  0  0  0  0  0  0  0  0  0  0  0
   44.9080   35.3570   43.6210 H   0  0  0  0  0  0  0  0  0  0  0  0
   44.5060   34.5130   46.0700 H   0  0  0  0  0  0  0  0  0  0  0  0
   48.6730   35.3590   40.8690 C   0  0  0  0  0  0  0  0  0  0  0  0
   48.1150   34.7020   39.7780 C   0  0  0  0  0  0  0  0  0  0  0  0
   47.0600   33.7920   40.0000 C   0  0  0  0  0  0  0  0  0  0  0  0
   46.6210   33.5880   41.2850 N   0  0  0  0  0  0  0  0  0  0  0  0
   47.1950   34.2510   42.3020 C   0  0  0  0  0  0  0  0  0  0  0  0
   48.2090   35.1300   42.1250 N   0  0  0  0  0  0  0  0  0  0  0  0
   49.4710   36.0410   40.6550 H   0  0  0  0  0  0  0  0  0  0  0  0
   48.4760   34.8760   38.7640 H   0  0  0  0  0  0  0  0  0  0  0  0
   46.5980   33.2550   39.1590 H   0  0  0  0  0  0  0  0  0  0  0  0
   48.6020   30.7760   49.0080 N   0  0  0  0  0  0  0  0  0  0  0  0
   49.4590   31.1400   50.0400 C   0  0  0  0  0  0  0  0  0  0  0  0
   50.2280   30.0590   50.3220 C   0  0  0  0  0  0  0  0  0  0  0  0
   49.8420   29.0910   49.4920 N   0  0  0  0  0  0  0  0  0  0  0  0
   48.8360   29.5190   48.6670 C   0  0  0  0  0  0  0  0  0  0  0  0
   49.4450   32.1300   50.4770 H   0  0  0  0  0  0  0  0  0  0  0  0
   51.0000   29.9880   51.0710 H   0  0  0  0  0  0  0  0  0  0  0  0
   48.3920   28.5110   47.7250 C   0  0  0  0  0  0  0  0  0  0  0  0
   48.5050   28.4200   46.3610 C   0  0  0  0  0  0  0  0  0  0  0  0
   47.9970   27.2870   45.8560 N   0  0  0  0  0  0  0  0  0  0  0  0
   47.5290   26.5940   46.9100 C   0  0  0  0  0  0  0  0  0  0  0  0
   47.7800   27.3440   47.9920 N   0  0  0  0  0  0  0  0  0  0  0  0
   47.4700   26.9340   48.9100 H   0  0  0  0  0  0  0  0  0  0  0  0
  1  5  1  0  0  0  0
  1  2  2  0  0  0  0
  2  3  1  0  0  0  0
  3  7  1  0  0  0  0
  4  3  2  0  0  0  0
  4 24  1  0  0  0  0
  5  4  1  0  0  0  0
  6  2  1  0  0  0  0
  8  9  1  0  0  0  0
  8 12  2  0  0  0  0
  9 10  2  0  0  0  0
 10 11  1  0  0  0  0
 10 14  1  0  0  0  0
 11  1  1  0  0  0  0
 12 11  1  0  0  0  0
 13  9  1  0  0  0  0
 15 20  1  0  0  0  0
 16 17  1  0  0  0  0
 16 15  2  0  0  0  0
 17 18  2  0  0  0  0
 18 19  1  0  0  0  0
 19  8  1  0  0  0  0
 20 19  2  0  0  0  0
 21 15  1  0  0  0  0
 22 16  1  0  0  0  0
 23 17  1  0  0  0  0
 24 25  1  0  0  0  0
 25 26  2  0  0  0  0
 25 29  1  0  0  0  0
 26 30  1  0  0  0  0
 27 26  1  0  0  0  0
 28 24  1  0  0  0  0
 28 27  2  0  0  0  0
 31 35  1  0  0  0  0
 31 28  1  0  0  0  0
 32 31  2  0  0  0  0
 33 32  1  0  0  0  0
 33 34  2  0  0  0  0
 34 35  1  0  0  0  0
 35 36  1  0  0  0  0
M  END
>  <minimizedAffinity>
-5.94309616

>  <minimizedRMSD>
1.41571712

$$$$
