
 OpenBabel03232520293D

 42 46  0  0  1  0  0  0  0  0999 V2000
   46.9240   34.5120   41.3030 C   0  0  0  0  0  0  0  0  0  0  0  0
   48.1880   34.9490   40.9530 C   0  0  0  0  0  0  0  0  0  0  0  0
   48.4460   34.6460   39.6900 N   0  0  0  0  0  0  0  0  0  0  0  0
   47.3690   34.0160   39.2070 C   0  0  0  0  0  0  0  0  0  0  0  0
   47.1120   33.4880   37.9450 C   0  0  0  0  0  0  0  0  0  0  0  0
   45.9060   32.8810   37.7000 C   0  0  0  0  0  0  0  0  0  0  0  0
   44.9010   32.7530   38.6430 C   0  0  0  0  0  0  0  0  0  0  0  0
   45.2000   33.2920   39.8850 C   0  0  0  0  0  0  0  0  0  0  0  0
   46.3930   33.9120   40.1860 C   0  0  0  0  0  0  0  0  0  0  0  0
   49.3210   34.8400   39.1180 H   0  0  0  0  0  0  0  0  0  0  0  0
   47.8440   33.5460   37.1500 H   0  0  0  0  0  0  0  0  0  0  0  0
   45.7030   32.4690   36.7200 H   0  0  0  0  0  0  0  0  0  0  0  0
   43.9490   32.2800   38.4700 H   0  0  0  0  0  0  0  0  0  0  0  0
   44.4590   33.2270   40.6680 H   0  0  0  0  0  0  0  0  0  0  0  0
   44.7820   35.8580   44.0460 C   0  0  0  0  0  0  0  0  0  0  0  0
   45.4110   35.7470   42.7890 C   0  0  0  0  0  0  0  0  0  0  0  0
   46.2600   34.6500   42.5980 C   0  0  0  0  0  0  0  0  0  0  0  0
   46.4440   33.7450   43.6110 N   0  0  0  0  0  0  0  0  0  0  0  0
   45.8040   33.9210   44.7920 C   0  0  0  0  0  0  0  0  0  0  0  0
   44.9820   34.9550   45.0230 N   0  0  0  0  0  0  0  0  0  0  0  0
   44.1290   36.7090   44.1850 H   0  0  0  0  0  0  0  0  0  0  0  0
   45.2290   36.4860   42.0320 H   0  0  0  0  0  0  0  0  0  0  0  0
   46.0280   33.1390   45.5210 H   0  0  0  0  0  0  0  0  0  0  0  0
   49.1030   35.6540   41.8800 C   0  0  0  0  0  0  0  0  0  0  0  0
   48.5130   36.2840   42.5730 H   0  0  0  0  0  0  0  0  0  0  0  0
   49.7430   36.3930   41.3180 H   0  0  0  0  0  0  0  0  0  0  0  0
   49.9590   34.7040   42.6480 C   0  0  0  0  0  0  0  0  0  0  0  0
   50.9300   35.2230   42.8880 H   0  0  0  0  0  0  0  0  0  0  0  0
   49.4760   34.5030   43.6360 H   0  0  0  0  0  0  0  0  0  0  0  0
   50.2950   33.4400   41.9320 C   0  0  1  0  0  0  0  0  0  0  0  0
   51.0700   32.3560   42.5210 C   0  0  0  0  0  0  0  0  0  0  0  0
   49.5960   32.1850   42.4990 C   0  0  2  0  0  0  0  0  0  0  0  0
   50.3390   33.5370   40.8260 H   0  0  0  0  0  0  0  0  0  0  0  0
   51.7450   31.7320   41.9280 H   0  0  0  0  0  0  0  0  0  0  0  0
   51.4960   32.5490   43.5470 H   0  0  0  0  0  0  0  0  0  0  0  0
   49.0270   32.2780   43.4400 H   0  0  0  0  0  0  0  0  0  0  0  0
   49.1050   31.1920   41.4890 C   0  0  0  0  0  0  0  0  0  0  0  0
   47.8070   30.8490   41.1690 C   0  0  0  0  0  0  0  0  0  0  0  0
   47.8100   29.9100   40.2010 N   0  0  0  0  0  0  0  0  0  0  0  0
   49.1280   29.6840   39.9340 C   0  0  0  0  0  0  0  0  0  0  0  0
   49.9160   30.4560   40.7070 N   0  0  0  0  0  0  0  0  0  0  0  0
   50.9670   30.4710   40.6960 H   0  0  0  0  0  0  0  0  0  0  0  0
  1 17  1  0  0  0  0
  2  1  2  0  0  0  0
  2 24  1  0  0  0  0
  3  2  1  0  0  0  0
  4  3  1  0  0  0  0
  4  9  1  0  0  0  0
  5  4  2  0  0  0  0
  6  5  1  0  0  0  0
  6  7  2  0  0  0  0
  7  8  1  0  0  0  0
  8  9  2  0  0  0  0
  8 14  1  0  0  0  0
  9  1  1  0  0  0  0
 10  3  1  0  0  0  0
 11  5  1  0  0  0  0
 12  6  1  0  0  0  0
 13  7  1  0  0  0  0
 15 21  1  0  0  0  0
 15 20  1  0  0  0  0
 16 15  2  0  0  0  0
 17 16  1  0  0  0  0
 17 18  2  0  0  0  0
 18 19  1  0  0  0  0
 19 20  2  0  0  0  0
 19 23  1  0  0  0  0
 22 16  1  0  0  0  0
 24 25  1  0  0  0  0
 24 27  1  0  0  0  0
 26 24  1  0  0  0  0
 27 28  1  0  0  0  0
 27 29  1  0  0  0  0
 30 33  1  6  0  0  0
 30 32  1  0  0  0  0
 30 31  1  0  0  0  0
 30 27  1  0  0  0  0
 31 35  1  0  0  0  0
 32 31  1  0  0  0  0
 32 36  1  1  0  0  0
 34 31  1  0  0  0  0
 37 32  1  0  0  0  0
 38 37  2  0  0  0  0
 39 38  1  0  0  0  0
 40 39  2  0  0  0  0
 40 41  1  0  0  0  0
 41 37  1  0  0  0  0
 42 41  1  0  0  0  0
M  END
>  <minimizedAffinity>
-5.71495581

>  <minimizedRMSD>
0.126509696

$$$$
