
 OpenBabel03232519303D

 37 39  0  0  1  0  0  0  0  0999 V2000
   47.1800   34.4130   40.3000 C   0  0  1  0  0  0  0  0  0  0  0  0
   48.3870   34.2110   39.3630 C   0  0  0  0  0  0  0  0  0  0  0  0
   47.8110   34.0490   37.9710 C   0  0  0  0  0  0  0  0  0  0  0  0
   47.0890   32.7310   37.8960 C   0  0  0  0  0  0  0  0  0  0  0  0
   46.8390   32.1470   39.2720 C   0  0  0  0  0  0  0  0  0  0  0  0
   46.3430   33.1920   40.2740 C   0  0  2  0  0  0  0  0  0  0  0  0
   46.6950   35.3260   39.9500 H   0  0  0  0  0  0  0  0  0  0  0  0
   48.9550   33.3040   39.6250 H   0  0  0  0  0  0  0  0  0  0  0  0
   48.9990   35.1380   39.3830 H   0  0  0  0  0  0  0  0  0  0  0  0
   48.6980   34.0480   37.2670 H   0  0  0  0  0  0  0  0  0  0  0  0
   47.2350   34.9220   37.6580 H   0  0  0  0  0  0  0  0  0  0  0  0
   46.1800   32.7470   37.2670 H   0  0  0  0  0  0  0  0  0  0  0  0
   47.7690   32.0070   37.4000 H   0  0  0  0  0  0  0  0  0  0  0  0
   46.0590   31.3860   39.1660 H   0  0  0  0  0  0  0  0  0  0  0  0
   47.7460   31.6580   39.6790 H   0  0  0  0  0  0  0  0  0  0  0  0
   46.4290   32.6450   41.2600 H   0  0  0  0  0  0  0  0  0  0  0  0
   44.9160   33.3780   39.9410 C   0  0  0  0  0  0  0  0  0  0  0  0
   43.9700   32.3920   39.7610 C   0  0  0  0  0  0  0  0  0  0  0  0
   42.7470   32.8780   39.4700 N   0  0  0  0  0  0  0  0  0  0  0  0
   42.8880   34.2190   39.4590 C   0  0  0  0  0  0  0  0  0  0  0  0
   44.1710   34.5070   39.7380 N   0  0  0  0  0  0  0  0  0  0  0  0
   44.6010   35.4780   39.8030 H   0  0  0  0  0  0  0  0  0  0  0  0
   47.7250   34.6960   41.7130 C   0  0  0  0  0  0  0  0  0  0  0  0
   48.8070   34.3520   41.6160 H   0  0  0  0  0  0  0  0  0  0  0  0
   47.6810   35.7260   42.0070 H   0  0  0  0  0  0  0  0  0  0  0  0
   47.0790   33.6780   42.6130 C   0  0  0  0  0  0  0  0  0  0  0  0
   47.8150   33.0310   43.1490 H   0  0  0  0  0  0  0  0  0  0  0  0
   46.3880   32.9940   42.0290 H   0  0  0  0  0  0  0  0  0  0  0  0
   46.0460   33.7290   44.8190 C   0  0  0  0  0  0  0  0  0  0  0  0
   46.2180   34.3230   43.5550 C   0  0  0  0  0  0  0  0  0  0  0  0
   45.5430   35.4830   43.2670 C   0  0  0  0  0  0  0  0  0  0  0  0
   44.7300   36.0080   44.2310 N   0  0  0  0  0  0  0  0  0  0  0  0
   44.5730   35.4270   45.4440 C   0  0  0  0  0  0  0  0  0  0  0  0
   45.2330   34.2820   45.7410 N   0  0  0  0  0  0  0  0  0  0  0  0
   46.5700   32.8160   45.0630 H   0  0  0  0  0  0  0  0  0  0  0  0
   45.5640   36.0470   42.3500 H   0  0  0  0  0  0  0  0  0  0  0  0
   43.9150   35.8780   46.1850 H   0  0  0  0  0  0  0  0  0  0  0  0
  1  7  1  6  0  0  0
  1 23  1  0  0  0  0
  2  9  1  0  0  0  0
  2  8  1  0  0  0  0
  2  1  1  0  0  0  0
  3  2  1  0  0  0  0
  4  3  1  0  0  0  0
  4  5  1  0  0  0  0
  5 15  1  0  0  0  0
  5  6  1  0  0  0  0
  6  1  1  0  0  0  0
  6 16  1  1  0  0  0
 10  3  1  0  0  0  0
 11  3  1  0  0  0  0
 12  4  1  0  0  0  0
 13  4  1  0  0  0  0
 14  5  1  0  0  0  0
 17  6  1  0  0  0  0
 18 17  2  0  0  0  0
 19 18  1  0  0  0  0
 20 19  2  0  0  0  0
 20 21  1  0  0  0  0
 21 22  1  0  0  0  0
 21 17  1  0  0  0  0
 23 25  1  0  0  0  0
 23 26  1  0  0  0  0
 24 23  1  0  0  0  0
 26 27  1  0  0  0  0
 26 30  1  0  0  0  0
 28 26  1  0  0  0  0
 29 35  1  0  0  0  0
 29 34  1  0  0  0  0
 30 29  2  0  0  0  0
 31 30  1  0  0  0  0
 31 32  2  0  0  0  0
 32 33  1  0  0  0  0
 33 34  2  0  0  0  0
 33 37  1  0  0  0  0
 36 31  1  0  0  0  0
M  END
>  <minimizedAffinity>
-4.70391846

>  <minimizedRMSD>
1.9284867

$$$$
