
 OpenBabel03232518293D

 27 30  0  0  0  0  0  0  0  0999 V2000
   44.8810   35.2990   44.3660 C   0  0  0  0  0  0  0  0  0  0  0  0
   45.9500   35.0340   43.5000 C   0  0  0  0  0  0  0  0  0  0  0  0
   46.8800   34.0520   43.9110 C   0  0  0  0  0  0  0  0  0  0  0  0
   46.6620   33.4340   45.1340 N   0  0  0  0  0  0  0  0  0  0  0  0
   45.6170   33.7430   45.9020 C   0  0  0  0  0  0  0  0  0  0  0  0
   44.7170   34.6680   45.5410 N   0  0  0  0  0  0  0  0  0  0  0  0
   44.1880   36.0630   44.0080 H   0  0  0  0  0  0  0  0  0  0  0  0
   46.0830   35.5400   42.5550 H   0  0  0  0  0  0  0  0  0  0  0  0
   48.0180   33.7170   43.0730 C   0  0  0  0  0  0  0  0  0  0  0  0
   47.9870   32.7130   42.1280 C   0  0  0  0  0  0  0  0  0  0  0  0
   49.2180   32.7130   41.5680 N   0  0  0  0  0  0  0  0  0  0  0  0
   49.9250   33.6770   42.1660 C   0  0  0  0  0  0  0  0  0  0  0  0
   49.2110   34.3350   43.1200 N   0  0  0  0  0  0  0  0  0  0  0  0
   49.5330   35.1200   43.7220 H   0  0  0  0  0  0  0  0  0  0  0  0
   45.4380   32.8830   47.4530 S   0  0  0  0  0  0  0  0  0  0  0  0
   48.6870   29.4930   48.7600 N   0  0  0  0  0  0  0  0  0  0  0  0
   48.7950   30.6720   49.4010 C   0  0  0  0  0  0  0  0  0  0  0  0
   47.8490   31.5060   48.9510 N   0  0  0  0  0  0  0  0  0  0  0  0
   47.1080   30.8860   48.0080 C   0  0  0  0  0  0  0  0  0  0  0  0
   46.0240   31.2070   47.1970 C   0  0  0  0  0  0  0  0  0  0  0  0
   45.5300   30.3040   46.3430 N   0  0  0  0  0  0  0  0  0  0  0  0
   46.1090   29.0800   46.2870 C   0  0  0  0  0  0  0  0  0  0  0  0
   47.1760   28.7010   47.0560 N   0  0  0  0  0  0  0  0  0  0  0  0
   47.6540   29.6260   47.9070 C   0  0  0  0  0  0  0  0  0  0  0  0
   49.2910   28.6610   48.9090 H   0  0  0  0  0  0  0  0  0  0  0  0
   49.5330   30.8730   50.1470 H   0  0  0  0  0  0  0  0  0  0  0  0
   45.7050   28.3530   45.5940 H   0  0  0  0  0  0  0  0  0  0  0  0
  1  6  1  0  0  0  0
  2  3  1  0  0  0  0
  2  1  2  0  0  0  0
  3  4  2  0  0  0  0
  4  5  1  0  0  0  0
  5 15  1  0  0  0  0
  6  5  2  0  0  0  0
  7  1  1  0  0  0  0
  8  2  1  0  0  0  0
  9 13  1  0  0  0  0
  9  3  1  0  0  0  0
 10  9  2  0  0  0  0
 11 10  1  0  0  0  0
 11 12  2  0  0  0  0
 12 13  1  0  0  0  0
 13 14  1  0  0  0  0
 16 25  1  0  0  0  0
 16 17  1  0  0  0  0
 17 26  1  0  0  0  0
 18 17  2  0  0  0  0
 19 18  1  0  0  0  0
 20 15  1  0  0  0  0
 20 19  2  0  0  0  0
 21 20  1  0  0  0  0
 22 21  2  0  0  0  0
 22 23  1  0  0  0  0
 23 24  2  0  0  0  0
 24 19  1  0  0  0  0
 24 16  1  0  0  0  0
 27 22  1  0  0  0  0
M  END
>  <minimizedAffinity>
-5.35926676

>  <minimizedRMSD>
0.417248696

$$$$
