
 OpenBabel03232520503D

 29 31  0  0  1  0  0  0  0  0999 V2000
   46.3350   33.9270   44.5420 C   0  0  2  0  0  0  0  0  0  0  0  0
   45.3400   34.3870   45.5850 C   0  0  0  0  0  0  0  0  0  0  0  0
   44.5040   35.5200   45.2340 C   0  0  0  0  0  0  0  0  0  0  0  0
   44.6370   36.1710   43.9260 C   0  0  2  0  0  0  0  0  0  0  0  0
   45.7380   35.6910   43.0470 C   0  0  0  0  0  0  0  0  0  0  0  0
   45.7960   34.1720   43.1680 C   0  0  0  0  0  0  0  0  0  0  0  0
   47.2430   34.5860   44.6850 H   0  0  0  0  0  0  0  0  0  0  0  0
   45.1230   34.0280   46.5670 H   0  0  0  0  0  0  0  0  0  0  0  0
   43.7890   35.8850   45.9270 H   0  0  0  0  0  0  0  0  0  0  0  0
   43.6580   36.1430   43.4110 H   0  0  0  0  0  0  0  0  0  0  0  0
   46.7170   36.1410   43.2130 H   0  0  0  0  0  0  0  0  0  0  0  0
   45.4470   35.8770   41.9780 H   0  0  0  0  0  0  0  0  0  0  0  0
   44.7270   33.8240   43.1860 H   0  0  0  0  0  0  0  0  0  0  0  0
   46.3770   33.7190   42.3730 H   0  0  0  0  0  0  0  0  0  0  0  0
   46.2470   31.9000   45.9680 C   0  0  0  0  0  0  0  0  0  0  0  0
   46.7230   32.5430   44.8270 C   0  0  0  0  0  0  0  0  0  0  0  0
   47.5930   31.8100   43.9760 C   0  0  0  0  0  0  0  0  0  0  0  0
   47.9120   30.5420   44.3100 N   0  0  0  0  0  0  0  0  0  0  0  0
   47.4310   29.9480   45.4290 C   0  0  0  0  0  0  0  0  0  0  0  0
   46.6090   30.6280   46.2400 N   0  0  0  0  0  0  0  0  0  0  0  0
   45.5810   32.3840   46.6700 H   0  0  0  0  0  0  0  0  0  0  0  0
   48.0100   32.2230   43.0740 H   0  0  0  0  0  0  0  0  0  0  0  0
   47.7060   28.9290   45.6700 H   0  0  0  0  0  0  0  0  0  0  0  0
   44.9440   37.6150   44.2170 C   0  0  0  0  0  0  0  0  0  0  0  0
   45.0600   38.4110   45.3400 C   0  0  0  0  0  3  0  0  0  0  0  0
   45.3650   39.6660   44.9080 N   0  0  0  0  0  0  0  0  0  0  0  0
   45.4410   39.6680   43.5650 C   0  0  0  0  0  3  0  0  0  0  0  0
   45.1820   38.4100   43.1470 N   0  0  0  0  0  0  0  0  0  0  0  0
   45.2000   38.2310   42.1030 H   0  0  0  0  0  0  0  0  0  0  0  0
  1  7  1  1  0  0  0
  1 16  1  0  0  0  0
  1  2  1  0  0  0  0
  2  8  1  0  0  0  0
  3  2  2  0  0  0  0
  3  9  1  0  0  0  0
  4 10  1  6  0  0  0
  4 24  1  0  0  0  0
  4  3  1  0  0  0  0
  5  6  1  0  0  0  0
  5 11  1  0  0  0  0
  5  4  1  0  0  0  0
  6 13  1  0  0  0  0
  6  1  1  0  0  0  0
 12  5  1  0  0  0  0
 14  6  1  0  0  0  0
 15 20  1  0  0  0  0
 15 21  1  0  0  0  0
 16 15  2  0  0  0  0
 17 18  2  0  0  0  0
 17 16  1  0  0  0  0
 18 19  1  0  0  0  0
 19 23  1  0  0  0  0
 19 20  2  0  0  0  0
 22 17  1  0  0  0  0
 24 25  2  0  0  0  0
 26 25  1  0  0  0  0
 27 26  2  0  0  0  0
 28 27  1  0  0  0  0
 28 24  1  0  0  0  0
 29 28  1  0  0  0  0
M  END
>  <minimizedAffinity>
-3.31584787

>  <minimizedRMSD>
2.07606006

$$$$
