
 OpenBabel03232520503D

 29 31  0  0  1  0  0  0  0  0999 V2000
   46.3880   33.9230   44.5610 C   0  0  2  0  0  0  0  0  0  0  0  0
   45.3790   34.3750   45.5930 C   0  0  0  0  0  0  0  0  0  0  0  0
   44.5320   35.4950   45.2310 C   0  0  0  0  0  0  0  0  0  0  0  0
   44.6680   36.1430   43.9210 C   0  0  2  0  0  0  0  0  0  0  0  0
   45.7820   35.6720   43.0540 C   0  0  0  0  0  0  0  0  0  0  0  0
   45.8570   34.1550   43.1820 C   0  0  0  0  0  0  0  0  0  0  0  0
   47.2870   34.5930   44.7090 H   0  0  0  0  0  0  0  0  0  0  0  0
   45.1590   34.0170   46.5760 H   0  0  0  0  0  0  0  0  0  0  0  0
   43.8070   35.8550   45.9170 H   0  0  0  0  0  0  0  0  0  0  0  0
   43.6940   36.1000   43.3990 H   0  0  0  0  0  0  0  0  0  0  0  0
   46.7540   36.1360   43.2260 H   0  0  0  0  0  0  0  0  0  0  0  0
   45.4970   35.8500   41.9820 H   0  0  0  0  0  0  0  0  0  0  0  0
   44.7920   33.7930   43.1930 H   0  0  0  0  0  0  0  0  0  0  0  0
   46.4510   33.7050   42.3930 H   0  0  0  0  0  0  0  0  0  0  0  0
   46.8140   32.0840   46.1710 C   0  0  0  0  0  0  0  0  0  0  0  0
   46.7910   32.5440   44.8550 C   0  0  0  0  0  0  0  0  0  0  0  0
   47.1800   31.6350   43.8360 C   0  0  0  0  0  0  0  0  0  0  0  0
   47.5480   30.3850   44.1860 N   0  0  0  0  0  0  0  0  0  0  0  0
   47.5580   29.9710   45.4760 C   0  0  0  0  0  0  0  0  0  0  0  0
   47.1930   30.8180   46.4480 N   0  0  0  0  0  0  0  0  0  0  0  0
   46.5330   32.7100   47.0070 H   0  0  0  0  0  0  0  0  0  0  0  0
   47.1940   31.9010   42.7930 H   0  0  0  0  0  0  0  0  0  0  0  0
   47.8580   28.9610   45.7250 H   0  0  0  0  0  0  0  0  0  0  0  0
   44.9550   37.5910   44.2090 C   0  0  0  0  0  0  0  0  0  0  0  0
   45.0550   38.3920   45.3290 C   0  0  0  0  0  3  0  0  0  0  0  0
   45.3460   39.6510   44.8930 N   0  0  0  0  0  0  0  0  0  0  0  0
   45.4270   39.6490   43.5510 C   0  0  0  0  0  3  0  0  0  0  0  0
   45.1860   38.3860   43.1360 N   0  0  0  0  0  0  0  0  0  0  0  0
   45.2110   38.2030   42.0940 H   0  0  0  0  0  0  0  0  0  0  0  0
  1  7  1  1  0  0  0
  1 16  1  0  0  0  0
  1  2  1  0  0  0  0
  2  8  1  0  0  0  0
  3  2  2  0  0  0  0
  3  9  1  0  0  0  0
  4 10  1  6  0  0  0
  4 24  1  0  0  0  0
  4  3  1  0  0  0  0
  5  6  1  0  0  0  0
  5 11  1  0  0  0  0
  5  4  1  0  0  0  0
  6 13  1  0  0  0  0
  6  1  1  0  0  0  0
 12  5  1  0  0  0  0
 14  6  1  0  0  0  0
 15 20  1  0  0  0  0
 15 21  1  0  0  0  0
 16 15  2  0  0  0  0
 17 18  2  0  0  0  0
 17 16  1  0  0  0  0
 18 19  1  0  0  0  0
 19 23  1  0  0  0  0
 19 20  2  0  0  0  0
 22 17  1  0  0  0  0
 24 25  2  0  0  0  0
 26 25  1  0  0  0  0
 27 26  2  0  0  0  0
 28 27  1  0  0  0  0
 28 24  1  0  0  0  0
 29 28  1  0  0  0  0
M  END
>  <minimizedAffinity>
-3.30796289

>  <minimizedRMSD>
2.0585587

$$$$
