
 OpenBabel03232507203D

 22 24  0  0  0  0  0  0  0  0999 V2000
   45.3970   34.5440   44.4790 C   0  0  0  0  0  0  0  0  0  0  0  0
   46.4090   34.0610   43.6230 C   0  0  0  0  0  0  0  0  0  0  0  0
   47.3030   33.0760   44.0860 C   0  0  0  0  0  0  0  0  0  0  0  0
   47.1240   32.6450   45.3680 N   0  0  0  0  0  0  0  0  0  0  0  0
   46.1450   33.1370   46.1500 C   0  0  0  0  0  0  0  0  0  0  0  0
   45.3000   34.0660   45.7120 N   0  0  0  0  0  0  0  0  0  0  0  0
   46.5260   34.4220   42.6090 H   0  0  0  0  0  0  0  0  0  0  0  0
   46.0560   32.7500   47.1640 H   0  0  0  0  0  0  0  0  0  0  0  0
   44.4890   35.5700   43.9210 C   0  0  0  0  0  0  0  0  0  0  0  0
   45.1080   36.8500   43.3880 C   0  0  0  0  0  0  0  0  0  0  0  0
   44.4570   35.8850   42.4850 C   0  0  0  0  0  0  0  0  0  0  0  0
   43.5420   35.7160   44.5380 H   0  0  0  0  0  0  0  0  0  0  0  0
   46.1950   36.9760   43.4030 H   0  0  0  0  0  0  0  0  0  0  0  0
   44.5250   37.7660   43.6010 H   0  0  0  0  0  0  0  0  0  0  0  0
   43.4840   36.1170   42.0010 H   0  0  0  0  0  0  0  0  0  0  0  0
   45.1280   35.3320   41.7960 H   0  0  0  0  0  0  0  0  0  0  0  0
   48.3460   32.5810   43.1950 C   0  0  0  0  0  0  0  0  0  0  0  0
   48.6130   31.2680   42.9550 N   0  0  0  0  0  0  0  0  0  0  0  0
   49.6030   31.1580   42.1120 O   0  0  0  0  0  0  0  0  0  0  0  0
   50.0050   32.3450   41.7830 C   0  0  0  0  0  0  0  0  0  0  0  0
   50.7950   32.6730   41.1150 H   0  0  0  0  0  0  0  0  0  0  0  0
   49.2410   33.2520   42.4420 N   0  0  0  0  0  0  0  0  0  0  0  0
  1  6  1  0  0  0  0
  2  3  1  0  0  0  0
  2  1  2  0  0  0  0
  3  4  2  0  0  0  0
  4  5  1  0  0  0  0
  5  8  1  0  0  0  0
  6  5  2  0  0  0  0
  7  2  1  0  0  0  0
  9  1  1  0  0  0  0
  9 12  1  0  0  0  0
 10 13  1  0  0  0  0
 10 14  1  0  0  0  0
 10  9  1  0  0  0  0
 11 10  1  0  0  0  0
 11  9  1  0  0  0  0
 15 11  1  0  0  0  0
 16 11  1  0  0  0  0
 17  3  1  0  0  0  0
 18 17  2  0  0  0  0
 19 18  1  0  0  0  0
 20 19  1  0  0  0  0
 20 22  2  0  0  0  0
 21 20  1  0  0  0  0
 22 17  1  0  0  0  0
M  END
>  <minimizedAffinity>
-3.76496339

>  <minimizedRMSD>
1.0592171

$$$$
