
 OpenBabel03232520573D

 34 36  0  0  1  0  0  0  0  0999 V2000
   46.1090   33.6340   45.2940 C   0  0  2  0  0  0  0  0  0  0  0  0
   44.9730   34.7130   45.4960 C   0  0  0  0  0  0  0  0  0  0  0  0
   44.7350   35.6280   44.4090 C   0  0  0  0  0  0  0  0  0  0  0  0
   45.5090   35.5370   43.1800 C   0  0  1  0  0  0  0  0  0  0  0  0
   46.5980   34.5560   43.1610 C   0  0  0  0  0  0  0  0  0  0  0  0
   46.1610   33.3110   43.9040 C   0  0  0  0  0  0  0  0  0  0  0  0
   46.9480   34.3290   45.6300 H   0  0  0  0  0  0  0  0  0  0  0  0
   44.2790   34.9600   46.2930 H   0  0  0  0  0  0  0  0  0  0  0  0
   43.9970   36.3810   44.4570 H   0  0  0  0  0  0  0  0  0  0  0  0
   45.9220   36.5550   42.9570 H   0  0  0  0  0  0  0  0  0  0  0  0
   47.4670   34.9620   43.7500 H   0  0  0  0  0  0  0  0  0  0  0  0
   46.9380   34.3190   42.1550 H   0  0  0  0  0  0  0  0  0  0  0  0
   46.7500   32.5330   43.4660 H   0  0  0  0  0  0  0  0  0  0  0  0
   45.1040   33.1340   43.5250 H   0  0  0  0  0  0  0  0  0  0  0  0
   45.2820   32.8960   47.4870 C   0  0  0  0  0  0  0  0  0  0  0  0
   45.9000   32.6400   46.3010 C   0  0  0  0  0  0  0  0  0  0  0  0
   46.2960   31.3100   46.0810 C   0  0  0  0  0  0  0  0  0  0  0  0
   46.0770   30.3550   46.9870 N   0  0  0  0  0  0  0  0  0  0  0  0
   45.4510   30.6400   48.1800 C   0  0  0  0  0  0  0  0  0  0  0  0
   45.0650   31.8950   48.4110 N   0  0  0  0  0  0  0  0  0  0  0  0
   45.2360   29.6100   49.1390 N   0  0  0  0  0  0  0  0  0  0  0  0
   44.9560   33.8880   47.7180 H   0  0  0  0  0  0  0  0  0  0  0  0
   45.0140   29.8930   50.1150 H   0  0  0  0  0  0  0  0  0  0  0  0
   45.3020   28.6110   48.8590 H   0  0  0  0  0  0  0  0  0  0  0  0
   46.9710   30.6510   44.9670 C   0  0  0  0  0  0  0  0  0  0  0  0
   46.2570   29.8770   44.1230 N   0  0  0  0  0  0  0  0  0  0  0  0
   47.0530   29.4230   43.2120 O   0  0  0  0  0  0  0  0  0  0  0  0
   48.2620   29.8780   43.4380 C   0  0  0  0  0  0  0  0  0  0  0  0
   48.9970   29.5360   42.7050 H   0  0  0  0  0  0  0  0  0  0  0  0
   48.2790   30.6720   44.5490 N   0  0  0  0  0  0  0  0  0  0  0  0
   44.5120   35.2480   42.0300 C   0  0  0  0  0  0  0  0  0  0  0  0
   43.4820   34.4170   42.4120 F   0  0  0  0  0  0  0  0  0  0  0  0
   43.9340   36.4690   41.6920 F   0  0  0  0  0  0  0  0  0  0  0  0
   45.2090   34.8000   40.9130 F   0  0  0  0  0  0  0  0  0  0  0  0
  1  2  1  0  0  0  0
  1  7  1  1  0  0  0
  1 16  1  0  0  0  0
  2  8  1  0  0  0  0
  3  9  1  0  0  0  0
  3  2  2  0  0  0  0
  4 10  1  6  0  0  0
  4  3  1  0  0  0  0
  5  4  1  0  0  0  0
  5 11  1  0  0  0  0
  5  6  1  0  0  0  0
  6  1  1  0  0  0  0
 12  5  1  0  0  0  0
 13  6  1  0  0  0  0
 14  6  1  0  0  0  0
 15 22  1  0  0  0  0
 15 20  1  0  0  0  0
 16 15  2  0  0  0  0
 17 16  1  0  0  0  0
 17 18  2  0  0  0  0
 18 19  1  0  0  0  0
 19 20  2  0  0  0  0
 19 21  1  0  0  0  0
 21 23  1  0  0  0  0
 24 21  1  0  0  0  0
 25 17  1  0  0  0  0
 26 25  2  0  0  0  0
 27 28  1  0  0  0  0
 27 26  1  0  0  0  0
 28 30  2  0  0  0  0
 29 28  1  0  0  0  0
 30 25  1  0  0  0  0
 31 32  1  0  0  0  0
 31  4  1  0  0  0  0
 33 31  1  0  0  0  0
 34 31  1  0  0  0  0
M  END
>  <minimizedAffinity>
-5.56786728

>  <minimizedRMSD>
0.375700176

$$$$
