
 OpenBabel03232518013D

 37 39  0  0  1  0  0  0  0  0999 V2000
   48.7870   34.3140   41.6980 C   0  0  0  0  0  0  0  0  0  0  0  0
   45.8190   34.5900   44.0220 C   0  0  0  0  0  0  0  0  0  0  0  0
   46.6840   34.9360   42.9730 C   0  0  0  0  0  0  0  0  0  0  0  0
   47.8010   34.0930   42.7550 C   0  0  0  0  0  0  0  0  0  0  0  0
   47.9650   33.0060   43.5710 N   0  0  0  0  0  0  0  0  0  0  0  0
   47.0860   32.7340   44.5670 C   0  0  0  0  0  0  0  0  0  0  0  0
   46.0320   33.5110   44.7890 N   0  0  0  0  0  0  0  0  0  0  0  0
   46.5600   35.7930   42.3260 H   0  0  0  0  0  0  0  0  0  0  0  0
   47.1870   31.8870   45.2260 H   0  0  0  0  0  0  0  0  0  0  0  0
   44.6750   35.5170   44.1810 C   0  0  0  0  0  0  0  0  0  0  0  0
   44.7170   36.6960   44.4740 O   0  0  0  0  0  0  0  0  0  0  0  0
   43.6900   35.0770   44.0120 H   0  0  0  0  0  0  0  0  0  0  0  0
   50.1450   33.8300   42.2280 C   0  0  0  0  0  0  0  0  0  0  0  0
   50.4840   34.4980   43.0400 H   0  0  0  0  0  0  0  0  0  0  0  0
   50.8440   33.8430   41.3680 H   0  0  0  0  0  0  0  0  0  0  0  0
   50.0490   32.8110   42.6530 H   0  0  0  0  0  0  0  0  0  0  0  0
   49.0070   35.8220   41.5270 C   0  0  0  0  0  0  0  0  0  0  0  0
   48.1500   36.3280   41.0850 H   0  0  0  0  0  0  0  0  0  0  0  0
   49.1570   36.2290   42.5520 H   0  0  0  0  0  0  0  0  0  0  0  0
   49.9310   35.9250   40.9330 H   0  0  0  0  0  0  0  0  0  0  0  0
   48.4920   33.7870   40.3860 C   0  0  0  0  0  0  0  0  0  0  0  0
   47.5400   33.5730   39.9660 H   0  0  0  0  0  0  0  0  0  0  0  0
   48.8530   34.6460   39.6450 H   0  0  0  0  0  0  0  0  0  0  0  0
   49.3700   32.7070   40.1480 O   0  0  0  0  0  0  0  0  0  0  0  0
   48.8360   32.0890   39.0390 C   0  0  1  0  0  0  0  0  0  0  0  0
   49.2350   32.4170   37.6780 C   0  0  0  0  0  0  0  0  0  0  0  0
   49.8620   31.2340   38.2920 C   0  0  1  0  0  0  0  0  0  0  0  0
   47.8550   31.5320   39.1590 H   0  0  0  0  0  0  0  0  0  0  0  0
   49.8180   33.3650   37.5220 H   0  0  0  0  0  0  0  0  0  0  0  0
   48.5370   32.2350   36.8430 H   0  0  0  0  0  0  0  0  0  0  0  0
   49.5650   30.2380   37.9550 H   0  0  0  0  0  0  0  0  0  0  0  0
   51.2800   31.2730   38.7540 C   0  0  0  0  0  0  0  0  0  0  0  0
   52.2710   31.8100   38.0070 N   0  0  0  0  0  0  0  0  0  0  0  0
   53.3840   31.7140   38.6340 O   0  0  0  0  0  0  0  0  0  0  0  0
   53.1760   31.1190   39.8000 C   0  0  0  0  0  0  0  0  0  0  0  0
   53.9960   30.9320   40.5040 H   0  0  0  0  0  0  0  0  0  0  0  0
   51.8590   30.8410   39.8770 N   0  0  0  0  0  0  0  0  0  0  0  0
  1 13  1  0  0  0  0
  1  4  1  0  0  0  0
  2 10  1  0  0  0  0
  2  7  1  0  0  0  0
  3  2  2  0  0  0  0
  4  3  1  0  0  0  0
  4  5  2  0  0  0  0
  5  6  1  0  0  0  0
  6  7  2  0  0  0  0
  6  9  1  0  0  0  0
  8  3  1  0  0  0  0
 10 11  2  0  0  0  0
 12 10  1  0  0  0  0
 13 16  1  0  0  0  0
 13 14  1  0  0  0  0
 15 13  1  0  0  0  0
 17  1  1  0  0  0  0
 17 19  1  0  0  0  0
 18 17  1  0  0  0  0
 20 17  1  0  0  0  0
 21  1  1  0  0  0  0
 22 21  1  0  0  0  0
 23 21  1  0  0  0  0
 24 21  1  0  0  0  0
 25 28  1  1  0  0  0
 25 24  1  0  0  0  0
 26 27  1  0  0  0  0
 26 25  1  0  0  0  0
 27 31  1  6  0  0  0
 27 32  1  0  0  0  0
 27 25  1  0  0  0  0
 29 26  1  0  0  0  0
 30 26  1  0  0  0  0
 32 37  1  0  0  0  0
 33 34  1  0  0  0  0
 33 32  2  0  0  0  0
 34 35  1  0  0  0  0
 35 37  2  0  0  0  0
 35 36  1  0  0  0  0
M  END
>  <minimizedAffinity>
-4.76890755

>  <minimizedRMSD>
3.86796498

$$$$
