
 OpenBabel03232520573D

 34 36  0  0  1  0  0  0  0  0999 V2000
   46.1100   33.6020   45.3250 C   0  0  2  0  0  0  0  0  0  0  0  0
   44.9720   34.6820   45.5110 C   0  0  0  0  0  0  0  0  0  0  0  0
   44.7470   35.5930   44.4200 C   0  0  0  0  0  0  0  0  0  0  0  0
   45.5350   35.5000   43.1990 C   0  0  1  0  0  0  0  0  0  0  0  0
   46.6240   34.5190   43.1950 C   0  0  0  0  0  0  0  0  0  0  0  0
   46.1780   33.2750   43.9370 C   0  0  0  0  0  0  0  0  0  0  0  0
   46.9450   34.2970   45.6690 H   0  0  0  0  0  0  0  0  0  0  0  0
   44.2680   34.9300   46.2990 H   0  0  0  0  0  0  0  0  0  0  0  0
   44.0080   36.3470   44.4570 H   0  0  0  0  0  0  0  0  0  0  0  0
   45.9500   36.5170   42.9790 H   0  0  0  0  0  0  0  0  0  0  0  0
   47.4860   34.9270   43.7930 H   0  0  0  0  0  0  0  0  0  0  0  0
   46.9750   34.2800   42.1940 H   0  0  0  0  0  0  0  0  0  0  0  0
   46.7720   32.4970   43.5070 H   0  0  0  0  0  0  0  0  0  0  0  0
   45.1260   33.0980   43.5450 H   0  0  0  0  0  0  0  0  0  0  0  0
   45.3170   32.8830   47.5370 C   0  0  0  0  0  0  0  0  0  0  0  0
   45.8900   32.6110   46.3320 C   0  0  0  0  0  0  0  0  0  0  0  0
   46.2240   31.2670   46.0920 C   0  0  0  0  0  0  0  0  0  0  0  0
   45.9920   30.3150   46.9990 N   0  0  0  0  0  0  0  0  0  0  0  0
   45.4120   30.6180   48.2110 C   0  0  0  0  0  0  0  0  0  0  0  0
   45.0860   31.8850   48.4610 N   0  0  0  0  0  0  0  0  0  0  0  0
   45.1830   29.5910   49.1710 N   0  0  0  0  0  0  0  0  0  0  0  0
   45.0400   33.8870   47.7830 H   0  0  0  0  0  0  0  0  0  0  0  0
   45.0020   29.8760   50.1540 H   0  0  0  0  0  0  0  0  0  0  0  0
   45.1990   28.5910   48.8830 H   0  0  0  0  0  0  0  0  0  0  0  0
   46.8380   30.5880   44.9550 C   0  0  0  0  0  0  0  0  0  0  0  0
   48.1840   30.5400   44.8610 N   0  0  0  0  0  0  0  0  0  0  0  0
   48.4960   29.8750   43.7970 O   0  0  0  0  0  0  0  0  0  0  0  0
   47.3940   29.4910   43.1980 C   0  0  0  0  0  0  0  0  0  0  0  0
   47.5750   28.9200   42.2840 H   0  0  0  0  0  0  0  0  0  0  0  0
   46.2950   29.9160   43.8880 N   0  0  0  0  0  0  0  0  0  0  0  0
   44.5510   35.2080   42.0390 C   0  0  0  0  0  0  0  0  0  0  0  0
   43.5370   34.3500   42.4010 F   0  0  0  0  0  0  0  0  0  0  0  0
   43.9500   36.4220   41.7160 F   0  0  0  0  0  0  0  0  0  0  0  0
   45.2640   34.7930   40.9190 F   0  0  0  0  0  0  0  0  0  0  0  0
  1  2  1  0  0  0  0
  1  7  1  1  0  0  0
  1 16  1  0  0  0  0
  2  8  1  0  0  0  0
  3  9  1  0  0  0  0
  3  2  2  0  0  0  0
  4 10  1  6  0  0  0
  4  3  1  0  0  0  0
  5  4  1  0  0  0  0
  5 11  1  0  0  0  0
  5  6  1  0  0  0  0
  6  1  1  0  0  0  0
 12  5  1  0  0  0  0
 13  6  1  0  0  0  0
 14  6  1  0  0  0  0
 15 22  1  0  0  0  0
 15 20  1  0  0  0  0
 16 15  2  0  0  0  0
 17 16  1  0  0  0  0
 17 18  2  0  0  0  0
 18 19  1  0  0  0  0
 19 20  2  0  0  0  0
 19 21  1  0  0  0  0
 21 23  1  0  0  0  0
 24 21  1  0  0  0  0
 25 17  1  0  0  0  0
 26 25  2  0  0  0  0
 27 26  1  0  0  0  0
 28 27  1  0  0  0  0
 28 30  2  0  0  0  0
 29 28  1  0  0  0  0
 30 25  1  0  0  0  0
 31 32  1  0  0  0  0
 31  4  1  0  0  0  0
 33 31  1  0  0  0  0
 34 31  1  0  0  0  0
M  END
>  <minimizedAffinity>
-5.60727549

>  <minimizedRMSD>
0.200858518

$$$$
