
 OpenBabel03232519353D

 47 49  0  0  1  0  0  0  0  0999 V2000
   47.1310   34.4030   40.5530 C   0  0  1  0  0  0  0  0  0  0  0  0
   48.3670   34.3270   39.6450 C   0  0  0  0  0  0  0  0  0  0  0  0
   47.8100   34.0720   38.2450 C   0  0  0  0  0  0  0  0  0  0  0  0
   47.2460   32.6850   38.1990 C   0  0  0  0  0  0  0  0  0  0  0  0
   47.0750   32.1320   39.5770 C   0  0  0  0  0  0  0  0  0  0  0  0
   46.4050   33.1500   40.5260 C   0  0  2  0  0  0  0  0  0  0  0  0
   46.6530   35.3350   40.2480 H   0  0  0  0  0  0  0  0  0  0  0  0
   48.9030   35.2920   39.6600 H   0  0  0  0  0  0  0  0  0  0  0  0
   49.0360   33.5330   39.9660 H   0  0  0  0  0  0  0  0  0  0  0  0
   48.6890   34.1830   37.5470 H   0  0  0  0  0  0  0  0  0  0  0  0
   47.1120   34.8530   37.9530 H   0  0  0  0  0  0  0  0  0  0  0  0
   46.3670   32.5700   37.5340 H   0  0  0  0  0  0  0  0  0  0  0  0
   48.0240   32.0360   37.7250 H   0  0  0  0  0  0  0  0  0  0  0  0
   46.3640   31.2760   39.4980 H   0  0  0  0  0  0  0  0  0  0  0  0
   48.0370   31.7580   39.9740 H   0  0  0  0  0  0  0  0  0  0  0  0
   46.4810   32.4640   41.4030 H   0  0  0  0  0  0  0  0  0  0  0  0
   47.5910   34.7250   41.9920 C   0  0  0  0  0  0  0  0  0  0  0  0
   48.7240   34.5980   41.9260 H   0  0  0  0  0  0  0  0  0  0  0  0
   47.4620   35.7760   42.2490 H   0  0  0  0  0  0  0  0  0  0  0  0
   46.9930   33.7060   42.8600 C   0  0  0  0  0  0  0  0  0  0  0  0
   47.8010   33.1010   43.3340 H   0  0  0  0  0  0  0  0  0  0  0  0
   46.1960   33.0350   42.4440 H   0  0  0  0  0  0  0  0  0  0  0  0
   46.0750   33.6130   45.0820 C   0  0  0  0  0  0  0  0  0  0  0  0
   46.1470   34.2960   43.8680 C   0  0  0  0  0  0  0  0  0  0  0  0
   45.4290   35.4150   43.6320 C   0  0  0  0  0  0  0  0  0  0  0  0
   44.6200   35.8670   44.6240 N   0  0  0  0  0  0  0  0  0  0  0  0
   44.5260   35.2250   45.8220 C   0  0  0  0  0  0  0  0  0  0  0  0
   45.2490   34.1070   46.0450 N   0  0  0  0  0  0  0  0  0  0  0  0
   46.6360   32.7280   45.2870 H   0  0  0  0  0  0  0  0  0  0  0  0
   45.3920   36.0150   42.7570 H   0  0  0  0  0  0  0  0  0  0  0  0
   43.8780   35.5970   46.6010 H   0  0  0  0  0  0  0  0  0  0  0  0
   45.0360   33.3000   39.9360 C   0  0  0  0  0  0  0  0  0  0  0  0
   44.9670   33.2630   38.8460 H   0  0  0  0  0  0  0  0  0  0  0  0
   44.3710   32.4930   40.3070 H   0  0  0  0  0  0  0  0  0  0  0  0
   44.3860   34.6270   40.3320 C   0  0  0  0  0  0  0  0  0  0  0  0
   44.5600   35.4220   39.5450 H   0  0  0  0  0  0  0  0  0  0  0  0
   44.4770   34.9350   41.3460 H   0  0  0  0  0  0  0  0  0  0  0  0
   40.1860   33.8630   39.9180 C   0  0  0  0  0  0  0  0  0  0  0  0
   40.9900   33.8940   38.8200 C   0  0  0  0  0  0  0  0  0  0  0  0
   42.3450   34.1330   38.8680 C   0  0  0  0  0  0  0  0  0  0  0  0
   42.9080   34.3500   40.1070 C   0  0  0  0  0  0  0  0  0  0  0  0
   42.0840   34.3160   41.2190 C   0  0  0  0  0  0  0  0  0  0  0  0
   40.7260   34.0760   41.1560 C   0  0  0  0  0  0  0  0  0  0  0  0
   37.7780   34.6560   40.3180 H   0  0  0  0  0  0  0  0  0  0  0  0
   38.4610   33.5590   39.8610 S   0  0  0  0  0  0  0  0  0  0  0  0
   38.0140   33.2480   38.4820 O   0  0  0  0  0  0  0  0  0  0  0  0
   38.1570   32.4080   40.7790 O   0  0  0  0  0  0  0  0  0  0  0  0
  1  7  1  6  0  0  0
  1 17  1  0  0  0  0
  2  8  1  0  0  0  0
  2  9  1  0  0  0  0
  2  1  1  0  0  0  0
  3  2  1  0  0  0  0
  4  3  1  0  0  0  0
  4  5  1  0  0  0  0
  5 15  1  0  0  0  0
  5  6  1  0  0  0  0
  6  1  1  0  0  0  0
  6 16  1  1  0  0  0
 10  3  1  0  0  0  0
 11  3  1  0  0  0  0
 12  4  1  0  0  0  0
 13  4  1  0  0  0  0
 14  5  1  0  0  0  0
 17 19  1  0  0  0  0
 17 20  1  0  0  0  0
 18 17  1  0  0  0  0
 20 21  1  0  0  0  0
 20 24  1  0  0  0  0
 22 20  1  0  0  0  0
 23 29  1  0  0  0  0
 23 28  1  0  0  0  0
 24 23  2  0  0  0  0
 25 24  1  0  0  0  0
 25 26  2  0  0  0  0
 26 27  1  0  0  0  0
 27 28  2  0  0  0  0
 27 31  1  0  0  0  0
 30 25  1  0  0  0  0
 32 34  1  0  0  0  0
 32 35  1  0  0  0  0
 32  6  1  0  0  0  0
 33 32  1  0  0  0  0
 35 37  1  0  0  0  0
 36 35  1  0  0  0  0
 38 43  1  0  0  0  0
 39 40  1  0  0  0  0
 39 38  2  0  0  0  0
 40 41  2  0  0  0  0
 41 35  1  0  0  0  0
 41 42  1  0  0  0  0
 43 42  2  0  0  0  0
 45 38  1  0  0  0  0
 45 44  1  0  0  0  0
 45 47  2  0  0  0  0
 46 45  2  0  0  0  0
M  END
>  <minimizedAffinity>
-5.45938873

>  <minimizedRMSD>
2.23371148

$$$$
