
 OpenBabel03232520573D

 34 36  0  0  1  0  0  0  0  0999 V2000
   46.1100   33.6010   45.3280 C   0  0  2  0  0  0  0  0  0  0  0  0
   44.9720   34.6810   45.5150 C   0  0  0  0  0  0  0  0  0  0  0  0
   44.7470   35.5930   44.4240 C   0  0  0  0  0  0  0  0  0  0  0  0
   45.5350   35.5000   43.2040 C   0  0  1  0  0  0  0  0  0  0  0  0
   46.6240   34.5180   43.1990 C   0  0  0  0  0  0  0  0  0  0  0  0
   46.1770   33.2750   43.9400 C   0  0  0  0  0  0  0  0  0  0  0  0
   46.9450   34.2950   45.6720 H   0  0  0  0  0  0  0  0  0  0  0  0
   44.2690   34.9290   46.3030 H   0  0  0  0  0  0  0  0  0  0  0  0
   44.0090   36.3470   44.4620 H   0  0  0  0  0  0  0  0  0  0  0  0
   45.9510   36.5170   42.9840 H   0  0  0  0  0  0  0  0  0  0  0  0
   47.4860   34.9250   43.7970 H   0  0  0  0  0  0  0  0  0  0  0  0
   46.9750   34.2790   42.1980 H   0  0  0  0  0  0  0  0  0  0  0  0
   46.7710   32.4960   43.5100 H   0  0  0  0  0  0  0  0  0  0  0  0
   45.1250   33.0980   43.5480 H   0  0  0  0  0  0  0  0  0  0  0  0
   45.3160   32.8810   47.5400 C   0  0  0  0  0  0  0  0  0  0  0  0
   45.8890   32.6090   46.3350 C   0  0  0  0  0  0  0  0  0  0  0  0
   46.2230   31.2650   46.0940 C   0  0  0  0  0  0  0  0  0  0  0  0
   45.9910   30.3130   47.0010 N   0  0  0  0  0  0  0  0  0  0  0  0
   45.4110   30.6150   48.2130 C   0  0  0  0  0  0  0  0  0  0  0  0
   45.0840   31.8830   48.4640 N   0  0  0  0  0  0  0  0  0  0  0  0
   45.1810   29.5880   49.1720 N   0  0  0  0  0  0  0  0  0  0  0  0
   45.0380   33.8840   47.7860 H   0  0  0  0  0  0  0  0  0  0  0  0
   44.9990   29.8720   50.1550 H   0  0  0  0  0  0  0  0  0  0  0  0
   45.1970   28.5880   48.8830 H   0  0  0  0  0  0  0  0  0  0  0  0
   46.8380   30.5870   44.9580 C   0  0  0  0  0  0  0  0  0  0  0  0
   48.1840   30.5390   44.8640 N   0  0  0  0  0  0  0  0  0  0  0  0
   48.4960   29.8750   43.8000 O   0  0  0  0  0  0  0  0  0  0  0  0
   47.3950   29.4910   43.2010 C   0  0  0  0  0  0  0  0  0  0  0  0
   47.5760   28.9190   42.2870 H   0  0  0  0  0  0  0  0  0  0  0  0
   46.2950   29.9150   43.8910 N   0  0  0  0  0  0  0  0  0  0  0  0
   44.5510   35.2090   42.0430 C   0  0  0  0  0  0  0  0  0  0  0  0
   43.5350   34.3530   42.4050 F   0  0  0  0  0  0  0  0  0  0  0  0
   43.9530   36.4240   41.7190 F   0  0  0  0  0  0  0  0  0  0  0  0
   45.2640   34.7910   40.9240 F   0  0  0  0  0  0  0  0  0  0  0  0
  1  2  1  0  0  0  0
  1  7  1  1  0  0  0
  1 16  1  0  0  0  0
  2  8  1  0  0  0  0
  3  9  1  0  0  0  0
  3  2  2  0  0  0  0
  4 10  1  6  0  0  0
  4  3  1  0  0  0  0
  5  4  1  0  0  0  0
  5 11  1  0  0  0  0
  5  6  1  0  0  0  0
  6  1  1  0  0  0  0
 12  5  1  0  0  0  0
 13  6  1  0  0  0  0
 14  6  1  0  0  0  0
 15 22  1  0  0  0  0
 15 20  1  0  0  0  0
 16 15  2  0  0  0  0
 17 16  1  0  0  0  0
 17 18  2  0  0  0  0
 18 19  1  0  0  0  0
 19 20  2  0  0  0  0
 19 21  1  0  0  0  0
 21 23  1  0  0  0  0
 24 21  1  0  0  0  0
 25 17  1  0  0  0  0
 26 25  2  0  0  0  0
 27 26  1  0  0  0  0
 28 27  1  0  0  0  0
 28 30  2  0  0  0  0
 29 28  1  0  0  0  0
 30 25  1  0  0  0  0
 31 32  1  0  0  0  0
 31  4  1  0  0  0  0
 33 31  1  0  0  0  0
 34 31  1  0  0  0  0
M  END
>  <minimizedAffinity>
-5.60836077

>  <minimizedRMSD>
0.38789463

$$$$
