
 OpenBabel03232520473D

 38 41  0  0  0  0  0  0  0  0999 V2000
   46.4460   34.6580   42.1740 C   0  0  0  0  0  0  0  0  0  0  0  0
   47.7490   35.0280   42.0360 C   0  0  0  0  0  0  0  0  0  0  0  0
   48.4510   34.8540   40.8360 C   0  0  0  0  0  0  0  0  0  0  0  0
   47.7950   34.2770   39.7300 C   0  0  0  0  0  0  0  0  0  0  0  0
   46.4850   33.9090   39.8770 C   0  0  0  0  0  0  0  0  0  0  0  0
   45.8250   34.1010   41.0900 C   0  0  0  0  0  0  0  0  0  0  0  0
   48.2810   35.4730   42.8650 H   0  0  0  0  0  0  0  0  0  0  0  0
   49.4880   35.1720   40.7980 H   0  0  0  0  0  0  0  0  0  0  0  0
   48.3430   34.1460   38.8080 H   0  0  0  0  0  0  0  0  0  0  0  0
   46.0090   33.4710   39.0200 H   0  0  0  0  0  0  0  0  0  0  0  0
   44.4660   33.7020   41.1950 N   0  0  0  0  0  0  0  0  0  0  0  0
   43.6480   34.6620   40.6580 C   0  0  0  0  0  0  0  0  0  0  0  0
   42.2570   34.4760   40.6550 C   0  0  0  0  0  0  0  0  0  0  0  0
   41.7620   33.3020   41.2080 C   0  0  0  0  0  0  0  0  0  0  0  0
   40.5300   33.0820   41.2320 O   0  0  0  0  0  0  0  0  0  0  0  0
   42.6140   32.3940   41.7200 N   0  0  0  0  0  0  0  0  0  0  0  0
   43.9390   32.5870   41.7160 C   0  0  0  0  0  0  0  0  0  0  0  0
   44.8020   31.8060   42.1660 O   0  0  0  0  0  0  0  0  0  0  0  0
   43.9450   35.5810   40.2190 H   0  0  0  0  0  0  0  0  0  0  0  0
   42.2800   31.5030   42.1430 H   0  0  0  0  0  0  0  0  0  0  0  0
   41.3260   35.4860   40.0850 C   0  0  0  0  0  0  0  0  0  0  0  0
   40.3450   35.0350   39.9850 H   0  0  0  0  0  0  0  0  0  0  0  0
   41.7140   35.9070   39.1230 H   0  0  0  0  0  0  0  0  0  0  0  0
   41.2750   36.3040   40.8340 H   0  0  0  0  0  0  0  0  0  0  0  0
   44.4160   36.0560   45.0170 C   0  0  0  0  0  0  0  0  0  0  0  0
   44.9760   35.9550   43.7440 C   0  0  0  0  0  0  0  0  0  0  0  0
   45.8020   34.8800   43.4570 C   0  0  0  0  0  0  0  0  0  0  0  0
   46.0210   33.9890   44.4270 N   0  0  0  0  0  0  0  0  0  0  0  0
   45.4690   34.0980   45.6670 C   0  0  0  0  0  0  0  0  0  0  0  0
   44.6700   35.1320   45.9500 N   0  0  0  0  0  0  0  0  0  0  0  0
   43.7780   36.8830   45.2420 H   0  0  0  0  0  0  0  0  0  0  0  0
   44.7980   36.6800   42.9560 H   0  0  0  0  0  0  0  0  0  0  0  0
   45.7540   33.0810   46.6810 C   0  0  0  0  0  0  0  0  0  0  0  0
   46.7480   32.1710   46.6860 N   0  0  0  0  0  0  0  0  0  0  0  0
   46.6840   31.4230   47.7640 O   0  0  0  0  0  0  0  0  0  0  0  0
   45.6660   31.8200   48.4720 C   0  0  0  0  0  0  0  0  0  0  0  0
   45.3600   31.3860   49.4270 H   0  0  0  0  0  0  0  0  0  0  0  0
   45.0680   32.8480   47.8260 N   0  0  0  0  0  0  0  0  0  0  0  0
  1 27  1  0  0  0  0
  2  1  1  0  0  0  0
  2  7  1  0  0  0  0
  3  2  2  0  0  0  0
  4  5  2  0  0  0  0
  4  3  1  0  0  0  0
  5  6  1  0  0  0  0
  6 11  1  0  0  0  0
  6  1  2  0  0  0  0
  8  3  1  0  0  0  0
  9  4  1  0  0  0  0
 10  5  1  0  0  0  0
 11 17  1  0  0  0  0
 12 11  1  0  0  0  0
 13 12  2  0  0  0  0
 13 14  1  0  0  0  0
 14 15  2  0  0  0  0
 14 16  1  0  0  0  0
 16 20  1  0  0  0  0
 17 16  1  0  0  0  0
 17 18  2  0  0  0  0
 19 12  1  0  0  0  0
 21 13  1  0  0  0  0
 21 24  1  0  0  0  0
 22 21  1  0  0  0  0
 23 21  1  0  0  0  0
 25 31  1  0  0  0  0
 25 30  1  0  0  0  0
 26 25  2  0  0  0  0
 27 26  1  0  0  0  0
 27 28  2  0  0  0  0
 28 29  1  0  0  0  0
 29 30  2  0  0  0  0
 29 33  1  0  0  0  0
 32 26  1  0  0  0  0
 33 34  2  0  0  0  0
 33 38  1  0  0  0  0
 34 35  1  0  0  0  0
 35 36  1  0  0  0  0
 36 37  1  0  0  0  0
 38 36  2  0  0  0  0
M  END
>  <minimizedAffinity>
-7.35403633

>  <minimizedRMSD>
0.209165499

$$$$
