
 OpenBabel03232520383D

 17 18  0  0  0  0  0  0  0  0999 V2000
   44.6540   35.2130   45.1910 C   0  0  0  0  0  0  0  0  0  0  0  0
   45.3020   35.0530   43.9470 C   0  0  0  0  0  0  0  0  0  0  0  0
   46.2510   34.0490   43.8380 C   0  0  0  0  0  0  0  0  0  0  0  0
   46.5150   33.2660   44.9280 N   0  0  0  0  0  0  0  0  0  0  0  0
   45.8690   33.4590   46.0900 C   0  0  0  0  0  0  0  0  0  0  0  0
   44.9530   34.4130   46.2300 N   0  0  0  0  0  0  0  0  0  0  0  0
   43.9160   36.0270   45.2030 H   0  0  0  0  0  0  0  0  0  0  0  0
   46.7810   33.8800   42.9100 H   0  0  0  0  0  0  0  0  0  0  0  0
   46.1880   32.5950   47.2220 C   0  0  0  0  0  0  0  0  0  0  0  0
   45.2190   32.1900   48.1220 C   0  0  0  0  0  0  0  0  0  0  0  0
   45.4270   31.3790   49.2150 C   0  0  0  0  0  0  0  0  0  0  0  0
   44.5940   31.1250   49.8530 H   0  0  0  0  0  0  0  0  0  0  0  0
   46.7050   30.9510   49.4080 N   0  0  0  0  0  0  0  0  0  0  0  0
   47.6710   31.3290   48.5490 C   0  0  0  0  0  0  0  0  0  0  0  0
   47.4200   32.1240   47.4930 N   0  0  0  0  0  0  0  0  0  0  0  0
   44.9140   36.1160   42.5460 S   0  0  0  0  0  0  0  0  0  0  0  0
   44.0060   35.4730   41.6990 H   0  0  0  0  0  0  0  0  0  0  0  0
  1  7  1  0  0  0  0
  1  6  1  0  0  0  0
  2  1  2  0  0  0  0
  3  2  1  0  0  0  0
  3  4  2  0  0  0  0
  4  5  1  0  0  0  0
  5  6  2  0  0  0  0
  5  9  1  0  0  0  0
  8  3  1  0  0  0  0
  9 15  2  0  0  0  0
  9 10  1  0  0  0  0
 10 11  2  0  0  0  0
 11 13  1  0  0  0  0
 11 12  1  0  0  0  0
 14 13  2  0  0  0  0
 15 14  1  0  0  0  0
 16  2  1  0  0  0  0
 17 16  1  0  0  0  0
M  END
>  <minimizedAffinity>
-4.18923616

>  <minimizedRMSD>
1.62947309

$$$$
