
 OpenBabel03232520533D

 33 35  0  0  1  0  0  0  0  0999 V2000
   46.6420   32.7390   45.0160 C   0  0  2  0  0  0  0  0  0  0  0  0
   45.5190   33.6240   45.4880 C   0  0  0  0  0  0  0  0  0  0  0  0
   45.2090   34.7820   44.6830 C   0  0  0  0  0  0  0  0  0  0  0  0
   45.9590   35.0680   43.4700 C   0  0  1  0  0  0  0  0  0  0  0  0
   47.1060   34.1840   43.1540 C   0  0  0  0  0  0  0  0  0  0  0  0
   46.7750   32.7700   43.5340 C   0  0  0  0  0  0  0  0  0  0  0  0
   47.5660   33.2160   45.4520 H   0  0  0  0  0  0  0  0  0  0  0  0
   44.8300   33.6280   46.3220 H   0  0  0  0  0  0  0  0  0  0  0  0
   44.4320   35.4640   44.9360 H   0  0  0  0  0  0  0  0  0  0  0  0
   46.3410   36.1090   43.5490 H   0  0  0  0  0  0  0  0  0  0  0  0
   47.3510   34.2130   42.0900 H   0  0  0  0  0  0  0  0  0  0  0  0
   47.9980   34.4760   43.7780 H   0  0  0  0  0  0  0  0  0  0  0  0
   45.9070   32.4030   42.9860 H   0  0  0  0  0  0  0  0  0  0  0  0
   47.7000   32.1790   43.2880 H   0  0  0  0  0  0  0  0  0  0  0  0
   45.8360   31.2850   46.8130 C   0  0  0  0  0  0  0  0  0  0  0  0
   46.5230   31.4230   45.6220 C   0  0  0  0  0  0  0  0  0  0  0  0
   47.0790   30.2600   45.0730 C   0  0  0  0  0  0  0  0  0  0  0  0
   46.9370   29.0670   45.6980 N   0  0  0  0  0  0  0  0  0  0  0  0
   46.2530   28.9680   46.8720 C   0  0  0  0  0  0  0  0  0  0  0  0
   45.7110   30.0720   47.4160 N   0  0  0  0  0  0  0  0  0  0  0  0
   45.3490   32.0720   47.3720 H   0  0  0  0  0  0  0  0  0  0  0  0
   47.6160   30.3270   44.1550 H   0  0  0  0  0  0  0  0  0  0  0  0
   46.0960   27.6860   47.5510 C   0  0  0  0  0  0  0  0  0  0  0  0
   44.8680   27.3330   48.0860 C   0  0  0  0  0  0  0  0  0  0  0  0
   44.8370   26.0930   48.7080 C   0  0  0  0  0  0  0  0  0  0  0  0
   43.9210   25.7250   49.1580 H   0  0  0  0  0  0  0  0  0  0  0  0
   45.8700   25.2350   48.8290 N   0  0  0  0  0  0  0  0  0  0  0  0
   47.0550   25.6350   48.2830 C   0  0  0  0  0  0  0  0  0  0  0  0
   47.1400   26.8340   47.6660 N   0  0  0  0  0  0  0  0  0  0  0  0
   44.9620   35.0900   42.3050 C   0  0  0  0  0  0  0  0  0  0  0  0
   43.8990   34.2370   42.4940 F   0  0  0  0  0  0  0  0  0  0  0  0
   44.4290   36.3780   42.2270 F   0  0  0  0  0  0  0  0  0  0  0  0
   45.6230   34.8380   41.1160 F   0  0  0  0  0  0  0  0  0  0  0  0
  1  7  1  1  0  0  0
  1  2  1  0  0  0  0
  1 16  1  0  0  0  0
  2  8  1  0  0  0  0
  3  9  1  0  0  0  0
  3  2  2  0  0  0  0
  4 10  1  1  0  0  0
  4  3  1  0  0  0  0
  5  4  1  0  0  0  0
  5  6  1  0  0  0  0
  5 12  1  0  0  0  0
  6  1  1  0  0  0  0
 11  5  1  0  0  0  0
 13  6  1  0  0  0  0
 14  6  1  0  0  0  0
 15 21  1  0  0  0  0
 15 20  1  0  0  0  0
 16 15  2  0  0  0  0
 17 16  1  0  0  0  0
 17 18  2  0  0  0  0
 18 19  1  0  0  0  0
 19 20  2  0  0  0  0
 19 23  1  0  0  0  0
 22 17  1  0  0  0  0
 23 29  2  0  0  0  0
 23 24  1  0  0  0  0
 24 25  2  0  0  0  0
 25 27  1  0  0  0  0
 25 26  1  0  0  0  0
 28 27  2  0  0  0  0
 29 28  1  0  0  0  0
 30 31  1  0  0  0  0
 30  4  1  0  0  0  0
 32 30  1  0  0  0  0
 33 30  1  0  0  0  0
M  END
>  <minimizedAffinity>
-4.8785491

>  <minimizedRMSD>
2.09048009

$$$$
