
 OpenBabel03232520463D

 39 42  0  0  0  0  0  0  0  0999 V2000
   46.5630   34.4590   42.4580 C   0  0  0  0  0  0  0  0  0  0  0  0
   47.8670   34.8310   42.3320 C   0  0  0  0  0  0  0  0  0  0  0  0
   48.5280   34.8200   41.0890 C   0  0  0  0  0  0  0  0  0  0  0  0
   47.8340   34.4150   39.9480 C   0  0  0  0  0  0  0  0  0  0  0  0
   46.5300   34.0460   40.0910 C   0  0  0  0  0  0  0  0  0  0  0  0
   45.9050   34.0670   41.3260 C   0  0  0  0  0  0  0  0  0  0  0  0
   48.4670   35.1560   43.1760 H   0  0  0  0  0  0  0  0  0  0  0  0
   49.5680   35.1220   41.0150 H   0  0  0  0  0  0  0  0  0  0  0  0
   48.3550   34.4100   38.9950 H   0  0  0  0  0  0  0  0  0  0  0  0
   45.9930   33.7300   39.1910 H   0  0  0  0  0  0  0  0  0  0  0  0
   44.5430   33.6710   41.4140 N   0  0  0  0  0  0  0  0  0  0  0  0
   43.7200   34.6770   40.9770 C   0  0  0  0  0  0  0  0  0  0  0  0
   42.3330   34.5100   40.9740 C   0  0  0  0  0  0  0  0  0  0  0  0
   41.8360   33.2940   41.4280 C   0  0  0  0  0  0  0  0  0  0  0  0
   40.5980   33.0810   41.4500 O   0  0  0  0  0  0  0  0  0  0  0  0
   42.6840   32.3410   41.8460 N   0  0  0  0  0  0  0  0  0  0  0  0
   44.0150   32.5200   41.8420 C   0  0  0  0  0  0  0  0  0  0  0  0
   44.8730   31.6900   42.2110 O   0  0  0  0  0  0  0  0  0  0  0  0
   44.0280   35.6340   40.6150 H   0  0  0  0  0  0  0  0  0  0  0  0
   42.3510   31.4110   42.1960 H   0  0  0  0  0  0  0  0  0  0  0  0
   41.4060   35.5730   40.5080 C   0  0  0  0  0  0  0  0  0  0  0  0
   40.7980   36.0060   41.3090 H   0  0  0  0  0  0  0  0  0  0  0  0
   40.7840   35.1070   39.7060 H   0  0  0  0  0  0  0  0  0  0  0  0
   42.0270   36.3580   40.0090 H   0  0  0  0  0  0  0  0  0  0  0  0
   44.5410   35.3960   45.4870 C   0  0  0  0  0  0  0  0  0  0  0  0
   45.0470   35.4620   44.1910 C   0  0  0  0  0  0  0  0  0  0  0  0
   45.9620   34.5010   43.7750 C   0  0  0  0  0  0  0  0  0  0  0  0
   46.3110   33.5480   44.6590 N   0  0  0  0  0  0  0  0  0  0  0  0
   45.8010   33.5110   45.9120 C   0  0  0  0  0  0  0  0  0  0  0  0
   44.9210   34.4280   46.3230 N   0  0  0  0  0  0  0  0  0  0  0  0
   43.8300   36.2000   45.7040 H   0  0  0  0  0  0  0  0  0  0  0  0
   44.7690   36.2240   43.4830 H   0  0  0  0  0  0  0  0  0  0  0  0
   46.2240   32.4470   46.8190 C   0  0  0  0  0  0  0  0  0  0  0  0
   47.2360   32.6600   47.7320 C   0  0  0  0  0  3  0  0  0  0  0  0
   47.6170   31.6570   48.5680 C   0  0  0  0  0  0  0  0  0  0  0  0
   48.4060   31.8530   49.2670 H   0  0  0  0  0  0  0  0  0  0  0  0
   47.0080   30.4370   48.5170 N   0  0  0  0  0  0  0  0  0  0  0  0
   46.0130   30.2530   47.6070 C   0  0  0  0  0  3  0  0  0  0  0  0
   45.6310   31.2410   46.7760 N   0  0  0  0  0  0  0  0  0  0  0  0
  1 27  1  0  0  0  0
  2  1  1  0  0  0  0
  2  7  1  0  0  0  0
  3  2  2  0  0  0  0
  4  5  2  0  0  0  0
  4  3  1  0  0  0  0
  5  6  1  0  0  0  0
  6 11  1  0  0  0  0
  6  1  2  0  0  0  0
  8  3  1  0  0  0  0
  9  4  1  0  0  0  0
 10  5  1  0  0  0  0
 11 17  1  0  0  0  0
 12 11  1  0  0  0  0
 13 12  2  0  0  0  0
 13 14  1  0  0  0  0
 14 15  2  0  0  0  0
 14 16  1  0  0  0  0
 16 20  1  0  0  0  0
 17 16  1  0  0  0  0
 17 18  2  0  0  0  0
 19 12  1  0  0  0  0
 21 13  1  0  0  0  0
 21 22  1  0  0  0  0
 23 21  1  0  0  0  0
 24 21  1  0  0  0  0
 25 31  1  0  0  0  0
 25 30  1  0  0  0  0
 26 25  2  0  0  0  0
 27 26  1  0  0  0  0
 27 28  2  0  0  0  0
 28 29  1  0  0  0  0
 29 30  2  0  0  0  0
 29 33  1  0  0  0  0
 32 26  1  0  0  0  0
 33 34  1  0  0  0  0
 34 35  2  0  0  0  0
 35 36  1  0  0  0  0
 37 35  1  0  0  0  0
 38 37  2  0  0  0  0
 39 33  2  0  0  0  0
 39 38  1  0  0  0  0
M  END
>  <minimizedAffinity>
-7.26337671

>  <minimizedRMSD>
0.68019706

$$$$
