
 OpenBabel03232519453D

 45 48  0  0  0  0  0  0  0  0999 V2000
   46.5440   34.3840   42.0700 N   0  0  0  0  0  0  0  0  0  0  0  0
   47.6570   35.1940   41.9460 C   0  0  0  0  0  0  0  0  0  0  0  0
   48.3900   35.2310   40.7910 C   0  0  0  0  0  0  0  0  0  0  0  0
   47.9730   34.4140   39.7350 C   0  0  0  0  0  0  0  0  0  0  0  0
   48.6200   34.4320   38.6740 O   0  0  0  0  0  0  0  0  0  0  0  0
   46.8840   33.6460   39.9170 N   0  0  0  0  0  0  0  0  0  0  0  0
   46.1860   33.6340   41.0600 C   0  0  0  0  0  0  0  0  0  0  0  0
   45.1970   32.9720   41.2820 O   0  0  0  0  0  0  0  0  0  0  0  0
   48.0360   35.8500   42.7210 H   0  0  0  0  0  0  0  0  0  0  0  0
   49.2600   35.8470   40.6560 H   0  0  0  0  0  0  0  0  0  0  0  0
   46.4290   32.8000   38.8840 C   0  0  0  0  0  0  0  0  0  0  0  0
   45.5020   33.1710   37.9390 C   0  0  0  0  0  0  0  0  0  0  0  0
   45.0990   32.2990   36.9580 C   0  0  0  0  0  0  0  0  0  0  0  0
   45.6210   31.0240   36.9000 C   0  0  0  0  0  0  0  0  0  0  0  0
   46.5350   30.6790   37.8440 C   0  0  0  0  0  0  0  0  0  0  0  0
   46.9840   31.5250   38.8690 C   0  0  0  0  0  0  0  0  0  0  0  0
   45.1000   34.1680   37.9900 H   0  0  0  0  0  0  0  0  0  0  0  0
   44.3690   32.6000   36.2180 H   0  0  0  0  0  0  0  0  0  0  0  0
   45.3000   30.3410   36.1260 H   0  0  0  0  0  0  0  0  0  0  0  0
   46.9210   29.6550   37.7590 H   0  0  0  0  0  0  0  0  0  0  0  0
   47.9970   31.0480   39.8510 C   0  0  0  0  0  0  0  0  0  0  0  0
   48.2040   29.9780   39.5190 H   0  0  0  0  0  0  0  0  0  0  0  0
   49.2850   31.7910   39.8550 C   0  0  0  0  0  0  0  0  0  0  0  0
   49.7420   32.0320   38.9070 H   0  0  0  0  0  0  0  0  0  0  0  0
   49.5460   32.3660   40.7580 H   0  0  0  0  0  0  0  0  0  0  0  0
   50.0340   30.9390   40.1250 H   0  0  0  0  0  0  0  0  0  0  0  0
   47.4980   31.0240   41.2610 C   0  0  0  0  0  0  0  0  0  0  0  0
   48.0520   30.0970   41.6920 H   0  0  0  0  0  0  0  0  0  0  0  0
   47.9720   31.7300   41.9630 H   0  0  0  0  0  0  0  0  0  0  0  0
   46.4990   30.6700   41.4340 H   0  0  0  0  0  0  0  0  0  0  0  0
   44.5180   35.7390   44.8440 C   0  0  0  0  0  0  0  0  0  0  0  0
   45.0900   35.5970   43.5600 C   0  0  0  0  0  0  0  0  0  0  0  0
   45.9620   34.5300   43.3680 C   0  0  0  0  0  0  0  0  0  0  0  0
   46.2320   33.6750   44.3970 N   0  0  0  0  0  0  0  0  0  0  0  0
   45.6500   33.8600   45.6170 C   0  0  0  0  0  0  0  0  0  0  0  0
   44.8160   34.8640   45.8380 N   0  0  0  0  0  0  0  0  0  0  0  0
   43.8280   36.5580   45.0500 H   0  0  0  0  0  0  0  0  0  0  0  0
   44.8280   36.3140   42.7950 H   0  0  0  0  0  0  0  0  0  0  0  0
   45.9840   32.9090   46.6730 C   0  0  0  0  0  0  0  0  0  0  0  0
   47.0740   32.0760   46.5340 C   0  0  0  0  0  0  0  0  0  0  0  0
   47.3330   31.1910   47.5840 C   0  0  0  0  0  0  0  0  0  0  0  0
   48.2020   30.5280   47.4710 H   0  0  0  0  0  0  0  0  0  0  0  0
   46.5400   31.1590   48.6900 N   0  0  0  0  0  0  0  0  0  0  0  0
   45.4800   31.9810   48.8060 C   0  0  0  0  0  0  0  0  0  0  0  0
   45.2420   32.8250   47.7920 N   0  0  0  0  0  0  0  0  0  0  0  0
  1 33  1  0  0  0  0
  2  1  1  0  0  0  0
  2  9  1  0  0  0  0
  3  2  2  0  0  0  0
  4  6  1  0  0  0  0
  4  3  1  0  0  0  0
  5  4  2  0  0  0  0
  6  7  1  0  0  0  0
  7  8  2  0  0  0  0
  7  1  1  0  0  0  0
 10  3  1  0  0  0  0
 11  6  1  0  0  0  0
 12 17  1  0  0  0  0
 12 11  2  0  0  0  0
 13 12  1  0  0  0  0
 14 13  2  0  0  0  0
 14 15  1  0  0  0  0
 15 16  2  0  0  0  0
 16 11  1  0  0  0  0
 16 21  1  0  0  0  0
 18 13  1  0  0  0  0
 19 14  1  0  0  0  0
 20 15  1  0  0  0  0
 21 23  1  0  0  0  0
 21 27  1  0  0  0  0
 22 21  1  0  0  0  0
 23 26  1  0  0  0  0
 23 25  1  0  0  0  0
 24 23  1  0  0  0  0
 27 30  1  0  0  0  0
 27 28  1  0  0  0  0
 27 29  1  0  0  0  0
 31 37  1  0  0  0  0
 31 36  1  0  0  0  0
 32 31  2  0  0  0  0
 33 32  1  0  0  0  0
 33 34  2  0  0  0  0
 34 35  1  0  0  0  0
 35 36  2  0  0  0  0
 35 39  1  0  0  0  0
 38 32  1  0  0  0  0
 39 45  1  0  0  0  0
 40 39  2  0  0  0  0
 40 41  1  0  0  0  0
 41 43  2  0  0  0  0
 42 41  1  0  0  0  0
 43 44  1  0  0  0  0
 45 44  2  0  0  0  0
M  END
>  <minimizedAffinity>
-6.49667692

>  <minimizedRMSD>
0.181921601

$$$$
