
 OpenBabel03232520573D

 35 37  0  0  1  0  0  0  0  0999 V2000
   46.1170   33.6030   45.3120 C   0  0  2  0  0  0  0  0  0  0  0  0
   44.9770   34.6910   45.5190 C   0  0  0  0  0  0  0  0  0  0  0  0
   44.7420   35.6090   44.4340 C   0  0  0  0  0  0  0  0  0  0  0  0
   45.5140   35.5210   43.2100 C   0  0  1  0  0  0  0  0  0  0  0  0
   46.6060   34.5210   43.1790 C   0  0  0  0  0  0  0  0  0  0  0  0
   46.1240   33.2850   43.9260 C   0  0  0  0  0  0  0  0  0  0  0  0
   46.9520   34.2970   45.6390 H   0  0  0  0  0  0  0  0  0  0  0  0
   44.2830   34.9350   46.3210 H   0  0  0  0  0  0  0  0  0  0  0  0
   43.9960   36.3670   44.4950 H   0  0  0  0  0  0  0  0  0  0  0  0
   45.9610   36.5280   43.0000 H   0  0  0  0  0  0  0  0  0  0  0  0
   47.4890   34.8830   43.7580 H   0  0  0  0  0  0  0  0  0  0  0  0
   46.8960   34.2850   42.1570 H   0  0  0  0  0  0  0  0  0  0  0  0
   46.5990   32.4970   43.4180 H   0  0  0  0  0  0  0  0  0  0  0  0
   45.0190   33.2040   43.5850 H   0  0  0  0  0  0  0  0  0  0  0  0
   45.3110   32.8890   47.5380 C   0  0  0  0  0  0  0  0  0  0  0  0
   45.8900   32.6260   46.3300 C   0  0  0  0  0  0  0  0  0  0  0  0
   46.2170   31.2880   46.0990 C   0  0  0  0  0  0  0  0  0  0  0  0
   45.9750   30.3240   47.0060 N   0  0  0  0  0  0  0  0  0  0  0  0
   45.3910   30.6300   48.2130 C   0  0  0  0  0  0  0  0  0  0  0  0
   45.0700   31.8960   48.4590 N   0  0  0  0  0  0  0  0  0  0  0  0
   45.1760   29.6140   49.1910 N   0  0  0  0  0  0  0  0  0  0  0  0
   45.0270   33.8840   47.8100 H   0  0  0  0  0  0  0  0  0  0  0  0
   45.7590   29.7630   50.0590 H   0  0  0  0  0  0  0  0  0  0  0  0
   44.5380   28.8160   49.1020 H   0  0  0  0  0  0  0  0  0  0  0  0
   46.8780   30.6080   44.9930 C   0  0  0  0  0  0  0  0  0  0  0  0
   46.1120   29.7580   44.1830 C   0  0  0  0  0  3  0  0  0  0  0  0
   46.5830   28.9700   43.1270 C   0  0  0  0  0  0  0  0  0  0  0  0
   45.8610   28.3650   42.5950 H   0  0  0  0  0  0  0  0  0  0  0  0
   47.8860   29.0750   42.9150 N   0  0  0  0  0  0  0  0  0  0  0  0
   48.6590   29.8760   43.6640 C   0  0  0  0  0  3  0  0  0  0  0  0
   48.1820   30.6120   44.6620 N   0  0  0  0  0  0  0  0  0  0  0  0
   44.5220   35.2370   42.0550 C   0  0  0  0  0  0  0  0  0  0  0  0
   43.4900   34.4090   42.4280 F   0  0  0  0  0  0  0  0  0  0  0  0
   43.9520   36.4630   41.7210 F   0  0  0  0  0  0  0  0  0  0  0  0
   45.2090   34.7960   40.9400 F   0  0  0  0  0  0  0  0  0  0  0  0
  1  2  1  0  0  0  0
  1  7  1  1  0  0  0
  1 16  1  0  0  0  0
  2  8  1  0  0  0  0
  3  9  1  0  0  0  0
  3  2  2  0  0  0  0
  4 10  1  6  0  0  0
  4  3  1  0  0  0  0
  5  4  1  0  0  0  0
  5 11  1  0  0  0  0
  5  6  1  0  0  0  0
  6  1  1  0  0  0  0
 12  5  1  0  0  0  0
 13  6  1  0  0  0  0
 14  6  1  0  0  0  0
 15 22  1  0  0  0  0
 15 20  1  0  0  0  0
 16 15  2  0  0  0  0
 17 16  1  0  0  0  0
 17 18  2  0  0  0  0
 18 19  1  0  0  0  0
 19 20  2  0  0  0  0
 19 21  1  0  0  0  0
 21 23  1  0  0  0  0
 24 21  1  0  0  0  0
 25 17  1  0  0  0  0
 26 25  2  0  0  0  0
 27 26  1  0  0  0  0
 28 27  1  0  0  0  0
 29 27  2  0  0  0  0
 29 30  1  0  0  0  0
 30 31  2  0  0  0  0
 31 25  1  0  0  0  0
 32 33  1  0  0  0  0
 32  4  1  0  0  0  0
 34 32  1  0  0  0  0
 35 32  1  0  0  0  0
M  END
>  <minimizedAffinity>
-5.62365866

>  <minimizedRMSD>
0.16742526

$$$$
