
 OpenBabel03232517073D

 35 37  0  0  1  0  0  0  0  0999 V2000
   44.6520   34.4410   42.4750 C   0  0  2  0  0  0  0  0  0  0  0  0
   44.3310   33.3770   42.2120 H   0  0  0  0  0  0  0  0  0  0  0  0
   45.9410   34.5510   41.7700 C   0  0  0  0  0  0  0  0  0  0  0  0
   47.0520   35.2240   42.2890 C   0  0  0  0  0  0  0  0  0  0  0  0
   48.0910   35.1830   41.4370 N   0  0  0  0  0  0  0  0  0  0  0  0
   47.7030   34.4970   40.3540 C   0  0  0  0  0  0  0  0  0  0  0  0
   48.2940   34.1150   39.1500 C   0  0  0  0  0  0  0  0  0  0  0  0
   47.6400   33.3860   38.1790 C   0  0  0  0  0  0  0  0  0  0  0  0
   46.3220   33.0190   38.4240 C   0  0  0  0  0  0  0  0  0  0  0  0
   45.6820   33.3710   39.6020 C   0  0  0  0  0  0  0  0  0  0  0  0
   46.4180   34.1010   40.5170 C   0  0  0  0  0  0  0  0  0  0  0  0
   49.0560   35.5530   41.4600 H   0  0  0  0  0  0  0  0  0  0  0  0
   43.8160   35.4100   41.8250 N   0  0  0  0  0  0  0  0  0  0  0  0
   42.4150   35.1460   41.6860 C   0  0  0  0  0  0  0  0  0  0  0  0
   41.9880   33.9080   41.5250 N   0  0  0  0  0  0  0  0  0  0  0  0
   41.3350   36.0920   41.6770 N   0  0  0  0  0  0  0  0  0  0  0  0
   42.6140   33.0830   41.4850 H   0  0  0  0  0  0  0  0  0  0  0  0
   44.0740   36.3210   41.4190 H   0  0  0  0  0  0  0  0  0  0  0  0
   40.6420   36.0750   40.8710 H   0  0  0  0  0  0  0  0  0  0  0  0
   41.3360   36.7470   42.5160 H   0  0  0  0  0  0  0  0  0  0  0  0
   44.5910   34.4600   43.9540 C   0  0  1  0  0  0  0  0  0  0  0  0
   43.5460   34.2380   44.2520 H   0  0  0  0  0  0  0  0  0  0  0  0
   45.4650   33.4870   44.6220 C   0  0  0  0  0  0  0  0  0  0  0  0
   45.5720   32.2540   44.0410 C   0  0  0  0  0  0  0  0  0  0  0  0
   46.3140   31.2520   44.6350 C   0  0  0  0  0  0  0  0  0  0  0  0
   46.9390   31.5760   45.8400 N   0  0  0  0  0  0  0  0  0  0  0  0
   46.8270   32.7860   46.3920 C   0  0  0  0  0  0  0  0  0  0  0  0
   46.1000   33.7090   45.7780 N   0  0  0  0  0  0  0  0  0  0  0  0
   45.2570   31.7500   43.1670 H   0  0  0  0  0  0  0  0  0  0  0  0
   46.5600   30.2320   44.4160 H   0  0  0  0  0  0  0  0  0  0  0  0
   47.2990   33.0600   47.3150 H   0  0  0  0  0  0  0  0  0  0  0  0
   44.8380   35.8760   44.4880 C   0  0  0  0  0  0  0  0  0  0  0  0
   45.8800   36.0670   44.7400 H   0  0  0  0  0  0  0  0  0  0  0  0
   44.2900   35.9260   45.4750 H   0  0  0  0  0  0  0  0  0  0  0  0
   44.3270   36.5810   43.8420 H   0  0  0  0  0  0  0  0  0  0  0  0
  1  2  1  6  0  0  0
  1 21  1  0  0  0  0
  3  4  2  0  0  0  0
  3  1  1  0  0  0  0
  5 12  1  0  0  0  0
  5  4  1  0  0  0  0
  6 11  1  0  0  0  0
  6  5  1  0  0  0  0
  7  6  2  0  0  0  0
  8  9  2  0  0  0  0
  8  7  1  0  0  0  0
  9 10  1  0  0  0  0
 10 11  2  0  0  0  0
 11  3  1  0  0  0  0
 13  1  1  0  0  0  0
 14 13  1  0  0  0  0
 15 14  2  0  0  0  0
 16 14  1  0  0  0  0
 16 20  1  0  0  0  0
 17 15  1  0  0  0  0
 18 13  1  0  0  0  0
 19 16  1  0  0  0  0
 21 22  1  1  0  0  0
 21 32  1  0  0  0  0
 21 23  1  0  0  0  0
 23 28  1  0  0  0  0
 24 23  2  0  0  0  0
 24 25  1  0  0  0  0
 25 26  2  0  0  0  0
 26 27  1  0  0  0  0
 27 31  1  0  0  0  0
 28 27  2  0  0  0  0
 29 24  1  0  0  0  0
 30 25  1  0  0  0  0
 32 33  1  0  0  0  0
 32 34  1  0  0  0  0
 35 32  1  0  0  0  0
M  END
>  <minimizedAffinity>
-5.51446295

>  <minimizedRMSD>
1.18348551

$$$$
