
 OpenBabel03232518283D

 28 31  0  0  0  0  0  0  0  0999 V2000
   44.5760   35.7690   44.6600 C   0  0  0  0  0  0  0  0  0  0  0  0
   45.4150   35.4830   43.5750 C   0  0  0  0  0  0  0  0  0  0  0  0
   46.2890   34.3820   43.7200 C   0  0  0  0  0  0  0  0  0  0  0  0
   46.2770   33.6620   44.8840 N   0  0  0  0  0  0  0  0  0  0  0  0
   45.4360   34.0000   45.8880 C   0  0  0  0  0  0  0  0  0  0  0  0
   44.5880   35.0470   45.7820 N   0  0  0  0  0  0  0  0  0  0  0  0
   43.8690   36.5960   44.6430 H   0  0  0  0  0  0  0  0  0  0  0  0
   45.3760   36.0880   42.6870 H   0  0  0  0  0  0  0  0  0  0  0  0
   47.1680   34.0480   42.6380 C   0  0  0  0  0  0  0  0  0  0  0  0
   48.2120   33.1730   42.8540 C   0  0  0  0  0  0  0  0  0  0  0  0
   49.0110   32.9050   41.7590 C   0  0  0  0  0  0  0  0  0  0  0  0
   49.8390   32.2100   41.9300 H   0  0  0  0  0  0  0  0  0  0  0  0
   48.7730   33.4710   40.5590 N   0  0  0  0  0  0  0  0  0  0  0  0
   47.7410   34.3280   40.3680 C   0  0  0  0  0  0  0  0  0  0  0  0
   46.9450   34.6030   41.4370 N   0  0  0  0  0  0  0  0  0  0  0  0
   45.4470   33.0390   47.3930 S   0  0  0  0  0  0  0  0  0  0  0  0
   48.6440   29.5360   48.5470 N   0  0  0  0  0  0  0  0  0  0  0  0
   48.6230   30.5970   49.3790 C   0  0  0  0  0  0  0  0  0  0  0  0
   47.7140   31.4790   48.9600 N   0  0  0  0  0  0  0  0  0  0  0  0
   47.1240   31.0040   47.8390 C   0  0  0  0  0  0  0  0  0  0  0  0
   46.1310   31.4400   46.9550 C   0  0  0  0  0  0  0  0  0  0  0  0
   45.7860   30.6770   45.9080 N   0  0  0  0  0  0  0  0  0  0  0  0
   46.4260   29.4840   45.7400 C   0  0  0  0  0  0  0  0  0  0  0  0
   47.3980   29.0040   46.5650 N   0  0  0  0  0  0  0  0  0  0  0  0
   47.7310   29.7790   47.6050 C   0  0  0  0  0  0  0  0  0  0  0  0
   49.2710   28.6920   48.6450 H   0  0  0  0  0  0  0  0  0  0  0  0
   49.2780   30.6630   50.2490 H   0  0  0  0  0  0  0  0  0  0  0  0
   46.0860   28.9370   44.8750 H   0  0  0  0  0  0  0  0  0  0  0  0
  1  6  1  0  0  0  0
  2  3  1  0  0  0  0
  2  1  2  0  0  0  0
  3  4  2  0  0  0  0
  4  5  1  0  0  0  0
  5 16  1  0  0  0  0
  6  5  2  0  0  0  0
  7  1  1  0  0  0  0
  8  2  1  0  0  0  0
  9 10  1  0  0  0  0
  9  3  1  0  0  0  0
 11 12  1  0  0  0  0
 11 10  2  0  0  0  0
 13 11  1  0  0  0  0
 14 13  2  0  0  0  0
 14 15  1  0  0  0  0
 15  9  2  0  0  0  0
 17 26  1  0  0  0  0
 17 18  1  0  0  0  0
 18 27  1  0  0  0  0
 19 18  2  0  0  0  0
 20 19  1  0  0  0  0
 21 16  1  0  0  0  0
 21 20  2  0  0  0  0
 22 21  1  0  0  0  0
 23 22  2  0  0  0  0
 23 24  1  0  0  0  0
 24 25  2  0  0  0  0
 25 20  1  0  0  0  0
 25 17  1  0  0  0  0
 28 23  1  0  0  0  0
M  END
>  <minimizedAffinity>
-5.56494474

>  <minimizedRMSD>
0.638970912

$$$$
