
 OpenBabel03232520583D

 35 37  0  0  1  0  0  0  0  0999 V2000
   46.1180   33.6010   45.3120 C   0  0  2  0  0  0  0  0  0  0  0  0
   44.9780   34.6890   45.5190 C   0  0  0  0  0  0  0  0  0  0  0  0
   44.7430   35.6080   44.4330 C   0  0  0  0  0  0  0  0  0  0  0  0
   45.5160   35.5200   43.2110 C   0  0  1  0  0  0  0  0  0  0  0  0
   46.6080   34.5190   43.1800 C   0  0  0  0  0  0  0  0  0  0  0  0
   46.1260   33.2830   43.9260 C   0  0  0  0  0  0  0  0  0  0  0  0
   46.9530   34.2960   45.6400 H   0  0  0  0  0  0  0  0  0  0  0  0
   44.2830   34.9340   46.3210 H   0  0  0  0  0  0  0  0  0  0  0  0
   43.9970   36.3650   44.4940 H   0  0  0  0  0  0  0  0  0  0  0  0
   45.9630   36.5270   43.0000 H   0  0  0  0  0  0  0  0  0  0  0  0
   47.4910   34.8820   43.7590 H   0  0  0  0  0  0  0  0  0  0  0  0
   46.8980   34.2840   42.1590 H   0  0  0  0  0  0  0  0  0  0  0  0
   46.6010   32.4950   43.4190 H   0  0  0  0  0  0  0  0  0  0  0  0
   45.0200   33.2030   43.5850 H   0  0  0  0  0  0  0  0  0  0  0  0
   45.3110   32.8880   47.5390 C   0  0  0  0  0  0  0  0  0  0  0  0
   45.8910   32.6250   46.3310 C   0  0  0  0  0  0  0  0  0  0  0  0
   46.2180   31.2870   46.1000 C   0  0  0  0  0  0  0  0  0  0  0  0
   45.9760   30.3230   47.0070 N   0  0  0  0  0  0  0  0  0  0  0  0
   45.3910   30.6290   48.2140 C   0  0  0  0  0  0  0  0  0  0  0  0
   45.0700   31.8950   48.4590 N   0  0  0  0  0  0  0  0  0  0  0  0
   45.1750   29.6130   49.1920 N   0  0  0  0  0  0  0  0  0  0  0  0
   45.0260   33.8830   47.8100 H   0  0  0  0  0  0  0  0  0  0  0  0
   45.7580   29.7620   50.0600 H   0  0  0  0  0  0  0  0  0  0  0  0
   44.5380   28.8150   49.1030 H   0  0  0  0  0  0  0  0  0  0  0  0
   46.8790   30.6060   44.9950 C   0  0  0  0  0  0  0  0  0  0  0  0
   46.1130   29.7570   44.1840 C   0  0  0  0  0  3  0  0  0  0  0  0
   46.5830   28.9690   43.1290 C   0  0  0  0  0  0  0  0  0  0  0  0
   45.8630   28.3630   42.5980 H   0  0  0  0  0  0  0  0  0  0  0  0
   47.8870   29.0740   42.9160 N   0  0  0  0  0  0  0  0  0  0  0  0
   48.6600   29.8740   43.6660 C   0  0  0  0  0  3  0  0  0  0  0  0
   48.1830   30.6110   44.6620 N   0  0  0  0  0  0  0  0  0  0  0  0
   44.5250   35.2360   42.0550 C   0  0  0  0  0  0  0  0  0  0  0  0
   43.4930   34.4050   42.4260 F   0  0  0  0  0  0  0  0  0  0  0  0
   43.9520   36.4600   41.7220 F   0  0  0  0  0  0  0  0  0  0  0  0
   45.2120   34.7960   40.9390 F   0  0  0  0  0  0  0  0  0  0  0  0
  1  2  1  0  0  0  0
  1  7  1  1  0  0  0
  1 16  1  0  0  0  0
  2  8  1  0  0  0  0
  3  9  1  0  0  0  0
  3  2  2  0  0  0  0
  4 10  1  6  0  0  0
  4  3  1  0  0  0  0
  5  4  1  0  0  0  0
  5 11  1  0  0  0  0
  5  6  1  0  0  0  0
  6  1  1  0  0  0  0
 12  5  1  0  0  0  0
 13  6  1  0  0  0  0
 14  6  1  0  0  0  0
 15 22  1  0  0  0  0
 15 20  1  0  0  0  0
 16 15  2  0  0  0  0
 17 16  1  0  0  0  0
 17 18  2  0  0  0  0
 18 19  1  0  0  0  0
 19 20  2  0  0  0  0
 19 21  1  0  0  0  0
 21 23  1  0  0  0  0
 24 21  1  0  0  0  0
 25 17  1  0  0  0  0
 26 25  2  0  0  0  0
 27 26  1  0  0  0  0
 28 27  1  0  0  0  0
 29 27  2  0  0  0  0
 29 30  1  0  0  0  0
 30 31  2  0  0  0  0
 31 25  1  0  0  0  0
 32 33  1  0  0  0  0
 32  4  1  0  0  0  0
 34 32  1  0  0  0  0
 35 32  1  0  0  0  0
M  END
>  <minimizedAffinity>
-5.62446356

>  <minimizedRMSD>
0.624620318

$$$$
