
 OpenBabel03232518133D

 36 39  0  0  0  0  0  0  0  0999 V2000
   46.1630   31.0280   47.0450 C   0  0  0  0  0  0  0  0  0  0  0  0
   45.4530   31.1680   48.2650 C   0  0  0  0  0  0  0  0  0  0  0  0
   44.9070   29.9220   48.4940 C   0  0  0  0  0  0  0  0  0  0  0  0
   45.2540   29.0970   47.5020 N   0  0  0  0  0  0  0  0  0  0  0  0
   46.0110   29.7430   46.6170 N   0  0  0  0  0  0  0  0  0  0  0  0
   45.4760   32.1230   48.7270 H   0  0  0  0  0  0  0  0  0  0  0  0
   44.3090   29.7730   49.3820 H   0  0  0  0  0  0  0  0  0  0  0  0
   44.8280   27.7310   47.4740 C   0  0  0  0  0  0  0  0  0  0  0  0
   43.7930   27.2210   46.5260 C   0  0  0  0  0  0  0  0  0  0  0  0
   43.7580   25.4180   47.0520 S   0  0  0  0  0  0  0  0  0  0  0  0
   45.0790   25.7210   48.3720 C   0  0  0  0  0  0  0  0  0  0  0  0
   45.3330   26.8230   48.2990 N   0  0  0  0  0  0  0  0  0  0  0  0
   43.3530   27.8640   45.8530 H   0  0  0  0  0  0  0  0  0  0  0  0
   45.5360   24.5870   49.2150 C   0  0  0  0  0  0  0  0  0  0  0  0
   45.5630   24.5400   50.5760 C   0  0  0  0  0  0  0  0  0  0  0  0
   46.0570   23.3050   50.9770 C   0  0  0  0  0  0  0  0  0  0  0  0
   46.1550   23.0740   52.0180 H   0  0  0  0  0  0  0  0  0  0  0  0
   46.3170   22.6310   49.8200 N   0  0  0  0  0  0  0  0  0  0  0  0
   46.0030   23.4040   48.7780 N   0  0  0  0  0  0  0  0  0  0  0  0
   46.7020   21.6610   49.8400 H   0  0  0  0  0  0  0  0  0  0  0  0
   47.1390   32.0800   46.0200 S   0  0  0  0  0  0  0  0  0  0  0  0
   45.7230   34.9280   43.5450 C   0  0  0  0  0  0  0  0  0  0  0  0
   46.4710   33.8440   44.0180 C   0  0  0  0  0  0  0  0  0  0  0  0
   46.2630   33.4210   45.3230 C   0  0  0  0  0  0  0  0  0  0  0  0
   45.3420   34.0810   46.0780 N   0  0  0  0  0  0  0  0  0  0  0  0
   44.6380   35.1250   45.5850 C   0  0  0  0  0  0  0  0  0  0  0  0
   44.8290   35.5350   44.3410 N   0  0  0  0  0  0  0  0  0  0  0  0
   47.2140   33.2830   43.4660 H   0  0  0  0  0  0  0  0  0  0  0  0
   43.9060   35.6380   46.2080 H   0  0  0  0  0  0  0  0  0  0  0  0
   46.0480   35.2730   42.1310 C   0  0  0  0  0  0  0  0  0  0  0  0
   45.4090   34.6760   41.4640 H   0  0  0  0  0  0  0  0  0  0  0  0
   45.8320   36.3510   41.9160 H   0  0  0  0  0  0  0  0  0  0  0  0
   47.5200   35.0760   41.8630 C   0  0  0  0  0  0  0  0  0  0  0  0
   47.6560   34.0160   41.5570 H   0  0  0  0  0  0  0  0  0  0  0  0
   48.0800   35.1790   42.8180 H   0  0  0  0  0  0  0  0  0  0  0  0
   47.9240   35.7270   41.0650 H   0  0  0  0  0  0  0  0  0  0  0  0
  1  2  1  0  0  0  0
  2  3  2  0  0  0  0
  2  6  1  0  0  0  0
  3  7  1  0  0  0  0
  4  3  1  0  0  0  0
  5  1  2  0  0  0  0
  5  4  1  0  0  0  0
  8  4  1  0  0  0  0
  8 12  1  0  0  0  0
  9 10  1  0  0  0  0
  9  8  2  0  0  0  0
 10 11  1  0  0  0  0
 11 14  1  0  0  0  0
 12 11  2  0  0  0  0
 13  9  1  0  0  0  0
 14 15  1  0  0  0  0
 15 16  2  0  0  0  0
 16 17  1  0  0  0  0
 18 20  1  0  0  0  0
 18 16  1  0  0  0  0
 19 14  2  0  0  0  0
 19 18  1  0  0  0  0
 21  1  1  0  0  0  0
 22 23  2  0  0  0  0
 22 27  1  0  0  0  0
 23 24  1  0  0  0  0
 24 21  1  0  0  0  0
 24 25  2  0  0  0  0
 26 25  1  0  0  0  0
 26 29  1  0  0  0  0
 27 26  2  0  0  0  0
 28 23  1  0  0  0  0
 30 22  1  0  0  0  0
 31 30  1  0  0  0  0
 32 30  1  0  0  0  0
 33 30  1  0  0  0  0
 33 35  1  0  0  0  0
 34 33  1  0  0  0  0
 36 33  1  0  0  0  0
M  END
>  <minimizedAffinity>
-5.49886036

>  <minimizedRMSD>
1.69076467

$$$$
