
 OpenBabel03232520583D

 35 37  0  0  1  0  0  0  0  0999 V2000
   46.1040   33.6040   45.2380 C   0  0  2  0  0  0  0  0  0  0  0  0
   44.9910   34.7240   45.4760 C   0  0  0  0  0  0  0  0  0  0  0  0
   44.7400   35.6440   44.3980 C   0  0  0  0  0  0  0  0  0  0  0  0
   45.4820   35.5250   43.1490 C   0  0  1  0  0  0  0  0  0  0  0  0
   46.5410   34.4980   43.0920 C   0  0  0  0  0  0  0  0  0  0  0  0
   46.0430   33.2770   43.8550 C   0  0  0  0  0  0  0  0  0  0  0  0
   46.9590   34.2900   45.5200 H   0  0  0  0  0  0  0  0  0  0  0  0
   44.3170   34.9950   46.3070 H   0  0  0  0  0  0  0  0  0  0  0  0
   44.0090   36.4220   44.4820 H   0  0  0  0  0  0  0  0  0  0  0  0
   45.9370   36.5180   42.9180 H   0  0  0  0  0  0  0  0  0  0  0  0
   47.4430   34.8560   43.6400 H   0  0  0  0  0  0  0  0  0  0  0  0
   46.8330   34.2910   42.0660 H   0  0  0  0  0  0  0  0  0  0  0  0
   44.9190   33.2240   43.5690 H   0  0  0  0  0  0  0  0  0  0  0  0
   46.4650   32.4700   43.3280 H   0  0  0  0  0  0  0  0  0  0  0  0
   45.2820   32.9080   47.4700 C   0  0  0  0  0  0  0  0  0  0  0  0
   45.8910   32.6450   46.2760 C   0  0  0  0  0  0  0  0  0  0  0  0
   46.2350   31.3120   46.0720 C   0  0  0  0  0  0  0  0  0  0  0  0
   45.9880   30.3450   46.9750 N   0  0  0  0  0  0  0  0  0  0  0  0
   45.3720   30.6490   48.1690 C   0  0  0  0  0  0  0  0  0  0  0  0
   45.0350   31.9150   48.3890 N   0  0  0  0  0  0  0  0  0  0  0  0
   45.1190   29.6460   49.1330 N   0  0  0  0  0  0  0  0  0  0  0  0
   44.9780   33.9090   47.7290 H   0  0  0  0  0  0  0  0  0  0  0  0
   45.6300   28.7380   49.1300 H   0  0  0  0  0  0  0  0  0  0  0  0
   44.3980   29.8320   49.8620 H   0  0  0  0  0  0  0  0  0  0  0  0
   46.9380   30.6560   44.9790 C   0  0  0  0  0  0  0  0  0  0  0  0
   48.2090   30.6670   44.4520 C   0  0  0  0  0  3  0  0  0  0  0  0
   48.1870   29.8750   43.2980 C   0  0  0  0  0  0  0  0  0  0  0  0
   49.0780   29.7410   42.7200 H   0  0  0  0  0  0  0  0  0  0  0  0
   46.9210   29.4350   43.1900 N   0  0  0  0  0  0  0  0  0  0  0  0
   46.1670   29.8870   44.1770 N   0  0  0  0  0  0  0  0  0  0  0  0
   46.6250   28.8020   42.3890 H   0  0  0  0  0  0  0  0  0  0  0  0
   44.4450   35.2670   42.0270 C   0  0  0  0  0  0  0  0  0  0  0  0
   43.4000   34.4710   42.4370 F   0  0  0  0  0  0  0  0  0  0  0  0
   43.8980   36.5040   41.7000 F   0  0  0  0  0  0  0  0  0  0  0  0
   45.0950   34.7980   40.8920 F   0  0  0  0  0  0  0  0  0  0  0  0
  1  2  1  0  0  0  0
  1  7  1  1  0  0  0
  1 16  1  0  0  0  0
  2  8  1  0  0  0  0
  3  9  1  0  0  0  0
  3  2  2  0  0  0  0
  4 10  1  6  0  0  0
  4  3  1  0  0  0  0
  5  4  1  0  0  0  0
  5 11  1  0  0  0  0
  5  6  1  0  0  0  0
  6  1  1  0  0  0  0
 12  5  1  0  0  0  0
 13  6  1  0  0  0  0
 14  6  1  0  0  0  0
 15 22  1  0  0  0  0
 15 20  1  0  0  0  0
 16 15  2  0  0  0  0
 17 16  1  0  0  0  0
 17 18  2  0  0  0  0
 18 19  1  0  0  0  0
 19 20  2  0  0  0  0
 19 21  1  0  0  0  0
 21 24  1  0  0  0  0
 23 21  1  0  0  0  0
 25 17  1  0  0  0  0
 26 25  1  0  0  0  0
 27 26  2  0  0  0  0
 28 27  1  0  0  0  0
 29 27  1  0  0  0  0
 29 30  1  0  0  0  0
 30 25  2  0  0  0  0
 31 29  1  0  0  0  0
 32 33  1  0  0  0  0
 32  4  1  0  0  0  0
 34 32  1  0  0  0  0
 35 32  1  0  0  0  0
M  END
>  <minimizedAffinity>
-5.53845024

>  <minimizedRMSD>
0.209193915

$$$$
