
 OpenBabel03232520463D

 39 42  0  0  0  0  0  0  0  0999 V2000
   46.4530   34.6670   42.1740 C   0  0  0  0  0  0  0  0  0  0  0  0
   47.7570   35.0380   42.0420 C   0  0  0  0  0  0  0  0  0  0  0  0
   48.4650   34.8620   40.8590 C   0  0  0  0  0  0  0  0  0  0  0  0
   47.8170   34.2800   39.7570 C   0  0  0  0  0  0  0  0  0  0  0  0
   46.5030   33.9050   39.8860 C   0  0  0  0  0  0  0  0  0  0  0  0
   45.8470   34.1040   41.0890 C   0  0  0  0  0  0  0  0  0  0  0  0
   48.3550   35.4940   42.8210 H   0  0  0  0  0  0  0  0  0  0  0  0
   49.4840   35.1430   40.7280 H   0  0  0  0  0  0  0  0  0  0  0  0
   48.3530   34.1430   38.8460 H   0  0  0  0  0  0  0  0  0  0  0  0
   45.9890   33.4580   39.0540 H   0  0  0  0  0  0  0  0  0  0  0  0
   44.4870   33.7060   41.1890 N   0  0  0  0  0  0  0  0  0  0  0  0
   43.6520   34.6440   40.6440 C   0  0  0  0  0  0  0  0  0  0  0  0
   42.2760   34.4620   40.6310 C   0  0  0  0  0  0  0  0  0  0  0  0
   41.7830   33.2980   41.1910 C   0  0  0  0  0  0  0  0  0  0  0  0
   40.5460   33.0630   41.2160 O   0  0  0  0  0  0  0  0  0  0  0  0
   42.6310   32.3940   41.7190 N   0  0  0  0  0  0  0  0  0  0  0  0
   43.9560   32.5900   41.7200 C   0  0  0  0  0  0  0  0  0  0  0  0
   44.8160   31.8110   42.1850 O   0  0  0  0  0  0  0  0  0  0  0  0
   43.9700   35.5720   40.1920 H   0  0  0  0  0  0  0  0  0  0  0  0
   42.3110   31.4990   42.1530 H   0  0  0  0  0  0  0  0  0  0  0  0
   41.3430   35.4630   40.0470 C   0  0  0  0  0  0  0  0  0  0  0  0
   40.3520   35.3030   40.5300 H   0  0  0  0  0  0  0  0  0  0  0  0
   41.3030   35.3610   38.9560 H   0  0  0  0  0  0  0  0  0  0  0  0
   41.6980   36.4490   40.4100 H   0  0  0  0  0  0  0  0  0  0  0  0
   44.4040   36.0690   45.0040 C   0  0  0  0  0  0  0  0  0  0  0  0
   44.9650   35.9670   43.7320 C   0  0  0  0  0  0  0  0  0  0  0  0
   45.8010   34.8950   43.4570 C   0  0  0  0  0  0  0  0  0  0  0  0
   46.0240   34.0110   44.4360 N   0  0  0  0  0  0  0  0  0  0  0  0
   45.4670   34.1270   45.6720 C   0  0  0  0  0  0  0  0  0  0  0  0
   44.6610   35.1550   45.9490 N   0  0  0  0  0  0  0  0  0  0  0  0
   43.7670   36.9310   45.1310 H   0  0  0  0  0  0  0  0  0  0  0  0
   44.8040   36.6640   42.9230 H   0  0  0  0  0  0  0  0  0  0  0  0
   45.7960   33.0900   46.6460 C   0  0  0  0  0  0  0  0  0  0  0  0
   46.8440   32.1930   46.6310 C   0  0  0  0  0  0  0  0  0  0  0  0
   46.7700   31.3980   47.7460 C   0  0  0  0  0  0  0  0  0  0  0  0
   47.3740   30.6010   48.0990 H   0  0  0  0  0  0  0  0  0  0  0  0
   45.6880   31.8030   48.4360 N   0  0  0  0  0  0  0  0  0  0  0  0
   45.1260   32.8000   47.7750 N   0  0  0  0  0  0  0  0  0  0  0  0
   45.2180   31.5210   49.3280 H   0  0  0  0  0  0  0  0  0  0  0  0
  1 27  1  0  0  0  0
  2  1  1  0  0  0  0
  2  7  1  0  0  0  0
  3  2  2  0  0  0  0
  4  5  2  0  0  0  0
  4  3  1  0  0  0  0
  5  6  1  0  0  0  0
  6 11  1  0  0  0  0
  6  1  2  0  0  0  0
  8  3  1  0  0  0  0
  9  4  1  0  0  0  0
 10  5  1  0  0  0  0
 11 17  1  0  0  0  0
 12 11  1  0  0  0  0
 13 12  2  0  0  0  0
 13 14  1  0  0  0  0
 14 15  2  0  0  0  0
 14 16  1  0  0  0  0
 16 17  1  0  0  0  0
 16 20  1  0  0  0  0
 17 18  2  0  0  0  0
 19 12  1  0  0  0  0
 21 24  1  0  0  0  0
 21 22  1  0  0  0  0
 21 13  1  0  0  0  0
 23 21  1  0  0  0  0
 25 31  1  0  0  0  0
 25 30  1  0  0  0  0
 26 25  2  0  0  0  0
 27 26  1  0  0  0  0
 27 28  2  0  0  0  0
 28 29  1  0  0  0  0
 29 30  2  0  0  0  0
 29 33  1  0  0  0  0
 32 26  1  0  0  0  0
 33 38  2  0  0  0  0
 34 33  1  0  0  0  0
 34 35  2  0  0  0  0
 35 36  1  0  0  0  0
 35 37  1  0  0  0  0
 37 39  1  0  0  0  0
 38 37  1  0  0  0  0
M  END
>  <minimizedAffinity>
-7.40219641

>  <minimizedRMSD>
0.16193381

$$$$
