
 OpenBabel03232520573D

 35 37  0  0  1  0  0  0  0  0999 V2000
   46.1050   33.6040   45.2390 C   0  0  2  0  0  0  0  0  0  0  0  0
   44.9910   34.7230   45.4760 C   0  0  0  0  0  0  0  0  0  0  0  0
   44.7390   35.6430   44.3990 C   0  0  0  0  0  0  0  0  0  0  0  0
   45.4820   35.5250   43.1500 C   0  0  1  0  0  0  0  0  0  0  0  0
   46.5410   34.4990   43.0930 C   0  0  0  0  0  0  0  0  0  0  0  0
   46.0440   33.2780   43.8560 C   0  0  0  0  0  0  0  0  0  0  0  0
   46.9590   34.2910   45.5210 H   0  0  0  0  0  0  0  0  0  0  0  0
   44.3160   34.9940   46.3070 H   0  0  0  0  0  0  0  0  0  0  0  0
   44.0080   36.4210   44.4830 H   0  0  0  0  0  0  0  0  0  0  0  0
   45.9360   36.5190   42.9190 H   0  0  0  0  0  0  0  0  0  0  0  0
   47.4430   34.8570   43.6420 H   0  0  0  0  0  0  0  0  0  0  0  0
   46.8340   34.2920   42.0670 H   0  0  0  0  0  0  0  0  0  0  0  0
   44.9210   33.2240   43.5690 H   0  0  0  0  0  0  0  0  0  0  0  0
   46.4660   32.4710   43.3280 H   0  0  0  0  0  0  0  0  0  0  0  0
   45.2820   32.9070   47.4710 C   0  0  0  0  0  0  0  0  0  0  0  0
   45.8910   32.6450   46.2760 C   0  0  0  0  0  0  0  0  0  0  0  0
   46.2360   31.3120   46.0730 C   0  0  0  0  0  0  0  0  0  0  0  0
   45.9890   30.3450   46.9750 N   0  0  0  0  0  0  0  0  0  0  0  0
   45.3730   30.6490   48.1690 C   0  0  0  0  0  0  0  0  0  0  0  0
   45.0350   31.9140   48.3890 N   0  0  0  0  0  0  0  0  0  0  0  0
   45.1200   29.6450   49.1330 N   0  0  0  0  0  0  0  0  0  0  0  0
   44.9770   33.9080   47.7300 H   0  0  0  0  0  0  0  0  0  0  0  0
   45.6310   28.7370   49.1290 H   0  0  0  0  0  0  0  0  0  0  0  0
   44.3980   29.8300   49.8620 H   0  0  0  0  0  0  0  0  0  0  0  0
   46.9400   30.6570   44.9790 C   0  0  0  0  0  0  0  0  0  0  0  0
   48.2110   30.6680   44.4520 C   0  0  0  0  0  3  0  0  0  0  0  0
   48.1900   29.8750   43.2990 C   0  0  0  0  0  0  0  0  0  0  0  0
   49.0800   29.7410   42.7210 H   0  0  0  0  0  0  0  0  0  0  0  0
   46.9240   29.4340   43.1920 N   0  0  0  0  0  0  0  0  0  0  0  0
   46.1690   29.8860   44.1780 N   0  0  0  0  0  0  0  0  0  0  0  0
   46.6270   28.8010   42.3910 H   0  0  0  0  0  0  0  0  0  0  0  0
   44.4460   35.2670   42.0270 C   0  0  0  0  0  0  0  0  0  0  0  0
   43.4000   34.4710   42.4380 F   0  0  0  0  0  0  0  0  0  0  0  0
   43.8990   36.5040   41.6990 F   0  0  0  0  0  0  0  0  0  0  0  0
   45.0960   34.7970   40.8940 F   0  0  0  0  0  0  0  0  0  0  0  0
  1  2  1  0  0  0  0
  1  7  1  1  0  0  0
  1 16  1  0  0  0  0
  2  8  1  0  0  0  0
  3  9  1  0  0  0  0
  3  2  2  0  0  0  0
  4 10  1  6  0  0  0
  4  3  1  0  0  0  0
  5  4  1  0  0  0  0
  5 11  1  0  0  0  0
  5  6  1  0  0  0  0
  6  1  1  0  0  0  0
 12  5  1  0  0  0  0
 13  6  1  0  0  0  0
 14  6  1  0  0  0  0
 15 22  1  0  0  0  0
 15 20  1  0  0  0  0
 16 15  2  0  0  0  0
 17 16  1  0  0  0  0
 17 18  2  0  0  0  0
 18 19  1  0  0  0  0
 19 20  2  0  0  0  0
 19 21  1  0  0  0  0
 21 24  1  0  0  0  0
 23 21  1  0  0  0  0
 25 17  1  0  0  0  0
 26 25  1  0  0  0  0
 27 26  2  0  0  0  0
 28 27  1  0  0  0  0
 29 27  1  0  0  0  0
 29 30  1  0  0  0  0
 30 25  2  0  0  0  0
 31 29  1  0  0  0  0
 32 33  1  0  0  0  0
 32  4  1  0  0  0  0
 34 32  1  0  0  0  0
 35 32  1  0  0  0  0
M  END
>  <minimizedAffinity>
-5.54120016

>  <minimizedRMSD>
0.457583398

$$$$
