
 OpenBabel03232520583D

 35 37  0  0  1  0  0  0  0  0999 V2000
   45.8410   33.6350   44.9410 C   0  0  2  0  0  0  0  0  0  0  0  0
   44.9240   34.8910   45.3000 C   0  0  0  0  0  0  0  0  0  0  0  0
   44.5280   35.7500   44.2160 C   0  0  0  0  0  0  0  0  0  0  0  0
   44.9550   35.4530   42.8550 C   0  0  1  0  0  0  0  0  0  0  0  0
   45.8690   34.3080   42.6730 C   0  0  0  0  0  0  0  0  0  0  0  0
   45.4400   33.2140   43.6420 C   0  0  0  0  0  0  0  0  0  0  0  0
   46.8000   34.2360   44.9630 H   0  0  0  0  0  0  0  0  0  0  0  0
   44.4830   35.3010   46.2260 H   0  0  0  0  0  0  0  0  0  0  0  0
   43.9140   36.6130   44.3780 H   0  0  0  0  0  0  0  0  0  0  0  0
   45.4400   36.3660   42.4340 H   0  0  0  0  0  0  0  0  0  0  0  0
   46.9010   34.5980   42.9760 H   0  0  0  0  0  0  0  0  0  0  0  0
   45.9020   33.9910   41.6340 H   0  0  0  0  0  0  0  0  0  0  0  0
   44.2800   33.2710   43.6120 H   0  0  0  0  0  0  0  0  0  0  0  0
   45.6510   32.3260   43.1190 H   0  0  0  0  0  0  0  0  0  0  0  0
   45.3260   33.1740   47.3210 C   0  0  0  0  0  0  0  0  0  0  0  0
   45.7740   32.7880   46.0900 C   0  0  0  0  0  0  0  0  0  0  0  0
   46.1000   31.4390   45.9800 C   0  0  0  0  0  0  0  0  0  0  0  0
   45.9820   30.5710   47.0010 N   0  0  0  0  0  0  0  0  0  0  0  0
   45.5260   30.9990   48.2280 C   0  0  0  0  0  0  0  0  0  0  0  0
   45.2110   32.2820   48.3610 N   0  0  0  0  0  0  0  0  0  0  0  0
   45.4110   30.1000   49.3140 N   0  0  0  0  0  0  0  0  0  0  0  0
   45.0510   34.1980   47.5150 H   0  0  0  0  0  0  0  0  0  0  0  0
   45.9240   29.1940   49.3360 H   0  0  0  0  0  0  0  0  0  0  0  0
   44.7900   30.3630   50.1100 H   0  0  0  0  0  0  0  0  0  0  0  0
   46.6580   30.6720   44.8760 C   0  0  0  0  0  0  0  0  0  0  0  0
   46.2060   29.7440   43.9650 C   0  0  0  0  0  3  0  0  0  0  0  0
   47.3160   29.3060   43.2330 C   0  0  0  0  0  0  0  0  0  0  0  0
   47.1960   28.5750   42.4610 H   0  0  0  0  0  0  0  0  0  0  0  0
   48.3640   29.9840   43.7330 N   0  0  0  0  0  0  0  0  0  0  0  0
   47.9950   30.7970   44.7060 N   0  0  0  0  0  0  0  0  0  0  0  0
   49.3450   29.8390   43.3490 H   0  0  0  0  0  0  0  0  0  0  0  0
   43.6720   35.2330   42.0130 C   0  0  0  0  0  0  0  0  0  0  0  0
   43.4720   33.9130   41.6790 F   0  0  0  0  0  0  0  0  0  0  0  0
   42.6010   35.6070   42.8180 F   0  0  0  0  0  0  0  0  0  0  0  0
   43.6800   36.0930   40.9220 F   0  0  0  0  0  0  0  0  0  0  0  0
  1  7  1  6  0  0  0
  1  2  1  0  0  0  0
  1 16  1  0  0  0  0
  2  8  1  0  0  0  0
  3  9  1  0  0  0  0
  3  2  2  0  0  0  0
  4 10  1  6  0  0  0
  4  3  1  0  0  0  0
  5  4  1  0  0  0  0
  5 11  1  0  0  0  0
  5  6  1  0  0  0  0
  6  1  1  0  0  0  0
 12  5  1  0  0  0  0
 13  6  1  0  0  0  0
 14  6  1  0  0  0  0
 15 22  1  0  0  0  0
 15 20  1  0  0  0  0
 16 15  2  0  0  0  0
 17 16  1  0  0  0  0
 17 18  2  0  0  0  0
 18 19  1  0  0  0  0
 19 20  2  0  0  0  0
 19 21  1  0  0  0  0
 21 23  1  0  0  0  0
 21 24  1  0  0  0  0
 25 17  1  0  0  0  0
 26 25  1  0  0  0  0
 27 29  1  0  0  0  0
 27 26  2  0  0  0  0
 28 27  1  0  0  0  0
 29 30  1  0  0  0  0
 30 25  2  0  0  0  0
 31 29  1  0  0  0  0
 32 34  1  0  0  0  0
 32  4  1  0  0  0  0
 33 32  1  0  0  0  0
 35 32  1  0  0  0  0
M  END
>  <minimizedAffinity>
-5.23811722

>  <minimizedRMSD>
0.950872242

$$$$
