
 OpenBabel03232519393D

 36 39  0  0  0  0  0  0  0  0999 V2000
   46.5410   34.4540   41.9590 N   0  0  0  0  0  0  0  0  0  0  0  0
   47.6720   35.2310   41.8510 C   0  0  0  0  0  0  0  0  0  0  0  0
   48.4210   35.2440   40.7050 C   0  0  0  0  0  0  0  0  0  0  0  0
   47.9950   34.4370   39.6450 C   0  0  0  0  0  0  0  0  0  0  0  0
   48.6570   34.4230   38.5800 O   0  0  0  0  0  0  0  0  0  0  0  0
   46.8840   33.7040   39.8170 N   0  0  0  0  0  0  0  0  0  0  0  0
   46.1680   33.7080   40.9460 C   0  0  0  0  0  0  0  0  0  0  0  0
   45.1480   33.0630   41.1620 O   0  0  0  0  0  0  0  0  0  0  0  0
   48.0600   35.8770   42.6260 H   0  0  0  0  0  0  0  0  0  0  0  0
   49.3160   35.8400   40.5820 H   0  0  0  0  0  0  0  0  0  0  0  0
   46.4080   32.8670   38.7720 C   0  0  0  0  0  0  0  0  0  0  0  0
   45.4600   33.2640   37.8350 C   0  0  0  0  0  0  0  0  0  0  0  0
   45.0460   32.3960   36.8500 C   0  0  0  0  0  0  0  0  0  0  0  0
   45.5680   31.1070   36.7730 C   0  0  0  0  0  0  0  0  0  0  0  0
   46.5020   30.7400   37.7110 C   0  0  0  0  0  0  0  0  0  0  0  0
   46.9530   31.5910   38.7320 C   0  0  0  0  0  0  0  0  0  0  0  0
   45.0560   34.2820   37.9060 H   0  0  0  0  0  0  0  0  0  0  0  0
   44.3000   32.7220   36.1210 H   0  0  0  0  0  0  0  0  0  0  0  0
   45.2730   30.4000   36.0220 H   0  0  0  0  0  0  0  0  0  0  0  0
   46.9220   29.7450   37.6710 H   0  0  0  0  0  0  0  0  0  0  0  0
   47.9490   31.1620   39.7080 C   0  0  0  0  0  0  0  0  0  0  0  0
   47.6260   30.5380   40.8950 C   0  0  0  0  0  0  0  0  0  0  0  0
   48.8480   30.3140   41.4960 C   0  0  0  0  0  0  0  0  0  0  0  0
   49.0420   29.8430   42.4490 H   0  0  0  0  0  0  0  0  0  0  0  0
   49.8550   30.7800   40.7110 N   0  0  0  0  0  0  0  0  0  0  0  0
   49.2860   31.2870   39.6400 N   0  0  0  0  0  0  0  0  0  0  0  0
   50.8910   30.7920   40.8260 H   0  0  0  0  0  0  0  0  0  0  0  0
   44.5270   35.8720   44.7260 C   0  0  0  0  0  0  0  0  0  0  0  0
   45.1200   35.7080   43.4400 C   0  0  0  0  0  0  0  0  0  0  0  0
   45.9410   34.6210   43.2580 C   0  0  0  0  0  0  0  0  0  0  0  0
   46.1690   33.7440   44.2830 N   0  0  0  0  0  0  0  0  0  0  0  0
   45.5830   33.9400   45.4940 C   0  0  0  0  0  0  0  0  0  0  0  0
   44.7750   34.9880   45.7130 N   0  0  0  0  0  0  0  0  0  0  0  0
   43.8730   36.7150   44.9160 H   0  0  0  0  0  0  0  0  0  0  0  0
   44.8910   36.4380   42.6890 H   0  0  0  0  0  0  0  0  0  0  0  0
   45.8260   33.1910   46.2390 H   0  0  0  0  0  0  0  0  0  0  0  0
  1 30  1  0  0  0  0
  2  1  1  0  0  0  0
  2  9  1  0  0  0  0
  3  2  2  0  0  0  0
  4  6  1  0  0  0  0
  4  3  1  0  0  0  0
  5  4  2  0  0  0  0
  6  7  1  0  0  0  0
  7  8  2  0  0  0  0
  7  1  1  0  0  0  0
 10  3  1  0  0  0  0
 11  6  1  0  0  0  0
 12 17  1  0  0  0  0
 12 11  2  0  0  0  0
 13 12  1  0  0  0  0
 14 13  2  0  0  0  0
 14 15  1  0  0  0  0
 15 16  2  0  0  0  0
 16 11  1  0  0  0  0
 16 21  1  0  0  0  0
 18 13  1  0  0  0  0
 19 14  1  0  0  0  0
 20 15  1  0  0  0  0
 21 22  1  0  0  0  0
 22 23  2  0  0  0  0
 23 24  1  0  0  0  0
 25 27  1  0  0  0  0
 25 23  1  0  0  0  0
 26 21  2  0  0  0  0
 26 25  1  0  0  0  0
 28 34  1  0  0  0  0
 28 33  1  0  0  0  0
 29 28  2  0  0  0  0
 30 29  1  0  0  0  0
 30 31  2  0  0  0  0
 31 32  1  0  0  0  0
 32 33  2  0  0  0  0
 32 36  1  0  0  0  0
 35 29  1  0  0  0  0
M  END
>  <minimizedAffinity>
-5.25770807

>  <minimizedRMSD>
0.265467018

$$$$
