
 OpenBabel03232519453D

 45 48  0  0  0  0  0  0  0  0999 V2000
   46.5330   34.4430   41.9680 N   0  0  0  0  0  0  0  0  0  0  0  0
   47.6790   35.2010   41.8510 C   0  0  0  0  0  0  0  0  0  0  0  0
   48.4230   35.2030   40.7020 C   0  0  0  0  0  0  0  0  0  0  0  0
   47.9780   34.4050   39.6420 C   0  0  0  0  0  0  0  0  0  0  0  0
   48.6330   34.3910   38.5860 O   0  0  0  0  0  0  0  0  0  0  0  0
   46.8540   33.6870   39.8190 N   0  0  0  0  0  0  0  0  0  0  0  0
   46.1470   33.7080   40.9570 C   0  0  0  0  0  0  0  0  0  0  0  0
   45.1280   33.0920   41.1720 O   0  0  0  0  0  0  0  0  0  0  0  0
   48.0800   35.8390   42.6280 H   0  0  0  0  0  0  0  0  0  0  0  0
   49.3250   35.7850   40.5750 H   0  0  0  0  0  0  0  0  0  0  0  0
   46.3680   32.8560   38.7870 C   0  0  0  0  0  0  0  0  0  0  0  0
   45.4490   33.2530   37.8440 C   0  0  0  0  0  0  0  0  0  0  0  0
   45.0150   32.3920   36.8670 C   0  0  0  0  0  0  0  0  0  0  0  0
   45.4940   31.1000   36.8110 C   0  0  0  0  0  0  0  0  0  0  0  0
   46.4010   30.7250   37.7510 C   0  0  0  0  0  0  0  0  0  0  0  0
   46.8810   31.5590   38.7710 C   0  0  0  0  0  0  0  0  0  0  0  0
   45.0680   34.2650   37.8790 H   0  0  0  0  0  0  0  0  0  0  0  0
   44.2900   32.6830   36.1110 H   0  0  0  0  0  0  0  0  0  0  0  0
   45.1520   30.4230   36.0420 H   0  0  0  0  0  0  0  0  0  0  0  0
   46.7580   29.6850   37.6690 H   0  0  0  0  0  0  0  0  0  0  0  0
   47.8780   31.0500   39.7540 C   0  0  0  0  0  0  0  0  0  0  0  0
   48.0270   29.9660   39.4450 H   0  0  0  0  0  0  0  0  0  0  0  0
   49.2010   31.7280   39.7270 C   0  0  0  0  0  0  0  0  0  0  0  0
   49.5070   32.3060   40.6120 H   0  0  0  0  0  0  0  0  0  0  0  0
   49.6530   31.9290   38.7640 H   0  0  0  0  0  0  0  0  0  0  0  0
   49.9130   30.8450   39.9990 H   0  0  0  0  0  0  0  0  0  0  0  0
   47.3930   31.0730   41.1680 C   0  0  0  0  0  0  0  0  0  0  0  0
   47.9070   30.1310   41.6170 H   0  0  0  0  0  0  0  0  0  0  0  0
   46.3810   30.7770   41.3630 H   0  0  0  0  0  0  0  0  0  0  0  0
   47.9100   31.7720   41.8520 H   0  0  0  0  0  0  0  0  0  0  0  0
   44.4880   35.8580   44.7080 C   0  0  0  0  0  0  0  0  0  0  0  0
   45.0710   35.6850   43.4240 C   0  0  0  0  0  0  0  0  0  0  0  0
   45.9430   34.6160   43.2660 C   0  0  0  0  0  0  0  0  0  0  0  0
   46.2060   33.7890   44.3120 N   0  0  0  0  0  0  0  0  0  0  0  0
   45.6270   33.9940   45.5150 C   0  0  0  0  0  0  0  0  0  0  0  0
   44.7780   35.0120   45.7180 N   0  0  0  0  0  0  0  0  0  0  0  0
   43.7950   36.6890   44.8750 H   0  0  0  0  0  0  0  0  0  0  0  0
   44.8250   36.3710   42.6360 H   0  0  0  0  0  0  0  0  0  0  0  0
   45.9470   33.0670   46.6160 C   0  0  0  0  0  0  0  0  0  0  0  0
   47.0150   32.2130   46.8400 C   0  0  0  0  0  0  0  0  0  0  0  0
   46.7990   31.5720   48.0500 C   0  0  0  0  0  0  0  0  0  0  0  0
   47.4830   30.8440   48.4710 H   0  0  0  0  0  0  0  0  0  0  0  0
   45.6360   32.0280   48.5380 N   0  0  0  0  0  0  0  0  0  0  0  0
   45.1240   32.9180   47.6900 N   0  0  0  0  0  0  0  0  0  0  0  0
   45.2670   31.6810   49.4510 H   0  0  0  0  0  0  0  0  0  0  0  0
  1 33  1  0  0  0  0
  2  1  1  0  0  0  0
  2  9  1  0  0  0  0
  3  2  2  0  0  0  0
  4  6  1  0  0  0  0
  4  3  1  0  0  0  0
  5  4  2  0  0  0  0
  6  7  1  0  0  0  0
  7  8  2  0  0  0  0
  7  1  1  0  0  0  0
 10  3  1  0  0  0  0
 11  6  1  0  0  0  0
 12 17  1  0  0  0  0
 12 11  2  0  0  0  0
 13 12  1  0  0  0  0
 14 13  2  0  0  0  0
 14 15  1  0  0  0  0
 15 16  2  0  0  0  0
 16 11  1  0  0  0  0
 16 21  1  0  0  0  0
 18 13  1  0  0  0  0
 19 14  1  0  0  0  0
 20 15  1  0  0  0  0
 21 27  1  0  0  0  0
 22 21  1  0  0  0  0
 23 21  1  0  0  0  0
 23 26  1  0  0  0  0
 23 24  1  0  0  0  0
 25 23  1  0  0  0  0
 27 29  1  0  0  0  0
 27 28  1  0  0  0  0
 27 30  1  0  0  0  0
 31 37  1  0  0  0  0
 31 36  1  0  0  0  0
 32 31  2  0  0  0  0
 33 32  1  0  0  0  0
 33 34  2  0  0  0  0
 34 35  1  0  0  0  0
 35 36  2  0  0  0  0
 35 39  1  0  0  0  0
 38 32  1  0  0  0  0
 39 40  1  0  0  0  0
 39 44  2  0  0  0  0
 40 41  2  0  0  0  0
 41 42  1  0  0  0  0
 41 43  1  0  0  0  0
 43 45  1  0  0  0  0
 44 43  1  0  0  0  0
M  END
>  <minimizedAffinity>
-6.29850245

>  <minimizedRMSD>
0.141558424

$$$$
