
 OpenBabel03232520583D

 35 37  0  0  1  0  0  0  0  0999 V2000
   45.8860   33.3060   44.4160 C   0  0  2  0  0  0  0  0  0  0  0  0
   45.3710   34.7970   44.6640 C   0  0  0  0  0  0  0  0  0  0  0  0
   44.9660   35.5550   43.5090 C   0  0  0  0  0  0  0  0  0  0  0  0
   45.0250   34.9530   42.1830 C   0  0  1  0  0  0  0  0  0  0  0  0
   45.5980   33.5960   42.0860 C   0  0  0  0  0  0  0  0  0  0  0  0
   45.1410   32.8120   43.3090 C   0  0  0  0  0  0  0  0  0  0  0  0
   46.9390   33.6330   44.1640 H   0  0  0  0  0  0  0  0  0  0  0  0
   45.2350   35.4430   45.5490 H   0  0  0  0  0  0  0  0  0  0  0  0
   44.6100   36.5610   43.5940 H   0  0  0  0  0  0  0  0  0  0  0  0
   45.6080   35.6340   41.5170 H   0  0  0  0  0  0  0  0  0  0  0  0
   46.7100   33.6510   42.1550 H   0  0  0  0  0  0  0  0  0  0  0  0
   45.3450   33.1280   41.1390 H   0  0  0  0  0  0  0  0  0  0  0  0
   44.0440   33.1630   43.4560 H   0  0  0  0  0  0  0  0  0  0  0  0
   45.0340   31.8310   42.9450 H   0  0  0  0  0  0  0  0  0  0  0  0
   45.4420   33.2950   46.8550 C   0  0  0  0  0  0  0  0  0  0  0  0
   45.8660   32.6900   45.7060 C   0  0  0  0  0  0  0  0  0  0  0  0
   46.2160   31.3500   45.8420 C   0  0  0  0  0  0  0  0  0  0  0  0
   46.1430   30.6880   47.0110 N   0  0  0  0  0  0  0  0  0  0  0  0
   45.7110   31.3330   48.1490 C   0  0  0  0  0  0  0  0  0  0  0  0
   45.3720   32.6130   48.0470 N   0  0  0  0  0  0  0  0  0  0  0  0
   45.6420   30.6540   49.3880 N   0  0  0  0  0  0  0  0  0  0  0  0
   45.1510   34.3330   46.8600 H   0  0  0  0  0  0  0  0  0  0  0  0
   46.1740   29.7770   49.5650 H   0  0  0  0  0  0  0  0  0  0  0  0
   45.0370   31.0530   50.1370 H   0  0  0  0  0  0  0  0  0  0  0  0
   46.7610   30.3960   44.8860 C   0  0  0  0  0  0  0  0  0  0  0  0
   46.2850   29.3600   44.1150 C   0  0  0  0  0  3  0  0  0  0  0  0
   47.3880   28.7650   43.4920 C   0  0  0  0  0  0  0  0  0  0  0  0
   47.2490   27.9290   42.8390 H   0  0  0  0  0  0  0  0  0  0  0  0
   48.4570   29.4630   43.9130 N   0  0  0  0  0  0  0  0  0  0  0  0
   48.1060   30.4340   44.7400 N   0  0  0  0  0  0  0  0  0  0  0  0
   49.4380   29.2170   43.5870 H   0  0  0  0  0  0  0  0  0  0  0  0
   43.5820   34.9500   41.6200 C   0  0  0  0  0  0  0  0  0  0  0  0
   42.6510   35.3870   42.5340 F   0  0  0  0  0  0  0  0  0  0  0  0
   43.5640   35.8600   40.5680 F   0  0  0  0  0  0  0  0  0  0  0  0
   43.2960   33.7020   41.0810 F   0  0  0  0  0  0  0  0  0  0  0  0
  1  7  1  6  0  0  0
  1  2  1  0  0  0  0
  1 16  1  0  0  0  0
  2  8  1  0  0  0  0
  3  9  1  0  0  0  0
  3  2  2  0  0  0  0
  4 10  1  6  0  0  0
  4  3  1  0  0  0  0
  5 11  1  0  0  0  0
  5  4  1  0  0  0  0
  5  6  1  0  0  0  0
  6 13  1  0  0  0  0
  6  1  1  0  0  0  0
 12  5  1  0  0  0  0
 14  6  1  0  0  0  0
 15 22  1  0  0  0  0
 15 20  1  0  0  0  0
 16 17  1  0  0  0  0
 16 15  2  0  0  0  0
 17 18  2  0  0  0  0
 18 19  1  0  0  0  0
 19 21  1  0  0  0  0
 20 19  2  0  0  0  0
 21 23  1  0  0  0  0
 21 24  1  0  0  0  0
 25 17  1  0  0  0  0
 26 25  1  0  0  0  0
 27 29  1  0  0  0  0
 27 26  2  0  0  0  0
 28 27  1  0  0  0  0
 29 30  1  0  0  0  0
 30 25  2  0  0  0  0
 31 29  1  0  0  0  0
 32  4  1  0  0  0  0
 32 33  1  0  0  0  0
 34 32  1  0  0  0  0
 35 32  1  0  0  0  0
M  END
>  <minimizedAffinity>
-4.84099436

>  <minimizedRMSD>
1.18912065

$$$$
