
 OpenBabel03232520583D

 35 37  0  0  1  0  0  0  0  0999 V2000
   46.1180   33.5970   45.2810 C   0  0  2  0  0  0  0  0  0  0  0  0
   44.9730   34.6860   45.5070 C   0  0  0  0  0  0  0  0  0  0  0  0
   44.7290   35.6180   44.4370 C   0  0  0  0  0  0  0  0  0  0  0  0
   45.5070   35.5380   43.2070 C   0  0  1  0  0  0  0  0  0  0  0  0
   46.5910   34.5370   43.1620 C   0  0  0  0  0  0  0  0  0  0  0  0
   46.1020   33.2920   43.8920 C   0  0  0  0  0  0  0  0  0  0  0  0
   46.9490   34.2980   45.5980 H   0  0  0  0  0  0  0  0  0  0  0  0
   44.2700   34.9280   46.3230 H   0  0  0  0  0  0  0  0  0  0  0  0
   43.9780   36.3770   44.5140 H   0  0  0  0  0  0  0  0  0  0  0  0
   45.9440   36.5450   43.0050 H   0  0  0  0  0  0  0  0  0  0  0  0
   47.4690   34.9060   43.7410 H   0  0  0  0  0  0  0  0  0  0  0  0
   46.9160   34.3530   42.1420 H   0  0  0  0  0  0  0  0  0  0  0  0
   44.9880   33.2170   43.5740 H   0  0  0  0  0  0  0  0  0  0  0  0
   46.5570   32.5040   43.3640 H   0  0  0  0  0  0  0  0  0  0  0  0
   45.3570   32.8690   47.5250 C   0  0  0  0  0  0  0  0  0  0  0  0
   45.9000   32.6160   46.2970 C   0  0  0  0  0  0  0  0  0  0  0  0
   46.1660   31.2750   46.0380 C   0  0  0  0  0  0  0  0  0  0  0  0
   45.9080   30.2920   46.9200 N   0  0  0  0  0  0  0  0  0  0  0  0
   45.3600   30.5870   48.1490 C   0  0  0  0  0  0  0  0  0  0  0  0
   45.0980   31.8600   48.4230 N   0  0  0  0  0  0  0  0  0  0  0  0
   45.0970   29.5660   49.0910 N   0  0  0  0  0  0  0  0  0  0  0  0
   45.1160   33.8750   47.8280 H   0  0  0  0  0  0  0  0  0  0  0  0
   45.5590   28.6350   49.0380 H   0  0  0  0  0  0  0  0  0  0  0  0
   44.4170   29.7640   49.8570 H   0  0  0  0  0  0  0  0  0  0  0  0
   46.7870   30.6210   44.8940 C   0  0  0  0  0  0  0  0  0  0  0  0
   46.3670   29.9210   43.7870 C   0  0  0  0  0  3  0  0  0  0  0  0
   47.5140   29.4540   43.1320 C   0  0  0  0  0  0  0  0  0  0  0  0
   47.4220   28.8780   42.2350 H   0  0  0  0  0  0  0  0  0  0  0  0
   48.5500   29.8920   43.8680 N   0  0  0  0  0  0  0  0  0  0  0  0
   48.1390   30.5850   44.9160 N   0  0  0  0  0  0  0  0  0  0  0  0
   49.5520   29.6750   43.5900 H   0  0  0  0  0  0  0  0  0  0  0  0
   44.5070   35.2740   42.0530 C   0  0  0  0  0  0  0  0  0  0  0  0
   43.4550   34.4720   42.4310 F   0  0  0  0  0  0  0  0  0  0  0  0
   43.9630   36.5080   41.7100 F   0  0  0  0  0  0  0  0  0  0  0  0
   45.1950   34.8100   40.9390 F   0  0  0  0  0  0  0  0  0  0  0  0
  1  2  1  0  0  0  0
  1  7  1  1  0  0  0
  1 16  1  0  0  0  0
  2  8  1  0  0  0  0
  3  9  1  0  0  0  0
  3  2  2  0  0  0  0
  4 10  1  6  0  0  0
  4  3  1  0  0  0  0
  5  4  1  0  0  0  0
  5 11  1  0  0  0  0
  5  6  1  0  0  0  0
  6  1  1  0  0  0  0
 12  5  1  0  0  0  0
 13  6  1  0  0  0  0
 14  6  1  0  0  0  0
 15 22  1  0  0  0  0
 15 20  1  0  0  0  0
 16 15  2  0  0  0  0
 17 16  1  0  0  0  0
 17 18  2  0  0  0  0
 18 19  1  0  0  0  0
 19 20  2  0  0  0  0
 19 21  1  0  0  0  0
 21 24  1  0  0  0  0
 23 21  1  0  0  0  0
 25 30  2  0  0  0  0
 25 17  1  0  0  0  0
 26 25  1  0  0  0  0
 27 26  2  0  0  0  0
 27 29  1  0  0  0  0
 28 27  1  0  0  0  0
 29 30  1  0  0  0  0
 31 29  1  0  0  0  0
 32 33  1  0  0  0  0
 32  4  1  0  0  0  0
 34 32  1  0  0  0  0
 35 32  1  0  0  0  0
M  END
>  <minimizedAffinity>
-5.58264685

>  <minimizedRMSD>
0.363121986

$$$$
