
 OpenBabel03232520573D

 31 33  0  0  1  0  0  0  0  0999 V2000
   46.1860   33.6030   45.4000 C   0  0  2  0  0  0  0  0  0  0  0  0
   45.0150   34.6550   45.5260 C   0  0  0  0  0  0  0  0  0  0  0  0
   44.7960   35.5490   44.4210 C   0  0  0  0  0  0  0  0  0  0  0  0
   45.6320   35.4730   43.2400 C   0  0  1  0  0  0  0  0  0  0  0  0
   46.7720   34.5450   43.2990 C   0  0  0  0  0  0  0  0  0  0  0  0
   46.3330   33.2810   44.0190 C   0  0  0  0  0  0  0  0  0  0  0  0
   46.9970   34.3040   45.7880 H   0  0  0  0  0  0  0  0  0  0  0  0
   44.2710   34.9050   46.2760 H   0  0  0  0  0  0  0  0  0  0  0  0
   44.0360   36.2880   44.4130 H   0  0  0  0  0  0  0  0  0  0  0  0
   46.0270   36.5000   43.0260 H   0  0  0  0  0  0  0  0  0  0  0  0
   47.1260   34.3030   42.2930 H   0  0  0  0  0  0  0  0  0  0  0  0
   47.6110   34.9740   43.8960 H   0  0  0  0  0  0  0  0  0  0  0  0
   46.9850   32.5410   43.6080 H   0  0  0  0  0  0  0  0  0  0  0  0
   45.3130   33.0640   43.5730 H   0  0  0  0  0  0  0  0  0  0  0  0
   45.1590   32.8120   47.5030 C   0  0  0  0  0  0  0  0  0  0  0  0
   45.9400   32.6010   46.3910 C   0  0  0  0  0  0  0  0  0  0  0  0
   46.4590   31.3040   46.2340 C   0  0  0  0  0  0  0  0  0  0  0  0
   46.1790   30.3670   47.1430 N   0  0  0  0  0  0  0  0  0  0  0  0
   45.4060   30.6030   48.2290 C   0  0  0  0  0  0  0  0  0  0  0  0
   44.8970   31.8150   48.4140 N   0  0  0  0  0  0  0  0  0  0  0  0
   45.1680   29.5310   49.1510 N   0  0  0  0  0  0  0  0  0  0  0  0
   44.7170   33.7670   47.7180 H   0  0  0  0  0  0  0  0  0  0  0  0
   45.8910   28.8650   49.4540 H   0  0  0  0  0  0  0  0  0  0  0  0
   44.1640   29.5170   49.4710 H   0  0  0  0  0  0  0  0  0  0  0  0
   47.3120   30.7610   45.1530 C   0  0  0  0  0  3  0  0  0  0  0  0
   46.6570   29.8230   44.1050 C   0  0  0  0  0  2  0  0  0  0  0  0
   47.5060   29.2220   45.1130 C   0  0  0  0  0  2  0  0  0  0  0  0
   44.7270   35.1360   42.0300 C   0  0  0  0  0  0  0  0  0  0  0  0
   43.7470   34.2360   42.3460 F   0  0  0  0  0  0  0  0  0  0  0  0
   44.0850   36.3280   41.6880 F   0  0  0  0  0  0  0  0  0  0  0  0
   45.5160   34.7680   40.9460 F   0  0  0  0  0  0  0  0  0  0  0  0
  1  2  1  0  0  0  0
  1  7  1  1  0  0  0
  1 16  1  0  0  0  0
  2  8  1  0  0  0  0
  3  2  2  0  0  0  0
  4 10  1  6  0  0  0
  4  5  1  0  0  0  0
  4  3  1  0  0  0  0
  5 12  1  0  0  0  0
  5  6  1  0  0  0  0
  6  1  1  0  0  0  0
  9  3  1  0  0  0  0
 11  5  1  0  0  0  0
 13  6  1  0  0  0  0
 14  6  1  0  0  0  0
 15 22  1  0  0  0  0
 15 20  1  0  0  0  0
 16 15  2  0  0  0  0
 17 16  1  0  0  0  0
 17 18  2  0  0  0  0
 18 19  1  0  0  0  0
 19 20  2  0  0  0  0
 19 21  1  0  0  0  0
 21 23  1  0  0  0  0
 21 24  1  0  0  0  0
 25 17  1  0  0  0  0
 26 27  1  0  0  0  0
 26 25  1  0  0  0  0
 27 25  1  0  0  0  0
 28 29  1  0  0  0  0
 28  4  1  0  0  0  0
 30 28  1  0  0  0  0
 31 28  1  0  0  0  0
M  END
>  <minimizedAffinity>
-5.52603674

>  <minimizedRMSD>
0.292776257

$$$$
