
 OpenBabel03232520073D

 27 30  0  0  0  0  0  0  0  0999 V2000
   46.1930   30.3850   49.1360 N   0  0  0  0  0  0  0  0  0  0  0  0
   45.3520   31.4140   49.4430 C   0  0  0  0  0  0  0  0  0  0  0  0
   45.2810   32.2340   48.3710 N   0  0  0  0  0  0  0  0  0  0  0  0
   46.0780   31.6940   47.4310 C   0  0  0  0  0  0  0  0  0  0  0  0
   46.3070   32.2020   46.1700 C   0  0  0  0  0  0  0  0  0  0  0  0
   47.1570   31.4900   45.3730 N   0  0  0  0  0  0  0  0  0  0  0  0
   47.7450   30.3510   45.7860 C   0  0  0  0  0  0  0  0  0  0  0  0
   47.4870   29.9060   47.0160 N   0  0  0  0  0  0  0  0  0  0  0  0
   46.6720   30.5300   47.8690 C   0  0  0  0  0  0  0  0  0  0  0  0
   46.4720   29.5750   49.7350 H   0  0  0  0  0  0  0  0  0  0  0  0
   44.8360   31.5270   50.4000 H   0  0  0  0  0  0  0  0  0  0  0  0
   48.6640   29.6110   44.8780 C   0  0  0  0  0  0  0  0  0  0  0  0
   48.8920   30.3730   43.5590 C   0  0  0  0  0  0  0  0  0  0  0  0
   48.2120   29.0090   43.6250 C   0  0  0  0  0  0  0  0  0  0  0  0
   45.6430   33.6630   45.4460 S   0  0  0  0  0  0  0  0  0  0  0  0
   47.7900   34.7220   42.3450 C   0  0  0  0  0  0  0  0  0  0  0  0
   47.0650   34.3420   41.2120 C   0  0  0  0  0  0  0  0  0  0  0  0
   45.8430   33.7240   41.4170 C   0  0  0  0  0  0  0  0  0  0  0  0
   45.4080   33.5150   42.7040 N   0  0  0  0  0  0  0  0  0  0  0  0
   46.1620   33.9090   43.7570 C   0  0  0  0  0  0  0  0  0  0  0  0
   47.3320   34.5020   43.5750 N   0  0  0  0  0  0  0  0  0  0  0  0
   47.4000   34.5020   40.1870 H   0  0  0  0  0  0  0  0  0  0  0  0
   45.2290   33.4030   40.5750 H   0  0  0  0  0  0  0  0  0  0  0  0
   49.0840   35.3780   42.1330 C   0  0  0  0  0  0  0  0  0  0  0  0
   49.2420   36.1390   41.1570 O   0  0  0  0  0  0  0  0  0  0  0  0
   50.1090   35.1370   43.0250 O   0  0  0  0  0  0  0  0  0  0  0  0
   50.8200   35.8380   43.1880 H   0  0  0  0  0  0  0  0  0  0  0  0
  1  2  1  0  0  0  0
  1 10  1  0  0  0  0
  2 11  1  0  0  0  0
  3  2  2  0  0  0  0
  4  9  1  0  0  0  0
  4  3  1  0  0  0  0
  5  4  2  0  0  0  0
  6  7  2  0  0  0  0
  6  5  1  0  0  0  0
  7  8  1  0  0  0  0
  8  9  2  0  0  0  0
  9  1  1  0  0  0  0
 12  7  1  0  0  0  0
 13 14  1  0  0  0  0
 13 12  1  0  0  0  0
 14 12  1  0  0  0  0
 15  5  1  0  0  0  0
 16 21  1  0  0  0  0
 17 18  1  0  0  0  0
 17 16  2  0  0  0  0
 18 19  2  0  0  0  0
 19 20  1  0  0  0  0
 20 15  1  0  0  0  0
 21 20  2  0  0  0  0
 22 17  1  0  0  0  0
 23 18  1  0  0  0  0
 24 16  1  0  0  0  0
 24 26  1  0  0  0  0
 25 24  2  0  0  0  0
 26 27  1  0  0  0  0
M  END
>  <minimizedAffinity>
-5.66620255

>  <minimizedRMSD>
0.0498479046

$$$$
