
 OpenBabel03232519533D

 44 47  0  0  1  0  0  0  0  0999 V2000
   46.0420   33.5430   41.9080 N   0  0  0  0  0  0  0  0  0  0  0  0
   46.9780   34.0350   40.9040 C   0  0  0  0  0  0  0  0  0  0  0  0
   46.3160   33.5040   39.6520 C   0  0  0  0  0  0  0  0  0  0  0  0
   46.1150   32.0560   40.0440 C   0  0  0  0  0  0  0  0  0  0  0  0
   45.6940   32.1720   41.4710 C   0  0  2  0  0  0  0  0  0  0  0  0
   47.9240   33.4810   41.0300 H   0  0  0  0  0  0  0  0  0  0  0  0
   47.0960   35.1220   40.9160 H   0  0  0  0  0  0  0  0  0  0  0  0
   45.3830   34.0200   39.3830 H   0  0  0  0  0  0  0  0  0  0  0  0
   47.0580   33.5710   38.8360 H   0  0  0  0  0  0  0  0  0  0  0  0
   47.0940   31.5510   39.8900 H   0  0  0  0  0  0  0  0  0  0  0  0
   45.3780   31.5270   39.4030 H   0  0  0  0  0  0  0  0  0  0  0  0
   46.4250   31.5470   42.0430 H   0  0  0  0  0  0  0  0  0  0  0  0
   44.2580   35.8550   44.2040 C   0  0  0  0  0  0  0  0  0  0  0  0
   44.7190   35.2830   43.0130 C   0  0  0  0  0  0  0  0  0  0  0  0
   45.5400   34.1700   43.0530 C   0  0  0  0  0  0  0  0  0  0  0  0
   45.8570   33.6850   44.2900 N   0  0  0  0  0  0  0  0  0  0  0  0
   45.4070   34.2420   45.4330 C   0  0  0  0  0  0  0  0  0  0  0  0
   44.6160   35.3180   45.3800 N   0  0  0  0  0  0  0  0  0  0  0  0
   45.8460   33.5930   46.6240 N   0  0  0  0  0  0  0  0  0  0  0  0
   43.6170   36.7230   44.2280 H   0  0  0  0  0  0  0  0  0  0  0  0
   44.4330   35.7140   42.0800 H   0  0  0  0  0  0  0  0  0  0  0  0
   45.6200   32.6570   47.0290 H   0  0  0  0  0  0  0  0  0  0  0  0
   46.4910   34.3450   47.0110 H   0  0  0  0  0  0  0  0  0  0  0  0
   44.3640   31.7830   41.7820 N   0  0  0  0  0  0  0  0  0  0  0  0
   43.2670   32.1300   41.1250 C   0  0  0  0  0  0  0  0  0  0  0  0
   41.9990   31.7000   41.5010 C   0  0  0  0  0  0  0  0  0  0  0  0
   41.8510   30.8820   42.5960 C   0  0  0  0  0  0  0  0  0  0  0  0
   40.7120   30.4650   42.9770 O   0  0  0  0  0  0  0  0  0  0  0  0
   42.9590   30.5400   43.2490 N   0  0  0  0  0  0  0  0  0  0  0  0
   44.1450   30.9760   42.8490 C   0  0  0  0  0  0  0  0  0  0  0  0
   45.1560   30.5940   43.5390 O   0  0  0  0  0  0  0  0  0  0  0  0
   43.3710   32.7780   40.2570 H   0  0  0  0  0  0  0  0  0  0  0  0
   42.8590   29.9120   44.0890 H   0  0  0  0  0  0  0  0  0  0  0  0
   40.7850   32.1120   40.7380 C   0  0  0  0  0  0  0  0  0  0  0  0
   40.8170   31.6230   39.7390 H   0  0  0  0  0  0  0  0  0  0  0  0
   39.8490   31.7820   41.2110 H   0  0  0  0  0  0  0  0  0  0  0  0
   40.7310   33.5680   40.5130 C   0  0  0  0  0  0  0  0  0  0  0  0
   40.7690   34.0540   39.2010 C   0  0  0  0  0  0  0  0  0  0  0  0
   40.7250   35.3950   38.8790 C   0  0  0  0  0  0  0  0  0  0  0  0
   40.7570   35.7230   37.8480 H   0  0  0  0  0  0  0  0  0  0  0  0
   40.6370   36.2930   39.9240 C   0  0  0  0  0  0  0  0  0  0  0  0
   40.5950   35.8820   41.2480 C   0  0  0  0  0  0  0  0  0  0  0  0
   40.5270   36.5470   42.0980 H   0  0  0  0  0  0  0  0  0  0  0  0
   40.6430   34.5360   41.4930 C   0  0  0  0  0  0  0  0  0  0  0  0
  1 15  1  0  0  0  0
  2  7  1  0  0  0  0
  2  6  1  0  0  0  0
  2  1  1  0  0  0  0
  3  4  1  0  0  0  0
  3  2  1  0  0  0  0
  4  5  1  0  0  0  0
  5 24  1  0  0  0  0
  5  1  1  0  0  0  0
  5 12  1  1  0  0  0
  8  3  1  0  0  0  0
  9  3  1  0  0  0  0
 10  4  1  0  0  0  0
 11  4  1  0  0  0  0
 13 20  1  0  0  0  0
 13 18  1  0  0  0  0
 14 15  1  0  0  0  0
 14 13  2  0  0  0  0
 15 16  2  0  0  0  0
 16 17  1  0  0  0  0
 17 19  1  0  0  0  0
 18 17  2  0  0  0  0
 19 23  1  0  0  0  0
 19 22  1  0  0  0  0
 21 14  1  0  0  0  0
 24 30  1  0  0  0  0
 25 26  2  0  0  0  0
 25 24  1  0  0  0  0
 26 27  1  0  0  0  0
 27 28  2  0  0  0  0
 27 29  1  0  0  0  0
 29 33  1  0  0  0  0
 30 29  1  0  0  0  0
 30 31  2  0  0  0  0
 32 25  1  0  0  0  0
 34 36  1  0  0  0  0
 34 26  1  0  0  0  0
 35 34  1  0  0  0  0
 37 34  1  0  0  0  0
 37 44  1  0  0  0  0
 38 37  2  0  0  0  0
 39 38  1  0  0  0  0
 39 41  2  0  0  0  0
 40 39  1  0  0  0  0
 41 42  1  0  0  0  0
 42 44  2  0  0  0  0
 42 43  1  0  0  0  0
M  END
>  <minimizedAffinity>
-6.27733517

>  <minimizedRMSD>
2.66043115

$$$$
