
 OpenBabel03232520233D

 26 29  0  0  0  0  0  0  0  0999 V2000
   44.9250   34.1320   41.5360 C   0  0  0  0  0  0  0  0  0  0  0  0
   46.0200   33.9670   40.7170 C   0  0  0  0  0  0  0  0  0  0  0  0
   45.6180   33.7150   39.4670 N   0  0  0  0  0  0  0  0  0  0  0  0
   44.2780   33.7130   39.4690 C   0  0  0  0  0  0  0  0  0  0  0  0
   43.3710   33.5030   38.4330 C   0  0  0  0  0  0  0  0  0  0  0  0
   42.0320   33.5570   38.7100 C   0  0  0  0  0  0  0  0  0  0  0  0
   41.4920   33.8130   39.9720 C   0  0  0  0  0  0  0  0  0  0  0  0
   42.4390   34.0130   40.9580 C   0  0  0  0  0  0  0  0  0  0  0  0
   43.7870   33.9740   40.7620 C   0  0  0  0  0  0  0  0  0  0  0  0
   46.2020   33.5470   38.6340 H   0  0  0  0  0  0  0  0  0  0  0  0
   43.7300   33.3010   37.4310 H   0  0  0  0  0  0  0  0  0  0  0  0
   41.3310   33.3930   37.8990 H   0  0  0  0  0  0  0  0  0  0  0  0
   40.4300   33.8500   40.1600 H   0  0  0  0  0  0  0  0  0  0  0  0
   42.1270   34.2210   41.9840 H   0  0  0  0  0  0  0  0  0  0  0  0
   44.4890   35.9530   44.7700 C   0  0  0  0  0  0  0  0  0  0  0  0
   44.4930   35.6670   43.4020 C   0  0  0  0  0  0  0  0  0  0  0  0
   44.9250   34.4210   42.9650 C   0  0  0  0  0  0  0  0  0  0  0  0
   45.3340   33.5110   43.9030 N   0  0  0  0  0  0  0  0  0  0  0  0
   45.3180   33.8170   45.2250 C   0  0  0  0  0  0  0  0  0  0  0  0
   44.9040   35.0220   45.6670 N   0  0  0  0  0  0  0  0  0  0  0  0
   44.1380   36.9460   45.0140 H   0  0  0  0  0  0  0  0  0  0  0  0
   44.1610   36.4140   42.6720 H   0  0  0  0  0  0  0  0  0  0  0  0
   45.6480   33.0760   45.9430 H   0  0  0  0  0  0  0  0  0  0  0  0
   47.4530   34.0500   41.1180 C   0  0  0  0  0  0  0  0  0  0  0  0
   48.3720   34.8270   40.2230 C   0  0  0  0  0  0  0  0  0  0  0  0
   48.0100   35.3250   41.6290 C   0  0  0  0  0  0  0  0  0  0  0  0
  1 17  1  0  0  0  0
  2 24  1  0  0  0  0
  2  1  2  0  0  0  0
  3  4  1  0  0  0  0
  3  2  1  0  0  0  0
  4  9  1  0  0  0  0
  5  6  1  0  0  0  0
  5  4  2  0  0  0  0
  6  7  2  0  0  0  0
  7 13  1  0  0  0  0
  7  8  1  0  0  0  0
  8 14  1  0  0  0  0
  9  8  2  0  0  0  0
  9  1  1  0  0  0  0
 10  3  1  0  0  0  0
 11  5  1  0  0  0  0
 12  6  1  0  0  0  0
 15 21  1  0  0  0  0
 15 20  1  0  0  0  0
 16 15  2  0  0  0  0
 17 16  1  0  0  0  0
 17 18  2  0  0  0  0
 18 19  1  0  0  0  0
 19 20  2  0  0  0  0
 19 23  1  0  0  0  0
 22 16  1  0  0  0  0
 24 26  1  0  0  0  0
 25 24  1  0  0  0  0
 25 26  1  0  0  0  0
M  END
>  <minimizedAffinity>
-5.33643246

>  <minimizedRMSD>
3.14016151

$$$$
