
 OpenBabel03232520573D

 31 33  0  0  1  0  0  0  0  0999 V2000
   46.0230   33.5050   44.3990 C   0  0  2  0  0  0  0  0  0  0  0  0
   45.4610   34.9660   44.6010 C   0  0  0  0  0  0  0  0  0  0  0  0
   44.9600   35.6580   43.4430 C   0  0  0  0  0  0  0  0  0  0  0  0
   44.9790   35.0180   42.1420 C   0  0  1  0  0  0  0  0  0  0  0  0
   45.6500   33.7120   42.0610 C   0  0  0  0  0  0  0  0  0  0  0  0
   45.3150   32.9150   43.3100 C   0  0  0  0  0  0  0  0  0  0  0  0
   47.0790   33.8370   44.1220 H   0  0  0  0  0  0  0  0  0  0  0  0
   45.3370   35.6440   45.4400 H   0  0  0  0  0  0  0  0  0  0  0  0
   44.5630   36.6400   43.4790 H   0  0  0  0  0  0  0  0  0  0  0  0
   45.4770   35.7150   41.4200 H   0  0  0  0  0  0  0  0  0  0  0  0
   45.3300   33.1680   41.1680 H   0  0  0  0  0  0  0  0  0  0  0  0
   46.7600   33.8280   42.0470 H   0  0  0  0  0  0  0  0  0  0  0  0
   45.4030   31.9050   42.9720 H   0  0  0  0  0  0  0  0  0  0  0  0
   44.2040   33.0910   43.4450 H   0  0  0  0  0  0  0  0  0  0  0  0
   45.3390   33.3680   46.7680 C   0  0  0  0  0  0  0  0  0  0  0  0
   46.0620   32.9020   45.6940 C   0  0  0  0  0  0  0  0  0  0  0  0
   46.8210   31.7400   45.9150 C   0  0  0  0  0  0  0  0  0  0  0  0
   46.8070   31.1610   47.1190 N   0  0  0  0  0  0  0  0  0  0  0  0
   46.0860   31.6420   48.1580 C   0  0  0  0  0  0  0  0  0  0  0  0
   45.3550   32.7370   47.9910 N   0  0  0  0  0  0  0  0  0  0  0  0
   46.1410   30.9510   49.4130 N   0  0  0  0  0  0  0  0  0  0  0  0
   44.7280   34.2490   46.7070 H   0  0  0  0  0  0  0  0  0  0  0  0
   47.0050   30.5680   49.8180 H   0  0  0  0  0  0  0  0  0  0  0  0
   45.1870   30.8880   49.8580 H   0  0  0  0  0  0  0  0  0  0  0  0
   47.6850   30.9920   44.9740 C   0  0  0  0  0  3  0  0  0  0  0  0
   47.0610   29.8040   44.1960 C   0  0  0  0  0  2  0  0  0  0  0  0
   47.9520   29.4990   45.2960 C   0  0  0  0  0  2  0  0  0  0  0  0
   43.5190   34.9040   41.6400 C   0  0  0  0  0  0  0  0  0  0  0  0
   42.6170   35.3980   42.5420 F   0  0  0  0  0  0  0  0  0  0  0  0
   43.4400   35.7140   40.5060 F   0  0  0  0  0  0  0  0  0  0  0  0
   43.2660   33.5990   41.2320 F   0  0  0  0  0  0  0  0  0  0  0  0
  1  7  1  6  0  0  0
  1  2  1  0  0  0  0
  1 16  1  0  0  0  0
  2  8  1  0  0  0  0
  3  9  1  0  0  0  0
  3  2  2  0  0  0  0
  4 10  1  6  0  0  0
  4  3  1  0  0  0  0
  5  4  1  0  0  0  0
  5  6  1  0  0  0  0
  6 14  1  0  0  0  0
  6  1  1  0  0  0  0
 11  5  1  0  0  0  0
 12  5  1  0  0  0  0
 13  6  1  0  0  0  0
 15 20  1  0  0  0  0
 16 17  1  0  0  0  0
 16 15  2  0  0  0  0
 17 18  2  0  0  0  0
 18 19  1  0  0  0  0
 19 21  1  0  0  0  0
 20 19  2  0  0  0  0
 21 23  1  0  0  0  0
 21 24  1  0  0  0  0
 22 15  1  0  0  0  0
 25 27  1  0  0  0  0
 25 17  1  0  0  0  0
 26 25  1  0  0  0  0
 26 27  1  0  0  0  0
 28  4  1  0  0  0  0
 28 29  1  0  0  0  0
 30 28  1  0  0  0  0
 31 28  1  0  0  0  0
M  END
>  <minimizedAffinity>
-4.82424307

>  <minimizedRMSD>
1.42678571

$$$$
