
 OpenBabel03232520573D

 31 33  0  0  1  0  0  0  0  0999 V2000
   45.6970   33.7830   44.1270 C   0  0  2  0  0  0  0  0  0  0  0  0
   45.2260   35.2890   44.0750 C   0  0  0  0  0  0  0  0  0  0  0  0
   44.7700   35.8050   42.8110 C   0  0  0  0  0  0  0  0  0  0  0  0
   44.7500   34.9560   41.6370 C   0  0  1  0  0  0  0  0  0  0  0  0
   45.3400   33.6160   41.7840 C   0  0  0  0  0  0  0  0  0  0  0  0
   44.9550   33.0620   43.1450 C   0  0  0  0  0  0  0  0  0  0  0  0
   46.7720   34.0000   43.8110 H   0  0  0  0  0  0  0  0  0  0  0  0
   45.1440   36.1040   44.7860 H   0  0  0  0  0  0  0  0  0  0  0  0
   44.4340   36.8020   42.6780 H   0  0  0  0  0  0  0  0  0  0  0  0
   45.2920   35.4900   40.8140 H   0  0  0  0  0  0  0  0  0  0  0  0
   44.9880   32.9500   40.9910 H   0  0  0  0  0  0  0  0  0  0  0  0
   46.4550   33.6610   41.7630 H   0  0  0  0  0  0  0  0  0  0  0  0
   44.9810   32.0070   42.9820 H   0  0  0  0  0  0  0  0  0  0  0  0
   43.8570   33.3250   43.2360 H   0  0  0  0  0  0  0  0  0  0  0  0
   44.9140   34.0160   46.4580 C   0  0  0  0  0  0  0  0  0  0  0  0
   45.6970   33.4050   45.5060 C   0  0  0  0  0  0  0  0  0  0  0  0
   46.4820   32.3260   45.9470 C   0  0  0  0  0  0  0  0  0  0  0  0
   46.4320   31.9550   47.2290 N   0  0  0  0  0  0  0  0  0  0  0  0
   45.6520   32.5740   48.1450 C   0  0  0  0  0  0  0  0  0  0  0  0
   44.8960   33.5980   47.7690 N   0  0  0  0  0  0  0  0  0  0  0  0
   45.6730   32.1030   49.4990 N   0  0  0  0  0  0  0  0  0  0  0  0
   44.2800   34.8510   46.2270 H   0  0  0  0  0  0  0  0  0  0  0  0
   46.5300   31.8260   49.9960 H   0  0  0  0  0  0  0  0  0  0  0  0
   44.7030   32.0800   49.9120 H   0  0  0  0  0  0  0  0  0  0  0  0
   47.4080   31.4650   45.1780 C   0  0  0  0  0  3  0  0  0  0  0  0
   46.8220   30.2260   44.4520 C   0  0  0  0  0  2  0  0  0  0  0  0
   47.5810   30.0020   45.6650 C   0  0  0  0  0  2  0  0  0  0  0  0
   43.2870   34.8480   41.1450 C   0  0  0  0  0  0  0  0  0  0  0  0
   42.3880   35.2860   42.0790 F   0  0  0  0  0  0  0  0  0  0  0  0
   43.1860   35.7100   40.0520 F   0  0  0  0  0  0  0  0  0  0  0  0
   43.0450   33.5610   40.6770 F   0  0  0  0  0  0  0  0  0  0  0  0
  1  7  1  6  0  0  0
  1 16  1  0  0  0  0
  2  1  1  0  0  0  0
  2  8  1  0  0  0  0
  3  2  2  0  0  0  0
  4 10  1  6  0  0  0
  4  5  1  0  0  0  0
  4  3  1  0  0  0  0
  5  6  1  0  0  0  0
  6 14  1  0  0  0  0
  6  1  1  0  0  0  0
  9  3  1  0  0  0  0
 11  5  1  0  0  0  0
 12  5  1  0  0  0  0
 13  6  1  0  0  0  0
 15 20  1  0  0  0  0
 16 17  1  0  0  0  0
 16 15  2  0  0  0  0
 17 18  2  0  0  0  0
 18 19  1  0  0  0  0
 19 21  1  0  0  0  0
 20 19  2  0  0  0  0
 21 24  1  0  0  0  0
 21 23  1  0  0  0  0
 22 15  1  0  0  0  0
 25 27  1  0  0  0  0
 25 17  1  0  0  0  0
 26 25  1  0  0  0  0
 26 27  1  0  0  0  0
 28  4  1  0  0  0  0
 28 29  1  0  0  0  0
 30 28  1  0  0  0  0
 31 28  1  0  0  0  0
M  END
>  <minimizedAffinity>
-4.94165516

>  <minimizedRMSD>
1.79306579

$$$$
