
 OpenBabel03232516513D

 38 40  0  0  1  0  0  0  0  0999 V2000
   43.3980   35.7430   41.1700 O   0  0  0  0  0  0  0  0  0  0  0  0
   42.2230   35.0450   41.1740 C   0  0  2  0  0  0  0  0  0  0  0  0
   42.3960   33.5520   40.9850 C   0  0  0  0  0  0  0  0  0  0  0  0
   41.1040   32.8990   41.4550 C   0  0  0  0  0  0  0  0  0  0  0  0
   39.9780   33.8720   41.6170 C   0  0  0  0  0  0  0  0  0  0  0  0
   39.8970   34.8920   40.5070 C   0  0  0  0  0  0  0  0  0  0  0  0
   41.2150   35.5440   40.2100 C   0  0  2  0  0  0  0  0  0  0  0  0
   41.8230   35.1270   42.2220 H   0  0  0  0  0  0  0  0  0  0  0  0
   42.6450   33.2640   39.9580 H   0  0  0  0  0  0  0  0  0  0  0  0
   43.2510   33.2550   41.6330 H   0  0  0  0  0  0  0  0  0  0  0  0
   41.3120   32.4110   42.4200 H   0  0  0  0  0  0  0  0  0  0  0  0
   40.8200   32.1300   40.6910 H   0  0  0  0  0  0  0  0  0  0  0  0
   39.9470   34.3510   42.6300 H   0  0  0  0  0  0  0  0  0  0  0  0
   39.0140   33.3050   41.5560 H   0  0  0  0  0  0  0  0  0  0  0  0
   39.1860   35.6790   40.8900 H   0  0  0  0  0  0  0  0  0  0  0  0
   39.4090   34.4260   39.6390 H   0  0  0  0  0  0  0  0  0  0  0  0
   41.1090   36.6620   40.2330 H   0  0  0  0  0  0  0  0  0  0  0  0
   41.5510   35.1900   38.7680 C   0  0  0  0  0  0  0  0  0  0  0  0
   41.4730   36.1690   37.6810 C   0  0  0  0  0  0  0  0  0  0  0  0
   40.4230   35.1220   37.7540 C   0  0  0  0  0  0  0  0  0  0  0  0
   44.4710   35.0540   41.7640 C   0  0  0  0  0  0  0  0  0  0  0  0
   45.3050   35.0110   41.1240 H   0  0  0  0  0  0  0  0  0  0  0  0
   44.0520   33.9590   41.8810 H   0  0  0  0  0  0  0  0  0  0  0  0
   44.6000   35.5680   43.1290 C   0  0  1  0  0  0  0  0  0  0  0  0
   43.5600   35.5580   43.6080 H   0  0  0  0  0  0  0  0  0  0  0  0
   45.3680   34.6230   44.0180 C   0  0  0  0  0  0  0  0  0  0  0  0
   46.4350   33.9710   43.3660 C   0  0  0  0  0  0  0  0  0  0  0  0
   47.2090   33.0760   44.1100 C   0  0  0  0  0  0  0  0  0  0  0  0
   46.8680   32.9000   45.4340 N   0  0  0  0  0  0  0  0  0  0  0  0
   45.8390   33.5430   46.0180 C   0  0  0  0  0  0  0  0  0  0  0  0
   45.0720   34.4170   45.3190 N   0  0  0  0  0  0  0  0  0  0  0  0
   46.6820   34.1230   42.3410 H   0  0  0  0  0  0  0  0  0  0  0  0
   48.0490   32.5190   43.7230 H   0  0  0  0  0  0  0  0  0  0  0  0
   45.6350   33.3500   47.0630 H   0  0  0  0  0  0  0  0  0  0  0  0
   45.1070   36.9920   43.2220 C   0  0  0  0  0  0  0  0  0  0  0  0
   44.2310   37.6800   43.0830 H   0  0  0  0  0  0  0  0  0  0  0  0
   45.9120   37.1900   42.5090 H   0  0  0  0  0  0  0  0  0  0  0  0
   45.4160   37.1320   44.2860 H   0  0  0  0  0  0  0  0  0  0  0  0
  1  2  1  0  0  0  0
  1 21  1  0  0  0  0
  2  8  1  1  0  0  0
  3  2  1  0  0  0  0
  3  4  1  0  0  0  0
  3 10  1  0  0  0  0
  4  5  1  0  0  0  0
  4 11  1  0  0  0  0
  5 13  1  0  0  0  0
  6 15  1  0  0  0  0
  6  5  1  0  0  0  0
  7 17  1  1  0  0  0
  7  6  1  0  0  0  0
  7  2  1  0  0  0  0
  9  3  1  0  0  0  0
 12  4  1  0  0  0  0
 14  5  1  0  0  0  0
 16  6  1  0  0  0  0
 18  7  1  0  0  0  0
 19 20  1  0  0  0  0
 19 18  1  0  0  0  0
 20 18  1  0  0  0  0
 21 23  1  0  0  0  0
 21 24  1  0  0  0  0
 22 21  1  0  0  0  0
 24 35  1  0  0  0  0
 24 25  1  1  0  0  0
 24 26  1  0  0  0  0
 26 31  1  0  0  0  0
 27 26  2  0  0  0  0
 27 28  1  0  0  0  0
 28 29  2  0  0  0  0
 29 30  1  0  0  0  0
 30 34  1  0  0  0  0
 31 30  2  0  0  0  0
 32 27  1  0  0  0  0
 33 28  1  0  0  0  0
 35 38  1  0  0  0  0
 36 35  1  0  0  0  0
 37 35  1  0  0  0  0
M  END
>  <minimizedAffinity>
-5.47069359

>  <minimizedRMSD>
1.53723729

$$$$
