
 OpenBabel03232520213D

 35 38  0  0  0  0  0  0  0  0999 V2000
   47.6350   34.1940   42.1490 C   0  0  0  0  0  0  0  0  0  0  0  0
   48.5480   35.3390   41.7830 C   0  0  0  0  0  0  0  0  0  0  0  0
   49.8660   35.3330   42.4530 C   0  0  0  0  0  0  0  0  0  0  0  0
   50.5350   34.0070   42.5230 C   0  0  0  0  0  0  0  0  0  0  0  0
   49.6620   32.8700   42.0790 C   0  0  0  0  0  0  0  0  0  0  0  0
   48.3210   33.0380   42.7770 C   0  0  0  0  0  0  0  0  0  0  0  0
   48.7100   35.3940   40.6820 H   0  0  0  0  0  0  0  0  0  0  0  0
   48.0230   36.2950   42.0480 H   0  0  0  0  0  0  0  0  0  0  0  0
   50.5270   36.0260   41.8780 H   0  0  0  0  0  0  0  0  0  0  0  0
   49.7440   35.7950   43.4560 H   0  0  0  0  0  0  0  0  0  0  0  0
   50.8130   33.7940   43.5950 H   0  0  0  0  0  0  0  0  0  0  0  0
   51.4980   33.9720   41.9650 H   0  0  0  0  0  0  0  0  0  0  0  0
   50.1380   31.9120   42.3250 H   0  0  0  0  0  0  0  0  0  0  0  0
   49.4740   32.9350   40.9850 H   0  0  0  0  0  0  0  0  0  0  0  0
   48.5680   33.2990   43.8280 H   0  0  0  0  0  0  0  0  0  0  0  0
   47.7030   32.1400   42.7190 H   0  0  0  0  0  0  0  0  0  0  0  0
   45.2850   34.3970   45.0060 C   0  0  0  0  0  0  0  0  0  0  0  0
   44.5610   35.5660   44.7290 C   0  0  0  0  0  0  0  0  0  0  0  0
   44.8820   36.2750   43.5760 C   0  0  0  0  0  0  0  0  0  0  0  0
   45.8760   35.7990   42.7800 N   0  0  0  0  0  0  0  0  0  0  0  0
   46.5590   34.6630   43.0750 C   0  0  0  0  0  0  0  0  0  0  0  0
   46.2490   33.9660   44.2020 N   0  0  0  0  0  0  0  0  0  0  0  0
   44.9760   33.9040   45.9210 H   0  0  0  0  0  0  0  0  0  0  0  0
   43.7650   35.9980   45.3140 H   0  0  0  0  0  0  0  0  0  0  0  0
   44.4410   37.1880   43.2000 H   0  0  0  0  0  0  0  0  0  0  0  0
   47.0010   33.6960   40.8750 C   0  0  0  0  0  0  0  0  0  0  0  0
   45.8440   33.0340   40.4990 C   0  0  0  0  0  0  0  0  0  0  0  0
   45.6870   32.7870   39.1780 C   0  0  0  0  0  0  0  0  0  0  0  0
   46.5880   33.1540   38.2580 C   0  0  0  0  0  0  0  0  0  0  0  0
   47.8850   33.9720   39.3020 S   0  0  0  0  0  0  0  0  0  0  0  0
   45.2090   32.7980   41.3130 H   0  0  0  0  0  0  0  0  0  0  0  0
   44.8010   32.2700   38.8200 H   0  0  0  0  0  0  0  0  0  0  0  0
   46.7140   33.0430   36.8340 C   0  0  0  0  0  0  0  0  0  0  0  0
   47.2360   31.7030   36.2740 C   0  0  0  0  0  0  0  0  0  0  0  0
   48.0120   32.9570   36.1240 C   0  0  0  0  0  0  0  0  0  0  0  0
  1  6  1  0  0  0  0
  1 21  1  0  0  0  0
  2  8  1  0  0  0  0
  2  1  1  0  0  0  0
  2  3  1  0  0  0  0
  3  4  1  0  0  0  0
  3 10  1  0  0  0  0
  4 11  1  0  0  0  0
  5 13  1  0  0  0  0
  5  4  1  0  0  0  0
  5  6  1  0  0  0  0
  6 15  1  0  0  0  0
  7  2  1  0  0  0  0
  9  3  1  0  0  0  0
 12  4  1  0  0  0  0
 14  5  1  0  0  0  0
 16  6  1  0  0  0  0
 17 23  1  0  0  0  0
 18 17  1  0  0  0  0
 18 24  1  0  0  0  0
 19 18  2  0  0  0  0
 20 21  2  0  0  0  0
 20 19  1  0  0  0  0
 21 22  1  0  0  0  0
 22 17  2  0  0  0  0
 25 19  1  0  0  0  0
 26  1  1  0  0  0  0
 27 26  2  0  0  0  0
 27 31  1  0  0  0  0
 28 27  1  0  0  0  0
 29 28  2  0  0  0  0
 29 30  1  0  0  0  0
 30 26  1  0  0  0  0
 32 28  1  0  0  0  0
 33 29  1  0  0  0  0
 34 33  1  0  0  0  0
 35 34  1  0  0  0  0
 35 33  1  0  0  0  0
M  END
>  <minimizedAffinity>
-5.62460852

>  <minimizedRMSD>
0.411503494

$$$$
