
 OpenBabel03232520583D

 31 33  0  0  1  0  0  0  0  0999 V2000
   46.1270   33.5980   45.3150 C   0  0  2  0  0  0  0  0  0  0  0  0
   44.9780   34.6680   45.4890 C   0  0  0  0  0  0  0  0  0  0  0  0
   44.7320   35.5700   44.3960 C   0  0  0  0  0  0  0  0  0  0  0  0
   45.5220   35.4850   43.1830 C   0  0  1  0  0  0  0  0  0  0  0  0
   46.6480   34.5390   43.1960 C   0  0  0  0  0  0  0  0  0  0  0  0
   46.2160   33.2800   43.9280 C   0  0  0  0  0  0  0  0  0  0  0  0
   46.9630   34.2850   45.6740 H   0  0  0  0  0  0  0  0  0  0  0  0
   44.2680   34.9280   46.2670 H   0  0  0  0  0  0  0  0  0  0  0  0
   43.9840   36.3210   44.4190 H   0  0  0  0  0  0  0  0  0  0  0  0
   45.9240   36.5070   42.9580 H   0  0  0  0  0  0  0  0  0  0  0  0
   46.9600   34.2960   42.1760 H   0  0  0  0  0  0  0  0  0  0  0  0
   47.5160   34.9520   43.7620 H   0  0  0  0  0  0  0  0  0  0  0  0
   46.8400   32.5310   43.4900 H   0  0  0  0  0  0  0  0  0  0  0  0
   45.1770   33.0810   43.5200 H   0  0  0  0  0  0  0  0  0  0  0  0
   45.3940   32.8720   47.5590 C   0  0  0  0  0  0  0  0  0  0  0  0
   45.9030   32.5970   46.3110 C   0  0  0  0  0  0  0  0  0  0  0  0
   46.1500   31.2430   46.0260 C   0  0  0  0  0  0  0  0  0  0  0  0
   45.8890   30.3150   46.9500 N   0  0  0  0  0  0  0  0  0  0  0  0
   45.3880   30.6140   48.1710 C   0  0  0  0  0  0  0  0  0  0  0  0
   45.1400   31.8810   48.4800 N   0  0  0  0  0  0  0  0  0  0  0  0
   45.1460   29.5460   49.0960 N   0  0  0  0  0  0  0  0  0  0  0  0
   45.1720   33.8720   47.8780 H   0  0  0  0  0  0  0  0  0  0  0  0
   45.7860   28.7540   49.2370 H   0  0  0  0  0  0  0  0  0  0  0  0
   44.2330   29.6810   49.6070 H   0  0  0  0  0  0  0  0  0  0  0  0
   46.6770   30.6280   44.7870 C   0  0  0  0  0  3  0  0  0  0  0  0
   47.2390   29.1850   44.8680 C   0  0  0  0  0  2  0  0  0  0  0  0
   48.1870   30.2740   44.7610 C   0  0  0  0  0  2  0  0  0  0  0  0
   44.5660   35.1670   42.0070 C   0  0  0  0  0  0  0  0  0  0  0  0
   43.5770   34.2920   42.3610 F   0  0  0  0  0  0  0  0  0  0  0  0
   43.9410   36.3740   41.6850 F   0  0  0  0  0  0  0  0  0  0  0  0
   45.3060   34.7770   40.8970 F   0  0  0  0  0  0  0  0  0  0  0  0
  1  2  1  0  0  0  0
  1  7  1  1  0  0  0
  1 16  1  0  0  0  0
  2  8  1  0  0  0  0
  3  9  1  0  0  0  0
  3  2  2  0  0  0  0
  4 10  1  6  0  0  0
  4  5  1  0  0  0  0
  4  3  1  0  0  0  0
  5 12  1  0  0  0  0
  5  6  1  0  0  0  0
  6  1  1  0  0  0  0
 11  5  1  0  0  0  0
 13  6  1  0  0  0  0
 14  6  1  0  0  0  0
 15 22  1  0  0  0  0
 15 20  1  0  0  0  0
 16 15  2  0  0  0  0
 17 16  1  0  0  0  0
 17 18  2  0  0  0  0
 18 19  1  0  0  0  0
 19 20  2  0  0  0  0
 19 21  1  0  0  0  0
 21 23  1  0  0  0  0
 21 24  1  0  0  0  0
 25 26  1  0  0  0  0
 25 17  1  0  0  0  0
 27 25  1  0  0  0  0
 27 26  1  0  0  0  0
 28 29  1  0  0  0  0
 28  4  1  0  0  0  0
 30 28  1  0  0  0  0
 31 28  1  0  0  0  0
M  END
>  <minimizedAffinity>
-5.60038996

>  <minimizedRMSD>
0.406862438

$$$$
