
 OpenBabel03232520153D

 28 30  0  0  0  0  0  0  0  0999 V2000
   47.4270   34.1070   42.3140 C   0  0  0  0  0  0  0  0  0  0  0  0
   48.2000   35.2210   41.6950 C   0  0  0  0  0  0  0  0  0  0  0  0
   49.5850   35.4300   42.2420 C   0  0  0  0  0  0  0  0  0  0  0  0
   50.3690   34.1620   42.4090 C   0  0  0  0  0  0  0  0  0  0  0  0
   49.5470   32.9150   42.2130 C   0  0  0  0  0  0  0  0  0  0  0  0
   48.2880   33.0900   43.0330 C   0  0  0  0  0  0  0  0  0  0  0  0
   47.6290   36.1610   41.8370 H   0  0  0  0  0  0  0  0  0  0  0  0
   48.3040   35.1170   40.5830 H   0  0  0  0  0  0  0  0  0  0  0  0
   49.5230   36.0400   43.1700 H   0  0  0  0  0  0  0  0  0  0  0  0
   50.1240   36.0790   41.5030 H   0  0  0  0  0  0  0  0  0  0  0  0
   50.7640   34.1600   43.4460 H   0  0  0  0  0  0  0  0  0  0  0  0
   51.2420   34.1320   41.7290 H   0  0  0  0  0  0  0  0  0  0  0  0
   49.3480   32.6820   41.1650 H   0  0  0  0  0  0  0  0  0  0  0  0
   50.1170   32.0940   42.7080 H   0  0  0  0  0  0  0  0  0  0  0  0
   48.5560   33.5560   44.0030 H   0  0  0  0  0  0  0  0  0  0  0  0
   47.7000   32.1710   43.1490 H   0  0  0  0  0  0  0  0  0  0  0  0
   45.2150   34.3730   45.2570 C   0  0  0  0  0  0  0  0  0  0  0  0
   44.5370   35.5770   45.0340 C   0  0  0  0  0  0  0  0  0  0  0  0
   44.8200   36.3000   43.8840 C   0  0  0  0  0  0  0  0  0  0  0  0
   45.7640   35.7650   43.0390 N   0  0  0  0  0  0  0  0  0  0  0  0
   46.3970   34.6150   43.2750 C   0  0  0  0  0  0  0  0  0  0  0  0
   46.1230   33.9170   44.3860 N   0  0  0  0  0  0  0  0  0  0  0  0
   45.0280   33.7710   46.1440 H   0  0  0  0  0  0  0  0  0  0  0  0
   43.8110   35.9230   45.7490 H   0  0  0  0  0  0  0  0  0  0  0  0
   44.3310   37.2290   43.6580 H   0  0  0  0  0  0  0  0  0  0  0  0
   46.7820   33.3090   41.1810 C   0  0  0  0  0  0  0  0  0  0  0  0
   45.5860   33.8300   40.4990 C   0  0  0  0  0  0  0  0  0  0  0  0
   46.9290   33.6930   39.7790 C   0  0  0  0  0  0  0  0  0  0  0  0
  1  6  1  0  0  0  0
  1 21  1  0  0  0  0
  2  7  1  0  0  0  0
  2  3  1  0  0  0  0
  2  1  1  0  0  0  0
  3  4  1  0  0  0  0
  3  9  1  0  0  0  0
  4 11  1  0  0  0  0
  5  4  1  0  0  0  0
  5 14  1  0  0  0  0
  5  6  1  0  0  0  0
  6 16  1  0  0  0  0
  6 15  1  0  0  0  0
  8  2  1  0  0  0  0
 10  3  1  0  0  0  0
 12  4  1  0  0  0  0
 13  5  1  0  0  0  0
 17 23  1  0  0  0  0
 18 17  1  0  0  0  0
 18 24  1  0  0  0  0
 19 18  2  0  0  0  0
 20 21  2  0  0  0  0
 20 19  1  0  0  0  0
 21 22  1  0  0  0  0
 22 17  2  0  0  0  0
 25 19  1  0  0  0  0
 26  1  1  0  0  0  0
 27 26  1  0  0  0  0
 28 27  1  0  0  0  0
 28 26  1  0  0  0  0
M  END
>  <minimizedAffinity>
-5.19191313

>  <minimizedRMSD>
0.443221927

$$$$
