
 OpenBabel03232518183D

 28 30  0  0  1  0  0  0  0  0999 V2000
   43.7840   34.4710   41.0440 C   0  0  2  0  0  0  0  0  0  0  0  0
   42.5310   35.3740   40.9170 C   0  0  0  0  0  0  0  0  0  0  0  0
   42.3850   35.2490   39.3940 C   0  0  1  0  0  0  0  0  0  0  0  0
   42.4990   33.7590   39.2240 C   0  0  0  0  0  0  0  0  0  0  0  0
   43.2860   33.2400   40.4250 C   0  0  0  0  0  0  0  0  0  0  0  0
   44.5280   34.9980   40.3940 H   0  0  0  0  0  0  0  0  0  0  0  0
   42.7640   36.3960   41.2280 H   0  0  0  0  0  0  0  0  0  0  0  0
   41.6880   34.8950   41.4360 H   0  0  0  0  0  0  0  0  0  0  0  0
   43.2200   35.8180   38.9530 H   0  0  0  0  0  0  0  0  0  0  0  0
   43.1430   33.5860   38.3390 H   0  0  0  0  0  0  0  0  0  0  0  0
   41.5310   33.2530   39.1100 H   0  0  0  0  0  0  0  0  0  0  0  0
   42.6050   32.6820   41.0710 H   0  0  0  0  0  0  0  0  0  0  0  0
   44.1100   32.5700   40.1050 H   0  0  0  0  0  0  0  0  0  0  0  0
   44.3150   35.5550   43.1770 C   0  0  0  0  0  0  0  0  0  0  0  0
   44.2950   34.3930   42.3900 C   0  0  0  0  0  0  0  0  0  0  0  0
   44.8100   33.1970   42.9650 C   0  0  0  0  0  0  0  0  0  0  0  0
   45.2970   33.2290   44.2350 N   0  0  0  0  0  0  0  0  0  0  0  0
   45.2950   34.3870   44.9580 C   0  0  0  0  0  0  0  0  0  0  0  0
   44.8050   35.5430   44.4290 N   0  0  0  0  0  0  0  0  0  0  0  0
   43.9520   36.5190   42.8510 H   0  0  0  0  0  0  0  0  0  0  0  0
   44.8010   32.3030   42.3790 H   0  0  0  0  0  0  0  0  0  0  0  0
   45.6750   34.4380   45.9670 H   0  0  0  0  0  0  0  0  0  0  0  0
   41.0470   35.7300   38.9220 C   0  0  0  0  0  0  0  0  0  0  0  0
   40.2500   36.0860   40.1550 C   0  0  0  0  0  0  0  0  0  0  0  0
   39.8170   34.8390   40.9090 C   0  0  0  0  0  0  0  0  0  0  0  0
   38.9650   34.0130   39.9830 C   0  0  0  0  0  0  0  0  0  0  0  0
   39.7720   33.5710   38.7910 C   0  0  0  0  0  0  0  0  0  0  0  0
   40.3160   34.7650   38.0570 C   0  0  0  0  0  0  0  0  0  0  0  0
  1  6  1  6  0  0  0
  1 15  1  0  0  0  0
  2  1  1  0  0  0  0
  2  7  1  0  0  0  0
  2  8  1  0  0  0  0
  3  9  1  6  0  0  0
  3  2  1  0  0  0  0
  4  3  1  0  0  0  0
  4  5  1  0  0  0  0
  5  1  1  0  0  0  0
  5 12  1  0  0  0  0
 10  4  1  0  0  0  0
 11  4  1  0  0  0  0
 13  5  1  0  0  0  0
 14 19  1  0  0  0  0
 15 16  1  0  0  0  0
 15 14  2  0  0  0  0
 16 17  2  0  0  0  0
 17 18  1  0  0  0  0
 18 22  1  0  0  0  0
 19 18  2  0  0  0  0
 20 14  1  0  0  0  0
 21 16  1  0  0  0  0
 23  3  1  0  0  0  0
 23 24  1  0  0  0  0
 24 25  1  0  0  0  0
 26 25  1  0  0  0  0
 27 26  1  0  0  0  0
 28 27  1  0  0  0  0
 28 23  1  0  0  0  0
M  END
>  <minimizedAffinity>
-5.62259102

>  <minimizedRMSD>
1.60404634

$$$$
