
 OpenBabel03232520513D

 29 31  0  0  1  0  0  0  0  0999 V2000
   46.5030   33.9500   44.4850 C   0  0  2  0  0  0  0  0  0  0  0  0
   45.4430   34.3070   45.5000 C   0  0  0  0  0  0  0  0  0  0  0  0
   44.4800   35.3240   45.1230 C   0  0  0  0  0  0  0  0  0  0  0  0
   44.5510   35.9660   43.8090 C   0  0  2  0  0  0  0  0  0  0  0  0
   45.7100   35.6050   42.9470 C   0  0  0  0  0  0  0  0  0  0  0  0
   45.9690   34.1260   43.0950 C   0  0  0  0  0  0  0  0  0  0  0  0
   47.3550   34.6830   44.6040 H   0  0  0  0  0  0  0  0  0  0  0  0
   45.2620   33.9380   46.4790 H   0  0  0  0  0  0  0  0  0  0  0  0
   43.7140   35.6090   45.8050 H   0  0  0  0  0  0  0  0  0  0  0  0
   43.6110   35.8250   43.2360 H   0  0  0  0  0  0  0  0  0  0  0  0
   45.4260   35.8530   41.8900 H   0  0  0  0  0  0  0  0  0  0  0  0
   46.6360   36.1390   43.2440 H   0  0  0  0  0  0  0  0  0  0  0  0
   45.0000   33.6000   42.9960 H   0  0  0  0  0  0  0  0  0  0  0  0
   46.7030   33.8580   42.3400 H   0  0  0  0  0  0  0  0  0  0  0  0
   46.8870   32.0880   46.0630 C   0  0  0  0  0  0  0  0  0  0  0  0
   47.0280   32.6130   44.7780 C   0  0  0  0  0  0  0  0  0  0  0  0
   47.6920   31.8140   43.8280 C   0  0  0  0  0  0  0  0  0  0  0  0
   48.1600   30.5920   44.1920 N   0  0  0  0  0  0  0  0  0  0  0  0
   48.0040   30.1210   45.4480 C   0  0  0  0  0  0  0  0  0  0  0  0
   47.3680   30.8680   46.3790 N   0  0  0  0  0  0  0  0  0  0  0  0
   46.3960   32.6060   46.8770 H   0  0  0  0  0  0  0  0  0  0  0  0
   47.8190   32.1850   42.8300 H   0  0  0  0  0  0  0  0  0  0  0  0
   48.4130   29.1360   45.6350 H   0  0  0  0  0  0  0  0  0  0  0  0
   44.6380   37.4720   44.0930 C   0  0  0  0  0  3  0  0  0  0  0  0
   45.1600   38.2450   42.9270 C   0  0  0  0  0  2  0  0  0  0  0  0
   45.9470   39.4640   43.3720 C   0  0  0  0  0  2  0  0  0  0  0  0
   45.3030   40.1450   44.5550 C   0  0  0  0  0  2  0  0  0  0  0  0
   45.0290   39.2350   45.7040 C   0  0  0  0  0  2  0  0  0  0  0  0
   45.3870   37.7860   45.3450 C   0  0  0  0  0  2  0  0  0  0  0  0
  1  7  1  1  0  0  0
  1 16  1  0  0  0  0
  1  2  1  0  0  0  0
  2  8  1  0  0  0  0
  3  2  2  0  0  0  0
  3  9  1  0  0  0  0
  4 10  1  6  0  0  0
  4 24  1  0  0  0  0
  4  3  1  0  0  0  0
  5  6  1  0  0  0  0
  5 12  1  0  0  0  0
  5  4  1  0  0  0  0
  6  1  1  0  0  0  0
 11  5  1  0  0  0  0
 13  6  1  0  0  0  0
 14  6  1  0  0  0  0
 15 20  1  0  0  0  0
 15 21  1  0  0  0  0
 16 15  2  0  0  0  0
 17 18  2  0  0  0  0
 17 16  1  0  0  0  0
 18 19  1  0  0  0  0
 19 23  1  0  0  0  0
 19 20  2  0  0  0  0
 22 17  1  0  0  0  0
 24 29  1  0  0  0  0
 25 26  1  0  0  0  0
 25 24  1  0  0  0  0
 26 27  1  0  0  0  0
 27 28  1  0  0  0  0
 29 28  1  0  0  0  0
M  END
>  <minimizedAffinity>
-0.618382096

>  <minimizedRMSD>
2.16350794

$$$$
