
 OpenBabel03232520473D

 38 41  0  0  0  0  0  0  0  0999 V2000
   46.4840   34.5250   42.4420 C   0  0  0  0  0  0  0  0  0  0  0  0
   47.7940   34.8990   42.3270 C   0  0  0  0  0  0  0  0  0  0  0  0
   48.4820   34.8230   41.1160 C   0  0  0  0  0  0  0  0  0  0  0  0
   47.8220   34.3500   39.9720 C   0  0  0  0  0  0  0  0  0  0  0  0
   46.5140   33.9770   40.0890 C   0  0  0  0  0  0  0  0  0  0  0  0
   45.8580   34.0660   41.3140 C   0  0  0  0  0  0  0  0  0  0  0  0
   48.3410   35.2700   43.1860 H   0  0  0  0  0  0  0  0  0  0  0  0
   49.5140   35.1270   41.0640 H   0  0  0  0  0  0  0  0  0  0  0  0
   48.3230   34.2780   39.0170 H   0  0  0  0  0  0  0  0  0  0  0  0
   45.9720   33.6070   39.2290 H   0  0  0  0  0  0  0  0  0  0  0  0
   44.4970   33.6680   41.3930 N   0  0  0  0  0  0  0  0  0  0  0  0
   43.6810   34.6710   40.9370 C   0  0  0  0  0  0  0  0  0  0  0  0
   42.2910   34.4940   40.9250 C   0  0  0  0  0  0  0  0  0  0  0  0
   41.7910   33.2800   41.3860 C   0  0  0  0  0  0  0  0  0  0  0  0
   40.5530   33.0620   41.4000 O   0  0  0  0  0  0  0  0  0  0  0  0
   42.6370   32.3340   41.8200 N   0  0  0  0  0  0  0  0  0  0  0  0
   43.9650   32.5150   41.8270 C   0  0  0  0  0  0  0  0  0  0  0  0
   44.8270   31.6980   42.2100 O   0  0  0  0  0  0  0  0  0  0  0  0
   43.9790   35.6190   40.5710 H   0  0  0  0  0  0  0  0  0  0  0  0
   42.2940   31.4090   42.1740 H   0  0  0  0  0  0  0  0  0  0  0  0
   41.3580   35.5490   40.4420 C   0  0  0  0  0  0  0  0  0  0  0  0
   40.9150   35.3250   39.4680 H   0  0  0  0  0  0  0  0  0  0  0  0
   40.4980   35.5500   41.1630 H   0  0  0  0  0  0  0  0  0  0  0  0
   41.8230   36.5600   40.5240 H   0  0  0  0  0  0  0  0  0  0  0  0
   44.4590   35.6760   45.3940 C   0  0  0  0  0  0  0  0  0  0  0  0
   45.0080   35.6780   44.1130 C   0  0  0  0  0  0  0  0  0  0  0  0
   45.8500   34.6380   43.7400 C   0  0  0  0  0  0  0  0  0  0  0  0
   46.0970   33.6740   44.6370 N   0  0  0  0  0  0  0  0  0  0  0  0
   45.5460   33.6970   45.8830 C   0  0  0  0  0  0  0  0  0  0  0  0
   44.7330   34.6930   46.2530 N   0  0  0  0  0  0  0  0  0  0  0  0
   43.8050   36.4960   45.6620 H   0  0  0  0  0  0  0  0  0  0  0  0
   44.8080   36.4510   43.3990 H   0  0  0  0  0  0  0  0  0  0  0  0
   45.8890   32.5730   46.7970 C   0  0  0  0  0  3  0  0  0  0  0  0
   47.3330   32.5570   47.2190 C   0  0  0  0  0  2  0  0  0  0  0  0
   47.5550   31.2250   47.9070 C   0  0  0  0  0  2  0  0  0  0  0  0
   46.2950   30.7520   48.6070 C   0  0  0  0  0  2  0  0  0  0  0  0
   45.5550   31.9590   49.1380 C   0  0  0  0  0  2  0  0  0  0  0  0
   44.9490   32.6900   47.9750 C   0  0  0  0  0  2  0  0  0  0  0  0
  1 27  1  0  0  0  0
  2  1  1  0  0  0  0
  2  7  1  0  0  0  0
  3  2  2  0  0  0  0
  4  5  2  0  0  0  0
  4  3  1  0  0  0  0
  5  6  1  0  0  0  0
  6 11  1  0  0  0  0
  6  1  2  0  0  0  0
  8  3  1  0  0  0  0
  9  4  1  0  0  0  0
 10  5  1  0  0  0  0
 11 17  1  0  0  0  0
 12 11  1  0  0  0  0
 13 12  2  0  0  0  0
 13 14  1  0  0  0  0
 14 15  2  0  0  0  0
 14 16  1  0  0  0  0
 16 17  1  0  0  0  0
 16 20  1  0  0  0  0
 17 18  2  0  0  0  0
 19 12  1  0  0  0  0
 21 24  1  0  0  0  0
 21 13  1  0  0  0  0
 21 23  1  0  0  0  0
 22 21  1  0  0  0  0
 25 31  1  0  0  0  0
 25 30  1  0  0  0  0
 26 25  2  0  0  0  0
 27 26  1  0  0  0  0
 27 28  2  0  0  0  0
 28 29  1  0  0  0  0
 29 30  2  0  0  0  0
 29 33  1  0  0  0  0
 32 26  1  0  0  0  0
 33 34  1  0  0  0  0
 33 38  1  0  0  0  0
 34 35  1  0  0  0  0
 35 36  1  0  0  0  0
 36 37  1  0  0  0  0
 38 37  1  0  0  0  0
M  END
>  <minimizedAffinity>
-7.64274883

>  <minimizedRMSD>
0.675898314

$$$$
