
 OpenBabel03232520433D

 40 43  0  0  1  0  0  0  0  0999 V2000
   38.5790   33.3440   38.6800 N   0  0  0  0  0  0  0  0  0  0  0  0
   38.3800   34.0800   39.8870 C   0  0  0  0  0  0  0  0  0  0  0  0
   39.4230   33.7620   40.9390 C   0  0  0  0  0  0  0  0  0  0  0  0
   40.7800   34.0550   40.3640 C   0  0  1  0  0  0  0  0  0  0  0  0
   40.7390   34.4740   38.9200 C   0  0  0  0  0  0  0  0  0  0  0  0
   39.8900   33.5200   38.1000 C   0  0  1  0  0  0  0  0  0  0  0  0
   37.7900   33.4950   38.0430 H   0  0  0  0  0  0  0  0  0  0  0  0
   38.4150   35.1930   39.7570 H   0  0  0  0  0  0  0  0  0  0  0  0
   37.3630   33.8300   40.2520 H   0  0  0  0  0  0  0  0  0  0  0  0
   39.2090   34.3530   41.8460 H   0  0  0  0  0  0  0  0  0  0  0  0
   39.2970   32.6910   41.2580 H   0  0  0  0  0  0  0  0  0  0  0  0
   41.3440   33.1010   40.4040 H   0  0  0  0  0  0  0  0  0  0  0  0
   41.7440   34.5280   38.5180 H   0  0  0  0  0  0  0  0  0  0  0  0
   40.2590   35.4660   38.8650 H   0  0  0  0  0  0  0  0  0  0  0  0
   39.7140   34.0560   37.1290 H   0  0  0  0  0  0  0  0  0  0  0  0
   40.5510   32.2110   37.8170 C   0  0  0  0  0  0  0  0  0  0  0  0
   39.5810   31.1080   37.5610 C   0  0  0  0  0  0  0  0  0  0  0  0
   38.7570   30.7630   38.7960 C   0  0  0  0  0  0  0  0  0  0  0  0
   39.6490   30.3720   39.9360 C   0  0  0  0  0  0  0  0  0  0  0  0
   41.1120   30.4600   39.5420 C   0  0  0  0  0  0  0  0  0  0  0  0
   41.3820   31.8460   39.0180 C   0  0  0  0  0  0  0  0  0  0  0  0
   41.5510   35.3200   41.3670 S   0  0  0  0  0  0  0  0  0  0  0  0
   44.0140   35.5130   42.6400 C   0  0  0  0  0  0  0  0  0  0  0  0
   43.3210   35.0360   41.5310 C   0  0  0  0  0  0  0  0  0  0  0  0
   44.0220   34.3510   40.5820 C   0  0  0  0  0  0  0  0  0  0  0  0
   45.3620   34.1400   40.7150 N   0  0  0  0  0  0  0  0  0  0  0  0
   46.0100   34.6200   41.8110 C   0  0  0  0  0  0  0  0  0  0  0  0
   45.3390   35.3040   42.7720 N   0  0  0  0  0  0  0  0  0  0  0  0
   43.4920   36.0560   43.4040 H   0  0  0  0  0  0  0  0  0  0  0  0
   43.5730   33.9530   39.7030 H   0  0  0  0  0  0  0  0  0  0  0  0
   47.4390   34.4380   42.0310 C   0  0  0  0  0  0  0  0  0  0  0  0
   48.2980   35.4860   41.9500 C   0  0  0  0  0  0  0  0  0  0  0  0
   49.6630   35.3350   42.1540 C   0  0  0  0  0  0  0  0  0  0  0  0
   50.1860   34.0910   42.4510 C   0  0  0  0  0  0  0  0  0  0  0  0
   49.2820   33.0320   42.5280 C   0  0  0  0  0  0  0  0  0  0  0  0
   47.9720   33.2300   42.3220 N   0  0  0  0  0  0  0  0  0  0  0  0
   47.9780   36.4940   41.7230 H   0  0  0  0  0  0  0  0  0  0  0  0
   50.3720   36.1520   42.0970 H   0  0  0  0  0  0  0  0  0  0  0  0
   51.2320   33.8580   42.6290 H   0  0  0  0  0  0  0  0  0  0  0  0
   49.6290   32.0310   42.7560 H   0  0  0  0  0  0  0  0  0  0  0  0
  1  2  1  0  0  0  0
  2  9  1  0  0  0  0
  2  3  1  0  0  0  0
  3 11  1  0  0  0  0
  3 10  1  0  0  0  0
  4 12  1  1  0  0  0
  4  3  1  0  0  0  0
  4 22  1  0  0  0  0
  5  4  1  0  0  0  0
  6 15  1  6  0  0  0
  6  1  1  0  0  0  0
  6  5  1  0  0  0  0
  7  1  1  0  0  0  0
  8  2  1  0  0  0  0
 13  5  1  0  0  0  0
 14  5  1  0  0  0  0
 16  6  1  0  0  0  0
 16 21  1  0  0  0  0
 17 16  1  0  0  0  0
 17 18  1  0  0  0  0
 18 19  1  0  0  0  0
 20 19  1  0  0  0  0
 21 20  1  0  0  0  0
 22 24  1  0  0  0  0
 23 28  1  0  0  0  0
 23 29  1  0  0  0  0
 24 23  2  0  0  0  0
 25 26  2  0  0  0  0
 25 24  1  0  0  0  0
 26 27  1  0  0  0  0
 27 31  1  0  0  0  0
 27 28  2  0  0  0  0
 30 25  1  0  0  0  0
 31 36  1  0  0  0  0
 32 31  2  0  0  0  0
 32 33  1  0  0  0  0
 33 34  2  0  0  0  0
 34 35  1  0  0  0  0
 34 39  1  0  0  0  0
 35 40  1  0  0  0  0
 36 35  2  0  0  0  0
 37 32  1  0  0  0  0
 38 33  1  0  0  0  0
M  END
>  <minimizedAffinity>
-6.16287279

>  <minimizedRMSD>
0.934489071

$$$$
