
 OpenBabel03232520573D

 34 36  0  0  1  0  0  0  0  0999 V2000
   46.2080   33.6340   45.3150 C   0  0  2  0  0  0  0  0  0  0  0  0
   44.9890   34.6770   45.4860 C   0  0  0  0  0  0  0  0  0  0  0  0
   44.7470   35.5830   44.3920 C   0  0  0  0  0  0  0  0  0  0  0  0
   45.5530   35.5110   43.1830 C   0  0  1  0  0  0  0  0  0  0  0  0
   46.6650   34.5570   43.1930 C   0  0  0  0  0  0  0  0  0  0  0  0
   46.2220   33.3060   43.9400 C   0  0  0  0  0  0  0  0  0  0  0  0
   46.9070   34.4950   45.5920 H   0  0  0  0  0  0  0  0  0  0  0  0
   44.2360   34.9160   46.2420 H   0  0  0  0  0  0  0  0  0  0  0  0
   43.9770   36.3120   44.3940 H   0  0  0  0  0  0  0  0  0  0  0  0
   45.9380   36.5280   42.9470 H   0  0  0  0  0  0  0  0  0  0  0  0
   47.5890   34.9600   43.6910 H   0  0  0  0  0  0  0  0  0  0  0  0
   46.9560   34.2930   42.1590 H   0  0  0  0  0  0  0  0  0  0  0  0
   46.7830   32.5620   43.4270 H   0  0  0  0  0  0  0  0  0  0  0  0
   45.1530   33.1600   43.5730 H   0  0  0  0  0  0  0  0  0  0  0  0
   45.1960   32.8830   47.4590 C   0  0  0  0  0  0  0  0  0  0  0  0
   45.9910   32.6610   46.3450 C   0  0  0  0  0  0  0  0  0  0  0  0
   46.5340   31.3630   46.2030 C   0  0  0  0  0  0  0  0  0  0  0  0
   46.2510   30.4570   47.1310 N   0  0  0  0  0  0  0  0  0  0  0  0
   45.4730   30.6910   48.2120 C   0  0  0  0  0  0  0  0  0  0  0  0
   44.9450   31.8940   48.3830 N   0  0  0  0  0  0  0  0  0  0  0  0
   45.2680   29.6190   49.1500 N   0  0  0  0  0  0  0  0  0  0  0  0
   44.7560   33.8510   47.6270 H   0  0  0  0  0  0  0  0  0  0  0  0
   45.1290   29.8200   50.1750 H   0  0  0  0  0  0  0  0  0  0  0  0
   45.2600   28.6530   48.8010 H   0  0  0  0  0  0  0  0  0  0  0  0
   47.4080   30.8190   45.1380 C   0  0  0  0  0  3  0  0  0  0  0  0
   48.4600   29.8710   45.6000 C   0  0  0  0  0  2  0  0  0  0  0  0
   48.8950   28.8580   44.5570 C   0  0  0  0  0  2  0  0  0  0  0  0
   48.7930   29.5600   43.2120 C   0  0  0  0  0  2  0  0  0  0  0  0
   47.2790   29.5850   42.9550 C   0  0  0  0  0  2  0  0  0  0  0  0
   46.5610   29.8340   44.2430 C   0  0  0  0  0  2  0  0  0  0  0  0
   44.5860   35.1760   42.0170 C   0  0  0  0  0  0  0  0  0  0  0  0
   43.5970   34.2850   42.3800 F   0  0  0  0  0  0  0  0  0  0  0  0
   43.9420   36.3650   41.6870 F   0  0  0  0  0  0  0  0  0  0  0  0
   45.3030   34.7740   40.9060 F   0  0  0  0  0  0  0  0  0  0  0  0
  1  2  1  0  0  0  0
  1  7  1  1  0  0  0
  1 16  1  0  0  0  0
  2  8  1  0  0  0  0
  3  9  1  0  0  0  0
  3  2  2  0  0  0  0
  4 10  1  6  0  0  0
  4  5  1  0  0  0  0
  4  3  1  0  0  0  0
  5 11  1  0  0  0  0
  5  6  1  0  0  0  0
  6  1  1  0  0  0  0
 12  5  1  0  0  0  0
 13  6  1  0  0  0  0
 14  6  1  0  0  0  0
 15 22  1  0  0  0  0
 15 20  1  0  0  0  0
 16 15  2  0  0  0  0
 17 16  1  0  0  0  0
 17 18  2  0  0  0  0
 18 19  1  0  0  0  0
 19 20  2  0  0  0  0
 19 21  1  0  0  0  0
 21 23  1  0  0  0  0
 24 21  1  0  0  0  0
 25 26  1  0  0  0  0
 25 17  1  0  0  0  0
 27 26  1  0  0  0  0
 28 27  1  0  0  0  0
 29 28  1  0  0  0  0
 29 30  1  0  0  0  0
 30 25  1  0  0  0  0
 31 32  1  0  0  0  0
 31  4  1  0  0  0  0
 33 31  1  0  0  0  0
 34 31  1  0  0  0  0
M  END
>  <minimizedAffinity>
-5.80667448

>  <minimizedRMSD>
0.682960987

$$$$
