
 OpenBabel03232520473D

 38 41  0  0  0  0  0  0  0  0999 V2000
   46.4850   34.6090   42.2140 C   0  0  0  0  0  0  0  0  0  0  0  0
   47.7920   34.9840   42.0760 C   0  0  0  0  0  0  0  0  0  0  0  0
   48.4760   34.8520   40.8670 C   0  0  0  0  0  0  0  0  0  0  0  0
   47.8140   34.3190   39.7510 C   0  0  0  0  0  0  0  0  0  0  0  0
   46.5090   33.9450   39.8910 C   0  0  0  0  0  0  0  0  0  0  0  0
   45.8570   34.0910   41.1120 C   0  0  0  0  0  0  0  0  0  0  0  0
   48.3410   35.4010   42.9130 H   0  0  0  0  0  0  0  0  0  0  0  0
   49.5070   35.1590   40.7960 H   0  0  0  0  0  0  0  0  0  0  0  0
   48.3120   34.2020   38.7980 H   0  0  0  0  0  0  0  0  0  0  0  0
   45.9650   33.5300   39.0530 H   0  0  0  0  0  0  0  0  0  0  0  0
   44.4990   33.6900   41.2170 N   0  0  0  0  0  0  0  0  0  0  0  0
   43.6770   34.6510   40.6880 C   0  0  0  0  0  0  0  0  0  0  0  0
   42.2880   34.4640   40.6850 C   0  0  0  0  0  0  0  0  0  0  0  0
   41.7950   33.2830   41.2310 C   0  0  0  0  0  0  0  0  0  0  0  0
   40.5590   33.0580   41.2580 O   0  0  0  0  0  0  0  0  0  0  0  0
   42.6470   32.3780   41.7350 N   0  0  0  0  0  0  0  0  0  0  0  0
   43.9740   32.5680   41.7320 C   0  0  0  0  0  0  0  0  0  0  0  0
   44.8400   31.7870   42.1750 O   0  0  0  0  0  0  0  0  0  0  0  0
   43.9700   35.5720   40.2540 H   0  0  0  0  0  0  0  0  0  0  0  0
   42.3090   31.4780   42.1540 H   0  0  0  0  0  0  0  0  0  0  0  0
   41.3490   35.4740   40.1240 C   0  0  0  0  0  0  0  0  0  0  0  0
   40.9110   35.1780   39.1670 H   0  0  0  0  0  0  0  0  0  0  0  0
   40.4870   35.5220   40.8410 H   0  0  0  0  0  0  0  0  0  0  0  0
   41.8070   36.4920   40.1340 H   0  0  0  0  0  0  0  0  0  0  0  0
   44.4350   35.8740   45.1020 C   0  0  0  0  0  0  0  0  0  0  0  0
   44.9760   35.8120   43.8190 C   0  0  0  0  0  0  0  0  0  0  0  0
   45.8550   34.7830   43.5070 C   0  0  0  0  0  0  0  0  0  0  0  0
   46.1450   33.8900   44.4640 N   0  0  0  0  0  0  0  0  0  0  0  0
   45.6010   33.9750   45.7100 C   0  0  0  0  0  0  0  0  0  0  0  0
   44.7530   34.9610   46.0210 N   0  0  0  0  0  0  0  0  0  0  0  0
   43.7520   36.6840   45.3210 H   0  0  0  0  0  0  0  0  0  0  0  0
   44.7410   36.5290   43.0580 H   0  0  0  0  0  0  0  0  0  0  0  0
   45.9930   32.9270   46.6930 C   0  0  0  0  0  3  0  0  0  0  0  0
   45.0590   32.8210   47.8680 C   0  0  0  0  0  2  0  0  0  0  0  0
   45.7470   31.9190   48.8730 C   0  0  0  0  0  2  0  0  0  0  0  0
   46.6160   30.8880   48.1790 C   0  0  0  0  0  2  0  0  0  0  0  0
   45.9520   30.4910   46.8790 C   0  0  0  0  0  2  0  0  0  0  0  0
   46.0850   31.6350   45.9140 C   0  0  0  0  0  2  0  0  0  0  0  0
  1 27  1  0  0  0  0
  2  1  1  0  0  0  0
  2  7  1  0  0  0  0
  3  2  2  0  0  0  0
  4  5  2  0  0  0  0
  4  3  1  0  0  0  0
  5  6  1  0  0  0  0
  6 11  1  0  0  0  0
  6  1  2  0  0  0  0
  8  3  1  0  0  0  0
  9  4  1  0  0  0  0
 10  5  1  0  0  0  0
 11 17  1  0  0  0  0
 12 11  1  0  0  0  0
 13 12  2  0  0  0  0
 13 14  1  0  0  0  0
 14 15  2  0  0  0  0
 14 16  1  0  0  0  0
 16 20  1  0  0  0  0
 17 16  1  0  0  0  0
 17 18  2  0  0  0  0
 19 12  1  0  0  0  0
 21 24  1  0  0  0  0
 21 13  1  0  0  0  0
 21 23  1  0  0  0  0
 22 21  1  0  0  0  0
 25 31  1  0  0  0  0
 25 30  1  0  0  0  0
 26 25  2  0  0  0  0
 27 26  1  0  0  0  0
 27 28  2  0  0  0  0
 28 29  1  0  0  0  0
 29 30  2  0  0  0  0
 29 33  1  0  0  0  0
 32 26  1  0  0  0  0
 33 34  1  0  0  0  0
 34 35  1  0  0  0  0
 36 35  1  0  0  0  0
 37 36  1  0  0  0  0
 38 33  1  0  0  0  0
 38 37  1  0  0  0  0
M  END
>  <minimizedAffinity>
-7.71742725

>  <minimizedRMSD>
0.359655023

$$$$
