
 OpenBabel03232520573D

 34 36  0  0  1  0  0  0  0  0999 V2000
   46.2430   32.6270   44.1110 C   0  0  2  0  0  0  0  0  0  0  0  0
   46.5050   34.2190   44.0870 C   0  0  0  0  0  0  0  0  0  0  0  0
   46.0080   34.9450   42.9460 C   0  0  0  0  0  0  0  0  0  0  0  0
   45.2700   34.2570   41.8990 C   0  0  1  0  0  0  0  0  0  0  0  0
   45.1620   32.8010   42.0220 C   0  0  0  0  0  0  0  0  0  0  0  0
   44.9840   32.4520   43.4940 C   0  0  0  0  0  0  0  0  0  0  0  0
   47.1280   32.5290   43.3940 H   0  0  0  0  0  0  0  0  0  0  0  0
   46.9820   34.9640   44.7300 H   0  0  0  0  0  0  0  0  0  0  0  0
   46.1240   35.9910   42.8220 H   0  0  0  0  0  0  0  0  0  0  0  0
   45.7210   34.5140   40.9140 H   0  0  0  0  0  0  0  0  0  0  0  0
   46.0670   32.2550   41.6340 H   0  0  0  0  0  0  0  0  0  0  0  0
   44.2990   32.4270   41.4410 H   0  0  0  0  0  0  0  0  0  0  0  0
   44.3830   31.5770   43.4170 H   0  0  0  0  0  0  0  0  0  0  0  0
   44.2660   33.2590   43.8560 H   0  0  0  0  0  0  0  0  0  0  0  0
   46.0270   32.9350   46.5690 C   0  0  0  0  0  0  0  0  0  0  0  0
   46.5050   32.2440   45.4670 C   0  0  0  0  0  0  0  0  0  0  0  0
   47.2150   31.0490   45.7290 C   0  0  0  0  0  0  0  0  0  0  0  0
   47.3740   30.6750   46.9930 N   0  0  0  0  0  0  0  0  0  0  0  0
   46.9000   31.3630   48.0560 C   0  0  0  0  0  0  0  0  0  0  0  0
   46.2300   32.4870   47.8550 N   0  0  0  0  0  0  0  0  0  0  0  0
   47.1670   30.8490   49.3740 N   0  0  0  0  0  0  0  0  0  0  0  0
   45.4810   33.8540   46.4390 H   0  0  0  0  0  0  0  0  0  0  0  0
   47.2860   31.5030   50.1920 H   0  0  0  0  0  0  0  0  0  0  0  0
   47.2390   29.8330   49.5030 H   0  0  0  0  0  0  0  0  0  0  0  0
   47.8410   30.0990   44.7810 C   0  0  0  0  0  3  0  0  0  0  0  0
   46.8900   29.2840   43.9750 C   0  0  0  0  0  2  0  0  0  0  0  0
   47.4300   28.8320   42.6310 C   0  0  0  0  0  2  0  0  0  0  0  0
   48.9230   28.6090   42.8250 C   0  0  0  0  0  2  0  0  0  0  0  0
   49.4770   30.0400   42.8760 C   0  0  0  0  0  2  0  0  0  0  0  0
   48.5170   30.9190   43.6140 C   0  0  0  0  0  2  0  0  0  0  0  0
   43.8520   34.8850   41.8590 C   0  0  0  0  0  0  0  0  0  0  0  0
   43.5330   35.5620   43.0180 F   0  0  0  0  0  0  0  0  0  0  0  0
   43.8720   35.8360   40.8420 F   0  0  0  0  0  0  0  0  0  0  0  0
   42.9180   33.9280   41.5100 F   0  0  0  0  0  0  0  0  0  0  0  0
  1  7  1  6  0  0  0
  1 16  1  0  0  0  0
  2  1  1  0  0  0  0
  2  8  1  0  0  0  0
  3  2  2  0  0  0  0
  4 10  1  6  0  0  0
  4  5  1  0  0  0  0
  4  3  1  0  0  0  0
  5  6  1  0  0  0  0
  6 14  1  0  0  0  0
  6  1  1  0  0  0  0
  9  3  1  0  0  0  0
 11  5  1  0  0  0  0
 12  5  1  0  0  0  0
 13  6  1  0  0  0  0
 15 20  1  0  0  0  0
 16 17  1  0  0  0  0
 16 15  2  0  0  0  0
 17 18  2  0  0  0  0
 18 19  1  0  0  0  0
 19 21  1  0  0  0  0
 20 19  2  0  0  0  0
 21 24  1  0  0  0  0
 21 23  1  0  0  0  0
 22 15  1  0  0  0  0
 25 17  1  0  0  0  0
 26 25  1  0  0  0  0
 27 28  1  0  0  0  0
 27 26  1  0  0  0  0
 28 29  1  0  0  0  0
 29 30  1  0  0  0  0
 30 25  1  0  0  0  0
 31  4  1  0  0  0  0
 31 32  1  0  0  0  0
 33 31  1  0  0  0  0
 34 31  1  0  0  0  0
M  END
>  <minimizedAffinity>
-4.91365004

>  <minimizedRMSD>
1.64487302

$$$$
