
 OpenBabel03232520473D

 38 41  0  0  0  0  0  0  0  0999 V2000
   46.4850   34.6090   42.2130 C   0  0  0  0  0  0  0  0  0  0  0  0
   47.7930   34.9850   42.0750 C   0  0  0  0  0  0  0  0  0  0  0  0
   48.4760   34.8520   40.8660 C   0  0  0  0  0  0  0  0  0  0  0  0
   47.8150   34.3180   39.7510 C   0  0  0  0  0  0  0  0  0  0  0  0
   46.5100   33.9440   39.8910 C   0  0  0  0  0  0  0  0  0  0  0  0
   45.8580   34.0910   41.1120 C   0  0  0  0  0  0  0  0  0  0  0  0
   48.3410   35.4020   42.9120 H   0  0  0  0  0  0  0  0  0  0  0  0
   49.5070   35.1590   40.7960 H   0  0  0  0  0  0  0  0  0  0  0  0
   48.3130   34.2010   38.7990 H   0  0  0  0  0  0  0  0  0  0  0  0
   45.9670   33.5280   39.0530 H   0  0  0  0  0  0  0  0  0  0  0  0
   44.4990   33.6890   41.2170 N   0  0  0  0  0  0  0  0  0  0  0  0
   43.6780   34.6500   40.6880 C   0  0  0  0  0  0  0  0  0  0  0  0
   42.2890   34.4630   40.6840 C   0  0  0  0  0  0  0  0  0  0  0  0
   41.7960   33.2820   41.2310 C   0  0  0  0  0  0  0  0  0  0  0  0
   40.5600   33.0560   41.2580 O   0  0  0  0  0  0  0  0  0  0  0  0
   42.6480   32.3760   41.7350 N   0  0  0  0  0  0  0  0  0  0  0  0
   43.9750   32.5670   41.7320 C   0  0  0  0  0  0  0  0  0  0  0  0
   44.8410   31.7860   42.1750 O   0  0  0  0  0  0  0  0  0  0  0  0
   43.9700   35.5710   40.2540 H   0  0  0  0  0  0  0  0  0  0  0  0
   42.3110   31.4770   42.1540 H   0  0  0  0  0  0  0  0  0  0  0  0
   41.3500   35.4730   40.1240 C   0  0  0  0  0  0  0  0  0  0  0  0
   40.9110   35.1760   39.1670 H   0  0  0  0  0  0  0  0  0  0  0  0
   40.4880   35.5200   40.8410 H   0  0  0  0  0  0  0  0  0  0  0  0
   41.8070   36.4900   40.1340 H   0  0  0  0  0  0  0  0  0  0  0  0
   44.4350   35.8770   45.1000 C   0  0  0  0  0  0  0  0  0  0  0  0
   44.9770   35.8140   43.8170 C   0  0  0  0  0  0  0  0  0  0  0  0
   45.8550   34.7850   43.5070 C   0  0  0  0  0  0  0  0  0  0  0  0
   46.1440   33.8920   44.4640 N   0  0  0  0  0  0  0  0  0  0  0  0
   45.6000   33.9770   45.7090 C   0  0  0  0  0  0  0  0  0  0  0  0
   44.7520   34.9640   46.0200 N   0  0  0  0  0  0  0  0  0  0  0  0
   43.7520   36.6870   45.3190 H   0  0  0  0  0  0  0  0  0  0  0  0
   44.7420   36.5300   43.0560 H   0  0  0  0  0  0  0  0  0  0  0  0
   45.9910   32.9300   46.6930 C   0  0  0  0  0  3  0  0  0  0  0  0
   45.0550   32.8210   47.8650 C   0  0  0  0  0  2  0  0  0  0  0  0
   45.7420   31.9200   48.8710 C   0  0  0  0  0  2  0  0  0  0  0  0
   46.6130   30.8910   48.1790 C   0  0  0  0  0  2  0  0  0  0  0  0
   45.9530   30.4930   46.8770 C   0  0  0  0  0  2  0  0  0  0  0  0
   46.0860   31.6380   45.9140 C   0  0  0  0  0  2  0  0  0  0  0  0
  1 27  1  0  0  0  0
  2  1  1  0  0  0  0
  2  7  1  0  0  0  0
  3  2  2  0  0  0  0
  4  5  2  0  0  0  0
  4  3  1  0  0  0  0
  5  6  1  0  0  0  0
  6 11  1  0  0  0  0
  6  1  2  0  0  0  0
  8  3  1  0  0  0  0
  9  4  1  0  0  0  0
 10  5  1  0  0  0  0
 11 17  1  0  0  0  0
 12 11  1  0  0  0  0
 13 12  2  0  0  0  0
 13 14  1  0  0  0  0
 14 15  2  0  0  0  0
 14 16  1  0  0  0  0
 16 20  1  0  0  0  0
 17 16  1  0  0  0  0
 17 18  2  0  0  0  0
 19 12  1  0  0  0  0
 21 24  1  0  0  0  0
 21 13  1  0  0  0  0
 21 23  1  0  0  0  0
 22 21  1  0  0  0  0
 25 31  1  0  0  0  0
 25 30  1  0  0  0  0
 26 25  2  0  0  0  0
 27 26  1  0  0  0  0
 27 28  2  0  0  0  0
 28 29  1  0  0  0  0
 29 30  2  0  0  0  0
 29 33  1  0  0  0  0
 32 26  1  0  0  0  0
 33 34  1  0  0  0  0
 34 35  1  0  0  0  0
 36 35  1  0  0  0  0
 37 36  1  0  0  0  0
 38 33  1  0  0  0  0
 38 37  1  0  0  0  0
M  END
>  <minimizedAffinity>
-7.71914959

>  <minimizedRMSD>
0.291140884

$$$$
