
 OpenBabel03232518443D

 22 23  0  0  0  0  0  0  0  0999 V2000
   44.9110   35.1450   44.7620 C   0  0  0  0  0  0  0  0  0  0  0  0
   45.8810   34.7590   43.8600 C   0  0  0  0  0  0  0  0  0  0  0  0
   46.7100   33.7280   44.2190 C   0  0  0  0  0  0  0  0  0  0  0  0
   46.5500   33.1300   45.4350 N   0  0  0  0  0  0  0  0  0  0  0  0
   45.5960   33.5260   46.2970 C   0  0  0  0  0  0  0  0  0  0  0  0
   44.7760   34.5370   45.9540 N   0  0  0  0  0  0  0  0  0  0  0  0
   44.2640   35.9600   44.4660 H   0  0  0  0  0  0  0  0  0  0  0  0
   47.7990   33.2000   43.3940 C   0  0  0  0  0  0  0  0  0  0  0  0
   47.2270   32.5820   42.1460 C   0  0  0  0  0  0  0  0  0  0  0  0
   48.2690   31.7780   41.3980 C   0  0  0  0  0  0  0  0  0  0  0  0
   49.3680   32.7430   41.0060 C   0  0  0  0  0  0  0  0  0  0  0  0
   49.8730   33.5690   42.1530 C   0  0  0  0  0  0  0  0  0  0  0  0
   48.7660   34.2870   42.9010 C   0  0  0  0  0  0  0  0  0  0  0  0
   46.0200   35.4260   42.5540 C   0  0  0  0  0  0  0  0  0  0  0  0
   45.0930   36.4770   42.5200 F   0  0  0  0  0  0  0  0  0  0  0  0
   45.6320   34.6060   41.5080 F   0  0  0  0  0  0  0  0  0  0  0  0
   47.2740   35.9070   42.3240 F   0  0  0  0  0  0  0  0  0  0  0  0
   45.3920   32.9550   47.5380 O   0  0  0  0  0  0  0  0  0  0  0  0
   46.3580   32.1780   48.2030 C   0  0  0  0  0  0  0  0  0  0  0  0
   47.5950   32.7730   48.2410 F   0  0  0  0  0  0  0  0  0  0  0  0
   46.3800   30.9090   47.6850 F   0  0  0  0  0  0  0  0  0  0  0  0
   45.9550   32.1060   49.5510 F   0  0  0  0  0  0  0  0  0  0  0  0
  1  6  1  0  0  0  0
  2  3  1  0  0  0  0
  2  1  2  0  0  0  0
  3  4  2  0  0  0  0
  4  5  1  0  0  0  0
  5 18  1  0  0  0  0
  6  5  2  0  0  0  0
  7  1  1  0  0  0  0
  8  3  1  0  0  0  0
  9  8  1  0  0  0  0
 10  9  1  0  0  0  0
 11 10  1  0  0  0  0
 11 12  1  0  0  0  0
 12 13  1  0  0  0  0
 13  8  1  0  0  0  0
 14  2  1  0  0  0  0
 15 14  1  0  0  0  0
 16 14  1  0  0  0  0
 17 14  1  0  0  0  0
 18 19  1  0  0  0  0
 19 20  1  0  0  0  0
 19 22  1  0  0  0  0
 21 19  1  0  0  0  0
M  END
>  <minimizedAffinity>
-5.75019598

>  <minimizedRMSD>
0.667398691

$$$$
