
 OpenBabel03232520513D

 29 31  0  0  1  0  0  0  0  0999 V2000
   48.5170   30.8290   48.0840 C   0  0  2  0  0  0  0  0  0  0  0  0
   47.6930   32.0170   48.5170 C   0  0  0  0  0  0  0  0  0  0  0  0
   46.4860   32.2980   47.7610 C   0  0  0  0  0  0  0  0  0  0  0  0
   46.1040   31.4520   46.6290 C   0  0  2  0  0  0  0  0  0  0  0  0
   47.0610   30.3820   46.2360 C   0  0  0  0  0  0  0  0  0  0  0  0
   47.6330   29.7720   47.4930 C   0  0  0  0  0  0  0  0  0  0  0  0
   49.2130   31.1730   47.2610 H   0  0  0  0  0  0  0  0  0  0  0  0
   47.8350   32.7160   49.3030 H   0  0  0  0  0  0  0  0  0  0  0  0
   45.8720   33.1250   48.0280 H   0  0  0  0  0  0  0  0  0  0  0  0
   45.0980   31.0070   46.7750 H   0  0  0  0  0  0  0  0  0  0  0  0
   46.4830   29.6170   45.6540 H   0  0  0  0  0  0  0  0  0  0  0  0
   47.9090   30.7760   45.6390 H   0  0  0  0  0  0  0  0  0  0  0  0
   46.7910   29.5600   48.1800 H   0  0  0  0  0  0  0  0  0  0  0  0
   48.1950   28.8940   47.1880 H   0  0  0  0  0  0  0  0  0  0  0  0
   49.8280   31.3150   50.1210 C   0  0  0  0  0  0  0  0  0  0  0  0
   49.3490   30.3790   49.2040 C   0  0  0  0  0  0  0  0  0  0  0  0
   49.7150   29.0350   49.4100 C   0  0  0  0  0  0  0  0  0  0  0  0
   50.5020   28.7100   50.4680 N   0  0  0  0  0  0  0  0  0  0  0  0
   50.9460   29.6480   51.3320 C   0  0  0  0  0  0  0  0  0  0  0  0
   50.6080   30.9470   51.1580 N   0  0  0  0  0  0  0  0  0  0  0  0
   49.6160   32.3750   50.0690 H   0  0  0  0  0  0  0  0  0  0  0  0
   49.3640   28.2870   48.7250 H   0  0  0  0  0  0  0  0  0  0  0  0
   51.5680   29.2850   52.1410 H   0  0  0  0  0  0  0  0  0  0  0  0
   45.9630   32.4060   45.4340 C   0  0  0  0  0  0  0  0  0  0  0  0
   47.1310   32.3340   44.5040 C   0  0  0  0  0  0  0  0  0  0  0  0
   47.3980   33.6720   43.8400 C   0  0  0  0  0  0  0  0  0  0  0  0
   46.1170   34.3750   43.4570 C   0  0  0  0  0  0  0  0  0  0  0  0
   45.1460   34.5180   44.5820 C   0  0  0  0  0  0  0  0  0  0  0  0
   45.6650   33.8100   45.8400 C   0  0  0  0  0  0  0  0  0  0  0  0
  1  7  1  6  0  0  0
  1  2  1  0  0  0  0
  1 16  1  0  0  0  0
  2  8  1  0  0  0  0
  3  9  1  0  0  0  0
  3  2  2  0  0  0  0
  4 10  1  1  0  0  0
  4  3  1  0  0  0  0
  5  4  1  0  0  0  0
  5  6  1  0  0  0  0
  6  1  1  0  0  0  0
  6 13  1  0  0  0  0
 11  5  1  0  0  0  0
 12  5  1  0  0  0  0
 14  6  1  0  0  0  0
 15 20  1  0  0  0  0
 16 17  1  0  0  0  0
 16 15  2  0  0  0  0
 17 18  2  0  0  0  0
 18 19  1  0  0  0  0
 19 23  1  0  0  0  0
 20 19  2  0  0  0  0
 21 15  1  0  0  0  0
 22 17  1  0  0  0  0
 24 29  1  0  0  0  0
 24  4  1  0  0  0  0
 25 24  1  0  0  0  0
 26 25  1  0  0  0  0
 27 26  1  0  0  0  0
 27 28  1  0  0  0  0
 28 29  1  0  0  0  0
M  END
>  <minimizedAffinity>
-4.95671749

>  <minimizedRMSD>
5.65562868

$$$$
