
 OpenBabel03232520543D

 32 34  0  0  1  0  0  0  0  0999 V2000
   46.4920   33.2810   44.8810 C   0  0  2  0  0  0  0  0  0  0  0  0
   45.3110   34.1240   45.3160 C   0  0  0  0  0  0  0  0  0  0  0  0
   44.9140   35.2010   44.4450 C   0  0  0  0  0  0  0  0  0  0  0  0
   45.6200   35.4590   43.2050 C   0  0  1  0  0  0  0  0  0  0  0  0
   46.7970   34.6200   42.9110 C   0  0  0  0  0  0  0  0  0  0  0  0
   46.5790   33.2190   43.3980 C   0  0  0  0  0  0  0  0  0  0  0  0
   47.4020   33.8300   45.2630 H   0  0  0  0  0  0  0  0  0  0  0  0
   44.6380   34.1360   46.1610 H   0  0  0  0  0  0  0  0  0  0  0  0
   44.0980   35.8450   44.6660 H   0  0  0  0  0  0  0  0  0  0  0  0
   45.9320   36.5330   43.2030 H   0  0  0  0  0  0  0  0  0  0  0  0
   47.0000   34.6680   41.8210 H   0  0  0  0  0  0  0  0  0  0  0  0
   47.6720   35.0570   43.4640 H   0  0  0  0  0  0  0  0  0  0  0  0
   45.6110   32.8660   42.9840 H   0  0  0  0  0  0  0  0  0  0  0  0
   47.4250   32.5910   43.1020 H   0  0  0  0  0  0  0  0  0  0  0  0
   45.8140   31.8970   46.7880 C   0  0  0  0  0  0  0  0  0  0  0  0
   46.4630   32.0040   45.5730 C   0  0  0  0  0  0  0  0  0  0  0  0
   47.0690   30.8450   45.0920 C   0  0  0  0  0  0  0  0  0  0  0  0
   47.0220   29.6850   45.7760 N   0  0  0  0  0  0  0  0  0  0  0  0
   46.3730   29.6160   46.9740 C   0  0  0  0  0  0  0  0  0  0  0  0
   45.7730   30.7260   47.4720 N   0  0  0  0  0  0  0  0  0  0  0  0
   45.2970   32.6910   47.3060 H   0  0  0  0  0  0  0  0  0  0  0  0
   47.5860   30.8550   44.1600 H   0  0  0  0  0  0  0  0  0  0  0  0
   46.3320   28.3360   47.7110 C   0  0  0  0  0  3  0  0  0  0  0  0
   47.3450   27.3430   47.1970 C   0  0  0  0  0  2  0  0  0  0  0  0
   46.7510   25.9580   47.0540 C   0  0  0  0  0  2  0  0  0  0  0  0
   46.0310   25.6330   48.3650 C   0  0  0  0  0  2  0  0  0  0  0  0
   44.8100   26.5000   48.4320 C   0  0  0  0  0  2  0  0  0  0  0  0
   44.9260   27.7840   47.6600 C   0  0  0  0  0  2  0  0  0  0  0  0
   44.6090   35.3410   42.0570 C   0  0  0  0  0  0  0  0  0  0  0  0
   43.5290   34.5440   42.3810 F   0  0  0  0  0  0  0  0  0  0  0  0
   44.1010   36.6140   41.8120 F   0  0  0  0  0  0  0  0  0  0  0  0
   45.2380   34.9200   40.9020 F   0  0  0  0  0  0  0  0  0  0  0  0
  1  7  1  1  0  0  0
  1  2  1  0  0  0  0
  1 16  1  0  0  0  0
  2  8  1  0  0  0  0
  3  9  1  0  0  0  0
  3  2  2  0  0  0  0
  4 10  1  1  0  0  0
  4  3  1  0  0  0  0
  5  4  1  0  0  0  0
  5  6  1  0  0  0  0
  5 12  1  0  0  0  0
  6  1  1  0  0  0  0
 11  5  1  0  0  0  0
 13  6  1  0  0  0  0
 14  6  1  0  0  0  0
 15 21  1  0  0  0  0
 15 20  1  0  0  0  0
 16 15  2  0  0  0  0
 17 16  1  0  0  0  0
 17 18  2  0  0  0  0
 18 19  1  0  0  0  0
 19 20  2  0  0  0  0
 19 23  1  0  0  0  0
 22 17  1  0  0  0  0
 24 23  1  0  0  0  0
 25 24  1  0  0  0  0
 25 26  1  0  0  0  0
 26 27  1  0  0  0  0
 28 23  1  0  0  0  0
 28 27  1  0  0  0  0
 29 30  1  0  0  0  0
 29  4  1  0  0  0  0
 31 29  1  0  0  0  0
 32 29  1  0  0  0  0
M  END
>  <minimizedAffinity>
-5.04381895

>  <minimizedRMSD>
1.62648928

$$$$
