
 OpenBabel03232519503D

 40 43  0  0  1  0  0  0  0  0999 V2000
   46.9450   33.9300   42.6280 N   0  0  0  0  0  0  0  0  0  0  0  0
   48.2330   34.4500   42.1700 C   0  0  0  0  0  0  0  0  0  0  0  0
   47.8560   34.8950   40.7780 C   0  0  0  0  0  0  0  0  0  0  0  0
   47.1610   33.6520   40.2780 C   0  0  0  0  0  0  0  0  0  0  0  0
   46.3720   33.2220   41.4750 C   0  0  2  0  0  0  0  0  0  0  0  0
   48.9780   33.6340   42.1090 H   0  0  0  0  0  0  0  0  0  0  0  0
   48.5440   35.2710   42.8260 H   0  0  0  0  0  0  0  0  0  0  0  0
   48.7960   35.1030   40.2220 H   0  0  0  0  0  0  0  0  0  0  0  0
   47.1920   35.7670   40.8210 H   0  0  0  0  0  0  0  0  0  0  0  0
   46.4640   33.9730   39.4770 H   0  0  0  0  0  0  0  0  0  0  0  0
   47.9170   32.9520   39.9260 H   0  0  0  0  0  0  0  0  0  0  0  0
   46.6960   32.1580   41.6470 H   0  0  0  0  0  0  0  0  0  0  0  0
   44.9670   33.3060   41.3730 N   0  0  0  0  0  0  0  0  0  0  0  0
   44.2510   34.2650   40.7870 C   0  0  0  0  0  0  0  0  0  0  0  0
   42.8630   34.2520   40.7420 C   0  0  0  0  0  0  0  0  0  0  0  0
   42.1730   33.2150   41.3200 C   0  0  0  0  0  0  0  0  0  0  0  0
   40.8920   33.1390   41.3150 O   0  0  0  0  0  0  0  0  0  0  0  0
   42.8990   32.2460   41.9110 N   0  0  0  0  0  0  0  0  0  0  0  0
   44.2250   32.3040   41.9280 C   0  0  0  0  0  0  0  0  0  0  0  0
   44.8150   31.3400   42.5110 O   0  0  0  0  0  0  0  0  0  0  0  0
   44.8130   35.0830   40.3330 H   0  0  0  0  0  0  0  0  0  0  0  0
   42.3780   31.4560   42.3510 H   0  0  0  0  0  0  0  0  0  0  0  0
   42.0930   35.3270   40.0880 C   0  0  0  0  0  0  0  0  0  0  0  0
   42.6300   36.2880   40.1760 H   0  0  0  0  0  0  0  0  0  0  0  0
   41.0820   35.4480   40.5680 H   0  0  0  0  0  0  0  0  0  0  0  0
   41.9960   35.1070   39.0130 H   0  0  0  0  0  0  0  0  0  0  0  0
   44.7940   35.0650   45.4300 C   0  0  0  0  0  0  0  0  0  0  0  0
   45.3660   35.0120   44.1580 C   0  0  0  0  0  0  0  0  0  0  0  0
   46.3300   34.0440   43.8770 C   0  0  0  0  0  0  0  0  0  0  0  0
   46.6620   33.1910   44.8830 N   0  0  0  0  0  0  0  0  0  0  0  0
   46.1060   33.2440   46.1160 C   0  0  0  0  0  0  0  0  0  0  0  0
   45.1750   34.1830   46.3810 N   0  0  0  0  0  0  0  0  0  0  0  0
   44.0630   35.8470   45.5440 H   0  0  0  0  0  0  0  0  0  0  0  0
   45.0820   35.7050   43.3730 H   0  0  0  0  0  0  0  0  0  0  0  0
   46.5030   32.2880   47.1840 C   0  0  0  0  0  0  0  0  0  0  0  0
   45.6550   32.5760   48.3890 C   0  0  0  0  0  0  0  0  0  0  0  0
   44.5970   31.4840   48.5220 C   0  0  0  0  0  0  0  0  0  0  0  0
   45.3690   30.2230   48.8600 C   0  0  0  0  0  0  0  0  0  0  0  0
   46.1790   29.8370   47.6770 C   0  0  0  0  0  0  0  0  0  0  0  0
   46.3560   30.9020   46.6470 C   0  0  0  0  0  0  0  0  0  0  0  0
  1 29  1  0  0  0  0
  2  1  1  0  0  0  0
  2  7  1  0  0  0  0
  3  9  1  0  0  0  0
  3  2  1  0  0  0  0
  4  3  1  0  0  0  0
  4  5  1  0  0  0  0
  5 12  1  1  0  0  0
  5  1  1  0  0  0  0
  6  2  1  0  0  0  0
  8  3  1  0  0  0  0
 10  4  1  0  0  0  0
 11  4  1  0  0  0  0
 13  5  1  0  0  0  0
 13 19  1  0  0  0  0
 14 13  1  0  0  0  0
 15 14  2  0  0  0  0
 15 16  1  0  0  0  0
 16 18  1  0  0  0  0
 17 16  2  0  0  0  0
 18 19  1  0  0  0  0
 18 22  1  0  0  0  0
 19 20  2  0  0  0  0
 21 14  1  0  0  0  0
 23 24  1  0  0  0  0
 23 25  1  0  0  0  0
 23 15  1  0  0  0  0
 26 23  1  0  0  0  0
 27 33  1  0  0  0  0
 27 32  1  0  0  0  0
 28 27  2  0  0  0  0
 29 28  1  0  0  0  0
 29 30  2  0  0  0  0
 30 31  1  0  0  0  0
 31 32  2  0  0  0  0
 31 35  1  0  0  0  0
 34 28  1  0  0  0  0
 35 36  1  0  0  0  0
 36 37  1  0  0  0  0
 37 38  1  0  0  0  0
 39 38  1  0  0  0  0
 40 35  1  0  0  0  0
 40 39  1  0  0  0  0
M  END
>  <minimizedAffinity>
-6.55414438

>  <minimizedRMSD>
1.32464492

$$$$
