
 OpenBabel03232520213D

 38 41  0  0  0  0  0  0  0  0999 V2000
   47.5970   34.2220   42.1280 C   0  0  0  0  0  0  0  0  0  0  0  0
   48.5260   35.3510   41.7350 C   0  0  0  0  0  0  0  0  0  0  0  0
   49.8410   35.3500   42.3940 C   0  0  0  0  0  0  0  0  0  0  0  0
   50.5020   34.0180   42.4800 C   0  0  0  0  0  0  0  0  0  0  0  0
   49.6160   32.8780   42.0650 C   0  0  0  0  0  0  0  0  0  0  0  0
   48.2790   33.0560   42.7570 C   0  0  0  0  0  0  0  0  0  0  0  0
   48.6630   35.3970   40.6180 H   0  0  0  0  0  0  0  0  0  0  0  0
   47.9940   36.3100   41.9820 H   0  0  0  0  0  0  0  0  0  0  0  0
   50.5140   36.0220   41.8390 H   0  0  0  0  0  0  0  0  0  0  0  0
   49.7470   35.7820   43.4130 H   0  0  0  0  0  0  0  0  0  0  0  0
   51.4160   33.9510   41.8300 H   0  0  0  0  0  0  0  0  0  0  0  0
   50.8560   33.8130   43.5120 H   0  0  0  0  0  0  0  0  0  0  0  0
   50.0780   31.9230   42.3400 H   0  0  0  0  0  0  0  0  0  0  0  0
   49.4270   32.8970   40.9660 H   0  0  0  0  0  0  0  0  0  0  0  0
   48.4760   33.2100   43.8460 H   0  0  0  0  0  0  0  0  0  0  0  0
   47.6590   32.1510   42.5810 H   0  0  0  0  0  0  0  0  0  0  0  0
   45.2430   34.4700   44.9660 C   0  0  0  0  0  0  0  0  0  0  0  0
   44.5400   35.6560   44.6790 C   0  0  0  0  0  0  0  0  0  0  0  0
   44.8810   36.3540   43.5280 C   0  0  0  0  0  0  0  0  0  0  0  0
   45.8690   35.8580   42.7400 N   0  0  0  0  0  0  0  0  0  0  0  0
   46.5310   34.7100   43.0410 C   0  0  0  0  0  0  0  0  0  0  0  0
   46.2090   34.0130   44.1690 N   0  0  0  0  0  0  0  0  0  0  0  0
   44.9070   34.0010   45.8810 H   0  0  0  0  0  0  0  0  0  0  0  0
   43.7560   36.0850   45.2680 H   0  0  0  0  0  0  0  0  0  0  0  0
   44.4570   37.2600   43.1600 H   0  0  0  0  0  0  0  0  0  0  0  0
   46.9590   33.7090   40.8530 C   0  0  0  0  0  0  0  0  0  0  0  0
   45.7770   33.0930   40.4860 C   0  0  0  0  0  0  0  0  0  0  0  0
   45.6240   32.8010   39.1720 C   0  0  0  0  0  0  0  0  0  0  0  0
   46.5540   33.0820   38.2500 C   0  0  0  0  0  0  0  0  0  0  0  0
   47.8760   33.8740   39.2830 S   0  0  0  0  0  0  0  0  0  0  0  0
   45.0790   32.9010   41.2850 H   0  0  0  0  0  0  0  0  0  0  0  0
   44.7270   32.3170   38.8030 H   0  0  0  0  0  0  0  0  0  0  0  0
   46.7950   32.9610   36.8490 C   0  0  0  0  0  0  0  0  0  0  0  0
   45.7730   32.0050   36.2440 C   0  0  0  0  0  0  0  0  0  0  0  0
   46.3880   31.2600   35.0780 C   0  0  0  0  0  0  0  0  0  0  0  0
   47.2320   32.2650   34.3090 C   0  0  0  0  0  0  0  0  0  0  0  0
   48.4640   32.6060   35.1160 C   0  0  0  0  0  0  0  0  0  0  0  0
   48.1790   32.4400   36.6140 C   0  0  0  0  0  0  0  0  0  0  0  0
  1  6  1  0  0  0  0
  1 21  1  0  0  0  0
  2  8  1  0  0  0  0
  2  1  1  0  0  0  0
  2  3  1  0  0  0  0
  3  4  1  0  0  0  0
  3 10  1  0  0  0  0
  4 12  1  0  0  0  0
  5 13  1  0  0  0  0
  5  4  1  0  0  0  0
  5  6  1  0  0  0  0
  6 15  1  0  0  0  0
  7  2  1  0  0  0  0
  9  3  1  0  0  0  0
 11  4  1  0  0  0  0
 14  5  1  0  0  0  0
 16  6  1  0  0  0  0
 17 23  1  0  0  0  0
 18 17  1  0  0  0  0
 18 24  1  0  0  0  0
 19 18  2  0  0  0  0
 20 21  2  0  0  0  0
 20 19  1  0  0  0  0
 21 22  1  0  0  0  0
 22 17  2  0  0  0  0
 25 19  1  0  0  0  0
 26  1  1  0  0  0  0
 27 26  2  0  0  0  0
 27 31  1  0  0  0  0
 28 27  1  0  0  0  0
 29 28  2  0  0  0  0
 29 30  1  0  0  0  0
 30 26  1  0  0  0  0
 32 28  1  0  0  0  0
 33 29  1  0  0  0  0
 34 33  1  0  0  0  0
 35 34  1  0  0  0  0
 36 35  1  0  0  0  0
 36 37  1  0  0  0  0
 37 38  1  0  0  0  0
 38 33  1  0  0  0  0
M  END
>  <minimizedAffinity>
-6.12129736

>  <minimizedRMSD>
0.412907422

$$$$
