
 OpenBabel03232519303D

 37 39  0  0  1  0  0  0  0  0999 V2000
   46.9160   34.6690   41.1300 C   0  0  1  0  0  0  0  0  0  0  0  0
   48.2410   34.3030   40.4290 C   0  0  0  0  0  0  0  0  0  0  0  0
   47.9260   34.2660   38.9500 C   0  0  0  0  0  0  0  0  0  0  0  0
   47.2260   32.9380   38.7710 C   0  0  0  0  0  0  0  0  0  0  0  0
   46.4190   32.5290   39.9280 C   0  0  0  0  0  0  0  0  0  0  0  0
   45.9060   33.6270   40.8710 C   0  0  2  0  0  0  0  0  0  0  0  0
   46.6590   35.6770   40.7860 H   0  0  0  0  0  0  0  0  0  0  0  0
   48.5800   33.3070   40.7510 H   0  0  0  0  0  0  0  0  0  0  0  0
   48.9920   35.0840   40.6720 H   0  0  0  0  0  0  0  0  0  0  0  0
   47.3650   35.1310   38.5930 H   0  0  0  0  0  0  0  0  0  0  0  0
   48.9140   34.2830   38.4330 H   0  0  0  0  0  0  0  0  0  0  0  0
   48.1070   32.2200   38.6550 H   0  0  0  0  0  0  0  0  0  0  0  0
   46.7850   32.9130   37.7720 H   0  0  0  0  0  0  0  0  0  0  0  0
   45.5720   31.8770   39.6610 H   0  0  0  0  0  0  0  0  0  0  0  0
   47.0700   31.8470   40.5640 H   0  0  0  0  0  0  0  0  0  0  0  0
   45.7060   33.0380   41.8050 H   0  0  0  0  0  0  0  0  0  0  0  0
   44.5670   34.0610   40.3730 C   0  0  0  0  0  0  0  0  0  0  0  0
   44.0790   35.3100   41.0940 C   0  0  0  0  0  0  0  0  0  0  0  0
   42.8070   35.1540   41.8370 C   0  0  0  0  0  0  0  0  0  0  0  0
   41.7110   34.8080   40.8530 C   0  0  0  0  0  0  0  0  0  0  0  0
   42.2230   33.7460   39.9110 C   0  0  0  0  0  0  0  0  0  0  0  0
   43.4370   33.0490   40.5720 C   0  0  0  0  0  0  0  0  0  0  0  0
   47.2590   34.7960   42.6300 C   0  0  0  0  0  0  0  0  0  0  0  0
   46.9870   35.7460   43.0560 H   0  0  0  0  0  0  0  0  0  0  0  0
   48.4050   34.8390   42.5970 H   0  0  0  0  0  0  0  0  0  0  0  0
   46.8630   33.5460   43.3220 C   0  0  0  0  0  0  0  0  0  0  0  0
   46.2170   32.8370   42.8280 H   0  0  0  0  0  0  0  0  0  0  0  0
   47.7980   33.0090   43.6820 H   0  0  0  0  0  0  0  0  0  0  0  0
   46.2570   32.9860   45.6050 C   0  0  0  0  0  0  0  0  0  0  0  0
   46.0960   33.8750   44.5170 C   0  0  0  0  0  0  0  0  0  0  0  0
   45.2530   34.9520   44.6100 C   0  0  0  0  0  0  0  0  0  0  0  0
   44.6020   35.0980   45.7910 N   0  0  0  0  0  0  0  0  0  0  0  0
   44.7370   34.2640   46.8450 C   0  0  0  0  0  0  0  0  0  0  0  0
   45.5710   33.2000   46.7500 N   0  0  0  0  0  0  0  0  0  0  0  0
   46.9190   32.1360   45.5350 H   0  0  0  0  0  0  0  0  0  0  0  0
   45.0510   35.6780   43.8470 H   0  0  0  0  0  0  0  0  0  0  0  0
   44.1740   34.4600   47.7530 H   0  0  0  0  0  0  0  0  0  0  0  0
  1  7  1  6  0  0  0
  1 23  1  0  0  0  0
  2  9  1  0  0  0  0
  2  8  1  0  0  0  0
  2  1  1  0  0  0  0
  3  2  1  0  0  0  0
  4  3  1  0  0  0  0
  4  5  1  0  0  0  0
  5 15  1  0  0  0  0
  5  6  1  0  0  0  0
  6  1  1  0  0  0  0
  6 16  1  1  0  0  0
 10  3  1  0  0  0  0
 11  3  1  0  0  0  0
 12  4  1  0  0  0  0
 13  4  1  0  0  0  0
 14  5  1  0  0  0  0
 17 22  1  0  0  0  0
 17  6  1  0  0  0  0
 17 18  1  0  0  0  0
 18 19  1  0  0  0  0
 20 19  1  0  0  0  0
 21 22  1  0  0  0  0
 21 20  1  0  0  0  0
 23 24  1  0  0  0  0
 23 26  1  0  0  0  0
 25 23  1  0  0  0  0
 26 28  1  0  0  0  0
 26 30  1  0  0  0  0
 27 26  1  0  0  0  0
 29 34  1  0  0  0  0
 30 31  1  0  0  0  0
 30 29  2  0  0  0  0
 31 32  2  0  0  0  0
 32 33  1  0  0  0  0
 33 37  1  0  0  0  0
 34 33  2  0  0  0  0
 35 29  1  0  0  0  0
 36 31  1  0  0  0  0
M  END
>  <minimizedAffinity>
-4.81027365

>  <minimizedRMSD>
3.0872643

$$$$
