
 OpenBabel03232519213D

 36 39  0  0  1  0  0  0  0  0999 V2000
   47.0130   30.6330   47.7780 N   0  0  0  0  0  0  0  0  0  0  0  0
   46.9580   31.0420   49.1810 C   0  0  0  0  0  0  0  0  0  0  0  0
   45.7830   32.0140   49.1690 C   0  0  0  0  0  0  0  0  0  0  0  0
   44.7660   31.3400   48.2930 C   0  0  0  0  0  0  0  0  0  0  0  0
   45.7020   30.5710   47.3150 C   0  0  2  0  0  0  0  0  0  0  0  0
   47.5460   29.7500   47.6630 H   0  0  0  0  0  0  0  0  0  0  0  0
   46.7890   30.2010   49.8590 H   0  0  0  0  0  0  0  0  0  0  0  0
   47.8980   31.5890   49.3720 H   0  0  0  0  0  0  0  0  0  0  0  0
   46.1330   32.9750   48.7660 H   0  0  0  0  0  0  0  0  0  0  0  0
   45.4320   32.0720   50.2210 H   0  0  0  0  0  0  0  0  0  0  0  0
   44.1940   30.6730   48.9340 H   0  0  0  0  0  0  0  0  0  0  0  0
   44.1470   32.0440   47.7000 H   0  0  0  0  0  0  0  0  0  0  0  0
   45.1210   29.1710   47.3010 C   0  0  0  0  0  0  0  0  0  0  0  0
   45.1440   28.0250   48.0490 C   0  0  0  0  0  0  0  0  0  0  0  0
   44.3570   27.1000   47.4190 C   0  0  0  0  0  0  0  0  0  0  0  0
   43.8660   27.6640   46.3150 N   0  0  0  0  0  0  0  0  0  0  0  0
   44.3260   28.9190   46.2380 N   0  0  0  0  0  0  0  0  0  0  0  0
   45.7650   28.0980   48.9560 H   0  0  0  0  0  0  0  0  0  0  0  0
   44.2580   26.1250   47.8770 H   0  0  0  0  0  0  0  0  0  0  0  0
   43.2330   27.1220   45.6830 H   0  0  0  0  0  0  0  0  0  0  0  0
   45.6030   30.9700   46.0060 O   0  0  0  0  0  0  0  0  0  0  0  0
   46.6090   31.7290   45.3090 C   0  0  0  0  0  0  0  0  0  0  0  0
   47.7340   31.2500   45.1590 O   0  0  0  0  0  0  0  0  0  0  0  0
   44.9380   34.9700   45.0920 C   0  0  0  0  0  0  0  0  0  0  0  0
   45.3840   35.4800   43.8610 C   0  0  0  0  0  0  0  0  0  0  0  0
   46.2630   34.7050   43.1100 C   0  0  0  0  0  0  0  0  0  0  0  0
   46.6400   33.4880   43.6180 N   0  0  0  0  0  0  0  0  0  0  0  0
   46.1620   33.0540   44.8310 C   0  0  0  0  0  0  0  0  0  0  0  0
   45.3260   33.7830   45.5530 N   0  0  0  0  0  0  0  0  0  0  0  0
   44.2650   35.6320   45.6000 H   0  0  0  0  0  0  0  0  0  0  0  0
   45.0980   36.4350   43.4450 H   0  0  0  0  0  0  0  0  0  0  0  0
   46.8350   35.0840   41.7920 C   0  0  0  0  0  0  0  0  0  0  0  0
   48.2710   35.5530   41.8780 C   0  0  0  0  0  0  0  0  0  0  0  0
   48.8220   35.2880   40.4710 C   0  0  0  0  0  0  0  0  0  0  0  0
   47.8280   34.3850   39.7860 C   0  0  0  0  0  0  0  0  0  0  0  0
   47.0250   33.8350   40.9280 C   0  0  0  0  0  0  0  0  0  0  0  0
  1  2  1  0  0  0  0
  2  8  1  0  0  0  0
  2  7  1  0  0  0  0
  3  2  1  0  0  0  0
  3 10  1  0  0  0  0
  4 11  1  0  0  0  0
  4  3  1  0  0  0  0
  5 21  1  6  0  0  0
  5  1  1  0  0  0  0
  5  4  1  0  0  0  0
  6  1  1  0  0  0  0
  9  3  1  0  0  0  0
 12  4  1  0  0  0  0
 13  5  1  0  0  0  0
 13 14  1  0  0  0  0
 14 18  1  0  0  0  0
 15 19  1  0  0  0  0
 15 14  2  0  0  0  0
 16 15  1  0  0  0  0
 17 16  1  0  0  0  0
 17 13  2  0  0  0  0
 20 16  1  0  0  0  0
 22 21  1  0  0  0  0
 23 22  2  0  0  0  0
 24 29  1  0  0  0  0
 24 30  1  0  0  0  0
 25 24  2  0  0  0  0
 26 27  2  0  0  0  0
 26 25  1  0  0  0  0
 27 28  1  0  0  0  0
 28 22  1  0  0  0  0
 28 29  2  0  0  0  0
 31 25  1  0  0  0  0
 32 33  1  0  0  0  0
 32 26  1  0  0  0  0
 34 33  1  0  0  0  0
 35 34  1  0  0  0  0
 35 36  1  0  0  0  0
 36 32  1  0  0  0  0
M  END
>  <minimizedAffinity>
-5.81490374

>  <minimizedRMSD>
1.01443112

$$$$
