
 OpenBabel03232520513D

 28 30  0  0  1  0  0  0  0  0999 V2000
   46.0490   33.9590   45.1450 C   0  0  2  0  0  0  0  0  0  0  0  0
   44.9320   34.9630   45.3200 C   0  0  0  0  0  0  0  0  0  0  0  0
   44.6730   35.8770   44.2120 C   0  0  0  0  0  0  0  0  0  0  0  0
   45.4700   35.7930   42.9960 C   0  0  1  0  0  0  0  0  0  0  0  0
   46.6450   34.9120   43.0230 C   0  0  0  0  0  0  0  0  0  0  0  0
   46.2720   33.6210   43.7070 C   0  0  0  0  0  0  0  0  0  0  0  0
   46.9440   34.5240   45.5410 H   0  0  0  0  0  0  0  0  0  0  0  0
   44.2770   35.1250   46.1410 H   0  0  0  0  0  0  0  0  0  0  0  0
   43.8950   36.5900   44.3110 H   0  0  0  0  0  0  0  0  0  0  0  0
   45.8200   36.8350   42.7660 H   0  0  0  0  0  0  0  0  0  0  0  0
   46.9810   34.6860   41.9930 H   0  0  0  0  0  0  0  0  0  0  0  0
   47.4520   35.4260   43.5890 H   0  0  0  0  0  0  0  0  0  0  0  0
   45.3630   33.1880   43.2750 H   0  0  0  0  0  0  0  0  0  0  0  0
   47.1480   32.9480   43.6550 H   0  0  0  0  0  0  0  0  0  0  0  0
   45.3160   33.0160   47.3010 C   0  0  0  0  0  0  0  0  0  0  0  0
   45.8020   32.7970   46.0110 C   0  0  0  0  0  0  0  0  0  0  0  0
   46.0510   31.4570   45.6060 C   0  0  0  0  0  0  0  0  0  0  0  0
   45.8010   30.4690   46.5010 N   0  0  0  0  0  0  0  0  0  0  0  0
   45.3280   30.7110   47.7490 C   0  0  0  0  0  0  0  0  0  0  0  0
   45.0870   31.9820   48.1470 N   0  0  0  0  0  0  0  0  0  0  0  0
   45.0900   33.9860   47.7210 H   0  0  0  0  0  0  0  0  0  0  0  0
   46.4200   31.2840   44.6260 H   0  0  0  0  0  0  0  0  0  0  0  0
   45.1840   29.8120   48.3340 H   0  0  0  0  0  0  0  0  0  0  0  0
   44.4980   35.4570   41.8780 C   0  0  0  0  0  3  0  0  0  0  0  0
   43.2340   34.8120   42.3400 C   0  0  0  0  0  2  0  0  0  0  0  0
   42.7360   34.1910   41.0350 C   0  0  0  0  0  2  0  0  0  0  0  0
   43.9900   33.7320   40.3040 C   0  0  0  0  0  2  0  0  0  0  0  0
   45.1490   34.4110   41.0100 C   0  0  0  0  0  2  0  0  0  0  0  0
  1  2  1  0  0  0  0
  1  7  1  1  0  0  0
  1 16  1  0  0  0  0
  2  8  1  0  0  0  0
  3  9  1  0  0  0  0
  3  2  2  0  0  0  0
  4 10  1  6  0  0  0
  4  5  1  0  0  0  0
  4  3  1  0  0  0  0
  5 12  1  0  0  0  0
  5  6  1  0  0  0  0
  6  1  1  0  0  0  0
 11  5  1  0  0  0  0
 13  6  1  0  0  0  0
 14  6  1  0  0  0  0
 15 21  1  0  0  0  0
 15 20  1  0  0  0  0
 16 15  2  0  0  0  0
 17 16  1  0  0  0  0
 17 18  2  0  0  0  0
 18 19  1  0  0  0  0
 19 20  2  0  0  0  0
 19 23  1  0  0  0  0
 22 17  1  0  0  0  0
 24 25  1  0  0  0  0
 24  4  1  0  0  0  0
 26 25  1  0  0  0  0
 27 28  1  0  0  0  0
 27 26  1  0  0  0  0
 28 24  1  0  0  0  0
M  END
>  <minimizedAffinity>
-4.96388149

>  <minimizedRMSD>
0.443977624

$$$$
