
 OpenBabel03232520513D

 28 30  0  0  1  0  0  0  0  0999 V2000
   46.1330   33.6870   45.3800 C   0  0  2  0  0  0  0  0  0  0  0  0
   45.0070   34.6950   45.4380 C   0  0  0  0  0  0  0  0  0  0  0  0
   44.8100   35.5470   44.2680 C   0  0  0  0  0  0  0  0  0  0  0  0
   45.6750   35.4010   43.1060 C   0  0  1  0  0  0  0  0  0  0  0  0
   46.8470   34.5270   43.2460 C   0  0  0  0  0  0  0  0  0  0  0  0
   46.4370   33.2740   43.9770 C   0  0  0  0  0  0  0  0  0  0  0  0
   47.0040   34.2760   45.7950 H   0  0  0  0  0  0  0  0  0  0  0  0
   44.3070   34.8980   46.2110 H   0  0  0  0  0  0  0  0  0  0  0  0
   44.0280   36.2610   44.2860 H   0  0  0  0  0  0  0  0  0  0  0  0
   46.0360   36.4310   42.8410 H   0  0  0  0  0  0  0  0  0  0  0  0
   47.2410   34.2480   42.2510 H   0  0  0  0  0  0  0  0  0  0  0  0
   47.6210   35.0740   43.8290 H   0  0  0  0  0  0  0  0  0  0  0  0
   45.5550   32.8140   43.5190 H   0  0  0  0  0  0  0  0  0  0  0  0
   47.3160   32.6020   44.0110 H   0  0  0  0  0  0  0  0  0  0  0  0
   45.3060   32.8600   47.5490 C   0  0  0  0  0  0  0  0  0  0  0  0
   45.8390   32.5730   46.2920 C   0  0  0  0  0  0  0  0  0  0  0  0
   46.0870   31.2120   45.9640 C   0  0  0  0  0  0  0  0  0  0  0  0
   45.7900   30.2710   46.8960 N   0  0  0  0  0  0  0  0  0  0  0  0
   45.2720   30.5810   48.1110 C   0  0  0  0  0  0  0  0  0  0  0  0
   45.0320   31.8720   48.4360 N   0  0  0  0  0  0  0  0  0  0  0  0
   45.0760   33.8530   47.9120 H   0  0  0  0  0  0  0  0  0  0  0  0
   46.4910   30.9860   45.0090 H   0  0  0  0  0  0  0  0  0  0  0  0
   45.0950   29.7130   48.7330 H   0  0  0  0  0  0  0  0  0  0  0  0
   44.7680   35.0010   41.9550 C   0  0  0  0  0  3  0  0  0  0  0  0
   43.3690   35.5070   42.0740 C   0  0  0  0  0  2  0  0  0  0  0  0
   42.6450   34.5800   41.0970 C   0  0  0  0  0  2  0  0  0  0  0  0
   43.3330   33.2290   41.2410 C   0  0  0  0  0  2  0  0  0  0  0  0
   44.6230   33.5010   41.9920 C   0  0  0  0  0  2  0  0  0  0  0  0
  1  2  1  0  0  0  0
  1  7  1  1  0  0  0
  1 16  1  0  0  0  0
  2  8  1  0  0  0  0
  3  9  1  0  0  0  0
  3  2  2  0  0  0  0
  4 10  1  6  0  0  0
  4  5  1  0  0  0  0
  4  3  1  0  0  0  0
  5 12  1  0  0  0  0
  5  6  1  0  0  0  0
  6 14  1  0  0  0  0
  6  1  1  0  0  0  0
 11  5  1  0  0  0  0
 13  6  1  0  0  0  0
 15 21  1  0  0  0  0
 15 20  1  0  0  0  0
 16 15  2  0  0  0  0
 17 16  1  0  0  0  0
 17 18  2  0  0  0  0
 18 19  1  0  0  0  0
 19 20  2  0  0  0  0
 19 23  1  0  0  0  0
 22 17  1  0  0  0  0
 24 28  1  0  0  0  0
 24 25  1  0  0  0  0
 24  4  1  0  0  0  0
 26 27  1  0  0  0  0
 26 25  1  0  0  0  0
 27 28  1  0  0  0  0
M  END
>  <minimizedAffinity>
-5.12388897

>  <minimizedRMSD>
0.428694934

$$$$
