
 OpenBabel03232517523D

 16 17  0  0  0  0  0  0  0  0999 V2000
   44.9250   35.0580   44.5010 C   0  0  0  0  0  0  0  0  0  0  0  0
   45.6920   35.1340   43.3360 C   0  0  0  0  0  0  0  0  0  0  0  0
   46.8240   34.2860   43.2360 C   0  0  0  0  0  0  0  0  0  0  0  0
   47.0930   33.4500   44.2870 N   0  0  0  0  0  0  0  0  0  0  0  0
   46.3150   33.4210   45.3880 C   0  0  0  0  0  0  0  0  0  0  0  0
   45.2320   34.2170   45.5080 N   0  0  0  0  0  0  0  0  0  0  0  0
   43.7690   35.8580   44.7120 N   0  0  0  0  0  0  0  0  0  0  0  0
   45.4120   35.8140   42.5640 H   0  0  0  0  0  0  0  0  0  0  0  0
   46.5950   32.7270   46.1840 H   0  0  0  0  0  0  0  0  0  0  0  0
   43.0840   35.3990   44.0490 H   0  0  0  0  0  0  0  0  0  0  0  0
   43.5870   36.6900   45.3420 H   0  0  0  0  0  0  0  0  0  0  0  0
   47.6570   34.3260   42.0390 C   0  0  0  0  0  0  0  0  0  0  0  0
   48.3410   35.6670   41.8300 C   0  0  0  0  0  0  0  0  0  0  0  0
   48.9730   35.4150   40.4550 C   0  0  0  0  0  0  0  0  0  0  0  0
   48.0020   34.5030   39.7360 C   0  0  0  0  0  0  0  0  0  0  0  0
   46.9180   34.1780   40.7420 C   0  0  0  0  0  0  0  0  0  0  0  0
  1  7  1  0  0  0  0
  1  6  1  0  0  0  0
  2  1  2  0  0  0  0
  3  2  1  0  0  0  0
  3  4  2  0  0  0  0
  4  5  1  0  0  0  0
  5  6  2  0  0  0  0
  5  9  1  0  0  0  0
  7 11  1  0  0  0  0
  8  2  1  0  0  0  0
 10  7  1  0  0  0  0
 12  3  1  0  0  0  0
 13 12  1  0  0  0  0
 14 13  1  0  0  0  0
 15 14  1  0  0  0  0
 15 16  1  0  0  0  0
 16 12  1  0  0  0  0
M  END
>  <minimizedAffinity>
-4.8309412

>  <minimizedRMSD>
0.660105526

$$$$
