
 OpenBabel03232520513D

 28 30  0  0  1  0  0  0  0  0999 V2000
   46.0920   33.8930   45.1680 C   0  0  2  0  0  0  0  0  0  0  0  0
   44.9660   34.8960   45.2760 C   0  0  0  0  0  0  0  0  0  0  0  0
   44.7430   35.7790   44.1340 C   0  0  0  0  0  0  0  0  0  0  0  0
   45.5830   35.6650   42.9500 C   0  0  1  0  0  0  0  0  0  0  0  0
   46.7590   34.7900   43.0420 C   0  0  0  0  0  0  0  0  0  0  0  0
   46.3660   33.5170   43.7480 C   0  0  0  0  0  0  0  0  0  0  0  0
   46.9710   34.4720   45.5790 H   0  0  0  0  0  0  0  0  0  0  0  0
   44.2820   35.0770   46.0680 H   0  0  0  0  0  0  0  0  0  0  0  0
   43.9600   36.4900   44.1860 H   0  0  0  0  0  0  0  0  0  0  0  0
   45.9370   36.7020   42.7040 H   0  0  0  0  0  0  0  0  0  0  0  0
   47.1320   34.5380   42.0310 H   0  0  0  0  0  0  0  0  0  0  0  0
   47.5440   35.3230   43.6220 H   0  0  0  0  0  0  0  0  0  0  0  0
   45.4750   33.0680   43.2970 H   0  0  0  0  0  0  0  0  0  0  0  0
   47.2460   32.8460   43.7450 H   0  0  0  0  0  0  0  0  0  0  0  0
   45.3130   33.0080   47.3310 C   0  0  0  0  0  0  0  0  0  0  0  0
   45.8190   32.7540   46.0560 C   0  0  0  0  0  0  0  0  0  0  0  0
   46.0610   31.4030   45.6870 C   0  0  0  0  0  0  0  0  0  0  0  0
   45.7850   30.4380   46.6000 N   0  0  0  0  0  0  0  0  0  0  0  0
   45.2940   30.7140   47.8330 C   0  0  0  0  0  0  0  0  0  0  0  0
   45.0590   31.9960   48.1970 N   0  0  0  0  0  0  0  0  0  0  0  0
   45.0900   33.9900   47.7250 H   0  0  0  0  0  0  0  0  0  0  0  0
   46.4440   31.2030   44.7170 H   0  0  0  0  0  0  0  0  0  0  0  0
   45.1310   29.8300   48.4360 H   0  0  0  0  0  0  0  0  0  0  0  0
   44.6520   35.2940   41.8080 C   0  0  0  0  0  3  0  0  0  0  0  0
   43.4410   34.5310   42.2300 C   0  0  0  0  0  2  0  0  0  0  0  0
   43.0070   33.9210   40.8960 C   0  0  0  0  0  2  0  0  0  0  0  0
   44.3020   33.5960   40.1630 C   0  0  0  0  0  2  0  0  0  0  0  0
   45.3950   34.3390   40.9090 C   0  0  0  0  0  2  0  0  0  0  0  0
  1  2  1  0  0  0  0
  1  7  1  1  0  0  0
  1 16  1  0  0  0  0
  2  8  1  0  0  0  0
  3  9  1  0  0  0  0
  3  2  2  0  0  0  0
  4 10  1  6  0  0  0
  4  5  1  0  0  0  0
  4  3  1  0  0  0  0
  5 12  1  0  0  0  0
  5  6  1  0  0  0  0
  6  1  1  0  0  0  0
 11  5  1  0  0  0  0
 13  6  1  0  0  0  0
 14  6  1  0  0  0  0
 15 21  1  0  0  0  0
 15 20  1  0  0  0  0
 16 15  2  0  0  0  0
 17 16  1  0  0  0  0
 17 18  2  0  0  0  0
 18 19  1  0  0  0  0
 19 20  2  0  0  0  0
 19 23  1  0  0  0  0
 22 17  1  0  0  0  0
 24 25  1  0  0  0  0
 24  4  1  0  0  0  0
 26 25  1  0  0  0  0
 27 26  1  0  0  0  0
 27 28  1  0  0  0  0
 28 24  1  0  0  0  0
M  END
>  <minimizedAffinity>
-4.95090866

>  <minimizedRMSD>
0.354297638

$$$$
