
 OpenBabel03232520473D

 37 40  0  0  0  0  0  0  0  0999 V2000
   46.5180   34.4970   42.3600 C   0  0  0  0  0  0  0  0  0  0  0  0
   47.8220   34.8720   42.2210 C   0  0  0  0  0  0  0  0  0  0  0  0
   48.4860   34.8090   40.9920 C   0  0  0  0  0  0  0  0  0  0  0  0
   47.8010   34.3480   39.8700 C   0  0  0  0  0  0  0  0  0  0  0  0
   46.4880   33.9690   40.0040 C   0  0  0  0  0  0  0  0  0  0  0  0
   45.8680   34.0500   41.2480 C   0  0  0  0  0  0  0  0  0  0  0  0
   48.4200   35.2350   43.0270 H   0  0  0  0  0  0  0  0  0  0  0  0
   49.5210   35.1070   40.8910 H   0  0  0  0  0  0  0  0  0  0  0  0
   48.2680   34.2820   38.9080 H   0  0  0  0  0  0  0  0  0  0  0  0
   45.9260   33.6070   39.1530 H   0  0  0  0  0  0  0  0  0  0  0  0
   44.5090   33.6510   41.3480 N   0  0  0  0  0  0  0  0  0  0  0  0
   43.6730   34.6410   40.8980 C   0  0  0  0  0  0  0  0  0  0  0  0
   42.2920   34.4640   40.9050 C   0  0  0  0  0  0  0  0  0  0  0  0
   41.8020   33.2570   41.3820 C   0  0  0  0  0  0  0  0  0  0  0  0
   40.5680   33.0340   41.4160 O   0  0  0  0  0  0  0  0  0  0  0  0
   42.6600   32.3160   41.8140 N   0  0  0  0  0  0  0  0  0  0  0  0
   43.9850   32.4990   41.8020 C   0  0  0  0  0  0  0  0  0  0  0  0
   44.8530   31.6840   42.1800 O   0  0  0  0  0  0  0  0  0  0  0  0
   43.9780   35.5940   40.5180 H   0  0  0  0  0  0  0  0  0  0  0  0
   42.3260   31.3990   42.1780 H   0  0  0  0  0  0  0  0  0  0  0  0
   41.3520   35.5140   40.4260 C   0  0  0  0  0  0  0  0  0  0  0  0
   41.3220   35.5980   39.3300 H   0  0  0  0  0  0  0  0  0  0  0  0
   40.3570   35.3170   40.8880 H   0  0  0  0  0  0  0  0  0  0  0  0
   41.6890   36.4680   40.9040 H   0  0  0  0  0  0  0  0  0  0  0  0
   44.4920   35.5800   45.3430 C   0  0  0  0  0  0  0  0  0  0  0  0
   45.0070   35.5860   44.0540 C   0  0  0  0  0  0  0  0  0  0  0  0
   45.9100   34.5980   43.6770 C   0  0  0  0  0  0  0  0  0  0  0  0
   46.2480   33.6720   44.5880 N   0  0  0  0  0  0  0  0  0  0  0  0
   45.7290   33.6850   45.8490 C   0  0  0  0  0  0  0  0  0  0  0  0
   44.8560   34.6370   46.2200 N   0  0  0  0  0  0  0  0  0  0  0  0
   43.8070   36.4030   45.4910 H   0  0  0  0  0  0  0  0  0  0  0  0
   44.7890   36.2910   43.2640 H   0  0  0  0  0  0  0  0  0  0  0  0
   46.1090   32.6530   46.8560 C   0  0  0  0  0  0  0  0  0  0  0  0
   45.0930   32.6700   48.0060 C   0  0  0  0  0  0  0  0  0  0  0  0
   45.2480   31.3140   48.6380 C   0  0  0  0  0  0  0  0  0  0  0  0
   45.2980   30.4240   47.4160 C   0  0  0  0  0  0  0  0  0  0  0  0
   45.9810   31.2530   46.3510 C   0  0  0  0  0  0  0  0  0  0  0  0
  1 27  1  0  0  0  0
  2  1  1  0  0  0  0
  2  7  1  0  0  0  0
  3  2  2  0  0  0  0
  4  5  2  0  0  0  0
  4  3  1  0  0  0  0
  5  6  1  0  0  0  0
  6 11  1  0  0  0  0
  6  1  2  0  0  0  0
  8  3  1  0  0  0  0
  9  4  1  0  0  0  0
 10  5  1  0  0  0  0
 11 17  1  0  0  0  0
 12 13  2  0  0  0  0
 12 11  1  0  0  0  0
 13 14  1  0  0  0  0
 14 15  2  0  0  0  0
 14 16  1  0  0  0  0
 16 20  1  0  0  0  0
 17 16  1  0  0  0  0
 17 18  2  0  0  0  0
 19 12  1  0  0  0  0
 21 23  1  0  0  0  0
 21 24  1  0  0  0  0
 21 13  1  0  0  0  0
 22 21  1  0  0  0  0
 25 31  1  0  0  0  0
 25 30  1  0  0  0  0
 26 25  2  0  0  0  0
 27 26  1  0  0  0  0
 27 28  2  0  0  0  0
 28 29  1  0  0  0  0
 29 30  2  0  0  0  0
 29 33  1  0  0  0  0
 32 26  1  0  0  0  0
 33 34  1  0  0  0  0
 34 35  1  0  0  0  0
 36 35  1  0  0  0  0
 37 33  1  0  0  0  0
 37 36  1  0  0  0  0
M  END
>  <minimizedAffinity>
-7.43957758

>  <minimizedRMSD>
0.482505292

$$$$
