
 OpenBabel03232520583D

 33 35  0  0  1  0  0  0  0  0999 V2000
   46.2820   32.5960   44.0950 C   0  0  2  0  0  0  0  0  0  0  0  0
   46.5830   34.1770   44.0400 C   0  0  0  0  0  0  0  0  0  0  0  0
   46.0540   34.9010   42.9070 C   0  0  0  0  0  0  0  0  0  0  0  0
   45.2730   34.2150   41.8920 C   0  0  1  0  0  0  0  0  0  0  0  0
   45.1330   32.7600   42.0450 C   0  0  0  0  0  0  0  0  0  0  0  0
   44.9760   32.4750   43.5370 C   0  0  0  0  0  0  0  0  0  0  0  0
   47.1190   32.4280   43.3460 H   0  0  0  0  0  0  0  0  0  0  0  0
   47.1030   34.9080   44.6520 H   0  0  0  0  0  0  0  0  0  0  0  0
   46.2080   35.9640   42.7860 H   0  0  0  0  0  0  0  0  0  0  0  0
   45.7130   34.4750   40.9020 H   0  0  0  0  0  0  0  0  0  0  0  0
   46.0790   32.2820   41.6920 H   0  0  0  0  0  0  0  0  0  0  0  0
   44.3260   32.3660   41.4320 H   0  0  0  0  0  0  0  0  0  0  0  0
   44.3580   33.3700   43.9230 H   0  0  0  0  0  0  0  0  0  0  0  0
   44.2890   31.6810   43.5510 H   0  0  0  0  0  0  0  0  0  0  0  0
   46.2330   32.9810   46.5690 C   0  0  0  0  0  0  0  0  0  0  0  0
   46.5800   32.2300   45.4480 C   0  0  0  0  0  0  0  0  0  0  0  0
   47.1690   30.9610   45.6970 C   0  0  0  0  0  0  0  0  0  0  0  0
   47.3410   30.5790   46.9610 N   0  0  0  0  0  0  0  0  0  0  0  0
   46.9940   31.3280   48.0330 C   0  0  0  0  0  0  0  0  0  0  0  0
   46.4460   32.5190   47.8490 N   0  0  0  0  0  0  0  0  0  0  0  0
   47.2650   30.8140   49.3520 N   0  0  0  0  0  0  0  0  0  0  0  0
   45.7950   33.9460   46.4520 H   0  0  0  0  0  0  0  0  0  0  0  0
   48.1870   31.0180   49.8290 H   0  0  0  0  0  0  0  0  0  0  0  0
   46.5220   30.2470   49.7900 H   0  0  0  0  0  0  0  0  0  0  0  0
   47.7300   30.0040   44.7230 C   0  0  0  0  0  3  0  0  0  0  0  0
   48.6960   29.0110   45.4930 C   0  0  0  0  0  2  0  0  0  0  0  0
   49.3500   28.2440   44.3920 C   0  0  0  0  0  2  0  0  0  0  0  0
   49.6560   29.3510   43.4100 C   0  0  0  0  0  2  0  0  0  0  0  0
   48.8100   30.5330   43.8410 C   0  0  0  0  0  2  0  0  0  0  0  0
   43.8690   34.8700   41.8780 C   0  0  0  0  0  0  0  0  0  0  0  0
   43.5860   35.5610   43.0350 F   0  0  0  0  0  0  0  0  0  0  0  0
   43.8820   35.8090   40.8490 F   0  0  0  0  0  0  0  0  0  0  0  0
   42.9080   33.9320   41.5560 F   0  0  0  0  0  0  0  0  0  0  0  0
  1  7  1  6  0  0  0
  1 16  1  0  0  0  0
  2  1  1  0  0  0  0
  2  8  1  0  0  0  0
  3  2  2  0  0  0  0
  4 10  1  6  0  0  0
  4  5  1  0  0  0  0
  4  3  1  0  0  0  0
  5  6  1  0  0  0  0
  6 14  1  0  0  0  0
  6 13  1  0  0  0  0
  6  1  1  0  0  0  0
  9  3  1  0  0  0  0
 11  5  1  0  0  0  0
 12  5  1  0  0  0  0
 15 20  1  0  0  0  0
 16 17  1  0  0  0  0
 16 15  2  0  0  0  0
 17 18  2  0  0  0  0
 18 19  1  0  0  0  0
 19 21  1  0  0  0  0
 20 19  2  0  0  0  0
 21 24  1  0  0  0  0
 21 23  1  0  0  0  0
 22 15  1  0  0  0  0
 25 26  1  0  0  0  0
 25 17  1  0  0  0  0
 27 26  1  0  0  0  0
 28 29  1  0  0  0  0
 28 27  1  0  0  0  0
 29 25  1  0  0  0  0
 30  4  1  0  0  0  0
 30 31  1  0  0  0  0
 32 30  1  0  0  0  0
 33 30  1  0  0  0  0
M  END
>  <minimizedAffinity>
-4.88961554

>  <minimizedRMSD>
1.83689642

$$$$
