
 OpenBabel03232520543D

 31 33  0  0  1  0  0  0  0  0999 V2000
   46.4410   33.2930   44.9140 C   0  0  2  0  0  0  0  0  0  0  0  0
   45.2760   34.1500   45.3440 C   0  0  0  0  0  0  0  0  0  0  0  0
   44.8990   35.2310   44.4650 C   0  0  0  0  0  0  0  0  0  0  0  0
   45.6140   35.4730   43.2250 C   0  0  1  0  0  0  0  0  0  0  0  0
   46.7970   34.6260   42.9480 C   0  0  0  0  0  0  0  0  0  0  0  0
   46.5430   33.2280   43.4300 C   0  0  0  0  0  0  0  0  0  0  0  0
   47.3490   33.8430   45.3010 H   0  0  0  0  0  0  0  0  0  0  0  0
   44.5990   34.1800   46.1870 H   0  0  0  0  0  0  0  0  0  0  0  0
   44.0960   35.8890   44.6760 H   0  0  0  0  0  0  0  0  0  0  0  0
   45.9280   36.5410   43.2210 H   0  0  0  0  0  0  0  0  0  0  0  0
   47.0530   34.6930   41.8720 H   0  0  0  0  0  0  0  0  0  0  0  0
   47.6420   35.0300   43.5770 H   0  0  0  0  0  0  0  0  0  0  0  0
   45.6380   32.8670   42.9330 H   0  0  0  0  0  0  0  0  0  0  0  0
   47.4440   32.6290   43.1840 H   0  0  0  0  0  0  0  0  0  0  0  0
   45.8350   31.9500   46.8690 C   0  0  0  0  0  0  0  0  0  0  0  0
   46.3970   32.0170   45.6070 C   0  0  0  0  0  0  0  0  0  0  0  0
   46.9040   30.8270   45.0820 C   0  0  0  0  0  0  0  0  0  0  0  0
   46.8410   29.6740   45.7840 N   0  0  0  0  0  0  0  0  0  0  0  0
   46.2800   29.6400   47.0270 C   0  0  0  0  0  0  0  0  0  0  0  0
   45.7830   30.7770   47.5590 N   0  0  0  0  0  0  0  0  0  0  0  0
   45.4000   32.7690   47.4230 H   0  0  0  0  0  0  0  0  0  0  0  0
   47.3460   30.8220   44.1160 H   0  0  0  0  0  0  0  0  0  0  0  0
   46.2300   28.3620   47.7630 C   0  0  0  0  0  3  0  0  0  0  0  0
   44.8640   27.7020   47.6550 C   0  0  0  0  0  2  0  0  0  0  0  0
   45.1720   26.3580   48.3100 C   0  0  0  0  0  2  0  0  0  0  0  0
   46.5940   26.0390   47.8670 C   0  0  0  0  0  2  0  0  0  0  0  0
   47.1450   27.3030   47.2420 C   0  0  0  0  0  2  0  0  0  0  0  0
   44.6020   35.3600   42.0720 C   0  0  0  0  0  0  0  0  0  0  0  0
   43.5160   34.5790   42.3930 F   0  0  0  0  0  0  0  0  0  0  0  0
   44.1050   36.6480   41.8340 F   0  0  0  0  0  0  0  0  0  0  0  0
   45.2360   34.9370   40.9240 F   0  0  0  0  0  0  0  0  0  0  0  0
  1  7  1  1  0  0  0
  1  2  1  0  0  0  0
  1 16  1  0  0  0  0
  2  8  1  0  0  0  0
  3  9  1  0  0  0  0
  3  2  2  0  0  0  0
  4 10  1  1  0  0  0
  4  3  1  0  0  0  0
  5  4  1  0  0  0  0
  5  6  1  0  0  0  0
  5 12  1  0  0  0  0
  6  1  1  0  0  0  0
 11  5  1  0  0  0  0
 13  6  1  0  0  0  0
 14  6  1  0  0  0  0
 15 21  1  0  0  0  0
 15 20  1  0  0  0  0
 16 15  2  0  0  0  0
 17 16  1  0  0  0  0
 17 18  2  0  0  0  0
 18 19  1  0  0  0  0
 19 20  2  0  0  0  0
 19 23  1  0  0  0  0
 22 17  1  0  0  0  0
 24 23  1  0  0  0  0
 24 25  1  0  0  0  0
 26 25  1  0  0  0  0
 27 23  1  0  0  0  0
 27 26  1  0  0  0  0
 28 29  1  0  0  0  0
 28  4  1  0  0  0  0
 30 28  1  0  0  0  0
 31 28  1  0  0  0  0
M  END
>  <minimizedAffinity>
-4.8649559

>  <minimizedRMSD>
1.74062228

$$$$
