
 OpenBabel03232517483D

 28 31  0  0  0  0  0  0  0  0999 V2000
   48.1060   30.8670   47.9670 N   0  0  0  0  0  0  0  0  0  0  0  0
   47.5880   30.7250   46.7630 C   0  0  0  0  0  0  0  0  0  0  0  0
   46.8750   31.8720   46.4130 C   0  0  0  0  0  0  0  0  0  0  0  0
   46.9790   32.7060   47.4400 N   0  0  0  0  0  0  0  0  0  0  0  0
   47.7260   32.0990   48.3840 C   0  0  0  0  0  0  0  0  0  0  0  0
   47.6950   29.8440   46.1260 H   0  0  0  0  0  0  0  0  0  0  0  0
   47.9140   32.6410   49.3010 H   0  0  0  0  0  0  0  0  0  0  0  0
   49.3290   30.4500   49.9650 C   0  0  0  0  0  0  0  0  0  0  0  0
   48.8870   29.9860   48.7150 C   0  0  0  0  0  0  0  0  0  0  0  0
   49.2620   28.6950   48.3300 C   0  0  0  0  0  0  0  0  0  0  0  0
   50.0330   27.9820   49.2030 N   0  0  0  0  0  0  0  0  0  0  0  0
   50.4370   28.4520   50.3840 C   0  0  0  0  0  0  0  0  0  0  0  0
   50.0820   29.6880   50.7600 N   0  0  0  0  0  0  0  0  0  0  0  0
   49.0750   31.4420   50.3270 H   0  0  0  0  0  0  0  0  0  0  0  0
   48.9230   28.3540   47.3830 H   0  0  0  0  0  0  0  0  0  0  0  0
   51.0480   27.8810   51.0700 H   0  0  0  0  0  0  0  0  0  0  0  0
   46.1660   32.0870   45.1670 C   0  0  0  0  0  0  0  0  0  0  0  0
   45.6810   31.1090   44.3200 C   0  0  0  0  0  0  0  0  0  0  0  0
   45.0830   31.8090   43.2640 C   0  0  0  0  0  0  0  0  0  0  0  0
   45.2410   33.1590   43.5340 C   0  0  0  0  0  0  0  0  0  0  0  0
   45.8800   33.2730   44.6570 O   0  0  0  0  0  0  0  0  0  0  0  0
   45.7310   30.0410   44.4120 H   0  0  0  0  0  0  0  0  0  0  0  0
   44.5800   31.4080   42.3820 H   0  0  0  0  0  0  0  0  0  0  0  0
   44.7970   34.3140   42.7490 C   0  0  0  0  0  0  0  0  0  0  0  0
   45.0290   34.0580   41.2570 C   0  0  0  0  0  0  0  0  0  0  0  0
   46.5150   34.2330   41.1230 C   0  0  0  0  0  0  0  0  0  0  0  0
   46.8990   35.2500   42.1850 C   0  0  0  0  0  0  0  0  0  0  0  0
   45.6450   35.5270   42.9930 C   0  0  0  0  0  0  0  0  0  0  0  0
  1  5  1  0  0  0  0
  1  9  1  0  0  0  0
  2  1  1  0  0  0  0
  3  2  2  0  0  0  0
  3  4  1  0  0  0  0
  4  5  2  0  0  0  0
  5  7  1  0  0  0  0
  6  2  1  0  0  0  0
  8 14  1  0  0  0  0
  8 13  1  0  0  0  0
  9  8  2  0  0  0  0
 10  9  1  0  0  0  0
 10 11  2  0  0  0  0
 11 12  1  0  0  0  0
 12 13  2  0  0  0  0
 12 16  1  0  0  0  0
 15 10  1  0  0  0  0
 17  3  1  0  0  0  0
 18 22  1  0  0  0  0
 18 17  2  0  0  0  0
 19 20  2  0  0  0  0
 19 18  1  0  0  0  0
 20 21  1  0  0  0  0
 21 17  1  0  0  0  0
 23 19  1  0  0  0  0
 24 28  1  0  0  0  0
 24 20  1  0  0  0  0
 25 24  1  0  0  0  0
 26 25  1  0  0  0  0
 26 27  1  0  0  0  0
 27 28  1  0  0  0  0
M  END
>  <minimizedAffinity>
-5.0082159

>  <minimizedRMSD>
2.72827005

$$$$
