
 OpenBabel03232520583D

 33 35  0  0  1  0  0  0  0  0999 V2000
   45.6280   33.7210   43.8910 C   0  0  2  0  0  0  0  0  0  0  0  0
   45.1960   35.2720   43.8940 C   0  0  0  0  0  0  0  0  0  0  0  0
   44.6850   35.8070   42.6530 C   0  0  0  0  0  0  0  0  0  0  0  0
   44.5580   34.9590   41.4800 C   0  0  1  0  0  0  0  0  0  0  0  0
   45.0500   33.5800   41.6120 C   0  0  0  0  0  0  0  0  0  0  0  0
   44.6880   33.1030   43.0170 C   0  0  0  0  0  0  0  0  0  0  0  0
   46.6030   34.0120   43.3870 H   0  0  0  0  0  0  0  0  0  0  0  0
   45.1740   36.0890   44.6090 H   0  0  0  0  0  0  0  0  0  0  0  0
   44.3730   36.8380   42.5610 H   0  0  0  0  0  0  0  0  0  0  0  0
   45.0560   35.4850   40.6340 H   0  0  0  0  0  0  0  0  0  0  0  0
   46.1630   33.5990   41.5220 H   0  0  0  0  0  0  0  0  0  0  0  0
   44.6740   32.9400   40.8170 H   0  0  0  0  0  0  0  0  0  0  0  0
   43.6630   33.5960   43.2180 H   0  0  0  0  0  0  0  0  0  0  0  0
   44.4460   32.0930   42.8640 H   0  0  0  0  0  0  0  0  0  0  0  0
   44.9930   33.9850   46.2990 C   0  0  0  0  0  0  0  0  0  0  0  0
   45.7280   33.3830   45.2810 C   0  0  0  0  0  0  0  0  0  0  0  0
   46.5440   32.2830   45.6580 C   0  0  0  0  0  0  0  0  0  0  0  0
   46.5460   31.9030   46.9340 N   0  0  0  0  0  0  0  0  0  0  0  0
   45.8200   32.5040   47.9050 C   0  0  0  0  0  0  0  0  0  0  0  0
   45.0500   33.5370   47.6000 N   0  0  0  0  0  0  0  0  0  0  0  0
   45.9370   32.0190   49.2560 N   0  0  0  0  0  0  0  0  0  0  0  0
   44.3670   34.8220   46.0860 H   0  0  0  0  0  0  0  0  0  0  0  0
   46.6670   32.4170   49.9100 H   0  0  0  0  0  0  0  0  0  0  0  0
   45.2800   31.2730   49.5390 H   0  0  0  0  0  0  0  0  0  0  0  0
   47.5030   31.5260   44.8290 C   0  0  0  0  0  3  0  0  0  0  0  0
   48.0350   32.4780   43.6790 C   0  0  0  0  0  2  0  0  0  0  0  0
   48.8170   31.5550   42.8030 C   0  0  0  0  0  2  0  0  0  0  0  0
   47.8930   30.3590   42.7430 C   0  0  0  0  0  2  0  0  0  0  0  0
   46.9060   30.5420   43.8810 C   0  0  0  0  0  2  0  0  0  0  0  0
   43.0570   34.9360   41.0950 C   0  0  0  0  0  0  0  0  0  0  0  0
   42.2420   35.4570   42.0760 F   0  0  0  0  0  0  0  0  0  0  0  0
   42.9220   35.7690   39.9870 F   0  0  0  0  0  0  0  0  0  0  0  0
   42.6860   33.6680   40.6960 F   0  0  0  0  0  0  0  0  0  0  0  0
  1  7  1  6  0  0  0
  1  2  1  0  0  0  0
  1 16  1  0  0  0  0
  2  8  1  0  0  0  0
  3  2  2  0  0  0  0
  4 10  1  6  0  0  0
  4  5  1  0  0  0  0
  4  3  1  0  0  0  0
  5  6  1  0  0  0  0
  6 13  1  0  0  0  0
  6  1  1  0  0  0  0
  9  3  1  0  0  0  0
 11  5  1  0  0  0  0
 12  5  1  0  0  0  0
 14  6  1  0  0  0  0
 15 20  1  0  0  0  0
 16 17  1  0  0  0  0
 16 15  2  0  0  0  0
 17 18  2  0  0  0  0
 18 19  1  0  0  0  0
 19 21  1  0  0  0  0
 20 19  2  0  0  0  0
 21 24  1  0  0  0  0
 21 23  1  0  0  0  0
 22 15  1  0  0  0  0
 25 17  1  0  0  0  0
 26 25  1  0  0  0  0
 27 26  1  0  0  0  0
 28 27  1  0  0  0  0
 28 29  1  0  0  0  0
 29 25  1  0  0  0  0
 30  4  1  0  0  0  0
 30 31  1  0  0  0  0
 32 30  1  0  0  0  0
 33 30  1  0  0  0  0
M  END
>  <minimizedAffinity>
-5.03299999

>  <minimizedRMSD>
1.7034359

$$$$
