
 OpenBabel03232520513D

 28 30  0  0  1  0  0  0  0  0999 V2000
   46.2760   33.4490   45.5670 C   0  0  2  0  0  0  0  0  0  0  0  0
   45.1240   34.4280   45.5220 C   0  0  0  0  0  0  0  0  0  0  0  0
   44.9820   35.2400   44.3160 C   0  0  0  0  0  0  0  0  0  0  0  0
   45.9230   35.0820   43.2160 C   0  0  1  0  0  0  0  0  0  0  0  0
   47.1050   34.2430   43.4580 C   0  0  0  0  0  0  0  0  0  0  0  0
   46.6790   33.0010   44.2000 C   0  0  0  0  0  0  0  0  0  0  0  0
   47.1040   34.0720   46.0170 H   0  0  0  0  0  0  0  0  0  0  0  0
   44.3710   34.6350   46.2420 H   0  0  0  0  0  0  0  0  0  0  0  0
   44.1830   35.9330   44.2610 H   0  0  0  0  0  0  0  0  0  0  0  0
   46.2760   36.1120   42.9420 H   0  0  0  0  0  0  0  0  0  0  0  0
   47.5680   33.9450   42.4980 H   0  0  0  0  0  0  0  0  0  0  0  0
   47.8260   34.8270   44.0710 H   0  0  0  0  0  0  0  0  0  0  0  0
   45.8390   32.5060   43.7010 H   0  0  0  0  0  0  0  0  0  0  0  0
   47.5690   32.3540   44.3100 H   0  0  0  0  0  0  0  0  0  0  0  0
   45.3440   32.6670   47.7110 C   0  0  0  0  0  0  0  0  0  0  0  0
   45.9500   32.3540   46.4930 C   0  0  0  0  0  0  0  0  0  0  0  0
   46.2380   30.9900   46.2180 C   0  0  0  0  0  0  0  0  0  0  0  0
   45.9070   30.0700   47.1590 N   0  0  0  0  0  0  0  0  0  0  0  0
   45.3180   30.4030   48.3340 C   0  0  0  0  0  0  0  0  0  0  0  0
   45.0380   31.6990   48.6090 N   0  0  0  0  0  0  0  0  0  0  0  0
   45.0780   33.6640   48.0320 H   0  0  0  0  0  0  0  0  0  0  0  0
   46.6980   30.7460   45.2930 H   0  0  0  0  0  0  0  0  0  0  0  0
   45.1210   29.5500   48.9700 H   0  0  0  0  0  0  0  0  0  0  0  0
   45.1020   34.6240   42.0230 C   0  0  0  0  0  3  0  0  0  0  0  0
   44.0480   35.5920   41.5990 C   0  0  0  0  0  2  0  0  0  0  0  0
   43.1440   34.6830   40.7660 C   0  0  0  0  0  2  0  0  0  0  0  0
   43.1660   33.3350   41.4760 C   0  0  0  0  0  2  0  0  0  0  0  0
   44.3310   33.4000   42.4460 C   0  0  0  0  0  2  0  0  0  0  0  0
  1  7  1  1  0  0  0
  1 16  1  0  0  0  0
  2  1  1  0  0  0  0
  2  8  1  0  0  0  0
  3  2  2  0  0  0  0
  4 10  1  6  0  0  0
  4  5  1  0  0  0  0
  4  3  1  0  0  0  0
  5 12  1  0  0  0  0
  5  6  1  0  0  0  0
  6 14  1  0  0  0  0
  6  1  1  0  0  0  0
  9  3  1  0  0  0  0
 11  5  1  0  0  0  0
 13  6  1  0  0  0  0
 15 21  1  0  0  0  0
 15 20  1  0  0  0  0
 16 15  2  0  0  0  0
 17 16  1  0  0  0  0
 17 18  2  0  0  0  0
 18 19  1  0  0  0  0
 19 20  2  0  0  0  0
 19 23  1  0  0  0  0
 22 17  1  0  0  0  0
 24 28  1  0  0  0  0
 24  4  1  0  0  0  0
 25 24  1  0  0  0  0
 26 27  1  0  0  0  0
 26 25  1  0  0  0  0
 27 28  1  0  0  0  0
M  END
>  <minimizedAffinity>
-5.22664642

>  <minimizedRMSD>
0.863533199

$$$$
