
 OpenBabel03232520103D

 21 23  0  0  0  0  0  0  0  0999 V2000
   45.7910   33.2450   46.3460 C   0  0  0  0  0  0  0  0  0  0  0  0
   45.1650   33.1300   47.5700 C   0  0  0  0  0  0  0  0  0  0  0  0
   45.5540   32.1450   48.4220 C   0  0  0  0  0  0  0  0  0  0  0  0
   46.5810   31.3170   47.9650 C   0  0  0  0  0  0  0  0  0  0  0  0
   46.9900   31.9380   46.3320 S   0  0  0  0  0  0  0  0  0  0  0  0
   44.3760   33.8510   47.7900 H   0  0  0  0  0  0  0  0  0  0  0  0
   45.1020   32.0040   49.3890 H   0  0  0  0  0  0  0  0  0  0  0  0
   44.4950   36.0830   44.4260 C   0  0  0  0  0  0  0  0  0  0  0  0
   45.2110   35.9190   43.2040 C   0  0  0  0  0  0  0  0  0  0  0  0
   46.1100   34.8550   43.0670 C   0  0  0  0  0  0  0  0  0  0  0  0
   46.2480   34.0250   44.1310 N   0  0  0  0  0  0  0  0  0  0  0  0
   45.5610   34.1960   45.2770 C   0  0  0  0  0  0  0  0  0  0  0  0
   44.6900   35.2160   45.4290 N   0  0  0  0  0  0  0  0  0  0  0  0
   43.8060   36.8910   44.5480 H   0  0  0  0  0  0  0  0  0  0  0  0
   45.0570   36.6090   42.4070 H   0  0  0  0  0  0  0  0  0  0  0  0
   46.6670   34.7030   42.1540 H   0  0  0  0  0  0  0  0  0  0  0  0
   47.2820   30.1630   48.5620 C   0  0  0  0  0  0  0  0  0  0  0  0
   47.8030   29.1670   47.5890 C   0  0  0  0  0  0  0  0  0  0  0  0
   49.2010   29.5670   47.2880 C   0  0  0  0  0  0  0  0  0  0  0  0
   49.7050   30.1520   48.5750 C   0  0  0  0  0  0  0  0  0  0  0  0
   48.4880   30.6760   49.2960 C   0  0  0  0  0  0  0  0  0  0  0  0
  1  2  2  0  0  0  0
  2  6  1  0  0  0  0
  2  3  1  0  0  0  0
  3  7  1  0  0  0  0
  4  3  2  0  0  0  0
  4 17  1  0  0  0  0
  5  1  1  0  0  0  0
  5  4  1  0  0  0  0
  8 14  1  0  0  0  0
  8 13  1  0  0  0  0
  9  8  2  0  0  0  0
 10  9  1  0  0  0  0
 10 11  2  0  0  0  0
 11 12  1  0  0  0  0
 12 13  2  0  0  0  0
 12  1  1  0  0  0  0
 15  9  1  0  0  0  0
 16 10  1  0  0  0  0
 17 21  1  0  0  0  0
 18 17  1  0  0  0  0
 19 18  1  0  0  0  0
 19 20  1  0  0  0  0
 20 21  1  0  0  0  0
M  END
>  <minimizedAffinity>
-4.84058428

>  <minimizedRMSD>
0.851726115

$$$$
