
 OpenBabel03232514293D

 31 34  0  0  0  0  0  0  0  0999 V2000
   44.6250   35.2150   44.7590 C   0  0  0  0  0  0  0  0  0  0  0  0
   45.2560   35.2600   43.5100 C   0  0  0  0  0  0  0  0  0  0  0  0
   46.3820   34.4590   43.3310 C   0  0  0  0  0  0  0  0  0  0  0  0
   46.7920   33.6920   44.3830 N   0  0  0  0  0  0  0  0  0  0  0  0
   46.1690   33.6690   45.5650 C   0  0  0  0  0  0  0  0  0  0  0  0
   45.0930   34.4240   45.7560 N   0  0  0  0  0  0  0  0  0  0  0  0
   43.7520   35.8570   44.8450 H   0  0  0  0  0  0  0  0  0  0  0  0
   46.5180   33.0490   46.3790 H   0  0  0  0  0  0  0  0  0  0  0  0
   44.7640   36.1130   42.4090 C   0  0  0  0  0  0  0  0  0  0  0  0
   45.5590   36.4210   41.7280 H   0  0  0  0  0  0  0  0  0  0  0  0
   44.4070   37.0610   42.8950 H   0  0  0  0  0  0  0  0  0  0  0  0
   43.6250   35.4310   41.6740 C   0  0  0  0  0  0  0  0  0  0  0  0
   43.8760   34.6160   40.5980 C   0  0  0  0  0  0  0  0  0  0  0  0
   42.2110   34.0640   40.0940 S   0  0  0  0  0  0  0  0  0  0  0  0
   41.4350   35.0950   41.5100 C   0  0  0  0  0  0  0  0  0  0  0  0
   42.3650   35.5500   41.9800 N   0  0  0  0  0  0  0  0  0  0  0  0
   44.8350   34.3530   40.1460 H   0  0  0  0  0  0  0  0  0  0  0  0
   40.3690   35.1860   41.7550 H   0  0  0  0  0  0  0  0  0  0  0  0
   47.2670   34.4220   41.8150 S   0  0  0  0  0  0  0  0  0  0  0  0
   48.7370   33.6670   41.7490 C   0  0  0  0  0  0  0  0  0  0  0  0
   49.9570   33.5100   42.3950 C   0  0  0  0  0  0  0  0  0  0  0  0
   50.9780   32.7180   41.9350 C   0  0  0  0  0  0  0  0  0  0  0  0
   50.7470   32.0280   40.7250 C   0  0  0  0  0  0  0  0  0  0  0  0
   48.9970   32.5680   40.2760 S   0  0  0  0  0  0  0  0  0  0  0  0
   49.9220   34.1160   43.2860 H   0  0  0  0  0  0  0  0  0  0  0  0
   51.8850   32.6620   42.5050 H   0  0  0  0  0  0  0  0  0  0  0  0
   51.5720   31.1350   39.9700 C   0  0  0  0  0  0  0  0  0  0  0  0
   51.5840   31.4380   38.4660 C   0  0  0  0  0  0  0  0  0  0  0  0
   52.6830   30.4800   38.0160 C   0  0  0  0  0  0  0  0  0  0  0  0
   53.6640   30.4330   39.1800 C   0  0  0  0  0  0  0  0  0  0  0  0
   53.0260   31.2750   40.2920 C   0  0  0  0  0  0  0  0  0  0  0  0
  1  7  1  0  0  0  0
  1  6  1  0  0  0  0
  2  1  2  0  0  0  0
  3  2  1  0  0  0  0
  3  4  2  0  0  0  0
  4  5  1  0  0  0  0
  5  6  2  0  0  0  0
  5  8  1  0  0  0  0
  9 11  1  0  0  0  0
  9  2  1  0  0  0  0
 10  9  1  0  0  0  0
 12 16  1  0  0  0  0
 12  9  1  0  0  0  0
 13 12  2  0  0  0  0
 14 13  1  0  0  0  0
 14 15  1  0  0  0  0
 15 18  1  0  0  0  0
 15 16  2  0  0  0  0
 17 13  1  0  0  0  0
 19  3  1  0  0  0  0
 20 19  1  0  0  0  0
 20 21  2  0  0  0  0
 21 25  1  0  0  0  0
 22 21  1  0  0  0  0
 22 26  1  0  0  0  0
 23 22  2  0  0  0  0
 24 23  1  0  0  0  0
 24 20  1  0  0  0  0
 27 31  1  0  0  0  0
 27 23  1  0  0  0  0
 28 27  1  0  0  0  0
 29 28  1  0  0  0  0
 29 30  1  0  0  0  0
 30 31  1  0  0  0  0
M  END
>  <minimizedAffinity>
-5.18500423

>  <minimizedRMSD>
0.800283432

$$$$
