
 OpenBabel03232514423D

 33 36  0  0  1  0  0  0  0  0999 V2000
   45.1830   32.8150   47.6300 C   0  0  0  0  0  0  0  0  0  0  0  0
   45.7260   32.5730   46.3790 C   0  0  0  0  0  0  0  0  0  0  0  0
   46.1750   31.2510   46.0840 C   0  0  0  0  0  0  0  0  0  0  0  0
   46.0620   30.2940   47.0150 N   0  0  0  0  0  0  0  0  0  0  0  0
   45.5250   30.5670   48.2360 C   0  0  0  0  0  0  0  0  0  0  0  0
   45.0870   31.8230   48.5440 N   0  0  0  0  0  0  0  0  0  0  0  0
   44.7990   33.7120   48.0450 H   0  0  0  0  0  0  0  0  0  0  0  0
   45.4220   29.7940   49.0190 H   0  0  0  0  0  0  0  0  0  0  0  0
   45.8890   33.6890   45.4480 C   0  0  2  0  0  0  0  0  0  0  0  0
   44.9030   34.7990   45.8460 C   0  0  0  0  0  0  0  0  0  0  0  0
   44.5130   35.7640   44.8650 C   0  0  0  0  0  0  0  0  0  0  0  0
   45.0730   35.6810   43.5180 C   0  0  0  0  0  0  0  0  0  0  0  0
   46.0310   34.6150   43.2480 C   0  0  0  0  0  0  0  0  0  0  0  0
   45.6660   33.3620   44.0320 C   0  0  0  0  0  0  0  0  0  0  0  0
   46.9140   34.0890   45.5190 H   0  0  0  0  0  0  0  0  0  0  0  0
   44.3830   35.0750   46.7360 H   0  0  0  0  0  0  0  0  0  0  0  0
   43.8450   36.5600   45.0360 H   0  0  0  0  0  0  0  0  0  0  0  0
   44.2280   35.6050   42.7850 H   0  0  0  0  0  0  0  0  0  0  0  0
   45.5530   36.6660   43.3080 H   0  0  0  0  0  0  0  0  0  0  0  0
   45.9960   34.3340   42.1720 H   0  0  0  0  0  0  0  0  0  0  0  0
   47.0850   34.8770   43.4740 H   0  0  0  0  0  0  0  0  0  0  0  0
   46.2900   32.6130   43.5880 H   0  0  0  0  0  0  0  0  0  0  0  0
   44.5970   33.1600   43.8350 H   0  0  0  0  0  0  0  0  0  0  0  0
   46.7340   30.6800   44.8960 C   0  0  0  0  0  0  0  0  0  0  0  0
   48.0390   30.6660   44.6920 N   0  0  0  0  0  0  0  0  0  0  0  0
   48.2510   30.0860   43.5400 O   0  0  0  0  0  0  0  0  0  0  0  0
   47.1740   29.7110   42.9610 C   0  0  0  0  0  0  0  0  0  0  0  0
   46.1920   30.0650   43.7800 N   0  0  0  0  0  0  0  0  0  0  0  0
   46.9120   29.0270   41.6740 C   0  0  0  0  0  0  0  0  0  0  0  0
   45.4770   29.1660   41.2120 C   0  0  0  0  0  0  0  0  0  0  0  0
   45.5760   28.7690   39.7570 C   0  0  0  0  0  0  0  0  0  0  0  0
   46.9430   29.2000   39.3210 C   0  0  0  0  0  0  0  0  0  0  0  0
   47.6770   29.6800   40.5370 C   0  0  0  0  0  0  0  0  0  0  0  0
  1  7  1  0  0  0  0
  1  6  1  0  0  0  0
  2  1  2  0  0  0  0
  3  2  1  0  0  0  0
  3  4  2  0  0  0  0
  4  5  1  0  0  0  0
  5  6  2  0  0  0  0
  5  8  1  0  0  0  0
  9 15  1  1  0  0  0
  9 10  1  0  0  0  0
  9  2  1  0  0  0  0
 10 16  1  0  0  0  0
 11 17  1  0  0  0  0
 11 10  2  0  0  0  0
 12 11  1  0  0  0  0
 13 21  1  0  0  0  0
 13 12  1  0  0  0  0
 13 14  1  0  0  0  0
 14  9  1  0  0  0  0
 18 12  1  0  0  0  0
 19 12  1  0  0  0  0
 20 13  1  0  0  0  0
 22 14  1  0  0  0  0
 23 14  1  0  0  0  0
 24  3  1  0  0  0  0
 25 24  2  0  0  0  0
 26 25  1  0  0  0  0
 27 26  1  0  0  0  0
 27 28  2  0  0  0  0
 28 24  1  0  0  0  0
 29 27  1  0  0  0  0
 30 29  1  0  0  0  0
 31 30  1  0  0  0  0
 32 31  1  0  0  0  0
 32 33  1  0  0  0  0
 33 29  1  0  0  0  0
M  END
>  <minimizedAffinity>
-4.13188887

>  <minimizedRMSD>
0.927455783

$$$$
