
 OpenBabel03232519183D

 42 45  0  0  1  0  0  0  0  0999 V2000
   43.4510   33.5440   41.2620 C   0  0  1  0  0  0  0  0  0  0  0  0
   43.7520   32.4980   41.4730 H   0  0  0  0  0  0  0  0  0  0  0  0
   41.9850   33.5960   41.1670 C   0  0  0  0  0  0  0  0  0  0  0  0
   41.3670   34.8540   40.8500 C   0  0  0  0  0  0  0  0  0  0  0  0
   39.9700   34.9390   40.7480 C   0  0  0  0  0  0  0  0  0  0  0  0
   39.2740   33.7980   40.9610 N   0  0  0  0  0  0  0  0  0  0  0  0
   39.8620   32.6530   41.2520 C   0  0  0  0  0  0  0  0  0  0  0  0
   41.2110   32.5280   41.3590 N   0  0  0  0  0  0  0  0  0  0  0  0
   42.0100   35.7120   40.6970 H   0  0  0  0  0  0  0  0  0  0  0  0
   39.5150   35.8820   40.5100 H   0  0  0  0  0  0  0  0  0  0  0  0
   39.0780   31.4120   41.4750 C   0  0  0  0  0  0  0  0  0  0  0  0
   39.7320   30.3150   42.0610 C   0  0  0  0  0  0  0  0  0  0  0  0
   38.3180   29.0810   42.0950 S   0  0  0  0  0  0  0  0  0  0  0  0
   37.1420   30.3180   41.3050 C   0  0  0  0  0  0  0  0  0  0  0  0
   37.8230   31.1820   41.1930 N   0  0  0  0  0  0  0  0  0  0  0  0
   40.6770   30.0840   42.4210 H   0  0  0  0  0  0  0  0  0  0  0  0
   36.0010   30.3570   40.9590 H   0  0  0  0  0  0  0  0  0  0  0  0
   44.0630   33.8940   39.9230 C   0  0  0  0  0  0  0  0  0  0  0  0
   43.2910   33.7760   39.1350 H   0  0  0  0  0  0  0  0  0  0  0  0
   44.9480   33.2740   39.6870 H   0  0  0  0  0  0  0  0  0  0  0  0
   44.3550   34.9690   39.8980 H   0  0  0  0  0  0  0  0  0  0  0  0
   43.9860   34.4370   42.3170 C   0  0  0  0  0  0  0  0  0  0  0  0
   43.2430   34.3540   43.1700 H   0  0  0  0  0  0  0  0  0  0  0  0
   43.9770   35.5020   42.0780 H   0  0  0  0  0  0  0  0  0  0  0  0
   45.2320   34.0740   42.8720 N   0  0  0  0  0  0  0  0  0  0  0  0
   45.7040   32.9930   43.6740 C   0  0  0  0  0  0  0  0  0  0  0  0
   46.0960   31.8250   43.0620 C   0  0  0  0  0  0  0  0  0  0  0  0
   46.5620   30.7370   43.7740 C   0  0  0  0  0  0  0  0  0  0  0  0
   46.6120   30.8830   45.1020 N   0  0  0  0  0  0  0  0  0  0  0  0
   46.2280   32.0350   45.7030 C   0  0  0  0  0  0  0  0  0  0  0  0
   45.7670   33.1100   45.0210 N   0  0  0  0  0  0  0  0  0  0  0  0
   46.0270   31.7750   41.9660 H   0  0  0  0  0  0  0  0  0  0  0  0
   46.8610   29.8320   43.2610 H   0  0  0  0  0  0  0  0  0  0  0  0
   46.3150   32.1140   47.1860 C   0  0  0  0  0  0  0  0  0  0  0  0
   47.3370   31.1790   47.7760 C   0  0  0  0  0  0  0  0  0  0  0  0
   46.9830   31.2720   49.2590 C   0  0  0  0  0  0  0  0  0  0  0  0
   45.4780   31.4920   49.2950 C   0  0  0  0  0  0  0  0  0  0  0  0
   45.0400   31.6610   47.8520 C   0  0  0  0  0  0  0  0  0  0  0  0
   46.3550   34.8950   42.6600 C   0  0  0  0  0  0  0  0  0  0  0  0
   47.3460   34.6330   43.5600 F   0  0  0  0  0  0  0  0  0  0  0  0
   45.8780   36.2050   42.9740 F   0  0  0  0  0  0  0  0  0  0  0  0
   46.8360   34.9020   41.3790 F   0  0  0  0  0  0  0  0  0  0  0  0
  1  2  1  1  0  0  0
  1 22  1  0  0  0  0
  3  1  1  0  0  0  0
  3  8  1  0  0  0  0
  4  3  2  0  0  0  0
  5  4  1  0  0  0  0
  5  6  2  0  0  0  0
  6  7  1  0  0  0  0
  7  8  2  0  0  0  0
  7 11  1  0  0  0  0
  9  4  1  0  0  0  0
 10  5  1  0  0  0  0
 11 12  2  0  0  0  0
 12 13  1  0  0  0  0
 12 16  1  0  0  0  0
 14 13  1  0  0  0  0
 15 14  2  0  0  0  0
 15 11  1  0  0  0  0
 17 14  1  0  0  0  0
 18  1  1  0  0  0  0
 19 18  1  0  0  0  0
 20 18  1  0  0  0  0
 21 18  1  0  0  0  0
 22 25  1  0  0  0  0
 22 23  1  0  0  0  0
 24 22  1  0  0  0  0
 25 26  1  0  0  0  0
 26 31  1  0  0  0  0
 27 26  2  0  0  0  0
 27 28  1  0  0  0  0
 28 29  2  0  0  0  0
 29 30  1  0  0  0  0
 30 34  1  0  0  0  0
 31 30  2  0  0  0  0
 32 27  1  0  0  0  0
 33 28  1  0  0  0  0
 34 35  1  0  0  0  0
 34 38  1  0  0  0  0
 35 36  1  0  0  0  0
 36 37  1  0  0  0  0
 38 37  1  0  0  0  0
 39 25  1  0  0  0  0
 39 41  1  0  0  0  0
 39 40  1  0  0  0  0
 42 39  1  0  0  0  0
M  END
>  <minimizedAffinity>
-6.29634857

>  <minimizedRMSD>
1.1587323

$$$$
