
 OpenBabel03232520213D

 37 40  0  0  0  0  0  0  0  0999 V2000
   47.6550   34.1530   42.1420 C   0  0  0  0  0  0  0  0  0  0  0  0
   48.5760   35.3050   41.7830 C   0  0  0  0  0  0  0  0  0  0  0  0
   49.8880   35.2900   42.4670 C   0  0  0  0  0  0  0  0  0  0  0  0
   50.5540   33.9610   42.5170 C   0  0  0  0  0  0  0  0  0  0  0  0
   49.6820   32.8290   42.0680 C   0  0  0  0  0  0  0  0  0  0  0  0
   48.3360   32.9930   42.7630 C   0  0  0  0  0  0  0  0  0  0  0  0
   48.7640   35.3320   40.6840 H   0  0  0  0  0  0  0  0  0  0  0  0
   48.0290   36.2380   42.0130 H   0  0  0  0  0  0  0  0  0  0  0  0
   49.7760   35.6650   43.5110 H   0  0  0  0  0  0  0  0  0  0  0  0
   50.5340   36.0270   41.9520 H   0  0  0  0  0  0  0  0  0  0  0  0
   50.9680   33.7510   43.5350 H   0  0  0  0  0  0  0  0  0  0  0  0
   51.4420   33.9580   41.8390 H   0  0  0  0  0  0  0  0  0  0  0  0
   50.1810   31.8880   42.4180 H   0  0  0  0  0  0  0  0  0  0  0  0
   49.5240   32.8300   40.9820 H   0  0  0  0  0  0  0  0  0  0  0  0
   48.5180   33.2190   43.8270 H   0  0  0  0  0  0  0  0  0  0  0  0
   47.7640   32.0680   42.6130 H   0  0  0  0  0  0  0  0  0  0  0  0
   45.3160   34.3610   45.0020 C   0  0  0  0  0  0  0  0  0  0  0  0
   44.5770   35.5270   44.7250 C   0  0  0  0  0  0  0  0  0  0  0  0
   44.8910   36.2320   43.5590 C   0  0  0  0  0  0  0  0  0  0  0  0
   45.8820   35.7580   42.7660 N   0  0  0  0  0  0  0  0  0  0  0  0
   46.5760   34.6270   43.0650 C   0  0  0  0  0  0  0  0  0  0  0  0
   46.2760   33.9320   44.2000 N   0  0  0  0  0  0  0  0  0  0  0  0
   45.1210   33.7720   45.8870 H   0  0  0  0  0  0  0  0  0  0  0  0
   43.8110   35.8350   45.3990 H   0  0  0  0  0  0  0  0  0  0  0  0
   44.3510   37.1200   43.3180 H   0  0  0  0  0  0  0  0  0  0  0  0
   47.0230   33.6680   40.8650 C   0  0  0  0  0  0  0  0  0  0  0  0
   45.9020   32.9690   40.4730 C   0  0  0  0  0  0  0  0  0  0  0  0
   45.7070   32.7440   39.1680 C   0  0  0  0  0  0  0  0  0  0  0  0
   46.5750   33.1790   38.2350 C   0  0  0  0  0  0  0  0  0  0  0  0
   47.8660   34.0340   39.2830 S   0  0  0  0  0  0  0  0  0  0  0  0
   45.2890   32.6780   41.3150 H   0  0  0  0  0  0  0  0  0  0  0  0
   44.8360   32.1980   38.8230 H   0  0  0  0  0  0  0  0  0  0  0  0
   46.6310   33.0920   36.8040 C   0  0  0  0  0  0  0  0  0  0  0  0
   48.0440   32.9510   36.3560 C   0  0  0  0  0  0  0  0  0  0  0  0
   47.8860   32.2750   35.0060 C   0  0  0  0  0  0  0  0  0  0  0  0
   46.8850   31.1920   35.3120 C   0  0  0  0  0  0  0  0  0  0  0  0
   45.9110   31.9050   36.2080 C   0  0  0  0  0  0  0  0  0  0  0  0
  1  6  1  0  0  0  0
  1 21  1  0  0  0  0
  2  8  1  0  0  0  0
  2  1  1  0  0  0  0
  2  3  1  0  0  0  0
  3  4  1  0  0  0  0
  3  9  1  0  0  0  0
  4 11  1  0  0  0  0
  5 13  1  0  0  0  0
  5  4  1  0  0  0  0
  5  6  1  0  0  0  0
  6 15  1  0  0  0  0
  7  2  1  0  0  0  0
 10  3  1  0  0  0  0
 12  4  1  0  0  0  0
 14  5  1  0  0  0  0
 16  6  1  0  0  0  0
 17 23  1  0  0  0  0
 18 17  1  0  0  0  0
 18 24  1  0  0  0  0
 19 18  2  0  0  0  0
 20 21  2  0  0  0  0
 20 19  1  0  0  0  0
 21 22  1  0  0  0  0
 22 17  2  0  0  0  0
 25 19  1  0  0  0  0
 26  1  1  0  0  0  0
 27 26  2  0  0  0  0
 27 31  1  0  0  0  0
 28 27  1  0  0  0  0
 29 28  2  0  0  0  0
 29 30  1  0  0  0  0
 30 26  1  0  0  0  0
 32 28  1  0  0  0  0
 33 29  1  0  0  0  0
 34 33  1  0  0  0  0
 35 36  1  0  0  0  0
 35 34  1  0  0  0  0
 36 37  1  0  0  0  0
 37 33  1  0  0  0  0
M  END
>  <minimizedAffinity>
-5.95090485

>  <minimizedRMSD>
1.21842694

$$$$
