
 OpenBabel03232520513D

 28 30  0  0  1  0  0  0  0  0999 V2000
   46.3480   33.5260   45.7100 C   0  0  2  0  0  0  0  0  0  0  0  0
   45.1450   34.4420   45.7530 C   0  0  0  0  0  0  0  0  0  0  0  0
   44.8160   35.1740   44.5330 C   0  0  0  0  0  0  0  0  0  0  0  0
   45.6290   35.0000   43.3370 C   0  0  1  0  0  0  0  0  0  0  0  0
   46.8770   34.2380   43.4780 C   0  0  0  0  0  0  0  0  0  0  0  0
   46.6130   33.0210   44.3290 C   0  0  0  0  0  0  0  0  0  0  0  0
   47.1870   34.2160   46.0240 H   0  0  0  0  0  0  0  0  0  0  0  0
   44.4710   34.6520   46.5470 H   0  0  0  0  0  0  0  0  0  0  0  0
   43.9780   35.8210   44.5390 H   0  0  0  0  0  0  0  0  0  0  0  0
   45.8870   36.0290   42.9700 H   0  0  0  0  0  0  0  0  0  0  0  0
   47.2410   33.9080   42.4860 H   0  0  0  0  0  0  0  0  0  0  0  0
   47.6300   34.8920   43.9690 H   0  0  0  0  0  0  0  0  0  0  0  0
   45.7500   32.4560   43.9610 H   0  0  0  0  0  0  0  0  0  0  0  0
   47.5450   32.4280   44.3640 H   0  0  0  0  0  0  0  0  0  0  0  0
   45.2680   32.6590   47.7480 C   0  0  0  0  0  0  0  0  0  0  0  0
   46.1970   32.4730   46.7230 C   0  0  0  0  0  0  0  0  0  0  0  0
   46.9650   31.2760   46.7240 C   0  0  0  0  0  0  0  0  0  0  0  0
   46.7470   30.3840   47.7230 N   0  0  0  0  0  0  0  0  0  0  0  0
   45.8360   30.5920   48.7060 C   0  0  0  0  0  0  0  0  0  0  0  0
   45.0990   31.7270   48.7180 N   0  0  0  0  0  0  0  0  0  0  0  0
   44.6290   33.5240   47.8540 H   0  0  0  0  0  0  0  0  0  0  0  0
   47.6720   31.1280   45.9470 H   0  0  0  0  0  0  0  0  0  0  0  0
   45.7900   29.7830   49.4230 H   0  0  0  0  0  0  0  0  0  0  0  0
   44.7010   34.4330   42.2770 C   0  0  0  0  0  0  0  0  0  0  0  0
   45.3630   34.1570   40.9670 C   0  0  0  0  0  0  0  0  0  0  0  0
   44.1490   34.0810   40.0430 C   0  0  0  0  0  0  0  0  0  0  0  0
   43.1730   35.1230   40.5730 C   0  0  0  0  0  0  0  0  0  0  0  0
   43.6780   35.4920   41.9550 C   0  0  0  0  0  0  0  0  0  0  0  0
  1  2  1  0  0  0  0
  1  7  1  1  0  0  0
  1 16  1  0  0  0  0
  2  8  1  0  0  0  0
  3  9  1  0  0  0  0
  3  2  2  0  0  0  0
  4 10  1  6  0  0  0
  4  5  1  0  0  0  0
  4  3  1  0  0  0  0
  5 12  1  0  0  0  0
  5  6  1  0  0  0  0
  6 14  1  0  0  0  0
  6  1  1  0  0  0  0
 11  5  1  0  0  0  0
 13  6  1  0  0  0  0
 15 21  1  0  0  0  0
 15 20  1  0  0  0  0
 16 17  1  0  0  0  0
 16 15  2  0  0  0  0
 17 18  2  0  0  0  0
 18 19  1  0  0  0  0
 19 20  2  0  0  0  0
 19 23  1  0  0  0  0
 22 17  1  0  0  0  0
 24  4  1  0  0  0  0
 25 24  1  0  0  0  0
 26 27  1  0  0  0  0
 26 25  1  0  0  0  0
 27 28  1  0  0  0  0
 28 24  1  0  0  0  0
M  END
>  <minimizedAffinity>
-5.32830811

>  <minimizedRMSD>
0.914719105

$$$$
