
 OpenBabel03232517113D

 28 31  0  0  0  0  0  0  0  0999 V2000
   46.5910   34.1250   43.6560 C   0  0  0  0  0  0  0  0  0  0  0  0
   45.4800   34.8350   44.0770 C   0  0  0  0  0  0  0  0  0  0  0  0
   45.1670   34.4270   45.3800 C   0  0  0  0  0  0  0  0  0  0  0  0
   46.1040   33.4860   45.6900 N   0  0  0  0  0  0  0  0  0  0  0  0
   46.9340   33.3110   44.6820 N   0  0  0  0  0  0  0  0  0  0  0  0
   44.9090   35.5890   43.5370 H   0  0  0  0  0  0  0  0  0  0  0  0
   44.3500   34.7870   46.0090 H   0  0  0  0  0  0  0  0  0  0  0  0
   48.7010   35.3650   40.9130 C   0  0  0  0  0  0  0  0  0  0  0  0
   48.1490   34.6760   39.7980 C   0  0  0  0  0  0  0  0  0  0  0  0
   47.0750   33.8100   40.0170 C   0  0  0  0  0  0  0  0  0  0  0  0
   46.6150   33.6750   41.2890 N   0  0  0  0  0  0  0  0  0  0  0  0
   47.1540   34.3370   42.3280 C   0  0  0  0  0  0  0  0  0  0  0  0
   48.1830   35.1750   42.1550 N   0  0  0  0  0  0  0  0  0  0  0  0
   49.5260   36.0490   40.8470 H   0  0  0  0  0  0  0  0  0  0  0  0
   48.5880   34.8560   38.8330 H   0  0  0  0  0  0  0  0  0  0  0  0
   46.6540   33.2900   39.1870 H   0  0  0  0  0  0  0  0  0  0  0  0
   46.1180   32.8330   46.9390 C   0  0  0  0  0  0  0  0  0  0  0  0
   45.1980   32.6430   47.9610 C   0  0  0  0  0  0  0  0  0  0  0  0
   45.8900   31.8970   48.9060 C   0  0  0  0  0  0  0  0  0  0  0  0
   47.1650   31.6750   48.4250 C   0  0  0  0  0  0  0  0  0  0  0  0
   47.2410   32.2500   47.2640 O   0  0  0  0  0  0  0  0  0  0  0  0
   44.2030   33.0580   47.8680 H   0  0  0  0  0  0  0  0  0  0  0  0
   45.3910   31.6060   49.8240 H   0  0  0  0  0  0  0  0  0  0  0  0
   48.1980   30.9030   49.1800 C   0  0  0  0  0  0  0  0  0  0  0  0
   48.7430   29.7760   48.3660 C   0  0  0  0  0  0  0  0  0  0  0  0
   50.0370   29.4460   49.0790 C   0  0  0  0  0  0  0  0  0  0  0  0
   50.4670   30.7130   49.7530 C   0  0  0  0  0  0  0  0  0  0  0  0
   49.4480   31.7720   49.3700 C   0  0  0  0  0  0  0  0  0  0  0  0
  1  2  1  0  0  0  0
  1  5  2  0  0  0  0
  2  3  2  0  0  0  0
  3  4  1  0  0  0  0
  3  7  1  0  0  0  0
  4 17  1  0  0  0  0
  5  4  1  0  0  0  0
  6  2  1  0  0  0  0
  8 13  1  0  0  0  0
  9 10  1  0  0  0  0
  9  8  2  0  0  0  0
 10 11  2  0  0  0  0
 11 12  1  0  0  0  0
 12  1  1  0  0  0  0
 13 12  2  0  0  0  0
 14  8  1  0  0  0  0
 15  9  1  0  0  0  0
 16 10  1  0  0  0  0
 17 21  1  0  0  0  0
 17 18  2  0  0  0  0
 18 19  1  0  0  0  0
 19 23  1  0  0  0  0
 20 19  2  0  0  0  0
 20 24  1  0  0  0  0
 21 20  1  0  0  0  0
 22 18  1  0  0  0  0
 24 28  1  0  0  0  0
 25 26  1  0  0  0  0
 25 24  1  0  0  0  0
 26 27  1  0  0  0  0
 28 27  1  0  0  0  0
M  END
>  <minimizedAffinity>
-6.10779667

>  <minimizedRMSD>
0.825187922

$$$$
