
 OpenBabel03232520573D

 37 39  0  0  1  0  0  0  0  0999 V2000
   45.3070   32.9260   47.5130 C   0  0  0  0  0  0  0  0  0  0  0  0
   45.8630   32.6570   46.2970 C   0  0  0  0  0  0  0  0  0  0  0  0
   46.1530   31.3030   46.0640 C   0  0  0  0  0  0  0  0  0  0  0  0
   45.9030   30.3360   46.9630 N   0  0  0  0  0  0  0  0  0  0  0  0
   45.3390   30.6550   48.1820 C   0  0  0  0  0  0  0  0  0  0  0  0
   45.0570   31.9290   48.4250 N   0  0  0  0  0  0  0  0  0  0  0  0
   45.0930   29.6520   49.1590 N   0  0  0  0  0  0  0  0  0  0  0  0
   45.0550   33.9410   47.7780 H   0  0  0  0  0  0  0  0  0  0  0  0
   44.4230   29.8560   49.9140 H   0  0  0  0  0  0  0  0  0  0  0  0
   45.5900   28.7280   49.1030 H   0  0  0  0  0  0  0  0  0  0  0  0
   46.0870   33.6020   45.2540 C   0  0  2  0  0  0  0  0  0  0  0  0
   44.9750   34.7240   45.4820 C   0  0  0  0  0  0  0  0  0  0  0  0
   44.7380   35.6450   44.4010 C   0  0  0  0  0  0  0  0  0  0  0  0
   45.4790   35.5320   43.1650 C   0  0  1  0  0  0  0  0  0  0  0  0
   46.5370   34.4900   43.1060 C   0  0  0  0  0  0  0  0  0  0  0  0
   46.0290   33.2760   43.8690 C   0  0  0  0  0  0  0  0  0  0  0  0
   46.9410   34.2910   45.5350 H   0  0  0  0  0  0  0  0  0  0  0  0
   44.3110   34.9870   46.2900 H   0  0  0  0  0  0  0  0  0  0  0  0
   44.0030   36.4310   44.4810 H   0  0  0  0  0  0  0  0  0  0  0  0
   45.9380   36.5130   42.9160 H   0  0  0  0  0  0  0  0  0  0  0  0
   46.7880   34.2430   42.0770 H   0  0  0  0  0  0  0  0  0  0  0  0
   47.4360   34.8390   43.6570 H   0  0  0  0  0  0  0  0  0  0  0  0
   46.4130   32.4580   43.3350 H   0  0  0  0  0  0  0  0  0  0  0  0
   44.9010   33.2620   43.5820 H   0  0  0  0  0  0  0  0  0  0  0  0
   44.4550   35.2720   42.0310 C   0  0  0  0  0  0  0  0  0  0  0  0
   43.4020   34.4770   42.4340 F   0  0  0  0  0  0  0  0  0  0  0  0
   43.9160   36.5090   41.6970 F   0  0  0  0  0  0  0  0  0  0  0  0
   45.1100   34.8040   40.9030 F   0  0  0  0  0  0  0  0  0  0  0  0
   46.8010   30.6160   44.9560 C   0  0  0  0  0  0  0  0  0  0  0  0
   45.8770   29.9270   44.1910 C   0  0  0  0  0  0  0  0  0  0  0  0
   44.8150   29.8720   44.3450 H   0  0  0  0  0  0  0  0  0  0  0  0
   46.2920   29.1970   43.0750 C   0  0  0  0  0  3  0  0  0  0  0  0
   47.6530   29.2010   42.7830 C   0  0  0  0  0  0  0  0  0  0  0  0
   47.9930   28.6400   41.9220 H   0  0  0  0  0  0  0  0  0  0  0  0
   48.5420   29.8880   43.5550 C   0  0  0  0  0  0  0  0  0  0  0  0
   49.6000   29.9000   43.3410 H   0  0  0  0  0  0  0  0  0  0  0  0
   48.1500   30.6210   44.6690 C   0  0  0  0  0  3  0  0  0  0  0  0
  1  8  1  0  0  0  0
  1  6  1  0  0  0  0
  2  1  2  0  0  0  0
  3  2  1  0  0  0  0
  3  4  2  0  0  0  0
  4  5  1  0  0  0  0
  5  6  2  0  0  0  0
  5  7  1  0  0  0  0
  7  9  1  0  0  0  0
 10  7  1  0  0  0  0
 11 12  1  0  0  0  0
 11 17  1  1  0  0  0
 11  2  1  0  0  0  0
 12 18  1  0  0  0  0
 13 19  1  0  0  0  0
 13 12  2  0  0  0  0
 14 20  1  6  0  0  0
 14 13  1  0  0  0  0
 15 14  1  0  0  0  0
 15 22  1  0  0  0  0
 15 16  1  0  0  0  0
 16 11  1  0  0  0  0
 21 15  1  0  0  0  0
 23 16  1  0  0  0  0
 24 16  1  0  0  0  0
 25 26  1  0  0  0  0
 25 14  1  0  0  0  0
 27 25  1  0  0  0  0
 28 25  1  0  0  0  0
 29  3  1  0  0  0  0
 30 31  1  0  0  0  0
 30 29  2  0  0  0  0
 32 30  1  0  0  0  0
 33 32  2  0  0  0  0
 33 35  1  0  0  0  0
 34 33  1  0  0  0  0
 35 37  2  0  0  0  0
 36 35  1  0  0  0  0
 37 29  1  0  0  0  0
M  END
>  <minimizedAffinity>
-5.64957094

>  <minimizedRMSD>
0.219680011

$$$$
