
 OpenBabel03232519053D

 45 46  0  0  1  0  0  0  0  0999 V2000
   44.4210   35.8990   44.6790 C   0  0  0  0  0  0  0  0  0  0  0  0
   44.4100   35.6250   43.3060 C   0  0  0  0  0  0  0  0  0  0  0  0
   45.2530   34.5610   42.9290 C   0  0  0  0  0  0  0  0  0  0  0  0
   45.3150   33.5650   43.8570 N   0  0  0  0  0  0  0  0  0  0  0  0
   45.3720   33.8600   45.1500 C   0  0  0  0  0  0  0  0  0  0  0  0
   44.9050   35.0510   45.5880 N   0  0  0  0  0  0  0  0  0  0  0  0
   45.8830   32.9440   46.0410 N   0  0  0  0  0  0  0  0  0  0  0  0
   45.3330   33.0220   47.4250 C   0  0  0  0  0  0  0  0  0  0  0  0
   46.1400   32.2170   48.4120 C   0  0  0  0  0  0  0  0  0  0  0  0
   47.2840   31.6600   47.9040 O   0  0  0  0  0  0  0  0  0  0  0  0
   46.9470   30.9340   46.7720 C   0  0  0  0  0  0  0  0  0  0  0  0
   46.9030   32.0170   45.6920 C   0  0  1  0  0  0  0  0  0  0  0  0
   43.8710   36.6820   45.2090 H   0  0  0  0  0  0  0  0  0  0  0  0
   43.7560   36.2770   42.7620 H   0  0  0  0  0  0  0  0  0  0  0  0
   46.2690   35.1840   42.9120 H   0  0  0  0  0  0  0  0  0  0  0  0
   45.1540   34.4610   41.8170 H   0  0  0  0  0  0  0  0  0  0  0  0
   45.2750   33.4280   42.9930 H   0  0  0  0  0  0  0  0  0  0  0  0
   45.4010   34.0890   47.7010 H   0  0  0  0  0  0  0  0  0  0  0  0
   44.2620   32.7390   47.4220 H   0  0  0  0  0  0  0  0  0  0  0  0
   46.4670   32.9080   49.2330 H   0  0  0  0  0  0  0  0  0  0  0  0
   45.4630   31.4770   48.8640 H   0  0  0  0  0  0  0  0  0  0  0  0
   45.9310   30.5180   46.9130 H   0  0  0  0  0  0  0  0  0  0  0  0
   47.6920   30.1550   46.5650 H   0  0  0  0  0  0  0  0  0  0  0  0
   47.9490   32.4400   45.7780 H   0  0  0  0  0  0  0  0  0  0  0  0
   46.5940   31.6730   44.3990 N   0  0  1  0  0  0  0  0  0  0  0  0
   45.2630   31.4230   44.1420 C   0  0  0  0  0  0  0  0  0  0  0  0
   45.1520   31.0160   42.6980 C   0  0  0  0  0  0  0  0  0  0  0  0
   46.5010   31.4390   42.1240 C   0  0  0  0  0  0  0  0  0  0  0  0
   47.1870   32.1230   43.3030 C   0  0  1  0  0  0  0  0  0  0  0  0
   45.3750   30.3880   44.5690 H   0  0  0  0  0  0  0  0  0  0  0  0
   44.3870   31.5610   44.7550 H   0  0  0  0  0  0  0  0  0  0  0  0
   44.9140   29.9920   42.4540 H   0  0  0  0  0  0  0  0  0  0  0  0
   44.3110   31.6150   42.2330 H   0  0  0  0  0  0  0  0  0  0  0  0
   47.0190   30.5860   41.6570 H   0  0  0  0  0  0  0  0  0  0  0  0
   46.3290   32.1250   41.2720 H   0  0  0  0  0  0  0  0  0  0  0  0
   47.8540   31.2040   43.5330 H   0  0  0  0  0  0  0  0  0  0  0  0
   48.4810   32.7110   42.9320 C   0  0  0  0  0  0  0  0  0  0  0  0
   48.7570   34.0920   42.9400 C   0  0  0  0  0  0  0  0  0  0  0  0
   47.9390   34.7640   43.2410 H   0  0  0  0  0  0  0  0  0  0  0  0
   49.9470   34.6690   42.6100 C   0  0  0  0  0  0  0  0  0  0  0  0
   50.9470   33.7970   42.2400 C   0  0  0  0  0  0  0  0  0  0  0  0
   51.9030   34.2380   41.9720 H   0  0  0  0  0  0  0  0  0  0  0  0
   50.8060   32.4280   42.1900 C   0  0  0  0  0  0  0  0  0  0  0  0
   51.6370   31.8050   41.8900 H   0  0  0  0  0  0  0  0  0  0  0  0
   49.5570   31.9620   42.5470 C   0  0  0  0  0  0  0  0  0  0  0  0
  1 13  1  0  0  0  0
  1  6  2  0  0  0  0
  2  1  1  0  0  0  0
  4  5  2  0  0  0  0
  5  6  1  0  0  0  0
  5  7  1  0  0  0  0
  7  8  1  0  0  0  0
  8 18  1  0  0  0  0
  8  9  1  0  0  0  0
  9 21  1  0  0  0  0
  9 20  1  0  0  0  0
 10  9  1  0  0  0  0
 11 22  1  0  0  0  0
 11 10  1  0  0  0  0
 12 24  1  6  0  0  0
 12  7  1  0  0  0  0
 12 11  1  0  0  0  0
 14  2  1  0  0  0  0
 15  3  1  0  0  0  0
 16  3  1  0  0  0  0
 17  4  1  0  0  0  0
 19  8  1  0  0  0  0
 23 11  1  0  0  0  0
 25 26  1  6  0  0  0
 25 12  1  0  0  0  0
 26 30  1  0  0  0  0
 26 31  1  0  0  0  0
 27 26  1  0  0  0  0
 28 27  1  0  0  0  0
 28 29  1  0  0  0  0
 29 36  1  1  0  0  0
 29 25  1  0  0  0  0
 32 27  1  0  0  0  0
 33 27  1  0  0  0  0
 34 28  1  0  0  0  0
 35 28  1  0  0  0  0
 37 38  1  0  0  0  0
 37 29  1  0  0  0  0
 38 39  1  0  0  0  0
 40 38  2  0  0  0  0
 41 40  1  0  0  0  0
 42 41  1  0  0  0  0
 43 41  2  0  0  0  0
 43 45  1  0  0  0  0
 44 43  1  0  0  0  0
 45 37  2  0  0  0  0
M  END
>  <minimizedAffinity>
-5.91506529

>  <minimizedRMSD>
1.08059525

$$$$
