
 OpenBabel03232518183D

 31 33  0  0  1  0  0  0  0  0999 V2000
   43.8690   35.0010   41.6060 C   0  0  2  0  0  0  0  0  0  0  0  0
   42.3460   34.7610   41.4670 C   0  0  0  0  0  0  0  0  0  0  0  0
   42.2380   35.1160   39.9770 C   0  0  1  0  0  0  0  0  0  0  0  0
   43.3930   34.3330   39.4060 C   0  0  0  0  0  0  0  0  0  0  0  0
   44.3980   34.1550   40.5350 C   0  0  0  0  0  0  0  0  0  0  0  0
   43.9600   36.0940   41.3470 H   0  0  0  0  0  0  0  0  0  0  0  0
   41.7790   35.4600   42.0830 H   0  0  0  0  0  0  0  0  0  0  0  0
   42.1720   33.6960   41.6400 H   0  0  0  0  0  0  0  0  0  0  0  0
   42.4950   36.1930   39.9120 H   0  0  0  0  0  0  0  0  0  0  0  0
   43.0620   33.3320   39.1010 H   0  0  0  0  0  0  0  0  0  0  0  0
   43.8700   34.9020   38.5780 H   0  0  0  0  0  0  0  0  0  0  0  0
   45.4210   34.3960   40.1910 H   0  0  0  0  0  0  0  0  0  0  0  0
   44.3970   33.0840   40.8930 H   0  0  0  0  0  0  0  0  0  0  0  0
   44.1840   35.7640   43.9120 C   0  0  0  0  0  0  0  0  0  0  0  0
   44.3570   34.7420   42.9640 C   0  0  0  0  0  0  0  0  0  0  0  0
   45.0120   33.5390   43.3540 C   0  0  0  0  0  0  0  0  0  0  0  0
   45.4370   33.4480   44.6410 N   0  0  0  0  0  0  0  0  0  0  0  0
   45.2540   34.4550   45.5430 C   0  0  0  0  0  0  0  0  0  0  0  0
   44.6290   35.6080   45.1740 N   0  0  0  0  0  0  0  0  0  0  0  0
   43.6950   36.6900   43.6640 H   0  0  0  0  0  0  0  0  0  0  0  0
   45.1340   32.7790   42.6220 H   0  0  0  0  0  0  0  0  0  0  0  0
   45.6100   34.3450   46.5670 H   0  0  0  0  0  0  0  0  0  0  0  0
   40.9360   34.7560   39.4090 C   0  0  0  0  0  0  0  0  0  0  0  0
   40.5430   34.7430   38.0850 C   0  0  0  0  0  0  0  0  0  0  0  0
   41.3270   35.0470   37.3900 H   0  0  0  0  0  0  0  0  0  0  0  0
   39.2900   34.3840   37.6750 C   0  0  0  0  0  0  0  0  0  0  0  0
   38.3420   34.0080   38.6180 C   0  0  0  0  0  0  0  0  0  0  0  0
   37.3330   33.7120   38.3770 H   0  0  0  0  0  0  0  0  0  0  0  0
   38.6890   34.0040   39.9620 C   0  0  0  0  0  0  0  0  0  0  0  0
   37.9600   33.7120   40.7230 H   0  0  0  0  0  0  0  0  0  0  0  0
   39.9590   34.3720   40.3330 C   0  0  0  0  0  0  0  0  0  0  0  0
  1  6  1  6  0  0  0
  1 15  1  0  0  0  0
  2  1  1  0  0  0  0
  2  8  1  0  0  0  0
  2  7  1  0  0  0  0
  3  9  1  6  0  0  0
  3  2  1  0  0  0  0
  4  3  1  0  0  0  0
  4  5  1  0  0  0  0
  5 13  1  0  0  0  0
  5  1  1  0  0  0  0
 10  4  1  0  0  0  0
 11  4  1  0  0  0  0
 12  5  1  0  0  0  0
 14 19  1  0  0  0  0
 15 16  1  0  0  0  0
 15 14  2  0  0  0  0
 16 17  2  0  0  0  0
 17 18  1  0  0  0  0
 18 22  1  0  0  0  0
 19 18  2  0  0  0  0
 20 14  1  0  0  0  0
 21 16  1  0  0  0  0
 23  3  1  0  0  0  0
 23 31  1  0  0  0  0
 24 23  2  0  0  0  0
 25 24  1  0  0  0  0
 26 24  1  0  0  0  0
 26 27  2  0  0  0  0
 27 29  1  0  0  0  0
 28 27  1  0  0  0  0
 29 31  2  0  0  0  0
 29 30  1  0  0  0  0
M  END
>  <minimizedAffinity>
-5.81856298

>  <minimizedRMSD>
0.601658463

$$$$
