
 OpenBabel03232519033D

 31 33  0  0  1  0  0  0  0  0999 V2000
   44.4640   35.9890   44.7590 C   0  0  0  0  0  0  0  0  0  0  0  0
   44.9130   35.8930   43.4220 C   0  0  0  0  0  0  0  0  0  0  0  0
   45.7050   34.8000   43.1050 C   0  0  0  0  0  0  0  0  0  0  0  0
   45.9990   33.8960   44.0890 N   0  0  0  0  0  0  0  0  0  0  0  0
   45.5600   34.0130   45.3430 C   0  0  0  0  0  0  0  0  0  0  0  0
   44.7990   35.0520   45.6740 N   0  0  0  0  0  0  0  0  0  0  0  0
   45.9080   33.0340   46.3040 N   0  0  0  0  0  0  0  0  0  0  0  0
   45.1540   33.0590   47.5400 C   0  0  0  0  0  0  0  0  0  0  0  0
   45.6330   32.0760   48.5630 C   0  0  0  0  0  0  0  0  0  0  0  0
   46.9230   31.6280   48.2990 O   0  0  0  0  0  0  0  0  0  0  0  0
   46.8800   30.9870   47.0780 C   0  0  0  0  0  0  0  0  0  0  0  0
   46.9680   32.0760   46.0280 C   0  0  1  0  0  0  0  0  0  0  0  0
   43.8350   36.8550   45.0160 H   0  0  0  0  0  0  0  0  0  0  0  0
   44.6400   36.6460   42.7000 H   0  0  0  0  0  0  0  0  0  0  0  0
   46.0790   34.6710   42.0990 H   0  0  0  0  0  0  0  0  0  0  0  0
   44.0610   32.9170   47.3170 H   0  0  0  0  0  0  0  0  0  0  0  0
   45.2580   34.0770   47.9730 H   0  0  0  0  0  0  0  0  0  0  0  0
   45.4960   32.4950   49.5730 H   0  0  0  0  0  0  0  0  0  0  0  0
   44.9860   31.1700   48.4530 H   0  0  0  0  0  0  0  0  0  0  0  0
   45.9590   30.3720   46.9730 H   0  0  0  0  0  0  0  0  0  0  0  0
   47.8080   30.3750   46.9920 H   0  0  0  0  0  0  0  0  0  0  0  0
   47.9110   32.6290   46.2330 H   0  0  0  0  0  0  0  0  0  0  0  0
   46.9360   31.5260   44.6570 C   0  0  0  0  0  0  0  0  0  0  0  0
   47.9880   31.7750   43.7980 C   0  0  0  0  0  0  0  0  0  0  0  0
   48.8520   32.3570   44.0670 H   0  0  0  0  0  0  0  0  0  0  0  0
   47.9510   31.2560   42.5090 C   0  0  0  0  0  0  0  0  0  0  0  0
   46.8240   30.5030   42.1720 C   0  0  0  0  0  0  0  0  0  0  0  0
   46.8210   30.1080   41.1610 H   0  0  0  0  0  0  0  0  0  0  0  0
   45.7620   30.2420   43.0150 C   0  0  0  0  0  0  0  0  0  0  0  0
   44.9250   29.6540   42.6920 H   0  0  0  0  0  0  0  0  0  0  0  0
   45.8370   30.7730   44.2780 C   0  0  0  0  0  0  0  0  0  0  0  0
  1 13  1  0  0  0  0
  1  6  1  0  0  0  0
  2  1  2  0  0  0  0
  3  2  1  0  0  0  0
  3  4  2  0  0  0  0
  4  5  1  0  0  0  0
  5  6  2  0  0  0  0
  5  7  1  0  0  0  0
  7  8  1  0  0  0  0
  8 17  1  0  0  0  0
  8  9  1  0  0  0  0
  9 18  1  0  0  0  0
 10  9  1  0  0  0  0
 11 10  1  0  0  0  0
 12 22  1  1  0  0  0
 12  7  1  0  0  0  0
 12 11  1  0  0  0  0
 14  2  1  0  0  0  0
 15  3  1  0  0  0  0
 16  8  1  0  0  0  0
 19  9  1  0  0  0  0
 20 11  1  0  0  0  0
 21 11  1  0  0  0  0
 23 12  1  0  0  0  0
 24 25  1  0  0  0  0
 24 23  2  0  0  0  0
 26 24  1  0  0  0  0
 27 26  2  0  0  0  0
 27 29  1  0  0  0  0
 28 27  1  0  0  0  0
 29 31  2  0  0  0  0
 30 29  1  0  0  0  0
 31 23  1  0  0  0  0
M  END
>  <minimizedAffinity>
-4.76506853

>  <minimizedRMSD>
0.794687808

$$$$
