
 OpenBabel03232520473D

 41 44  0  0  0  0  0  0  0  0999 V2000
   46.5620   34.4580   42.4670 C   0  0  0  0  0  0  0  0  0  0  0  0
   47.8680   34.8290   42.3300 C   0  0  0  0  0  0  0  0  0  0  0  0
   48.5350   34.8220   41.1110 C   0  0  0  0  0  0  0  0  0  0  0  0
   47.8380   34.4130   39.9590 C   0  0  0  0  0  0  0  0  0  0  0  0
   46.5230   34.0380   40.0800 C   0  0  0  0  0  0  0  0  0  0  0  0
   45.9100   34.0660   41.3300 C   0  0  0  0  0  0  0  0  0  0  0  0
   48.4930   35.1600   43.1580 H   0  0  0  0  0  0  0  0  0  0  0  0
   49.5700   35.1170   41.0120 H   0  0  0  0  0  0  0  0  0  0  0  0
   48.2850   34.3810   38.9750 H   0  0  0  0  0  0  0  0  0  0  0  0
   45.9660   33.7210   39.2110 H   0  0  0  0  0  0  0  0  0  0  0  0
   44.5480   33.6710   41.4170 N   0  0  0  0  0  0  0  0  0  0  0  0
   43.7180   34.6720   40.9800 C   0  0  0  0  0  0  0  0  0  0  0  0
   42.3360   34.5030   40.9770 C   0  0  0  0  0  0  0  0  0  0  0  0
   41.8420   33.2910   41.4320 C   0  0  0  0  0  0  0  0  0  0  0  0
   40.6010   33.0740   41.4550 O   0  0  0  0  0  0  0  0  0  0  0  0
   42.6890   32.3430   41.8490 N   0  0  0  0  0  0  0  0  0  0  0  0
   44.0200   32.5170   41.8480 C   0  0  0  0  0  0  0  0  0  0  0  0
   44.8790   31.6890   42.2190 O   0  0  0  0  0  0  0  0  0  0  0  0
   44.0310   35.6310   40.6170 H   0  0  0  0  0  0  0  0  0  0  0  0
   42.3660   31.4010   42.2060 H   0  0  0  0  0  0  0  0  0  0  0  0
   41.4090   35.5690   40.5090 C   0  0  0  0  0  0  0  0  0  0  0  0
   41.8510   36.2580   39.7900 H   0  0  0  0  0  0  0  0  0  0  0  0
   40.4860   35.0920   40.1330 H   0  0  0  0  0  0  0  0  0  0  0  0
   41.1730   36.1770   41.4280 H   0  0  0  0  0  0  0  0  0  0  0  0
   44.5360   35.3940   45.4900 C   0  0  0  0  0  0  0  0  0  0  0  0
   45.0450   35.4600   44.1920 C   0  0  0  0  0  0  0  0  0  0  0  0
   45.9620   34.5030   43.7800 C   0  0  0  0  0  0  0  0  0  0  0  0
   46.3130   33.5570   44.6660 N   0  0  0  0  0  0  0  0  0  0  0  0
   45.8050   33.5120   45.9230 C   0  0  0  0  0  0  0  0  0  0  0  0
   44.9220   34.4290   46.3250 N   0  0  0  0  0  0  0  0  0  0  0  0
   43.8260   36.1730   45.7420 H   0  0  0  0  0  0  0  0  0  0  0  0
   44.8040   36.1930   43.4340 H   0  0  0  0  0  0  0  0  0  0  0  0
   46.2570   32.4380   46.8060 C   0  0  0  0  0  0  0  0  0  0  0  0
   47.2390   32.6740   47.7450 C   0  0  0  0  0  0  0  0  0  0  0  0
   47.7030   33.6450   47.8590 H   0  0  0  0  0  0  0  0  0  0  0  0
   47.6670   31.6580   48.5810 C   0  0  0  0  0  3  0  0  0  0  0  0
   47.0540   30.4350   48.4060 C   0  0  0  0  0  0  0  0  0  0  0  0
   47.3810   29.6360   49.0520 H   0  0  0  0  0  0  0  0  0  0  0  0
   46.0630   30.1210   47.4870 C   0  0  0  0  0  0  0  0  0  0  0  0
   45.6610   29.1260   47.4450 H   0  0  0  0  0  0  0  0  0  0  0  0
   45.6740   31.1890   46.6720 C   0  0  0  0  0  3  0  0  0  0  0  0
  1 27  1  0  0  0  0
  2  1  1  0  0  0  0
  2  7  1  0  0  0  0
  3  2  2  0  0  0  0
  4  5  2  0  0  0  0
  4  3  1  0  0  0  0
  5  6  1  0  0  0  0
  6 11  1  0  0  0  0
  6  1  2  0  0  0  0
  8  3  1  0  0  0  0
  9  4  1  0  0  0  0
 10  5  1  0  0  0  0
 11 17  1  0  0  0  0
 12 11  1  0  0  0  0
 13 12  2  0  0  0  0
 13 14  1  0  0  0  0
 14 15  2  0  0  0  0
 14 16  1  0  0  0  0
 16 20  1  0  0  0  0
 17 16  1  0  0  0  0
 17 18  2  0  0  0  0
 19 12  1  0  0  0  0
 21 13  1  0  0  0  0
 21 24  1  0  0  0  0
 22 21  1  0  0  0  0
 23 21  1  0  0  0  0
 25 31  1  0  0  0  0
 25 30  1  0  0  0  0
 26 25  2  0  0  0  0
 27 26  1  0  0  0  0
 27 28  2  0  0  0  0
 28 29  1  0  0  0  0
 29 30  2  0  0  0  0
 29 33  1  0  0  0  0
 32 26  1  0  0  0  0
 33 34  1  0  0  0  0
 34 35  1  0  0  0  0
 34 36  2  0  0  0  0
 37 36  1  0  0  0  0
 37 38  1  0  0  0  0
 39 37  2  0  0  0  0
 40 39  1  0  0  0  0
 41 33  2  0  0  0  0
 41 39  1  0  0  0  0
M  END
>  <minimizedAffinity>
-7.37431908

>  <minimizedRMSD>
0.674565256

$$$$
