
 OpenBabel03232520473D

 41 44  0  0  0  0  0  0  0  0999 V2000
   46.5640   34.4590   42.4670 C   0  0  0  0  0  0  0  0  0  0  0  0
   47.8690   34.8300   42.3300 C   0  0  0  0  0  0  0  0  0  0  0  0
   48.5370   34.8240   41.1110 C   0  0  0  0  0  0  0  0  0  0  0  0
   47.8400   34.4150   39.9590 C   0  0  0  0  0  0  0  0  0  0  0  0
   46.5260   34.0400   40.0800 C   0  0  0  0  0  0  0  0  0  0  0  0
   45.9120   34.0670   41.3290 C   0  0  0  0  0  0  0  0  0  0  0  0
   48.4940   35.1610   43.1590 H   0  0  0  0  0  0  0  0  0  0  0  0
   49.5720   35.1200   41.0130 H   0  0  0  0  0  0  0  0  0  0  0  0
   48.2880   34.3830   38.9760 H   0  0  0  0  0  0  0  0  0  0  0  0
   45.9690   33.7230   39.2110 H   0  0  0  0  0  0  0  0  0  0  0  0
   44.5510   33.6720   41.4170 N   0  0  0  0  0  0  0  0  0  0  0  0
   43.7200   34.6710   40.9790 C   0  0  0  0  0  0  0  0  0  0  0  0
   42.3380   34.5030   40.9760 C   0  0  0  0  0  0  0  0  0  0  0  0
   41.8440   33.2900   41.4300 C   0  0  0  0  0  0  0  0  0  0  0  0
   40.6040   33.0720   41.4530 O   0  0  0  0  0  0  0  0  0  0  0  0
   42.6920   32.3420   41.8480 N   0  0  0  0  0  0  0  0  0  0  0  0
   44.0230   32.5170   41.8470 C   0  0  0  0  0  0  0  0  0  0  0  0
   44.8820   31.6890   42.2190 O   0  0  0  0  0  0  0  0  0  0  0  0
   44.0330   35.6300   40.6160 H   0  0  0  0  0  0  0  0  0  0  0  0
   42.3690   31.4000   42.2050 H   0  0  0  0  0  0  0  0  0  0  0  0
   41.4110   35.5670   40.5070 C   0  0  0  0  0  0  0  0  0  0  0  0
   41.8530   36.2570   39.7890 H   0  0  0  0  0  0  0  0  0  0  0  0
   40.4880   35.0910   40.1310 H   0  0  0  0  0  0  0  0  0  0  0  0
   41.1740   36.1750   41.4270 H   0  0  0  0  0  0  0  0  0  0  0  0
   44.5370   35.3940   45.4900 C   0  0  0  0  0  0  0  0  0  0  0  0
   45.0460   35.4600   44.1920 C   0  0  0  0  0  0  0  0  0  0  0  0
   45.9640   34.5030   43.7800 C   0  0  0  0  0  0  0  0  0  0  0  0
   46.3140   33.5570   44.6650 N   0  0  0  0  0  0  0  0  0  0  0  0
   45.8060   33.5120   45.9220 C   0  0  0  0  0  0  0  0  0  0  0  0
   44.9230   34.4290   46.3250 N   0  0  0  0  0  0  0  0  0  0  0  0
   43.8270   36.1720   45.7420 H   0  0  0  0  0  0  0  0  0  0  0  0
   44.8050   36.1940   43.4350 H   0  0  0  0  0  0  0  0  0  0  0  0
   46.2580   32.4370   46.8050 C   0  0  0  0  0  0  0  0  0  0  0  0
   47.2390   32.6730   47.7460 C   0  0  0  0  0  0  0  0  0  0  0  0
   47.7010   33.6450   47.8610 H   0  0  0  0  0  0  0  0  0  0  0  0
   47.6660   31.6570   48.5810 C   0  0  0  0  0  3  0  0  0  0  0  0
   47.0550   30.4340   48.4040 C   0  0  0  0  0  0  0  0  0  0  0  0
   47.3810   29.6350   49.0510 H   0  0  0  0  0  0  0  0  0  0  0  0
   46.0650   30.1200   47.4840 C   0  0  0  0  0  0  0  0  0  0  0  0
   45.6630   29.1240   47.4410 H   0  0  0  0  0  0  0  0  0  0  0  0
   45.6750   31.1880   46.6690 C   0  0  0  0  0  3  0  0  0  0  0  0
  1 27  1  0  0  0  0
  2  1  1  0  0  0  0
  2  7  1  0  0  0  0
  3  2  2  0  0  0  0
  4  5  2  0  0  0  0
  4  3  1  0  0  0  0
  5  6  1  0  0  0  0
  6 11  1  0  0  0  0
  6  1  2  0  0  0  0
  8  3  1  0  0  0  0
  9  4  1  0  0  0  0
 10  5  1  0  0  0  0
 11 17  1  0  0  0  0
 12 11  1  0  0  0  0
 13 12  2  0  0  0  0
 13 14  1  0  0  0  0
 14 15  2  0  0  0  0
 14 16  1  0  0  0  0
 16 20  1  0  0  0  0
 17 16  1  0  0  0  0
 17 18  2  0  0  0  0
 19 12  1  0  0  0  0
 21 13  1  0  0  0  0
 21 24  1  0  0  0  0
 22 21  1  0  0  0  0
 23 21  1  0  0  0  0
 25 31  1  0  0  0  0
 25 30  1  0  0  0  0
 26 25  2  0  0  0  0
 27 26  1  0  0  0  0
 27 28  2  0  0  0  0
 28 29  1  0  0  0  0
 29 30  2  0  0  0  0
 29 33  1  0  0  0  0
 32 26  1  0  0  0  0
 33 34  1  0  0  0  0
 34 35  1  0  0  0  0
 34 36  2  0  0  0  0
 37 36  1  0  0  0  0
 37 38  1  0  0  0  0
 39 37  2  0  0  0  0
 40 39  1  0  0  0  0
 41 33  2  0  0  0  0
 41 39  1  0  0  0  0
M  END
>  <minimizedAffinity>
-7.37460661

>  <minimizedRMSD>
0.663372099

$$$$
