
 OpenBabel03232520583D

 37 39  0  0  1  0  0  0  0  0999 V2000
   45.3940   32.8840   47.5800 C   0  0  0  0  0  0  0  0  0  0  0  0
   45.8760   32.6250   46.3300 C   0  0  0  0  0  0  0  0  0  0  0  0
   46.0750   31.2650   46.0430 C   0  0  0  0  0  0  0  0  0  0  0  0
   45.8120   30.2850   46.9230 N   0  0  0  0  0  0  0  0  0  0  0  0
   45.3260   30.5950   48.1770 C   0  0  0  0  0  0  0  0  0  0  0  0
   45.1310   31.8740   48.4720 N   0  0  0  0  0  0  0  0  0  0  0  0
   45.0690   29.5760   49.1350 N   0  0  0  0  0  0  0  0  0  0  0  0
   45.2150   33.9030   47.8870 H   0  0  0  0  0  0  0  0  0  0  0  0
   44.4480   29.7920   49.9270 H   0  0  0  0  0  0  0  0  0  0  0  0
   45.5080   28.6270   49.0260 H   0  0  0  0  0  0  0  0  0  0  0  0
   46.1040   33.5900   45.3060 C   0  0  2  0  0  0  0  0  0  0  0  0
   44.9640   34.6850   45.5230 C   0  0  0  0  0  0  0  0  0  0  0  0
   44.7340   35.6170   44.4500 C   0  0  0  0  0  0  0  0  0  0  0  0
   45.5060   35.5380   43.2310 C   0  0  1  0  0  0  0  0  0  0  0  0
   46.5870   34.5190   43.1820 C   0  0  0  0  0  0  0  0  0  0  0  0
   46.0860   33.2830   43.9160 C   0  0  0  0  0  0  0  0  0  0  0  0
   46.9370   34.2920   45.6180 H   0  0  0  0  0  0  0  0  0  0  0  0
   44.2750   34.9220   46.3190 H   0  0  0  0  0  0  0  0  0  0  0  0
   43.9800   36.3860   44.5240 H   0  0  0  0  0  0  0  0  0  0  0  0
   45.9490   36.5310   43.0070 H   0  0  0  0  0  0  0  0  0  0  0  0
   46.8670   34.2920   42.1560 H   0  0  0  0  0  0  0  0  0  0  0  0
   47.4640   34.8780   43.7600 H   0  0  0  0  0  0  0  0  0  0  0  0
   46.5000   32.4810   43.3790 H   0  0  0  0  0  0  0  0  0  0  0  0
   44.9660   33.2500   43.6010 H   0  0  0  0  0  0  0  0  0  0  0  0
   44.5150   35.2720   42.0690 C   0  0  0  0  0  0  0  0  0  0  0  0
   43.4550   34.4710   42.4420 F   0  0  0  0  0  0  0  0  0  0  0  0
   43.9780   36.5070   41.7220 F   0  0  0  0  0  0  0  0  0  0  0  0
   45.2030   34.8110   40.9590 F   0  0  0  0  0  0  0  0  0  0  0  0
   46.6280   30.5790   44.8840 C   0  0  0  0  0  0  0  0  0  0  0  0
   48.0070   30.5120   44.9580 C   0  0  0  0  0  0  0  0  0  0  0  0
   48.6380   30.8950   45.7380 H   0  0  0  0  0  0  0  0  0  0  0  0
   48.7370   29.8910   43.9400 C   0  0  0  0  0  3  0  0  0  0  0  0
   48.0150   29.3570   42.8750 C   0  0  0  0  0  0  0  0  0  0  0  0
   48.5650   28.8720   42.0790 H   0  0  0  0  0  0  0  0  0  0  0  0
   46.6550   29.4380   42.8290 C   0  0  0  0  0  0  0  0  0  0  0  0
   46.0830   29.0280   42.0100 H   0  0  0  0  0  0  0  0  0  0  0  0
   45.9110   30.0510   43.8300 C   0  0  0  0  0  3  0  0  0  0  0  0
  1  8  1  0  0  0  0
  1  6  1  0  0  0  0
  2  1  2  0  0  0  0
  3  2  1  0  0  0  0
  3  4  2  0  0  0  0
  4  5  1  0  0  0  0
  5  6  2  0  0  0  0
  5  7  1  0  0  0  0
  7  9  1  0  0  0  0
 10  7  1  0  0  0  0
 11 12  1  0  0  0  0
 11 17  1  1  0  0  0
 11  2  1  0  0  0  0
 12 18  1  0  0  0  0
 13 19  1  0  0  0  0
 13 12  2  0  0  0  0
 14 20  1  6  0  0  0
 14 13  1  0  0  0  0
 15 14  1  0  0  0  0
 15 22  1  0  0  0  0
 15 16  1  0  0  0  0
 16 11  1  0  0  0  0
 21 15  1  0  0  0  0
 23 16  1  0  0  0  0
 24 16  1  0  0  0  0
 25 26  1  0  0  0  0
 25 14  1  0  0  0  0
 27 25  1  0  0  0  0
 28 25  1  0  0  0  0
 29 30  1  0  0  0  0
 29  3  1  0  0  0  0
 30 31  1  0  0  0  0
 32 30  2  0  0  0  0
 33 32  1  0  0  0  0
 34 33  1  0  0  0  0
 35 33  2  0  0  0  0
 35 37  1  0  0  0  0
 36 35  1  0  0  0  0
 37 29  2  0  0  0  0
M  END
>  <minimizedAffinity>
-5.71363831

>  <minimizedRMSD>
0.560896516

$$$$
