
 OpenBabel03232520573D

 37 39  0  0  1  0  0  0  0  0999 V2000
   45.3940   32.8850   47.5790 C   0  0  0  0  0  0  0  0  0  0  0  0
   45.8750   32.6260   46.3300 C   0  0  0  0  0  0  0  0  0  0  0  0
   46.0750   31.2660   46.0420 C   0  0  0  0  0  0  0  0  0  0  0  0
   45.8110   30.2850   46.9220 N   0  0  0  0  0  0  0  0  0  0  0  0
   45.3260   30.5950   48.1760 C   0  0  0  0  0  0  0  0  0  0  0  0
   45.1300   31.8750   48.4720 N   0  0  0  0  0  0  0  0  0  0  0  0
   45.0690   29.5760   49.1340 N   0  0  0  0  0  0  0  0  0  0  0  0
   45.2140   33.9030   47.8870 H   0  0  0  0  0  0  0  0  0  0  0  0
   44.4480   29.7920   49.9260 H   0  0  0  0  0  0  0  0  0  0  0  0
   45.5080   28.6270   49.0250 H   0  0  0  0  0  0  0  0  0  0  0  0
   46.1040   33.5910   45.3060 C   0  0  2  0  0  0  0  0  0  0  0  0
   44.9640   34.6850   45.5230 C   0  0  0  0  0  0  0  0  0  0  0  0
   44.7330   35.6180   44.4500 C   0  0  0  0  0  0  0  0  0  0  0  0
   45.5050   35.5380   43.2310 C   0  0  1  0  0  0  0  0  0  0  0  0
   46.5860   34.5190   43.1820 C   0  0  0  0  0  0  0  0  0  0  0  0
   46.0850   33.2840   43.9160 C   0  0  0  0  0  0  0  0  0  0  0  0
   46.9370   34.2930   45.6170 H   0  0  0  0  0  0  0  0  0  0  0  0
   44.2750   34.9230   46.3190 H   0  0  0  0  0  0  0  0  0  0  0  0
   43.9800   36.3870   44.5240 H   0  0  0  0  0  0  0  0  0  0  0  0
   45.9490   36.5320   43.0070 H   0  0  0  0  0  0  0  0  0  0  0  0
   46.8660   34.2930   42.1560 H   0  0  0  0  0  0  0  0  0  0  0  0
   47.4640   34.8780   43.7590 H   0  0  0  0  0  0  0  0  0  0  0  0
   46.4990   32.4820   43.3790 H   0  0  0  0  0  0  0  0  0  0  0  0
   44.9660   33.2510   43.6010 H   0  0  0  0  0  0  0  0  0  0  0  0
   44.5140   35.2740   42.0690 C   0  0  0  0  0  0  0  0  0  0  0  0
   43.4540   34.4740   42.4420 F   0  0  0  0  0  0  0  0  0  0  0  0
   43.9790   36.5090   41.7210 F   0  0  0  0  0  0  0  0  0  0  0  0
   45.2020   34.8100   40.9590 F   0  0  0  0  0  0  0  0  0  0  0  0
   46.6280   30.5800   44.8830 C   0  0  0  0  0  0  0  0  0  0  0  0
   48.0070   30.5130   44.9560 C   0  0  0  0  0  0  0  0  0  0  0  0
   48.6380   30.8970   45.7370 H   0  0  0  0  0  0  0  0  0  0  0  0
   48.7370   29.8920   43.9390 C   0  0  0  0  0  3  0  0  0  0  0  0
   48.0150   29.3580   42.8750 C   0  0  0  0  0  0  0  0  0  0  0  0
   48.5630   28.8740   42.0780 H   0  0  0  0  0  0  0  0  0  0  0  0
   46.6540   29.4380   42.8280 C   0  0  0  0  0  0  0  0  0  0  0  0
   46.0820   29.0280   42.0090 H   0  0  0  0  0  0  0  0  0  0  0  0
   45.9100   30.0510   43.8290 C   0  0  0  0  0  3  0  0  0  0  0  0
  1  8  1  0  0  0  0
  1  6  1  0  0  0  0
  2  1  2  0  0  0  0
  3  2  1  0  0  0  0
  3  4  2  0  0  0  0
  4  5  1  0  0  0  0
  5  6  2  0  0  0  0
  5  7  1  0  0  0  0
  7  9  1  0  0  0  0
 10  7  1  0  0  0  0
 11 12  1  0  0  0  0
 11 17  1  1  0  0  0
 11  2  1  0  0  0  0
 12 18  1  0  0  0  0
 13 19  1  0  0  0  0
 13 12  2  0  0  0  0
 14 20  1  6  0  0  0
 14 13  1  0  0  0  0
 15 14  1  0  0  0  0
 15 22  1  0  0  0  0
 15 16  1  0  0  0  0
 16 11  1  0  0  0  0
 21 15  1  0  0  0  0
 23 16  1  0  0  0  0
 24 16  1  0  0  0  0
 25 26  1  0  0  0  0
 25 14  1  0  0  0  0
 27 25  1  0  0  0  0
 28 25  1  0  0  0  0
 29 30  1  0  0  0  0
 29  3  1  0  0  0  0
 30 31  1  0  0  0  0
 32 30  2  0  0  0  0
 33 32  1  0  0  0  0
 34 33  1  0  0  0  0
 35 33  2  0  0  0  0
 35 37  1  0  0  0  0
 36 35  1  0  0  0  0
 37 29  2  0  0  0  0
M  END
>  <minimizedAffinity>
-5.71291542

>  <minimizedRMSD>
0.739614546

$$$$
