
 OpenBabel03232520473D

 42 45  0  0  0  0  0  0  0  0999 V2000
   45.7080   34.1880   40.8020 C   0  0  0  0  0  0  0  0  0  0  0  0
   46.9760   34.2140   40.3140 C   0  0  0  0  0  0  0  0  0  0  0  0
   47.3220   33.6500   39.0890 C   0  0  0  0  0  0  0  0  0  0  0  0
   46.3260   33.0300   38.3230 C   0  0  0  0  0  0  0  0  0  0  0  0
   45.0450   32.9990   38.8070 C   0  0  0  0  0  0  0  0  0  0  0  0
   44.7500   33.5780   40.0370 C   0  0  0  0  0  0  0  0  0  0  0  0
   47.7960   34.6790   40.8570 H   0  0  0  0  0  0  0  0  0  0  0  0
   48.3370   33.6810   38.7210 H   0  0  0  0  0  0  0  0  0  0  0  0
   46.5790   32.5820   37.3590 H   0  0  0  0  0  0  0  0  0  0  0  0
   44.2800   32.5140   38.2000 H   0  0  0  0  0  0  0  0  0  0  0  0
   43.4120   33.5280   40.5070 N   0  0  0  0  0  0  0  0  0  0  0  0
   42.6760   34.5560   39.9760 C   0  0  0  0  0  0  0  0  0  0  0  0
   41.3240   34.7020   40.3050 C   0  0  0  0  0  0  0  0  0  0  0  0
   40.7720   33.7720   41.1790 C   0  0  0  0  0  0  0  0  0  0  0  0
   39.5630   33.8480   41.5140 O   0  0  0  0  0  0  0  0  0  0  0  0
   41.5400   32.7860   41.6690 N   0  0  0  0  0  0  0  0  0  0  0  0
   42.8310   32.6610   41.3450 C   0  0  0  0  0  0  0  0  0  0  0  0
   43.6140   31.7740   41.7540 O   0  0  0  0  0  0  0  0  0  0  0  0
   43.0250   35.3030   39.3040 H   0  0  0  0  0  0  0  0  0  0  0  0
   41.1700   32.0700   42.3240 H   0  0  0  0  0  0  0  0  0  0  0  0
   40.4840   35.7980   39.7560 C   0  0  0  0  0  0  0  0  0  0  0  0
   41.1360   36.6740   39.5530 H   0  0  0  0  0  0  0  0  0  0  0  0
   39.9240   35.5270   38.8520 H   0  0  0  0  0  0  0  0  0  0  0  0
   39.8250   36.1440   40.6030 H   0  0  0  0  0  0  0  0  0  0  0  0
   44.7800   36.5920   43.5460 C   0  0  0  0  0  0  0  0  0  0  0  0
   44.9900   36.1080   42.2570 C   0  0  0  0  0  0  0  0  0  0  0  0
   45.4510   34.8050   42.0890 C   0  0  0  0  0  0  0  0  0  0  0  0
   45.6690   34.0770   43.1970 N   0  0  0  0  0  0  0  0  0  0  0  0
   45.4560   34.5710   44.4360 C   0  0  0  0  0  0  0  0  0  0  0  0
   45.0150   35.8200   44.6040 N   0  0  0  0  0  0  0  0  0  0  0  0
   44.4280   37.5910   43.6520 H   0  0  0  0  0  0  0  0  0  0  0  0
   44.8250   36.6670   41.3570 H   0  0  0  0  0  0  0  0  0  0  0  0
   46.1280   32.1590   47.8470 C   0  0  0  0  0  0  0  0  0  0  0  0
   45.1200   33.0880   47.8520 C   0  0  0  0  0  0  0  0  0  0  0  0
   44.9380   33.8470   46.7280 C   0  0  0  0  0  0  0  0  0  0  0  0
   45.7140   33.7230   45.5960 C   0  0  0  0  0  0  0  0  0  0  0  0
   46.7280   32.7920   45.5850 C   0  0  0  0  0  0  0  0  0  0  0  0
   46.9240   32.0160   46.7190 C   0  0  0  0  0  0  0  0  0  0  0  0
   46.2440   32.1030   50.3650 H   0  0  0  0  0  0  0  0  0  0  0  0
   46.3280   31.2090   49.3040 S   0  0  0  0  0  0  0  0  0  0  0  0
   45.3320   30.1080   49.4000 O   0  0  0  0  0  0  0  0  0  0  0  0
   47.7470   30.6690   49.3930 O   0  0  0  0  0  0  0  0  0  0  0  0
  1 27  1  0  0  0  0
  2  1  1  0  0  0  0
  2  7  1  0  0  0  0
  3  2  2  0  0  0  0
  4  5  2  0  0  0  0
  4  3  1  0  0  0  0
  5  6  1  0  0  0  0
  6 11  1  0  0  0  0
  6  1  2  0  0  0  0
  8  3  1  0  0  0  0
  9  4  1  0  0  0  0
 10  5  1  0  0  0  0
 11 17  1  0  0  0  0
 12 13  2  0  0  0  0
 12 11  1  0  0  0  0
 13 14  1  0  0  0  0
 14 15  2  0  0  0  0
 14 16  1  0  0  0  0
 16 20  1  0  0  0  0
 17 16  1  0  0  0  0
 17 18  2  0  0  0  0
 19 12  1  0  0  0  0
 21 13  1  0  0  0  0
 21 24  1  0  0  0  0
 22 21  1  0  0  0  0
 23 21  1  0  0  0  0
 25 31  1  0  0  0  0
 25 30  1  0  0  0  0
 26 25  2  0  0  0  0
 27 26  1  0  0  0  0
 27 28  2  0  0  0  0
 28 29  1  0  0  0  0
 29 30  2  0  0  0  0
 29 36  1  0  0  0  0
 32 26  1  0  0  0  0
 33 34  1  0  0  0  0
 33 40  1  0  0  0  0
 35 34  2  0  0  0  0
 36 35  1  0  0  0  0
 37 36  2  0  0  0  0
 37 38  1  0  0  0  0
 38 33  2  0  0  0  0
 40 42  2  0  0  0  0
 40 41  2  0  0  0  0
 40 39  1  0  0  0  0
M  END
>  <minimizedAffinity>
-6.77539587

>  <minimizedRMSD>
1.51181173

$$$$
