
 OpenBabel03232519403D

 39 42  0  0  0  0  0  0  0  0999 V2000
   46.5600   32.8610   38.8370 C   0  0  0  0  0  0  0  0  0  0  0  0
   45.5030   33.1480   37.9930 C   0  0  0  0  0  0  0  0  0  0  0  0
   45.1190   32.2980   36.9950 C   0  0  0  0  0  0  0  0  0  0  0  0
   45.7960   31.1050   36.8050 C   0  0  0  0  0  0  0  0  0  0  0  0
   46.8420   30.8310   37.6490 C   0  0  0  0  0  0  0  0  0  0  0  0
   47.2710   31.6820   38.6920 C   0  0  0  0  0  0  0  0  0  0  0  0
   45.0190   34.1000   38.1990 H   0  0  0  0  0  0  0  0  0  0  0  0
   44.2820   32.5970   36.3790 H   0  0  0  0  0  0  0  0  0  0  0  0
   45.4730   30.4560   36.0160 H   0  0  0  0  0  0  0  0  0  0  0  0
   47.3160   29.8690   37.4250 H   0  0  0  0  0  0  0  0  0  0  0  0
   46.6270   34.4010   42.0510 N   0  0  0  0  0  0  0  0  0  0  0  0
   47.6980   35.2560   41.9440 C   0  0  0  0  0  0  0  0  0  0  0  0
   48.4280   35.3410   40.7840 C   0  0  0  0  0  0  0  0  0  0  0  0
   48.0430   34.5280   39.7220 C   0  0  0  0  0  0  0  0  0  0  0  0
   48.6880   34.5760   38.6360 O   0  0  0  0  0  0  0  0  0  0  0  0
   46.9910   33.7120   39.8800 N   0  0  0  0  0  0  0  0  0  0  0  0
   46.3000   33.6550   41.0240 C   0  0  0  0  0  0  0  0  0  0  0  0
   45.3220   32.9320   41.2430 O   0  0  0  0  0  0  0  0  0  0  0  0
   48.0550   35.9120   42.7170 H   0  0  0  0  0  0  0  0  0  0  0  0
   49.2770   35.9970   40.6520 H   0  0  0  0  0  0  0  0  0  0  0  0
   44.5840   35.6790   44.8660 C   0  0  0  0  0  0  0  0  0  0  0  0
   45.1710   35.5680   43.5860 C   0  0  0  0  0  0  0  0  0  0  0  0
   46.0380   34.5020   43.3550 C   0  0  0  0  0  0  0  0  0  0  0  0
   46.2900   33.6140   44.3520 N   0  0  0  0  0  0  0  0  0  0  0  0
   45.7070   33.7550   45.5690 C   0  0  0  0  0  0  0  0  0  0  0  0
   44.8670   34.7700   45.8270 N   0  0  0  0  0  0  0  0  0  0  0  0
   43.9050   36.4910   45.0920 H   0  0  0  0  0  0  0  0  0  0  0  0
   44.9440   36.2950   42.8200 H   0  0  0  0  0  0  0  0  0  0  0  0
   46.0350   32.9540   46.2180 H   0  0  0  0  0  0  0  0  0  0  0  0
   50.8530   30.2210   40.4560 C   0  0  0  0  0  0  0  0  0  0  0  0
   50.8650   30.8730   39.2430 C   0  0  0  0  0  0  0  0  0  0  0  0
   49.6430   31.2950   38.7740 C   0  0  0  0  0  0  0  0  0  0  0  0
   48.4010   31.1230   39.4090 C   0  0  0  0  0  0  0  0  0  0  0  0
   48.5050   30.4630   40.6060 C   0  0  0  0  0  0  0  0  0  0  0  0
   49.6820   30.0080   41.1480 C   0  0  0  0  0  0  0  0  0  0  0  0
   52.4570   28.2960   40.8300 H   0  0  0  0  0  0  0  0  0  0  0  0
   52.3440   29.6360   41.1560 S   0  0  0  0  0  0  0  0  0  0  0  0
   53.4950   30.3470   40.5270 O   0  0  0  0  0  0  0  0  0  0  0  0
   52.3190   29.8350   42.6350 O   0  0  0  0  0  0  0  0  0  0  0  0
  1 16  1  0  0  0  0
  2  7  1  0  0  0  0
  2  1  2  0  0  0  0
  3  2  1  0  0  0  0
  4  3  2  0  0  0  0
  4  5  1  0  0  0  0
  5  6  2  0  0  0  0
  6  1  1  0  0  0  0
  6 33  1  0  0  0  0
  8  3  1  0  0  0  0
  9  4  1  0  0  0  0
 10  5  1  0  0  0  0
 11 23  1  0  0  0  0
 12 11  1  0  0  0  0
 12 19  1  0  0  0  0
 13 12  2  0  0  0  0
 14 16  1  0  0  0  0
 14 13  1  0  0  0  0
 15 14  2  0  0  0  0
 16 17  1  0  0  0  0
 17 18  2  0  0  0  0
 17 11  1  0  0  0  0
 20 13  1  0  0  0  0
 21 27  1  0  0  0  0
 21 26  1  0  0  0  0
 22 21  2  0  0  0  0
 23 22  1  0  0  0  0
 23 24  2  0  0  0  0
 24 25  1  0  0  0  0
 25 26  2  0  0  0  0
 25 29  1  0  0  0  0
 28 22  1  0  0  0  0
 30 35  1  0  0  0  0
 30 37  1  0  0  0  0
 31 30  2  0  0  0  0
 32 31  1  0  0  0  0
 32 33  2  0  0  0  0
 33 34  1  0  0  0  0
 34 35  2  0  0  0  0
 36 37  1  0  0  0  0
 37 39  2  0  0  0  0
 38 37  2  0  0  0  0
M  END
>  <minimizedAffinity>
-5.36572266

>  <minimizedRMSD>
1.00190115

$$$$
