
 OpenBabel03232517123D

 33 36  0  0  0  0  0  0  0  0999 V2000
   46.3140   32.7070   46.8440 C   0  0  0  0  0  0  0  0  0  0  0  0
   45.4850   32.6270   47.9760 C   0  0  0  0  0  0  0  0  0  0  0  0
   46.1850   31.7790   48.8240 C   0  0  0  0  0  0  0  0  0  0  0  0
   47.3580   31.3930   48.2060 C   0  0  0  0  0  0  0  0  0  0  0  0
   47.3770   31.9740   47.0370 O   0  0  0  0  0  0  0  0  0  0  0  0
   44.5740   33.1610   47.9980 H   0  0  0  0  0  0  0  0  0  0  0  0
   45.7940   31.5240   49.7870 H   0  0  0  0  0  0  0  0  0  0  0  0
   46.6780   34.0600   43.5700 C   0  0  0  0  0  0  0  0  0  0  0  0
   45.5480   34.7220   44.0280 C   0  0  0  0  0  0  0  0  0  0  0  0
   45.2790   34.2830   45.3240 C   0  0  0  0  0  0  0  0  0  0  0  0
   46.2470   33.3770   45.6050 N   0  0  0  0  0  0  0  0  0  0  0  0
   47.0790   33.2330   44.5820 N   0  0  0  0  0  0  0  0  0  0  0  0
   44.9100   35.4740   43.5390 H   0  0  0  0  0  0  0  0  0  0  0  0
   44.4650   34.6140   45.9500 H   0  0  0  0  0  0  0  0  0  0  0  0
   48.6870   35.3970   40.8040 C   0  0  0  0  0  0  0  0  0  0  0  0
   48.1510   34.7250   39.6970 C   0  0  0  0  0  0  0  0  0  0  0  0
   47.1200   33.8380   39.9300 C   0  0  0  0  0  0  0  0  0  0  0  0
   46.6640   33.6430   41.1950 N   0  0  0  0  0  0  0  0  0  0  0  0
   47.2120   34.3120   42.2330 C   0  0  0  0  0  0  0  0  0  0  0  0
   48.2270   35.2000   42.0840 N   0  0  0  0  0  0  0  0  0  0  0  0
   49.4980   36.1170   40.7480 H   0  0  0  0  0  0  0  0  0  0  0  0
   48.5900   34.9580   38.7390 H   0  0  0  0  0  0  0  0  0  0  0  0
   46.7070   33.3200   39.0760 H   0  0  0  0  0  0  0  0  0  0  0  0
   50.2480   28.9170   49.8910 C   0  0  0  0  0  0  0  0  0  0  0  0
   49.9680   30.1330   50.5210 C   0  0  0  0  0  0  0  0  0  0  0  0
   48.9980   30.9280   49.9260 C   0  0  0  0  0  0  0  0  0  0  0  0
   48.3690   30.5010   48.7750 C   0  0  0  0  0  0  0  0  0  0  0  0
   48.6490   29.3000   48.1550 C   0  0  0  0  0  0  0  0  0  0  0  0
   49.6020   28.5070   48.7290 C   0  0  0  0  0  0  0  0  0  0  0  0
   51.4850   26.6590   49.9990 H   0  0  0  0  0  0  0  0  0  0  0  0
   51.4720   27.8990   50.6270 S   0  0  0  0  0  0  0  0  0  0  0  0
   51.1330   27.6650   52.0710 O   0  0  0  0  0  0  0  0  0  0  0  0
   52.8290   28.5460   50.5920 O   0  0  0  0  0  0  0  0  0  0  0  0
  1  5  1  0  0  0  0
  1  2  2  0  0  0  0
  2  6  1  0  0  0  0
  2  3  1  0  0  0  0
  3  7  1  0  0  0  0
  4 27  1  0  0  0  0
  4  3  2  0  0  0  0
  5  4  1  0  0  0  0
  8  9  1  0  0  0  0
  8 12  2  0  0  0  0
  9 10  2  0  0  0  0
 10 11  1  0  0  0  0
 10 14  1  0  0  0  0
 11  1  1  0  0  0  0
 12 11  1  0  0  0  0
 13  9  1  0  0  0  0
 15 20  1  0  0  0  0
 16 17  1  0  0  0  0
 16 15  2  0  0  0  0
 17 18  2  0  0  0  0
 18 19  1  0  0  0  0
 19  8  1  0  0  0  0
 20 19  2  0  0  0  0
 21 15  1  0  0  0  0
 22 16  1  0  0  0  0
 23 17  1  0  0  0  0
 24 25  1  0  0  0  0
 24 31  1  0  0  0  0
 26 25  2  0  0  0  0
 27 26  1  0  0  0  0
 28 29  1  0  0  0  0
 28 27  2  0  0  0  0
 29 24  2  0  0  0  0
 30 31  1  0  0  0  0
 31 32  2  0  0  0  0
 33 31  2  0  0  0  0
M  END
>  <minimizedAffinity>
-6.22590637

>  <minimizedRMSD>
1.17370462

$$$$
