
 OpenBabel03232520583D

 38 40  0  0  1  0  0  0  0  0999 V2000
   45.3050   32.8680   47.5330 C   0  0  0  0  0  0  0  0  0  0  0  0
   45.8930   32.6280   46.3250 C   0  0  0  0  0  0  0  0  0  0  0  0
   46.2130   31.2850   46.0810 C   0  0  0  0  0  0  0  0  0  0  0  0
   45.9600   30.3030   46.9610 N   0  0  0  0  0  0  0  0  0  0  0  0
   45.3630   30.5920   48.1700 C   0  0  0  0  0  0  0  0  0  0  0  0
   45.0500   31.8550   48.4310 N   0  0  0  0  0  0  0  0  0  0  0  0
   45.1020   29.5700   49.1200 N   0  0  0  0  0  0  0  0  0  0  0  0
   45.0270   33.8720   47.8090 H   0  0  0  0  0  0  0  0  0  0  0  0
   45.9770   29.6970   49.7030 H   0  0  0  0  0  0  0  0  0  0  0  0
   44.1860   29.2600   48.7140 H   0  0  0  0  0  0  0  0  0  0  0  0
   46.1160   33.5980   45.3030 C   0  0  2  0  0  0  0  0  0  0  0  0
   44.9760   34.6910   45.5230 C   0  0  0  0  0  0  0  0  0  0  0  0
   44.7420   35.6150   44.4440 C   0  0  0  0  0  0  0  0  0  0  0  0
   45.5040   35.5360   43.2210 C   0  0  1  0  0  0  0  0  0  0  0  0
   46.5880   34.5270   43.1780 C   0  0  0  0  0  0  0  0  0  0  0  0
   46.0970   33.2900   43.9160 C   0  0  0  0  0  0  0  0  0  0  0  0
   46.9480   34.3010   45.6150 H   0  0  0  0  0  0  0  0  0  0  0  0
   44.2900   34.9350   46.3140 H   0  0  0  0  0  0  0  0  0  0  0  0
   44.0110   36.3740   44.4910 H   0  0  0  0  0  0  0  0  0  0  0  0
   45.9370   36.5310   42.9790 H   0  0  0  0  0  0  0  0  0  0  0  0
   47.4550   34.9110   43.7560 H   0  0  0  0  0  0  0  0  0  0  0  0
   46.9170   34.3360   42.1590 H   0  0  0  0  0  0  0  0  0  0  0  0
   44.9810   33.2490   43.5980 H   0  0  0  0  0  0  0  0  0  0  0  0
   46.5260   32.4880   43.3880 H   0  0  0  0  0  0  0  0  0  0  0  0
   44.5110   35.2590   42.0640 C   0  0  0  0  0  0  0  0  0  0  0  0
   43.4610   34.4490   42.4420 F   0  0  0  0  0  0  0  0  0  0  0  0
   43.9560   36.4910   41.7250 F   0  0  0  0  0  0  0  0  0  0  0  0
   45.1980   34.8100   40.9500 F   0  0  0  0  0  0  0  0  0  0  0  0
   48.0450   29.4650   42.6920 C   0  0  0  0  0  0  0  0  0  0  0  0
   48.8290   30.0650   43.6470 C   0  0  0  0  0  3  0  0  0  0  0  0
   48.2610   30.6330   44.7680 C   0  0  0  0  0  3  0  0  0  0  0  0
   46.8930   30.6210   44.9750 C   0  0  0  0  0  0  0  0  0  0  0  0
   46.1650   29.9850   43.9450 C   0  0  0  0  0  3  0  0  0  0  0  0
   46.6730   29.4020   42.8070 C   0  0  0  0  0  3  0  0  0  0  0  0
   47.9080   27.7760   40.7340 H   0  0  0  0  0  0  0  0  0  0  0  0
   48.7470   28.7300   41.2470 S   0  0  0  0  0  0  0  0  0  0  0  0
   48.9150   29.8230   40.2430 O   0  0  0  0  0  0  0  0  0  0  0  0
   50.0390   28.0620   41.5780 O   0  0  0  0  0  0  0  0  0  0  0  0
  1  8  1  0  0  0  0
  1  6  1  0  0  0  0
  2  1  2  0  0  0  0
  3  2  1  0  0  0  0
  3  4  2  0  0  0  0
  4  5  1  0  0  0  0
  5  6  2  0  0  0  0
  5  7  1  0  0  0  0
  7  9  1  0  0  0  0
 10  7  1  0  0  0  0
 11 12  1  0  0  0  0
 11 17  1  1  0  0  0
 11  2  1  0  0  0  0
 12 18  1  0  0  0  0
 13 19  1  0  0  0  0
 13 12  2  0  0  0  0
 14 20  1  6  0  0  0
 14 13  1  0  0  0  0
 15 14  1  0  0  0  0
 15 21  1  0  0  0  0
 15 16  1  0  0  0  0
 16 11  1  0  0  0  0
 22 15  1  0  0  0  0
 23 16  1  0  0  0  0
 24 16  1  0  0  0  0
 25 26  1  0  0  0  0
 25 14  1  0  0  0  0
 27 25  1  0  0  0  0
 28 25  1  0  0  0  0
 29 34  2  0  0  0  0
 29 30  1  0  0  0  0
 30 31  2  0  0  0  0
 31 32  1  0  0  0  0
 32  3  1  0  0  0  0
 33 32  2  0  0  0  0
 34 33  1  0  0  0  0
 35 36  1  0  0  0  0
 36 38  2  0  0  0  0
 36 29  1  0  0  0  0
 37 36  2  0  0  0  0
M  END
>  <minimizedAffinity>
-5.45405817

>  <minimizedRMSD>
0.132540718

$$$$
