
 OpenBabel03232520573D

 38 40  0  0  1  0  0  0  0  0999 V2000
   45.3050   32.8670   47.5340 C   0  0  0  0  0  0  0  0  0  0  0  0
   45.8930   32.6270   46.3270 C   0  0  0  0  0  0  0  0  0  0  0  0
   46.2130   31.2840   46.0820 C   0  0  0  0  0  0  0  0  0  0  0  0
   45.9600   30.3010   46.9620 N   0  0  0  0  0  0  0  0  0  0  0  0
   45.3630   30.5910   48.1710 C   0  0  0  0  0  0  0  0  0  0  0  0
   45.0510   31.8550   48.4330 N   0  0  0  0  0  0  0  0  0  0  0  0
   45.1020   29.5690   49.1220 N   0  0  0  0  0  0  0  0  0  0  0  0
   45.0280   33.8710   47.8100 H   0  0  0  0  0  0  0  0  0  0  0  0
   45.9770   29.6960   49.7040 H   0  0  0  0  0  0  0  0  0  0  0  0
   44.1850   29.2600   48.7160 H   0  0  0  0  0  0  0  0  0  0  0  0
   46.1170   33.5970   45.3050 C   0  0  2  0  0  0  0  0  0  0  0  0
   44.9760   34.6890   45.5240 C   0  0  0  0  0  0  0  0  0  0  0  0
   44.7420   35.6140   44.4450 C   0  0  0  0  0  0  0  0  0  0  0  0
   45.5050   35.5350   43.2220 C   0  0  1  0  0  0  0  0  0  0  0  0
   46.5890   34.5260   43.1800 C   0  0  0  0  0  0  0  0  0  0  0  0
   46.0980   33.2880   43.9180 C   0  0  0  0  0  0  0  0  0  0  0  0
   46.9490   34.3000   45.6170 H   0  0  0  0  0  0  0  0  0  0  0  0
   44.2900   34.9340   46.3150 H   0  0  0  0  0  0  0  0  0  0  0  0
   44.0110   36.3730   44.4910 H   0  0  0  0  0  0  0  0  0  0  0  0
   45.9380   36.5300   42.9800 H   0  0  0  0  0  0  0  0  0  0  0  0
   47.4560   34.9100   43.7580 H   0  0  0  0  0  0  0  0  0  0  0  0
   46.9190   34.3350   42.1610 H   0  0  0  0  0  0  0  0  0  0  0  0
   44.9830   33.2470   43.5990 H   0  0  0  0  0  0  0  0  0  0  0  0
   46.5270   32.4870   43.3890 H   0  0  0  0  0  0  0  0  0  0  0  0
   44.5120   35.2580   42.0650 C   0  0  0  0  0  0  0  0  0  0  0  0
   43.4630   34.4470   42.4420 F   0  0  0  0  0  0  0  0  0  0  0  0
   43.9560   36.4890   41.7260 F   0  0  0  0  0  0  0  0  0  0  0  0
   45.2000   34.8080   40.9510 F   0  0  0  0  0  0  0  0  0  0  0  0
   48.0450   29.4640   42.6950 C   0  0  0  0  0  0  0  0  0  0  0  0
   48.8290   30.0610   43.6500 C   0  0  0  0  0  3  0  0  0  0  0  0
   48.2620   30.6300   44.7700 C   0  0  0  0  0  3  0  0  0  0  0  0
   46.8930   30.6200   44.9760 C   0  0  0  0  0  0  0  0  0  0  0  0
   46.1650   29.9850   43.9460 C   0  0  0  0  0  3  0  0  0  0  0  0
   46.6740   29.4020   42.8080 C   0  0  0  0  0  3  0  0  0  0  0  0
   47.9100   27.7710   40.7400 H   0  0  0  0  0  0  0  0  0  0  0  0
   48.7480   28.7280   41.2490 S   0  0  0  0  0  0  0  0  0  0  0  0
   48.9090   29.8210   40.2430 O   0  0  0  0  0  0  0  0  0  0  0  0
   50.0420   28.0660   41.5790 O   0  0  0  0  0  0  0  0  0  0  0  0
  1  8  1  0  0  0  0
  1  6  1  0  0  0  0
  2  1  2  0  0  0  0
  3  2  1  0  0  0  0
  3  4  2  0  0  0  0
  4  5  1  0  0  0  0
  5  6  2  0  0  0  0
  5  7  1  0  0  0  0
  7  9  1  0  0  0  0
 10  7  1  0  0  0  0
 11 12  1  0  0  0  0
 11 17  1  1  0  0  0
 11  2  1  0  0  0  0
 12 18  1  0  0  0  0
 13 19  1  0  0  0  0
 13 12  2  0  0  0  0
 14 20  1  6  0  0  0
 14 13  1  0  0  0  0
 15 14  1  0  0  0  0
 15 21  1  0  0  0  0
 15 16  1  0  0  0  0
 16 11  1  0  0  0  0
 22 15  1  0  0  0  0
 23 16  1  0  0  0  0
 24 16  1  0  0  0  0
 25 26  1  0  0  0  0
 25 14  1  0  0  0  0
 27 25  1  0  0  0  0
 28 25  1  0  0  0  0
 29 34  2  0  0  0  0
 29 30  1  0  0  0  0
 30 31  2  0  0  0  0
 31 32  1  0  0  0  0
 32  3  1  0  0  0  0
 33 32  2  0  0  0  0
 34 33  1  0  0  0  0
 35 36  1  0  0  0  0
 36 38  2  0  0  0  0
 36 29  1  0  0  0  0
 37 36  2  0  0  0  0
M  END
>  <minimizedAffinity>
-5.45464993

>  <minimizedRMSD>
0.37591204

$$$$
