
 OpenBabel03232520473D

 42 45  0  0  0  0  0  0  0  0999 V2000
   47.2380   34.1940   42.7980 C   0  0  0  0  0  0  0  0  0  0  0  0
   48.5070   34.6780   42.8150 C   0  0  0  0  0  0  0  0  0  0  0  0
   49.1810   35.0630   41.6590 C   0  0  0  0  0  0  0  0  0  0  0  0
   48.5290   34.9480   40.4250 C   0  0  0  0  0  0  0  0  0  0  0  0
   47.2490   34.4610   40.3980 C   0  0  0  0  0  0  0  0  0  0  0  0
   46.6180   34.0900   41.5810 C   0  0  0  0  0  0  0  0  0  0  0  0
   49.0710   34.7930   43.7390 H   0  0  0  0  0  0  0  0  0  0  0  0
   50.1910   35.4450   41.6960 H   0  0  0  0  0  0  0  0  0  0  0  0
   49.0420   35.2450   39.5060 H   0  0  0  0  0  0  0  0  0  0  0  0
   46.7530   34.3780   39.4300 H   0  0  0  0  0  0  0  0  0  0  0  0
   45.2920   33.5900   41.5160 N   0  0  0  0  0  0  0  0  0  0  0  0
   44.3900   34.6210   41.4620 C   0  0  0  0  0  0  0  0  0  0  0  0
   43.0170   34.3580   41.3930 C   0  0  0  0  0  0  0  0  0  0  0  0
   42.6190   33.0260   41.3820 C   0  0  0  0  0  0  0  0  0  0  0  0
   41.4010   32.7230   41.3210 O   0  0  0  0  0  0  0  0  0  0  0  0
   43.5460   32.0570   41.4370 N   0  0  0  0  0  0  0  0  0  0  0  0
   44.8540   32.3250   41.5030 C   0  0  0  0  0  0  0  0  0  0  0  0
   45.7800   31.4850   41.5560 O   0  0  0  0  0  0  0  0  0  0  0  0
   44.6150   35.6610   41.4660 H   0  0  0  0  0  0  0  0  0  0  0  0
   43.2940   31.0490   41.4310 H   0  0  0  0  0  0  0  0  0  0  0  0
   42.0000   35.4400   41.3330 C   0  0  0  0  0  0  0  0  0  0  0  0
   42.4010   36.3310   41.8620 H   0  0  0  0  0  0  0  0  0  0  0  0
   41.6930   35.7130   40.3150 H   0  0  0  0  0  0  0  0  0  0  0  0
   41.1430   35.1030   41.9830 H   0  0  0  0  0  0  0  0  0  0  0  0
   45.2290   34.1710   45.9820 C   0  0  0  0  0  0  0  0  0  0  0  0
   45.7580   34.6380   44.7800 C   0  0  0  0  0  0  0  0  0  0  0  0
   46.6240   33.8220   44.0580 C   0  0  0  0  0  0  0  0  0  0  0  0
   46.9050   32.6110   44.5680 N   0  0  0  0  0  0  0  0  0  0  0  0
   46.3770   32.1820   45.7350 C   0  0  0  0  0  0  0  0  0  0  0  0
   45.5460   32.9600   46.4330 N   0  0  0  0  0  0  0  0  0  0  0  0
   44.5700   34.8110   46.5180 H   0  0  0  0  0  0  0  0  0  0  0  0
   45.5510   35.5980   44.3510 H   0  0  0  0  0  0  0  0  0  0  0  0
   47.3180   28.2920   47.1090 C   0  0  0  0  0  0  0  0  0  0  0  0
   46.3350   28.4680   46.1700 C   0  0  0  0  0  3  0  0  0  0  0  0
   46.0630   29.7440   45.7530 C   0  0  0  0  0  3  0  0  0  0  0  0
   46.7260   30.8530   46.2300 C   0  0  0  0  0  0  0  0  0  0  0  0
   47.7150   30.6820   47.1730 C   0  0  0  0  0  3  0  0  0  0  0  0
   48.0000   29.3940   47.6040 C   0  0  0  0  0  3  0  0  0  0  0  0
   47.8450   25.9160   46.4510 H   0  0  0  0  0  0  0  0  0  0  0  0
   47.6350   26.6470   47.6150 S   0  0  0  0  0  0  0  0  0  0  0  0
   48.7780   26.5580   48.5620 O   0  0  0  0  0  0  0  0  0  0  0  0
   46.3810   26.0260   48.2140 O   0  0  0  0  0  0  0  0  0  0  0  0
  1  2  1  0  0  0  0
  1 27  1  0  0  0  0
  2  7  1  0  0  0  0
  3  8  1  0  0  0  0
  3  2  2  0  0  0  0
  4  3  1  0  0  0  0
  5  4  2  0  0  0  0
  5  6  1  0  0  0  0
  6  1  2  0  0  0  0
  9  4  1  0  0  0  0
 10  5  1  0  0  0  0
 11  6  1  0  0  0  0
 12 19  1  0  0  0  0
 12 11  1  0  0  0  0
 13 12  2  0  0  0  0
 14 13  1  0  0  0  0
 14 16  1  0  0  0  0
 15 14  2  0  0  0  0
 16 17  1  0  0  0  0
 17 11  1  0  0  0  0
 17 18  2  0  0  0  0
 20 16  1  0  0  0  0
 21 13  1  0  0  0  0
 21 22  1  0  0  0  0
 21 24  1  0  0  0  0
 23 21  1  0  0  0  0
 25 30  1  0  0  0  0
 25 31  1  0  0  0  0
 26 25  2  0  0  0  0
 27 28  2  0  0  0  0
 27 26  1  0  0  0  0
 28 29  1  0  0  0  0
 29 36  1  0  0  0  0
 29 30  2  0  0  0  0
 32 26  1  0  0  0  0
 33 38  1  0  0  0  0
 33 40  1  0  0  0  0
 34 33  2  0  0  0  0
 35 34  1  0  0  0  0
 35 36  2  0  0  0  0
 36 37  1  0  0  0  0
 37 38  2  0  0  0  0
 39 40  1  0  0  0  0
 40 42  2  0  0  0  0
 40 41  2  0  0  0  0
M  END
>  <minimizedAffinity>
-6.02437305

>  <minimizedRMSD>
2.25939488

$$$$
