
 OpenBabel03232520173D

 35 37  0  0  0  0  0  0  0  0999 V2000
   47.6640   34.1010   42.1680 C   0  0  0  0  0  0  0  0  0  0  0  0
   48.5540   35.2270   41.7320 C   0  0  0  0  0  0  0  0  0  0  0  0
   49.8710   35.3260   42.4020 C   0  0  0  0  0  0  0  0  0  0  0  0
   50.5730   34.0120   42.5330 C   0  0  0  0  0  0  0  0  0  0  0  0
   49.7140   32.8160   42.1780 C   0  0  0  0  0  0  0  0  0  0  0  0
   48.3990   33.0220   42.8780 C   0  0  0  0  0  0  0  0  0  0  0  0
   48.0320   36.2090   41.8510 H   0  0  0  0  0  0  0  0  0  0  0  0
   48.7600   35.1310   40.6340 H   0  0  0  0  0  0  0  0  0  0  0  0
   50.4520   36.0960   41.8750 H   0  0  0  0  0  0  0  0  0  0  0  0
   49.6930   35.7050   43.4370 H   0  0  0  0  0  0  0  0  0  0  0  0
   51.0170   33.8570   43.5430 H   0  0  0  0  0  0  0  0  0  0  0  0
   51.4310   34.0070   41.8300 H   0  0  0  0  0  0  0  0  0  0  0  0
   50.2740   31.9150   42.5560 H   0  0  0  0  0  0  0  0  0  0  0  0
   49.6510   32.8240   41.0790 H   0  0  0  0  0  0  0  0  0  0  0  0
   47.8240   32.1300   43.0630 H   0  0  0  0  0  0  0  0  0  0  0  0
   48.6590   33.4390   43.8960 H   0  0  0  0  0  0  0  0  0  0  0  0
   45.2850   34.4110   45.0020 C   0  0  0  0  0  0  0  0  0  0  0  0
   44.5760   35.5720   44.6690 C   0  0  0  0  0  0  0  0  0  0  0  0
   44.9050   36.2430   43.4940 C   0  0  0  0  0  0  0  0  0  0  0  0
   45.9060   35.7160   42.7430 N   0  0  0  0  0  0  0  0  0  0  0  0
   46.5850   34.6030   43.0640 C   0  0  0  0  0  0  0  0  0  0  0  0
   46.2580   33.9560   44.2120 N   0  0  0  0  0  0  0  0  0  0  0  0
   45.0130   33.8930   45.9330 H   0  0  0  0  0  0  0  0  0  0  0  0
   43.7910   35.9890   45.2500 H   0  0  0  0  0  0  0  0  0  0  0  0
   44.4440   37.1450   43.1150 H   0  0  0  0  0  0  0  0  0  0  0  0
   45.7450   32.7480   38.5530 C   0  0  0  0  0  0  0  0  0  0  0  0
   46.8580   33.5600   38.5420 C   0  0  0  0  0  0  0  0  0  0  0  0
   47.4510   33.9780   39.7160 C   0  0  0  0  0  0  0  0  0  0  0  0
   46.9430   33.5930   40.9400 C   0  0  0  0  0  0  0  0  0  0  0  0
   45.8150   32.7700   40.9860 C   0  0  0  0  0  0  0  0  0  0  0  0
   45.2540   32.3770   39.7820 C   0  0  0  0  0  0  0  0  0  0  0  0
   43.5610   32.4820   37.2910 H   0  0  0  0  0  0  0  0  0  0  0  0
   44.8720   32.1300   37.1800 S   0  0  0  0  0  0  0  0  0  0  0  0
   45.4190   32.7790   35.9420 O   0  0  0  0  0  0  0  0  0  0  0  0
   45.0040   30.6450   37.1160 O   0  0  0  0  0  0  0  0  0  0  0  0
  1  6  1  0  0  0  0
  1 21  1  0  0  0  0
  2  7  1  0  0  0  0
  2  1  1  0  0  0  0
  2  3  1  0  0  0  0
  3  4  1  0  0  0  0
  3 10  1  0  0  0  0
  4 11  1  0  0  0  0
  5  4  1  0  0  0  0
  5 13  1  0  0  0  0
  5  6  1  0  0  0  0
  6 15  1  0  0  0  0
  6 16  1  0  0  0  0
  8  2  1  0  0  0  0
  9  3  1  0  0  0  0
 12  4  1  0  0  0  0
 14  5  1  0  0  0  0
 17 23  1  0  0  0  0
 18 17  1  0  0  0  0
 18 24  1  0  0  0  0
 19 18  2  0  0  0  0
 20 21  2  0  0  0  0
 20 19  1  0  0  0  0
 21 22  1  0  0  0  0
 22 17  2  0  0  0  0
 25 19  1  0  0  0  0
 26 31  1  0  0  0  0
 27 26  2  0  0  0  0
 27 28  1  0  0  0  0
 28 29  2  0  0  0  0
 29 30  1  0  0  0  0
 29  1  1  0  0  0  0
 31 30  2  0  0  0  0
 33 32  1  0  0  0  0
 33 26  1  0  0  0  0
 34 33  2  0  0  0  0
 35 33  2  0  0  0  0
M  END
>  <minimizedAffinity>
-5.58901405

>  <minimizedRMSD>
0.957024992

$$$$
