
 OpenBabel03232520213D

 42 45  0  0  0  0  0  0  0  0999 V2000
   47.6630   34.2760   42.0550 C   0  0  0  0  0  0  0  0  0  0  0  0
   48.6090   35.4030   41.7490 C   0  0  0  0  0  0  0  0  0  0  0  0
   49.8960   35.3700   42.4560 C   0  0  0  0  0  0  0  0  0  0  0  0
   50.5400   34.0260   42.5270 C   0  0  0  0  0  0  0  0  0  0  0  0
   49.6620   32.8970   42.0470 C   0  0  0  0  0  0  0  0  0  0  0  0
   48.2970   33.0830   42.6960 C   0  0  0  0  0  0  0  0  0  0  0  0
   48.8170   35.4690   40.6520 H   0  0  0  0  0  0  0  0  0  0  0  0
   48.0800   36.3620   42.0120 H   0  0  0  0  0  0  0  0  0  0  0  0
   49.7510   35.7600   43.5000 H   0  0  0  0  0  0  0  0  0  0  0  0
   50.5800   36.0830   41.9770 H   0  0  0  0  0  0  0  0  0  0  0  0
   50.8410   33.7690   43.5800 H   0  0  0  0  0  0  0  0  0  0  0  0
   51.4620   34.0060   41.9180 H   0  0  0  0  0  0  0  0  0  0  0  0
   50.1450   31.9630   42.3850 H   0  0  0  0  0  0  0  0  0  0  0  0
   49.5610   32.9380   40.9510 H   0  0  0  0  0  0  0  0  0  0  0  0
   47.6800   32.1910   42.4410 H   0  0  0  0  0  0  0  0  0  0  0  0
   48.4150   33.1490   43.7840 H   0  0  0  0  0  0  0  0  0  0  0  0
   45.1980   34.4690   44.8180 C   0  0  0  0  0  0  0  0  0  0  0  0
   44.5160   35.6720   44.5470 C   0  0  0  0  0  0  0  0  0  0  0  0
   44.9100   36.3930   43.4350 C   0  0  0  0  0  0  0  0  0  0  0  0
   45.9210   35.9090   42.6700 N   0  0  0  0  0  0  0  0  0  0  0  0
   46.5620   34.7450   42.9540 C   0  0  0  0  0  0  0  0  0  0  0  0
   46.1840   34.0230   44.0490 N   0  0  0  0  0  0  0  0  0  0  0  0
   44.8610   33.9350   45.6960 H   0  0  0  0  0  0  0  0  0  0  0  0
   43.7100   36.0810   45.1370 H   0  0  0  0  0  0  0  0  0  0  0  0
   44.4990   37.3220   43.0900 H   0  0  0  0  0  0  0  0  0  0  0  0
   47.0590   33.8000   40.7600 C   0  0  0  0  0  0  0  0  0  0  0  0
   45.8350   33.3910   40.2790 C   0  0  0  0  0  0  0  0  0  0  0  0
   45.7410   33.0360   38.9910 C   0  0  0  0  0  0  0  0  0  0  0  0
   46.8110   33.0720   38.1730 C   0  0  0  0  0  0  0  0  0  0  0  0
   48.1390   33.6710   39.3000 S   0  0  0  0  0  0  0  0  0  0  0  0
   45.0670   33.4100   41.0390 H   0  0  0  0  0  0  0  0  0  0  0  0
   44.7950   32.7090   38.5710 H   0  0  0  0  0  0  0  0  0  0  0  0
   47.6840   32.2500   34.2140 C   0  0  0  0  0  0  0  0  0  0  0  0
   48.6720   32.6970   35.0480 C   0  0  0  0  0  0  0  0  0  0  0  0
   48.2990   32.9540   36.3720 C   0  0  0  0  0  0  0  0  0  0  0  0
   47.0310   32.7740   36.8230 C   0  0  0  0  0  0  0  0  0  0  0  0
   46.0260   32.3230   35.9920 C   0  0  0  0  0  0  0  0  0  0  0  0
   46.3800   32.0620   34.6640 C   0  0  0  0  0  0  0  0  0  0  0  0
   46.8730   31.6090   31.8300 H   0  0  0  0  0  0  0  0  0  0  0  0
   48.0260   31.8930   32.5300 S   0  0  0  0  0  0  0  0  0  0  0  0
   48.7750   33.0210   31.8670 O   0  0  0  0  0  0  0  0  0  0  0  0
   48.8800   30.6460   32.4330 O   0  0  0  0  0  0  0  0  0  0  0  0
  1  6  1  0  0  0  0
  1 21  1  0  0  0  0
  2  8  1  0  0  0  0
  2  1  1  0  0  0  0
  2  3  1  0  0  0  0
  3  4  1  0  0  0  0
  3  9  1  0  0  0  0
  4 11  1  0  0  0  0
  5 13  1  0  0  0  0
  5  4  1  0  0  0  0
  5  6  1  0  0  0  0
  6 16  1  0  0  0  0
  7  2  1  0  0  0  0
 10  3  1  0  0  0  0
 12  4  1  0  0  0  0
 14  5  1  0  0  0  0
 15  6  1  0  0  0  0
 17 23  1  0  0  0  0
 18 17  1  0  0  0  0
 18 24  1  0  0  0  0
 19 18  2  0  0  0  0
 20 21  2  0  0  0  0
 20 19  1  0  0  0  0
 21 22  1  0  0  0  0
 22 17  2  0  0  0  0
 25 19  1  0  0  0  0
 26  1  1  0  0  0  0
 27 26  2  0  0  0  0
 27 31  1  0  0  0  0
 28 27  1  0  0  0  0
 29 28  2  0  0  0  0
 29 30  1  0  0  0  0
 30 26  1  0  0  0  0
 32 28  1  0  0  0  0
 33 38  2  0  0  0  0
 33 34  1  0  0  0  0
 34 35  2  0  0  0  0
 35 36  1  0  0  0  0
 36 29  1  0  0  0  0
 37 36  2  0  0  0  0
 38 37  1  0  0  0  0
 39 40  1  0  0  0  0
 40 33  1  0  0  0  0
 41 40  2  0  0  0  0
 42 40  2  0  0  0  0
M  END
>  <minimizedAffinity>
-6.54586172

>  <minimizedRMSD>
0.784243762

$$$$
