
 OpenBabel03232514553D

 35 37  0  0  1  0  0  0  0  0999 V2000
   47.1620   33.9040   41.7230 C   0  0  1  0  0  0  0  0  0  0  0  0
   47.9450   34.6310   40.6510 C   0  0  0  0  0  0  0  0  0  0  0  0
   48.8850   35.6700   41.1210 C   0  0  0  0  0  0  0  0  0  0  0  0
   49.6800   35.2730   42.3300 C   0  0  0  0  0  0  0  0  0  0  0  0
   49.2510   33.9700   42.9340 C   0  0  0  0  0  0  0  0  0  0  0  0
   47.7340   34.0090   43.0770 C   0  0  2  0  0  0  0  0  0  0  0  0
   47.1110   32.8530   41.3840 H   0  0  0  0  0  0  0  0  0  0  0  0
   47.1960   35.1230   39.9710 H   0  0  0  0  0  0  0  0  0  0  0  0
   48.5100   33.9280   39.9820 H   0  0  0  0  0  0  0  0  0  0  0  0
   48.2730   36.5840   41.3620 H   0  0  0  0  0  0  0  0  0  0  0  0
   49.5330   35.9550   40.2850 H   0  0  0  0  0  0  0  0  0  0  0  0
   50.7570   35.2830   42.0550 H   0  0  0  0  0  0  0  0  0  0  0  0
   49.5470   36.0450   43.1430 H   0  0  0  0  0  0  0  0  0  0  0  0
   49.4580   33.1430   42.2110 H   0  0  0  0  0  0  0  0  0  0  0  0
   49.7470   33.8320   43.8960 H   0  0  0  0  0  0  0  0  0  0  0  0
   47.5120   35.0360   43.4930 H   0  0  0  0  0  0  0  0  0  0  0  0
   44.1370   35.9150   42.4800 C   0  0  0  0  0  0  0  0  0  0  0  0
   43.1360   35.2180   41.7710 C   0  0  0  0  0  0  0  0  0  0  0  0
   43.5060   34.0690   41.0380 C   0  0  0  0  0  0  0  0  0  0  0  0
   44.8210   33.6900   41.0520 N   0  0  0  0  0  0  0  0  0  0  0  0
   45.7410   34.3930   41.7470 C   0  0  0  0  0  0  0  0  0  0  0  0
   45.4040   35.5020   42.4600 N   0  0  0  0  0  0  0  0  0  0  0  0
   43.8000   36.7810   43.0220 H   0  0  0  0  0  0  0  0  0  0  0  0
   42.0910   35.4940   41.7420 H   0  0  0  0  0  0  0  0  0  0  0  0
   42.7950   33.4850   40.4710 H   0  0  0  0  0  0  0  0  0  0  0  0
   46.1800   31.3380   45.9870 C   0  0  0  0  0  0  0  0  0  0  0  0
   46.0920   32.7060   46.1200 C   0  0  0  0  0  0  0  0  0  0  0  0
   46.6170   33.5280   45.1400 C   0  0  0  0  0  0  0  0  0  0  0  0
   47.2360   33.0070   44.0130 C   0  0  0  0  0  0  0  0  0  0  0  0
   47.3260   31.6280   43.8780 C   0  0  0  0  0  0  0  0  0  0  0  0
   46.7920   30.8170   44.8760 C   0  0  0  0  0  0  0  0  0  0  0  0
   46.5260   29.5800   47.8210 H   0  0  0  0  0  0  0  0  0  0  0  0
   45.5170   30.2850   47.2280 S   0  0  0  0  0  0  0  0  0  0  0  0
   44.5190   29.3690   46.5710 O   0  0  0  0  0  0  0  0  0  0  0  0
   44.7550   31.1340   48.2310 O   0  0  0  0  0  0  0  0  0  0  0  0
  1  7  1  6  0  0  0
  1 21  1  0  0  0  0
  1  6  1  0  0  0  0
  2  3  1  0  0  0  0
  2  1  1  0  0  0  0
  3 10  1  0  0  0  0
  3  4  1  0  0  0  0
  4  5  1  0  0  0  0
  4 13  1  0  0  0  0
  5  6  1  0  0  0  0
  5 15  1  0  0  0  0
  6 16  1  1  0  0  0
  6 29  1  0  0  0  0
  8  2  1  0  0  0  0
  9  2  1  0  0  0  0
 11  3  1  0  0  0  0
 12  4  1  0  0  0  0
 14  5  1  0  0  0  0
 17 23  1  0  0  0  0
 18 17  2  0  0  0  0
 19 20  2  0  0  0  0
 19 18  1  0  0  0  0
 20 21  1  0  0  0  0
 21 22  2  0  0  0  0
 22 17  1  0  0  0  0
 24 18  1  0  0  0  0
 25 19  1  0  0  0  0
 26 27  1  0  0  0  0
 26 33  1  0  0  0  0
 28 27  2  0  0  0  0
 29 28  1  0  0  0  0
 30 29  2  0  0  0  0
 30 31  1  0  0  0  0
 31 26  2  0  0  0  0
 33 32  1  0  0  0  0
 33 35  2  0  0  0  0
 34 33  2  0  0  0  0
M  END
>  <minimizedAffinity>
-5.91319036

>  <minimizedRMSD>
2.81634068

$$$$
