
 OpenBabel03232520573D

 38 40  0  0  1  0  0  0  0  0999 V2000
   45.3770   32.8870   47.6020 C   0  0  0  0  0  0  0  0  0  0  0  0
   45.8930   32.6210   46.3670 C   0  0  0  0  0  0  0  0  0  0  0  0
   46.1280   31.2640   46.1050 C   0  0  0  0  0  0  0  0  0  0  0  0
   45.8630   30.2930   46.9940 N   0  0  0  0  0  0  0  0  0  0  0  0
   45.3410   30.6080   48.2310 C   0  0  0  0  0  0  0  0  0  0  0  0
   45.1110   31.8860   48.5100 N   0  0  0  0  0  0  0  0  0  0  0  0
   45.0700   29.5980   49.1910 N   0  0  0  0  0  0  0  0  0  0  0  0
   45.1680   33.9030   47.8930 H   0  0  0  0  0  0  0  0  0  0  0  0
   45.9770   29.6740   49.7310 H   0  0  0  0  0  0  0  0  0  0  0  0
   44.1200   29.3400   48.8280 H   0  0  0  0  0  0  0  0  0  0  0  0
   46.1210   33.5820   45.3380 C   0  0  2  0  0  0  0  0  0  0  0  0
   44.9710   34.6700   45.5350 C   0  0  0  0  0  0  0  0  0  0  0  0
   44.7420   35.5820   44.4450 C   0  0  0  0  0  0  0  0  0  0  0  0
   45.5170   35.4950   43.2300 C   0  0  1  0  0  0  0  0  0  0  0  0
   46.6080   34.4930   43.2080 C   0  0  0  0  0  0  0  0  0  0  0  0
   46.1180   33.2600   43.9540 C   0  0  0  0  0  0  0  0  0  0  0  0
   46.9450   34.2940   45.6510 H   0  0  0  0  0  0  0  0  0  0  0  0
   44.2760   34.9180   46.3160 H   0  0  0  0  0  0  0  0  0  0  0  0
   44.0060   36.3370   44.4770 H   0  0  0  0  0  0  0  0  0  0  0  0
   45.9460   36.4910   42.9820 H   0  0  0  0  0  0  0  0  0  0  0  0
   47.4670   34.8890   43.7910 H   0  0  0  0  0  0  0  0  0  0  0  0
   46.9490   34.2940   42.1950 H   0  0  0  0  0  0  0  0  0  0  0  0
   45.0060   33.2090   43.6250 H   0  0  0  0  0  0  0  0  0  0  0  0
   46.5570   32.4560   43.4380 H   0  0  0  0  0  0  0  0  0  0  0  0
   44.5380   35.2010   42.0660 C   0  0  0  0  0  0  0  0  0  0  0  0
   43.5120   34.3540   42.4310 F   0  0  0  0  0  0  0  0  0  0  0  0
   43.9460   36.4180   41.7380 F   0  0  0  0  0  0  0  0  0  0  0  0
   45.2420   34.7840   40.9510 F   0  0  0  0  0  0  0  0  0  0  0  0
   48.0060   29.1200   42.9400 C   0  0  0  0  0  0  0  0  0  0  0  0
   46.6370   29.1340   43.0300 C   0  0  0  0  0  3  0  0  0  0  0  0
   46.0040   29.8460   44.0260 C   0  0  0  0  0  3  0  0  0  0  0  0
   46.7170   30.5690   44.9660 C   0  0  0  0  0  0  0  0  0  0  0  0
   48.1180   30.4980   44.7990 C   0  0  0  0  0  3  0  0  0  0  0  0
   48.8050   29.8060   43.8270 C   0  0  0  0  0  3  0  0  0  0  0  0
   50.0230   28.8220   41.3430 H   0  0  0  0  0  0  0  0  0  0  0  0
   48.8410   28.2140   41.6710 S   0  0  0  0  0  0  0  0  0  0  0  0
   49.1260   26.8570   42.2250 O   0  0  0  0  0  0  0  0  0  0  0  0
   48.0050   28.1570   40.4370 O   0  0  0  0  0  0  0  0  0  0  0  0
  1  8  1  0  0  0  0
  1  6  1  0  0  0  0
  2  1  2  0  0  0  0
  3  2  1  0  0  0  0
  3  4  2  0  0  0  0
  4  5  1  0  0  0  0
  5  6  2  0  0  0  0
  5  7  1  0  0  0  0
  7  9  1  0  0  0  0
 10  7  1  0  0  0  0
 11 12  1  0  0  0  0
 11 17  1  1  0  0  0
 11  2  1  0  0  0  0
 12 18  1  0  0  0  0
 13 19  1  0  0  0  0
 13 12  2  0  0  0  0
 14 20  1  6  0  0  0
 14 13  1  0  0  0  0
 15 14  1  0  0  0  0
 15 21  1  0  0  0  0
 15 16  1  0  0  0  0
 16 11  1  0  0  0  0
 22 15  1  0  0  0  0
 23 16  1  0  0  0  0
 24 16  1  0  0  0  0
 25 26  1  0  0  0  0
 25 14  1  0  0  0  0
 27 25  1  0  0  0  0
 28 25  1  0  0  0  0
 29 30  2  0  0  0  0
 29 34  1  0  0  0  0
 30 31  1  0  0  0  0
 31 32  2  0  0  0  0
 32  3  1  0  0  0  0
 33 32  1  0  0  0  0
 34 33  2  0  0  0  0
 35 36  1  0  0  0  0
 36 37  2  0  0  0  0
 36 29  1  0  0  0  0
 38 36  2  0  0  0  0
M  END
>  <minimizedAffinity>
-5.45886707

>  <minimizedRMSD>
0.790183306

$$$$
