
 OpenBabel03232520583D

 38 40  0  0  1  0  0  0  0  0999 V2000
   45.3750   32.8820   47.6010 C   0  0  0  0  0  0  0  0  0  0  0  0
   45.8950   32.6180   46.3670 C   0  0  0  0  0  0  0  0  0  0  0  0
   46.1330   31.2620   46.1040 C   0  0  0  0  0  0  0  0  0  0  0  0
   45.8690   30.2890   46.9920 N   0  0  0  0  0  0  0  0  0  0  0  0
   45.3440   30.6030   48.2280 C   0  0  0  0  0  0  0  0  0  0  0  0
   45.1090   31.8800   48.5070 N   0  0  0  0  0  0  0  0  0  0  0  0
   45.0730   29.5910   49.1870 N   0  0  0  0  0  0  0  0  0  0  0  0
   45.1630   33.8980   47.8920 H   0  0  0  0  0  0  0  0  0  0  0  0
   45.9790   29.6700   49.7290 H   0  0  0  0  0  0  0  0  0  0  0  0
   44.1240   29.3310   48.8220 H   0  0  0  0  0  0  0  0  0  0  0  0
   46.1220   33.5810   45.3390 C   0  0  2  0  0  0  0  0  0  0  0  0
   44.9710   34.6670   45.5370 C   0  0  0  0  0  0  0  0  0  0  0  0
   44.7410   35.5800   44.4470 C   0  0  0  0  0  0  0  0  0  0  0  0
   45.5170   35.4950   43.2330 C   0  0  1  0  0  0  0  0  0  0  0  0
   46.6090   34.4940   43.2100 C   0  0  0  0  0  0  0  0  0  0  0  0
   46.1200   33.2600   43.9540 C   0  0  0  0  0  0  0  0  0  0  0  0
   46.9450   34.2930   45.6530 H   0  0  0  0  0  0  0  0  0  0  0  0
   44.2750   34.9140   46.3180 H   0  0  0  0  0  0  0  0  0  0  0  0
   44.0040   36.3340   44.4790 H   0  0  0  0  0  0  0  0  0  0  0  0
   45.9450   36.4910   42.9860 H   0  0  0  0  0  0  0  0  0  0  0  0
   47.4680   34.8900   43.7940 H   0  0  0  0  0  0  0  0  0  0  0  0
   46.9510   34.2970   42.1970 H   0  0  0  0  0  0  0  0  0  0  0  0
   45.0080   33.2080   43.6250 H   0  0  0  0  0  0  0  0  0  0  0  0
   46.5600   32.4570   43.4380 H   0  0  0  0  0  0  0  0  0  0  0  0
   44.5390   35.2010   42.0680 C   0  0  0  0  0  0  0  0  0  0  0  0
   43.5120   34.3560   42.4320 F   0  0  0  0  0  0  0  0  0  0  0  0
   43.9480   36.4190   41.7380 F   0  0  0  0  0  0  0  0  0  0  0  0
   45.2440   34.7840   40.9530 F   0  0  0  0  0  0  0  0  0  0  0  0
   48.0250   29.1260   42.9410 C   0  0  0  0  0  0  0  0  0  0  0  0
   46.6550   29.1330   43.0310 C   0  0  0  0  0  3  0  0  0  0  0  0
   46.0180   29.8430   44.0270 C   0  0  0  0  0  3  0  0  0  0  0  0
   46.7270   30.5690   44.9670 C   0  0  0  0  0  0  0  0  0  0  0  0
   48.1280   30.5050   44.8010 C   0  0  0  0  0  3  0  0  0  0  0  0
   48.8190   29.8160   43.8290 C   0  0  0  0  0  3  0  0  0  0  0  0
   50.0800   28.7910   41.4030 H   0  0  0  0  0  0  0  0  0  0  0  0
   48.8640   28.2240   41.6740 S   0  0  0  0  0  0  0  0  0  0  0  0
   49.0780   26.8410   42.1970 O   0  0  0  0  0  0  0  0  0  0  0  0
   48.0700   28.2350   40.4130 O   0  0  0  0  0  0  0  0  0  0  0  0
  1  8  1  0  0  0  0
  1  6  1  0  0  0  0
  2  1  2  0  0  0  0
  3  2  1  0  0  0  0
  3  4  2  0  0  0  0
  4  5  1  0  0  0  0
  5  6  2  0  0  0  0
  5  7  1  0  0  0  0
  7  9  1  0  0  0  0
 10  7  1  0  0  0  0
 11 12  1  0  0  0  0
 11 17  1  1  0  0  0
 11  2  1  0  0  0  0
 12 18  1  0  0  0  0
 13 19  1  0  0  0  0
 13 12  2  0  0  0  0
 14 20  1  6  0  0  0
 14 13  1  0  0  0  0
 15 14  1  0  0  0  0
 15 21  1  0  0  0  0
 15 16  1  0  0  0  0
 16 11  1  0  0  0  0
 22 15  1  0  0  0  0
 23 16  1  0  0  0  0
 24 16  1  0  0  0  0
 25 26  1  0  0  0  0
 25 14  1  0  0  0  0
 27 25  1  0  0  0  0
 28 25  1  0  0  0  0
 29 30  2  0  0  0  0
 29 34  1  0  0  0  0
 30 31  1  0  0  0  0
 31 32  2  0  0  0  0
 32  3  1  0  0  0  0
 33 32  1  0  0  0  0
 34 33  2  0  0  0  0
 35 36  1  0  0  0  0
 36 37  2  0  0  0  0
 36 29  1  0  0  0  0
 38 36  2  0  0  0  0
M  END
>  <minimizedAffinity>
-5.46029711

>  <minimizedRMSD>
0.666350603

$$$$
