
 OpenBabel03232513053D

 47 51  0  0  1  0  0  0  0  0999 V2000
   46.5590   33.4430   44.7970 C   0  0  2  0  0  0  0  0  0  0  0  0
   45.1720   34.0790   44.9160 C   0  0  0  0  0  0  0  0  0  0  0  0
   44.9010   35.1710   44.0150 C   0  0  0  0  0  0  0  0  0  0  0  0
   45.9040   35.6410   43.0440 C   0  0  0  0  0  0  0  0  0  0  0  0
   47.1750   34.9000   43.0170 C   0  0  1  0  0  0  0  0  0  0  0  0
   47.0500   33.4890   43.3900 C   0  0  0  0  0  0  0  0  0  0  0  0
   47.2380   34.0710   45.4310 H   0  0  0  0  0  0  0  0  0  0  0  0
   44.3920   33.7940   45.5990 H   0  0  0  0  0  0  0  0  0  0  0  0
   43.9530   35.6560   44.0490 H   0  0  0  0  0  0  0  0  0  0  0  0
   46.1400   36.6850   43.3590 H   0  0  0  0  0  0  0  0  0  0  0  0
   45.4010   35.7920   42.0710 H   0  0  0  0  0  0  0  0  0  0  0  0
   47.9230   35.3670   43.7240 H   0  0  0  0  0  0  0  0  0  0  0  0
   46.4870   32.7930   42.8060 H   0  0  0  0  0  0  0  0  0  0  0  0
   48.1020   33.0570   43.4370 H   0  0  0  0  0  0  0  0  0  0  0  0
   47.7620   34.9630   41.6550 C   0  0  0  0  0  0  0  0  0  0  0  0
   48.8720   35.7020   41.2520 C   0  0  0  0  0  0  0  0  0  0  0  0
   48.9970   35.4230   39.9510 N   0  0  0  0  0  0  0  0  0  0  0  0
   48.0540   34.5710   39.5130 C   0  0  0  0  0  0  0  0  0  0  0  0
   47.8700   34.0540   38.2280 C   0  0  0  0  0  0  0  0  0  0  0  0
   46.8120   33.1990   38.0990 C   0  0  0  0  0  0  0  0  0  0  0  0
   45.9560   32.8360   39.1250 C   0  0  0  0  0  0  0  0  0  0  0  0
   46.2210   33.4020   40.3630 C   0  0  0  0  0  0  0  0  0  0  0  0
   47.2560   34.2740   40.6110 C   0  0  0  0  0  0  0  0  0  0  0  0
   49.4850   36.3510   41.8610 H   0  0  0  0  0  0  0  0  0  0  0  0
   49.7610   35.8440   39.3690 H   0  0  0  0  0  0  0  0  0  0  0  0
   48.5350   34.3360   37.4270 H   0  0  0  0  0  0  0  0  0  0  0  0
   46.6460   32.7800   37.1000 H   0  0  0  0  0  0  0  0  0  0  0  0
   45.1300   32.1530   38.9740 H   0  0  0  0  0  0  0  0  0  0  0  0
   45.5520   33.1230   41.1340 H   0  0  0  0  0  0  0  0  0  0  0  0
   45.8790   31.8990   46.6240 C   0  0  0  0  0  0  0  0  0  0  0  0
   46.4840   32.0770   45.3790 C   0  0  0  0  0  0  0  0  0  0  0  0
   47.0300   30.9300   44.7130 C   0  0  0  0  0  0  0  0  0  0  0  0
   46.9280   29.7290   45.3330 N   0  0  0  0  0  0  0  0  0  0  0  0
   46.3360   29.5960   46.5360 C   0  0  0  0  0  0  0  0  0  0  0  0
   45.8230   30.6690   47.1620 N   0  0  0  0  0  0  0  0  0  0  0  0
   45.4780   32.7760   47.1000 H   0  0  0  0  0  0  0  0  0  0  0  0
   47.4890   31.0760   43.7660 H   0  0  0  0  0  0  0  0  0  0  0  0
   45.9630   25.8180   48.4390 C   0  0  0  0  0  0  0  0  0  0  0  0
   47.1680   26.2050   47.8850 C   0  0  0  0  0  0  0  0  0  0  0  0
   47.3240   27.4440   47.2510 C   0  0  0  0  0  0  0  0  0  0  0  0
   46.2380   28.2920   47.1830 C   0  0  0  0  0  0  0  0  0  0  0  0
   45.0550   27.8630   47.7490 C   0  0  0  0  0  0  0  0  0  0  0  0
   44.8560   26.6520   48.3830 C   0  0  0  0  0  0  0  0  0  0  0  0
   44.7570   23.5350   48.7230 H   0  0  0  0  0  0  0  0  0  0  0  0
   45.7970   24.2550   49.2290 S   0  0  0  0  0  0  0  0  0  0  0  0
   47.0420   23.4270   49.0750 O   0  0  0  0  0  0  0  0  0  0  0  0
   45.5740   24.4150   50.7020 O   0  0  0  0  0  0  0  0  0  0  0  0
  1  2  1  0  0  0  0
  1 31  1  0  0  0  0
  1  7  1  1  0  0  0
  2  8  1  0  0  0  0
  3  9  1  0  0  0  0
  3  2  2  0  0  0  0
  4 10  1  0  0  0  0
  4  3  1  0  0  0  0
  5  4  1  0  0  0  0
  5  6  1  0  0  0  0
  5 12  1  1  0  0  0
  6 14  1  0  0  0  0
  6  1  1  0  0  0  0
 11  4  1  0  0  0  0
 13  6  1  0  0  0  0
 15  5  1  0  0  0  0
 16 15  2  0  0  0  0
 16 24  1  0  0  0  0
 17 16  1  0  0  0  0
 18 17  1  0  0  0  0
 18 23  1  0  0  0  0
 19 18  2  0  0  0  0
 20 19  1  0  0  0  0
 20 21  2  0  0  0  0
 21 22  1  0  0  0  0
 22 23  2  0  0  0  0
 22 29  1  0  0  0  0
 23 15  1  0  0  0  0
 25 17  1  0  0  0  0
 26 19  1  0  0  0  0
 27 20  1  0  0  0  0
 28 21  1  0  0  0  0
 30 36  1  0  0  0  0
 30 35  1  0  0  0  0
 31 30  2  0  0  0  0
 32 33  2  0  0  0  0
 32 31  1  0  0  0  0
 33 34  1  0  0  0  0
 34 35  2  0  0  0  0
 34 41  1  0  0  0  0
 37 32  1  0  0  0  0
 38 45  1  0  0  0  0
 39 38  2  0  0  0  0
 40 39  1  0  0  0  0
 41 40  2  0  0  0  0
 41 42  1  0  0  0  0
 42 43  2  0  0  0  0
 43 38  1  0  0  0  0
 44 45  1  0  0  0  0
 45 47  2  0  0  0  0
 46 45  2  0  0  0  0
M  END
>  <minimizedAffinity>
-6.91848421

>  <minimizedRMSD>
1.66676831

$$$$
