
 OpenBabel03232514423D

 38 41  0  0  1  0  0  0  0  0999 V2000
   45.1590   32.8090   47.6440 C   0  0  0  0  0  0  0  0  0  0  0  0
   45.7260   32.5540   46.3990 C   0  0  0  0  0  0  0  0  0  0  0  0
   46.1740   31.2270   46.1220 C   0  0  0  0  0  0  0  0  0  0  0  0
   46.0370   30.2790   47.0610 N   0  0  0  0  0  0  0  0  0  0  0  0
   45.4790   30.5670   48.2710 C   0  0  0  0  0  0  0  0  0  0  0  0
   45.0430   31.8280   48.5570 N   0  0  0  0  0  0  0  0  0  0  0  0
   44.7750   33.7160   48.0330 H   0  0  0  0  0  0  0  0  0  0  0  0
   45.3580   29.8020   49.0590 H   0  0  0  0  0  0  0  0  0  0  0  0
   45.8960   33.6610   45.4550 C   0  0  2  0  0  0  0  0  0  0  0  0
   44.9350   34.7930   45.8470 C   0  0  0  0  0  0  0  0  0  0  0  0
   44.5140   35.7190   44.8460 C   0  0  0  0  0  0  0  0  0  0  0  0
   45.0220   35.5960   43.4750 C   0  0  0  0  0  0  0  0  0  0  0  0
   46.0470   34.5650   43.2460 C   0  0  0  0  0  0  0  0  0  0  0  0
   45.6890   33.3180   44.0430 C   0  0  0  0  0  0  0  0  0  0  0  0
   46.9240   34.0520   45.5540 H   0  0  0  0  0  0  0  0  0  0  0  0
   44.4540   35.1110   46.7450 H   0  0  0  0  0  0  0  0  0  0  0  0
   43.8560   36.5300   45.0070 H   0  0  0  0  0  0  0  0  0  0  0  0
   45.4550   36.5950   43.2090 H   0  0  0  0  0  0  0  0  0  0  0  0
   44.1700   35.4540   42.7680 H   0  0  0  0  0  0  0  0  0  0  0  0
   46.0540   34.2670   42.1770 H   0  0  0  0  0  0  0  0  0  0  0  0
   47.0870   34.8350   43.5220 H   0  0  0  0  0  0  0  0  0  0  0  0
   44.6630   33.0310   43.7970 H   0  0  0  0  0  0  0  0  0  0  0  0
   46.3950   32.6000   43.6600 H   0  0  0  0  0  0  0  0  0  0  0  0
   46.7460   30.6450   44.9510 C   0  0  0  0  0  0  0  0  0  0  0  0
   48.0440   30.7050   44.7140 N   0  0  0  0  0  0  0  0  0  0  0  0
   48.2780   30.0920   43.5850 O   0  0  0  0  0  0  0  0  0  0  0  0
   47.2170   29.6230   43.0480 C   0  0  0  0  0  0  0  0  0  0  0  0
   46.2270   29.9460   43.8720 N   0  0  0  0  0  0  0  0  0  0  0  0
   47.1060   27.5030   39.3360 C   0  0  0  0  0  0  0  0  0  0  0  0
   45.9950   27.4940   40.1860 C   0  0  0  0  0  0  0  0  0  0  0  0
   46.0280   28.1860   41.4000 C   0  0  0  0  0  0  0  0  0  0  0  0
   47.1460   28.8920   41.7930 C   0  0  0  0  0  0  0  0  0  0  0  0
   48.2010   28.8640   40.9210 C   0  0  0  0  0  0  0  0  0  0  0  0
   48.2390   28.2050   39.7110 C   0  0  0  0  0  0  0  0  0  0  0  0
   48.3840   26.3030   37.5180 H   0  0  0  0  0  0  0  0  0  0  0  0
   47.0760   26.6400   37.8140 S   0  0  0  0  0  0  0  0  0  0  0  0
   46.2940   25.3720   38.0120 O   0  0  0  0  0  0  0  0  0  0  0  0
   46.5250   27.4920   36.7270 O   0  0  0  0  0  0  0  0  0  0  0  0
  1  7  1  0  0  0  0
  1  6  1  0  0  0  0
  2  1  2  0  0  0  0
  3  2  1  0  0  0  0
  3  4  2  0  0  0  0
  4  5  1  0  0  0  0
  5  6  2  0  0  0  0
  5  8  1  0  0  0  0
  9 15  1  1  0  0  0
  9 10  1  0  0  0  0
  9  2  1  0  0  0  0
 10 16  1  0  0  0  0
 11 17  1  0  0  0  0
 11 10  2  0  0  0  0
 12 11  1  0  0  0  0
 13 12  1  0  0  0  0
 13 21  1  0  0  0  0
 13 14  1  0  0  0  0
 14  9  1  0  0  0  0
 18 12  1  0  0  0  0
 19 12  1  0  0  0  0
 20 13  1  0  0  0  0
 22 14  1  0  0  0  0
 23 14  1  0  0  0  0
 24  3  1  0  0  0  0
 25 24  2  0  0  0  0
 26 25  1  0  0  0  0
 27 26  1  0  0  0  0
 27 28  2  0  0  0  0
 28 24  1  0  0  0  0
 29 34  2  0  0  0  0
 29 30  1  0  0  0  0
 30 31  2  0  0  0  0
 31 32  1  0  0  0  0
 32 27  1  0  0  0  0
 33 32  2  0  0  0  0
 34 33  1  0  0  0  0
 35 36  1  0  0  0  0
 36 37  2  0  0  0  0
 36 29  1  0  0  0  0
 38 36  2  0  0  0  0
M  END
>  <minimizedAffinity>
-3.8857379

>  <minimizedRMSD>
0.328389138

$$$$
