
 OpenBabel03232520573D

 38 40  0  0  1  0  0  0  0  0999 V2000
   45.3730   32.8880   47.5970 C   0  0  0  0  0  0  0  0  0  0  0  0
   45.8910   32.6210   46.3640 C   0  0  0  0  0  0  0  0  0  0  0  0
   46.1260   31.2640   46.1030 C   0  0  0  0  0  0  0  0  0  0  0  0
   45.8610   30.2930   46.9930 N   0  0  0  0  0  0  0  0  0  0  0  0
   45.3370   30.6100   48.2280 C   0  0  0  0  0  0  0  0  0  0  0  0
   45.1060   31.8870   48.5060 N   0  0  0  0  0  0  0  0  0  0  0  0
   45.0650   29.6000   49.1890 N   0  0  0  0  0  0  0  0  0  0  0  0
   45.1630   33.9040   47.8870 H   0  0  0  0  0  0  0  0  0  0  0  0
   45.9720   29.6770   49.7300 H   0  0  0  0  0  0  0  0  0  0  0  0
   44.1160   29.3420   48.8250 H   0  0  0  0  0  0  0  0  0  0  0  0
   46.1190   33.5810   45.3340 C   0  0  2  0  0  0  0  0  0  0  0  0
   44.9740   34.6730   45.5350 C   0  0  0  0  0  0  0  0  0  0  0  0
   44.7450   35.5870   44.4450 C   0  0  0  0  0  0  0  0  0  0  0  0
   45.5160   35.4970   43.2280 C   0  0  1  0  0  0  0  0  0  0  0  0
   46.6030   34.4900   43.2020 C   0  0  0  0  0  0  0  0  0  0  0  0
   46.1100   33.2590   43.9500 C   0  0  0  0  0  0  0  0  0  0  0  0
   46.9470   34.2890   45.6440 H   0  0  0  0  0  0  0  0  0  0  0  0
   44.2820   34.9240   46.3180 H   0  0  0  0  0  0  0  0  0  0  0  0
   44.0120   36.3440   44.4790 H   0  0  0  0  0  0  0  0  0  0  0  0
   45.9480   36.4900   42.9790 H   0  0  0  0  0  0  0  0  0  0  0  0
   47.4650   34.8820   43.7820 H   0  0  0  0  0  0  0  0  0  0  0  0
   46.9400   34.2900   42.1880 H   0  0  0  0  0  0  0  0  0  0  0  0
   44.9970   33.2120   43.6240 H   0  0  0  0  0  0  0  0  0  0  0  0
   46.5440   32.4540   43.4320 H   0  0  0  0  0  0  0  0  0  0  0  0
   44.5320   35.2060   42.0670 C   0  0  0  0  0  0  0  0  0  0  0  0
   43.4990   34.3710   42.4370 F   0  0  0  0  0  0  0  0  0  0  0  0
   43.9500   36.4280   41.7350 F   0  0  0  0  0  0  0  0  0  0  0  0
   45.2310   34.7790   40.9520 F   0  0  0  0  0  0  0  0  0  0  0  0
   48.0090   29.1180   42.9410 C   0  0  0  0  0  0  0  0  0  0  0  0
   46.6390   29.1320   43.0300 C   0  0  0  0  0  3  0  0  0  0  0  0
   46.0050   29.8450   44.0250 C   0  0  0  0  0  3  0  0  0  0  0  0
   46.7170   30.5680   44.9660 C   0  0  0  0  0  0  0  0  0  0  0  0
   48.1180   30.4970   44.8000 C   0  0  0  0  0  3  0  0  0  0  0  0
   48.8060   29.8040   43.8290 C   0  0  0  0  0  3  0  0  0  0  0  0
   50.1680   28.5560   41.6300 H   0  0  0  0  0  0  0  0  0  0  0  0
   48.8450   28.2110   41.6740 S   0  0  0  0  0  0  0  0  0  0  0  0
   48.7280   26.7650   42.0300 O   0  0  0  0  0  0  0  0  0  0  0  0
   48.2540   28.5150   40.3400 O   0  0  0  0  0  0  0  0  0  0  0  0
  1  8  1  0  0  0  0
  1  6  1  0  0  0  0
  2  1  2  0  0  0  0
  3  2  1  0  0  0  0
  3  4  2  0  0  0  0
  4  5  1  0  0  0  0
  5  6  2  0  0  0  0
  5  7  1  0  0  0  0
  7  9  1  0  0  0  0
 10  7  1  0  0  0  0
 11 12  1  0  0  0  0
 11 17  1  1  0  0  0
 11  2  1  0  0  0  0
 12 18  1  0  0  0  0
 13 19  1  0  0  0  0
 13 12  2  0  0  0  0
 14 20  1  6  0  0  0
 14 13  1  0  0  0  0
 15 14  1  0  0  0  0
 15 21  1  0  0  0  0
 15 16  1  0  0  0  0
 16 11  1  0  0  0  0
 22 15  1  0  0  0  0
 23 16  1  0  0  0  0
 24 16  1  0  0  0  0
 25 26  1  0  0  0  0
 25 14  1  0  0  0  0
 27 25  1  0  0  0  0
 28 25  1  0  0  0  0
 29 30  2  0  0  0  0
 29 34  1  0  0  0  0
 30 31  1  0  0  0  0
 31 32  2  0  0  0  0
 32  3  1  0  0  0  0
 33 32  1  0  0  0  0
 34 33  2  0  0  0  0
 35 36  1  0  0  0  0
 36 37  2  0  0  0  0
 36 29  1  0  0  0  0
 38 36  2  0  0  0  0
M  END
>  <minimizedAffinity>
-5.45371628

>  <minimizedRMSD>
0.555681229

$$$$
