
 OpenBabel03232518523D

 35 37  0  0  0  0  0  0  0  0999 V2000
   47.2420   32.9720   43.5800 C   0  0  0  0  0  0  0  0  0  0  0  0
   47.1390   31.7770   43.1920 O   0  0  0  0  0  0  0  0  0  0  0  0
   44.7460   35.3390   44.9720 C   0  0  0  0  0  0  0  0  0  0  0  0
   45.6090   34.8070   44.0250 C   0  0  0  0  0  0  0  0  0  0  0  0
   46.3120   33.6780   44.3890 C   0  0  0  0  0  0  0  0  0  0  0  0
   46.1320   33.1460   45.6330 N   0  0  0  0  0  0  0  0  0  0  0  0
   45.3050   33.6660   46.5210 C   0  0  0  0  0  0  0  0  0  0  0  0
   44.6280   34.7520   46.1750 N   0  0  0  0  0  0  0  0  0  0  0  0
   44.1620   36.2250   44.7550 H   0  0  0  0  0  0  0  0  0  0  0  0
   45.7780   35.4050   42.6950 C   0  0  0  0  0  0  0  0  0  0  0  0
   44.9660   36.5460   42.6530 F   0  0  0  0  0  0  0  0  0  0  0  0
   45.2390   34.5950   41.7150 F   0  0  0  0  0  0  0  0  0  0  0  0
   47.0660   35.7310   42.3980 F   0  0  0  0  0  0  0  0  0  0  0  0
   45.0800   33.1810   47.7850 O   0  0  0  0  0  0  0  0  0  0  0  0
   45.8460   32.1460   48.3590 C   0  0  0  0  0  0  0  0  0  0  0  0
   47.1930   32.5080   48.4190 F   0  0  0  0  0  0  0  0  0  0  0  0
   45.6540   30.9350   47.7620 F   0  0  0  0  0  0  0  0  0  0  0  0
   45.4520   32.0620   49.7080 F   0  0  0  0  0  0  0  0  0  0  0  0
   48.4570   33.1490   42.9380 O   0  0  0  0  0  0  0  0  0  0  0  0
   48.7180   32.8550   41.6360 C   0  0  0  0  0  0  0  0  0  0  0  0
   47.7560   33.0000   40.4980 C   0  0  0  0  0  0  0  0  0  0  0  0
   48.7710   32.4270   39.1210 S   0  0  0  0  0  0  0  0  0  0  0  0
   50.2640   32.0930   40.2030 C   0  0  0  0  0  0  0  0  0  0  0  0
   49.8980   32.3970   41.3000 N   0  0  0  0  0  0  0  0  0  0  0  0
   46.6300   33.3780   40.3640 H   0  0  0  0  0  0  0  0  0  0  0  0
   53.8590   30.6160   38.6210 C   0  0  0  0  0  0  0  0  0  0  0  0
   52.8670   31.0900   37.7810 C   0  0  0  0  0  0  0  0  0  0  0  0
   51.6800   31.5780   38.2960 C   0  0  0  0  0  0  0  0  0  0  0  0
   51.5490   31.5650   39.6450 C   0  0  0  0  0  0  0  0  0  0  0  0
   52.4930   31.1090   40.5370 C   0  0  0  0  0  0  0  0  0  0  0  0
   53.6660   30.6290   39.9880 C   0  0  0  0  0  0  0  0  0  0  0  0
   56.3500   30.1480   38.6130 H   0  0  0  0  0  0  0  0  0  0  0  0
   55.2840   30.0400   37.7880 S   0  0  0  0  0  0  0  0  0  0  0  0
   55.5900   30.8980   36.5780 O   0  0  0  0  0  0  0  0  0  0  0  0
   55.1570   28.6330   37.3090 O   0  0  0  0  0  0  0  0  0  0  0  0
  1  5  1  0  0  0  0
  2  1  2  0  0  0  0
  3  8  1  0  0  0  0
  4  5  1  0  0  0  0
  4  3  2  0  0  0  0
  5  6  2  0  0  0  0
  6  7  1  0  0  0  0
  7 14  1  0  0  0  0
  8  7  2  0  0  0  0
  9  3  1  0  0  0  0
 10  4  1  0  0  0  0
 11 10  1  0  0  0  0
 12 10  1  0  0  0  0
 13 10  1  0  0  0  0
 14 15  1  0  0  0  0
 15 16  1  0  0  0  0
 15 18  1  0  0  0  0
 17 15  1  0  0  0  0
 19  1  1  0  0  0  0
 20 19  1  0  0  0  0
 21 20  2  0  0  0  0
 22 23  1  0  0  0  0
 22 21  1  0  0  0  0
 23 24  2  0  0  0  0
 24 20  1  0  0  0  0
 25 21  1  0  0  0  0
 26 31  1  0  0  0  0
 27 28  1  0  0  0  0
 27 26  2  0  0  0  0
 28 29  2  0  0  0  0
 29 23  1  0  0  0  0
 29 30  1  0  0  0  0
 31 30  2  0  0  0  0
 33 32  1  0  0  0  0
 33 26  1  0  0  0  0
 34 33  2  0  0  0  0
 35 33  2  0  0  0  0
M  END
>  <minimizedAffinity>
-6.05500364

>  <minimizedRMSD>
1.22481024

$$$$
