
 OpenBabel03232514563D

 23 25  0  0  0  0  0  0  0  0999 V2000
   44.3720   35.8580   44.6760 C   0  0  0  0  0  0  0  0  0  0  0  0
   45.0010   35.8030   43.4260 C   0  0  0  0  0  0  0  0  0  0  0  0
   45.9880   34.8190   43.2480 C   0  0  0  0  0  0  0  0  0  0  0  0
   46.2870   33.9810   44.2710 N   0  0  0  0  0  0  0  0  0  0  0  0
   45.6450   34.0750   45.4730 C   0  0  0  0  0  0  0  0  0  0  0  0
   44.7070   34.9970   45.6680 N   0  0  0  0  0  0  0  0  0  0  0  0
   45.9520   33.1970   46.5560 N   0  0  0  0  0  0  0  0  0  0  0  0
   47.1590   32.5680   46.5020 C   0  0  0  0  0  0  0  0  0  0  0  0
   47.2370   31.7820   47.6380 C   0  0  0  0  0  0  0  0  0  0  0  0
   46.1000   31.9430   48.3490 N   0  0  0  0  0  0  0  0  0  0  0  0
   45.3290   32.8020   47.6850 C   0  0  0  0  0  0  0  0  0  0  0  0
   43.6120   36.6200   44.8060 H   0  0  0  0  0  0  0  0  0  0  0  0
   44.7570   36.4760   42.6120 H   0  0  0  0  0  0  0  0  0  0  0  0
   46.5230   34.7070   42.3130 H   0  0  0  0  0  0  0  0  0  0  0  0
   47.9740   32.6010   45.7660 H   0  0  0  0  0  0  0  0  0  0  0  0
   44.3380   33.2570   47.8250 H   0  0  0  0  0  0  0  0  0  0  0  0
   48.3340   30.9270   48.0220 N   0  0  0  0  0  0  0  0  0  0  0  0
   48.6930   29.7970   47.2000 C   0  0  0  0  0  0  0  0  0  0  0  0
   49.4250   28.7330   47.9640 C   0  0  0  0  0  0  0  0  0  0  0  0
   49.1490   28.8040   49.3870 N   0  0  0  0  0  0  0  0  0  0  0  0
   48.1700   28.6290   49.6310 H   0  0  0  0  0  0  0  0  0  0  0  0
   49.6750   30.0440   49.9010 C   0  0  0  0  0  0  0  0  0  0  0  0
   49.0530   31.2400   49.2460 C   0  0  0  0  0  0  0  0  0  0  0  0
  1 12  1  0  0  0  0
  1  6  1  0  0  0  0
  2  1  2  0  0  0  0
  3  2  1  0  0  0  0
  3  4  2  0  0  0  0
  4  5  1  0  0  0  0
  5  6  2  0  0  0  0
  5  7  1  0  0  0  0
  7 11  1  0  0  0  0
  8  7  1  0  0  0  0
  8  9  2  0  0  0  0
  9 17  1  0  0  0  0
  9 10  1  0  0  0  0
 11 16  1  0  0  0  0
 11 10  2  0  0  0  0
 13  2  1  0  0  0  0
 14  3  1  0  0  0  0
 15  8  1  0  0  0  0
 17 23  1  0  0  0  0
 18 19  1  0  0  0  0
 18 17  1  0  0  0  0
 19 20  1  0  0  0  0
 20 21  1  0  0  0  0
 20 22  1  0  0  0  0
 23 22  1  0  0  0  0
M  END
>  <minimizedAffinity>
-5.20410967

>  <minimizedRMSD>
0.408172309

$$$$
