
 OpenBabel03232519223D

 35 37  0  0  1  0  0  0  0  0999 V2000
   47.0340   30.7880   47.5750 N   0  0  0  0  0  0  0  0  0  0  0  0
   47.0290   31.1450   49.0020 C   0  0  0  0  0  0  0  0  0  0  0  0
   45.8850   32.1020   49.0630 C   0  0  0  0  0  0  0  0  0  0  0  0
   44.8350   31.4580   48.2090 C   0  0  0  0  0  0  0  0  0  0  0  0
   45.7140   30.7230   47.1750 C   0  0  2  0  0  0  0  0  0  0  0  0
   47.6820   31.4650   47.1620 H   0  0  0  0  0  0  0  0  0  0  0  0
   47.9770   31.6160   49.3150 H   0  0  0  0  0  0  0  0  0  0  0  0
   46.7860   30.2810   49.6260 H   0  0  0  0  0  0  0  0  0  0  0  0
   45.5310   32.2460   50.0960 H   0  0  0  0  0  0  0  0  0  0  0  0
   46.2030   33.1080   48.6890 H   0  0  0  0  0  0  0  0  0  0  0  0
   44.2590   30.7900   48.8430 H   0  0  0  0  0  0  0  0  0  0  0  0
   44.1900   32.2050   47.7040 H   0  0  0  0  0  0  0  0  0  0  0  0
   45.1380   29.3450   47.1350 C   0  0  0  0  0  0  0  0  0  0  0  0
   45.1720   28.1830   47.8760 C   0  0  0  0  0  0  0  0  0  0  0  0
   44.3900   27.2540   47.2640 C   0  0  0  0  0  0  0  0  0  0  0  0
   43.8720   27.8320   46.1510 N   0  0  0  0  0  0  0  0  0  0  0  0
   44.3240   29.0860   46.0790 N   0  0  0  0  0  0  0  0  0  0  0  0
   45.7960   28.2290   48.7750 H   0  0  0  0  0  0  0  0  0  0  0  0
   44.2780   26.2770   47.6780 H   0  0  0  0  0  0  0  0  0  0  0  0
   43.2310   27.3460   45.4890 H   0  0  0  0  0  0  0  0  0  0  0  0
   45.5500   31.1750   45.8900 O   0  0  0  0  0  0  0  0  0  0  0  0
   46.3850   32.1370   45.2260 C   0  0  0  0  0  0  0  0  0  0  0  0
   47.5480   31.8500   44.9830 O   0  0  0  0  0  0  0  0  0  0  0  0
   44.6380   35.3380   45.5220 C   0  0  0  0  0  0  0  0  0  0  0  0
   44.5090   35.7540   44.1800 C   0  0  0  0  0  0  0  0  0  0  0  0
   45.0240   34.9310   43.1880 C   0  0  0  0  0  0  0  0  0  0  0  0
   45.6260   33.7640   43.5710 N   0  0  0  0  0  0  0  0  0  0  0  0
   45.7170   33.4180   44.8980 C   0  0  0  0  0  0  0  0  0  0  0  0
   45.2330   34.1900   45.8390 N   0  0  0  0  0  0  0  0  0  0  0  0
   44.2130   36.0280   46.2310 H   0  0  0  0  0  0  0  0  0  0  0  0
   44.0250   36.6850   43.9280 H   0  0  0  0  0  0  0  0  0  0  0  0
   44.9490   35.2480   41.8540 O   0  0  0  0  0  0  0  0  0  0  0  0
   43.9350   34.7930   41.0330 C   0  0  0  0  0  0  0  0  0  0  0  0
   43.2080   34.3540   40.3630 H   0  0  0  0  0  0  0  0  0  0  0  0
   43.7410   35.8310   41.6930 O   0  0  0  0  0  0  0  0  0  0  0  0
  1  2  1  0  0  0  0
  2  3  1  0  0  0  0
  2  7  1  0  0  0  0
  2  8  1  0  0  0  0
  3  9  1  0  0  0  0
  4 11  1  0  0  0  0
  4  3  1  0  0  0  0
  5 21  1  6  0  0  0
  5  1  1  0  0  0  0
  5  4  1  0  0  0  0
  6  1  1  0  0  0  0
 10  3  1  0  0  0  0
 12  4  1  0  0  0  0
 13  5  1  0  0  0  0
 13 14  1  0  0  0  0
 14 18  1  0  0  0  0
 15 19  1  0  0  0  0
 15 14  2  0  0  0  0
 16 15  1  0  0  0  0
 17 16  1  0  0  0  0
 17 13  2  0  0  0  0
 20 16  1  0  0  0  0
 22 21  1  0  0  0  0
 23 22  2  0  0  0  0
 24 29  1  0  0  0  0
 24 30  1  0  0  0  0
 25 24  2  0  0  0  0
 26 27  2  0  0  0  0
 26 25  1  0  0  0  0
 27 28  1  0  0  0  0
 28 22  1  0  0  0  0
 28 29  2  0  0  0  0
 31 25  1  0  0  0  0
 32 26  1  0  0  0  0
 33 35  1  0  0  0  0
 34 33  1  0  0  0  0
 35 32  1  0  0  0  0
M  END
>  <minimizedAffinity>
-5.2183857

>  <minimizedRMSD>
0.735358298

$$$$
