
 OpenBabel03232519323D

 44 46  0  0  1  0  0  0  0  0999 V2000
   46.8340   34.3650   40.4800 C   0  0  1  0  0  0  0  0  0  0  0  0
   48.0300   33.9750   39.6020 C   0  0  0  0  0  0  0  0  0  0  0  0
   47.4390   33.6820   38.2300 C   0  0  0  0  0  0  0  0  0  0  0  0
   46.6440   32.4150   38.3170 C   0  0  0  0  0  0  0  0  0  0  0  0
   46.3880   32.0400   39.7430 C   0  0  0  0  0  0  0  0  0  0  0  0
   45.9030   33.2530   40.5730 C   0  0  2  0  0  0  0  0  0  0  0  0
   46.5300   35.3150   40.0550 H   0  0  0  0  0  0  0  0  0  0  0  0
   48.5500   33.1240   40.0340 H   0  0  0  0  0  0  0  0  0  0  0  0
   48.7360   34.8270   39.5320 H   0  0  0  0  0  0  0  0  0  0  0  0
   48.3170   33.5560   37.5260 H   0  0  0  0  0  0  0  0  0  0  0  0
   46.8870   34.5540   37.8740 H   0  0  0  0  0  0  0  0  0  0  0  0
   45.7490   32.3900   37.6650 H   0  0  0  0  0  0  0  0  0  0  0  0
   47.2890   31.5950   37.9180 H   0  0  0  0  0  0  0  0  0  0  0  0
   47.2660   31.5470   40.1890 H   0  0  0  0  0  0  0  0  0  0  0  0
   45.5310   31.3240   39.7340 H   0  0  0  0  0  0  0  0  0  0  0  0
   45.8550   32.6610   41.5100 H   0  0  0  0  0  0  0  0  0  0  0  0
   47.3390   34.7570   41.8830 C   0  0  0  0  0  0  0  0  0  0  0  0
   48.4780   34.7280   41.7840 H   0  0  0  0  0  0  0  0  0  0  0  0
   47.1450   35.8140   42.1110 H   0  0  0  0  0  0  0  0  0  0  0  0
   46.8600   33.7310   42.8080 C   0  0  0  0  0  0  0  0  0  0  0  0
   46.0680   33.0140   42.4680 H   0  0  0  0  0  0  0  0  0  0  0  0
   47.7300   33.1750   43.2300 H   0  0  0  0  0  0  0  0  0  0  0  0
   46.0420   33.5750   45.0660 C   0  0  0  0  0  0  0  0  0  0  0  0
   46.0670   34.2970   43.8720 C   0  0  0  0  0  0  0  0  0  0  0  0
   45.3540   35.4270   43.7040 C   0  0  0  0  0  0  0  0  0  0  0  0
   44.5940   35.8540   44.7480 N   0  0  0  0  0  0  0  0  0  0  0  0
   44.5450   35.1760   45.9250 C   0  0  0  0  0  0  0  0  0  0  0  0
   45.2650   34.0440   46.0810 N   0  0  0  0  0  0  0  0  0  0  0  0
   46.6150   32.6690   45.1980 H   0  0  0  0  0  0  0  0  0  0  0  0
   45.2800   36.0670   42.8490 H   0  0  0  0  0  0  0  0  0  0  0  0
   43.9410   35.5330   46.7260 H   0  0  0  0  0  0  0  0  0  0  0  0
   44.5740   33.5760   39.9440 C   0  0  0  0  0  0  0  0  0  0  0  0
   44.5670   33.7310   38.8740 H   0  0  0  0  0  0  0  0  0  0  0  0
   43.9060   32.7090   40.1460 H   0  0  0  0  0  0  0  0  0  0  0  0
   43.9120   34.7880   40.5910 C   0  0  0  0  0  0  0  0  0  0  0  0
   44.1670   35.7440   40.0330 H   0  0  0  0  0  0  0  0  0  0  0  0
   43.9540   34.8610   41.6570 H   0  0  0  0  0  0  0  0  0  0  0  0
   42.5200   34.6190   40.2440 N   0  0  0  0  0  0  0  0  0  0  0  0
   41.6770   33.9370   41.1090 C   0  0  0  0  0  0  0  0  0  0  0  0
   40.4440   34.8310   41.3160 C   0  0  0  0  0  0  0  0  0  0  0  0
   40.3900   35.8570   40.3090 N   0  0  0  0  0  0  0  0  0  0  0  0
   39.4540   36.2800   40.3030 H   0  0  0  0  0  0  0  0  0  0  0  0
   40.6910   35.3770   38.9680 C   0  0  0  0  0  0  0  0  0  0  0  0
   42.1530   34.9090   38.9350 C   0  0  0  0  0  0  0  0  0  0  0  0
  1  7  1  6  0  0  0
  1  6  1  0  0  0  0
  1 17  1  0  0  0  0
  2  8  1  0  0  0  0
  2  1  1  0  0  0  0
  3  4  1  0  0  0  0
  3  2  1  0  0  0  0
  4  5  1  0  0  0  0
  5 14  1  0  0  0  0
  5  6  1  0  0  0  0
  6 16  1  1  0  0  0
  9  2  1  0  0  0  0
 10  3  1  0  0  0  0
 11  3  1  0  0  0  0
 12  4  1  0  0  0  0
 13  4  1  0  0  0  0
 15  5  1  0  0  0  0
 17 19  1  0  0  0  0
 17 20  1  0  0  0  0
 18 17  1  0  0  0  0
 20 22  1  0  0  0  0
 20 24  1  0  0  0  0
 21 20  1  0  0  0  0
 23 29  1  0  0  0  0
 23 28  1  0  0  0  0
 24 23  2  0  0  0  0
 25 24  1  0  0  0  0
 25 26  2  0  0  0  0
 26 27  1  0  0  0  0
 27 28  2  0  0  0  0
 27 31  1  0  0  0  0
 30 25  1  0  0  0  0
 32 34  1  0  0  0  0
 32  6  1  0  0  0  0
 32 35  1  0  0  0  0
 33 32  1  0  0  0  0
 35 37  1  0  0  0  0
 36 35  1  0  0  0  0
 38 35  1  0  0  0  0
 38 39  1  0  0  0  0
 39 40  1  0  0  0  0
 41 40  1  0  0  0  0
 42 41  1  0  0  0  0
 43 41  1  0  0  0  0
 44 43  1  0  0  0  0
 44 38  1  0  0  0  0
M  END
>  <minimizedAffinity>
-5.10344172

>  <minimizedRMSD>
2.03305888

$$$$
