
 OpenBabel03232519363D

 36 39  0  0  0  0  0  0  0  0999 V2000
   46.5560   34.4490   42.0470 N   0  0  0  0  0  0  0  0  0  0  0  0
   47.6500   35.2730   41.9310 C   0  0  0  0  0  0  0  0  0  0  0  0
   48.3940   35.3010   40.7760 C   0  0  0  0  0  0  0  0  0  0  0  0
   47.9960   34.4570   39.7210 C   0  0  0  0  0  0  0  0  0  0  0  0
   48.6500   34.4570   38.6550 O   0  0  0  0  0  0  0  0  0  0  0  0
   46.9270   33.6900   39.9100 N   0  0  0  0  0  0  0  0  0  0  0  0
   46.2110   33.6750   41.0450 C   0  0  0  0  0  0  0  0  0  0  0  0
   45.2200   32.9910   41.2760 O   0  0  0  0  0  0  0  0  0  0  0  0
   48.0150   35.9390   42.6850 H   0  0  0  0  0  0  0  0  0  0  0  0
   49.2620   35.9300   40.6360 H   0  0  0  0  0  0  0  0  0  0  0  0
   46.4720   32.8150   38.8810 C   0  0  0  0  0  0  0  0  0  0  0  0
   45.4650   33.1280   37.9820 C   0  0  0  0  0  0  0  0  0  0  0  0
   45.0850   32.2220   37.0150 C   0  0  0  0  0  0  0  0  0  0  0  0
   45.7130   30.9670   36.9260 C   0  0  0  0  0  0  0  0  0  0  0  0
   46.7090   30.6840   37.8300 C   0  0  0  0  0  0  0  0  0  0  0  0
   47.1080   31.5880   38.8180 C   0  0  0  0  0  0  0  0  0  0  0  0
   45.0250   34.1070   38.1060 H   0  0  0  0  0  0  0  0  0  0  0  0
   44.3020   32.4810   36.3260 H   0  0  0  0  0  0  0  0  0  0  0  0
   45.4140   30.2550   36.1650 H   0  0  0  0  0  0  0  0  0  0  0  0
   47.1630   29.7000   37.7200 H   0  0  0  0  0  0  0  0  0  0  0  0
   48.1510   31.1200   39.6620 N   0  0  0  0  0  0  0  0  0  0  0  0
   48.0140   30.5800   40.9980 C   0  0  0  0  0  0  0  0  0  0  0  0
   49.1320   29.5510   41.2120 C   0  0  0  0  0  0  0  0  0  0  0  0
   50.4160   30.1760   41.1470 N   0  0  0  0  0  0  0  0  0  0  0  0
   51.1500   29.4630   41.2090 H   0  0  0  0  0  0  0  0  0  0  0  0
   50.5740   31.1850   40.1510 C   0  0  0  0  0  0  0  0  0  0  0  0
   49.4950   31.1970   39.1190 C   0  0  0  0  0  0  0  0  0  0  0  0
   44.5140   35.8400   44.8020 C   0  0  0  0  0  0  0  0  0  0  0  0
   45.1080   35.6860   43.5290 C   0  0  0  0  0  0  0  0  0  0  0  0
   45.9510   34.6040   43.3460 C   0  0  0  0  0  0  0  0  0  0  0  0
   46.1840   33.7320   44.3730 N   0  0  0  0  0  0  0  0  0  0  0  0
   45.5850   33.9300   45.5790 C   0  0  0  0  0  0  0  0  0  0  0  0
   44.7600   34.9670   45.7980 N   0  0  0  0  0  0  0  0  0  0  0  0
   43.8490   36.6540   45.0190 H   0  0  0  0  0  0  0  0  0  0  0  0
   44.8650   36.4230   42.7800 H   0  0  0  0  0  0  0  0  0  0  0  0
   45.8950   33.1330   46.2590 H   0  0  0  0  0  0  0  0  0  0  0  0
  1 30  1  0  0  0  0
  2  1  1  0  0  0  0
  2  9  1  0  0  0  0
  3  2  2  0  0  0  0
  4  6  1  0  0  0  0
  4  3  1  0  0  0  0
  5  4  2  0  0  0  0
  6  7  1  0  0  0  0
  7  8  2  0  0  0  0
  7  1  1  0  0  0  0
 10  3  1  0  0  0  0
 11  6  1  0  0  0  0
 12 17  1  0  0  0  0
 12 11  2  0  0  0  0
 13 12  1  0  0  0  0
 14 13  2  0  0  0  0
 14 15  1  0  0  0  0
 15 16  2  0  0  0  0
 16 11  1  0  0  0  0
 16 21  1  0  0  0  0
 18 13  1  0  0  0  0
 19 14  1  0  0  0  0
 20 15  1  0  0  0  0
 21 22  1  0  0  0  0
 22 23  1  0  0  0  0
 24 25  1  0  0  0  0
 24 23  1  0  0  0  0
 26 24  1  0  0  0  0
 27 21  1  0  0  0  0
 27 26  1  0  0  0  0
 28 34  1  0  0  0  0
 28 33  1  0  0  0  0
 29 28  2  0  0  0  0
 30 29  1  0  0  0  0
 30 31  2  0  0  0  0
 31 32  1  0  0  0  0
 32 33  2  0  0  0  0
 32 36  1  0  0  0  0
 35 29  1  0  0  0  0
M  END
>  <minimizedAffinity>
-5.34553337

>  <minimizedRMSD>
0.46012944

$$$$
