
 OpenBabel03232518313D

 35 39  0  0  1  0  0  0  0  0999 V2000
   44.9410   35.4610   44.2160 C   0  0  0  0  0  0  0  0  0  0  0  0
   45.9160   35.1130   43.2930 C   0  0  0  0  0  0  0  0  0  0  0  0
   46.8090   34.0530   43.6310 C   0  0  0  0  0  0  0  0  0  0  0  0
   46.6530   33.4440   44.8410 N   0  0  0  0  0  0  0  0  0  0  0  0
   45.6810   33.8390   45.6860 C   0  0  0  0  0  0  0  0  0  0  0  0
   44.8210   34.8430   45.3870 N   0  0  0  0  0  0  0  0  0  0  0  0
   44.2770   36.2600   43.9480 H   0  0  0  0  0  0  0  0  0  0  0  0
   46.0200   35.6010   42.3550 H   0  0  0  0  0  0  0  0  0  0  0  0
   47.9010   33.6180   42.6920 C   0  0  2  0  0  0  0  0  0  0  0  0
   49.0970   34.6250   42.6230 C   0  0  0  0  0  0  0  0  0  0  0  0
   48.1770   34.3510   41.4670 C   0  0  1  0  0  0  0  0  0  0  0  0
   48.2840   32.6250   42.9920 H   0  0  0  0  0  0  0  0  0  0  0  0
   48.9850   35.5520   43.2290 H   0  0  0  0  0  0  0  0  0  0  0  0
   50.1080   34.2320   42.6430 H   0  0  0  0  0  0  0  0  0  0  0  0
   47.5050   35.2120   41.2650 H   0  0  0  0  0  0  0  0  0  0  0  0
   48.6270   33.7550   40.2500 N   0  0  0  0  0  0  0  0  0  0  0  0
   48.8730   32.3620   40.3760 C   0  0  0  0  0  0  0  0  0  0  0  0
   47.7610   31.4820   39.8970 C   0  0  0  0  0  0  0  0  0  0  0  0
   46.6940   32.1320   39.2300 N   0  0  0  0  0  0  0  0  0  0  0  0
   45.8000   32.1900   39.7640 H   0  0  0  0  0  0  0  0  0  0  0  0
   46.9970   33.2900   38.4570 C   0  0  0  0  0  0  0  0  0  0  0  0
   48.0580   34.1870   39.0370 C   0  0  0  0  0  0  0  0  0  0  0  0
   45.5120   33.0200   47.2680 S   0  0  0  0  0  0  0  0  0  0  0  0
   48.6530   29.5800   48.7330 N   0  0  0  0  0  0  0  0  0  0  0  0
   48.7420   30.7520   49.3840 C   0  0  0  0  0  0  0  0  0  0  0  0
   47.8420   31.5980   48.8960 N   0  0  0  0  0  0  0  0  0  0  0  0
   47.1410   30.9950   47.9100 C   0  0  0  0  0  0  0  0  0  0  0  0
   46.1000   31.3440   47.0410 C   0  0  0  0  0  0  0  0  0  0  0  0
   45.6290   30.4750   46.1550 N   0  0  0  0  0  0  0  0  0  0  0  0
   46.2100   29.2280   46.1360 C   0  0  0  0  0  0  0  0  0  0  0  0
   47.2240   28.8240   46.9500 N   0  0  0  0  0  0  0  0  0  0  0  0
   47.6760   29.7340   47.8360 C   0  0  0  0  0  0  0  0  0  0  0  0
   49.2770   28.7870   48.9740 H   0  0  0  0  0  0  0  0  0  0  0  0
   49.3890   31.0870   50.1880 H   0  0  0  0  0  0  0  0  0  0  0  0
   45.8520   28.4870   45.4240 H   0  0  0  0  0  0  0  0  0  0  0  0
  1  6  1  0  0  0  0
  2  3  1  0  0  0  0
  2  1  2  0  0  0  0
  3  4  2  0  0  0  0
  4  5  1  0  0  0  0
  5 23  1  0  0  0  0
  6  5  2  0  0  0  0
  7  1  1  0  0  0  0
  8  2  1  0  0  0  0
  9 12  1  1  0  0  0
  9  3  1  0  0  0  0
 10 14  1  0  0  0  0
 10  9  1  0  0  0  0
 10 13  1  0  0  0  0
 11 15  1  6  0  0  0
 11 10  1  0  0  0  0
 11  9  1  0  0  0  0
 16 17  1  0  0  0  0
 16 11  1  0  0  0  0
 18 17  1  0  0  0  0
 19 20  1  0  0  0  0
 19 18  1  0  0  0  0
 21 22  2  0  0  0  0
 21 19  1  0  0  0  0
 22 16  1  0  0  0  0
 24 33  1  0  0  0  0
 24 25  1  0  0  0  0
 25 34  1  0  0  0  0
 26 25  2  0  0  0  0
 27 26  1  0  0  0  0
 28 23  1  0  0  0  0
 28 27  2  0  0  0  0
 29 28  1  0  0  0  0
 30 29  2  0  0  0  0
 30 31  1  0  0  0  0
 31 32  2  0  0  0  0
 32 27  1  0  0  0  0
 32 24  1  0  0  0  0
 35 30  1  0  0  0  0
M  END
>  <minimizedAffinity>
-5.74207401

>  <minimizedRMSD>
0.627349198

$$$$
