
 OpenBabel03232520523D

 33 35  0  0  1  0  0  0  0  0999 V2000
   46.3720   33.7560   44.5990 C   0  0  2  0  0  0  0  0  0  0  0  0
   45.1740   34.5270   45.1000 C   0  0  0  0  0  0  0  0  0  0  0  0
   44.6470   35.5530   44.2300 C   0  0  0  0  0  0  0  0  0  0  0  0
   45.2470   35.8240   42.9380 C   0  0  1  0  0  0  0  0  0  0  0  0
   46.4660   35.0630   42.5840 C   0  0  0  0  0  0  0  0  0  0  0  0
   46.3740   33.6620   43.1150 C   0  0  0  0  0  0  0  0  0  0  0  0
   47.2550   34.3860   44.9130 H   0  0  0  0  0  0  0  0  0  0  0  0
   44.5640   34.5190   45.9830 H   0  0  0  0  0  0  0  0  0  0  0  0
   43.8090   36.1500   44.4910 H   0  0  0  0  0  0  0  0  0  0  0  0
   45.4810   36.9140   42.8830 H   0  0  0  0  0  0  0  0  0  0  0  0
   46.5570   35.0200   41.4840 H   0  0  0  0  0  0  0  0  0  0  0  0
   47.4040   35.5190   42.9860 H   0  0  0  0  0  0  0  0  0  0  0  0
   47.3110   33.1510   42.8150 H   0  0  0  0  0  0  0  0  0  0  0  0
   45.4720   33.1580   42.7320 H   0  0  0  0  0  0  0  0  0  0  0  0
   45.7360   32.3080   46.4670 C   0  0  0  0  0  0  0  0  0  0  0  0
   46.4820   32.4970   45.3190 C   0  0  0  0  0  0  0  0  0  0  0  0
   47.3150   31.4460   44.9310 C   0  0  0  0  0  0  0  0  0  0  0  0
   47.3750   30.3130   45.6530 N   0  0  0  0  0  0  0  0  0  0  0  0
   46.6310   30.1510   46.7810 C   0  0  0  0  0  0  0  0  0  0  0  0
   45.8230   31.1470   47.1740 N   0  0  0  0  0  0  0  0  0  0  0  0
   45.0460   33.0130   46.9100 H   0  0  0  0  0  0  0  0  0  0  0  0
   47.9150   31.5510   44.0400 H   0  0  0  0  0  0  0  0  0  0  0  0
   46.6870   28.9580   47.5510 N   0  0  0  0  0  0  0  0  0  0  0  0
   47.8800   28.1280   47.6370 C   0  0  0  0  0  0  0  0  0  0  0  0
   47.5830   26.6740   47.5880 C   0  0  0  0  0  0  0  0  0  0  0  0
   46.3480   26.2970   48.2160 N   0  0  0  0  0  0  0  0  0  0  0  0
   46.2050   25.2930   48.3180 H   0  0  0  0  0  0  0  0  0  0  0  0
   45.2320   27.1010   47.8630 C   0  0  0  0  0  0  0  0  0  0  0  0
   45.4890   28.5440   48.2930 C   0  0  0  0  0  0  0  0  0  0  0  0
   44.1790   35.5980   41.8630 C   0  0  0  0  0  0  0  0  0  0  0  0
   43.0730   34.9260   42.3430 F   0  0  0  0  0  0  0  0  0  0  0  0
   43.7290   36.8610   41.4620 F   0  0  0  0  0  0  0  0  0  0  0  0
   44.7310   35.0010   40.7520 F   0  0  0  0  0  0  0  0  0  0  0  0
  1  7  1  1  0  0  0
  1  2  1  0  0  0  0
  1 16  1  0  0  0  0
  2  8  1  0  0  0  0
  3  9  1  0  0  0  0
  3  2  2  0  0  0  0
  4 10  1  6  0  0  0
  4  3  1  0  0  0  0
  5  4  1  0  0  0  0
  5 12  1  0  0  0  0
  5  6  1  0  0  0  0
  6  1  1  0  0  0  0
 11  5  1  0  0  0  0
 13  6  1  0  0  0  0
 14  6  1  0  0  0  0
 15 21  1  0  0  0  0
 15 20  1  0  0  0  0
 16 15  2  0  0  0  0
 17 16  1  0  0  0  0
 17 18  2  0  0  0  0
 18 19  1  0  0  0  0
 19 20  2  0  0  0  0
 19 23  1  0  0  0  0
 22 17  1  0  0  0  0
 23 24  1  0  0  0  0
 23 29  1  0  0  0  0
 25 24  1  0  0  0  0
 25 26  1  0  0  0  0
 26 27  1  0  0  0  0
 28 26  1  0  0  0  0
 28 29  1  0  0  0  0
 30 31  1  0  0  0  0
 30  4  1  0  0  0  0
 32 30  1  0  0  0  0
 33 30  1  0  0  0  0
M  END
>  <minimizedAffinity>
-5.05190992

>  <minimizedRMSD>
1.705176

$$$$
