
 OpenBabel03232520593D

 39 41  0  0  1  0  0  0  0  0999 V2000
   45.3540   32.8740   47.4990 C   0  0  0  0  0  0  0  0  0  0  0  0
   45.9110   32.6210   46.2890 C   0  0  0  0  0  0  0  0  0  0  0  0
   46.1880   31.2760   46.0400 C   0  0  0  0  0  0  0  0  0  0  0  0
   45.9310   30.2820   46.9260 N   0  0  0  0  0  0  0  0  0  0  0  0
   45.3630   30.5980   48.1500 C   0  0  0  0  0  0  0  0  0  0  0  0
   45.0910   31.8680   48.4050 N   0  0  0  0  0  0  0  0  0  0  0  0
   45.1190   29.5790   49.1100 N   0  0  0  0  0  0  0  0  0  0  0  0
   45.1030   33.8800   47.7960 H   0  0  0  0  0  0  0  0  0  0  0  0
   44.8840   28.5990   48.8080 H   0  0  0  0  0  0  0  0  0  0  0  0
   45.1880   29.8650   50.1260 H   0  0  0  0  0  0  0  0  0  0  0  0
   46.1620   33.5780   45.2670 C   0  0  2  0  0  0  0  0  0  0  0  0
   44.9550   34.6750   45.5030 C   0  0  0  0  0  0  0  0  0  0  0  0
   44.7290   35.6130   44.4400 C   0  0  0  0  0  0  0  0  0  0  0  0
   45.5350   35.5480   43.2160 C   0  0  1  0  0  0  0  0  0  0  0  0
   46.5910   34.5430   43.1630 C   0  0  0  0  0  0  0  0  0  0  0  0
   46.1350   33.3050   43.9010 C   0  0  0  0  0  0  0  0  0  0  0  0
   46.9840   34.2810   45.6090 H   0  0  0  0  0  0  0  0  0  0  0  0
   44.2790   34.8230   46.3360 H   0  0  0  0  0  0  0  0  0  0  0  0
   43.9630   36.3360   44.5550 H   0  0  0  0  0  0  0  0  0  0  0  0
   45.9620   36.5630   43.0370 H   0  0  0  0  0  0  0  0  0  0  0  0
   46.8560   34.3440   42.0900 H   0  0  0  0  0  0  0  0  0  0  0  0
   47.5110   34.8920   43.6850 H   0  0  0  0  0  0  0  0  0  0  0  0
   45.1500   33.0300   43.4720 H   0  0  0  0  0  0  0  0  0  0  0  0
   46.9490   32.6410   43.5490 H   0  0  0  0  0  0  0  0  0  0  0  0
   44.5240   35.2940   42.0590 C   0  0  0  0  0  0  0  0  0  0  0  0
   43.4540   34.5060   42.4500 F   0  0  0  0  0  0  0  0  0  0  0  0
   43.9990   36.5420   41.7230 F   0  0  0  0  0  0  0  0  0  0  0  0
   45.1960   34.8270   40.9470 F   0  0  0  0  0  0  0  0  0  0  0  0
   46.8260   30.5860   44.9310 C   0  0  0  0  0  0  0  0  0  0  0  0
   46.4730   29.8220   43.8660 C   0  0  0  0  0  0  0  0  0  0  0  0
   47.6550   29.4360   43.2040 C   0  0  0  0  0  0  0  0  0  0  0  0
   48.6490   29.9870   43.9010 N   0  0  0  0  0  0  0  0  0  0  0  0
   48.1890   30.6690   44.9220 N   0  0  0  0  0  0  0  0  0  0  0  0
   45.4250   29.6440   43.7080 H   0  0  0  0  0  0  0  0  0  0  0  0
   47.6060   28.8250   42.3310 H   0  0  0  0  0  0  0  0  0  0  0  0
   50.0590   29.8130   43.5210 C   0  0  0  0  0  0  0  0  0  0  0  0
   50.1610   28.8970   42.5080 F   0  0  0  0  0  0  0  0  0  0  0  0
   50.8510   29.5500   44.6020 F   0  0  0  0  0  0  0  0  0  0  0  0
   50.5140   31.0330   43.0040 F   0  0  0  0  0  0  0  0  0  0  0  0
  1  8  1  0  0  0  0
  1  6  1  0  0  0  0
  2  1  2  0  0  0  0
  3  2  1  0  0  0  0
  3  4  2  0  0  0  0
  4  5  1  0  0  0  0
  5  6  2  0  0  0  0
  5  7  1  0  0  0  0
  7 10  1  0  0  0  0
  9  7  1  0  0  0  0
 11 12  1  0  0  0  0
 11 17  1  1  0  0  0
 11  2  1  0  0  0  0
 12 18  1  0  0  0  0
 13 19  1  0  0  0  0
 13 12  2  0  0  0  0
 14 20  1  6  0  0  0
 14 13  1  0  0  0  0
 15 14  1  0  0  0  0
 15 22  1  0  0  0  0
 15 16  1  0  0  0  0
 16 11  1  0  0  0  0
 21 15  1  0  0  0  0
 23 16  1  0  0  0  0
 24 16  1  0  0  0  0
 25 26  1  0  0  0  0
 25 14  1  0  0  0  0
 27 25  1  0  0  0  0
 28 25  1  0  0  0  0
 29  3  1  0  0  0  0
 30 29  1  0  0  0  0
 31 30  2  0  0  0  0
 31 32  1  0  0  0  0
 32 33  1  0  0  0  0
 33 29  2  0  0  0  0
 34 30  1  0  0  0  0
 35 31  1  0  0  0  0
 36 32  1  0  0  0  0
 36 38  1  0  0  0  0
 37 36  1  0  0  0  0
 39 36  1  0  0  0  0
M  END
>  <minimizedAffinity>
-5.66593838

>  <minimizedRMSD>
0.282191962

$$$$
