
 OpenBabel03232518563D

 29 30  0  0  1  0  0  0  0  0999 V2000
   47.0690   32.6640   44.7420 C   0  0  2  0  0  0  0  0  0  0  0  0
   47.9550   33.0510   45.3280 H   0  0  0  0  0  0  0  0  0  0  0  0
   44.6140   35.3780   45.1630 C   0  0  0  0  0  0  0  0  0  0  0  0
   44.7540   36.0800   43.9140 C   0  0  0  0  0  0  0  0  0  0  0  0
   45.6940   35.5820   42.9580 C   0  0  0  0  0  0  0  0  0  0  0  0
   46.4100   34.4600   43.2920 N   0  0  0  0  0  0  0  0  0  0  0  0
   46.2400   33.8460   44.4690 C   0  0  0  0  0  0  0  0  0  0  0  0
   45.3510   34.3060   45.3860 N   0  0  0  0  0  0  0  0  0  0  0  0
   43.8810   35.8310   45.8150 H   0  0  0  0  0  0  0  0  0  0  0  0
   44.2040   36.9510   43.6430 H   0  0  0  0  0  0  0  0  0  0  0  0
   45.8160   36.0920   42.0140 H   0  0  0  0  0  0  0  0  0  0  0  0
   47.6360   32.1040   43.4330 C   0  0  0  0  0  0  0  0  0  0  0  0
   47.0790   31.1580   43.1660 H   0  0  0  0  0  0  0  0  0  0  0  0
   47.5500   32.8830   42.6550 H   0  0  0  0  0  0  0  0  0  0  0  0
   48.6740   31.8130   43.5860 H   0  0  0  0  0  0  0  0  0  0  0  0
   46.4110   31.6100   45.5530 C   0  0  0  0  0  0  0  0  0  0  0  0
   45.3810   31.8830   45.8140 H   0  0  0  0  0  0  0  0  0  0  0  0
   46.4690   30.6550   44.9820 H   0  0  0  0  0  0  0  0  0  0  0  0
   47.2350   31.3920   46.7820 C   0  0  0  0  0  0  0  0  0  0  0  0
   47.2510   32.3590   47.7530 C   0  0  0  0  0  0  0  0  0  0  0  0
   48.0650   31.9340   48.7660 C   0  0  0  0  0  0  0  0  0  0  0  0
   48.5130   30.7080   48.3570 N   0  0  0  0  0  0  0  0  0  0  0  0
   48.0200   30.3880   47.1820 N   0  0  0  0  0  0  0  0  0  0  0  0
   46.8020   33.3490   47.9300 H   0  0  0  0  0  0  0  0  0  0  0  0
   48.3820   32.3400   49.7160 H   0  0  0  0  0  0  0  0  0  0  0  0
   49.4180   29.8280   49.0870 C   0  0  0  0  0  0  0  0  0  0  0  0
   50.7270   30.0910   48.7390 F   0  0  0  0  0  0  0  0  0  0  0  0
   49.2580   30.0860   50.4470 F   0  0  0  0  0  0  0  0  0  0  0  0
   49.1750   28.4980   48.8170 F   0  0  0  0  0  0  0  0  0  0  0  0
  1  2  1  1  0  0  0
  1 16  1  0  0  0  0
  3  8  1  0  0  0  0
  3  9  1  0  0  0  0
  4  3  2  0  0  0  0
  5  6  2  0  0  0  0
  5  4  1  0  0  0  0
  6  7  1  0  0  0  0
  7  1  1  0  0  0  0
  7  8  2  0  0  0  0
 10  4  1  0  0  0  0
 11  5  1  0  0  0  0
 12 15  1  0  0  0  0
 12  1  1  0  0  0  0
 13 12  1  0  0  0  0
 14 12  1  0  0  0  0
 16 17  1  0  0  0  0
 16 19  1  0  0  0  0
 18 16  1  0  0  0  0
 19 23  2  0  0  0  0
 19 20  1  0  0  0  0
 20 24  1  0  0  0  0
 20 21  2  0  0  0  0
 21 25  1  0  0  0  0
 22 21  1  0  0  0  0
 22 26  1  0  0  0  0
 23 22  1  0  0  0  0
 26 28  1  0  0  0  0
 27 26  1  0  0  0  0
 29 26  1  0  0  0  0
M  END
>  <minimizedAffinity>
-4.60045385

>  <minimizedRMSD>
1.9294697

$$$$
