
 OpenBabel03232515383D

 41 45  0  0  1  0  0  0  0  0999 V2000
   46.1910   32.8200   40.2330 C   0  0  0  0  0  0  0  0  0  0  0  0
   46.8130   31.9600   40.5450 H   0  0  0  0  0  0  0  0  0  0  0  0
   45.1630   32.5450   40.5680 H   0  0  0  0  0  0  0  0  0  0  0  0
   46.2880   32.7990   38.7780 N   0  0  0  0  0  0  0  0  0  0  0  0
   45.2600   33.1890   38.0350 N   0  0  0  0  0  0  0  0  0  0  0  0
   45.4870   33.1120   36.7470 C   0  0  0  0  0  0  0  0  0  0  0  0
   46.7510   32.6400   36.6010 C   0  0  0  0  0  0  0  0  0  0  0  0
   47.2000   32.4640   37.8930 C   0  0  0  0  0  0  0  0  0  0  0  0
   44.8270   33.3650   35.9170 H   0  0  0  0  0  0  0  0  0  0  0  0
   47.5480   32.3500   35.4130 C   0  0  0  0  0  0  0  0  0  0  0  0
   48.7730   32.9910   35.1960 C   0  0  0  0  0  0  0  0  0  0  0  0
   49.2260   32.4940   34.0300 N   0  0  0  0  0  0  0  0  0  0  0  0
   48.3510   31.5860   33.5220 C   0  0  0  0  0  0  0  0  0  0  0  0
   48.4040   30.8350   32.3600 C   0  0  0  0  0  0  0  0  0  0  0  0
   47.3370   29.9960   32.1380 C   0  0  0  0  0  0  0  0  0  0  0  0
   46.2390   29.8590   32.9780 C   0  0  0  0  0  0  0  0  0  0  0  0
   46.2280   30.6340   34.1340 C   0  0  0  0  0  0  0  0  0  0  0  0
   47.2770   31.4750   34.3800 C   0  0  0  0  0  0  0  0  0  0  0  0
   50.1470   32.8260   33.6440 H   0  0  0  0  0  0  0  0  0  0  0  0
   48.4930   31.9830   38.3440 N   0  0  0  0  0  0  0  0  0  0  0  0
   48.5520   30.9630   38.4870 H   0  0  0  0  0  0  0  0  0  0  0  0
   49.3500   32.5470   38.5360 H   0  0  0  0  0  0  0  0  0  0  0  0
   46.5350   34.1370   40.7660 C   0  0  2  0  0  0  0  0  0  0  0  0
   46.4780   34.8690   39.8910 H   0  0  0  0  0  0  0  0  0  0  0  0
   48.4940   35.4130   41.5340 C   0  0  0  0  0  0  0  0  0  0  0  0
   47.7960   34.2520   41.3750 C   0  0  0  0  0  0  0  0  0  0  0  0
   48.4360   33.1050   41.8440 C   0  0  0  0  0  0  0  0  0  0  0  0
   49.6630   33.1340   42.4170 N   0  0  0  0  0  0  0  0  0  0  0  0
   50.2870   34.3520   42.5320 C   0  0  0  0  0  0  0  0  0  0  0  0
   49.7080   35.4560   42.0980 N   0  0  0  0  0  0  0  0  0  0  0  0
   48.0090   36.3210   41.1730 H   0  0  0  0  0  0  0  0  0  0  0  0
   48.1350   32.0680   41.8650 H   0  0  0  0  0  0  0  0  0  0  0  0
   51.2740   34.5020   42.9730 H   0  0  0  0  0  0  0  0  0  0  0  0
   45.4060   34.7130   41.6400 C   0  0  0  0  0  0  0  0  0  0  0  0
   44.1270   34.9220   41.0870 C   0  0  0  0  0  0  0  0  0  0  0  0
   43.4230   35.4400   42.1680 C   0  0  0  0  0  0  0  0  0  0  0  0
   44.2940   35.5120   43.2820 C   0  0  0  0  0  0  0  0  0  0  0  0
   45.4630   35.0650   42.9110 O   0  0  0  0  0  0  0  0  0  0  0  0
   43.8390   34.7090   40.0670 H   0  0  0  0  0  0  0  0  0  0  0  0
   42.3820   35.7230   42.1100 H   0  0  0  0  0  0  0  0  0  0  0  0
   44.0200   35.8760   44.2640 H   0  0  0  0  0  0  0  0  0  0  0  0
  1  2  1  0  0  0  0
  1  3  1  0  0  0  0
  1 23  1  0  0  0  0
  4  1  1  0  0  0  0
  5  4  1  0  0  0  0
  6  5  2  0  0  0  0
  7  6  1  0  0  0  0
  7  8  2  0  0  0  0
  8 20  1  0  0  0  0
  8  4  1  0  0  0  0
  9  6  1  0  0  0  0
 10  7  1  0  0  0  0
 11 10  2  0  0  0  0
 12 11  1  0  0  0  0
 13 12  1  0  0  0  0
 13 18  1  0  0  0  0
 14 13  2  0  0  0  0
 15 14  1  0  0  0  0
 15 16  2  0  0  0  0
 16 17  1  0  0  0  0
 17 18  2  0  0  0  0
 18 10  1  0  0  0  0
 19 12  1  0  0  0  0
 20 21  1  0  0  0  0
 20 22  1  0  0  0  0
 23 24  1  6  0  0  0
 23 26  1  0  0  0  0
 23 34  1  0  0  0  0
 25 30  1  0  0  0  0
 26 25  2  0  0  0  0
 26 27  1  0  0  0  0
 27 32  1  0  0  0  0
 27 28  2  0  0  0  0
 28 29  1  0  0  0  0
 29 33  1  0  0  0  0
 30 29  2  0  0  0  0
 31 25  1  0  0  0  0
 34 38  1  0  0  0  0
 35 34  2  0  0  0  0
 35 36  1  0  0  0  0
 36 37  2  0  0  0  0
 37 41  1  0  0  0  0
 38 37  1  0  0  0  0
 39 35  1  0  0  0  0
 40 36  1  0  0  0  0
M  END
>  <minimizedAffinity>
-5.79377651

>  <minimizedRMSD>
1.38812518

$$$$
