
 OpenBabel03232520223D

 42 46  0  0  0  0  0  0  0  0999 V2000
   47.4660   34.0430   42.3840 C   0  0  0  0  0  0  0  0  0  0  0  0
   48.2360   35.1810   41.7510 C   0  0  0  0  0  0  0  0  0  0  0  0
   49.5980   35.3790   42.2650 C   0  0  0  0  0  0  0  0  0  0  0  0
   50.3880   34.1270   42.4530 C   0  0  0  0  0  0  0  0  0  0  0  0
   49.5770   32.8660   42.2880 C   0  0  0  0  0  0  0  0  0  0  0  0
   48.2950   33.0430   43.0900 C   0  0  0  0  0  0  0  0  0  0  0  0
   48.2810   35.0610   40.6430 H   0  0  0  0  0  0  0  0  0  0  0  0
   47.6450   36.1160   41.9130 H   0  0  0  0  0  0  0  0  0  0  0  0
   49.5400   35.9300   43.2310 H   0  0  0  0  0  0  0  0  0  0  0  0
   50.1060   36.0900   41.5690 H   0  0  0  0  0  0  0  0  0  0  0  0
   50.9100   34.1100   43.4360 H   0  0  0  0  0  0  0  0  0  0  0  0
   51.1990   34.0920   41.6790 H   0  0  0  0  0  0  0  0  0  0  0  0
   50.1760   32.0370   42.7520 H   0  0  0  0  0  0  0  0  0  0  0  0
   49.4000   32.6250   41.2340 H   0  0  0  0  0  0  0  0  0  0  0  0
   48.6210   33.3510   44.1180 H   0  0  0  0  0  0  0  0  0  0  0  0
   47.7970   32.0500   43.0880 H   0  0  0  0  0  0  0  0  0  0  0  0
   45.2590   34.4050   45.3340 C   0  0  0  0  0  0  0  0  0  0  0  0
   44.5240   35.5660   45.0280 C   0  0  0  0  0  0  0  0  0  0  0  0
   44.7900   36.2160   43.8210 C   0  0  0  0  0  0  0  0  0  0  0  0
   45.7410   35.6990   43.0050 N   0  0  0  0  0  0  0  0  0  0  0  0
   46.4350   34.5760   43.3270 C   0  0  0  0  0  0  0  0  0  0  0  0
   46.1840   33.9290   44.5070 N   0  0  0  0  0  0  0  0  0  0  0  0
   44.9780   33.9840   46.2850 H   0  0  0  0  0  0  0  0  0  0  0  0
   43.7570   36.0160   45.6440 H   0  0  0  0  0  0  0  0  0  0  0  0
   44.3200   37.1070   43.4420 H   0  0  0  0  0  0  0  0  0  0  0  0
   46.7560   33.3060   41.2650 C   0  0  0  0  0  0  0  0  0  0  0  0
   45.7500   32.3740   41.1210 C   0  0  0  0  0  0  0  0  0  0  0  0
   45.4280   31.9940   39.8690 C   0  0  0  0  0  0  0  0  0  0  0  0
   46.0360   32.4760   38.7890 C   0  0  0  0  0  0  0  0  0  0  0  0
   47.2520   33.6380   39.5430 S   0  0  0  0  0  0  0  0  0  0  0  0
   45.3960   32.1190   42.1010 H   0  0  0  0  0  0  0  0  0  0  0  0
   44.6370   31.2650   39.8140 H   0  0  0  0  0  0  0  0  0  0  0  0
   46.0220   32.3680   37.4020 C   0  0  0  0  0  0  0  0  0  0  0  0
   46.9690   32.8860   36.5080 C   0  0  0  0  0  0  0  0  0  0  0  0
   46.6410   32.5940   35.2360 N   0  0  0  0  0  0  0  0  0  0  0  0
   45.4950   31.8890   35.2050 C   0  0  0  0  0  0  0  0  0  0  0  0
   44.7460   31.3570   34.1750 C   0  0  0  0  0  0  0  0  0  0  0  0
   43.5890   30.6690   34.4750 C   0  0  0  0  0  0  0  0  0  0  0  0
   43.2180   30.5360   35.7950 C   0  0  0  0  0  0  0  0  0  0  0  0
   43.9870   31.0790   36.8000 C   0  0  0  0  0  0  0  0  0  0  0  0
   45.1440   31.7690   36.5310 C   0  0  0  0  0  0  0  0  0  0  0  0
   47.1440   32.8380   34.3440 H   0  0  0  0  0  0  0  0  0  0  0  0
  1  6  1  0  0  0  0
  1 21  1  0  0  0  0
  2  8  1  0  0  0  0
  2  3  1  0  0  0  0
  2  1  1  0  0  0  0
  3  4  1  0  0  0  0
  3  9  1  0  0  0  0
  4 11  1  0  0  0  0
  5  4  1  0  0  0  0
  5 13  1  0  0  0  0
  5  6  1  0  0  0  0
  6 15  1  0  0  0  0
  7  2  1  0  0  0  0
 10  3  1  0  0  0  0
 12  4  1  0  0  0  0
 14  5  1  0  0  0  0
 16  6  1  0  0  0  0
 17 23  1  0  0  0  0
 18 17  1  0  0  0  0
 18 24  1  0  0  0  0
 19 18  2  0  0  0  0
 20 21  2  0  0  0  0
 20 19  1  0  0  0  0
 21 22  1  0  0  0  0
 22 17  2  0  0  0  0
 25 19  1  0  0  0  0
 26  1  1  0  0  0  0
 27 26  2  0  0  0  0
 27 31  1  0  0  0  0
 28 27  1  0  0  0  0
 29 30  1  0  0  0  0
 29 28  2  0  0  0  0
 30 26  1  0  0  0  0
 32 28  1  0  0  0  0
 33 29  1  0  0  0  0
 34 33  2  0  0  0  0
 35 34  1  0  0  0  0
 36 35  1  0  0  0  0
 36 41  1  0  0  0  0
 37 38  1  0  0  0  0
 37 36  2  0  0  0  0
 38 39  2  0  0  0  0
 39 40  1  0  0  0  0
 41 40  2  0  0  0  0
 41 33  1  0  0  0  0
 42 35  1  0  0  0  0
M  END
>  <minimizedAffinity>
-6.68319178

>  <minimizedRMSD>
0.895577908

$$$$
