
 OpenBabel03232513563D

 35 39  0  0  0  0  0  0  0  0999 V2000
   45.1850   32.6060   43.8860 C   0  0  0  0  0  0  0  0  0  0  0  0
   45.5800   33.0790   42.6230 C   0  0  0  0  0  0  0  0  0  0  0  0
   46.7310   32.5680   42.0550 C   0  0  0  0  0  0  0  0  0  0  0  0
   47.4280   31.6320   42.7420 N   0  0  0  0  0  0  0  0  0  0  0  0
   47.0260   31.1910   43.9600 C   0  0  0  0  0  0  0  0  0  0  0  0
   45.9000   31.6890   44.5180 N   0  0  0  0  0  0  0  0  0  0  0  0
   44.2860   32.9960   44.3430 H   0  0  0  0  0  0  0  0  0  0  0  0
   47.6480   30.4410   44.4310 H   0  0  0  0  0  0  0  0  0  0  0  0
   47.1200   33.0560   40.7770 N   0  0  0  0  0  0  0  0  0  0  0  0
   47.8900   34.1750   40.8610 C   0  0  0  0  0  0  0  0  0  0  0  0
   48.3270   34.7390   39.6560 C   0  0  0  0  0  0  0  0  0  0  0  0
   48.0150   34.2160   38.4410 C   0  0  0  0  0  0  0  0  0  0  0  0
   48.4190   34.7400   37.3760 O   0  0  0  0  0  0  0  0  0  0  0  0
   47.2380   33.0910   38.4370 N   0  0  0  0  0  0  0  0  0  0  0  0
   46.8050   32.5300   39.5790 C   0  0  0  0  0  0  0  0  0  0  0  0
   46.0900   31.4980   39.6140 O   0  0  0  0  0  0  0  0  0  0  0  0
   48.1800   34.6490   41.7640 H   0  0  0  0  0  0  0  0  0  0  0  0
   48.9510   35.6420   39.6620 H   0  0  0  0  0  0  0  0  0  0  0  0
   46.9760   32.6590   37.5180 H   0  0  0  0  0  0  0  0  0  0  0  0
   44.7520   34.0680   42.0110 N   0  0  0  0  0  0  0  0  0  0  0  0
   44.6470   35.4050   42.2480 C   0  0  0  0  0  0  0  0  0  0  0  0
   43.7260   35.9500   41.4240 N   0  0  0  0  0  0  0  0  0  0  0  0
   43.2540   34.9320   40.6670 C   0  0  0  0  0  0  0  0  0  0  0  0
   43.8920   33.8080   41.0450 N   0  0  0  0  0  0  0  0  0  0  0  0
   45.2540   35.9120   43.0130 H   0  0  0  0  0  0  0  0  0  0  0  0
   42.2560   34.9030   39.6150 C   0  0  0  0  0  0  0  0  0  0  0  0
   42.2840   35.2970   38.3090 C   0  0  0  0  0  0  0  0  0  0  0  0
   41.1040   35.0750   37.7080 N   0  0  0  0  0  0  0  0  0  0  0  0
   40.2910   34.5250   38.6450 C   0  0  0  0  0  0  0  0  0  0  0  0
   38.9910   34.1290   38.5010 C   0  0  0  0  0  0  0  0  0  0  0  0
   38.3440   33.5860   39.6070 C   0  0  0  0  0  0  0  0  0  0  0  0
   38.9850   33.4420   40.8360 C   0  0  0  0  0  0  0  0  0  0  0  0
   40.2930   33.8700   40.8810 C   0  0  0  0  0  0  0  0  0  0  0  0
   40.9860   34.4150   39.8230 C   0  0  0  0  0  0  0  0  0  0  0  0
   40.8940   35.2970   36.7070 H   0  0  0  0  0  0  0  0  0  0  0  0
  1  7  1  0  0  0  0
  1  6  1  0  0  0  0
  2  1  2  0  0  0  0
  3  2  1  0  0  0  0
  3  4  2  0  0  0  0
  4  5  1  0  0  0  0
  5  8  1  0  0  0  0
  5  6  2  0  0  0  0
  9 10  1  0  0  0  0
  9  3  1  0  0  0  0
 10 17  1  0  0  0  0
 11 18  1  0  0  0  0
 11 10  2  0  0  0  0
 12 11  1  0  0  0  0
 13 12  2  0  0  0  0
 14 12  1  0  0  0  0
 14 15  1  0  0  0  0
 15 16  2  0  0  0  0
 15  9  1  0  0  0  0
 19 14  1  0  0  0  0
 20 21  1  0  0  0  0
 20  2  1  0  0  0  0
 21 25  1  0  0  0  0
 22 21  2  0  0  0  0
 23 24  2  0  0  0  0
 23 22  1  0  0  0  0
 24 20  1  0  0  0  0
 26 34  1  0  0  0  0
 26 23  1  0  0  0  0
 27 26  2  0  0  0  0
 28 27  1  0  0  0  0
 28 29  1  0  0  0  0
 29 34  1  0  0  0  0
 30 29  2  0  0  0  0
 30 31  1  0  0  0  0
 31 32  2  0  0  0  0
 32 33  1  0  0  0  0
 34 33  2  0  0  0  0
 35 28  1  0  0  0  0
M  END
>  <minimizedAffinity>
-6.77501678

>  <minimizedRMSD>
1.77017713

$$$$
