
 OpenBabel03232520513D

 33 36  0  0  1  0  0  0  0  0999 V2000
   46.5550   33.3040   45.6710 C   0  0  2  0  0  0  0  0  0  0  0  0
   45.3350   34.1460   45.3740 C   0  0  0  0  0  0  0  0  0  0  0  0
   45.2800   34.8010   44.0830 C   0  0  0  0  0  0  0  0  0  0  0  0
   46.3720   34.6400   43.1170 C   0  0  1  0  0  0  0  0  0  0  0  0
   47.5750   33.9000   43.5890 C   0  0  0  0  0  0  0  0  0  0  0  0
   47.1260   32.7190   44.4150 C   0  0  0  0  0  0  0  0  0  0  0  0
   47.3150   34.0020   46.1310 H   0  0  0  0  0  0  0  0  0  0  0  0
   44.4630   34.3720   45.9410 H   0  0  0  0  0  0  0  0  0  0  0  0
   44.4470   35.4030   43.8200 H   0  0  0  0  0  0  0  0  0  0  0  0
   46.7130   35.6770   42.8560 H   0  0  0  0  0  0  0  0  0  0  0  0
   48.1370   33.5420   42.7080 H   0  0  0  0  0  0  0  0  0  0  0  0
   48.1700   34.5640   44.2510 H   0  0  0  0  0  0  0  0  0  0  0  0
   46.3460   32.1150   43.9060 H   0  0  0  0  0  0  0  0  0  0  0  0
   48.0180   32.1160   44.6760 H   0  0  0  0  0  0  0  0  0  0  0  0
   45.8230   34.0340   41.8760 C   0  0  0  0  0  0  0  0  0  0  0  0
   44.6010   33.4090   41.6300 C   0  0  0  0  0  3  0  0  0  0  0  0
   44.5390   33.0120   40.3440 N   0  0  0  0  0  0  0  0  0  0  0  0
   45.6910   33.3460   39.6940 C   0  0  0  0  0  0  0  0  0  0  0  0
   46.1880   33.2030   38.4110 C   0  0  0  0  0  3  0  0  0  0  0  0
   47.4360   33.6650   38.0510 C   0  0  0  0  0  3  0  0  0  0  0  0
   48.1980   34.2890   39.0170 C   0  0  0  0  0  3  0  0  0  0  0  0
   47.7320   34.4500   40.3150 C   0  0  0  0  0  3  0  0  0  0  0  0
   46.4730   33.9760   40.6500 C   0  0  0  0  0  0  0  0  0  0  0  0
   43.7540   32.5150   39.8590 H   0  0  0  0  0  0  0  0  0  0  0  0
   45.3210   32.6450   47.7170 C   0  0  0  0  0  0  0  0  0  0  0  0
   46.2210   32.3200   46.7040 C   0  0  0  0  0  0  0  0  0  0  0  0
   46.7820   31.0240   46.7440 C   0  0  0  0  0  0  0  0  0  0  0  0
   46.4300   30.1750   47.7400 N   0  0  0  0  0  0  0  0  0  0  0  0
   45.5480   30.5350   48.7070 C   0  0  0  0  0  0  0  0  0  0  0  0
   45.0000   31.7710   48.6850 N   0  0  0  0  0  0  0  0  0  0  0  0
   44.8290   33.6070   47.7900 H   0  0  0  0  0  0  0  0  0  0  0  0
   47.4850   30.7030   45.9930 H   0  0  0  0  0  0  0  0  0  0  0  0
   45.2750   29.8480   49.4960 H   0  0  0  0  0  0  0  0  0  0  0  0
  1  7  1  1  0  0  0
  1 26  1  0  0  0  0
  2  1  1  0  0  0  0
  2  8  1  0  0  0  0
  3  2  2  0  0  0  0
  4 10  1  6  0  0  0
  4  5  1  0  0  0  0
  4  3  1  0  0  0  0
  5 12  1  0  0  0  0
  5  6  1  0  0  0  0
  6 14  1  0  0  0  0
  6  1  1  0  0  0  0
  9  3  1  0  0  0  0
 11  5  1  0  0  0  0
 13  6  1  0  0  0  0
 15  4  1  0  0  0  0
 16 15  2  0  0  0  0
 17 16  1  0  0  0  0
 18 17  1  0  0  0  0
 18 23  1  0  0  0  0
 19 18  2  0  0  0  0
 20 19  1  0  0  0  0
 20 21  2  0  0  0  0
 21 22  1  0  0  0  0
 22 23  2  0  0  0  0
 23 15  1  0  0  0  0
 24 17  1  0  0  0  0
 25 31  1  0  0  0  0
 25 30  1  0  0  0  0
 26 27  1  0  0  0  0
 26 25  2  0  0  0  0
 27 28  2  0  0  0  0
 28 29  1  0  0  0  0
 29 33  1  0  0  0  0
 30 29  2  0  0  0  0
 32 27  1  0  0  0  0
M  END
>  <minimizedAffinity>
-5.96178102

>  <minimizedRMSD>
3.66229248

$$$$
