
 OpenBabel03232520393D

 20 22  0  0  0  0  0  0  0  0999 V2000
   44.9400   32.4530   43.3290 C   0  0  0  0  0  0  0  0  0  0  0  0
   45.2350   33.6300   44.0810 C   0  0  0  0  0  0  0  0  0  0  0  0
   44.9090   34.8750   43.5500 C   0  0  0  0  0  0  0  0  0  0  0  0
   44.3140   34.9200   42.3190 N   0  0  0  0  0  0  0  0  0  0  0  0
   44.0460   33.7820   41.6280 C   0  0  0  0  0  0  0  0  0  0  0  0
   44.3560   32.5760   42.1300 N   0  0  0  0  0  0  0  0  0  0  0  0
   45.1850   31.4800   43.7280 H   0  0  0  0  0  0  0  0  0  0  0  0
   45.1170   35.7800   44.0880 H   0  0  0  0  0  0  0  0  0  0  0  0
   43.4100   33.8790   40.3190 C   0  0  0  0  0  0  0  0  0  0  0  0
   43.9640   33.6290   39.0910 C   0  0  0  0  0  0  0  0  0  0  0  0
   43.0090   33.8460   38.1460 N   0  0  0  0  0  0  0  0  0  0  0  0
   41.8510   34.2280   38.6980 C   0  0  0  0  0  0  0  0  0  0  0  0
   40.5990   34.5680   38.2510 C   0  0  0  0  0  0  0  0  0  0  0  0
   39.5730   34.9310   39.0850 C   0  0  0  0  0  0  0  0  0  0  0  0
   39.8310   34.9490   40.4290 C   0  0  0  0  0  0  0  0  0  0  0  0
   41.0850   34.6090   40.9070 C   0  0  0  0  0  0  0  0  0  0  0  0
   42.1130   34.2450   40.0660 C   0  0  0  0  0  0  0  0  0  0  0  0
   43.1780   33.7240   37.1100 H   0  0  0  0  0  0  0  0  0  0  0  0
   46.0190   33.4960   45.6950 S   0  0  0  0  0  0  0  0  0  0  0  0
   45.6440   34.6420   46.4330 H   0  0  0  0  0  0  0  0  0  0  0  0
  1  7  1  0  0  0  0
  1  2  1  0  0  0  0
  2 19  1  0  0  0  0
  3  2  2  0  0  0  0
  3  8  1  0  0  0  0
  4  3  1  0  0  0  0
  5  6  1  0  0  0  0
  5  4  2  0  0  0  0
  6  1  2  0  0  0  0
  9  5  1  0  0  0  0
 10  9  2  0  0  0  0
 11 12  1  0  0  0  0
 11 10  1  0  0  0  0
 12 17  1  0  0  0  0
 13 12  2  0  0  0  0
 13 14  1  0  0  0  0
 14 15  2  0  0  0  0
 15 16  1  0  0  0  0
 17  9  1  0  0  0  0
 17 16  2  0  0  0  0
 18 11  1  0  0  0  0
 19 20  1  0  0  0  0
M  END
>  <minimizedAffinity>
-4.70084238

>  <minimizedRMSD>
8.5487299

$$$$
