
 OpenBabel03232520513D

 33 36  0  0  1  0  0  0  0  0999 V2000
   46.3380   33.4430   45.3940 C   0  0  2  0  0  0  0  0  0  0  0  0
   45.1720   34.3850   45.1960 C   0  0  0  0  0  0  0  0  0  0  0  0
   45.1530   35.1660   43.9760 C   0  0  0  0  0  0  0  0  0  0  0  0
   46.2270   35.0340   42.9870 C   0  0  1  0  0  0  0  0  0  0  0  0
   47.3830   34.1760   43.3700 C   0  0  0  0  0  0  0  0  0  0  0  0
   46.8640   32.9500   44.0800 C   0  0  0  0  0  0  0  0  0  0  0  0
   47.1430   34.0420   45.9120 H   0  0  0  0  0  0  0  0  0  0  0  0
   44.3190   34.6080   45.7920 H   0  0  0  0  0  0  0  0  0  0  0  0
   44.3590   35.8430   43.7840 H   0  0  0  0  0  0  0  0  0  0  0  0
   46.6320   36.0690   42.8250 H   0  0  0  0  0  0  0  0  0  0  0  0
   47.9160   33.8730   42.4510 H   0  0  0  0  0  0  0  0  0  0  0  0
   48.0220   34.7330   44.0870 H   0  0  0  0  0  0  0  0  0  0  0  0
   46.0440   32.4500   43.5230 H   0  0  0  0  0  0  0  0  0  0  0  0
   47.7170   32.2700   44.2710 H   0  0  0  0  0  0  0  0  0  0  0  0
   45.6350   34.5900   41.6990 C   0  0  0  0  0  0  0  0  0  0  0  0
   46.2060   33.9250   40.6140 C   0  0  0  0  0  3  0  0  0  0  0  0
   45.2790   33.7270   39.6560 N   0  0  0  0  0  0  0  0  0  0  0  0
   44.0780   34.2410   40.0520 C   0  0  0  0  0  0  0  0  0  0  0  0
   42.8080   34.3350   39.5140 C   0  0  0  0  0  3  0  0  0  0  0  0
   41.7670   34.9360   40.1870 C   0  0  0  0  0  3  0  0  0  0  0  0
   42.0210   35.4550   41.4400 C   0  0  0  0  0  3  0  0  0  0  0  0
   43.2830   35.3800   42.0130 C   0  0  0  0  0  3  0  0  0  0  0  0
   44.3130   34.7700   41.3130 C   0  0  0  0  0  0  0  0  0  0  0  0
   45.4010   33.2580   38.7270 H   0  0  0  0  0  0  0  0  0  0  0  0
   45.4060   32.7100   47.5720 C   0  0  0  0  0  0  0  0  0  0  0  0
   45.9470   32.3840   46.3290 C   0  0  0  0  0  0  0  0  0  0  0  0
   46.1000   31.0090   46.0440 C   0  0  0  0  0  0  0  0  0  0  0  0
   45.7240   30.0900   46.9660 N   0  0  0  0  0  0  0  0  0  0  0  0
   45.2010   30.4540   48.1640 C   0  0  0  0  0  0  0  0  0  0  0  0
   45.0470   31.7660   48.4560 N   0  0  0  0  0  0  0  0  0  0  0  0
   45.2430   33.7290   47.9000 H   0  0  0  0  0  0  0  0  0  0  0  0
   46.5100   30.6820   45.1020 H   0  0  0  0  0  0  0  0  0  0  0  0
   44.9050   29.7110   48.8920 H   0  0  0  0  0  0  0  0  0  0  0  0
  1  7  1  1  0  0  0
  1 26  1  0  0  0  0
  2  1  1  0  0  0  0
  2  8  1  0  0  0  0
  3  2  2  0  0  0  0
  4 10  1  6  0  0  0
  4  5  1  0  0  0  0
  4  3  1  0  0  0  0
  5  6  1  0  0  0  0
  5 12  1  0  0  0  0
  6 14  1  0  0  0  0
  6  1  1  0  0  0  0
  9  3  1  0  0  0  0
 11  5  1  0  0  0  0
 13  6  1  0  0  0  0
 15  4  1  0  0  0  0
 16 15  2  0  0  0  0
 17 18  1  0  0  0  0
 17 16  1  0  0  0  0
 18 23  1  0  0  0  0
 19 18  2  0  0  0  0
 19 20  1  0  0  0  0
 20 21  2  0  0  0  0
 21 22  1  0  0  0  0
 23 15  1  0  0  0  0
 23 22  2  0  0  0  0
 24 17  1  0  0  0  0
 25 31  1  0  0  0  0
 25 30  1  0  0  0  0
 26 25  2  0  0  0  0
 27 26  1  0  0  0  0
 27 28  2  0  0  0  0
 28 29  1  0  0  0  0
 29 30  2  0  0  0  0
 29 33  1  0  0  0  0
 32 27  1  0  0  0  0
M  END
>  <minimizedAffinity>
-6.45905209

>  <minimizedRMSD>
1.50525105

$$$$
