
 OpenBabel03232516373D

 42 45  0  0  1  0  0  0  0  0999 V2000
   45.6510   33.1820   43.1050 C   0  0  1  0  0  0  0  0  0  0  0  0
   45.8890   34.3980   43.9290 C   0  0  0  0  0  0  0  0  0  0  0  0
   45.4770   35.6530   43.3520 C   0  0  0  0  0  0  0  0  0  0  0  0
   44.8630   35.7310   42.0460 C   0  0  0  0  0  0  0  0  0  0  0  0
   44.6040   34.4800   41.3500 C   0  0  0  0  0  0  0  0  0  0  0  0
   44.3770   33.3510   42.3160 C   0  0  0  0  0  0  0  0  0  0  0  0
   46.3120   34.6610   44.8970 H   0  0  0  0  0  0  0  0  0  0  0  0
   45.6030   36.5720   43.8600 H   0  0  0  0  0  0  0  0  0  0  0  0
   43.9080   36.3090   42.1490 H   0  0  0  0  0  0  0  0  0  0  0  0
   45.5190   36.3920   41.4070 H   0  0  0  0  0  0  0  0  0  0  0  0
   45.3830   34.2770   40.5920 H   0  0  0  0  0  0  0  0  0  0  0  0
   43.6520   34.5470   40.7520 H   0  0  0  0  0  0  0  0  0  0  0  0
   43.6290   33.7040   43.0470 H   0  0  0  0  0  0  0  0  0  0  0  0
   44.0990   32.4170   41.8160 H   0  0  0  0  0  0  0  0  0  0  0  0
   46.8840   33.0670   42.2100 C   0  0  0  0  0  0  0  0  0  0  0  0
   47.1260   32.7020   41.0150 O   0  0  0  0  0  0  0  0  0  0  0  0
   48.1210   33.4780   42.8700 N   0  0  0  0  0  0  0  0  0  0  0  0
   48.8130   34.6330   42.5400 C   0  0  0  0  0  0  0  0  0  0  0  0
   48.5470   35.5560   41.7790 N   0  0  0  0  0  0  0  0  0  0  0  0
   50.0870   35.0280   43.1000 N   0  0  0  0  0  0  0  0  0  0  0  0
   47.7920   35.8070   41.1920 H   0  0  0  0  0  0  0  0  0  0  0  0
   48.4950   32.9100   43.6480 H   0  0  0  0  0  0  0  0  0  0  0  0
   50.9840   34.9930   42.5630 H   0  0  0  0  0  0  0  0  0  0  0  0
   50.2530   35.3830   44.0760 H   0  0  0  0  0  0  0  0  0  0  0  0
   45.8690   32.2040   45.3260 C   0  0  0  0  0  0  0  0  0  0  0  0
   45.6750   31.9950   43.9750 C   0  0  0  0  0  0  0  0  0  0  0  0
   45.5490   30.6430   43.4810 C   0  0  0  0  0  0  0  0  0  0  0  0
   45.6300   29.6400   44.3610 N   0  0  0  0  0  0  0  0  0  0  0  0
   45.8210   29.8740   45.6740 C   0  0  0  0  0  0  0  0  0  0  0  0
   45.9370   31.1240   46.1330 N   0  0  0  0  0  0  0  0  0  0  0  0
   45.9760   33.0960   45.8800 H   0  0  0  0  0  0  0  0  0  0  0  0
   45.3970   30.5690   42.4130 H   0  0  0  0  0  0  0  0  0  0  0  0
   45.9040   28.7210   46.5990 C   0  0  0  0  0  0  0  0  0  0  0  0
   46.9390   28.4090   47.4360 C   0  0  0  0  0  0  0  0  0  0  0  0
   46.6130   27.2790   48.1070 N   0  0  0  0  0  0  0  0  0  0  0  0
   45.3760   26.8630   47.7110 C   0  0  0  0  0  0  0  0  0  0  0  0
   44.6690   25.7690   48.1350 C   0  0  0  0  0  0  0  0  0  0  0  0
   43.4060   25.5440   47.5780 C   0  0  0  0  0  0  0  0  0  0  0  0
   42.9550   26.4390   46.6370 C   0  0  0  0  0  0  0  0  0  0  0  0
   43.6880   27.5250   46.2330 C   0  0  0  0  0  0  0  0  0  0  0  0
   44.9350   27.7560   46.7760 C   0  0  0  0  0  0  0  0  0  0  0  0
   47.2530   26.8440   48.8080 H   0  0  0  0  0  0  0  0  0  0  0  0
  1 15  1  6  0  0  0
  1  2  1  0  0  0  0
  1 26  1  0  0  0  0
  2  7  1  0  0  0  0
  3  8  1  0  0  0  0
  3  2  2  0  0  0  0
  4  9  1  0  0  0  0
  4  3  1  0  0  0  0
  5  4  1  0  0  0  0
  5  6  1  0  0  0  0
  6 13  1  0  0  0  0
  6  1  1  0  0  0  0
 10  4  1  0  0  0  0
 11  5  1  0  0  0  0
 12  5  1  0  0  0  0
 14  6  1  0  0  0  0
 15 17  1  0  0  0  0
 16 15  2  0  0  0  0
 17 22  1  0  0  0  0
 18 17  1  0  0  0  0
 18 20  1  0  0  0  0
 19 18  2  0  0  0  0
 20 24  1  0  0  0  0
 21 19  1  0  0  0  0
 23 20  1  0  0  0  0
 25 31  1  0  0  0  0
 25 30  1  0  0  0  0
 26 25  2  0  0  0  0
 27 26  1  0  0  0  0
 27 28  2  0  0  0  0
 28 29  1  0  0  0  0
 29 30  2  0  0  0  0
 29 33  1  0  0  0  0
 32 27  1  0  0  0  0
 33 41  1  0  0  0  0
 33 34  2  0  0  0  0
 34 35  1  0  0  0  0
 35 42  1  0  0  0  0
 36 35  1  0  0  0  0
 36 37  1  0  0  0  0
 38 37  2  0  0  0  0
 39 38  1  0  0  0  0
 40 39  2  0  0  0  0
 40 41  1  0  0  0  0
 41 36  2  0  0  0  0
M  END
>  <minimizedAffinity>
-6.32222176

>  <minimizedRMSD>
2.2642343

$$$$
