
 OpenBabel03232513473D

 53 56  0  0  1  0  0  0  0  0999 V2000
   47.6080   30.0000   45.1050 C   0  0  0  0  0  0  0  0  0  0  0  0
   46.5730   29.5980   45.3160 H   0  0  0  0  0  0  0  0  0  0  0  0
   47.7020   30.8360   45.8360 H   0  0  0  0  0  0  0  0  0  0  0  0
   48.5120   28.9910   45.4250 N   0  0  0  0  0  0  0  0  0  0  0  0
   48.2540   27.6430   45.0820 C   0  0  0  0  0  0  0  0  0  0  0  0
   48.0380   26.7800   46.3180 C   0  0  0  0  0  0  0  0  0  0  0  0
   49.0380   26.9820   47.4010 C   0  0  0  0  0  0  0  0  0  0  0  0
   50.0610   28.0570   47.0980 C   0  0  0  0  0  0  0  0  0  0  0  0
   49.2870   29.2410   46.5680 C   0  0  2  0  0  0  0  0  0  0  0  0
   49.0810   27.1700   44.5020 H   0  0  0  0  0  0  0  0  0  0  0  0
   47.3560   27.5530   44.4580 H   0  0  0  0  0  0  0  0  0  0  0  0
   46.9990   26.9910   46.6520 H   0  0  0  0  0  0  0  0  0  0  0  0
   48.0040   25.7200   45.9540 H   0  0  0  0  0  0  0  0  0  0  0  0
   49.6190   26.0380   47.5000 H   0  0  0  0  0  0  0  0  0  0  0  0
   48.5800   27.1380   48.4020 H   0  0  0  0  0  0  0  0  0  0  0  0
   50.4690   28.3620   48.0840 H   0  0  0  0  0  0  0  0  0  0  0  0
   50.8790   27.7330   46.4600 H   0  0  0  0  0  0  0  0  0  0  0  0
   50.1190   29.9180   46.2030 H   0  0  0  0  0  0  0  0  0  0  0  0
   48.6540   30.0170   47.6530 C   0  0  0  0  0  0  0  0  0  0  0  0
   49.3070   30.7880   48.6210 C   0  0  0  0  0  0  0  0  0  0  0  0
   48.3880   31.3470   49.4440 N   0  0  0  0  0  0  0  0  0  0  0  0
   47.1590   30.9940   49.0800 C   0  0  0  0  0  0  0  0  0  0  0  0
   45.8640   31.2280   49.5030 C   0  0  0  0  0  0  0  0  0  0  0  0
   44.7380   30.7020   48.9010 C   0  0  0  0  0  0  0  0  0  0  0  0
   44.9760   29.8950   47.8080 C   0  0  0  0  0  0  0  0  0  0  0  0
   46.2350   29.6080   47.3180 C   0  0  0  0  0  0  0  0  0  0  0  0
   47.3050   30.1750   47.9790 C   0  0  0  0  0  0  0  0  0  0  0  0
   48.5960   31.9820   50.2700 H   0  0  0  0  0  0  0  0  0  0  0  0
   47.7000   30.6550   43.7590 C   0  0  0  0  0  0  0  0  0  0  0  0
   46.3510   34.0990   43.6680 C   0  0  0  0  0  0  0  0  0  0  0  0
   45.0230   33.9630   43.2710 C   0  0  0  0  0  0  0  0  0  0  0  0
   44.6250   32.6280   43.0400 C   0  0  0  0  0  0  0  0  0  0  0  0
   45.4970   31.6190   43.2050 N   0  0  0  0  0  0  0  0  0  0  0  0
   46.7770   31.8100   43.5920 C   0  0  0  0  0  0  0  0  0  0  0  0
   47.1770   33.0700   43.8160 N   0  0  0  0  0  0  0  0  0  0  0  0
   46.6870   35.1250   43.8530 H   0  0  0  0  0  0  0  0  0  0  0  0
   43.6210   32.4410   42.7340 H   0  0  0  0  0  0  0  0  0  0  0  0
   44.1220   35.0570   43.1060 N   0  0  0  0  0  0  0  0  0  0  0  0
   43.3990   35.3090   41.8850 C   0  0  0  0  0  0  0  0  0  0  0  0
   44.0360   35.0790   40.7820 N   0  0  0  0  0  0  0  0  0  0  0  0
   42.0510   35.7860   42.1130 N   0  0  0  0  0  0  0  0  0  0  0  0
   43.5740   35.2080   39.8610 H   0  0  0  0  0  0  0  0  0  0  0  0
   44.0360   35.6630   43.9590 H   0  0  0  0  0  0  0  0  0  0  0  0
   42.0310   36.6890   42.6630 H   0  0  0  0  0  0  0  0  0  0  0  0
   41.1960   35.3060   41.7800 H   0  0  0  0  0  0  0  0  0  0  0  0
   47.2850   29.5790   42.7270 C   0  0  0  0  0  0  0  0  0  0  0  0
   46.3240   29.1290   43.0320 H   0  0  0  0  0  0  0  0  0  0  0  0
   47.2260   30.1070   41.7430 H   0  0  0  0  0  0  0  0  0  0  0  0
   48.1340   28.8510   42.7240 H   0  0  0  0  0  0  0  0  0  0  0  0
   49.0650   31.1390   43.3600 C   0  0  0  0  0  0  0  0  0  0  0  0
   49.7580   30.3180   43.0590 H   0  0  0  0  0  0  0  0  0  0  0  0
   48.9770   31.9340   42.6110 H   0  0  0  0  0  0  0  0  0  0  0  0
   49.5440   31.6200   44.2530 H   0  0  0  0  0  0  0  0  0  0  0  0
  1  2  1  0  0  0  0
  1  4  1  0  0  0  0
  1  3  1  0  0  0  0
  4  9  1  0  0  0  0
  5  4  1  0  0  0  0
  5  6  1  0  0  0  0
  6 12  1  0  0  0  0
  6  7  1  0  0  0  0
  7 14  1  0  0  0  0
  7 15  1  0  0  0  0
  8  7  1  0  0  0  0
  8 16  1  0  0  0  0
  9 18  1  6  0  0  0
  9  8  1  0  0  0  0
  9 19  1  0  0  0  0
 10  5  1  0  0  0  0
 11  5  1  0  0  0  0
 13  6  1  0  0  0  0
 17  8  1  0  0  0  0
 19 27  1  0  0  0  0
 19 20  2  0  0  0  0
 20 21  1  0  0  0  0
 21 28  1  0  0  0  0
 22 21  1  0  0  0  0
 22 23  1  0  0  0  0
 24 23  2  0  0  0  0
 25 24  1  0  0  0  0
 26 25  2  0  0  0  0
 26 27  1  0  0  0  0
 27 22  2  0  0  0  0
 29  1  1  0  0  0  0
 30 35  1  0  0  0  0
 30 36  1  0  0  0  0
 31 30  2  0  0  0  0
 32 33  2  0  0  0  0
 32 31  1  0  0  0  0
 33 34  1  0  0  0  0
 34 29  1  0  0  0  0
 34 35  2  0  0  0  0
 37 32  1  0  0  0  0
 38 31  1  0  0  0  0
 38 43  1  0  0  0  0
 39 41  1  0  0  0  0
 39 38  1  0  0  0  0
 40 39  2  0  0  0  0
 41 44  1  0  0  0  0
 42 40  1  0  0  0  0
 45 41  1  0  0  0  0
 46 47  1  0  0  0  0
 46 29  1  0  0  0  0
 48 46  1  0  0  0  0
 49 46  1  0  0  0  0
 50 29  1  0  0  0  0
 50 53  1  0  0  0  0
 51 50  1  0  0  0  0
 52 50  1  0  0  0  0
M  END
>  <minimizedAffinity>
-5.59219313

>  <minimizedRMSD>
3.5895195

$$$$
