
 OpenBabel03232519463D

 48 52  0  0  0  0  0  0  0  0999 V2000
   46.5010   34.4940   41.8880 N   0  0  0  0  0  0  0  0  0  0  0  0
   47.6790   35.2160   41.7750 C   0  0  0  0  0  0  0  0  0  0  0  0
   48.4430   35.1530   40.6380 C   0  0  0  0  0  0  0  0  0  0  0  0
   47.9960   34.3360   39.5970 C   0  0  0  0  0  0  0  0  0  0  0  0
   48.6690   34.2670   38.5600 O   0  0  0  0  0  0  0  0  0  0  0  0
   46.8480   33.6600   39.7690 N   0  0  0  0  0  0  0  0  0  0  0  0
   46.1170   33.7400   40.8890 C   0  0  0  0  0  0  0  0  0  0  0  0
   45.0740   33.1620   41.1020 O   0  0  0  0  0  0  0  0  0  0  0  0
   48.0800   35.8640   42.5420 H   0  0  0  0  0  0  0  0  0  0  0  0
   49.3620   35.6910   40.4990 H   0  0  0  0  0  0  0  0  0  0  0  0
   46.3560   32.8120   38.7530 C   0  0  0  0  0  0  0  0  0  0  0  0
   45.4900   33.2160   37.7620 C   0  0  0  0  0  0  0  0  0  0  0  0
   45.0510   32.3430   36.8040 C   0  0  0  0  0  0  0  0  0  0  0  0
   45.4700   31.0280   36.8100 C   0  0  0  0  0  0  0  0  0  0  0  0
   46.3250   30.6490   37.7950 C   0  0  0  0  0  0  0  0  0  0  0  0
   46.8090   31.4990   38.8050 C   0  0  0  0  0  0  0  0  0  0  0  0
   45.1540   34.2500   37.7500 H   0  0  0  0  0  0  0  0  0  0  0  0
   44.3660   32.6910   36.0330 H   0  0  0  0  0  0  0  0  0  0  0  0
   45.1220   30.3400   36.0520 H   0  0  0  0  0  0  0  0  0  0  0  0
   46.6320   29.5910   37.7610 H   0  0  0  0  0  0  0  0  0  0  0  0
   47.7510   30.9800   39.8320 C   0  0  0  0  0  0  0  0  0  0  0  0
   47.8790   29.8840   39.5500 H   0  0  0  0  0  0  0  0  0  0  0  0
   49.0980   31.6150   39.8410 C   0  0  0  0  0  0  0  0  0  0  0  0
   49.5890   31.7770   38.8930 H   0  0  0  0  0  0  0  0  0  0  0  0
   49.3830   32.2060   40.7230 H   0  0  0  0  0  0  0  0  0  0  0  0
   49.7710   30.7170   40.1600 H   0  0  0  0  0  0  0  0  0  0  0  0
   47.2170   31.0580   41.2280 C   0  0  0  0  0  0  0  0  0  0  0  0
   47.7340   31.7550   41.9110 H   0  0  0  0  0  0  0  0  0  0  0  0
   46.1890   30.7990   41.3910 H   0  0  0  0  0  0  0  0  0  0  0  0
   47.6820   30.1110   41.7150 H   0  0  0  0  0  0  0  0  0  0  0  0
   44.5450   36.1160   44.5650 C   0  0  0  0  0  0  0  0  0  0  0  0
   45.1440   35.8890   43.3020 C   0  0  0  0  0  0  0  0  0  0  0  0
   45.8910   34.7260   43.1620 C   0  0  0  0  0  0  0  0  0  0  0  0
   46.0240   33.8630   44.2070 N   0  0  0  0  0  0  0  0  0  0  0  0
   45.4260   34.1310   45.4000 C   0  0  0  0  0  0  0  0  0  0  0  0
   44.7000   35.2310   45.5860 N   0  0  0  0  0  0  0  0  0  0  0  0
   43.9680   37.0370   44.6340 H   0  0  0  0  0  0  0  0  0  0  0  0
   45.0120   36.5970   42.5050 H   0  0  0  0  0  0  0  0  0  0  0  0
   45.5870   33.1870   46.5010 C   0  0  0  0  0  0  0  0  0  0  0  0
   45.0140   33.2600   47.7520 C   0  0  0  0  0  0  0  0  0  0  0  0
   45.3840   32.2170   48.5100 N   0  0  0  0  0  0  0  0  0  0  0  0
   46.2070   31.4230   47.7950 C   0  0  0  0  0  0  0  0  0  0  0  0
   46.8650   30.2350   48.0920 C   0  0  0  0  0  0  0  0  0  0  0  0
   47.6620   29.6280   47.1420 C   0  0  0  0  0  0  0  0  0  0  0  0
   47.7850   30.2240   45.9140 C   0  0  0  0  0  0  0  0  0  0  0  0
   47.1320   31.4060   45.6140 C   0  0  0  0  0  0  0  0  0  0  0  0
   46.3350   32.0270   46.5390 C   0  0  0  0  0  0  0  0  0  0  0  0
   45.0730   32.0670   49.4860 H   0  0  0  0  0  0  0  0  0  0  0  0
  1 33  1  0  0  0  0
  2  1  1  0  0  0  0
  2  9  1  0  0  0  0
  3  2  2  0  0  0  0
  4  6  1  0  0  0  0
  4  3  1  0  0  0  0
  5  4  2  0  0  0  0
  6  7  1  0  0  0  0
  7  8  2  0  0  0  0
  7  1  1  0  0  0  0
 10  3  1  0  0  0  0
 11 16  1  0  0  0  0
 11  6  1  0  0  0  0
 12 11  2  0  0  0  0
 13 14  2  0  0  0  0
 13 12  1  0  0  0  0
 14 15  1  0  0  0  0
 15 16  2  0  0  0  0
 16 21  1  0  0  0  0
 17 12  1  0  0  0  0
 18 13  1  0  0  0  0
 19 14  1  0  0  0  0
 20 15  1  0  0  0  0
 21 23  1  0  0  0  0
 21 27  1  0  0  0  0
 22 21  1  0  0  0  0
 23 26  1  0  0  0  0
 23 25  1  0  0  0  0
 24 23  1  0  0  0  0
 27 29  1  0  0  0  0
 27 30  1  0  0  0  0
 27 28  1  0  0  0  0
 31 37  1  0  0  0  0
 31 36  1  0  0  0  0
 32 31  2  0  0  0  0
 33 32  1  0  0  0  0
 33 34  2  0  0  0  0
 34 35  1  0  0  0  0
 35 36  2  0  0  0  0
 35 39  1  0  0  0  0
 38 32  1  0  0  0  0
 39 47  1  0  0  0  0
 39 40  2  0  0  0  0
 40 41  1  0  0  0  0
 41 48  1  0  0  0  0
 42 43  1  0  0  0  0
 42 41  1  0  0  0  0
 44 43  2  0  0  0  0
 45 44  1  0  0  0  0
 46 45  2  0  0  0  0
 46 47  1  0  0  0  0
 47 42  2  0  0  0  0
M  END
>  <minimizedAffinity>
-6.86023521

>  <minimizedRMSD>
0.592945457

$$$$
