
 OpenBabel03232520583D

 38 41  0  0  1  0  0  0  0  0999 V2000
   43.4400   30.8120   42.5690 C   0  0  0  0  0  0  0  0  0  0  0  0
   44.6850   31.0600   43.0810 C   0  0  0  0  0  0  0  0  0  0  0  0
   45.3000   30.0240   43.7830 C   0  0  0  0  0  0  0  0  0  0  0  0
   44.6780   28.8550   43.9390 N   0  0  0  0  0  0  0  0  0  0  0  0
   43.4400   28.6110   43.4300 C   0  0  0  0  0  0  0  0  0  0  0  0
   42.8380   29.5850   42.7550 N   0  0  0  0  0  0  0  0  0  0  0  0
   42.8320   27.3440   43.6230 N   0  0  0  0  0  0  0  0  0  0  0  0
   42.9130   31.5500   42.0270 H   0  0  0  0  0  0  0  0  0  0  0  0
   43.4250   26.6240   43.1430 H   0  0  0  0  0  0  0  0  0  0  0  0
   41.9460   27.2460   44.1630 H   0  0  0  0  0  0  0  0  0  0  0  0
   45.3170   32.3270   42.8630 C   0  0  2  0  0  0  0  0  0  0  0  0
   45.5580   33.0020   44.2490 C   0  0  0  0  0  0  0  0  0  0  0  0
   45.8360   34.4110   44.2410 C   0  0  0  0  0  0  0  0  0  0  0  0
   45.8780   35.1720   42.9960 C   0  0  1  0  0  0  0  0  0  0  0  0
   45.7340   34.4050   41.7570 C   0  0  0  0  0  0  0  0  0  0  0  0
   44.7600   33.2810   41.9470 C   0  0  0  0  0  0  0  0  0  0  0  0
   46.4210   32.1150   42.6580 H   0  0  0  0  0  0  0  0  0  0  0  0
   45.5630   32.6330   45.2670 H   0  0  0  0  0  0  0  0  0  0  0  0
   46.0110   34.9270   45.1520 H   0  0  0  0  0  0  0  0  0  0  0  0
   46.8360   35.7550   42.9730 H   0  0  0  0  0  0  0  0  0  0  0  0
   46.6880   33.9360   41.3900 H   0  0  0  0  0  0  0  0  0  0  0  0
   45.3630   35.0710   40.9320 H   0  0  0  0  0  0  0  0  0  0  0  0
   44.6140   32.9470   40.8990 H   0  0  0  0  0  0  0  0  0  0  0  0
   43.8160   33.7210   42.2960 H   0  0  0  0  0  0  0  0  0  0  0  0
   44.7760   36.2450   43.0700 C   0  0  0  0  0  0  0  0  0  0  0  0
   43.9500   36.0900   44.1700 F   0  0  0  0  0  0  0  0  0  0  0  0
   45.4240   37.4740   43.2560 F   0  0  0  0  0  0  0  0  0  0  0  0
   44.0840   36.3190   41.8840 F   0  0  0  0  0  0  0  0  0  0  0  0
   46.5990   29.8820   44.4300 C   0  0  0  0  0  0  0  0  0  0  0  0
   47.1380   29.8890   45.7360 C   0  0  0  0  0  3  0  0  0  0  0  0
   48.4720   29.7890   45.6770 N   0  0  0  0  0  0  0  0  0  0  0  0
   48.9190   29.7110   44.4270 C   0  0  0  0  0  0  0  0  0  0  0  0
   50.1580   29.6020   43.8820 C   0  0  0  0  0  3  0  0  0  0  0  0
   50.3260   29.5420   42.5010 C   0  0  0  0  0  3  0  0  0  0  0  0
   49.2100   29.5950   41.6950 C   0  0  0  0  0  3  0  0  0  0  0  0
   47.9730   29.7050   42.2810 C   0  0  0  0  0  3  0  0  0  0  0  0
   47.7730   29.7680   43.6650 C   0  0  0  0  0  0  0  0  0  0  0  0
   49.0440   29.7790   46.5560 H   0  0  0  0  0  0  0  0  0  0  0  0
  1  6  2  0  0  0  0
  1  2  1  0  0  0  0
  2  3  2  0  0  0  0
  3  4  1  0  0  0  0
  3 29  1  0  0  0  0
  5  7  1  0  0  0  0
  5  4  2  0  0  0  0
  6  5  1  0  0  0  0
  7 10  1  0  0  0  0
  8  1  1  0  0  0  0
  9  7  1  0  0  0  0
 11 17  1  6  0  0  0
 11  2  1  0  0  0  0
 11 12  1  0  0  0  0
 12 18  1  0  0  0  0
 13 12  2  0  0  0  0
 13 19  1  0  0  0  0
 14 20  1  6  0  0  0
 14 25  1  0  0  0  0
 14 13  1  0  0  0  0
 15 16  1  0  0  0  0
 15 14  1  0  0  0  0
 16 24  1  0  0  0  0
 16 11  1  0  0  0  0
 21 15  1  0  0  0  0
 22 15  1  0  0  0  0
 23 16  1  0  0  0  0
 25 27  1  0  0  0  0
 25 26  1  0  0  0  0
 28 25  1  0  0  0  0
 29 30  2  0  0  0  0
 31 30  1  0  0  0  0
 31 38  1  0  0  0  0
 32 31  1  0  0  0  0
 33 32  1  0  0  0  0
 34 33  2  0  0  0  0
 35 36  2  0  0  0  0
 35 34  1  0  0  0  0
 36 37  1  0  0  0  0
 37 32  2  0  0  0  0
 37 29  1  0  0  0  0
M  END
>  <minimizedAffinity>
-4.34482622

>  <minimizedRMSD>
3.25999403

$$$$
