
 OpenBabel03232520573D

 38 41  0  0  1  0  0  0  0  0999 V2000
   45.1810   32.7760   47.5600 C   0  0  0  0  0  0  0  0  0  0  0  0
   45.8880   32.4840   46.4240 C   0  0  0  0  0  0  0  0  0  0  0  0
   46.3200   31.1670   46.2680 C   0  0  0  0  0  0  0  0  0  0  0  0
   46.0480   30.2550   47.2010 N   0  0  0  0  0  0  0  0  0  0  0  0
   45.3470   30.5480   48.3290 C   0  0  0  0  0  0  0  0  0  0  0  0
   44.9230   31.7970   48.4960 N   0  0  0  0  0  0  0  0  0  0  0  0
   45.0840   29.5320   49.2840 N   0  0  0  0  0  0  0  0  0  0  0  0
   44.8230   33.7530   47.7470 H   0  0  0  0  0  0  0  0  0  0  0  0
   44.4860   28.8020   48.8230 H   0  0  0  0  0  0  0  0  0  0  0  0
   45.4620   29.5890   50.2530 H   0  0  0  0  0  0  0  0  0  0  0  0
   46.1300   33.4980   45.4430 C   0  0  2  0  0  0  0  0  0  0  0  0
   45.0290   34.5970   45.5870 C   0  0  0  0  0  0  0  0  0  0  0  0
   44.8700   35.4990   44.4820 C   0  0  0  0  0  0  0  0  0  0  0  0
   45.6900   35.3840   43.2800 C   0  0  1  0  0  0  0  0  0  0  0  0
   46.7530   34.3770   43.3090 C   0  0  0  0  0  0  0  0  0  0  0  0
   46.3010   33.1600   44.0590 C   0  0  0  0  0  0  0  0  0  0  0  0
   46.9790   34.1510   45.8430 H   0  0  0  0  0  0  0  0  0  0  0  0
   44.3230   34.8450   46.3690 H   0  0  0  0  0  0  0  0  0  0  0  0
   44.1400   36.2690   44.5210 H   0  0  0  0  0  0  0  0  0  0  0  0
   46.1280   36.3930   43.0560 H   0  0  0  0  0  0  0  0  0  0  0  0
   47.7010   34.7190   43.8070 H   0  0  0  0  0  0  0  0  0  0  0  0
   47.0280   34.0770   42.2610 H   0  0  0  0  0  0  0  0  0  0  0  0
   47.1130   32.4450   43.8120 H   0  0  0  0  0  0  0  0  0  0  0  0
   45.3790   32.8030   43.5800 H   0  0  0  0  0  0  0  0  0  0  0  0
   44.7450   35.1040   42.0980 C   0  0  0  0  0  0  0  0  0  0  0  0
   43.7460   34.1980   42.4120 F   0  0  0  0  0  0  0  0  0  0  0  0
   44.0850   36.3080   41.8160 F   0  0  0  0  0  0  0  0  0  0  0  0
   45.4560   34.7510   40.9750 F   0  0  0  0  0  0  0  0  0  0  0  0
   47.0460   30.4670   45.2150 C   0  0  0  0  0  0  0  0  0  0  0  0
   46.8680   30.1120   43.8600 C   0  0  0  0  0  0  0  0  0  0  0  0
   47.8970   29.3640   43.4460 N   0  0  0  0  0  0  0  0  0  0  0  0
   48.7940   29.1600   44.4080 C   0  0  0  0  0  0  0  0  0  0  0  0
   49.9700   28.4830   44.4630 C   0  0  0  0  0  0  0  0  0  0  0  0
   50.7120   28.4410   45.6390 C   0  0  0  0  0  0  0  0  0  0  0  0
   50.2340   29.1000   46.7500 C   0  0  0  0  0  0  0  0  0  0  0  0
   49.0420   29.7740   46.6570 C   0  0  0  0  0  0  0  0  0  0  0  0
   48.2710   29.8350   45.4900 C   0  0  0  0  0  0  0  0  0  0  0  0
   47.9360   29.0070   42.4610 H   0  0  0  0  0  0  0  0  0  0  0  0
  1  8  1  0  0  0  0
  1  6  1  0  0  0  0
  2  1  2  0  0  0  0
  3  2  1  0  0  0  0
  3  4  2  0  0  0  0
  4  5  1  0  0  0  0
  5  6  2  0  0  0  0
  5  7  1  0  0  0  0
  7 10  1  0  0  0  0
  9  7  1  0  0  0  0
 11 12  1  0  0  0  0
 11 17  1  1  0  0  0
 11  2  1  0  0  0  0
 12 18  1  0  0  0  0
 13 19  1  0  0  0  0
 13 12  2  0  0  0  0
 14 20  1  6  0  0  0
 14 15  1  0  0  0  0
 14 13  1  0  0  0  0
 15 21  1  0  0  0  0
 15 16  1  0  0  0  0
 16 11  1  0  0  0  0
 22 15  1  0  0  0  0
 23 16  1  0  0  0  0
 24 16  1  0  0  0  0
 25 26  1  0  0  0  0
 25 14  1  0  0  0  0
 27 25  1  0  0  0  0
 28 25  1  0  0  0  0
 29 37  1  0  0  0  0
 29  3  1  0  0  0  0
 30 29  2  0  0  0  0
 31 30  1  0  0  0  0
 31 32  1  0  0  0  0
 32 33  2  0  0  0  0
 32 37  1  0  0  0  0
 33 34  1  0  0  0  0
 34 35  2  0  0  0  0
 36 35  1  0  0  0  0
 37 36  2  0  0  0  0
 38 31  1  0  0  0  0
M  END
>  <minimizedAffinity>
-5.98615551

>  <minimizedRMSD>
1.02631032

$$$$
