
 OpenBabel03232520583D

 38 41  0  0  1  0  0  0  0  0999 V2000
   45.6780   32.7750   47.6540 C   0  0  0  0  0  0  0  0  0  0  0  0
   45.8380   32.4670   46.3410 C   0  0  0  0  0  0  0  0  0  0  0  0
   45.7380   31.1180   45.9790 C   0  0  0  0  0  0  0  0  0  0  0  0
   45.5050   30.1880   46.9010 N   0  0  0  0  0  0  0  0  0  0  0  0
   45.3530   30.5220   48.2260 C   0  0  0  0  0  0  0  0  0  0  0  0
   45.4360   31.8040   48.5930 N   0  0  0  0  0  0  0  0  0  0  0  0
   45.1570   29.4970   49.2050 N   0  0  0  0  0  0  0  0  0  0  0  0
   45.7210   33.7520   48.0640 H   0  0  0  0  0  0  0  0  0  0  0  0
   45.9680   29.1010   49.7170 H   0  0  0  0  0  0  0  0  0  0  0  0
   44.1940   29.1440   49.4040 H   0  0  0  0  0  0  0  0  0  0  0  0
   46.1180   33.4890   45.3700 C   0  0  2  0  0  0  0  0  0  0  0  0
   45.0010   34.5670   45.5040 C   0  0  0  0  0  0  0  0  0  0  0  0
   44.8460   35.4830   44.4110 C   0  0  0  0  0  0  0  0  0  0  0  0
   45.6800   35.4090   43.2350 C   0  0  1  0  0  0  0  0  0  0  0  0
   46.7940   34.4440   43.2880 C   0  0  0  0  0  0  0  0  0  0  0  0
   46.3510   33.1850   43.9950 C   0  0  0  0  0  0  0  0  0  0  0  0
   46.9370   34.1400   45.8340 H   0  0  0  0  0  0  0  0  0  0  0  0
   44.2850   34.7740   46.2900 H   0  0  0  0  0  0  0  0  0  0  0  0
   44.0730   36.2400   44.4860 H   0  0  0  0  0  0  0  0  0  0  0  0
   46.1040   36.4180   43.0350 H   0  0  0  0  0  0  0  0  0  0  0  0
   47.1140   34.2050   42.2290 H   0  0  0  0  0  0  0  0  0  0  0  0
   47.7070   34.8120   43.8180 H   0  0  0  0  0  0  0  0  0  0  0  0
   45.4590   32.8200   43.4660 H   0  0  0  0  0  0  0  0  0  0  0  0
   47.2090   32.5520   43.7260 H   0  0  0  0  0  0  0  0  0  0  0  0
   44.7710   35.1050   42.0160 C   0  0  0  0  0  0  0  0  0  0  0  0
   43.7890   34.2050   42.3040 F   0  0  0  0  0  0  0  0  0  0  0  0
   44.1270   36.3120   41.7150 F   0  0  0  0  0  0  0  0  0  0  0  0
   45.5510   34.7700   40.9230 F   0  0  0  0  0  0  0  0  0  0  0  0
   45.8420   30.4290   44.7090 C   0  0  0  0  0  0  0  0  0  0  0  0
   44.8810   30.2100   43.6920 C   0  0  0  0  0  3  0  0  0  0  0  0
   45.1970   29.4450   42.5840 C   0  0  0  0  0  3  0  0  0  0  0  0
   46.4410   28.8890   42.4500 C   0  0  0  0  0  3  0  0  0  0  0  0
   47.4150   29.0540   43.3840 C   0  0  0  0  0  0  0  0  0  0  0  0
   48.6650   28.4930   43.2270 C   0  0  0  0  0  3  0  0  0  0  0  0
   49.6380   28.6830   44.1810 C   0  0  0  0  0  3  0  0  0  0  0  0
   49.3870   29.4320   45.3060 C   0  0  0  0  0  3  0  0  0  0  0  0
   48.1260   29.9700   45.4150 C   0  0  0  0  0  3  0  0  0  0  0  0
   47.0950   29.8280   44.5060 C   0  0  0  0  0  0  0  0  0  0  0  0
  1  8  1  0  0  0  0
  1  6  1  0  0  0  0
  2  1  2  0  0  0  0
  3  2  1  0  0  0  0
  3  4  2  0  0  0  0
  4  5  1  0  0  0  0
  5  6  2  0  0  0  0
  5  7  1  0  0  0  0
  7 10  1  0  0  0  0
  7  9  1  0  0  0  0
 11 12  1  0  0  0  0
 11 17  1  1  0  0  0
 11  2  1  0  0  0  0
 12 18  1  0  0  0  0
 13 19  1  0  0  0  0
 13 12  2  0  0  0  0
 14 20  1  6  0  0  0
 14 15  1  0  0  0  0
 14 13  1  0  0  0  0
 15 22  1  0  0  0  0
 15 16  1  0  0  0  0
 16 11  1  0  0  0  0
 21 15  1  0  0  0  0
 23 16  1  0  0  0  0
 24 16  1  0  0  0  0
 25 26  1  0  0  0  0
 25 14  1  0  0  0  0
 27 25  1  0  0  0  0
 28 25  1  0  0  0  0
 29  3  1  0  0  0  0
 30 29  2  0  0  0  0
 31 30  1  0  0  0  0
 32 31  2  0  0  0  0
 32 33  1  0  0  0  0
 33 38  1  0  0  0  0
 34 33  2  0  0  0  0
 34 35  1  0  0  0  0
 35 36  2  0  0  0  0
 36 37  1  0  0  0  0
 38 29  1  0  0  0  0
 38 37  2  0  0  0  0
M  END
>  <minimizedAffinity>
-5.78297281

>  <minimizedRMSD>
0.954913318

$$$$
