
 OpenBabel03232518443D

 26 28  0  0  0  0  0  0  0  0999 V2000
   44.6280   35.5310   44.5970 C   0  0  0  0  0  0  0  0  0  0  0  0
   45.1290   34.8070   43.5110 C   0  0  0  0  0  0  0  0  0  0  0  0
   45.6730   33.5830   43.7690 C   0  0  0  0  0  0  0  0  0  0  0  0
   45.7000   33.1240   45.0660 N   0  0  0  0  0  0  0  0  0  0  0  0
   45.2170   33.8310   46.0910 C   0  0  0  0  0  0  0  0  0  0  0  0
   44.6810   35.0360   45.8460 N   0  0  0  0  0  0  0  0  0  0  0  0
   44.1930   36.5100   44.4020 H   0  0  0  0  0  0  0  0  0  0  0  0
   46.1940   32.6600   42.7800 C   0  0  0  0  0  0  0  0  0  0  0  0
   45.4340   31.6930   42.1350 C   0  0  0  0  0  0  0  0  0  0  0  0
   46.1000   30.9530   41.1650 C   0  0  0  0  0  0  0  0  0  0  0  0
   47.4220   31.1150   40.8180 C   0  0  0  0  0  0  0  0  0  0  0  0
   48.1480   32.0900   41.4830 C   0  0  0  0  0  0  0  0  0  0  0  0
   49.4890   32.2710   41.1770 C   0  0  0  0  0  0  0  0  0  0  0  0
   50.2320   33.2250   41.8490 C   0  0  0  0  0  0  0  0  0  0  0  0
   49.6600   34.0110   42.8290 C   0  0  0  0  0  0  0  0  0  0  0  0
   48.3120   33.8190   43.1260 C   0  0  0  0  0  0  0  0  0  0  0  0
   47.5350   32.8650   42.4660 C   0  0  0  0  0  0  0  0  0  0  0  0
   45.0320   35.3500   42.1460 C   0  0  0  0  0  0  0  0  0  0  0  0
   44.4050   36.5910   42.2280 F   0  0  0  0  0  0  0  0  0  0  0  0
   44.1770   34.5990   41.3480 F   0  0  0  0  0  0  0  0  0  0  0  0
   46.2400   35.4370   41.5360 F   0  0  0  0  0  0  0  0  0  0  0  0
   45.2330   33.4050   47.4070 O   0  0  0  0  0  0  0  0  0  0  0  0
   46.1190   32.4340   47.8950 C   0  0  0  0  0  0  0  0  0  0  0  0
   47.4440   32.7470   47.6730 F   0  0  0  0  0  0  0  0  0  0  0  0
   45.7670   31.1970   47.4200 F   0  0  0  0  0  0  0  0  0  0  0  0
   45.9950   32.4370   49.2980 F   0  0  0  0  0  0  0  0  0  0  0  0
  1  6  1  0  0  0  0
  2  3  1  0  0  0  0
  2  1  2  0  0  0  0
  3  4  2  0  0  0  0
  4  5  1  0  0  0  0
  5 22  1  0  0  0  0
  6  5  2  0  0  0  0
  7  1  1  0  0  0  0
  8  3  1  0  0  0  0
  9  8  2  0  0  0  0
 10  9  1  0  0  0  0
 11 10  2  0  0  0  0
 11 12  1  0  0  0  0
 12 17  1  0  0  0  0
 13 12  2  0  0  0  0
 13 14  1  0  0  0  0
 14 15  2  0  0  0  0
 15 16  1  0  0  0  0
 17  8  1  0  0  0  0
 17 16  2  0  0  0  0
 18 19  1  0  0  0  0
 18  2  1  0  0  0  0
 20 18  1  0  0  0  0
 21 18  1  0  0  0  0
 22 23  1  0  0  0  0
 23 26  1  0  0  0  0
 24 23  1  0  0  0  0
 25 23  1  0  0  0  0
M  END
>  <minimizedAffinity>
-5.75929356

>  <minimizedRMSD>
1.23850107

$$$$
