
 OpenBabel03232520583D

 38 41  0  0  1  0  0  0  0  0999 V2000
   45.6790   32.7780   47.6540 C   0  0  0  0  0  0  0  0  0  0  0  0
   45.8380   32.4700   46.3410 C   0  0  0  0  0  0  0  0  0  0  0  0
   45.7390   31.1210   45.9800 C   0  0  0  0  0  0  0  0  0  0  0  0
   45.5060   30.1910   46.9020 N   0  0  0  0  0  0  0  0  0  0  0  0
   45.3540   30.5260   48.2270 C   0  0  0  0  0  0  0  0  0  0  0  0
   45.4370   31.8080   48.5940 N   0  0  0  0  0  0  0  0  0  0  0  0
   45.1590   29.5010   49.2070 N   0  0  0  0  0  0  0  0  0  0  0  0
   45.7220   33.7560   48.0630 H   0  0  0  0  0  0  0  0  0  0  0  0
   45.9700   29.1050   49.7190 H   0  0  0  0  0  0  0  0  0  0  0  0
   44.1960   29.1480   49.4060 H   0  0  0  0  0  0  0  0  0  0  0  0
   46.1180   33.4920   45.3700 C   0  0  2  0  0  0  0  0  0  0  0  0
   45.0000   34.5690   45.5020 C   0  0  0  0  0  0  0  0  0  0  0  0
   44.8450   35.4850   44.4090 C   0  0  0  0  0  0  0  0  0  0  0  0
   45.6800   35.4100   43.2340 C   0  0  1  0  0  0  0  0  0  0  0  0
   46.7930   34.4450   43.2870 C   0  0  0  0  0  0  0  0  0  0  0  0
   46.3520   33.1860   43.9950 C   0  0  0  0  0  0  0  0  0  0  0  0
   46.9370   34.1430   45.8330 H   0  0  0  0  0  0  0  0  0  0  0  0
   44.2840   34.7760   46.2880 H   0  0  0  0  0  0  0  0  0  0  0  0
   44.0710   36.2410   44.4840 H   0  0  0  0  0  0  0  0  0  0  0  0
   46.1030   36.4190   43.0330 H   0  0  0  0  0  0  0  0  0  0  0  0
   47.1150   34.2070   42.2290 H   0  0  0  0  0  0  0  0  0  0  0  0
   47.7060   34.8150   43.8170 H   0  0  0  0  0  0  0  0  0  0  0  0
   45.4600   32.8210   43.4660 H   0  0  0  0  0  0  0  0  0  0  0  0
   47.2100   32.5540   43.7270 H   0  0  0  0  0  0  0  0  0  0  0  0
   44.7710   35.1050   42.0140 C   0  0  0  0  0  0  0  0  0  0  0  0
   43.7890   34.2050   42.3030 F   0  0  0  0  0  0  0  0  0  0  0  0
   44.1260   36.3120   41.7130 F   0  0  0  0  0  0  0  0  0  0  0  0
   45.5510   34.7700   40.9220 F   0  0  0  0  0  0  0  0  0  0  0  0
   45.8420   30.4320   44.7100 C   0  0  0  0  0  0  0  0  0  0  0  0
   44.8810   30.2130   43.6940 C   0  0  0  0  0  3  0  0  0  0  0  0
   45.1960   29.4460   42.5860 C   0  0  0  0  0  3  0  0  0  0  0  0
   46.4400   28.8900   42.4530 C   0  0  0  0  0  3  0  0  0  0  0  0
   47.4140   29.0550   43.3850 C   0  0  0  0  0  0  0  0  0  0  0  0
   48.6640   28.4930   43.2290 C   0  0  0  0  0  3  0  0  0  0  0  0
   49.6370   28.6830   44.1830 C   0  0  0  0  0  3  0  0  0  0  0  0
   49.3870   29.4330   45.3080 C   0  0  0  0  0  3  0  0  0  0  0  0
   48.1260   29.9720   45.4160 C   0  0  0  0  0  3  0  0  0  0  0  0
   47.0950   29.8300   44.5070 C   0  0  0  0  0  0  0  0  0  0  0  0
  1  8  1  0  0  0  0
  1  6  1  0  0  0  0
  2  1  2  0  0  0  0
  3  2  1  0  0  0  0
  3  4  2  0  0  0  0
  4  5  1  0  0  0  0
  5  6  2  0  0  0  0
  5  7  1  0  0  0  0
  7 10  1  0  0  0  0
  7  9  1  0  0  0  0
 11 12  1  0  0  0  0
 11 17  1  1  0  0  0
 11  2  1  0  0  0  0
 12 18  1  0  0  0  0
 13 19  1  0  0  0  0
 13 12  2  0  0  0  0
 14 20  1  6  0  0  0
 14 15  1  0  0  0  0
 14 13  1  0  0  0  0
 15 22  1  0  0  0  0
 15 16  1  0  0  0  0
 16 11  1  0  0  0  0
 21 15  1  0  0  0  0
 23 16  1  0  0  0  0
 24 16  1  0  0  0  0
 25 26  1  0  0  0  0
 25 14  1  0  0  0  0
 27 25  1  0  0  0  0
 28 25  1  0  0  0  0
 29  3  1  0  0  0  0
 30 29  2  0  0  0  0
 31 30  1  0  0  0  0
 32 31  2  0  0  0  0
 32 33  1  0  0  0  0
 33 38  1  0  0  0  0
 34 33  2  0  0  0  0
 34 35  1  0  0  0  0
 35 36  2  0  0  0  0
 36 37  1  0  0  0  0
 38 29  1  0  0  0  0
 38 37  2  0  0  0  0
M  END
>  <minimizedAffinity>
-5.78201294

>  <minimizedRMSD>
0.927453935

$$$$
