
 OpenBabel03232520473D

 42 46  0  0  0  0  0  0  0  0999 V2000
   46.3960   34.6570   42.2010 C   0  0  0  0  0  0  0  0  0  0  0  0
   47.7080   35.0080   42.0660 C   0  0  0  0  0  0  0  0  0  0  0  0
   48.4110   34.8000   40.8760 C   0  0  0  0  0  0  0  0  0  0  0  0
   47.7630   34.2210   39.7880 C   0  0  0  0  0  0  0  0  0  0  0  0
   46.4480   33.8720   39.9280 C   0  0  0  0  0  0  0  0  0  0  0  0
   45.7830   34.0900   41.1200 C   0  0  0  0  0  0  0  0  0  0  0  0
   48.2520   35.4630   42.8920 H   0  0  0  0  0  0  0  0  0  0  0  0
   49.4540   35.1000   40.8290 H   0  0  0  0  0  0  0  0  0  0  0  0
   48.3730   34.0970   38.9130 H   0  0  0  0  0  0  0  0  0  0  0  0
   45.9720   33.4220   39.0630 H   0  0  0  0  0  0  0  0  0  0  0  0
   44.4270   33.7150   41.2220 N   0  0  0  0  0  0  0  0  0  0  0  0
   43.6070   34.6610   40.6890 C   0  0  0  0  0  0  0  0  0  0  0  0
   42.2180   34.4990   40.6820 C   0  0  0  0  0  0  0  0  0  0  0  0
   41.7120   33.3340   41.2420 C   0  0  0  0  0  0  0  0  0  0  0  0
   40.4670   33.1390   41.2620 O   0  0  0  0  0  0  0  0  0  0  0  0
   42.5460   32.4280   41.7560 N   0  0  0  0  0  0  0  0  0  0  0  0
   43.8710   32.6000   41.7540 C   0  0  0  0  0  0  0  0  0  0  0  0
   44.7320   31.7990   42.2160 O   0  0  0  0  0  0  0  0  0  0  0  0
   43.9250   35.5810   40.2420 H   0  0  0  0  0  0  0  0  0  0  0  0
   42.1850   31.5310   42.1880 H   0  0  0  0  0  0  0  0  0  0  0  0
   41.3080   35.5310   40.1020 C   0  0  0  0  0  0  0  0  0  0  0  0
   40.2850   35.2400   40.3280 H   0  0  0  0  0  0  0  0  0  0  0  0
   41.4430   35.6500   39.0190 H   0  0  0  0  0  0  0  0  0  0  0  0
   41.5070   36.4820   40.6580 H   0  0  0  0  0  0  0  0  0  0  0  0
   44.4160   36.1280   45.0380 C   0  0  0  0  0  0  0  0  0  0  0  0
   44.9750   36.0100   43.7780 C   0  0  0  0  0  0  0  0  0  0  0  0
   45.7450   34.9160   43.4820 C   0  0  0  0  0  0  0  0  0  0  0  0
   45.9010   34.0200   44.4610 N   0  0  0  0  0  0  0  0  0  0  0  0
   45.3640   34.1170   45.6940 C   0  0  0  0  0  0  0  0  0  0  0  0
   44.6200   35.1910   45.9570 N   0  0  0  0  0  0  0  0  0  0  0  0
   43.8050   36.9820   45.2950 H   0  0  0  0  0  0  0  0  0  0  0  0
   44.8320   36.7470   43.0050 H   0  0  0  0  0  0  0  0  0  0  0  0
   45.7170   32.9750   46.5460 C   0  0  0  0  0  0  0  0  0  0  0  0
   45.2550   32.8780   47.8410 C   0  0  0  0  0  0  0  0  0  0  0  0
   45.5530   31.8320   48.6840 C   0  0  0  0  0  0  0  0  0  0  0  0
   46.3450   30.8060   48.2660 C   0  0  0  0  0  0  0  0  0  0  0  0
   46.8350   30.8500   46.9850 C   0  0  0  0  0  0  0  0  0  0  0  0
   47.6300   29.8230   46.5610 C   0  0  0  0  0  0  0  0  0  0  0  0
   48.1640   29.7970   45.2760 C   0  0  0  0  0  0  0  0  0  0  0  0
   47.8370   30.8790   44.4500 C   0  0  0  0  0  0  0  0  0  0  0  0
   47.0310   31.8900   44.9250 C   0  0  0  0  0  0  0  0  0  0  0  0
   46.5090   31.9150   46.1820 C   0  0  0  0  0  0  0  0  0  0  0  0
  1 27  1  0  0  0  0
  2  1  1  0  0  0  0
  2  7  1  0  0  0  0
  3  2  2  0  0  0  0
  4  5  2  0  0  0  0
  4  3  1  0  0  0  0
  5  6  1  0  0  0  0
  6 11  1  0  0  0  0
  6  1  2  0  0  0  0
  8  3  1  0  0  0  0
  9  4  1  0  0  0  0
 10  5  1  0  0  0  0
 11 17  1  0  0  0  0
 12 11  1  0  0  0  0
 13 12  2  0  0  0  0
 13 14  1  0  0  0  0
 14 15  2  0  0  0  0
 14 16  1  0  0  0  0
 16 20  1  0  0  0  0
 17 16  1  0  0  0  0
 17 18  2  0  0  0  0
 19 12  1  0  0  0  0
 21 22  1  0  0  0  0
 21 24  1  0  0  0  0
 21 13  1  0  0  0  0
 23 21  1  0  0  0  0
 25 31  1  0  0  0  0
 25 30  1  0  0  0  0
 26 25  2  0  0  0  0
 27 26  1  0  0  0  0
 27 28  2  0  0  0  0
 28 29  1  0  0  0  0
 29 30  2  0  0  0  0
 29 33  1  0  0  0  0
 32 26  1  0  0  0  0
 33 34  1  0  0  0  0
 34 35  2  0  0  0  0
 36 35  1  0  0  0  0
 37 36  2  0  0  0  0
 38 37  1  0  0  0  0
 39 38  2  0  0  0  0
 40 41  2  0  0  0  0
 40 39  1  0  0  0  0
 41 42  1  0  0  0  0
 42 33  2  0  0  0  0
 42 37  1  0  0  0  0
M  END
>  <minimizedAffinity>
-8.49706268

>  <minimizedRMSD>
0.278485715

$$$$
