
 OpenBabel03232514373D

 33 36  0  0  1  0  0  0  0  0999 V2000
   45.8670   32.7750   46.8730 C   0  0  0  0  0  0  0  0  0  0  0  0
   45.9540   32.7040   45.4910 C   0  0  0  0  0  0  0  0  0  0  0  0
   45.9500   31.4290   44.8660 C   0  0  0  0  0  0  0  0  0  0  0  0
   45.8670   30.3010   45.6310 N   0  0  0  0  0  0  0  0  0  0  0  0
   45.7860   30.4110   47.0020 C   0  0  0  0  0  0  0  0  0  0  0  0
   45.7860   31.6350   47.6010 N   0  0  0  0  0  0  0  0  0  0  0  0
   45.8730   33.7410   47.3230 H   0  0  0  0  0  0  0  0  0  0  0  0
   45.7180   29.6380   47.7420 H   0  0  0  0  0  0  0  0  0  0  0  0
   45.9490   33.9350   44.7350 C   0  0  2  0  0  0  0  0  0  0  0  0
   44.9210   34.9250   45.3810 C   0  0  0  0  0  0  0  0  0  0  0  0
   44.5280   36.0600   44.5680 C   0  0  0  0  0  0  0  0  0  0  0  0
   45.0540   36.2220   43.2200 C   0  0  0  0  0  0  0  0  0  0  0  0
   46.0720   35.2790   42.7640 C   0  0  0  0  0  0  0  0  0  0  0  0
   45.9180   33.9050   43.3070 C   0  0  0  0  0  0  0  0  0  0  0  0
   46.8580   34.5140   45.1310 H   0  0  0  0  0  0  0  0  0  0  0  0
   44.5440   34.7400   46.3780 H   0  0  0  0  0  0  0  0  0  0  0  0
   43.8370   36.6990   45.0480 H   0  0  0  0  0  0  0  0  0  0  0  0
   44.1810   36.2140   42.5000 H   0  0  0  0  0  0  0  0  0  0  0  0
   45.4460   37.2660   43.1390 H   0  0  0  0  0  0  0  0  0  0  0  0
   47.1250   35.6280   42.9090 H   0  0  0  0  0  0  0  0  0  0  0  0
   45.9570   35.1850   41.6330 H   0  0  0  0  0  0  0  0  0  0  0  0
   45.0480   33.4540   42.8000 H   0  0  0  0  0  0  0  0  0  0  0  0
   46.8890   33.4300   42.9530 H   0  0  0  0  0  0  0  0  0  0  0  0
   46.0020   30.9460   43.5200 C   0  0  0  0  0  0  0  0  0  0  0  0
   44.9340   30.5590   42.7230 C   0  0  0  0  0  0  0  0  0  0  0  0
   44.9160   30.1700   41.4000 C   0  0  0  0  0  0  0  0  0  0  0  0
   46.1510   30.1840   40.8430 C   0  0  0  0  0  0  0  0  0  0  0  0
   47.2910   30.5370   41.4860 C   0  0  0  0  0  0  0  0  0  0  0  0
   48.4960   30.5010   40.7860 C   0  0  0  0  0  0  0  0  0  0  0  0
   49.6590   30.8450   41.4100 C   0  0  0  0  0  0  0  0  0  0  0  0
   49.5820   31.2210   42.7340 C   0  0  0  0  0  0  0  0  0  0  0  0
   48.3900   31.2570   43.4290 C   0  0  0  0  0  0  0  0  0  0  0  0
   47.2180   30.9140   42.8150 C   0  0  0  0  0  0  0  0  0  0  0  0
  1  7  1  0  0  0  0
  1  6  1  0  0  0  0
  2  1  2  0  0  0  0
  3  2  1  0  0  0  0
  3  4  2  0  0  0  0
  4  5  1  0  0  0  0
  5  6  2  0  0  0  0
  5  8  1  0  0  0  0
  9 15  1  1  0  0  0
  9 10  1  0  0  0  0
  9  2  1  0  0  0  0
 10 16  1  0  0  0  0
 11 17  1  0  0  0  0
 11 10  2  0  0  0  0
 12 11  1  0  0  0  0
 13 20  1  0  0  0  0
 13 12  1  0  0  0  0
 13 14  1  0  0  0  0
 14  9  1  0  0  0  0
 18 12  1  0  0  0  0
 19 12  1  0  0  0  0
 21 13  1  0  0  0  0
 22 14  1  0  0  0  0
 23 14  1  0  0  0  0
 24  3  1  0  0  0  0
 25 24  2  0  0  0  0
 26 25  1  0  0  0  0
 27 26  2  0  0  0  0
 27 28  1  0  0  0  0
 28 33  1  0  0  0  0
 29 30  1  0  0  0  0
 29 28  2  0  0  0  0
 30 31  2  0  0  0  0
 31 32  1  0  0  0  0
 33 32  2  0  0  0  0
 33 24  1  0  0  0  0
M  END
>  <minimizedAffinity>
-4.71810865

>  <minimizedRMSD>
1.09832537

$$$$
