
 OpenBabel03232520223D

 42 46  0  0  0  0  0  0  0  0999 V2000
   47.5610   33.9770   42.3550 C   0  0  0  0  0  0  0  0  0  0  0  0
   48.3040   35.1120   41.6800 C   0  0  0  0  0  0  0  0  0  0  0  0
   49.6530   35.3660   42.2000 C   0  0  0  0  0  0  0  0  0  0  0  0
   50.4780   34.1430   42.4650 C   0  0  0  0  0  0  0  0  0  0  0  0
   49.7010   32.8490   42.3470 C   0  0  0  0  0  0  0  0  0  0  0  0
   48.4060   33.0300   43.1130 C   0  0  0  0  0  0  0  0  0  0  0  0
   48.3570   34.9450   40.5710 H   0  0  0  0  0  0  0  0  0  0  0  0
   47.6810   36.0260   41.7940 H   0  0  0  0  0  0  0  0  0  0  0  0
   50.1970   36.0140   41.5120 H   0  0  0  0  0  0  0  0  0  0  0  0
   49.5750   35.9430   43.1630 H   0  0  0  0  0  0  0  0  0  0  0  0
   50.9700   34.1660   43.4580 H   0  0  0  0  0  0  0  0  0  0  0  0
   51.3130   34.0480   41.7140 H   0  0  0  0  0  0  0  0  0  0  0  0
   50.3100   32.0660   42.8500 H   0  0  0  0  0  0  0  0  0  0  0  0
   49.4930   32.6320   41.2860 H   0  0  0  0  0  0  0  0  0  0  0  0
   47.8850   32.0560   43.1990 H   0  0  0  0  0  0  0  0  0  0  0  0
   48.6770   33.4420   44.0920 H   0  0  0  0  0  0  0  0  0  0  0  0
   45.2760   34.3770   45.2390 C   0  0  0  0  0  0  0  0  0  0  0  0
   44.5290   35.5220   44.9000 C   0  0  0  0  0  0  0  0  0  0  0  0
   44.8190   36.1510   43.6840 C   0  0  0  0  0  0  0  0  0  0  0  0
   45.8010   35.6250   42.9010 N   0  0  0  0  0  0  0  0  0  0  0  0
   46.5020   34.5170   43.2600 C   0  0  0  0  0  0  0  0  0  0  0  0
   46.2260   33.8980   44.4440 N   0  0  0  0  0  0  0  0  0  0  0  0
   45.0600   33.8860   46.1780 H   0  0  0  0  0  0  0  0  0  0  0  0
   43.7540   35.9240   45.5380 H   0  0  0  0  0  0  0  0  0  0  0  0
   44.2850   37.0280   43.3690 H   0  0  0  0  0  0  0  0  0  0  0  0
   46.8860   33.1690   41.2590 C   0  0  0  0  0  0  0  0  0  0  0  0
   46.0660   32.0720   41.1420 C   0  0  0  0  0  0  0  0  0  0  0  0
   45.6880   31.7110   39.9000 C   0  0  0  0  0  0  0  0  0  0  0  0
   46.0730   32.3720   38.8040 C   0  0  0  0  0  0  0  0  0  0  0  0
   47.1180   33.6910   39.5350 S   0  0  0  0  0  0  0  0  0  0  0  0
   45.8970   31.7190   42.1450 H   0  0  0  0  0  0  0  0  0  0  0  0
   45.0480   30.8370   39.9450 H   0  0  0  0  0  0  0  0  0  0  0  0
   45.7160   32.0510   37.5130 C   0  0  0  0  0  0  0  0  0  0  0  0
   44.4670   31.5790   37.2360 C   0  0  0  0  0  0  0  0  0  0  0  0
   44.0320   31.2390   35.9840 C   0  0  0  0  0  0  0  0  0  0  0  0
   44.8280   31.3440   34.8840 C   0  0  0  0  0  0  0  0  0  0  0  0
   46.1000   31.8180   35.1180 C   0  0  0  0  0  0  0  0  0  0  0  0
   46.9330   31.9380   34.0290 C   0  0  0  0  0  0  0  0  0  0  0  0
   48.2270   32.4010   34.1460 C   0  0  0  0  0  0  0  0  0  0  0  0
   48.6650   32.7450   35.4140 C   0  0  0  0  0  0  0  0  0  0  0  0
   47.7890   32.6040   36.4630 C   0  0  0  0  0  0  0  0  0  0  0  0
   46.4990   32.1500   36.3940 C   0  0  0  0  0  0  0  0  0  0  0  0
  1  6  1  0  0  0  0
  1 21  1  0  0  0  0
  2  8  1  0  0  0  0
  2  3  1  0  0  0  0
  2  1  1  0  0  0  0
  3  4  1  0  0  0  0
  3 10  1  0  0  0  0
  4 11  1  0  0  0  0
  5  4  1  0  0  0  0
  5 13  1  0  0  0  0
  5  6  1  0  0  0  0
  6 15  1  0  0  0  0
  6 16  1  0  0  0  0
  7  2  1  0  0  0  0
  9  3  1  0  0  0  0
 12  4  1  0  0  0  0
 14  5  1  0  0  0  0
 17 23  1  0  0  0  0
 18 17  1  0  0  0  0
 18 24  1  0  0  0  0
 19 18  2  0  0  0  0
 20 21  2  0  0  0  0
 20 19  1  0  0  0  0
 21 22  1  0  0  0  0
 22 17  2  0  0  0  0
 25 19  1  0  0  0  0
 26  1  1  0  0  0  0
 27 26  2  0  0  0  0
 27 31  1  0  0  0  0
 28 32  1  0  0  0  0
 28 27  1  0  0  0  0
 29 30  1  0  0  0  0
 29 28  2  0  0  0  0
 30 26  1  0  0  0  0
 33 29  1  0  0  0  0
 34 33  1  0  0  0  0
 35 34  2  0  0  0  0
 36 37  2  0  0  0  0
 36 35  1  0  0  0  0
 37 42  1  0  0  0  0
 38 39  2  0  0  0  0
 38 37  1  0  0  0  0
 39 40  1  0  0  0  0
 40 41  2  0  0  0  0
 42 41  1  0  0  0  0
 42 33  2  0  0  0  0
M  END
>  <minimizedAffinity>
-6.54489374

>  <minimizedRMSD>
0.882071912

$$$$
