
 OpenBabel03232517143D

 40 45  0  0  0  0  0  0  0  0999 V2000
   46.3060   32.7970   46.7490 C   0  0  0  0  0  0  0  0  0  0  0  0
   45.4810   32.7060   47.8540 C   0  0  0  0  0  0  0  0  0  0  0  0
   46.1770   31.8970   48.7370 C   0  0  0  0  0  0  0  0  0  0  0  0
   47.3870   31.5340   48.1410 C   0  0  0  0  0  0  0  0  0  0  0  0
   47.3760   32.1040   46.9840 O   0  0  0  0  0  0  0  0  0  0  0  0
   44.5400   33.2080   47.8670 H   0  0  0  0  0  0  0  0  0  0  0  0
   45.7650   31.6490   49.7060 H   0  0  0  0  0  0  0  0  0  0  0  0
   46.6770   34.0970   43.4480 C   0  0  0  0  0  0  0  0  0  0  0  0
   45.5420   34.7650   43.8970 C   0  0  0  0  0  0  0  0  0  0  0  0
   45.2790   34.3430   45.1970 C   0  0  0  0  0  0  0  0  0  0  0  0
   46.2490   33.4430   45.4940 N   0  0  0  0  0  0  0  0  0  0  0  0
   47.0770   33.2870   44.4780 N   0  0  0  0  0  0  0  0  0  0  0  0
   44.9060   35.5050   43.3910 H   0  0  0  0  0  0  0  0  0  0  0  0
   44.4610   34.6740   45.8300 H   0  0  0  0  0  0  0  0  0  0  0  0
   48.6980   35.4450   40.6970 C   0  0  0  0  0  0  0  0  0  0  0  0
   48.1860   34.7510   39.5960 C   0  0  0  0  0  0  0  0  0  0  0  0
   47.1470   33.8240   39.8170 C   0  0  0  0  0  0  0  0  0  0  0  0
   46.6780   33.6350   41.0910 N   0  0  0  0  0  0  0  0  0  0  0  0
   47.2070   34.3300   42.1120 C   0  0  0  0  0  0  0  0  0  0  0  0
   48.1980   35.2220   41.9400 N   0  0  0  0  0  0  0  0  0  0  0  0
   49.4830   36.1390   40.4910 H   0  0  0  0  0  0  0  0  0  0  0  0
   48.5190   34.8620   38.5800 H   0  0  0  0  0  0  0  0  0  0  0  0
   46.6730   33.2280   39.0460 H   0  0  0  0  0  0  0  0  0  0  0  0
   48.3640   30.7010   48.7650 N   0  0  0  0  0  0  0  0  0  0  0  0
   49.0500   30.8540   49.9520 C   0  0  0  0  0  0  0  0  0  0  0  0
   49.8160   29.7460   50.1180 C   0  0  0  0  0  0  0  0  0  0  0  0
   49.5930   28.9580   49.0630 N   0  0  0  0  0  0  0  0  0  0  0  0
   48.6930   29.5300   48.2030 C   0  0  0  0  0  0  0  0  0  0  0  0
   48.9200   31.7430   50.5600 H   0  0  0  0  0  0  0  0  0  0  0  0
   50.4740   29.5600   50.9570 H   0  0  0  0  0  0  0  0  0  0  0  0
   48.2400   28.9080   46.9640 C   0  0  0  0  0  0  0  0  0  0  0  0
   49.0310   28.9170   45.8110 C   0  0  0  0  0  0  0  0  0  0  0  0
   48.6580   28.3910   44.5940 C   0  0  0  0  0  0  0  0  0  0  0  0
   47.4310   27.8070   44.4610 C   0  0  0  0  0  0  0  0  0  0  0  0
   46.6020   27.7640   45.5590 C   0  0  0  0  0  0  0  0  0  0  0  0
   45.3620   27.1820   45.4110 C   0  0  0  0  0  0  0  0  0  0  0  0
   44.4740   27.1130   46.4640 C   0  0  0  0  0  0  0  0  0  0  0  0
   44.8790   27.6570   47.6880 C   0  0  0  0  0  0  0  0  0  0  0  0
   46.1300   28.2260   47.7720 C   0  0  0  0  0  0  0  0  0  0  0  0
   47.0370   28.3100   46.7440 C   0  0  0  0  0  0  0  0  0  0  0  0
  1  5  1  0  0  0  0
  1  2  2  0  0  0  0
  2  6  1  0  0  0  0
  2  3  1  0  0  0  0
  3  7  1  0  0  0  0
  4  3  2  0  0  0  0
  4 24  1  0  0  0  0
  5  4  1  0  0  0  0
  8  9  1  0  0  0  0
  8 12  2  0  0  0  0
  9 10  2  0  0  0  0
 10 11  1  0  0  0  0
 10 14  1  0  0  0  0
 11  1  1  0  0  0  0
 12 11  1  0  0  0  0
 13  9  1  0  0  0  0
 15 20  1  0  0  0  0
 16 17  1  0  0  0  0
 16 15  2  0  0  0  0
 17 18  2  0  0  0  0
 18 19  1  0  0  0  0
 19  8  1  0  0  0  0
 20 19  2  0  0  0  0
 21 15  1  0  0  0  0
 22 16  1  0  0  0  0
 23 17  1  0  0  0  0
 24 25  1  0  0  0  0
 25 26  2  0  0  0  0
 25 29  1  0  0  0  0
 26 30  1  0  0  0  0
 27 26  1  0  0  0  0
 28 24  1  0  0  0  0
 28 27  2  0  0  0  0
 31 28  1  0  0  0  0
 32 31  2  0  0  0  0
 33 32  1  0  0  0  0
 34 33  2  0  0  0  0
 34 35  1  0  0  0  0
 35 40  1  0  0  0  0
 36 35  2  0  0  0  0
 36 37  1  0  0  0  0
 37 38  2  0  0  0  0
 38 39  1  0  0  0  0
 40 31  1  0  0  0  0
 40 39  2  0  0  0  0
M  END
>  <minimizedAffinity>
-6.3415184

>  <minimizedRMSD>
2.33739901

$$$$
