
 OpenBabel03232520573D

 38 41  0  0  1  0  0  0  0  0999 V2000
   45.2420   32.8520   47.4190 C   0  0  0  0  0  0  0  0  0  0  0  0
   45.8700   32.5310   46.2590 C   0  0  0  0  0  0  0  0  0  0  0  0
   46.2840   31.2030   46.0970 C   0  0  0  0  0  0  0  0  0  0  0  0
   46.0680   30.3080   47.0560 N   0  0  0  0  0  0  0  0  0  0  0  0
   45.4350   30.6560   48.2260 C   0  0  0  0  0  0  0  0  0  0  0  0
   45.0240   31.9160   48.3990 N   0  0  0  0  0  0  0  0  0  0  0  0
   45.2640   29.6860   49.2640 N   0  0  0  0  0  0  0  0  0  0  0  0
   44.8720   33.8140   47.6700 H   0  0  0  0  0  0  0  0  0  0  0  0
   45.9620   29.6080   50.0270 H   0  0  0  0  0  0  0  0  0  0  0  0
   44.4340   29.0530   49.2530 H   0  0  0  0  0  0  0  0  0  0  0  0
   46.1160   33.5260   45.2520 C   0  0  2  0  0  0  0  0  0  0  0  0
   45.0420   34.6390   45.4340 C   0  0  0  0  0  0  0  0  0  0  0  0
   44.8430   35.5390   44.3350 C   0  0  0  0  0  0  0  0  0  0  0  0
   45.5970   35.4180   43.1100 C   0  0  1  0  0  0  0  0  0  0  0  0
   46.6820   34.4200   43.1110 C   0  0  0  0  0  0  0  0  0  0  0  0
   46.2510   33.1880   43.8710 C   0  0  0  0  0  0  0  0  0  0  0  0
   46.9830   34.1600   45.6480 H   0  0  0  0  0  0  0  0  0  0  0  0
   44.3850   34.8830   46.2610 H   0  0  0  0  0  0  0  0  0  0  0  0
   44.0990   36.3200   44.4450 H   0  0  0  0  0  0  0  0  0  0  0  0
   46.0350   36.4090   42.8620 H   0  0  0  0  0  0  0  0  0  0  0  0
   46.9260   34.1520   42.0390 H   0  0  0  0  0  0  0  0  0  0  0  0
   47.6380   34.7710   43.5730 H   0  0  0  0  0  0  0  0  0  0  0  0
   45.3160   32.8410   43.4080 H   0  0  0  0  0  0  0  0  0  0  0  0
   47.0700   32.5250   43.5600 H   0  0  0  0  0  0  0  0  0  0  0  0
   44.6010   35.1180   41.9580 C   0  0  0  0  0  0  0  0  0  0  0  0
   43.6190   34.2480   42.3260 F   0  0  0  0  0  0  0  0  0  0  0  0
   43.9680   36.3370   41.6800 F   0  0  0  0  0  0  0  0  0  0  0  0
   45.2990   34.7470   40.8230 F   0  0  0  0  0  0  0  0  0  0  0  0
   46.9610   30.5070   45.0210 C   0  0  0  0  0  0  0  0  0  0  0  0
   48.3310   30.4590   44.6670 C   0  0  0  0  0  3  0  0  0  0  0  0
   48.7370   29.7780   43.5340 C   0  0  0  0  0  3  0  0  0  0  0  0
   47.8240   29.1400   42.7380 C   0  0  0  0  0  3  0  0  0  0  0  0
   46.4920   29.1420   43.0120 C   0  0  0  0  0  0  0  0  0  0  0  0
   45.5890   28.4870   42.2020 C   0  0  0  0  0  3  0  0  0  0  0  0
   44.2470   28.4960   42.5060 C   0  0  0  0  0  3  0  0  0  0  0  0
   43.7800   29.1560   43.6170 C   0  0  0  0  0  3  0  0  0  0  0  0
   44.7200   29.7930   44.3930 C   0  0  0  0  0  3  0  0  0  0  0  0
   46.0810   29.8330   44.1590 C   0  0  0  0  0  0  0  0  0  0  0  0
  1  8  1  0  0  0  0
  1  6  1  0  0  0  0
  2  1  2  0  0  0  0
  3  2  1  0  0  0  0
  3  4  2  0  0  0  0
  4  5  1  0  0  0  0
  5  6  2  0  0  0  0
  5  7  1  0  0  0  0
  7  9  1  0  0  0  0
 10  7  1  0  0  0  0
 11 12  1  0  0  0  0
 11 17  1  1  0  0  0
 11  2  1  0  0  0  0
 12 18  1  0  0  0  0
 13 19  1  0  0  0  0
 13 12  2  0  0  0  0
 14 20  1  6  0  0  0
 14 15  1  0  0  0  0
 14 13  1  0  0  0  0
 15 22  1  0  0  0  0
 15 16  1  0  0  0  0
 16 11  1  0  0  0  0
 21 15  1  0  0  0  0
 23 16  1  0  0  0  0
 24 16  1  0  0  0  0
 25 26  1  0  0  0  0
 25 14  1  0  0  0  0
 27 25  1  0  0  0  0
 28 25  1  0  0  0  0
 29  3  1  0  0  0  0
 30 29  1  0  0  0  0
 31 30  2  0  0  0  0
 32 33  2  0  0  0  0
 32 31  1  0  0  0  0
 33 38  1  0  0  0  0
 34 35  2  0  0  0  0
 34 33  1  0  0  0  0
 35 36  1  0  0  0  0
 36 37  2  0  0  0  0
 38 37  1  0  0  0  0
 38 29  2  0  0  0  0
M  END
>  <minimizedAffinity>
-5.75324726

>  <minimizedRMSD>
1.03214061

$$$$
