
 OpenBabel03232520303D

 46 51  0  0  1  0  0  0  0  0999 V2000
   46.9810   34.5470   41.3730 C   0  0  0  0  0  0  0  0  0  0  0  0
   48.2550   34.9740   41.0440 C   0  0  0  0  0  0  0  0  0  0  0  0
   48.5350   34.6770   39.7820 N   0  0  0  0  0  0  0  0  0  0  0  0
   47.4650   34.0600   39.2690 C   0  0  0  0  0  0  0  0  0  0  0  0
   47.2250   33.5410   37.9980 C   0  0  0  0  0  0  0  0  0  0  0  0
   46.0140   32.9460   37.7380 C   0  0  0  0  0  0  0  0  0  0  0  0
   44.9950   32.8170   38.6500 C   0  0  0  0  0  0  0  0  0  0  0  0
   45.2750   33.3450   39.8970 C   0  0  0  0  0  0  0  0  0  0  0  0
   46.4570   33.9540   40.2360 C   0  0  0  0  0  0  0  0  0  0  0  0
   49.4130   34.8610   39.2160 H   0  0  0  0  0  0  0  0  0  0  0  0
   47.9800   33.6040   37.2230 H   0  0  0  0  0  0  0  0  0  0  0  0
   45.8720   32.5580   36.7370 H   0  0  0  0  0  0  0  0  0  0  0  0
   44.0560   32.3420   38.4020 H   0  0  0  0  0  0  0  0  0  0  0  0
   44.5190   33.2840   40.6800 H   0  0  0  0  0  0  0  0  0  0  0  0
   44.7890   35.8610   44.0850 C   0  0  0  0  0  0  0  0  0  0  0  0
   45.4470   35.7610   42.8470 C   0  0  0  0  0  0  0  0  0  0  0  0
   46.2890   34.6760   42.6470 C   0  0  0  0  0  0  0  0  0  0  0  0
   46.4440   33.7620   43.6480 N   0  0  0  0  0  0  0  0  0  0  0  0
   45.7790   33.9070   44.8330 C   0  0  0  0  0  0  0  0  0  0  0  0
   44.9620   34.9370   45.0620 N   0  0  0  0  0  0  0  0  0  0  0  0
   44.1470   36.7320   44.1750 H   0  0  0  0  0  0  0  0  0  0  0  0
   45.2980   36.5090   42.0790 H   0  0  0  0  0  0  0  0  0  0  0  0
   45.9870   33.1180   45.5390 H   0  0  0  0  0  0  0  0  0  0  0  0
   49.1510   35.6640   41.9990 C   0  0  0  0  0  0  0  0  0  0  0  0
   49.6360   36.5140   41.4980 H   0  0  0  0  0  0  0  0  0  0  0  0
   48.5520   36.1000   42.8320 H   0  0  0  0  0  0  0  0  0  0  0  0
   50.1470   34.7090   42.6180 C   0  0  0  0  0  0  0  0  0  0  0  0
   49.9340   34.5850   43.7010 H   0  0  0  0  0  0  0  0  0  0  0  0
   51.1450   35.2290   42.5800 H   0  0  0  0  0  0  0  0  0  0  0  0
   50.2540   33.4110   41.8960 C   0  0  1  0  0  0  0  0  0  0  0  0
   50.8790   32.2400   42.5200 C   0  0  0  0  0  0  0  0  0  0  0  0
   49.3960   32.2720   42.5150 C   0  0  2  0  0  0  0  0  0  0  0  0
   50.2020   33.4320   40.7970 H   0  0  0  0  0  0  0  0  0  0  0  0
   51.3750   32.4240   43.5190 H   0  0  0  0  0  0  0  0  0  0  0  0
   51.4840   31.5820   41.8880 H   0  0  0  0  0  0  0  0  0  0  0  0
   48.8690   32.5170   43.4510 H   0  0  0  0  0  0  0  0  0  0  0  0
   48.7500   31.3450   41.5700 C   0  0  0  0  0  0  0  0  0  0  0  0
   47.6360   30.6200   42.0160 C   0  0  0  0  0  0  0  0  0  0  0  0
   46.9780   29.6870   41.2420 C   0  0  0  0  0  0  0  0  0  0  0  0
   47.4000   29.4170   39.9570 C   0  0  0  0  0  0  0  0  0  0  0  0
   48.4900   30.0970   39.4580 C   0  0  0  0  0  0  0  0  0  0  0  0
   48.9630   29.8920   38.1790 C   0  0  0  0  0  0  0  0  0  0  0  0
   50.0480   30.5780   37.6590 C   0  0  0  0  0  0  0  0  0  0  0  0
   50.6660   31.5070   38.4850 C   0  0  0  0  0  0  0  0  0  0  0  0
   50.1730   31.6900   39.7560 C   0  0  0  0  0  0  0  0  0  0  0  0
   49.0980   31.0140   40.2820 C   0  0  0  0  0  0  0  0  0  0  0  0
  1 17  1  0  0  0  0
  2  1  2  0  0  0  0
  2 24  1  0  0  0  0
  3  2  1  0  0  0  0
  4  3  1  0  0  0  0
  4  9  1  0  0  0  0
  5  4  2  0  0  0  0
  6  5  1  0  0  0  0
  6  7  2  0  0  0  0
  7  8  1  0  0  0  0
  8  9  2  0  0  0  0
  8 14  1  0  0  0  0
  9  1  1  0  0  0  0
 10  3  1  0  0  0  0
 11  5  1  0  0  0  0
 12  6  1  0  0  0  0
 13  7  1  0  0  0  0
 15 21  1  0  0  0  0
 15 20  1  0  0  0  0
 16 15  2  0  0  0  0
 17 16  1  0  0  0  0
 17 18  2  0  0  0  0
 18 19  1  0  0  0  0
 19 20  2  0  0  0  0
 19 23  1  0  0  0  0
 22 16  1  0  0  0  0
 24 27  1  0  0  0  0
 24 26  1  0  0  0  0
 25 24  1  0  0  0  0
 27 28  1  0  0  0  0
 29 27  1  0  0  0  0
 30 33  1  6  0  0  0
 30 32  1  0  0  0  0
 30 31  1  0  0  0  0
 30 27  1  0  0  0  0
 31 34  1  0  0  0  0
 32 31  1  0  0  0  0
 32 36  1  1  0  0  0
 35 31  1  0  0  0  0
 37 38  1  0  0  0  0
 37 32  1  0  0  0  0
 39 38  2  0  0  0  0
 40 39  1  0  0  0  0
 41 40  2  0  0  0  0
 41 46  1  0  0  0  0
 42 41  1  0  0  0  0
 43 42  2  0  0  0  0
 43 44  1  0  0  0  0
 44 45  2  0  0  0  0
 45 46  1  0  0  0  0
 46 37  2  0  0  0  0
M  END
>  <minimizedAffinity>
-6.24105787

>  <minimizedRMSD>
0.831190825

$$$$
