
 OpenBabel03232520513D

 33 36  0  0  1  0  0  0  0  0999 V2000
   46.3600   33.7610   45.0830 C   0  0  2  0  0  0  0  0  0  0  0  0
   45.0810   34.5260   44.8250 C   0  0  0  0  0  0  0  0  0  0  0  0
   44.9510   35.2280   43.5530 C   0  0  0  0  0  0  0  0  0  0  0  0
   46.0450   35.1690   42.5630 C   0  0  1  0  0  0  0  0  0  0  0  0
   47.2770   34.5000   43.0000 C   0  0  0  0  0  0  0  0  0  0  0  0
   46.9530   33.2700   43.8020 C   0  0  0  0  0  0  0  0  0  0  0  0
   47.0360   34.5510   45.5050 H   0  0  0  0  0  0  0  0  0  0  0  0
   44.2010   34.6520   45.4400 H   0  0  0  0  0  0  0  0  0  0  0  0
   44.0560   35.7660   43.3680 H   0  0  0  0  0  0  0  0  0  0  0  0
   46.2700   36.2500   42.3590 H   0  0  0  0  0  0  0  0  0  0  0  0
   47.8360   35.1990   43.6540 H   0  0  0  0  0  0  0  0  0  0  0  0
   47.9050   34.1640   42.1720 H   0  0  0  0  0  0  0  0  0  0  0  0
   47.9550   32.8190   44.0520 H   0  0  0  0  0  0  0  0  0  0  0  0
   46.3200   32.5640   43.2550 H   0  0  0  0  0  0  0  0  0  0  0  0
   45.4300   34.5270   41.3450 C   0  0  0  0  0  0  0  0  0  0  0  0
   46.2290   33.7070   40.5470 C   0  0  0  0  0  3  0  0  0  0  0  0
   45.8340   33.0380   39.4070 C   0  0  0  0  0  3  0  0  0  0  0  0
   44.5180   33.2080   39.0340 C   0  0  0  0  0  3  0  0  0  0  0  0
   43.6880   34.0070   39.7860 C   0  0  0  0  0  0  0  0  0  0  0  0
   42.3660   34.1780   39.4080 C   0  0  0  0  0  3  0  0  0  0  0  0
   41.4970   34.9840   40.1500 C   0  0  0  0  0  3  0  0  0  0  0  0
   42.0020   35.6180   41.2910 C   0  0  0  0  0  3  0  0  0  0  0  0
   43.3150   35.4630   41.6880 C   0  0  0  0  0  3  0  0  0  0  0  0
   44.1260   34.6570   40.9190 C   0  0  0  0  0  0  0  0  0  0  0  0
   45.3830   33.0130   47.2330 C   0  0  0  0  0  0  0  0  0  0  0  0
   46.0920   32.6760   46.0650 C   0  0  0  0  0  0  0  0  0  0  0  0
   46.5270   31.3350   45.8820 C   0  0  0  0  0  0  0  0  0  0  0  0
   46.2290   30.4460   46.8530 N   0  0  0  0  0  0  0  0  0  0  0  0
   45.5450   30.7920   47.9720 C   0  0  0  0  0  0  0  0  0  0  0  0
   45.1280   32.0600   48.1560 N   0  0  0  0  0  0  0  0  0  0  0  0
   45.0220   34.0080   47.4430 H   0  0  0  0  0  0  0  0  0  0  0  0
   47.0590   31.1090   44.9910 H   0  0  0  0  0  0  0  0  0  0  0  0
   45.3650   29.9900   48.6840 H   0  0  0  0  0  0  0  0  0  0  0  0
  1  7  1  1  0  0  0
  1 26  1  0  0  0  0
  2  1  1  0  0  0  0
  2  8  1  0  0  0  0
  3  2  2  0  0  0  0
  4 10  1  6  0  0  0
  4  5  1  0  0  0  0
  4  3  1  0  0  0  0
  5 11  1  0  0  0  0
  5  6  1  0  0  0  0
  6 13  1  0  0  0  0
  6  1  1  0  0  0  0
  9  3  1  0  0  0  0
 12  5  1  0  0  0  0
 14  6  1  0  0  0  0
 15  4  1  0  0  0  0
 16 15  2  0  0  0  0
 17 16  1  0  0  0  0
 18 17  2  0  0  0  0
 18 19  1  0  0  0  0
 19 24  1  0  0  0  0
 20 19  2  0  0  0  0
 20 21  1  0  0  0  0
 21 22  2  0  0  0  0
 22 23  1  0  0  0  0
 24 15  1  0  0  0  0
 24 23  2  0  0  0  0
 25 31  1  0  0  0  0
 25 30  1  0  0  0  0
 26 25  2  0  0  0  0
 27 26  1  0  0  0  0
 27 28  2  0  0  0  0
 28 29  1  0  0  0  0
 29 30  2  0  0  0  0
 29 33  1  0  0  0  0
 32 27  1  0  0  0  0
M  END
>  <minimizedAffinity>
-6.31392288

>  <minimizedRMSD>
1.64141846

$$$$
