
 OpenBabel03232518303D

 31 35  0  0  0  0  0  0  0  0999 V2000
   44.6000   35.9540   44.4360 C   0  0  0  0  0  0  0  0  0  0  0  0
   45.4770   35.6510   43.4100 C   0  0  0  0  0  0  0  0  0  0  0  0
   46.3520   34.5460   43.5460 C   0  0  0  0  0  0  0  0  0  0  0  0
   46.2400   33.8420   44.7440 N   0  0  0  0  0  0  0  0  0  0  0  0
   45.3770   34.1750   45.6990 C   0  0  0  0  0  0  0  0  0  0  0  0
   44.5650   35.2240   45.5460 N   0  0  0  0  0  0  0  0  0  0  0  0
   43.9380   36.8010   44.3230 H   0  0  0  0  0  0  0  0  0  0  0  0
   45.4320   36.2350   42.5340 H   0  0  0  0  0  0  0  0  0  0  0  0
   47.2730   34.0110   42.6040 C   0  0  0  0  0  0  0  0  0  0  0  0
   48.6060   33.9080   43.0340 C   0  0  0  0  0  0  0  0  0  0  0  0
   49.6450   33.4270   42.2720 C   0  0  0  0  0  0  0  0  0  0  0  0
   49.4000   33.0050   40.9860 C   0  0  0  0  0  0  0  0  0  0  0  0
   48.1200   33.0750   40.4870 C   0  0  0  0  0  0  0  0  0  0  0  0
   47.8380   32.6960   39.1930 C   0  0  0  0  0  0  0  0  0  0  0  0
   46.5530   32.7940   38.6510 C   0  0  0  0  0  0  0  0  0  0  0  0
   45.5670   33.3040   39.5060 C   0  0  0  0  0  0  0  0  0  0  0  0
   45.8940   33.6610   40.7670 C   0  0  0  0  0  0  0  0  0  0  0  0
   47.1460   33.5680   41.3150 C   0  0  0  0  0  0  0  0  0  0  0  0
   45.3170   33.1980   47.1910 S   0  0  0  0  0  0  0  0  0  0  0  0
   49.0310   30.2250   48.3390 N   0  0  0  0  0  0  0  0  0  0  0  0
   48.9200   31.3490   49.0670 C   0  0  0  0  0  0  0  0  0  0  0  0
   47.8750   32.0660   48.6550 N   0  0  0  0  0  0  0  0  0  0  0  0
   47.2690   31.4190   47.6340 C   0  0  0  0  0  0  0  0  0  0  0  0
   46.1630   31.6510   46.8080 C   0  0  0  0  0  0  0  0  0  0  0  0
   45.8460   30.7610   45.8650 N   0  0  0  0  0  0  0  0  0  0  0  0
   46.6220   29.6460   45.7400 C   0  0  0  0  0  0  0  0  0  0  0  0
   47.7040   29.3740   46.5160 N   0  0  0  0  0  0  0  0  0  0  0  0
   48.0060   30.2790   47.4580 C   0  0  0  0  0  0  0  0  0  0  0  0
   49.7790   29.5110   48.4870 H   0  0  0  0  0  0  0  0  0  0  0  0
   49.5820   31.6470   49.8830 H   0  0  0  0  0  0  0  0  0  0  0  0
   46.3300   28.9540   44.9690 H   0  0  0  0  0  0  0  0  0  0  0  0
  1  6  1  0  0  0  0
  2  3  1  0  0  0  0
  2  1  2  0  0  0  0
  3  4  2  0  0  0  0
  4  5  1  0  0  0  0
  5 19  1  0  0  0  0
  6  5  2  0  0  0  0
  7  1  1  0  0  0  0
  8  2  1  0  0  0  0
  9 10  1  0  0  0  0
  9  3  1  0  0  0  0
 11 10  2  0  0  0  0
 12 11  1  0  0  0  0
 13 12  2  0  0  0  0
 13 18  1  0  0  0  0
 14 13  1  0  0  0  0
 15 14  2  0  0  0  0
 15 16  1  0  0  0  0
 16 17  2  0  0  0  0
 17 18  1  0  0  0  0
 18  9  2  0  0  0  0
 20 29  1  0  0  0  0
 20 21  1  0  0  0  0
 21 30  1  0  0  0  0
 22 21  2  0  0  0  0
 23 22  1  0  0  0  0
 24 19  1  0  0  0  0
 24 23  2  0  0  0  0
 25 24  1  0  0  0  0
 26 25  2  0  0  0  0
 26 27  1  0  0  0  0
 27 28  2  0  0  0  0
 28 23  1  0  0  0  0
 28 20  1  0  0  0  0
 31 26  1  0  0  0  0
M  END
>  <minimizedAffinity>
-6.121696

>  <minimizedRMSD>
0.839936018

$$$$
