
 OpenBabel03232519453D

 48 52  0  0  0  0  0  0  0  0999 V2000
   46.4170   34.3690   42.0480 N   0  0  0  0  0  0  0  0  0  0  0  0
   47.5980   35.0850   41.9150 C   0  0  0  0  0  0  0  0  0  0  0  0
   48.3300   35.0330   40.7630 C   0  0  0  0  0  0  0  0  0  0  0  0
   47.8560   34.2360   39.7200 C   0  0  0  0  0  0  0  0  0  0  0  0
   48.5050   34.1790   38.6600 O   0  0  0  0  0  0  0  0  0  0  0  0
   46.7080   33.5650   39.9120 N   0  0  0  0  0  0  0  0  0  0  0  0
   46.0020   33.6320   41.0510 C   0  0  0  0  0  0  0  0  0  0  0  0
   44.9610   33.0590   41.2780 O   0  0  0  0  0  0  0  0  0  0  0  0
   48.0140   35.7200   42.6910 H   0  0  0  0  0  0  0  0  0  0  0  0
   49.2540   35.5730   40.6160 H   0  0  0  0  0  0  0  0  0  0  0  0
   46.1890   32.7250   38.8930 C   0  0  0  0  0  0  0  0  0  0  0  0
   45.2900   33.1740   37.9310 C   0  0  0  0  0  0  0  0  0  0  0  0
   44.8280   32.2860   36.9770 C   0  0  0  0  0  0  0  0  0  0  0  0
   45.2380   30.9730   36.9560 C   0  0  0  0  0  0  0  0  0  0  0  0
   46.1170   30.5770   37.9130 C   0  0  0  0  0  0  0  0  0  0  0  0
   46.6300   31.4250   38.9170 C   0  0  0  0  0  0  0  0  0  0  0  0
   45.0250   34.2190   38.0200 H   0  0  0  0  0  0  0  0  0  0  0  0
   44.1350   32.7290   36.2720 H   0  0  0  0  0  0  0  0  0  0  0  0
   44.8570   30.3170   36.1990 H   0  0  0  0  0  0  0  0  0  0  0  0
   46.4210   29.5250   37.8680 H   0  0  0  0  0  0  0  0  0  0  0  0
   47.6010   30.8810   39.9140 C   0  0  0  0  0  0  0  0  0  0  0  0
   47.7250   29.7940   39.6090 H   0  0  0  0  0  0  0  0  0  0  0  0
   48.9380   31.5270   39.9150 C   0  0  0  0  0  0  0  0  0  0  0  0
   49.4120   31.7190   38.9610 H   0  0  0  0  0  0  0  0  0  0  0  0
   49.2370   32.1000   40.8070 H   0  0  0  0  0  0  0  0  0  0  0  0
   49.6250   30.6280   40.1980 H   0  0  0  0  0  0  0  0  0  0  0  0
   47.0900   30.9130   41.3210 C   0  0  0  0  0  0  0  0  0  0  0  0
   46.0700   30.6360   41.4960 H   0  0  0  0  0  0  0  0  0  0  0  0
   47.5790   29.9630   41.7810 H   0  0  0  0  0  0  0  0  0  0  0  0
   47.6080   31.6030   42.0120 H   0  0  0  0  0  0  0  0  0  0  0  0
   44.4840   35.9460   44.7850 C   0  0  0  0  0  0  0  0  0  0  0  0
   45.0560   35.7220   43.5050 C   0  0  0  0  0  0  0  0  0  0  0  0
   45.8320   34.5870   43.3460 C   0  0  0  0  0  0  0  0  0  0  0  0
   46.0230   33.7410   44.3880 N   0  0  0  0  0  0  0  0  0  0  0  0
   45.4640   33.9830   45.6010 C   0  0  0  0  0  0  0  0  0  0  0  0
   44.7200   35.0490   45.7910 N   0  0  0  0  0  0  0  0  0  0  0  0
   43.8740   36.7800   45.0150 H   0  0  0  0  0  0  0  0  0  0  0  0
   44.8640   36.4290   42.7240 H   0  0  0  0  0  0  0  0  0  0  0  0
   45.7900   32.9080   46.5410 C   0  0  0  0  0  0  0  0  0  0  0  0
   45.2630   32.8470   47.8180 C   0  0  0  0  0  0  0  0  0  0  0  0
   45.5150   31.8600   48.7370 C   0  0  0  0  0  0  0  0  0  0  0  0
   46.3620   30.8610   48.3350 C   0  0  0  0  0  0  0  0  0  0  0  0
   46.9700   30.7860   47.0740 C   0  0  0  0  0  0  0  0  0  0  0  0
   47.7760   29.7200   46.7780 C   0  0  0  0  0  0  0  0  0  0  0  0
   48.2740   29.7610   45.4730 C   0  0  0  0  0  0  0  0  0  0  0  0
   47.9680   30.7710   44.6190 C   0  0  0  0  0  0  0  0  0  0  0  0
   47.1340   31.8400   44.9850 C   0  0  0  0  0  0  0  0  0  0  0  0
   46.6130   31.8330   46.3030 C   0  0  0  0  0  0  0  0  0  0  0  0
  1 33  1  0  0  0  0
  2  1  1  0  0  0  0
  2  9  1  0  0  0  0
  3  2  2  0  0  0  0
  4  6  1  0  0  0  0
  4  3  1  0  0  0  0
  5  4  2  0  0  0  0
  6  7  1  0  0  0  0
  7  8  2  0  0  0  0
  7  1  1  0  0  0  0
 10  3  1  0  0  0  0
 11 16  1  0  0  0  0
 11  6  1  0  0  0  0
 12 17  1  0  0  0  0
 12 11  2  0  0  0  0
 13 12  1  0  0  0  0
 14 13  2  0  0  0  0
 14 15  1  0  0  0  0
 15 16  2  0  0  0  0
 16 21  1  0  0  0  0
 18 13  1  0  0  0  0
 19 14  1  0  0  0  0
 20 15  1  0  0  0  0
 21 23  1  0  0  0  0
 21 27  1  0  0  0  0
 22 21  1  0  0  0  0
 23 26  1  0  0  0  0
 23 25  1  0  0  0  0
 24 23  1  0  0  0  0
 27 28  1  0  0  0  0
 27 29  1  0  0  0  0
 27 30  1  0  0  0  0
 31 37  1  0  0  0  0
 31 36  1  0  0  0  0
 32 31  2  0  0  0  0
 33 32  1  0  0  0  0
 33 34  2  0  0  0  0
 34 35  1  0  0  0  0
 35 36  2  0  0  0  0
 35 39  1  0  0  0  0
 38 32  1  0  0  0  0
 39 40  1  0  0  0  0
 40 41  2  0  0  0  0
 42 41  1  0  0  0  0
 43 42  2  0  0  0  0
 44 43  1  0  0  0  0
 45 44  2  0  0  0  0
 46 47  2  0  0  0  0
 46 45  1  0  0  0  0
 47 48  1  0  0  0  0
 48 39  2  0  0  0  0
 48 43  1  0  0  0  0
M  END
>  <minimizedAffinity>
-7.21706533

>  <minimizedRMSD>
0.401164204

$$$$
