
 OpenBabel03232520513D

 33 36  0  0  1  0  0  0  0  0999 V2000
   41.9100   34.0960   40.5140 C   0  0  2  0  0  0  0  0  0  0  0  0
   42.9820   33.2350   39.8840 C   0  0  0  0  0  0  0  0  0  0  0  0
   44.3730   33.6360   40.0630 C   0  0  0  0  0  0  0  0  0  0  0  0
   44.6970   34.8450   40.8480 C   0  0  1  0  0  0  0  0  0  0  0  0
   43.5540   35.6530   41.2890 C   0  0  0  0  0  0  0  0  0  0  0  0
   42.4260   34.7690   41.7450 C   0  0  0  0  0  0  0  0  0  0  0  0
   41.7350   34.8800   39.7310 H   0  0  0  0  0  0  0  0  0  0  0  0
   42.9030   32.3300   39.2970 H   0  0  0  0  0  0  0  0  0  0  0  0
   45.1280   33.0360   39.6220 H   0  0  0  0  0  0  0  0  0  0  0  0
   45.3220   35.4530   40.1420 H   0  0  0  0  0  0  0  0  0  0  0  0
   43.1960   36.2470   40.4240 H   0  0  0  0  0  0  0  0  0  0  0  0
   43.7850   36.3070   42.1340 H   0  0  0  0  0  0  0  0  0  0  0  0
   41.6250   35.4820   42.0930 H   0  0  0  0  0  0  0  0  0  0  0  0
   42.7250   34.0810   42.5420 H   0  0  0  0  0  0  0  0  0  0  0  0
   45.5400   34.3470   41.9940 C   0  0  0  0  0  0  0  0  0  0  0  0
   44.9120   33.6600   43.0350 C   0  0  0  0  0  3  0  0  0  0  0  0
   45.5260   33.1310   44.1530 C   0  0  0  0  0  3  0  0  0  0  0  0
   46.8890   33.3080   44.2340 C   0  0  0  0  0  3  0  0  0  0  0  0
   47.5560   33.9780   43.2340 C   0  0  0  0  0  0  0  0  0  0  0  0
   48.9260   34.1560   43.3180 C   0  0  0  0  0  3  0  0  0  0  0  0
   49.6330   34.8350   42.3200 C   0  0  0  0  0  3  0  0  0  0  0  0
   48.9140   35.3320   41.2280 C   0  0  0  0  0  3  0  0  0  0  0  0
   47.5480   35.1670   41.1210 C   0  0  0  0  0  3  0  0  0  0  0  0
   46.9030   34.4900   42.1340 C   0  0  0  0  0  0  0  0  0  0  0  0
   39.4750   33.7370   40.2400 C   0  0  0  0  0  0  0  0  0  0  0  0
   40.6980   33.2700   40.7560 C   0  0  0  0  0  0  0  0  0  0  0  0
   40.7190   32.0500   41.4870 C   0  0  0  0  0  0  0  0  0  0  0  0
   39.5470   31.4000   41.6460 N   0  0  0  0  0  0  0  0  0  0  0  0
   38.3800   31.8690   41.1400 C   0  0  0  0  0  0  0  0  0  0  0  0
   38.3470   33.0220   40.4460 N   0  0  0  0  0  0  0  0  0  0  0  0
   39.3790   34.6530   39.6770 H   0  0  0  0  0  0  0  0  0  0  0  0
   41.6560   31.7210   41.8640 H   0  0  0  0  0  0  0  0  0  0  0  0
   37.5000   31.2580   41.3330 H   0  0  0  0  0  0  0  0  0  0  0  0
  1  7  1  6  0  0  0
  1 26  1  0  0  0  0
  1  6  1  0  0  0  0
  2  3  2  0  0  0  0
  2  1  1  0  0  0  0
  3  4  1  0  0  0  0
  4 10  1  6  0  0  0
  4  5  1  0  0  0  0
  4 15  1  0  0  0  0
  5  6  1  0  0  0  0
  5 12  1  0  0  0  0
  6 13  1  0  0  0  0
  6 14  1  0  0  0  0
  8  2  1  0  0  0  0
  9  3  1  0  0  0  0
 11  5  1  0  0  0  0
 15 24  2  0  0  0  0
 15 16  1  0  0  0  0
 16 17  2  0  0  0  0
 17 18  1  0  0  0  0
 19 20  1  0  0  0  0
 19 18  2  0  0  0  0
 21 20  2  0  0  0  0
 22 21  1  0  0  0  0
 23 22  2  0  0  0  0
 23 24  1  0  0  0  0
 24 19  1  0  0  0  0
 25 30  2  0  0  0  0
 25 26  1  0  0  0  0
 26 27  2  0  0  0  0
 27 28  1  0  0  0  0
 27 32  1  0  0  0  0
 29 33  1  0  0  0  0
 29 28  2  0  0  0  0
 30 29  1  0  0  0  0
 31 25  1  0  0  0  0
M  END
>  <minimizedAffinity>
-6.15066195

>  <minimizedRMSD>
6.69554186

$$$$
