
 OpenBabel03232519303D

 41 44  0  0  1  0  0  0  0  0999 V2000
   47.4250   34.1860   40.0430 C   0  0  1  0  0  0  0  0  0  0  0  0
   48.5890   34.8900   39.2900 C   0  0  0  0  0  0  0  0  0  0  0  0
   48.4220   34.6030   37.8360 C   0  0  0  0  0  0  0  0  0  0  0  0
   48.7290   33.1460   37.6430 C   0  0  0  0  0  0  0  0  0  0  0  0
   48.6460   32.3290   38.8850 C   0  0  0  0  0  0  0  0  0  0  0  0
   47.6260   32.7730   39.9160 C   0  0  2  0  0  0  0  0  0  0  0  0
   46.4740   34.6760   39.8100 H   0  0  0  0  0  0  0  0  0  0  0  0
   49.5090   34.3630   39.6540 H   0  0  0  0  0  0  0  0  0  0  0  0
   48.5760   35.9500   39.5440 H   0  0  0  0  0  0  0  0  0  0  0  0
   47.4600   34.9460   37.4580 H   0  0  0  0  0  0  0  0  0  0  0  0
   49.1840   35.2400   37.2960 H   0  0  0  0  0  0  0  0  0  0  0  0
   49.7080   33.0550   37.1590 H   0  0  0  0  0  0  0  0  0  0  0  0
   47.9850   32.7840   36.8760 H   0  0  0  0  0  0  0  0  0  0  0  0
   48.4200   31.2950   38.5430 H   0  0  0  0  0  0  0  0  0  0  0  0
   49.6930   32.2550   39.2510 H   0  0  0  0  0  0  0  0  0  0  0  0
   48.2850   32.5730   40.8430 H   0  0  0  0  0  0  0  0  0  0  0  0
   46.6740   31.6890   40.0720 C   0  0  0  0  0  0  0  0  0  0  0  0
   46.8790   30.4800   40.7790 C   0  0  0  0  0  0  0  0  0  0  0  0
   46.0350   29.4360   40.9200 C   0  0  0  0  0  0  0  0  0  0  0  0
   44.8190   29.5320   40.3120 C   0  0  0  0  0  0  0  0  0  0  0  0
   44.4810   30.6420   39.5950 C   0  0  0  0  0  0  0  0  0  0  0  0
   43.2380   30.6830   39.0050 C   0  0  0  0  0  0  0  0  0  0  0  0
   42.8570   31.7860   38.2750 C   0  0  0  0  0  0  0  0  0  0  0  0
   43.7380   32.8640   38.1340 C   0  0  0  0  0  0  0  0  0  0  0  0
   44.9540   32.7320   38.7580 C   0  0  0  0  0  0  0  0  0  0  0  0
   45.4030   31.6620   39.5020 C   0  0  0  0  0  0  0  0  0  0  0  0
   47.6060   34.6800   41.5090 C   0  0  0  0  0  0  0  0  0  0  0  0
   47.4270   35.7340   41.6180 H   0  0  0  0  0  0  0  0  0  0  0  0
   48.6680   34.4000   41.8050 H   0  0  0  0  0  0  0  0  0  0  0  0
   46.6820   33.7370   42.2430 C   0  0  0  0  0  0  0  0  0  0  0  0
   45.7950   33.4580   41.5850 H   0  0  0  0  0  0  0  0  0  0  0  0
   47.2030   32.8780   42.6800 H   0  0  0  0  0  0  0  0  0  0  0  0
   45.8500   33.8040   44.5300 C   0  0  0  0  0  0  0  0  0  0  0  0
   45.9860   34.4420   43.2770 C   0  0  0  0  0  0  0  0  0  0  0  0
   45.4270   35.6630   43.0300 C   0  0  0  0  0  0  0  0  0  0  0  0
   44.7400   36.2100   44.0680 N   0  0  0  0  0  0  0  0  0  0  0  0
   44.5960   35.6130   45.2750 C   0  0  0  0  0  0  0  0  0  0  0  0
   45.1570   34.3990   45.5090 N   0  0  0  0  0  0  0  0  0  0  0  0
   46.3120   32.8390   44.6770 H   0  0  0  0  0  0  0  0  0  0  0  0
   45.4280   36.2720   42.1500 H   0  0  0  0  0  0  0  0  0  0  0  0
   44.0370   36.1220   46.0260 H   0  0  0  0  0  0  0  0  0  0  0  0
  1  7  1  6  0  0  0
  1 27  1  0  0  0  0
  2  9  1  0  0  0  0
  2  8  1  0  0  0  0
  2  1  1  0  0  0  0
  3  2  1  0  0  0  0
  4  3  1  0  0  0  0
  4  5  1  0  0  0  0
  5 15  1  0  0  0  0
  5  6  1  0  0  0  0
  6  1  1  0  0  0  0
  6 17  1  0  0  0  0
  6 16  1  1  0  0  0
 10  3  1  0  0  0  0
 11  3  1  0  0  0  0
 12  4  1  0  0  0  0
 13  4  1  0  0  0  0
 14  5  1  0  0  0  0
 17 18  1  0  0  0  0
 18 19  2  0  0  0  0
 20 19  1  0  0  0  0
 21 20  2  0  0  0  0
 22 21  1  0  0  0  0
 23 22  2  0  0  0  0
 24 23  1  0  0  0  0
 24 25  2  0  0  0  0
 25 26  1  0  0  0  0
 26 21  1  0  0  0  0
 26 17  2  0  0  0  0
 27 28  1  0  0  0  0
 27 29  1  0  0  0  0
 27 30  1  0  0  0  0
 30 32  1  0  0  0  0
 30 34  1  0  0  0  0
 31 30  1  0  0  0  0
 33 39  1  0  0  0  0
 33 38  1  0  0  0  0
 34 33  2  0  0  0  0
 35 34  1  0  0  0  0
 35 36  2  0  0  0  0
 36 37  1  0  0  0  0
 37 38  2  0  0  0  0
 37 41  1  0  0  0  0
 40 35  1  0  0  0  0
M  END
>  <minimizedAffinity>
-4.60897636

>  <minimizedRMSD>
1.28275526

$$$$
