
 OpenBabel03232520583D

 38 41  0  0  1  0  0  0  0  0999 V2000
   45.6790   32.7760   47.6530 C   0  0  0  0  0  0  0  0  0  0  0  0
   45.8380   32.4680   46.3400 C   0  0  0  0  0  0  0  0  0  0  0  0
   45.7380   31.1190   45.9790 C   0  0  0  0  0  0  0  0  0  0  0  0
   45.5060   30.1890   46.9010 N   0  0  0  0  0  0  0  0  0  0  0  0
   45.3530   30.5230   48.2260 C   0  0  0  0  0  0  0  0  0  0  0  0
   45.4370   31.8060   48.5930 N   0  0  0  0  0  0  0  0  0  0  0  0
   45.1580   29.4980   49.2050 N   0  0  0  0  0  0  0  0  0  0  0  0
   45.7220   33.7540   48.0630 H   0  0  0  0  0  0  0  0  0  0  0  0
   45.9690   29.1030   49.7180 H   0  0  0  0  0  0  0  0  0  0  0  0
   44.1950   29.1460   49.4040 H   0  0  0  0  0  0  0  0  0  0  0  0
   46.1180   33.4900   45.3700 C   0  0  2  0  0  0  0  0  0  0  0  0
   45.0000   34.5680   45.5020 C   0  0  0  0  0  0  0  0  0  0  0  0
   44.8460   35.4840   44.4090 C   0  0  0  0  0  0  0  0  0  0  0  0
   45.6800   35.4100   43.2340 C   0  0  1  0  0  0  0  0  0  0  0  0
   46.7940   34.4440   43.2870 C   0  0  0  0  0  0  0  0  0  0  0  0
   46.3520   33.1850   43.9950 C   0  0  0  0  0  0  0  0  0  0  0  0
   46.9370   34.1410   45.8330 H   0  0  0  0  0  0  0  0  0  0  0  0
   44.2850   34.7750   46.2890 H   0  0  0  0  0  0  0  0  0  0  0  0
   44.0720   36.2400   44.4850 H   0  0  0  0  0  0  0  0  0  0  0  0
   46.1040   36.4180   43.0340 H   0  0  0  0  0  0  0  0  0  0  0  0
   47.1150   34.2050   42.2280 H   0  0  0  0  0  0  0  0  0  0  0  0
   47.7070   34.8130   43.8170 H   0  0  0  0  0  0  0  0  0  0  0  0
   45.4600   32.8200   43.4650 H   0  0  0  0  0  0  0  0  0  0  0  0
   47.2100   32.5530   43.7260 H   0  0  0  0  0  0  0  0  0  0  0  0
   44.7710   35.1040   42.0140 C   0  0  0  0  0  0  0  0  0  0  0  0
   43.7900   34.2040   42.3020 F   0  0  0  0  0  0  0  0  0  0  0  0
   44.1260   36.3110   41.7140 F   0  0  0  0  0  0  0  0  0  0  0  0
   45.5510   34.7710   40.9220 F   0  0  0  0  0  0  0  0  0  0  0  0
   45.8420   30.4300   44.7090 C   0  0  0  0  0  0  0  0  0  0  0  0
   44.8810   30.2120   43.6930 C   0  0  0  0  0  3  0  0  0  0  0  0
   45.1960   29.4450   42.5840 C   0  0  0  0  0  3  0  0  0  0  0  0
   46.4400   28.8900   42.4510 C   0  0  0  0  0  3  0  0  0  0  0  0
   47.4150   29.0540   43.3830 C   0  0  0  0  0  0  0  0  0  0  0  0
   48.6650   28.4930   43.2280 C   0  0  0  0  0  3  0  0  0  0  0  0
   49.6370   28.6820   44.1820 C   0  0  0  0  0  3  0  0  0  0  0  0
   49.3870   29.4320   45.3070 C   0  0  0  0  0  3  0  0  0  0  0  0
   48.1260   29.9710   45.4150 C   0  0  0  0  0  3  0  0  0  0  0  0
   47.0950   29.8290   44.5060 C   0  0  0  0  0  0  0  0  0  0  0  0
  1  8  1  0  0  0  0
  1  6  1  0  0  0  0
  2  1  2  0  0  0  0
  3  2  1  0  0  0  0
  3  4  2  0  0  0  0
  4  5  1  0  0  0  0
  5  6  2  0  0  0  0
  5  7  1  0  0  0  0
  7 10  1  0  0  0  0
  7  9  1  0  0  0  0
 11 12  1  0  0  0  0
 11 17  1  1  0  0  0
 11  2  1  0  0  0  0
 12 18  1  0  0  0  0
 13 19  1  0  0  0  0
 13 12  2  0  0  0  0
 14 20  1  6  0  0  0
 14 15  1  0  0  0  0
 14 13  1  0  0  0  0
 15 22  1  0  0  0  0
 15 16  1  0  0  0  0
 16 11  1  0  0  0  0
 21 15  1  0  0  0  0
 23 16  1  0  0  0  0
 24 16  1  0  0  0  0
 25 26  1  0  0  0  0
 25 14  1  0  0  0  0
 27 25  1  0  0  0  0
 28 25  1  0  0  0  0
 29  3  1  0  0  0  0
 30 29  2  0  0  0  0
 31 30  1  0  0  0  0
 32 31  2  0  0  0  0
 32 33  1  0  0  0  0
 33 38  1  0  0  0  0
 34 33  2  0  0  0  0
 34 35  1  0  0  0  0
 35 36  2  0  0  0  0
 36 37  1  0  0  0  0
 38 29  1  0  0  0  0
 38 37  2  0  0  0  0
M  END
>  <minimizedAffinity>
-5.78260517

>  <minimizedRMSD>
1.56823862

$$$$
