
 OpenBabel03232520543D

 36 39  0  0  1  0  0  0  0  0999 V2000
   46.2210   32.7840   44.3380 C   0  0  2  0  0  0  0  0  0  0  0  0
   45.4600   33.8270   45.1500 C   0  0  0  0  0  0  0  0  0  0  0  0
   45.2690   35.1240   44.5550 C   0  0  0  0  0  0  0  0  0  0  0  0
   45.7880   35.3980   43.2170 C   0  0  1  0  0  0  0  0  0  0  0  0
   46.5630   34.3490   42.5570 C   0  0  0  0  0  0  0  0  0  0  0  0
   45.9990   32.9970   42.8830 C   0  0  0  0  0  0  0  0  0  0  0  0
   47.2970   33.0420   44.5660 H   0  0  0  0  0  0  0  0  0  0  0  0
   44.9830   33.8870   46.1190 H   0  0  0  0  0  0  0  0  0  0  0  0
   44.7560   35.9270   45.0280 H   0  0  0  0  0  0  0  0  0  0  0  0
   46.3970   36.3300   43.2720 H   0  0  0  0  0  0  0  0  0  0  0  0
   47.6500   34.3690   42.8240 H   0  0  0  0  0  0  0  0  0  0  0  0
   46.5200   34.5190   41.4430 H   0  0  0  0  0  0  0  0  0  0  0  0
   44.8960   33.0120   42.6840 H   0  0  0  0  0  0  0  0  0  0  0  0
   46.5100   32.2140   42.3180 H   0  0  0  0  0  0  0  0  0  0  0  0
   45.6410   31.2780   46.1980 C   0  0  0  0  0  0  0  0  0  0  0  0
   45.9150   31.4620   44.8580 C   0  0  0  0  0  0  0  0  0  0  0  0
   45.8840   30.3170   44.0670 C   0  0  0  0  0  0  0  0  0  0  0  0
   45.6000   29.1180   44.6070 N   0  0  0  0  0  0  0  0  0  0  0  0
   45.3370   28.9530   45.9000 C   0  0  0  0  0  0  0  0  0  0  0  0
   45.3630   30.0400   46.6740 N   0  0  0  0  0  0  0  0  0  0  0  0
   45.6400   32.1090   46.9250 H   0  0  0  0  0  0  0  0  0  0  0  0
   46.0850   30.3600   43.0080 H   0  0  0  0  0  0  0  0  0  0  0  0
   45.0110   27.7560   46.6650 C   0  0  0  0  0  0  0  0  0  0  0  0
   45.9090   27.1170   47.5260 C   0  0  0  0  0  0  0  0  0  0  0  0
   45.6220   25.9950   48.2550 C   0  0  0  0  0  0  0  0  0  0  0  0
   44.3800   25.4240   48.1640 C   0  0  0  0  0  0  0  0  0  0  0  0
   43.4510   25.9950   47.3410 C   0  0  0  0  0  0  0  0  0  0  0  0
   42.2210   25.3800   47.2900 C   0  0  0  0  0  0  0  0  0  0  0  0
   41.2300   25.8950   46.4840 C   0  0  0  0  0  0  0  0  0  0  0  0
   41.5270   27.0270   45.7530 C   0  0  0  0  0  0  0  0  0  0  0  0
   42.7740   27.5970   45.8470 C   0  0  0  0  0  0  0  0  0  0  0  0
   43.7930   27.1210   46.6340 C   0  0  0  0  0  0  0  0  0  0  0  0
   44.5890   35.8020   42.3410 C   0  0  0  0  0  0  0  0  0  0  0  0
   43.3820   35.4470   42.8940 F   0  0  0  0  0  0  0  0  0  0  0  0
   44.5910   37.1970   42.2470 F   0  0  0  0  0  0  0  0  0  0  0  0
   44.7690   35.3020   41.0580 F   0  0  0  0  0  0  0  0  0  0  0  0
  1  7  1  1  0  0  0
  1 16  1  0  0  0  0
  1  2  1  0  0  0  0
  2  8  1  0  0  0  0
  3  9  1  0  0  0  0
  3  2  2  0  0  0  0
  4 10  1  1  0  0  0
  4  3  1  0  0  0  0
  5 11  1  0  0  0  0
  5  6  1  0  0  0  0
  5  4  1  0  0  0  0
  6  1  1  0  0  0  0
 12  5  1  0  0  0  0
 13  6  1  0  0  0  0
 14  6  1  0  0  0  0
 15 20  1  0  0  0  0
 15 21  1  0  0  0  0
 16 15  2  0  0  0  0
 17 18  2  0  0  0  0
 17 16  1  0  0  0  0
 18 19  1  0  0  0  0
 19 23  1  0  0  0  0
 19 20  2  0  0  0  0
 22 17  1  0  0  0  0
 23 24  1  0  0  0  0
 24 25  2  0  0  0  0
 26 25  1  0  0  0  0
 27 26  2  0  0  0  0
 28 27  1  0  0  0  0
 29 28  2  0  0  0  0
 30 31  2  0  0  0  0
 30 29  1  0  0  0  0
 31 32  1  0  0  0  0
 32 23  2  0  0  0  0
 32 27  1  0  0  0  0
 33 34  1  0  0  0  0
 33  4  1  0  0  0  0
 35 33  1  0  0  0  0
 36 33  1  0  0  0  0
M  END
>  <minimizedAffinity>
-5.514956

>  <minimizedRMSD>
2.70798445

$$$$
