
 OpenBabel03232505183D

 34 37  0  0  1  0  0  0  0  0999 V2000
   46.1770   31.7320   42.9790 N   0  0  0  0  0  0  0  0  0  0  0  0
   46.8580   30.6010   42.3870 C   0  0  0  0  0  0  0  0  0  0  0  0
   48.2460   30.8380   42.8440 C   0  0  0  0  0  0  0  0  0  0  0  0
   48.0910   31.3980   44.2180 C   0  0  0  0  0  0  0  0  0  0  0  0
   46.5860   31.6360   44.3540 C   0  0  2  0  0  0  0  0  0  0  0  0
   46.8600   30.8250   41.2690 H   0  0  0  0  0  0  0  0  0  0  0  0
   46.4030   29.6420   42.4860 H   0  0  0  0  0  0  0  0  0  0  0  0
   49.0280   31.1750   42.2130 H   0  0  0  0  0  0  0  0  0  0  0  0
   48.5940   29.7670   43.0260 H   0  0  0  0  0  0  0  0  0  0  0  0
   48.2680   30.6340   45.0370 H   0  0  0  0  0  0  0  0  0  0  0  0
   48.7460   32.1870   44.5290 H   0  0  0  0  0  0  0  0  0  0  0  0
   46.6020   32.6740   44.8350 H   0  0  0  0  0  0  0  0  0  0  0  0
   45.8870   30.7410   45.2420 C   0  0  0  0  0  0  0  0  0  0  0  0
   45.2950   29.5350   44.8470 C   0  0  0  0  0  0  0  0  0  0  0  0
   44.6560   28.6360   45.6760 C   0  0  0  0  0  0  0  0  0  0  0  0
   44.5710   28.9140   47.0320 C   0  0  0  0  0  0  0  0  0  0  0  0
   45.1300   30.0770   47.4870 C   0  0  0  0  0  0  0  0  0  0  0  0
   45.0190   30.3220   48.8410 C   0  0  0  0  0  0  0  0  0  0  0  0
   45.5330   31.4520   49.3920 C   0  0  0  0  0  0  0  0  0  0  0  0
   46.1700   32.3420   48.5400 C   0  0  0  0  0  0  0  0  0  0  0  0
   46.2600   32.0630   47.1920 C   0  0  0  0  0  0  0  0  0  0  0  0
   45.7500   30.9330   46.6240 C   0  0  0  0  0  0  0  0  0  0  0  0
   45.3370   32.7730   42.4780 C   0  0  0  0  0  0  0  0  0  0  0  0
   45.7600   34.0820   42.1910 C   0  0  0  0  0  0  0  0  0  0  0  0
   44.8320   35.0040   41.7210 C   0  0  0  0  0  0  0  0  0  0  0  0
   43.5560   34.5750   41.5660 N   0  0  0  0  0  0  0  0  0  0  0  0
   43.1750   33.3240   41.8450 C   0  0  0  0  0  0  0  0  0  0  0  0
   44.0590   32.4160   42.3010 N   0  0  0  0  0  0  0  0  0  0  0  0
   45.1890   36.0030   41.5110 H   0  0  0  0  0  0  0  0  0  0  0  0
   42.1350   33.0630   41.6920 H   0  0  0  0  0  0  0  0  0  0  0  0
   47.2020   34.3740   42.4150 C   0  0  0  0  0  0  0  0  0  0  0  0
   47.4690   35.6940   42.0230 F   0  0  0  0  0  0  0  0  0  0  0  0
   48.0390   33.5970   41.6770 F   0  0  0  0  0  0  0  0  0  0  0  0
   47.5590   34.3560   43.7190 F   0  0  0  0  0  0  0  0  0  0  0  0
  1  5  1  0  0  0  0
  2  7  1  0  0  0  0
  2  3  1  0  0  0  0
  2  1  1  0  0  0  0
  3  9  1  0  0  0  0
  3  4  1  0  0  0  0
  4  5  1  0  0  0  0
  4 11  1  0  0  0  0
  4 10  1  0  0  0  0
  5 12  1  1  0  0  0
  5 13  1  0  0  0  0
  6  2  1  0  0  0  0
  8  3  1  0  0  0  0
 13 22  1  0  0  0  0
 14 13  2  0  0  0  0
 14 15  1  0  0  0  0
 15 16  2  0  0  0  0
 16 17  1  0  0  0  0
 17 18  1  0  0  0  0
 18 19  2  0  0  0  0
 20 19  1  0  0  0  0
 21 20  2  0  0  0  0
 22 21  1  0  0  0  0
 22 17  2  0  0  0  0
 23  1  1  0  0  0  0
 24 31  1  0  0  0  0
 24 23  2  0  0  0  0
 25 24  1  0  0  0  0
 26 25  2  0  0  0  0
 26 27  1  0  0  0  0
 27 28  2  0  0  0  0
 28 23  1  0  0  0  0
 29 25  1  0  0  0  0
 30 27  1  0  0  0  0
 31 34  1  0  0  0  0
 32 31  1  0  0  0  0
 33 31  1  0  0  0  0
M  END
>  <minimizedAffinity>
-5.52728605

>  <minimizedRMSD>
4.69639015

$$$$
