
 OpenBabel03232520573D

 36 38  0  0  1  0  0  0  0  0999 V2000
   46.0750   33.6100   45.2720 C   0  0  2  0  0  0  0  0  0  0  0  0
   44.9600   34.7300   45.4970 C   0  0  0  0  0  0  0  0  0  0  0  0
   44.7350   35.6500   44.4090 C   0  0  0  0  0  0  0  0  0  0  0  0
   45.4840   35.5350   43.1760 C   0  0  1  0  0  0  0  0  0  0  0  0
   46.5420   34.5010   43.1290 C   0  0  0  0  0  0  0  0  0  0  0  0
   46.0320   33.2860   43.8910 C   0  0  0  0  0  0  0  0  0  0  0  0
   46.9240   34.2990   45.5720 H   0  0  0  0  0  0  0  0  0  0  0  0
   44.2850   34.9970   46.3050 H   0  0  0  0  0  0  0  0  0  0  0  0
   44.0170   36.4230   44.4700 H   0  0  0  0  0  0  0  0  0  0  0  0
   45.9340   36.5240   42.9190 H   0  0  0  0  0  0  0  0  0  0  0  0
   46.7810   34.2670   42.0910 H   0  0  0  0  0  0  0  0  0  0  0  0
   47.4870   34.8230   43.6180 H   0  0  0  0  0  0  0  0  0  0  0  0
   44.9110   33.2710   43.5870 H   0  0  0  0  0  0  0  0  0  0  0  0
   46.4300   32.4660   43.3670 H   0  0  0  0  0  0  0  0  0  0  0  0
   45.3330   32.9510   47.5420 C   0  0  0  0  0  0  0  0  0  0  0  0
   45.8420   32.6580   46.3110 C   0  0  0  0  0  0  0  0  0  0  0  0
   46.0840   31.3010   46.0670 C   0  0  0  0  0  0  0  0  0  0  0  0
   45.8310   30.3450   46.9800 N   0  0  0  0  0  0  0  0  0  0  0  0
   45.3180   30.6880   48.2120 C   0  0  0  0  0  0  0  0  0  0  0  0
   45.0790   31.9700   48.4720 N   0  0  0  0  0  0  0  0  0  0  0  0
   45.0930   29.6880   49.2080 N   0  0  0  0  0  0  0  0  0  0  0  0
   45.1190   33.9590   47.8160 H   0  0  0  0  0  0  0  0  0  0  0  0
   46.0250   29.4870   49.6590 H   0  0  0  0  0  0  0  0  0  0  0  0
   44.0970   29.4010   49.2550 H   0  0  0  0  0  0  0  0  0  0  0  0
   46.6640   30.5820   44.9410 C   0  0  0  0  0  0  0  0  0  0  0  0
   48.0180   30.5240   44.6700 C   0  0  0  0  0  3  0  0  0  0  0  0
   48.5380   29.9170   43.5470 C   0  0  0  0  0  0  0  0  0  0  0  0
   49.6210   29.8970   43.3760 H   0  0  0  0  0  0  0  0  0  0  0  0
   47.6730   29.3390   42.6490 C   0  0  0  0  0  3  0  0  0  0  0  0
   46.3200   29.3370   42.8150 C   0  0  0  0  0  0  0  0  0  0  0  0
   45.6010   28.9030   42.1470 H   0  0  0  0  0  0  0  0  0  0  0  0
   45.8750   29.9610   43.9590 C   0  0  0  0  0  3  0  0  0  0  0  0
   44.4650   35.2710   42.0370 C   0  0  0  0  0  0  0  0  0  0  0  0
   43.4130   34.4740   42.4340 F   0  0  0  0  0  0  0  0  0  0  0  0
   43.9230   36.5080   41.7030 F   0  0  0  0  0  0  0  0  0  0  0  0
   45.1200   34.8030   40.9130 F   0  0  0  0  0  0  0  0  0  0  0  0
  1  2  1  0  0  0  0
  1  7  1  1  0  0  0
  1 16  1  0  0  0  0
  2  8  1  0  0  0  0
  3  9  1  0  0  0  0
  3  2  2  0  0  0  0
  4 10  1  6  0  0  0
  4  3  1  0  0  0  0
  5  4  1  0  0  0  0
  5 12  1  0  0  0  0
  5  6  1  0  0  0  0
  6  1  1  0  0  0  0
 11  5  1  0  0  0  0
 13  6  1  0  0  0  0
 14  6  1  0  0  0  0
 15 22  1  0  0  0  0
 15 20  1  0  0  0  0
 16 15  2  0  0  0  0
 17 16  1  0  0  0  0
 17 18  2  0  0  0  0
 18 19  1  0  0  0  0
 19 20  2  0  0  0  0
 19 21  1  0  0  0  0
 21 24  1  0  0  0  0
 21 23  1  0  0  0  0
 25 17  1  0  0  0  0
 26 25  1  0  0  0  0
 27 26  2  0  0  0  0
 28 27  1  0  0  0  0
 29 30  2  0  0  0  0
 29 27  1  0  0  0  0
 30 32  1  0  0  0  0
 31 30  1  0  0  0  0
 32 25  2  0  0  0  0
 33 34  1  0  0  0  0
 33  4  1  0  0  0  0
 35 33  1  0  0  0  0
 36 33  1  0  0  0  0
M  END
>  <minimizedAffinity>
-5.69596148

>  <minimizedRMSD>
0.291462123

$$$$
