
 OpenBabel03232520583D

 36 38  0  0  1  0  0  0  0  0999 V2000
   46.0790   33.6070   45.2830 C   0  0  2  0  0  0  0  0  0  0  0  0
   44.9610   34.7230   45.5060 C   0  0  0  0  0  0  0  0  0  0  0  0
   44.7350   35.6440   44.4190 C   0  0  0  0  0  0  0  0  0  0  0  0
   45.4880   35.5340   43.1880 C   0  0  1  0  0  0  0  0  0  0  0  0
   46.5490   34.5030   43.1420 C   0  0  0  0  0  0  0  0  0  0  0  0
   46.0410   33.2850   43.9000 C   0  0  0  0  0  0  0  0  0  0  0  0
   46.9250   34.2980   45.5850 H   0  0  0  0  0  0  0  0  0  0  0  0
   44.2830   34.9860   46.3130 H   0  0  0  0  0  0  0  0  0  0  0  0
   44.0150   36.4150   44.4800 H   0  0  0  0  0  0  0  0  0  0  0  0
   45.9360   36.5250   42.9350 H   0  0  0  0  0  0  0  0  0  0  0  0
   46.7910   34.2720   42.1050 H   0  0  0  0  0  0  0  0  0  0  0  0
   47.4920   34.8270   43.6340 H   0  0  0  0  0  0  0  0  0  0  0  0
   44.9210   33.2670   43.5940 H   0  0  0  0  0  0  0  0  0  0  0  0
   46.4420   32.4670   43.3760 H   0  0  0  0  0  0  0  0  0  0  0  0
   45.3390   32.9420   47.5510 C   0  0  0  0  0  0  0  0  0  0  0  0
   45.8470   32.6520   46.3190 C   0  0  0  0  0  0  0  0  0  0  0  0
   46.0880   31.2950   46.0710 C   0  0  0  0  0  0  0  0  0  0  0  0
   45.8340   30.3370   46.9820 N   0  0  0  0  0  0  0  0  0  0  0  0
   45.3220   30.6780   48.2150 C   0  0  0  0  0  0  0  0  0  0  0  0
   45.0850   31.9580   48.4780 N   0  0  0  0  0  0  0  0  0  0  0  0
   45.0970   29.6750   49.2090 N   0  0  0  0  0  0  0  0  0  0  0  0
   45.1260   33.9490   47.8280 H   0  0  0  0  0  0  0  0  0  0  0  0
   46.0290   29.4720   49.6580 H   0  0  0  0  0  0  0  0  0  0  0  0
   44.1020   29.3890   49.2560 H   0  0  0  0  0  0  0  0  0  0  0  0
   46.6660   30.5790   44.9430 C   0  0  0  0  0  0  0  0  0  0  0  0
   48.0190   30.5180   44.6720 C   0  0  0  0  0  3  0  0  0  0  0  0
   48.5390   29.9150   43.5460 C   0  0  0  0  0  0  0  0  0  0  0  0
   49.6210   29.8930   43.3750 H   0  0  0  0  0  0  0  0  0  0  0  0
   47.6730   29.3430   42.6460 C   0  0  0  0  0  3  0  0  0  0  0  0
   46.3180   29.3440   42.8130 C   0  0  0  0  0  0  0  0  0  0  0  0
   45.5990   28.9120   42.1420 H   0  0  0  0  0  0  0  0  0  0  0  0
   45.8740   29.9640   43.9590 C   0  0  0  0  0  3  0  0  0  0  0  0
   44.4730   35.2690   42.0460 C   0  0  0  0  0  0  0  0  0  0  0  0
   43.4200   34.4720   42.4400 F   0  0  0  0  0  0  0  0  0  0  0  0
   43.9320   36.5050   41.7100 F   0  0  0  0  0  0  0  0  0  0  0  0
   45.1320   34.8000   40.9240 F   0  0  0  0  0  0  0  0  0  0  0  0
  1  2  1  0  0  0  0
  1  7  1  1  0  0  0
  1 16  1  0  0  0  0
  2  8  1  0  0  0  0
  3  9  1  0  0  0  0
  3  2  2  0  0  0  0
  4 10  1  6  0  0  0
  4  3  1  0  0  0  0
  5  4  1  0  0  0  0
  5 12  1  0  0  0  0
  5  6  1  0  0  0  0
  6  1  1  0  0  0  0
 11  5  1  0  0  0  0
 13  6  1  0  0  0  0
 14  6  1  0  0  0  0
 15 22  1  0  0  0  0
 15 20  1  0  0  0  0
 16 15  2  0  0  0  0
 17 16  1  0  0  0  0
 17 18  2  0  0  0  0
 18 19  1  0  0  0  0
 19 20  2  0  0  0  0
 19 21  1  0  0  0  0
 21 24  1  0  0  0  0
 21 23  1  0  0  0  0
 25 17  1  0  0  0  0
 26 25  1  0  0  0  0
 27 26  2  0  0  0  0
 28 27  1  0  0  0  0
 29 30  2  0  0  0  0
 29 27  1  0  0  0  0
 30 32  1  0  0  0  0
 31 30  1  0  0  0  0
 32 25  2  0  0  0  0
 33 34  1  0  0  0  0
 33  4  1  0  0  0  0
 35 33  1  0  0  0  0
 36 33  1  0  0  0  0
M  END
>  <minimizedAffinity>
-5.70473051

>  <minimizedRMSD>
0.679354548

$$$$
