
 OpenBabel03232520583D

 36 38  0  0  1  0  0  0  0  0999 V2000
   46.1100   33.5800   45.3350 C   0  0  2  0  0  0  0  0  0  0  0  0
   44.9700   34.6770   45.5430 C   0  0  0  0  0  0  0  0  0  0  0  0
   44.7470   35.5970   44.4540 C   0  0  0  0  0  0  0  0  0  0  0  0
   45.5230   35.5030   43.2360 C   0  0  1  0  0  0  0  0  0  0  0  0
   46.6010   34.4900   43.2050 C   0  0  0  0  0  0  0  0  0  0  0  0
   46.1010   33.2620   43.9510 C   0  0  0  0  0  0  0  0  0  0  0  0
   46.9390   34.2840   45.6540 H   0  0  0  0  0  0  0  0  0  0  0  0
   44.2740   34.9260   46.3390 H   0  0  0  0  0  0  0  0  0  0  0  0
   44.0130   36.3560   44.5050 H   0  0  0  0  0  0  0  0  0  0  0  0
   45.9580   36.5020   42.9930 H   0  0  0  0  0  0  0  0  0  0  0  0
   46.8640   34.2660   42.1710 H   0  0  0  0  0  0  0  0  0  0  0  0
   47.5300   34.8280   43.7140 H   0  0  0  0  0  0  0  0  0  0  0  0
   44.9860   33.2260   43.6260 H   0  0  0  0  0  0  0  0  0  0  0  0
   46.5240   32.4520   43.4310 H   0  0  0  0  0  0  0  0  0  0  0  0
   45.3730   32.9000   47.6000 C   0  0  0  0  0  0  0  0  0  0  0  0
   45.8760   32.6180   46.3650 C   0  0  0  0  0  0  0  0  0  0  0  0
   46.1100   31.2620   46.1060 C   0  0  0  0  0  0  0  0  0  0  0  0
   45.8550   30.2980   47.0100 N   0  0  0  0  0  0  0  0  0  0  0  0
   45.3480   30.6310   48.2470 C   0  0  0  0  0  0  0  0  0  0  0  0
   45.1170   31.9110   48.5210 N   0  0  0  0  0  0  0  0  0  0  0  0
   45.1210   29.6220   49.2330 N   0  0  0  0  0  0  0  0  0  0  0  0
   45.1650   33.9070   47.8860 H   0  0  0  0  0  0  0  0  0  0  0  0
   46.0540   29.4120   49.6780 H   0  0  0  0  0  0  0  0  0  0  0  0
   44.1240   29.3400   49.2810 H   0  0  0  0  0  0  0  0  0  0  0  0
   46.6820   30.5520   44.9710 C   0  0  0  0  0  0  0  0  0  0  0  0
   48.0360   30.4810   44.7000 C   0  0  0  0  0  3  0  0  0  0  0  0
   48.5490   29.8840   43.5680 C   0  0  0  0  0  0  0  0  0  0  0  0
   49.6320   29.8540   43.3980 H   0  0  0  0  0  0  0  0  0  0  0  0
   47.6790   29.3280   42.6620 C   0  0  0  0  0  3  0  0  0  0  0  0
   46.3250   29.3400   42.8290 C   0  0  0  0  0  0  0  0  0  0  0  0
   45.6020   28.9230   42.1530 H   0  0  0  0  0  0  0  0  0  0  0  0
   45.8860   29.9540   43.9800 C   0  0  0  0  0  3  0  0  0  0  0  0
   44.5310   35.2240   42.0760 C   0  0  0  0  0  0  0  0  0  0  0  0
   43.4970   34.3910   42.4450 F   0  0  0  0  0  0  0  0  0  0  0  0
   43.9580   36.4490   41.7500 F   0  0  0  0  0  0  0  0  0  0  0  0
   45.2190   34.7910   40.9570 F   0  0  0  0  0  0  0  0  0  0  0  0
  1  2  1  0  0  0  0
  1  7  1  1  0  0  0
  1 16  1  0  0  0  0
  2  8  1  0  0  0  0
  3  9  1  0  0  0  0
  3  2  2  0  0  0  0
  4 10  1  6  0  0  0
  4  3  1  0  0  0  0
  5  4  1  0  0  0  0
  5 12  1  0  0  0  0
  5  6  1  0  0  0  0
  6  1  1  0  0  0  0
 11  5  1  0  0  0  0
 13  6  1  0  0  0  0
 14  6  1  0  0  0  0
 15 22  1  0  0  0  0
 15 20  1  0  0  0  0
 16 15  2  0  0  0  0
 17 16  1  0  0  0  0
 17 18  2  0  0  0  0
 18 19  1  0  0  0  0
 19 20  2  0  0  0  0
 19 21  1  0  0  0  0
 21 24  1  0  0  0  0
 21 23  1  0  0  0  0
 25 17  1  0  0  0  0
 26 25  1  0  0  0  0
 27 26  2  0  0  0  0
 28 27  1  0  0  0  0
 29 30  2  0  0  0  0
 29 27  1  0  0  0  0
 30 32  1  0  0  0  0
 31 30  1  0  0  0  0
 32 25  2  0  0  0  0
 33 34  1  0  0  0  0
 33  4  1  0  0  0  0
 35 33  1  0  0  0  0
 36 33  1  0  0  0  0
M  END
>  <minimizedAffinity>
-5.71933937

>  <minimizedRMSD>
0.234070048

$$$$
