
 OpenBabel03232520583D

 36 38  0  0  1  0  0  0  0  0999 V2000
   46.0790   33.6080   45.2810 C   0  0  2  0  0  0  0  0  0  0  0  0
   44.9600   34.7240   45.5050 C   0  0  0  0  0  0  0  0  0  0  0  0
   44.7350   35.6450   44.4180 C   0  0  0  0  0  0  0  0  0  0  0  0
   45.4880   35.5340   43.1860 C   0  0  1  0  0  0  0  0  0  0  0  0
   46.5490   34.5030   43.1410 C   0  0  0  0  0  0  0  0  0  0  0  0
   46.0400   33.2860   43.8990 C   0  0  0  0  0  0  0  0  0  0  0  0
   46.9250   34.2980   45.5840 H   0  0  0  0  0  0  0  0  0  0  0  0
   44.2830   34.9880   46.3120 H   0  0  0  0  0  0  0  0  0  0  0  0
   44.0150   36.4170   44.4780 H   0  0  0  0  0  0  0  0  0  0  0  0
   45.9360   36.5250   42.9330 H   0  0  0  0  0  0  0  0  0  0  0  0
   46.7900   34.2710   42.1030 H   0  0  0  0  0  0  0  0  0  0  0  0
   47.4910   34.8270   43.6320 H   0  0  0  0  0  0  0  0  0  0  0  0
   44.9200   33.2680   43.5930 H   0  0  0  0  0  0  0  0  0  0  0  0
   46.4400   32.4670   43.3750 H   0  0  0  0  0  0  0  0  0  0  0  0
   45.3380   32.9430   47.5500 C   0  0  0  0  0  0  0  0  0  0  0  0
   45.8460   32.6530   46.3180 C   0  0  0  0  0  0  0  0  0  0  0  0
   46.0860   31.2960   46.0710 C   0  0  0  0  0  0  0  0  0  0  0  0
   45.8330   30.3380   46.9820 N   0  0  0  0  0  0  0  0  0  0  0  0
   45.3210   30.6790   48.2150 C   0  0  0  0  0  0  0  0  0  0  0  0
   45.0840   31.9600   48.4780 N   0  0  0  0  0  0  0  0  0  0  0  0
   45.0960   29.6770   49.2090 N   0  0  0  0  0  0  0  0  0  0  0  0
   45.1260   33.9510   47.8270 H   0  0  0  0  0  0  0  0  0  0  0  0
   46.0280   29.4740   49.6580 H   0  0  0  0  0  0  0  0  0  0  0  0
   44.1000   29.3910   49.2560 H   0  0  0  0  0  0  0  0  0  0  0  0
   46.6640   30.5790   44.9430 C   0  0  0  0  0  0  0  0  0  0  0  0
   48.0190   30.5190   44.6720 C   0  0  0  0  0  3  0  0  0  0  0  0
   48.5380   29.9140   43.5490 C   0  0  0  0  0  0  0  0  0  0  0  0
   49.6220   29.8910   43.3780 H   0  0  0  0  0  0  0  0  0  0  0  0
   47.6730   29.3420   42.6470 C   0  0  0  0  0  3  0  0  0  0  0  0
   46.3190   29.3440   42.8120 C   0  0  0  0  0  0  0  0  0  0  0  0
   45.5990   28.9130   42.1420 H   0  0  0  0  0  0  0  0  0  0  0  0
   45.8750   29.9640   43.9580 C   0  0  0  0  0  3  0  0  0  0  0  0
   44.4720   35.2690   42.0450 C   0  0  0  0  0  0  0  0  0  0  0  0
   43.4200   34.4720   42.4390 F   0  0  0  0  0  0  0  0  0  0  0  0
   43.9310   36.5060   41.7090 F   0  0  0  0  0  0  0  0  0  0  0  0
   45.1310   34.8000   40.9230 F   0  0  0  0  0  0  0  0  0  0  0  0
  1  2  1  0  0  0  0
  1  7  1  1  0  0  0
  1 16  1  0  0  0  0
  2  8  1  0  0  0  0
  3  9  1  0  0  0  0
  3  2  2  0  0  0  0
  4 10  1  6  0  0  0
  4  3  1  0  0  0  0
  5  4  1  0  0  0  0
  5 12  1  0  0  0  0
  5  6  1  0  0  0  0
  6  1  1  0  0  0  0
 11  5  1  0  0  0  0
 13  6  1  0  0  0  0
 14  6  1  0  0  0  0
 15 22  1  0  0  0  0
 15 20  1  0  0  0  0
 16 15  2  0  0  0  0
 17 16  1  0  0  0  0
 17 18  2  0  0  0  0
 18 19  1  0  0  0  0
 19 20  2  0  0  0  0
 19 21  1  0  0  0  0
 21 24  1  0  0  0  0
 21 23  1  0  0  0  0
 25 17  1  0  0  0  0
 26 25  1  0  0  0  0
 27 26  2  0  0  0  0
 28 27  1  0  0  0  0
 29 30  2  0  0  0  0
 29 27  1  0  0  0  0
 30 32  1  0  0  0  0
 31 30  1  0  0  0  0
 32 25  2  0  0  0  0
 33 34  1  0  0  0  0
 33  4  1  0  0  0  0
 35 33  1  0  0  0  0
 36 33  1  0  0  0  0
M  END
>  <minimizedAffinity>
-5.70378113

>  <minimizedRMSD>
0.536595345

$$$$
