
 OpenBabel03232520583D

 36 38  0  0  1  0  0  0  0  0999 V2000
   46.1100   33.5810   45.3340 C   0  0  2  0  0  0  0  0  0  0  0  0
   44.9690   34.6770   45.5430 C   0  0  0  0  0  0  0  0  0  0  0  0
   44.7470   35.5980   44.4540 C   0  0  0  0  0  0  0  0  0  0  0  0
   45.5220   35.5040   43.2360 C   0  0  1  0  0  0  0  0  0  0  0  0
   46.6010   34.4920   43.2050 C   0  0  0  0  0  0  0  0  0  0  0  0
   46.1010   33.2630   43.9510 C   0  0  0  0  0  0  0  0  0  0  0  0
   46.9390   34.2850   45.6540 H   0  0  0  0  0  0  0  0  0  0  0  0
   44.2740   34.9270   46.3390 H   0  0  0  0  0  0  0  0  0  0  0  0
   44.0120   36.3570   44.5050 H   0  0  0  0  0  0  0  0  0  0  0  0
   45.9580   36.5030   42.9930 H   0  0  0  0  0  0  0  0  0  0  0  0
   46.8640   34.2670   42.1710 H   0  0  0  0  0  0  0  0  0  0  0  0
   47.5290   34.8300   43.7130 H   0  0  0  0  0  0  0  0  0  0  0  0
   44.9860   33.2270   43.6260 H   0  0  0  0  0  0  0  0  0  0  0  0
   46.5240   32.4530   43.4310 H   0  0  0  0  0  0  0  0  0  0  0  0
   45.3730   32.9010   47.6000 C   0  0  0  0  0  0  0  0  0  0  0  0
   45.8760   32.6190   46.3640 C   0  0  0  0  0  0  0  0  0  0  0  0
   46.1100   31.2630   46.1050 C   0  0  0  0  0  0  0  0  0  0  0  0
   45.8550   30.2990   47.0090 N   0  0  0  0  0  0  0  0  0  0  0  0
   45.3480   30.6320   48.2470 C   0  0  0  0  0  0  0  0  0  0  0  0
   45.1180   31.9120   48.5200 N   0  0  0  0  0  0  0  0  0  0  0  0
   45.1220   29.6220   49.2330 N   0  0  0  0  0  0  0  0  0  0  0  0
   45.1660   33.9080   47.8860 H   0  0  0  0  0  0  0  0  0  0  0  0
   46.0540   29.4120   49.6780 H   0  0  0  0  0  0  0  0  0  0  0  0
   44.1250   29.3410   49.2810 H   0  0  0  0  0  0  0  0  0  0  0  0
   46.6820   30.5530   44.9700 C   0  0  0  0  0  0  0  0  0  0  0  0
   48.0350   30.4830   44.6990 C   0  0  0  0  0  3  0  0  0  0  0  0
   48.5500   29.8860   43.5680 C   0  0  0  0  0  0  0  0  0  0  0  0
   49.6330   29.8550   43.3970 H   0  0  0  0  0  0  0  0  0  0  0  0
   47.6790   29.3300   42.6610 C   0  0  0  0  0  3  0  0  0  0  0  0
   46.3260   29.3420   42.8270 C   0  0  0  0  0  0  0  0  0  0  0  0
   45.6020   28.9250   42.1530 H   0  0  0  0  0  0  0  0  0  0  0  0
   45.8870   29.9550   43.9790 C   0  0  0  0  0  3  0  0  0  0  0  0
   44.5310   35.2260   42.0760 C   0  0  0  0  0  0  0  0  0  0  0  0
   43.4960   34.3930   42.4450 F   0  0  0  0  0  0  0  0  0  0  0  0
   43.9590   36.4510   41.7490 F   0  0  0  0  0  0  0  0  0  0  0  0
   45.2180   34.7920   40.9580 F   0  0  0  0  0  0  0  0  0  0  0  0
  1  2  1  0  0  0  0
  1  7  1  1  0  0  0
  1 16  1  0  0  0  0
  2  8  1  0  0  0  0
  3  9  1  0  0  0  0
  3  2  2  0  0  0  0
  4 10  1  6  0  0  0
  4  3  1  0  0  0  0
  5  4  1  0  0  0  0
  5 12  1  0  0  0  0
  5  6  1  0  0  0  0
  6  1  1  0  0  0  0
 11  5  1  0  0  0  0
 13  6  1  0  0  0  0
 14  6  1  0  0  0  0
 15 22  1  0  0  0  0
 15 20  1  0  0  0  0
 16 15  2  0  0  0  0
 17 16  1  0  0  0  0
 17 18  2  0  0  0  0
 18 19  1  0  0  0  0
 19 20  2  0  0  0  0
 19 21  1  0  0  0  0
 21 24  1  0  0  0  0
 21 23  1  0  0  0  0
 25 17  1  0  0  0  0
 26 25  1  0  0  0  0
 27 26  2  0  0  0  0
 28 27  1  0  0  0  0
 29 30  2  0  0  0  0
 29 27  1  0  0  0  0
 30 32  1  0  0  0  0
 31 30  1  0  0  0  0
 32 25  2  0  0  0  0
 33 34  1  0  0  0  0
 33  4  1  0  0  0  0
 35 33  1  0  0  0  0
 36 33  1  0  0  0  0
M  END
>  <minimizedAffinity>
-5.71934223

>  <minimizedRMSD>
0.324448347

$$$$
