
 OpenBabel03232520583D

 36 38  0  0  1  0  0  0  0  0999 V2000
   46.1110   33.5800   45.3350 C   0  0  2  0  0  0  0  0  0  0  0  0
   44.9700   34.6760   45.5430 C   0  0  0  0  0  0  0  0  0  0  0  0
   44.7470   35.5960   44.4550 C   0  0  0  0  0  0  0  0  0  0  0  0
   45.5230   35.5030   43.2360 C   0  0  1  0  0  0  0  0  0  0  0  0
   46.6020   34.4900   43.2060 C   0  0  0  0  0  0  0  0  0  0  0  0
   46.1010   33.2620   43.9520 C   0  0  0  0  0  0  0  0  0  0  0  0
   46.9390   34.2840   45.6550 H   0  0  0  0  0  0  0  0  0  0  0  0
   44.2740   34.9250   46.3390 H   0  0  0  0  0  0  0  0  0  0  0  0
   44.0130   36.3550   44.5050 H   0  0  0  0  0  0  0  0  0  0  0  0
   45.9580   36.5020   42.9930 H   0  0  0  0  0  0  0  0  0  0  0  0
   46.8650   34.2660   42.1720 H   0  0  0  0  0  0  0  0  0  0  0  0
   47.5300   34.8280   43.7150 H   0  0  0  0  0  0  0  0  0  0  0  0
   44.9870   33.2260   43.6260 H   0  0  0  0  0  0  0  0  0  0  0  0
   46.5250   32.4520   43.4320 H   0  0  0  0  0  0  0  0  0  0  0  0
   45.3740   32.9000   47.6000 C   0  0  0  0  0  0  0  0  0  0  0  0
   45.8770   32.6170   46.3650 C   0  0  0  0  0  0  0  0  0  0  0  0
   46.1100   31.2620   46.1060 C   0  0  0  0  0  0  0  0  0  0  0  0
   45.8550   30.2980   47.0100 N   0  0  0  0  0  0  0  0  0  0  0  0
   45.3480   30.6310   48.2480 C   0  0  0  0  0  0  0  0  0  0  0  0
   45.1180   31.9110   48.5210 N   0  0  0  0  0  0  0  0  0  0  0  0
   45.1210   29.6210   49.2340 N   0  0  0  0  0  0  0  0  0  0  0  0
   45.1660   33.9070   47.8860 H   0  0  0  0  0  0  0  0  0  0  0  0
   46.0540   29.4110   49.6790 H   0  0  0  0  0  0  0  0  0  0  0  0
   44.1240   29.3400   49.2820 H   0  0  0  0  0  0  0  0  0  0  0  0
   46.6820   30.5520   44.9710 C   0  0  0  0  0  0  0  0  0  0  0  0
   48.0360   30.4810   44.7000 C   0  0  0  0  0  3  0  0  0  0  0  0
   48.5490   29.8830   43.5700 C   0  0  0  0  0  0  0  0  0  0  0  0
   49.6330   29.8530   43.3990 H   0  0  0  0  0  0  0  0  0  0  0  0
   47.6790   29.3290   42.6620 C   0  0  0  0  0  3  0  0  0  0  0  0
   46.3250   29.3410   42.8280 C   0  0  0  0  0  0  0  0  0  0  0  0
   45.6020   28.9240   42.1530 H   0  0  0  0  0  0  0  0  0  0  0  0
   45.8860   29.9550   43.9790 C   0  0  0  0  0  3  0  0  0  0  0  0
   44.5320   35.2240   42.0770 C   0  0  0  0  0  0  0  0  0  0  0  0
   43.4980   34.3910   42.4450 F   0  0  0  0  0  0  0  0  0  0  0  0
   43.9590   36.4490   41.7500 F   0  0  0  0  0  0  0  0  0  0  0  0
   45.2200   34.7910   40.9580 F   0  0  0  0  0  0  0  0  0  0  0  0
  1  2  1  0  0  0  0
  1  7  1  1  0  0  0
  1 16  1  0  0  0  0
  2  8  1  0  0  0  0
  3  9  1  0  0  0  0
  3  2  2  0  0  0  0
  4 10  1  6  0  0  0
  4  3  1  0  0  0  0
  5  4  1  0  0  0  0
  5 12  1  0  0  0  0
  5  6  1  0  0  0  0
  6  1  1  0  0  0  0
 11  5  1  0  0  0  0
 13  6  1  0  0  0  0
 14  6  1  0  0  0  0
 15 22  1  0  0  0  0
 15 20  1  0  0  0  0
 16 15  2  0  0  0  0
 17 16  1  0  0  0  0
 17 18  2  0  0  0  0
 18 19  1  0  0  0  0
 19 20  2  0  0  0  0
 19 21  1  0  0  0  0
 21 24  1  0  0  0  0
 21 23  1  0  0  0  0
 25 17  1  0  0  0  0
 26 25  1  0  0  0  0
 27 26  2  0  0  0  0
 28 27  1  0  0  0  0
 29 30  2  0  0  0  0
 29 27  1  0  0  0  0
 30 32  1  0  0  0  0
 31 30  1  0  0  0  0
 32 25  2  0  0  0  0
 33 34  1  0  0  0  0
 33  4  1  0  0  0  0
 35 33  1  0  0  0  0
 36 33  1  0  0  0  0
M  END
>  <minimizedAffinity>
-5.71709061

>  <minimizedRMSD>
0.251522422

$$$$
