
 OpenBabel03232520223D

 40 43  0  0  0  0  0  0  0  0999 V2000
   47.5740   34.2050   42.1150 C   0  0  0  0  0  0  0  0  0  0  0  0
   48.4770   35.3290   41.6950 C   0  0  0  0  0  0  0  0  0  0  0  0
   49.8010   35.3670   42.3390 C   0  0  0  0  0  0  0  0  0  0  0  0
   50.4820   34.0420   42.4660 C   0  0  0  0  0  0  0  0  0  0  0  0
   49.6030   32.8690   42.0950 C   0  0  0  0  0  0  0  0  0  0  0  0
   48.2720   33.0650   42.7960 C   0  0  0  0  0  0  0  0  0  0  0  0
   47.9480   36.2970   41.9030 H   0  0  0  0  0  0  0  0  0  0  0  0
   48.6340   35.3120   40.5860 H   0  0  0  0  0  0  0  0  0  0  0  0
   50.4600   36.0240   41.7150 H   0  0  0  0  0  0  0  0  0  0  0  0
   49.7010   35.9240   43.3080 H   0  0  0  0  0  0  0  0  0  0  0  0
   50.7470   33.9060   43.5470 H   0  0  0  0  0  0  0  0  0  0  0  0
   51.4570   34.0010   41.9230 H   0  0  0  0  0  0  0  0  0  0  0  0
   50.1000   31.9430   42.3910 H   0  0  0  0  0  0  0  0  0  0  0  0
   49.4150   32.9440   40.9950 H   0  0  0  0  0  0  0  0  0  0  0  0
   47.6730   32.1340   42.6220 H   0  0  0  0  0  0  0  0  0  0  0  0
   48.3990   33.2410   43.8780 H   0  0  0  0  0  0  0  0  0  0  0  0
   45.2230   34.4900   44.9700 C   0  0  0  0  0  0  0  0  0  0  0  0
   44.5290   35.6630   44.6910 C   0  0  0  0  0  0  0  0  0  0  0  0
   44.8700   36.3500   43.5320 C   0  0  0  0  0  0  0  0  0  0  0  0
   45.8500   35.8490   42.7410 N   0  0  0  0  0  0  0  0  0  0  0  0
   46.5090   34.6980   43.0430 C   0  0  0  0  0  0  0  0  0  0  0  0
   46.1790   34.0260   44.1730 N   0  0  0  0  0  0  0  0  0  0  0  0
   44.9400   33.9750   45.8740 H   0  0  0  0  0  0  0  0  0  0  0  0
   43.7440   36.1000   45.2880 H   0  0  0  0  0  0  0  0  0  0  0  0
   44.4290   37.2650   43.1810 H   0  0  0  0  0  0  0  0  0  0  0  0
   46.9220   33.6420   40.8790 C   0  0  0  0  0  0  0  0  0  0  0  0
   45.7270   33.0440   40.5290 C   0  0  0  0  0  0  0  0  0  0  0  0
   45.5670   32.6850   39.2440 C   0  0  0  0  0  0  0  0  0  0  0  0
   46.5190   32.8900   38.3180 C   0  0  0  0  0  0  0  0  0  0  0  0
   47.8570   33.6970   39.3210 S   0  0  0  0  0  0  0  0  0  0  0  0
   45.0330   32.9270   41.3480 H   0  0  0  0  0  0  0  0  0  0  0  0
   44.6530   32.2100   38.9010 H   0  0  0  0  0  0  0  0  0  0  0  0
   46.6500   32.6380   36.9450 C   0  0  0  0  0  0  0  0  0  0  0  0
   45.4630   32.4730   36.2640 C   0  0  0  0  0  0  0  0  0  0  0  0
   45.4700   32.2160   34.8880 C   0  0  0  0  0  0  0  0  0  0  0  0
   44.5540   32.0820   34.3280 H   0  0  0  0  0  0  0  0  0  0  0  0
   46.7040   32.1360   34.2550 C   0  0  0  0  0  0  0  0  0  0  0  0
   47.9020   32.3050   34.9560 C   0  0  0  0  0  0  0  0  0  0  0  0
   48.8660   32.2410   34.4550 H   0  0  0  0  0  0  0  0  0  0  0  0
   47.8820   32.5610   36.3310 C   0  0  0  0  0  0  0  0  0  0  0  0
  1  6  1  0  0  0  0
  1 21  1  0  0  0  0
  2  7  1  0  0  0  0
  2  1  1  0  0  0  0
  2  3  1  0  0  0  0
  3  4  1  0  0  0  0
  3 10  1  0  0  0  0
  4 11  1  0  0  0  0
  5 13  1  0  0  0  0
  5  4  1  0  0  0  0
  5  6  1  0  0  0  0
  6 16  1  0  0  0  0
  8  2  1  0  0  0  0
  9  3  1  0  0  0  0
 12  4  1  0  0  0  0
 14  5  1  0  0  0  0
 15  6  1  0  0  0  0
 17 23  1  0  0  0  0
 18 17  1  0  0  0  0
 18 24  1  0  0  0  0
 19 18  2  0  0  0  0
 20 21  2  0  0  0  0
 20 19  1  0  0  0  0
 21 22  1  0  0  0  0
 22 17  2  0  0  0  0
 25 19  1  0  0  0  0
 26  1  1  0  0  0  0
 27 26  2  0  0  0  0
 27 31  1  0  0  0  0
 28 27  1  0  0  0  0
 29 28  2  0  0  0  0
 29 30  1  0  0  0  0
 30 26  1  0  0  0  0
 32 28  1  0  0  0  0
 33 29  1  0  0  0  0
 34 33  2  0  0  0  0
 35 34  1  0  0  0  0
 36 35  1  0  0  0  0
 37 35  2  0  0  0  0
 37 38  1  0  0  0  0
 38 40  2  0  0  0  0
 39 38  1  0  0  0  0
 40 33  1  0  0  0  0
M  END
>  <minimizedAffinity>
-6.16423225

>  <minimizedRMSD>
0.461990267

$$$$
