
 OpenBabel03232520103D

 24 26  0  0  0  0  0  0  0  0999 V2000
   45.8610   33.1380   46.2300 C   0  0  0  0  0  0  0  0  0  0  0  0
   45.4230   32.9700   47.5260 C   0  0  0  0  0  0  0  0  0  0  0  0
   46.1190   32.1370   48.3430 C   0  0  0  0  0  0  0  0  0  0  0  0
   47.2420   31.5080   47.7890 C   0  0  0  0  0  0  0  0  0  0  0  0
   47.3000   32.1060   46.1100 S   0  0  0  0  0  0  0  0  0  0  0  0
   44.5400   33.5100   47.8430 H   0  0  0  0  0  0  0  0  0  0  0  0
   45.8680   31.9330   49.3670 H   0  0  0  0  0  0  0  0  0  0  0  0
   44.3280   35.9340   44.4440 C   0  0  0  0  0  0  0  0  0  0  0  0
   44.2870   35.4160   43.1140 C   0  0  0  0  0  0  0  0  0  0  0  0
   44.7830   34.1300   42.8690 C   0  0  0  0  0  0  0  0  0  0  0  0
   45.2830   33.4390   43.9290 N   0  0  0  0  0  0  0  0  0  0  0  0
   45.3070   33.9560   45.1740 C   0  0  0  0  0  0  0  0  0  0  0  0
   44.8350   35.1940   45.4340 N   0  0  0  0  0  0  0  0  0  0  0  0
   43.9320   36.9320   44.5760 H   0  0  0  0  0  0  0  0  0  0  0  0
   43.8770   36.0060   42.2950 H   0  0  0  0  0  0  0  0  0  0  0  0
   44.7690   33.7080   41.8870 H   0  0  0  0  0  0  0  0  0  0  0  0
   48.1690   30.5840   48.3900 C   0  0  0  0  0  0  0  0  0  0  0  0
   48.3710   29.3870   47.7360 C   0  0  0  0  0  0  0  0  0  0  0  0
   49.2760   28.5060   48.3370 C   0  0  0  0  0  0  0  0  0  0  0  0
   49.5250   27.5270   47.9220 H   0  0  0  0  0  0  0  0  0  0  0  0
   49.9160   28.8600   49.5310 C   0  0  0  0  0  0  0  0  0  0  0  0
   49.6660   30.0780   50.1320 C   0  0  0  0  0  0  0  0  0  0  0  0
   50.1650   30.3480   51.0570 H   0  0  0  0  0  0  0  0  0  0  0  0
   48.7660   30.9640   49.5400 C   0  0  0  0  0  0  0  0  0  0  0  0
  1  2  2  0  0  0  0
  2  6  1  0  0  0  0
  2  3  1  0  0  0  0
  3  7  1  0  0  0  0
  4  3  2  0  0  0  0
  4 17  1  0  0  0  0
  5  1  1  0  0  0  0
  5  4  1  0  0  0  0
  8 14  1  0  0  0  0
  8 13  1  0  0  0  0
  9  8  2  0  0  0  0
 10  9  1  0  0  0  0
 10 11  2  0  0  0  0
 11 12  1  0  0  0  0
 12 13  2  0  0  0  0
 12  1  1  0  0  0  0
 15  9  1  0  0  0  0
 16 10  1  0  0  0  0
 17 24  1  0  0  0  0
 18 19  1  0  0  0  0
 18 17  2  0  0  0  0
 19 21  2  0  0  0  0
 20 19  1  0  0  0  0
 21 22  1  0  0  0  0
 22 23  1  0  0  0  0
 24 22  2  0  0  0  0
M  END
>  <minimizedAffinity>
-4.74497461

>  <minimizedRMSD>
1.17244983

$$$$
