
 OpenBabel03232518523D

 33 35  0  0  0  0  0  0  0  0999 V2000
   47.4100   32.9820   43.6290 C   0  0  0  0  0  0  0  0  0  0  0  0
   47.4000   31.7580   43.3220 O   0  0  0  0  0  0  0  0  0  0  0  0
   44.7820   35.2800   44.8980 C   0  0  0  0  0  0  0  0  0  0  0  0
   45.6930   34.7620   43.9870 C   0  0  0  0  0  0  0  0  0  0  0  0
   46.4300   33.6670   44.3970 C   0  0  0  0  0  0  0  0  0  0  0  0
   46.2340   33.1580   45.6440 N   0  0  0  0  0  0  0  0  0  0  0  0
   45.3650   33.6600   46.5000 C   0  0  0  0  0  0  0  0  0  0  0  0
   44.6590   34.7060   46.1120 N   0  0  0  0  0  0  0  0  0  0  0  0
   44.1680   36.1390   44.6460 H   0  0  0  0  0  0  0  0  0  0  0  0
   45.8770   35.3370   42.6520 C   0  0  0  0  0  0  0  0  0  0  0  0
   45.0270   36.4470   42.5660 F   0  0  0  0  0  0  0  0  0  0  0  0
   45.3970   34.4870   41.6730 F   0  0  0  0  0  0  0  0  0  0  0  0
   47.1590   35.7060   42.3860 F   0  0  0  0  0  0  0  0  0  0  0  0
   45.1280   33.1870   47.7690 O   0  0  0  0  0  0  0  0  0  0  0  0
   45.8670   32.1410   48.3520 C   0  0  0  0  0  0  0  0  0  0  0  0
   47.2100   32.4880   48.4390 F   0  0  0  0  0  0  0  0  0  0  0  0
   45.6690   30.9300   47.7500 F   0  0  0  0  0  0  0  0  0  0  0  0
   45.4490   32.0650   49.6950 F   0  0  0  0  0  0  0  0  0  0  0  0
   48.6030   33.2080   42.9630 O   0  0  0  0  0  0  0  0  0  0  0  0
   48.8880   32.8370   41.6880 C   0  0  0  0  0  0  0  0  0  0  0  0
   47.9400   32.8920   40.5300 C   0  0  0  0  0  0  0  0  0  0  0  0
   48.9720   32.2580   39.1910 S   0  0  0  0  0  0  0  0  0  0  0  0
   50.4650   32.0210   40.3220 C   0  0  0  0  0  0  0  0  0  0  0  0
   50.0910   32.3810   41.4030 N   0  0  0  0  0  0  0  0  0  0  0  0
   46.8180   33.2350   40.3670 H   0  0  0  0  0  0  0  0  0  0  0  0
   51.7390   31.4900   39.7910 C   0  0  0  0  0  0  0  0  0  0  0  0
   52.6340   30.8780   40.6190 C   0  0  0  0  0  0  0  0  0  0  0  0
   53.8070   30.4030   40.0590 C   0  0  0  0  0  0  0  0  0  0  0  0
   54.4970   29.9230   40.7380 H   0  0  0  0  0  0  0  0  0  0  0  0
   54.0920   30.5280   38.7060 C   0  0  0  0  0  0  0  0  0  0  0  0
   53.1750   31.1530   37.8670 C   0  0  0  0  0  0  0  0  0  0  0  0
   53.4270   31.2340   36.8170 H   0  0  0  0  0  0  0  0  0  0  0  0
   52.0200   31.6160   38.4450 C   0  0  0  0  0  0  0  0  0  0  0  0
  1  5  1  0  0  0  0
  2  1  2  0  0  0  0
  3  8  1  0  0  0  0
  4  5  1  0  0  0  0
  4  3  2  0  0  0  0
  5  6  2  0  0  0  0
  6  7  1  0  0  0  0
  7 14  1  0  0  0  0
  8  7  2  0  0  0  0
  9  3  1  0  0  0  0
 10  4  1  0  0  0  0
 11 10  1  0  0  0  0
 12 10  1  0  0  0  0
 13 10  1  0  0  0  0
 14 15  1  0  0  0  0
 15 16  1  0  0  0  0
 15 18  1  0  0  0  0
 17 15  1  0  0  0  0
 19  1  1  0  0  0  0
 20 19  1  0  0  0  0
 21 20  2  0  0  0  0
 22 23  1  0  0  0  0
 22 21  1  0  0  0  0
 23 24  2  0  0  0  0
 24 20  1  0  0  0  0
 25 21  1  0  0  0  0
 26 23  1  0  0  0  0
 26 27  1  0  0  0  0
 28 27  2  0  0  0  0
 28 29  1  0  0  0  0
 30 28  1  0  0  0  0
 31 33  1  0  0  0  0
 31 30  2  0  0  0  0
 32 31  1  0  0  0  0
 33 26  2  0  0  0  0
M  END
>  <minimizedAffinity>
-6.00407648

>  <minimizedRMSD>
0.426397353

$$$$
