
 OpenBabel03232520523D

 33 35  0  0  1  0  0  0  0  0999 V2000
   46.1380   32.5850   44.4320 C   0  0  2  0  0  0  0  0  0  0  0  0
   45.5480   33.7340   45.2350 C   0  0  0  0  0  0  0  0  0  0  0  0
   45.4390   35.0110   44.5820 C   0  0  0  0  0  0  0  0  0  0  0  0
   45.8770   35.1860   43.2090 C   0  0  1  0  0  0  0  0  0  0  0  0
   46.5250   34.0310   42.5590 C   0  0  0  0  0  0  0  0  0  0  0  0
   45.8400   32.7530   42.9840 C   0  0  0  0  0  0  0  0  0  0  0  0
   47.2490   32.7080   44.5980 H   0  0  0  0  0  0  0  0  0  0  0  0
   45.1590   33.8540   46.2380 H   0  0  0  0  0  0  0  0  0  0  0  0
   45.0330   35.8730   45.0790 H   0  0  0  0  0  0  0  0  0  0  0  0
   46.5850   36.0480   43.1800 H   0  0  0  0  0  0  0  0  0  0  0  0
   46.3880   34.1080   41.4440 H   0  0  0  0  0  0  0  0  0  0  0  0
   47.6110   33.9300   42.7630 H   0  0  0  0  0  0  0  0  0  0  0  0
   44.7530   32.9340   42.8760 H   0  0  0  0  0  0  0  0  0  0  0  0
   46.1950   31.8860   42.4270 H   0  0  0  0  0  0  0  0  0  0  0  0
   45.9010   31.1160   46.3850 C   0  0  0  0  0  0  0  0  0  0  0  0
   45.7420   31.3220   45.0290 C   0  0  0  0  0  0  0  0  0  0  0  0
   45.2060   30.2640   44.3050 C   0  0  0  0  0  0  0  0  0  0  0  0
   44.8640   29.1040   44.9090 N   0  0  0  0  0  0  0  0  0  0  0  0
   45.0310   28.9340   46.2310 C   0  0  0  0  0  0  0  0  0  0  0  0
   45.5450   29.9320   46.9590 N   0  0  0  0  0  0  0  0  0  0  0  0
   46.3020   31.8280   47.0900 H   0  0  0  0  0  0  0  0  0  0  0  0
   45.0430   30.3270   43.2420 H   0  0  0  0  0  0  0  0  0  0  0  0
   44.6670   27.7090   46.8470 N   0  0  0  0  0  0  0  0  0  0  0  0
   44.1080   26.5980   46.1020 C   0  0  0  0  0  0  0  0  0  0  0  0
   42.9340   25.9760   46.8070 C   0  0  0  0  0  0  0  0  0  0  0  0
   43.2640   25.6000   48.2150 C   0  0  0  0  0  0  0  0  0  0  0  0
   43.0620   24.5280   48.4070 H   0  0  0  0  0  0  0  0  0  0  0  0
   44.6800   25.9880   48.5300 C   0  0  0  0  0  0  0  0  0  0  0  0
   44.8300   27.4850   48.2700 C   0  0  0  0  0  0  0  0  0  0  0  0
   44.6740   35.6500   42.3760 C   0  0  0  0  0  0  0  0  0  0  0  0
   43.4670   35.3230   42.9580 F   0  0  0  0  0  0  0  0  0  0  0  0
   44.6950   37.0500   42.3480 F   0  0  0  0  0  0  0  0  0  0  0  0
   44.7950   35.2050   41.0770 F   0  0  0  0  0  0  0  0  0  0  0  0
  1  7  1  1  0  0  0
  1 16  1  0  0  0  0
  1  2  1  0  0  0  0
  2  8  1  0  0  0  0
  3  9  1  0  0  0  0
  3  2  2  0  0  0  0
  4 10  1  6  0  0  0
  4  3  1  0  0  0  0
  5 12  1  0  0  0  0
  5  6  1  0  0  0  0
  5  4  1  0  0  0  0
  6  1  1  0  0  0  0
 11  5  1  0  0  0  0
 13  6  1  0  0  0  0
 14  6  1  0  0  0  0
 15 20  1  0  0  0  0
 15 21  1  0  0  0  0
 16 15  2  0  0  0  0
 17 18  2  0  0  0  0
 17 16  1  0  0  0  0
 18 19  1  0  0  0  0
 19 23  1  0  0  0  0
 19 20  2  0  0  0  0
 22 17  1  0  0  0  0
 23 29  1  0  0  0  0
 24 25  1  0  0  0  0
 24 23  1  0  0  0  0
 25 26  1  0  0  0  0
 26 27  1  0  0  0  0
 26 28  1  0  0  0  0
 29 28  1  0  0  0  0
 30 31  1  0  0  0  0
 30  4  1  0  0  0  0
 32 30  1  0  0  0  0
 33 30  1  0  0  0  0
M  END
>  <minimizedAffinity>
-4.75738287

>  <minimizedRMSD>
2.37940907

$$$$
