
 OpenBabel03232518203D

 48 51  0  0  1  0  0  0  0  0999 V2000
   42.2300   34.3580   39.1660 C   0  0  0  0  0  0  0  0  0  0  0  0
   44.6850   34.5790   41.9220 C   0  0  2  0  0  0  0  0  0  0  0  0
   43.1980   34.2980   41.4750 C   0  0  0  0  0  0  0  0  0  0  0  0
   43.4260   34.6120   39.9950 C   0  0  1  0  0  0  0  0  0  0  0  0
   44.6260   33.7740   39.7210 C   0  0  0  0  0  0  0  0  0  0  0  0
   45.4210   33.7340   41.0370 C   0  0  0  0  0  0  0  0  0  0  0  0
   44.7760   35.6680   41.6310 H   0  0  0  0  0  0  0  0  0  0  0  0
   42.6620   35.1020   42.0130 H   0  0  0  0  0  0  0  0  0  0  0  0
   42.9120   33.2850   41.6770 H   0  0  0  0  0  0  0  0  0  0  0  0
   43.7240   35.6720   39.9450 H   0  0  0  0  0  0  0  0  0  0  0  0
   44.4210   32.7380   39.4400 H   0  0  0  0  0  0  0  0  0  0  0  0
   45.2180   34.2170   38.9010 H   0  0  0  0  0  0  0  0  0  0  0  0
   45.6040   32.7090   41.3600 H   0  0  0  0  0  0  0  0  0  0  0  0
   46.4320   34.1600   40.8000 H   0  0  0  0  0  0  0  0  0  0  0  0
   44.4180   35.5440   44.1410 C   0  0  0  0  0  0  0  0  0  0  0  0
   44.8380   34.4850   43.3550 C   0  0  0  0  0  0  0  0  0  0  0  0
   45.4390   33.3210   43.9680 C   0  0  0  0  0  0  0  0  0  0  0  0
   45.5780   33.2990   45.3210 N   0  0  0  0  0  0  0  0  0  0  0  0
   45.1470   34.3760   46.0770 C   0  0  0  0  0  0  0  0  0  0  0  0
   44.5750   35.4860   45.5030 N   0  0  0  0  0  0  0  0  0  0  0  0
   43.9710   36.4060   43.6680 H   0  0  0  0  0  0  0  0  0  0  0  0
   45.7660   32.4940   43.3550 H   0  0  0  0  0  0  0  0  0  0  0  0
   45.2780   34.3130   47.1520 H   0  0  0  0  0  0  0  0  0  0  0  0
   41.9620   35.4810   38.2270 C   0  0  0  0  0  0  0  0  0  0  0  0
   41.4210   36.3410   38.6900 H   0  0  0  0  0  0  0  0  0  0  0  0
   42.9560   35.9220   37.9270 H   0  0  0  0  0  0  0  0  0  0  0  0
   41.5130   35.1580   37.2600 H   0  0  0  0  0  0  0  0  0  0  0  0
   42.5460   33.1370   38.3320 C   0  0  0  0  0  0  0  0  0  0  0  0
   42.4930   32.1970   38.9000 H   0  0  0  0  0  0  0  0  0  0  0  0
   41.7050   33.0670   37.5850 H   0  0  0  0  0  0  0  0  0  0  0  0
   43.4710   33.2460   37.7310 H   0  0  0  0  0  0  0  0  0  0  0  0
   41.0560   34.0170   40.0090 C   0  0  0  0  0  0  0  0  0  0  0  0
   41.0720   34.3780   41.0270 H   0  0  0  0  0  0  0  0  0  0  0  0
   40.8820   32.9070   40.1050 H   0  0  0  0  0  0  0  0  0  0  0  0
   39.7830   34.5270   39.3830 C   0  0  2  0  0  0  0  0  0  0  0  0
   38.5510   34.7540   40.1820 C   0  0  0  0  0  0  0  0  0  0  0  0
   38.5860   33.5610   39.3190 C   0  0  2  0  0  0  0  0  0  0  0  0
   39.9460   35.2430   38.5550 H   0  0  0  0  0  0  0  0  0  0  0  0
   37.8910   35.6010   39.9040 H   0  0  0  0  0  0  0  0  0  0  0  0
   38.7130   34.7210   41.2760 H   0  0  0  0  0  0  0  0  0  0  0  0
   38.0270   33.6880   38.3430 H   0  0  0  0  0  0  0  0  0  0  0  0
   38.6700   32.2320   39.7340 N   0  0  0  0  0  0  0  0  0  0  0  0
   38.3320   31.8460   41.0440 C   0  0  0  0  0  0  0  0  0  0  0  0
   37.5170   30.5620   41.1080 C   0  0  0  0  0  0  0  0  0  0  0  0
   38.0390   29.4580   40.2600 C   0  0  0  0  0  0  0  0  0  0  0  0
   37.1360   28.8910   39.8900 H   0  0  0  0  0  0  0  0  0  0  0  0
   38.8450   29.8730   39.0750 C   0  0  0  0  0  0  0  0  0  0  0  0
   38.4520   31.2780   38.6960 C   0  0  0  0  0  0  0  0  0  0  0  0
  1  4  1  0  0  0  0
  1 32  1  0  0  0  0
  2  7  1  6  0  0  0
  2 16  1  0  0  0  0
  3  9  1  0  0  0  0
  3  2  1  0  0  0  0
  3  8  1  0  0  0  0
  4 10  1  6  0  0  0
  4  3  1  0  0  0  0
  5  4  1  0  0  0  0
  5  6  1  0  0  0  0
  6 13  1  0  0  0  0
  6  2  1  0  0  0  0
 11  5  1  0  0  0  0
 12  5  1  0  0  0  0
 14  6  1  0  0  0  0
 15 20  1  0  0  0  0
 16 17  1  0  0  0  0
 16 15  2  0  0  0  0
 17 18  2  0  0  0  0
 18 19  1  0  0  0  0
 19 23  1  0  0  0  0
 20 19  2  0  0  0  0
 21 15  1  0  0  0  0
 22 17  1  0  0  0  0
 24 25  1  0  0  0  0
 24  1  1  0  0  0  0
 26 24  1  0  0  0  0
 27 24  1  0  0  0  0
 28 29  1  0  0  0  0
 28  1  1  0  0  0  0
 30 28  1  0  0  0  0
 31 28  1  0  0  0  0
 32 34  1  0  0  0  0
 32 33  1  0  0  0  0
 35 38  1  6  0  0  0
 35 32  1  0  0  0  0
 35 36  1  0  0  0  0
 36 40  1  0  0  0  0
 37 41  1  6  0  0  0
 37 35  1  0  0  0  0
 37 42  1  0  0  0  0
 37 36  1  0  0  0  0
 39 36  1  0  0  0  0
 42 43  1  0  0  0  0
 43 44  1  0  0  0  0
 45 44  1  0  0  0  0
 46 45  1  0  0  0  0
 47 45  1  0  0  0  0
 48 47  1  0  0  0  0
 48 42  1  0  0  0  0
M  END
>  <minimizedAffinity>
-5.67423391

>  <minimizedRMSD>
0.927613914

$$$$
