
 OpenBabel03232520263D

 43 47  0  0  1  0  0  0  0  0999 V2000
   46.7780   34.4790   41.3750 C   0  0  0  0  0  0  0  0  0  0  0  0
   48.0690   34.8340   41.0200 C   0  0  0  0  0  0  0  0  0  0  0  0
   48.3100   34.4850   39.7540 N   0  0  0  0  0  0  0  0  0  0  0  0
   47.1790   33.9070   39.2940 C   0  0  0  0  0  0  0  0  0  0  0  0
   46.8890   33.3650   38.0410 C   0  0  0  0  0  0  0  0  0  0  0  0
   45.6500   32.8320   37.8260 C   0  0  0  0  0  0  0  0  0  0  0  0
   44.6430   32.7860   38.7680 C   0  0  0  0  0  0  0  0  0  0  0  0
   44.9740   33.3340   39.9970 C   0  0  0  0  0  0  0  0  0  0  0  0
   46.1970   33.8860   40.2810 C   0  0  0  0  0  0  0  0  0  0  0  0
   49.1790   34.5970   39.1500 H   0  0  0  0  0  0  0  0  0  0  0  0
   47.6310   33.3660   37.2490 H   0  0  0  0  0  0  0  0  0  0  0  0
   45.4380   32.4160   36.8510 H   0  0  0  0  0  0  0  0  0  0  0  0
   43.6660   32.3580   38.5780 H   0  0  0  0  0  0  0  0  0  0  0  0
   44.2380   33.3320   40.7780 H   0  0  0  0  0  0  0  0  0  0  0  0
   44.7290   36.0490   44.0830 C   0  0  0  0  0  0  0  0  0  0  0  0
   45.3500   35.8430   42.8410 C   0  0  0  0  0  0  0  0  0  0  0  0
   46.1300   34.6900   42.6780 C   0  0  0  0  0  0  0  0  0  0  0  0
   46.2650   33.8080   43.7110 N   0  0  0  0  0  0  0  0  0  0  0  0
   45.6400   34.0610   44.8900 C   0  0  0  0  0  0  0  0  0  0  0  0
   44.8830   35.1530   45.0920 N   0  0  0  0  0  0  0  0  0  0  0  0
   44.1410   36.9550   44.1540 H   0  0  0  0  0  0  0  0  0  0  0  0
   45.2430   36.5400   42.0240 H   0  0  0  0  0  0  0  0  0  0  0  0
   45.7570   33.3420   45.7150 H   0  0  0  0  0  0  0  0  0  0  0  0
   49.0330   35.5010   41.9140 C   0  0  0  0  0  0  0  0  0  0  0  0
   49.5790   36.3180   41.3950 H   0  0  0  0  0  0  0  0  0  0  0  0
   48.4550   36.0070   42.7390 H   0  0  0  0  0  0  0  0  0  0  0  0
   49.9830   34.5190   42.5350 C   0  0  0  0  0  0  0  0  0  0  0  0
   50.9840   35.0310   42.5870 H   0  0  0  0  0  0  0  0  0  0  0  0
   49.6980   34.3740   43.6010 H   0  0  0  0  0  0  0  0  0  0  0  0
   50.1180   33.2170   41.7950 C   0  0  1  0  0  0  0  0  0  0  0  0
   51.3410   32.4350   41.7720 C   0  0  0  0  0  0  0  0  0  0  0  0
   50.2890   32.0040   42.7290 C   0  0  2  0  0  0  0  0  0  0  0  0
   49.3930   33.1050   40.9600 H   0  0  0  0  0  0  0  0  0  0  0  0
   52.2510   32.9010   42.2050 H   0  0  0  0  0  0  0  0  0  0  0  0
   51.6080   31.8300   40.8710 H   0  0  0  0  0  0  0  0  0  0  0  0
   50.4840   32.2060   43.8120 H   0  0  0  0  0  0  0  0  0  0  0  0
   49.4190   30.9180   42.5020 N   0  0  0  0  0  0  0  0  0  0  0  0
   49.9440   29.6000   42.6160 C   0  0  0  0  0  0  0  0  0  0  0  0
   49.6720   28.9520   43.9520 C   0  0  0  0  0  0  0  0  0  0  0  0
   48.1890   29.0740   44.2990 C   0  0  0  0  0  0  0  0  0  0  0  0
   47.9930   28.5810   45.2590 H   0  0  0  0  0  0  0  0  0  0  0  0
   47.9020   30.5610   44.3970 C   0  0  0  0  0  0  0  0  0  0  0  0
   48.0940   31.1040   42.9910 C   0  0  0  0  0  0  0  0  0  0  0  0
  1 17  1  0  0  0  0
  2  1  2  0  0  0  0
  2 24  1  0  0  0  0
  3  2  1  0  0  0  0
  4  3  1  0  0  0  0
  4  9  1  0  0  0  0
  5  4  2  0  0  0  0
  6  5  1  0  0  0  0
  6  7  2  0  0  0  0
  7  8  1  0  0  0  0
  8  9  2  0  0  0  0
  8 14  1  0  0  0  0
  9  1  1  0  0  0  0
 10  3  1  0  0  0  0
 11  5  1  0  0  0  0
 12  6  1  0  0  0  0
 13  7  1  0  0  0  0
 15 21  1  0  0  0  0
 15 20  1  0  0  0  0
 16 15  2  0  0  0  0
 17 16  1  0  0  0  0
 17 18  2  0  0  0  0
 18 19  1  0  0  0  0
 19 20  2  0  0  0  0
 19 23  1  0  0  0  0
 22 16  1  0  0  0  0
 24 27  1  0  0  0  0
 24 26  1  0  0  0  0
 25 24  1  0  0  0  0
 27 28  1  0  0  0  0
 27 29  1  0  0  0  0
 30 33  1  6  0  0  0
 30 27  1  0  0  0  0
 30 32  1  0  0  0  0
 31 30  1  0  0  0  0
 31 34  1  0  0  0  0
 31 32  1  0  0  0  0
 32 36  1  1  0  0  0
 35 31  1  0  0  0  0
 37 38  1  0  0  0  0
 37 32  1  0  0  0  0
 37 43  1  0  0  0  0
 38 39  1  0  0  0  0
 39 40  1  0  0  0  0
 40 42  1  0  0  0  0
 40 41  1  0  0  0  0
 43 42  1  0  0  0  0
M  END
>  <minimizedAffinity>
-5.7731142

>  <minimizedRMSD>
1.4728322

$$$$
