
 OpenBabel03232518033D

 47 49  0  0  1  0  0  0  0  0999 V2000
   49.8830   33.2630   41.5980 O   0  0  0  0  0  0  0  0  0  0  0  0
   50.2990   31.9880   41.2830 C   0  0  1  0  0  0  0  0  0  0  0  0
   51.6440   31.7010   40.8320 C   0  0  0  0  0  0  0  0  0  0  0  0
   51.3600   31.4360   42.2550 C   0  0  2  0  0  0  0  0  0  0  0  0
   49.5040   31.2020   41.0890 H   0  0  0  0  0  0  0  0  0  0  0  0
   51.7800   30.9350   40.0570 H   0  0  0  0  0  0  0  0  0  0  0  0
   52.2850   32.5970   40.6340 H   0  0  0  0  0  0  0  0  0  0  0  0
   51.7840   32.1160   43.0210 H   0  0  0  0  0  0  0  0  0  0  0  0
   51.1470   30.0490   42.7500 C   0  0  1  0  0  0  0  0  0  0  0  0
   50.9700   30.0690   43.8220 H   0  0  0  0  0  0  0  0  0  0  0  0
   50.0440   29.2760   42.0410 C   0  0  0  0  0  0  0  0  0  0  0  0
   49.1500   29.9280   42.0910 H   0  0  0  0  0  0  0  0  0  0  0  0
   50.3200   29.0280   41.0020 H   0  0  0  0  0  0  0  0  0  0  0  0
   49.9180   28.3360   42.5960 H   0  0  0  0  0  0  0  0  0  0  0  0
   52.4040   29.2210   42.5070 C   0  0  0  0  0  0  0  0  0  0  0  0
   52.9450   29.5790   41.6020 H   0  0  0  0  0  0  0  0  0  0  0  0
   52.2380   28.1440   42.5280 H   0  0  0  0  0  0  0  0  0  0  0  0
   53.3260   29.6130   43.5940 N   0  0  0  0  0  0  0  0  0  0  0  0
   52.6740   29.3440   44.8810 C   0  0  0  0  0  0  0  0  0  0  0  0
   53.4480   30.2200   45.8750 C   0  0  0  0  0  0  0  0  0  0  0  0
   54.9420   29.9370   45.7030 C   0  0  0  0  0  0  0  0  0  0  0  0
   55.4690   30.7380   45.1630 H   0  0  0  0  0  0  0  0  0  0  0  0
   55.1310   28.6730   44.8760 C   0  0  0  0  0  0  0  0  0  0  0  0
   54.5290   28.7700   43.5150 C   0  0  0  0  0  0  0  0  0  0  0  0
   48.4660   33.1290   41.6100 C   0  0  0  0  0  0  0  0  0  0  0  0
   48.0840   32.5960   42.4620 H   0  0  0  0  0  0  0  0  0  0  0  0
   48.2250   32.3940   40.7320 H   0  0  0  0  0  0  0  0  0  0  0  0
   47.9450   34.4370   41.1870 C   0  0  0  0  0  0  0  0  0  0  0  0
   44.1790   34.8160   41.3530 C   0  0  0  0  0  0  0  0  0  0  0  0
   45.4240   34.4290   40.8430 C   0  0  0  0  0  0  0  0  0  0  0  0
   46.5820   34.7630   41.5670 C   0  0  0  0  0  0  0  0  0  0  0  0
   46.4320   35.4510   42.7320 N   0  0  0  0  0  0  0  0  0  0  0  0
   45.1860   35.8070   43.1880 C   0  0  0  0  0  0  0  0  0  0  0  0
   44.0860   35.4930   42.5070 N   0  0  0  0  0  0  0  0  0  0  0  0
   45.5900   33.8830   39.9270 H   0  0  0  0  0  0  0  0  0  0  0  0
   45.0020   36.3470   44.0960 H   0  0  0  0  0  0  0  0  0  0  0  0
   43.0280   34.4130   40.5370 C   0  0  0  0  0  0  0  0  0  0  0  0
   42.4520   35.0520   39.6910 O   0  0  0  0  0  0  0  0  0  0  0  0
   42.4420   33.4990   40.4910 H   0  0  0  0  0  0  0  0  0  0  0  0
   48.8500   35.5890   41.5220 C   0  0  0  0  0  0  0  0  0  0  0  0
   48.5850   35.8880   42.5760 H   0  0  0  0  0  0  0  0  0  0  0  0
   49.9030   35.2500   41.5990 H   0  0  0  0  0  0  0  0  0  0  0  0
   48.7160   36.4610   40.8880 H   0  0  0  0  0  0  0  0  0  0  0  0
   48.0100   34.3800   39.6410 C   0  0  0  0  0  0  0  0  0  0  0  0
   47.4980   33.4780   39.2750 H   0  0  0  0  0  0  0  0  0  0  0  0
   49.0920   34.4160   39.3980 H   0  0  0  0  0  0  0  0  0  0  0  0
   47.5930   35.3370   39.3030 H   0  0  0  0  0  0  0  0  0  0  0  0
  1 25  1  0  0  0  0
  2  5  1  6  0  0  0
  2  1  1  0  0  0  0
  2  4  1  0  0  0  0
  3  2  1  0  0  0  0
  3  4  1  0  0  0  0
  4  9  1  0  0  0  0
  4  8  1  1  0  0  0
  6  3  1  0  0  0  0
  7  3  1  0  0  0  0
  9 10  1  1  0  0  0
 11 12  1  0  0  0  0
 11 14  1  0  0  0  0
 11  9  1  0  0  0  0
 13 11  1  0  0  0  0
 15 17  1  0  0  0  0
 15  9  1  0  0  0  0
 15 18  1  0  0  0  0
 16 15  1  0  0  0  0
 18 19  1  0  0  0  0
 19 20  1  0  0  0  0
 21 20  1  0  0  0  0
 22 21  1  0  0  0  0
 23 21  1  0  0  0  0
 24 18  1  0  0  0  0
 24 23  1  0  0  0  0
 25 26  1  0  0  0  0
 27 25  1  0  0  0  0
 28 40  1  0  0  0  0
 28 31  1  0  0  0  0
 28 25  1  0  0  0  0
 29 34  1  0  0  0  0
 30 29  2  0  0  0  0
 30 31  1  0  0  0  0
 31 32  2  0  0  0  0
 32 33  1  0  0  0  0
 33 36  1  0  0  0  0
 34 33  2  0  0  0  0
 35 30  1  0  0  0  0
 37 29  1  0  0  0  0
 38 37  2  0  0  0  0
 39 37  1  0  0  0  0
 40 42  1  0  0  0  0
 40 41  1  0  0  0  0
 43 40  1  0  0  0  0
 44 28  1  0  0  0  0
 45 44  1  0  0  0  0
 46 44  1  0  0  0  0
 47 44  1  0  0  0  0
M  END
>  <minimizedAffinity>
-4.30028009

>  <minimizedRMSD>
2.39894223

$$$$
