
 OpenBabel03232520593D

 38 40  0  0  1  0  0  0  0  0999 V2000
   45.3980   32.8770   47.5080 C   0  0  0  0  0  0  0  0  0  0  0  0
   45.9310   32.6270   46.2830 C   0  0  0  0  0  0  0  0  0  0  0  0
   46.1730   31.2760   46.0190 C   0  0  0  0  0  0  0  0  0  0  0  0
   45.9060   30.2770   46.8980 N   0  0  0  0  0  0  0  0  0  0  0  0
   45.3620   30.5810   48.1370 C   0  0  0  0  0  0  0  0  0  0  0  0
   45.1250   31.8600   48.4090 N   0  0  0  0  0  0  0  0  0  0  0  0
   45.0810   29.5630   49.0760 N   0  0  0  0  0  0  0  0  0  0  0  0
   45.1750   33.8860   47.8200 H   0  0  0  0  0  0  0  0  0  0  0  0
   45.4160   29.5890   50.0820 H   0  0  0  0  0  0  0  0  0  0  0  0
   44.5170   28.7210   48.8110 H   0  0  0  0  0  0  0  0  0  0  0  0
   46.1790   33.5880   45.2640 C   0  0  2  0  0  0  0  0  0  0  0  0
   44.9590   34.6710   45.4970 C   0  0  0  0  0  0  0  0  0  0  0  0
   44.7190   35.6040   44.4340 C   0  0  0  0  0  0  0  0  0  0  0  0
   45.5230   35.5490   43.2130 C   0  0  1  0  0  0  0  0  0  0  0  0
   46.5920   34.5510   43.1540 C   0  0  0  0  0  0  0  0  0  0  0  0
   46.1520   33.3110   43.8980 C   0  0  0  0  0  0  0  0  0  0  0  0
   47.0000   34.2920   45.6000 H   0  0  0  0  0  0  0  0  0  0  0  0
   44.2770   34.8180   46.3250 H   0  0  0  0  0  0  0  0  0  0  0  0
   43.9450   36.3190   44.5430 H   0  0  0  0  0  0  0  0  0  0  0  0
   45.9500   36.5540   43.0050 H   0  0  0  0  0  0  0  0  0  0  0  0
   46.7560   34.3130   42.0620 H   0  0  0  0  0  0  0  0  0  0  0  0
   47.6000   34.8740   43.4990 H   0  0  0  0  0  0  0  0  0  0  0  0
   45.2010   32.9650   43.4430 H   0  0  0  0  0  0  0  0  0  0  0  0
   47.0150   32.6720   43.5690 H   0  0  0  0  0  0  0  0  0  0  0  0
   44.5160   35.2770   42.0530 C   0  0  0  0  0  0  0  0  0  0  0  0
   43.4630   34.4710   42.4410 F   0  0  0  0  0  0  0  0  0  0  0  0
   43.9610   36.5110   41.7220 F   0  0  0  0  0  0  0  0  0  0  0  0
   45.1980   34.8260   40.9380 F   0  0  0  0  0  0  0  0  0  0  0  0
   46.7820   30.5900   44.8960 C   0  0  0  0  0  0  0  0  0  0  0  0
   46.4120   29.8640   43.8100 C   0  0  0  0  0  0  0  0  0  0  0  0
   47.5660   29.4500   43.1390 C   0  0  0  0  0  0  0  0  0  0  0  0
   48.5840   29.9450   43.8480 N   0  0  0  0  0  0  0  0  0  0  0  0
   48.1460   30.6190   44.8860 N   0  0  0  0  0  0  0  0  0  0  0  0
   45.3600   29.7260   43.6440 H   0  0  0  0  0  0  0  0  0  0  0  0
   47.5040   28.8540   42.2390 H   0  0  0  0  0  0  0  0  0  0  0  0
   49.9890   29.7310   43.4660 C   0  0  0  0  0  3  0  0  0  0  0  0
   50.4950   30.9050   42.6680 C   0  0  0  0  0  1  0  0  0  0  0  0
   50.0520   28.5150   42.5340 C   0  0  0  0  0  1  0  0  0  0  0  0
  1  8  1  0  0  0  0
  1  6  1  0  0  0  0
  2  1  2  0  0  0  0
  3  2  1  0  0  0  0
  3  4  2  0  0  0  0
  4  5  1  0  0  0  0
  5  6  2  0  0  0  0
  5  7  1  0  0  0  0
  7  9  1  0  0  0  0
 10  7  1  0  0  0  0
 11 12  1  0  0  0  0
 11 17  1  1  0  0  0
 11  2  1  0  0  0  0
 12 18  1  0  0  0  0
 13 19  1  0  0  0  0
 13 12  2  0  0  0  0
 14 20  1  6  0  0  0
 14 13  1  0  0  0  0
 15 14  1  0  0  0  0
 15 22  1  0  0  0  0
 15 16  1  0  0  0  0
 16 11  1  0  0  0  0
 21 15  1  0  0  0  0
 23 16  1  0  0  0  0
 24 16  1  0  0  0  0
 25 26  1  0  0  0  0
 25 14  1  0  0  0  0
 27 25  1  0  0  0  0
 28 25  1  0  0  0  0
 29  3  1  0  0  0  0
 30 29  1  0  0  0  0
 31 30  2  0  0  0  0
 31 32  1  0  0  0  0
 32 33  1  0  0  0  0
 33 29  2  0  0  0  0
 34 30  1  0  0  0  0
 35 31  1  0  0  0  0
 36 32  1  0  0  0  0
 37 36  1  0  0  0  0
 38 36  1  0  0  0  0
M  END
>  <minimizedAffinity>
-5.58669138

>  <minimizedRMSD>
0.194230884

$$$$
