
 OpenBabel03232520593D

 38 40  0  0  1  0  0  0  0  0999 V2000
   45.3390   32.8950   47.5200 C   0  0  0  0  0  0  0  0  0  0  0  0
   45.9200   32.6350   46.3190 C   0  0  0  0  0  0  0  0  0  0  0  0
   46.2080   31.2870   46.0920 C   0  0  0  0  0  0  0  0  0  0  0  0
   45.9380   30.2980   46.9820 N   0  0  0  0  0  0  0  0  0  0  0  0
   45.3440   30.6130   48.1960 C   0  0  0  0  0  0  0  0  0  0  0  0
   45.0630   31.8900   48.4320 N   0  0  0  0  0  0  0  0  0  0  0  0
   45.0580   29.6060   49.1460 N   0  0  0  0  0  0  0  0  0  0  0  0
   45.0780   33.9040   47.8020 H   0  0  0  0  0  0  0  0  0  0  0  0
   45.3580   29.6620   50.1630 H   0  0  0  0  0  0  0  0  0  0  0  0
   44.5270   28.7440   48.8810 H   0  0  0  0  0  0  0  0  0  0  0  0
   46.1770   33.5820   45.2880 C   0  0  2  0  0  0  0  0  0  0  0  0
   44.9650   34.6770   45.5070 C   0  0  0  0  0  0  0  0  0  0  0  0
   44.7330   35.5990   44.4320 C   0  0  0  0  0  0  0  0  0  0  0  0
   45.5380   35.5220   43.2120 C   0  0  1  0  0  0  0  0  0  0  0  0
   46.6000   34.5160   43.1670 C   0  0  0  0  0  0  0  0  0  0  0  0
   46.1490   33.2890   43.9260 C   0  0  0  0  0  0  0  0  0  0  0  0
   47.0030   34.2830   45.6160 H   0  0  0  0  0  0  0  0  0  0  0  0
   44.2830   34.8400   46.3320 H   0  0  0  0  0  0  0  0  0  0  0  0
   43.9650   36.3210   44.5310 H   0  0  0  0  0  0  0  0  0  0  0  0
   45.9730   36.5210   42.9930 H   0  0  0  0  0  0  0  0  0  0  0  0
   46.7620   34.2630   42.0780 H   0  0  0  0  0  0  0  0  0  0  0  0
   47.6090   34.8350   43.5090 H   0  0  0  0  0  0  0  0  0  0  0  0
   45.1960   32.9440   43.4740 H   0  0  0  0  0  0  0  0  0  0  0  0
   47.0070   32.6380   43.6060 H   0  0  0  0  0  0  0  0  0  0  0  0
   44.5300   35.2440   42.0550 C   0  0  0  0  0  0  0  0  0  0  0  0
   43.4870   34.4250   42.4440 F   0  0  0  0  0  0  0  0  0  0  0  0
   43.9600   36.4730   41.7310 F   0  0  0  0  0  0  0  0  0  0  0  0
   45.2130   34.8050   40.9360 F   0  0  0  0  0  0  0  0  0  0  0  0
   46.8730   30.5950   45.0050 C   0  0  0  0  0  0  0  0  0  0  0  0
   46.5590   29.9040   43.8790 C   0  0  0  0  0  0  0  0  0  0  0  0
   47.7440   29.4530   43.2900 C   0  0  0  0  0  0  0  0  0  0  0  0
   48.7230   29.8930   44.0850 N   0  0  0  0  0  0  0  0  0  0  0  0
   48.2340   30.5660   45.1000 N   0  0  0  0  0  0  0  0  0  0  0  0
   45.5170   29.8130   43.6310 H   0  0  0  0  0  0  0  0  0  0  0  0
   47.7270   28.8760   42.3760 H   0  0  0  0  0  0  0  0  0  0  0  0
   50.1430   29.6260   43.8080 C   0  0  0  0  0  3  0  0  0  0  0  0
   50.2760   28.7240   42.6070 C   0  0  0  0  0  1  0  0  0  0  0  0
   50.7260   28.8500   44.9960 C   0  0  0  0  0  1  0  0  0  0  0  0
  1  8  1  0  0  0  0
  1  6  1  0  0  0  0
  2  1  2  0  0  0  0
  3  2  1  0  0  0  0
  3  4  2  0  0  0  0
  4  5  1  0  0  0  0
  5  6  2  0  0  0  0
  5  7  1  0  0  0  0
  7  9  1  0  0  0  0
 10  7  1  0  0  0  0
 11 12  1  0  0  0  0
 11 17  1  1  0  0  0
 11  2  1  0  0  0  0
 12 18  1  0  0  0  0
 13 19  1  0  0  0  0
 13 12  2  0  0  0  0
 14 20  1  6  0  0  0
 14 13  1  0  0  0  0
 15 14  1  0  0  0  0
 15 22  1  0  0  0  0
 15 16  1  0  0  0  0
 16 11  1  0  0  0  0
 21 15  1  0  0  0  0
 23 16  1  0  0  0  0
 24 16  1  0  0  0  0
 25 26  1  0  0  0  0
 25 14  1  0  0  0  0
 27 25  1  0  0  0  0
 28 25  1  0  0  0  0
 29 33  2  0  0  0  0
 29  3  1  0  0  0  0
 30 29  1  0  0  0  0
 31 30  2  0  0  0  0
 31 32  1  0  0  0  0
 32 33  1  0  0  0  0
 34 30  1  0  0  0  0
 35 31  1  0  0  0  0
 36 32  1  0  0  0  0
 36 38  1  0  0  0  0
 37 36  1  0  0  0  0
M  END
>  <minimizedAffinity>
-5.51905918

>  <minimizedRMSD>
0.397062749

$$$$
