
 OpenBabel03232520593D

 38 40  0  0  1  0  0  0  0  0999 V2000
   45.3960   32.8840   47.5090 C   0  0  0  0  0  0  0  0  0  0  0  0
   45.9300   32.6330   46.2850 C   0  0  0  0  0  0  0  0  0  0  0  0
   46.1760   31.2830   46.0220 C   0  0  0  0  0  0  0  0  0  0  0  0
   45.9090   30.2830   46.9020 N   0  0  0  0  0  0  0  0  0  0  0  0
   45.3630   30.5890   48.1410 C   0  0  0  0  0  0  0  0  0  0  0  0
   45.1230   31.8670   48.4110 N   0  0  0  0  0  0  0  0  0  0  0  0
   45.0820   29.5710   49.0810 N   0  0  0  0  0  0  0  0  0  0  0  0
   45.1700   33.8920   47.8190 H   0  0  0  0  0  0  0  0  0  0  0  0
   45.4160   29.5990   50.0870 H   0  0  0  0  0  0  0  0  0  0  0  0
   44.5210   28.7280   48.8160 H   0  0  0  0  0  0  0  0  0  0  0  0
   46.1780   33.5940   45.2640 C   0  0  2  0  0  0  0  0  0  0  0  0
   44.9570   34.6760   45.4960 C   0  0  0  0  0  0  0  0  0  0  0  0
   44.7170   35.6070   44.4320 C   0  0  0  0  0  0  0  0  0  0  0  0
   45.5210   35.5510   43.2110 C   0  0  1  0  0  0  0  0  0  0  0  0
   46.5910   34.5540   43.1540 C   0  0  0  0  0  0  0  0  0  0  0  0
   46.1520   33.3150   43.8990 C   0  0  0  0  0  0  0  0  0  0  0  0
   46.9980   34.2980   45.6000 H   0  0  0  0  0  0  0  0  0  0  0  0
   44.2750   34.8230   46.3240 H   0  0  0  0  0  0  0  0  0  0  0  0
   43.9420   36.3220   44.5400 H   0  0  0  0  0  0  0  0  0  0  0  0
   45.9470   36.5560   43.0030 H   0  0  0  0  0  0  0  0  0  0  0  0
   46.7550   34.3150   42.0620 H   0  0  0  0  0  0  0  0  0  0  0  0
   47.5990   34.8790   43.4990 H   0  0  0  0  0  0  0  0  0  0  0  0
   45.2010   32.9670   43.4440 H   0  0  0  0  0  0  0  0  0  0  0  0
   47.0160   32.6760   43.5710 H   0  0  0  0  0  0  0  0  0  0  0  0
   44.5150   35.2770   42.0510 C   0  0  0  0  0  0  0  0  0  0  0  0
   43.4620   34.4710   42.4400 F   0  0  0  0  0  0  0  0  0  0  0  0
   43.9590   36.5100   41.7190 F   0  0  0  0  0  0  0  0  0  0  0  0
   45.1970   34.8260   40.9370 F   0  0  0  0  0  0  0  0  0  0  0  0
   46.7880   30.5960   44.9020 C   0  0  0  0  0  0  0  0  0  0  0  0
   46.4200   29.8670   43.8170 C   0  0  0  0  0  0  0  0  0  0  0  0
   47.5770   29.4550   43.1470 C   0  0  0  0  0  0  0  0  0  0  0  0
   48.5920   29.9540   43.8570 N   0  0  0  0  0  0  0  0  0  0  0  0
   48.1520   30.6280   44.8930 N   0  0  0  0  0  0  0  0  0  0  0  0
   45.3690   29.7260   43.6490 H   0  0  0  0  0  0  0  0  0  0  0  0
   47.5170   28.8580   42.2480 H   0  0  0  0  0  0  0  0  0  0  0  0
   49.9980   29.7420   43.4770 C   0  0  0  0  0  3  0  0  0  0  0  0
   50.4970   30.9080   42.6650 C   0  0  0  0  0  1  0  0  0  0  0  0
   50.0670   28.5150   42.5600 C   0  0  0  0  0  1  0  0  0  0  0  0
  1  8  1  0  0  0  0
  1  6  1  0  0  0  0
  2  1  2  0  0  0  0
  3  2  1  0  0  0  0
  3  4  2  0  0  0  0
  4  5  1  0  0  0  0
  5  6  2  0  0  0  0
  5  7  1  0  0  0  0
  7  9  1  0  0  0  0
 10  7  1  0  0  0  0
 11 12  1  0  0  0  0
 11 17  1  1  0  0  0
 11  2  1  0  0  0  0
 12 18  1  0  0  0  0
 13 19  1  0  0  0  0
 13 12  2  0  0  0  0
 14 20  1  6  0  0  0
 14 13  1  0  0  0  0
 15 14  1  0  0  0  0
 15 22  1  0  0  0  0
 15 16  1  0  0  0  0
 16 11  1  0  0  0  0
 21 15  1  0  0  0  0
 23 16  1  0  0  0  0
 24 16  1  0  0  0  0
 25 26  1  0  0  0  0
 25 14  1  0  0  0  0
 27 25  1  0  0  0  0
 28 25  1  0  0  0  0
 29  3  1  0  0  0  0
 30 29  1  0  0  0  0
 31 30  2  0  0  0  0
 31 32  1  0  0  0  0
 32 33  1  0  0  0  0
 33 29  2  0  0  0  0
 34 30  1  0  0  0  0
 35 31  1  0  0  0  0
 36 32  1  0  0  0  0
 37 36  1  0  0  0  0
 38 36  1  0  0  0  0
M  END
>  <minimizedAffinity>
-5.58399391

>  <minimizedRMSD>
0.0977090672

$$$$
