
 OpenBabel03232520583D

 38 40  0  0  1  0  0  0  0  0999 V2000
   45.3980   32.8790   47.5080 C   0  0  0  0  0  0  0  0  0  0  0  0
   45.9310   32.6280   46.2840 C   0  0  0  0  0  0  0  0  0  0  0  0
   46.1740   31.2780   46.0190 C   0  0  0  0  0  0  0  0  0  0  0  0
   45.9070   30.2780   46.8980 N   0  0  0  0  0  0  0  0  0  0  0  0
   45.3630   30.5830   48.1380 C   0  0  0  0  0  0  0  0  0  0  0  0
   45.1250   31.8620   48.4100 N   0  0  0  0  0  0  0  0  0  0  0  0
   45.0810   29.5650   49.0770 N   0  0  0  0  0  0  0  0  0  0  0  0
   45.1750   33.8880   47.8200 H   0  0  0  0  0  0  0  0  0  0  0  0
   45.4170   29.5910   50.0830 H   0  0  0  0  0  0  0  0  0  0  0  0
   44.5180   28.7230   48.8130 H   0  0  0  0  0  0  0  0  0  0  0  0
   46.1790   33.5900   45.2640 C   0  0  2  0  0  0  0  0  0  0  0  0
   44.9590   34.6720   45.4970 C   0  0  0  0  0  0  0  0  0  0  0  0
   44.7190   35.6050   44.4340 C   0  0  0  0  0  0  0  0  0  0  0  0
   45.5230   35.5490   43.2120 C   0  0  1  0  0  0  0  0  0  0  0  0
   46.5920   34.5520   43.1540 C   0  0  0  0  0  0  0  0  0  0  0  0
   46.1520   33.3120   43.8980 C   0  0  0  0  0  0  0  0  0  0  0  0
   47.0000   34.2930   45.5990 H   0  0  0  0  0  0  0  0  0  0  0  0
   44.2770   34.8190   46.3250 H   0  0  0  0  0  0  0  0  0  0  0  0
   43.9440   36.3200   44.5420 H   0  0  0  0  0  0  0  0  0  0  0  0
   45.9490   36.5540   43.0040 H   0  0  0  0  0  0  0  0  0  0  0  0
   46.7550   34.3130   42.0610 H   0  0  0  0  0  0  0  0  0  0  0  0
   47.6000   34.8750   43.4990 H   0  0  0  0  0  0  0  0  0  0  0  0
   45.2010   32.9650   43.4430 H   0  0  0  0  0  0  0  0  0  0  0  0
   47.0150   32.6730   43.5700 H   0  0  0  0  0  0  0  0  0  0  0  0
   44.5160   35.2760   42.0520 C   0  0  0  0  0  0  0  0  0  0  0  0
   43.4630   34.4700   42.4410 F   0  0  0  0  0  0  0  0  0  0  0  0
   43.9600   36.5100   41.7210 F   0  0  0  0  0  0  0  0  0  0  0  0
   45.1970   34.8260   40.9380 F   0  0  0  0  0  0  0  0  0  0  0  0
   46.7820   30.5910   44.8970 C   0  0  0  0  0  0  0  0  0  0  0  0
   46.4120   29.8650   43.8110 C   0  0  0  0  0  0  0  0  0  0  0  0
   47.5670   29.4510   43.1400 C   0  0  0  0  0  0  0  0  0  0  0  0
   48.5840   29.9470   43.8490 N   0  0  0  0  0  0  0  0  0  0  0  0
   48.1470   30.6200   44.8870 N   0  0  0  0  0  0  0  0  0  0  0  0
   45.3600   29.7260   43.6450 H   0  0  0  0  0  0  0  0  0  0  0  0
   47.5050   28.8550   42.2400 H   0  0  0  0  0  0  0  0  0  0  0  0
   49.9900   29.7320   43.4670 C   0  0  0  0  0  3  0  0  0  0  0  0
   50.4940   30.9050   42.6680 C   0  0  0  0  0  1  0  0  0  0  0  0
   50.0530   28.5160   42.5360 C   0  0  0  0  0  1  0  0  0  0  0  0
  1  8  1  0  0  0  0
  1  6  1  0  0  0  0
  2  1  2  0  0  0  0
  3  2  1  0  0  0  0
  3  4  2  0  0  0  0
  4  5  1  0  0  0  0
  5  6  2  0  0  0  0
  5  7  1  0  0  0  0
  7  9  1  0  0  0  0
 10  7  1  0  0  0  0
 11 12  1  0  0  0  0
 11 17  1  1  0  0  0
 11  2  1  0  0  0  0
 12 18  1  0  0  0  0
 13 19  1  0  0  0  0
 13 12  2  0  0  0  0
 14 20  1  6  0  0  0
 14 13  1  0  0  0  0
 15 14  1  0  0  0  0
 15 22  1  0  0  0  0
 15 16  1  0  0  0  0
 16 11  1  0  0  0  0
 21 15  1  0  0  0  0
 23 16  1  0  0  0  0
 24 16  1  0  0  0  0
 25 26  1  0  0  0  0
 25 14  1  0  0  0  0
 27 25  1  0  0  0  0
 28 25  1  0  0  0  0
 29  3  1  0  0  0  0
 30 29  1  0  0  0  0
 31 30  2  0  0  0  0
 31 32  1  0  0  0  0
 32 33  1  0  0  0  0
 33 29  2  0  0  0  0
 34 30  1  0  0  0  0
 35 31  1  0  0  0  0
 36 32  1  0  0  0  0
 37 36  1  0  0  0  0
 38 36  1  0  0  0  0
M  END
>  <minimizedAffinity>
-5.58429909

>  <minimizedRMSD>
0.0632866547

$$$$
