
 OpenBabel03232519423D

 45 48  0  0  0  0  0  0  0  0999 V2000
   46.5540   34.3700   42.1020 N   0  0  0  0  0  0  0  0  0  0  0  0
   47.6630   35.1890   41.9860 C   0  0  0  0  0  0  0  0  0  0  0  0
   48.3940   35.2320   40.8320 C   0  0  0  0  0  0  0  0  0  0  0  0
   47.9830   34.4200   39.7720 C   0  0  0  0  0  0  0  0  0  0  0  0
   48.6380   34.4520   38.7130 O   0  0  0  0  0  0  0  0  0  0  0  0
   46.9010   33.6460   39.9470 N   0  0  0  0  0  0  0  0  0  0  0  0
   46.2010   33.6240   41.0890 C   0  0  0  0  0  0  0  0  0  0  0  0
   45.2150   32.9540   41.3060 O   0  0  0  0  0  0  0  0  0  0  0  0
   48.0320   35.8400   42.7680 H   0  0  0  0  0  0  0  0  0  0  0  0
   49.2650   35.8610   40.7050 H   0  0  0  0  0  0  0  0  0  0  0  0
   44.5880   35.7380   44.9160 C   0  0  0  0  0  0  0  0  0  0  0  0
   45.1660   35.6150   43.6330 C   0  0  0  0  0  0  0  0  0  0  0  0
   45.9660   34.5030   43.4020 C   0  0  0  0  0  0  0  0  0  0  0  0
   46.1650   33.5880   44.3970 N   0  0  0  0  0  0  0  0  0  0  0  0
   45.5840   33.7570   45.6180 C   0  0  0  0  0  0  0  0  0  0  0  0
   44.8080   34.8140   45.8760 N   0  0  0  0  0  0  0  0  0  0  0  0
   43.9510   36.6010   45.1390 H   0  0  0  0  0  0  0  0  0  0  0  0
   44.9630   36.3760   42.8990 H   0  0  0  0  0  0  0  0  0  0  0  0
   45.8530   32.7420   46.5970 N   0  0  0  0  0  0  0  0  0  0  0  0
   45.0440   32.6630   47.7770 C   0  0  0  0  0  0  0  0  0  0  0  0
   45.8140   32.3000   49.0170 C   0  0  0  0  0  0  0  0  0  0  0  0
   46.9750   31.3830   48.7480 C   0  0  0  0  0  0  0  0  0  0  0  0
   46.6680   30.3470   48.5590 H   0  0  0  0  0  0  0  0  0  0  0  0
   47.8190   31.8340   47.5830 C   0  0  0  0  0  0  0  0  0  0  0  0
   46.9530   31.8130   46.3590 C   0  0  0  0  0  0  0  0  0  0  0  0
   46.4510   32.8020   38.9100 C   0  0  0  0  0  0  0  0  0  0  0  0
   45.5110   33.1730   37.9700 C   0  0  0  0  0  0  0  0  0  0  0  0
   45.1180   32.2980   36.9870 C   0  0  0  0  0  0  0  0  0  0  0  0
   45.6530   31.0300   36.9180 C   0  0  0  0  0  0  0  0  0  0  0  0
   46.5750   30.6880   37.8540 C   0  0  0  0  0  0  0  0  0  0  0  0
   47.0250   31.5330   38.8890 C   0  0  0  0  0  0  0  0  0  0  0  0
   45.1210   34.1830   38.0690 H   0  0  0  0  0  0  0  0  0  0  0  0
   44.3750   32.6940   36.3030 H   0  0  0  0  0  0  0  0  0  0  0  0
   45.3320   30.3750   36.1490 H   0  0  0  0  0  0  0  0  0  0  0  0
   46.9750   29.6670   37.7600 H   0  0  0  0  0  0  0  0  0  0  0  0
   48.0400   31.0590   39.8580 C   0  0  0  0  0  0  0  0  0  0  0  0
   48.2410   29.9860   39.5360 H   0  0  0  0  0  0  0  0  0  0  0  0
   49.3290   31.8020   39.8440 C   0  0  0  0  0  0  0  0  0  0  0  0
   49.5990   32.3830   40.7410 H   0  0  0  0  0  0  0  0  0  0  0  0
   49.7710   32.0410   38.8880 H   0  0  0  0  0  0  0  0  0  0  0  0
   50.0810   30.9500   40.1070 H   0  0  0  0  0  0  0  0  0  0  0  0
   47.5600   31.0430   41.2740 C   0  0  0  0  0  0  0  0  0  0  0  0
   48.1220   30.1240   41.7130 H   0  0  0  0  0  0  0  0  0  0  0  0
   46.5640   30.6950   41.4680 H   0  0  0  0  0  0  0  0  0  0  0  0
   48.0460   31.7600   41.9620 H   0  0  0  0  0  0  0  0  0  0  0  0
  1 13  1  0  0  0  0
  2  1  1  0  0  0  0
  2  9  1  0  0  0  0
  3  2  2  0  0  0  0
  4  6  1  0  0  0  0
  4  3  1  0  0  0  0
  5  4  2  0  0  0  0
  6  7  1  0  0  0  0
  7  8  2  0  0  0  0
  7  1  1  0  0  0  0
 10  3  1  0  0  0  0
 11 17  1  0  0  0  0
 11 16  1  0  0  0  0
 12 11  2  0  0  0  0
 13 12  1  0  0  0  0
 13 14  2  0  0  0  0
 14 15  1  0  0  0  0
 15 16  2  0  0  0  0
 15 19  1  0  0  0  0
 18 12  1  0  0  0  0
 19 20  1  0  0  0  0
 20 21  1  0  0  0  0
 22 21  1  0  0  0  0
 23 22  1  0  0  0  0
 24 22  1  0  0  0  0
 25 19  1  0  0  0  0
 25 24  1  0  0  0  0
 26  6  1  0  0  0  0
 27 32  1  0  0  0  0
 27 26  2  0  0  0  0
 28 27  1  0  0  0  0
 29 28  2  0  0  0  0
 29 30  1  0  0  0  0
 30 31  2  0  0  0  0
 31 26  1  0  0  0  0
 31 36  1  0  0  0  0
 33 28  1  0  0  0  0
 34 29  1  0  0  0  0
 35 30  1  0  0  0  0
 36 42  1  0  0  0  0
 37 36  1  0  0  0  0
 38 36  1  0  0  0  0
 38 41  1  0  0  0  0
 38 39  1  0  0  0  0
 40 38  1  0  0  0  0
 42 44  1  0  0  0  0
 42 43  1  0  0  0  0
 42 45  1  0  0  0  0
M  END
>  <minimizedAffinity>
-6.75915623

>  <minimizedRMSD>
0.223909616

$$$$
