
 OpenBabel03232520593D

 38 40  0  0  1  0  0  0  0  0999 V2000
   45.3980   32.8820   47.5090 C   0  0  0  0  0  0  0  0  0  0  0  0
   45.9300   32.6320   46.2840 C   0  0  0  0  0  0  0  0  0  0  0  0
   46.1730   31.2810   46.0210 C   0  0  0  0  0  0  0  0  0  0  0  0
   45.9060   30.2820   46.9000 N   0  0  0  0  0  0  0  0  0  0  0  0
   45.3630   30.5870   48.1400 C   0  0  0  0  0  0  0  0  0  0  0  0
   45.1250   31.8660   48.4110 N   0  0  0  0  0  0  0  0  0  0  0  0
   45.0810   29.5690   49.0790 N   0  0  0  0  0  0  0  0  0  0  0  0
   45.1740   33.8910   47.8200 H   0  0  0  0  0  0  0  0  0  0  0  0
   45.4170   29.5960   50.0860 H   0  0  0  0  0  0  0  0  0  0  0  0
   44.5180   28.7280   48.8160 H   0  0  0  0  0  0  0  0  0  0  0  0
   46.1780   33.5920   45.2640 C   0  0  2  0  0  0  0  0  0  0  0  0
   44.9580   34.6750   45.4960 C   0  0  0  0  0  0  0  0  0  0  0  0
   44.7170   35.6070   44.4330 C   0  0  0  0  0  0  0  0  0  0  0  0
   45.5220   35.5500   43.2110 C   0  0  1  0  0  0  0  0  0  0  0  0
   46.5910   34.5530   43.1530 C   0  0  0  0  0  0  0  0  0  0  0  0
   46.1520   33.3140   43.8990 C   0  0  0  0  0  0  0  0  0  0  0  0
   46.9990   34.2960   45.5990 H   0  0  0  0  0  0  0  0  0  0  0  0
   44.2760   34.8220   46.3240 H   0  0  0  0  0  0  0  0  0  0  0  0
   43.9430   36.3210   44.5400 H   0  0  0  0  0  0  0  0  0  0  0  0
   45.9480   36.5560   43.0030 H   0  0  0  0  0  0  0  0  0  0  0  0
   46.7540   34.3140   42.0610 H   0  0  0  0  0  0  0  0  0  0  0  0
   47.5990   34.8770   43.4980 H   0  0  0  0  0  0  0  0  0  0  0  0
   45.2010   32.9670   43.4430 H   0  0  0  0  0  0  0  0  0  0  0  0
   47.0150   32.6740   43.5700 H   0  0  0  0  0  0  0  0  0  0  0  0
   44.5150   35.2770   42.0510 C   0  0  0  0  0  0  0  0  0  0  0  0
   43.4610   34.4720   42.4410 F   0  0  0  0  0  0  0  0  0  0  0  0
   43.9590   36.5110   41.7190 F   0  0  0  0  0  0  0  0  0  0  0  0
   45.1960   34.8260   40.9370 F   0  0  0  0  0  0  0  0  0  0  0  0
   46.7820   30.5940   44.8990 C   0  0  0  0  0  0  0  0  0  0  0  0
   46.4120   29.8670   43.8130 C   0  0  0  0  0  0  0  0  0  0  0  0
   47.5670   29.4530   43.1420 C   0  0  0  0  0  0  0  0  0  0  0  0
   48.5840   29.9490   43.8510 N   0  0  0  0  0  0  0  0  0  0  0  0
   48.1460   30.6230   44.8890 N   0  0  0  0  0  0  0  0  0  0  0  0
   45.3600   29.7280   43.6470 H   0  0  0  0  0  0  0  0  0  0  0  0
   47.5050   28.8560   42.2430 H   0  0  0  0  0  0  0  0  0  0  0  0
   49.9890   29.7340   43.4690 C   0  0  0  0  0  3  0  0  0  0  0  0
   50.4930   30.9060   42.6670 C   0  0  0  0  0  1  0  0  0  0  0  0
   50.0540   28.5160   42.5410 C   0  0  0  0  0  1  0  0  0  0  0  0
  1  8  1  0  0  0  0
  1  6  1  0  0  0  0
  2  1  2  0  0  0  0
  3  2  1  0  0  0  0
  3  4  2  0  0  0  0
  4  5  1  0  0  0  0
  5  6  2  0  0  0  0
  5  7  1  0  0  0  0
  7  9  1  0  0  0  0
 10  7  1  0  0  0  0
 11 12  1  0  0  0  0
 11 17  1  1  0  0  0
 11  2  1  0  0  0  0
 12 18  1  0  0  0  0
 13 19  1  0  0  0  0
 13 12  2  0  0  0  0
 14 20  1  6  0  0  0
 14 13  1  0  0  0  0
 15 14  1  0  0  0  0
 15 22  1  0  0  0  0
 15 16  1  0  0  0  0
 16 11  1  0  0  0  0
 21 15  1  0  0  0  0
 23 16  1  0  0  0  0
 24 16  1  0  0  0  0
 25 26  1  0  0  0  0
 25 14  1  0  0  0  0
 27 25  1  0  0  0  0
 28 25  1  0  0  0  0
 29  3  1  0  0  0  0
 30 29  1  0  0  0  0
 31 30  2  0  0  0  0
 31 32  1  0  0  0  0
 32 33  1  0  0  0  0
 33 29  2  0  0  0  0
 34 30  1  0  0  0  0
 35 31  1  0  0  0  0
 36 32  1  0  0  0  0
 37 36  1  0  0  0  0
 38 36  1  0  0  0  0
M  END
>  <minimizedAffinity>
-5.58605289

>  <minimizedRMSD>
0.146360323

$$$$
