
 OpenBabel03232520593D

 38 40  0  0  1  0  0  0  0  0999 V2000
   45.3980   32.8820   47.5090 C   0  0  0  0  0  0  0  0  0  0  0  0
   45.9300   32.6320   46.2840 C   0  0  0  0  0  0  0  0  0  0  0  0
   46.1740   31.2810   46.0210 C   0  0  0  0  0  0  0  0  0  0  0  0
   45.9070   30.2820   46.9010 N   0  0  0  0  0  0  0  0  0  0  0  0
   45.3630   30.5870   48.1400 C   0  0  0  0  0  0  0  0  0  0  0  0
   45.1250   31.8660   48.4110 N   0  0  0  0  0  0  0  0  0  0  0  0
   45.0820   29.5690   49.0800 N   0  0  0  0  0  0  0  0  0  0  0  0
   45.1730   33.8910   47.8200 H   0  0  0  0  0  0  0  0  0  0  0  0
   45.4170   29.5970   50.0860 H   0  0  0  0  0  0  0  0  0  0  0  0
   44.5190   28.7280   48.8160 H   0  0  0  0  0  0  0  0  0  0  0  0
   46.1780   33.5920   45.2640 C   0  0  2  0  0  0  0  0  0  0  0  0
   44.9580   34.6750   45.4960 C   0  0  0  0  0  0  0  0  0  0  0  0
   44.7170   35.6070   44.4330 C   0  0  0  0  0  0  0  0  0  0  0  0
   45.5220   35.5500   43.2110 C   0  0  1  0  0  0  0  0  0  0  0  0
   46.5910   34.5540   43.1540 C   0  0  0  0  0  0  0  0  0  0  0  0
   46.1520   33.3140   43.8990 C   0  0  0  0  0  0  0  0  0  0  0  0
   46.9990   34.2960   45.5990 H   0  0  0  0  0  0  0  0  0  0  0  0
   44.2750   34.8220   46.3240 H   0  0  0  0  0  0  0  0  0  0  0  0
   43.9430   36.3210   44.5400 H   0  0  0  0  0  0  0  0  0  0  0  0
   45.9480   36.5560   43.0030 H   0  0  0  0  0  0  0  0  0  0  0  0
   46.7550   34.3140   42.0610 H   0  0  0  0  0  0  0  0  0  0  0  0
   47.5990   34.8780   43.4980 H   0  0  0  0  0  0  0  0  0  0  0  0
   45.2010   32.9670   43.4430 H   0  0  0  0  0  0  0  0  0  0  0  0
   47.0150   32.6750   43.5700 H   0  0  0  0  0  0  0  0  0  0  0  0
   44.5150   35.2770   42.0510 C   0  0  0  0  0  0  0  0  0  0  0  0
   43.4620   34.4710   42.4400 F   0  0  0  0  0  0  0  0  0  0  0  0
   43.9590   36.5100   41.7190 F   0  0  0  0  0  0  0  0  0  0  0  0
   45.1970   34.8250   40.9370 F   0  0  0  0  0  0  0  0  0  0  0  0
   46.7830   30.5940   44.8990 C   0  0  0  0  0  0  0  0  0  0  0  0
   46.4140   29.8670   43.8130 C   0  0  0  0  0  0  0  0  0  0  0  0
   47.5690   29.4530   43.1430 C   0  0  0  0  0  0  0  0  0  0  0  0
   48.5860   29.9490   43.8520 N   0  0  0  0  0  0  0  0  0  0  0  0
   48.1480   30.6230   44.8890 N   0  0  0  0  0  0  0  0  0  0  0  0
   45.3610   29.7280   43.6470 H   0  0  0  0  0  0  0  0  0  0  0  0
   47.5070   28.8570   42.2430 H   0  0  0  0  0  0  0  0  0  0  0  0
   49.9910   29.7350   43.4710 C   0  0  0  0  0  3  0  0  0  0  0  0
   50.4940   30.9070   42.6670 C   0  0  0  0  0  1  0  0  0  0  0  0
   50.0560   28.5150   42.5440 C   0  0  0  0  0  1  0  0  0  0  0  0
  1  8  1  0  0  0  0
  1  6  1  0  0  0  0
  2  1  2  0  0  0  0
  3  2  1  0  0  0  0
  3  4  2  0  0  0  0
  4  5  1  0  0  0  0
  5  6  2  0  0  0  0
  5  7  1  0  0  0  0
  7  9  1  0  0  0  0
 10  7  1  0  0  0  0
 11 12  1  0  0  0  0
 11 17  1  1  0  0  0
 11  2  1  0  0  0  0
 12 18  1  0  0  0  0
 13 19  1  0  0  0  0
 13 12  2  0  0  0  0
 14 20  1  6  0  0  0
 14 13  1  0  0  0  0
 15 14  1  0  0  0  0
 15 22  1  0  0  0  0
 15 16  1  0  0  0  0
 16 11  1  0  0  0  0
 21 15  1  0  0  0  0
 23 16  1  0  0  0  0
 24 16  1  0  0  0  0
 25 26  1  0  0  0  0
 25 14  1  0  0  0  0
 27 25  1  0  0  0  0
 28 25  1  0  0  0  0
 29  3  1  0  0  0  0
 30 29  1  0  0  0  0
 31 30  2  0  0  0  0
 31 32  1  0  0  0  0
 32 33  1  0  0  0  0
 33 29  2  0  0  0  0
 34 30  1  0  0  0  0
 35 31  1  0  0  0  0
 36 32  1  0  0  0  0
 37 36  1  0  0  0  0
 38 36  1  0  0  0  0
M  END
>  <minimizedAffinity>
-5.58592081

>  <minimizedRMSD>
0.344596624

$$$$
