
 OpenBabel03232520593D

 38 40  0  0  1  0  0  0  0  0999 V2000
   45.4510   32.8610   47.5090 C   0  0  0  0  0  0  0  0  0  0  0  0
   45.9430   32.6120   46.2670 C   0  0  0  0  0  0  0  0  0  0  0  0
   46.1430   31.2580   45.9810 C   0  0  0  0  0  0  0  0  0  0  0  0
   45.8740   30.2550   46.8560 N   0  0  0  0  0  0  0  0  0  0  0  0
   45.3730   30.5600   48.1130 C   0  0  0  0  0  0  0  0  0  0  0  0
   45.1760   31.8410   48.4060 N   0  0  0  0  0  0  0  0  0  0  0  0
   45.0900   29.5380   49.0480 N   0  0  0  0  0  0  0  0  0  0  0  0
   45.2620   33.8710   47.8380 H   0  0  0  0  0  0  0  0  0  0  0  0
   45.4530   29.5430   50.0450 H   0  0  0  0  0  0  0  0  0  0  0  0
   44.4980   28.7140   48.7900 H   0  0  0  0  0  0  0  0  0  0  0  0
   46.1880   33.5780   45.2510 C   0  0  2  0  0  0  0  0  0  0  0  0
   44.9690   34.6590   45.4940 C   0  0  0  0  0  0  0  0  0  0  0  0
   44.7250   35.5980   44.4360 C   0  0  0  0  0  0  0  0  0  0  0  0
   45.5260   35.5480   43.2120 C   0  0  1  0  0  0  0  0  0  0  0  0
   46.5950   34.5520   43.1460 C   0  0  0  0  0  0  0  0  0  0  0  0
   46.1580   33.3080   43.8850 C   0  0  0  0  0  0  0  0  0  0  0  0
   47.0100   34.2800   45.5890 H   0  0  0  0  0  0  0  0  0  0  0  0
   44.2890   34.8020   46.3240 H   0  0  0  0  0  0  0  0  0  0  0  0
   43.9520   36.3120   44.5510 H   0  0  0  0  0  0  0  0  0  0  0  0
   45.9520   36.5550   43.0090 H   0  0  0  0  0  0  0  0  0  0  0  0
   46.7560   34.3190   42.0510 H   0  0  0  0  0  0  0  0  0  0  0  0
   47.6040   34.8730   43.4900 H   0  0  0  0  0  0  0  0  0  0  0  0
   45.2060   32.9630   43.4300 H   0  0  0  0  0  0  0  0  0  0  0  0
   47.0200   32.6700   43.5500 H   0  0  0  0  0  0  0  0  0  0  0  0
   44.5160   35.2820   42.0540 C   0  0  0  0  0  0  0  0  0  0  0  0
   43.4560   34.4860   42.4450 F   0  0  0  0  0  0  0  0  0  0  0  0
   43.9710   36.5200   41.7200 F   0  0  0  0  0  0  0  0  0  0  0  0
   45.1930   34.8230   40.9400 F   0  0  0  0  0  0  0  0  0  0  0  0
   46.7020   30.5700   44.8350 C   0  0  0  0  0  0  0  0  0  0  0  0
   46.2830   29.8780   43.7440 C   0  0  0  0  0  0  0  0  0  0  0  0
   47.4080   29.4330   43.0420 C   0  0  0  0  0  0  0  0  0  0  0  0
   48.4570   29.8760   43.7390 N   0  0  0  0  0  0  0  0  0  0  0  0
   48.0660   30.5470   44.7970 N   0  0  0  0  0  0  0  0  0  0  0  0
   45.2230   29.7830   43.5970 H   0  0  0  0  0  0  0  0  0  0  0  0
   47.3050   28.8560   42.1330 H   0  0  0  0  0  0  0  0  0  0  0  0
   49.8450   29.6150   43.3250 C   0  0  0  0  0  3  0  0  0  0  0  0
   50.6950   29.3000   44.5290 C   0  0  0  0  0  1  0  0  0  0  0  0
   50.4150   30.9030   42.7190 C   0  0  0  0  0  1  0  0  0  0  0  0
  1  8  1  0  0  0  0
  1  6  1  0  0  0  0
  2  1  2  0  0  0  0
  3  2  1  0  0  0  0
  3  4  2  0  0  0  0
  4  5  1  0  0  0  0
  5  6  2  0  0  0  0
  5  7  1  0  0  0  0
  7  9  1  0  0  0  0
 10  7  1  0  0  0  0
 11 12  1  0  0  0  0
 11 17  1  1  0  0  0
 11  2  1  0  0  0  0
 12 18  1  0  0  0  0
 13 19  1  0  0  0  0
 13 12  2  0  0  0  0
 14 20  1  6  0  0  0
 14 13  1  0  0  0  0
 15 14  1  0  0  0  0
 15 22  1  0  0  0  0
 15 16  1  0  0  0  0
 16 11  1  0  0  0  0
 21 15  1  0  0  0  0
 23 16  1  0  0  0  0
 24 16  1  0  0  0  0
 25 26  1  0  0  0  0
 25 14  1  0  0  0  0
 27 25  1  0  0  0  0
 28 25  1  0  0  0  0
 29  3  1  0  0  0  0
 30 29  1  0  0  0  0
 31 32  1  0  0  0  0
 31 30  2  0  0  0  0
 32 33  1  0  0  0  0
 33 29  2  0  0  0  0
 34 30  1  0  0  0  0
 35 31  1  0  0  0  0
 36 32  1  0  0  0  0
 36 37  1  0  0  0  0
 38 36  1  0  0  0  0
M  END
>  <minimizedAffinity>
-5.64120245

>  <minimizedRMSD>
0.380071223

$$$$
