
 OpenBabel03232517423D

 38 41  0  0  0  0  0  0  0  0999 V2000
   45.4430   34.9390   41.9210 C   0  0  0  0  0  0  0  0  0  0  0  0
   44.8680   33.7290   41.5200 C   0  0  0  0  0  0  0  0  0  0  0  0
   44.6260   32.7930   42.5140 C   0  0  0  0  0  0  0  0  0  0  0  0
   44.9550   33.0920   43.8150 N   0  0  0  0  0  0  0  0  0  0  0  0
   45.4970   34.2560   44.1390 C   0  0  0  0  0  0  0  0  0  0  0  0
   45.7420   35.1770   43.2030 N   0  0  0  0  0  0  0  0  0  0  0  0
   45.6630   35.7220   41.2080 H   0  0  0  0  0  0  0  0  0  0  0  0
   45.7660   34.5160   45.1540 H   0  0  0  0  0  0  0  0  0  0  0  0
   44.0420   31.5600   42.1200 N   0  0  0  0  0  0  0  0  0  0  0  0
   44.8550   30.5130   41.8320 C   0  0  0  0  0  0  0  0  0  0  0  0
   44.2710   29.3390   41.4560 C   0  0  0  0  0  0  0  0  0  0  0  0
   42.8910   29.1840   41.3600 C   0  0  0  0  0  0  0  0  0  0  0  0
   42.4490   28.0690   41.0070 O   0  0  0  0  0  0  0  0  0  0  0  0
   42.1190   30.2410   41.6530 N   0  0  0  0  0  0  0  0  0  0  0  0
   42.6900   31.3910   42.0210 C   0  0  0  0  0  0  0  0  0  0  0  0
   41.9280   32.3520   42.2860 O   0  0  0  0  0  0  0  0  0  0  0  0
   45.9320   30.6450   41.9090 H   0  0  0  0  0  0  0  0  0  0  0  0
   41.0750   30.1380   41.5860 H   0  0  0  0  0  0  0  0  0  0  0  0
   45.1990   28.1930   41.1410 C   0  0  0  0  0  0  0  0  0  0  0  0
   44.7930   27.5900   40.3190 H   0  0  0  0  0  0  0  0  0  0  0  0
   46.1710   28.5860   40.7760 H   0  0  0  0  0  0  0  0  0  0  0  0
   45.3560   27.6140   42.0850 H   0  0  0  0  0  0  0  0  0  0  0  0
   44.5870   33.5650   40.1590 N   0  0  0  0  0  0  0  0  0  0  0  0
   45.4130   32.9460   39.3750 N   0  0  0  0  0  0  0  0  0  0  0  0
   44.9230   32.9160   38.1140 C   0  0  0  0  0  0  0  0  0  0  0  0
   43.7010   33.5840   38.2030 C   0  0  0  0  0  0  0  0  0  0  0  0
   43.4840   34.0020   39.5180 C   0  0  0  0  0  0  0  0  0  0  0  0
   45.3770   32.4750   37.2390 H   0  0  0  0  0  0  0  0  0  0  0  0
   43.0300   33.7440   37.3520 H   0  0  0  0  0  0  0  0  0  0  0  0
   42.3430   34.7230   40.0310 C   0  0  0  0  0  0  0  0  0  0  0  0
   42.4210   35.5650   40.9540 O   0  0  0  0  0  0  0  0  0  0  0  0
   41.0100   34.5020   39.4820 C   0  0  0  0  0  0  0  0  0  0  0  0
   39.9600   34.2040   40.3460 C   0  0  0  0  0  0  0  0  0  0  0  0
   38.6620   33.9830   39.8710 C   0  0  0  0  0  0  0  0  0  0  0  0
   38.4090   34.0640   38.4970 C   0  0  0  0  0  0  0  0  0  0  0  0
   37.4150   33.8930   38.1480 H   0  0  0  0  0  0  0  0  0  0  0  0
   39.4730   34.3580   37.6990 C   0  0  0  0  0  0  0  0  0  0  0  0
   40.7430   34.5750   38.1450 N   0  0  0  0  0  0  0  0  0  0  0  0
  1  6  1  0  0  0  0
  2  1  2  0  0  0  0
  2  3  1  0  0  0  0
  3  4  2  0  0  0  0
  4  5  1  0  0  0  0
  5  8  1  0  0  0  0
  6  5  2  0  0  0  0
  7  1  1  0  0  0  0
  9  3  1  0  0  0  0
 10 17  1  0  0  0  0
 10  9  1  0  0  0  0
 11 10  2  0  0  0  0
 12 11  1  0  0  0  0
 12 14  1  0  0  0  0
 13 12  2  0  0  0  0
 14 15  1  0  0  0  0
 15  9  1  0  0  0  0
 15 16  2  0  0  0  0
 18 14  1  0  0  0  0
 19 11  1  0  0  0  0
 19 22  1  0  0  0  0
 20 19  1  0  0  0  0
 21 19  1  0  0  0  0
 23  2  1  0  0  0  0
 24 23  1  0  0  0  0
 25 26  1  0  0  0  0
 25 24  2  0  0  0  0
 26 27  2  0  0  0  0
 27 30  1  0  0  0  0
 27 23  1  0  0  0  0
 28 25  1  0  0  0  0
 29 26  1  0  0  0  0
 30 31  2  0  0  0  0
 32 30  1  0  0  0  0
 32 33  1  0  0  0  0
 34 33  2  0  0  0  0
 35 34  1  0  0  0  0
 36 35  1  0  0  0  0
 37 38  1  0  0  0  0
 37 35  2  0  0  0  0
 38 32  2  0  0  0  0
M  END
>  <minimizedAffinity>
-4.87815714

>  <minimizedRMSD>
3.56570721

$$$$
