
 OpenBabel03232520593D

 38 40  0  0  1  0  0  0  0  0999 V2000
   45.4510   32.8600   47.5080 C   0  0  0  0  0  0  0  0  0  0  0  0
   45.9430   32.6110   46.2670 C   0  0  0  0  0  0  0  0  0  0  0  0
   46.1430   31.2580   45.9800 C   0  0  0  0  0  0  0  0  0  0  0  0
   45.8740   30.2550   46.8550 N   0  0  0  0  0  0  0  0  0  0  0  0
   45.3720   30.5590   48.1130 C   0  0  0  0  0  0  0  0  0  0  0  0
   45.1760   31.8400   48.4050 N   0  0  0  0  0  0  0  0  0  0  0  0
   45.0900   29.5370   49.0480 N   0  0  0  0  0  0  0  0  0  0  0  0
   45.2620   33.8710   47.8370 H   0  0  0  0  0  0  0  0  0  0  0  0
   45.4530   29.5430   50.0450 H   0  0  0  0  0  0  0  0  0  0  0  0
   44.4980   28.7140   48.7900 H   0  0  0  0  0  0  0  0  0  0  0  0
   46.1880   33.5780   45.2510 C   0  0  2  0  0  0  0  0  0  0  0  0
   44.9690   34.6590   45.4930 C   0  0  0  0  0  0  0  0  0  0  0  0
   44.7260   35.5980   44.4360 C   0  0  0  0  0  0  0  0  0  0  0  0
   45.5260   35.5480   43.2120 C   0  0  1  0  0  0  0  0  0  0  0  0
   46.5950   34.5510   43.1450 C   0  0  0  0  0  0  0  0  0  0  0  0
   46.1570   33.3070   43.8840 C   0  0  0  0  0  0  0  0  0  0  0  0
   47.0100   34.2790   45.5880 H   0  0  0  0  0  0  0  0  0  0  0  0
   44.2890   34.8020   46.3240 H   0  0  0  0  0  0  0  0  0  0  0  0
   43.9520   36.3120   44.5500 H   0  0  0  0  0  0  0  0  0  0  0  0
   45.9530   36.5540   43.0080 H   0  0  0  0  0  0  0  0  0  0  0  0
   46.7550   34.3180   42.0510 H   0  0  0  0  0  0  0  0  0  0  0  0
   47.6040   34.8720   43.4890 H   0  0  0  0  0  0  0  0  0  0  0  0
   45.2050   32.9630   43.4300 H   0  0  0  0  0  0  0  0  0  0  0  0
   47.0190   32.6690   43.5490 H   0  0  0  0  0  0  0  0  0  0  0  0
   44.5160   35.2820   42.0530 C   0  0  0  0  0  0  0  0  0  0  0  0
   43.4560   34.4860   42.4450 F   0  0  0  0  0  0  0  0  0  0  0  0
   43.9710   36.5200   41.7200 F   0  0  0  0  0  0  0  0  0  0  0  0
   45.1920   34.8230   40.9390 F   0  0  0  0  0  0  0  0  0  0  0  0
   46.7030   30.5690   44.8350 C   0  0  0  0  0  0  0  0  0  0  0  0
   46.2840   29.8770   43.7440 C   0  0  0  0  0  0  0  0  0  0  0  0
   47.4090   29.4320   43.0420 C   0  0  0  0  0  0  0  0  0  0  0  0
   48.4580   29.8760   43.7390 N   0  0  0  0  0  0  0  0  0  0  0  0
   48.0670   30.5460   44.7970 N   0  0  0  0  0  0  0  0  0  0  0  0
   45.2240   29.7820   43.5970 H   0  0  0  0  0  0  0  0  0  0  0  0
   47.3060   28.8550   42.1330 H   0  0  0  0  0  0  0  0  0  0  0  0
   49.8460   29.6150   43.3250 C   0  0  0  0  0  3  0  0  0  0  0  0
   50.6950   29.3000   44.5300 C   0  0  0  0  0  1  0  0  0  0  0  0
   50.4170   30.9040   42.7200 C   0  0  0  0  0  1  0  0  0  0  0  0
  1  8  1  0  0  0  0
  1  6  1  0  0  0  0
  2  1  2  0  0  0  0
  3  2  1  0  0  0  0
  3  4  2  0  0  0  0
  4  5  1  0  0  0  0
  5  6  2  0  0  0  0
  5  7  1  0  0  0  0
  7  9  1  0  0  0  0
 10  7  1  0  0  0  0
 11 12  1  0  0  0  0
 11 17  1  1  0  0  0
 11  2  1  0  0  0  0
 12 18  1  0  0  0  0
 13 19  1  0  0  0  0
 13 12  2  0  0  0  0
 14 20  1  6  0  0  0
 14 13  1  0  0  0  0
 15 14  1  0  0  0  0
 15 22  1  0  0  0  0
 15 16  1  0  0  0  0
 16 11  1  0  0  0  0
 21 15  1  0  0  0  0
 23 16  1  0  0  0  0
 24 16  1  0  0  0  0
 25 26  1  0  0  0  0
 25 14  1  0  0  0  0
 27 25  1  0  0  0  0
 28 25  1  0  0  0  0
 29  3  1  0  0  0  0
 30 29  1  0  0  0  0
 31 32  1  0  0  0  0
 31 30  2  0  0  0  0
 32 33  1  0  0  0  0
 33 29  2  0  0  0  0
 34 30  1  0  0  0  0
 35 31  1  0  0  0  0
 36 32  1  0  0  0  0
 36 37  1  0  0  0  0
 38 36  1  0  0  0  0
M  END
>  <minimizedAffinity>
-5.64110231

>  <minimizedRMSD>
0.290058494

$$$$
