
 OpenBabel03232520593D

 38 40  0  0  1  0  0  0  0  0999 V2000
   45.4510   32.8580   47.5080 C   0  0  0  0  0  0  0  0  0  0  0  0
   45.9430   32.6090   46.2660 C   0  0  0  0  0  0  0  0  0  0  0  0
   46.1440   31.2560   45.9800 C   0  0  0  0  0  0  0  0  0  0  0  0
   45.8740   30.2530   46.8540 N   0  0  0  0  0  0  0  0  0  0  0  0
   45.3730   30.5570   48.1110 C   0  0  0  0  0  0  0  0  0  0  0  0
   45.1760   31.8380   48.4040 N   0  0  0  0  0  0  0  0  0  0  0  0
   45.0900   29.5340   49.0460 N   0  0  0  0  0  0  0  0  0  0  0  0
   45.2620   33.8680   47.8370 H   0  0  0  0  0  0  0  0  0  0  0  0
   45.4530   29.5400   50.0430 H   0  0  0  0  0  0  0  0  0  0  0  0
   44.4980   28.7110   48.7870 H   0  0  0  0  0  0  0  0  0  0  0  0
   46.1890   33.5760   45.2510 C   0  0  2  0  0  0  0  0  0  0  0  0
   44.9700   34.6580   45.4940 C   0  0  0  0  0  0  0  0  0  0  0  0
   44.7270   35.5970   44.4370 C   0  0  0  0  0  0  0  0  0  0  0  0
   45.5270   35.5480   43.2120 C   0  0  1  0  0  0  0  0  0  0  0  0
   46.5960   34.5500   43.1460 C   0  0  0  0  0  0  0  0  0  0  0  0
   46.1580   33.3070   43.8840 C   0  0  0  0  0  0  0  0  0  0  0  0
   47.0110   34.2770   45.5880 H   0  0  0  0  0  0  0  0  0  0  0  0
   44.2900   34.8000   46.3250 H   0  0  0  0  0  0  0  0  0  0  0  0
   43.9530   36.3110   44.5520 H   0  0  0  0  0  0  0  0  0  0  0  0
   45.9530   36.5540   43.0090 H   0  0  0  0  0  0  0  0  0  0  0  0
   46.7560   34.3180   42.0510 H   0  0  0  0  0  0  0  0  0  0  0  0
   47.6050   34.8710   43.4890 H   0  0  0  0  0  0  0  0  0  0  0  0
   45.2060   32.9630   43.4300 H   0  0  0  0  0  0  0  0  0  0  0  0
   47.0200   32.6690   43.5490 H   0  0  0  0  0  0  0  0  0  0  0  0
   44.5170   35.2820   42.0540 C   0  0  0  0  0  0  0  0  0  0  0  0
   43.4560   34.4870   42.4450 F   0  0  0  0  0  0  0  0  0  0  0  0
   43.9720   36.5210   41.7210 F   0  0  0  0  0  0  0  0  0  0  0  0
   45.1930   34.8230   40.9400 F   0  0  0  0  0  0  0  0  0  0  0  0
   46.7040   30.5680   44.8330 C   0  0  0  0  0  0  0  0  0  0  0  0
   46.2850   29.8770   43.7420 C   0  0  0  0  0  0  0  0  0  0  0  0
   47.4100   29.4320   43.0410 C   0  0  0  0  0  0  0  0  0  0  0  0
   48.4590   29.8750   43.7380 N   0  0  0  0  0  0  0  0  0  0  0  0
   48.0680   30.5450   44.7960 N   0  0  0  0  0  0  0  0  0  0  0  0
   45.2250   29.7820   43.5950 H   0  0  0  0  0  0  0  0  0  0  0  0
   47.3080   28.8560   42.1320 H   0  0  0  0  0  0  0  0  0  0  0  0
   49.8480   29.6140   43.3250 C   0  0  0  0  0  3  0  0  0  0  0  0
   50.6960   29.3000   44.5300 C   0  0  0  0  0  1  0  0  0  0  0  0
   50.4170   30.9030   42.7200 C   0  0  0  0  0  1  0  0  0  0  0  0
  1  8  1  0  0  0  0
  1  6  1  0  0  0  0
  2  1  2  0  0  0  0
  3  2  1  0  0  0  0
  3  4  2  0  0  0  0
  4  5  1  0  0  0  0
  5  6  2  0  0  0  0
  5  7  1  0  0  0  0
  7  9  1  0  0  0  0
 10  7  1  0  0  0  0
 11 12  1  0  0  0  0
 11 17  1  1  0  0  0
 11  2  1  0  0  0  0
 12 18  1  0  0  0  0
 13 19  1  0  0  0  0
 13 12  2  0  0  0  0
 14 20  1  6  0  0  0
 14 13  1  0  0  0  0
 15 14  1  0  0  0  0
 15 22  1  0  0  0  0
 15 16  1  0  0  0  0
 16 11  1  0  0  0  0
 21 15  1  0  0  0  0
 23 16  1  0  0  0  0
 24 16  1  0  0  0  0
 25 26  1  0  0  0  0
 25 14  1  0  0  0  0
 27 25  1  0  0  0  0
 28 25  1  0  0  0  0
 29  3  1  0  0  0  0
 30 29  1  0  0  0  0
 31 32  1  0  0  0  0
 31 30  2  0  0  0  0
 32 33  1  0  0  0  0
 33 29  2  0  0  0  0
 34 30  1  0  0  0  0
 35 31  1  0  0  0  0
 36 32  1  0  0  0  0
 36 37  1  0  0  0  0
 38 36  1  0  0  0  0
M  END
>  <minimizedAffinity>
-5.64103794

>  <minimizedRMSD>
0.122535571

$$$$
