
 OpenBabel03232520593D

 38 40  0  0  1  0  0  0  0  0999 V2000
   45.3680   32.8900   47.5330 C   0  0  0  0  0  0  0  0  0  0  0  0
   45.9280   32.6260   46.3240 C   0  0  0  0  0  0  0  0  0  0  0  0
   46.1950   31.2740   46.0880 C   0  0  0  0  0  0  0  0  0  0  0  0
   45.9230   30.2860   46.9790 N   0  0  0  0  0  0  0  0  0  0  0  0
   45.3490   30.6050   48.2020 C   0  0  0  0  0  0  0  0  0  0  0  0
   45.0890   31.8850   48.4460 N   0  0  0  0  0  0  0  0  0  0  0  0
   45.0620   29.5990   49.1520 N   0  0  0  0  0  0  0  0  0  0  0  0
   45.1240   33.9010   47.8230 H   0  0  0  0  0  0  0  0  0  0  0  0
   45.3760   29.6470   50.1650 H   0  0  0  0  0  0  0  0  0  0  0  0
   44.5150   28.7460   48.8910 H   0  0  0  0  0  0  0  0  0  0  0  0
   46.1850   33.5730   45.2930 C   0  0  2  0  0  0  0  0  0  0  0  0
   44.9710   34.6650   45.5090 C   0  0  0  0  0  0  0  0  0  0  0  0
   44.7380   35.5860   44.4340 C   0  0  0  0  0  0  0  0  0  0  0  0
   45.5460   35.5100   43.2150 C   0  0  1  0  0  0  0  0  0  0  0  0
   46.6090   34.5060   43.1720 C   0  0  0  0  0  0  0  0  0  0  0  0
   46.1610   33.2780   43.9310 C   0  0  0  0  0  0  0  0  0  0  0  0
   47.0090   34.2760   45.6220 H   0  0  0  0  0  0  0  0  0  0  0  0
   44.2870   34.8260   46.3330 H   0  0  0  0  0  0  0  0  0  0  0  0
   43.9680   36.3060   44.5310 H   0  0  0  0  0  0  0  0  0  0  0  0
   45.9790   36.5100   42.9960 H   0  0  0  0  0  0  0  0  0  0  0  0
   46.7740   34.2530   42.0830 H   0  0  0  0  0  0  0  0  0  0  0  0
   47.6180   34.8280   43.5160 H   0  0  0  0  0  0  0  0  0  0  0  0
   45.2090   32.9310   43.4770 H   0  0  0  0  0  0  0  0  0  0  0  0
   47.0210   32.6300   43.6130 H   0  0  0  0  0  0  0  0  0  0  0  0
   44.5400   35.2290   42.0560 C   0  0  0  0  0  0  0  0  0  0  0  0
   43.5050   34.3980   42.4400 F   0  0  0  0  0  0  0  0  0  0  0  0
   43.9590   36.4550   41.7390 F   0  0  0  0  0  0  0  0  0  0  0  0
   45.2270   34.8030   40.9350 F   0  0  0  0  0  0  0  0  0  0  0  0
   46.8350   30.5770   44.9910 C   0  0  0  0  0  0  0  0  0  0  0  0
   46.4970   29.9080   43.8590 C   0  0  0  0  0  0  0  0  0  0  0  0
   47.6670   29.4320   43.2580 C   0  0  0  0  0  0  0  0  0  0  0  0
   48.6610   29.8350   44.0540 N   0  0  0  0  0  0  0  0  0  0  0  0
   48.1960   30.5100   45.0790 N   0  0  0  0  0  0  0  0  0  0  0  0
   45.4530   29.8490   43.6140 H   0  0  0  0  0  0  0  0  0  0  0  0
   47.6300   28.8670   42.3380 H   0  0  0  0  0  0  0  0  0  0  0  0
   50.0730   29.5330   43.7660 C   0  0  0  0  0  3  0  0  0  0  0  0
   50.1680   28.4400   42.7330 C   0  0  0  0  0  1  0  0  0  0  0  0
   50.7110   28.9750   45.0440 C   0  0  0  0  0  1  0  0  0  0  0  0
  1  8  1  0  0  0  0
  1  6  1  0  0  0  0
  2  1  2  0  0  0  0
  3  2  1  0  0  0  0
  3  4  2  0  0  0  0
  4  5  1  0  0  0  0
  5  6  2  0  0  0  0
  5  7  1  0  0  0  0
  7  9  1  0  0  0  0
 10  7  1  0  0  0  0
 11 12  1  0  0  0  0
 11 17  1  1  0  0  0
 11  2  1  0  0  0  0
 12 18  1  0  0  0  0
 13 19  1  0  0  0  0
 13 12  2  0  0  0  0
 14 20  1  6  0  0  0
 14 13  1  0  0  0  0
 15 14  1  0  0  0  0
 15 22  1  0  0  0  0
 15 16  1  0  0  0  0
 16 11  1  0  0  0  0
 21 15  1  0  0  0  0
 23 16  1  0  0  0  0
 24 16  1  0  0  0  0
 25 26  1  0  0  0  0
 25 14  1  0  0  0  0
 27 25  1  0  0  0  0
 28 25  1  0  0  0  0
 29 33  2  0  0  0  0
 29  3  1  0  0  0  0
 30 29  1  0  0  0  0
 31 30  2  0  0  0  0
 31 32  1  0  0  0  0
 32 33  1  0  0  0  0
 34 30  1  0  0  0  0
 35 31  1  0  0  0  0
 36 32  1  0  0  0  0
 36 38  1  0  0  0  0
 37 36  1  0  0  0  0
M  END
>  <minimizedAffinity>
-5.54575539

>  <minimizedRMSD>
0.255837828

$$$$
