
 OpenBabel03232518573D

 44 47  0  0  1  0  0  0  0  0999 V2000
   46.6930   33.2610   45.1040 C   0  0  0  0  0  0  0  0  0  0  0  0
   47.5310   33.1090   44.3600 H   0  0  0  0  0  0  0  0  0  0  0  0
   47.1220   33.7580   45.9650 H   0  0  0  0  0  0  0  0  0  0  0  0
   45.7280   34.1370   44.3640 C   0  0  0  0  0  0  0  0  0  0  0  0
   45.0050   35.0600   45.0540 C   0  0  0  0  0  0  0  0  0  0  0  0
   44.1980   35.7290   44.1660 C   0  0  0  0  0  0  0  0  0  0  0  0
   44.4940   35.1500   42.9610 N   0  0  0  0  0  0  0  0  0  0  0  0
   45.3950   34.2080   43.0540 N   0  0  0  0  0  0  0  0  0  0  0  0
   44.9610   35.3360   46.1110 H   0  0  0  0  0  0  0  0  0  0  0  0
   43.4830   36.5260   44.3150 H   0  0  0  0  0  0  0  0  0  0  0  0
   44.4060   34.7040   40.5900 N   0  0  0  0  0  0  0  0  0  0  0  0
   43.2780   34.2590   39.8100 C   0  0  0  0  0  0  0  0  0  0  0  0
   42.2330   34.0240   40.8900 C   0  0  0  0  0  0  0  0  0  0  0  0
   42.3920   35.2990   41.7040 C   0  0  0  0  0  0  0  0  0  0  0  0
   43.8880   35.5100   41.6700 C   0  0  1  0  0  0  0  0  0  0  0  0
   44.9570   33.8840   40.9000 H   0  0  0  0  0  0  0  0  0  0  0  0
   42.9210   35.0850   39.1600 H   0  0  0  0  0  0  0  0  0  0  0  0
   43.5200   33.3450   39.2480 H   0  0  0  0  0  0  0  0  0  0  0  0
   42.4450   33.1340   41.4880 H   0  0  0  0  0  0  0  0  0  0  0  0
   41.2180   34.0390   40.4440 H   0  0  0  0  0  0  0  0  0  0  0  0
   42.0620   35.1450   42.7440 H   0  0  0  0  0  0  0  0  0  0  0  0
   41.8240   36.1200   41.2150 H   0  0  0  0  0  0  0  0  0  0  0  0
   44.1110   36.5650   41.4780 H   0  0  0  0  0  0  0  0  0  0  0  0
   46.0380   31.9490   45.3100 C   0  0  2  0  0  0  0  0  0  0  0  0
   45.0420   31.8640   44.8270 H   0  0  0  0  0  0  0  0  0  0  0  0
   45.8310   32.2280   48.9960 C   0  0  0  0  0  0  0  0  0  0  0  0
   45.4050   30.8980   49.3500 C   0  0  0  0  0  0  0  0  0  0  0  0
   45.2120   29.9380   48.3000 C   0  0  0  0  0  0  0  0  0  0  0  0
   45.4470   30.3560   47.0180 N   0  0  0  0  0  0  0  0  0  0  0  0
   45.8370   31.5940   46.7390 C   0  0  0  0  0  0  0  0  0  0  0  0
   46.0280   32.5220   47.7250 N   0  0  0  0  0  0  0  0  0  0  0  0
   45.9620   32.9150   49.8240 H   0  0  0  0  0  0  0  0  0  0  0  0
   45.2280   30.6070   50.3880 H   0  0  0  0  0  0  0  0  0  0  0  0
   44.8950   28.9350   48.5340 H   0  0  0  0  0  0  0  0  0  0  0  0
   46.8470   30.8300   44.6350 C   0  0  0  0  0  0  0  0  0  0  0  0
   47.8940   31.1260   44.6020 H   0  0  0  0  0  0  0  0  0  0  0  0
   46.6300   29.8840   45.1590 H   0  0  0  0  0  0  0  0  0  0  0  0
   46.3100   30.6310   43.2700 N   0  0  0  0  0  0  0  0  0  0  0  0
   45.8490   29.2610   43.2560 C   0  0  0  0  0  0  0  0  0  0  0  0
   46.7110   28.3040   42.5070 C   0  0  0  0  0  0  0  0  0  0  0  0
   46.7580   28.8000   41.0720 C   0  0  0  0  0  0  0  0  0  0  0  0
   47.2990   28.0350   40.4880 H   0  0  0  0  0  0  0  0  0  0  0  0
   47.3960   30.1470   41.0790 C   0  0  0  0  0  0  0  0  0  0  0  0
   47.4120   30.8780   42.3660 C   0  0  0  0  0  0  0  0  0  0  0  0
  1 24  1  0  0  0  0
  1  3  1  0  0  0  0
  2  1  1  0  0  0  0
  4  5  1  0  0  0  0
  4  1  1  0  0  0  0
  5  9  1  0  0  0  0
  6 10  1  0  0  0  0
  6  5  2  0  0  0  0
  7  8  1  0  0  0  0
  7  6  1  0  0  0  0
  8  4  2  0  0  0  0
 11 16  1  0  0  0  0
 11 15  1  0  0  0  0
 12 11  1  0  0  0  0
 12 13  1  0  0  0  0
 13 19  1  0  0  0  0
 13 14  1  0  0  0  0
 14 21  1  0  0  0  0
 15 23  1  6  0  0  0
 15 14  1  0  0  0  0
 15  7  1  0  0  0  0
 17 12  1  0  0  0  0
 18 12  1  0  0  0  0
 20 13  1  0  0  0  0
 22 14  1  0  0  0  0
 24 25  1  6  0  0  0
 24 30  1  0  0  0  0
 26 27  1  0  0  0  0
 26 32  1  0  0  0  0
 27 33  1  0  0  0  0
 28 34  1  0  0  0  0
 28 27  2  0  0  0  0
 29 28  1  0  0  0  0
 30 29  2  0  0  0  0
 30 31  1  0  0  0  0
 31 26  2  0  0  0  0
 35 37  1  0  0  0  0
 35 24  1  0  0  0  0
 36 35  1  0  0  0  0
 38 35  1  0  0  0  0
 39 38  1  0  0  0  0
 40 39  1  0  0  0  0
 41 43  1  0  0  0  0
 41 40  1  0  0  0  0
 42 41  1  0  0  0  0
 43 44  1  0  0  0  0
 44 38  1  0  0  0  0
M  END
>  <minimizedAffinity>
-4.91369343

>  <minimizedRMSD>
1.5115962

$$$$
