
 OpenBabel03232520593D

 38 40  0  0  1  0  0  0  0  0999 V2000
   45.4510   32.8610   47.5090 C   0  0  0  0  0  0  0  0  0  0  0  0
   45.9430   32.6110   46.2670 C   0  0  0  0  0  0  0  0  0  0  0  0
   46.1430   31.2580   45.9810 C   0  0  0  0  0  0  0  0  0  0  0  0
   45.8730   30.2550   46.8560 N   0  0  0  0  0  0  0  0  0  0  0  0
   45.3720   30.5600   48.1130 C   0  0  0  0  0  0  0  0  0  0  0  0
   45.1760   31.8410   48.4060 N   0  0  0  0  0  0  0  0  0  0  0  0
   45.0890   29.5380   49.0490 N   0  0  0  0  0  0  0  0  0  0  0  0
   45.2630   33.8720   47.8380 H   0  0  0  0  0  0  0  0  0  0  0  0
   45.4530   29.5440   50.0450 H   0  0  0  0  0  0  0  0  0  0  0  0
   44.4970   28.7150   48.7910 H   0  0  0  0  0  0  0  0  0  0  0  0
   46.1880   33.5780   45.2510 C   0  0  2  0  0  0  0  0  0  0  0  0
   44.9700   34.6600   45.4940 C   0  0  0  0  0  0  0  0  0  0  0  0
   44.7260   35.5980   44.4360 C   0  0  0  0  0  0  0  0  0  0  0  0
   45.5270   35.5480   43.2120 C   0  0  1  0  0  0  0  0  0  0  0  0
   46.5960   34.5510   43.1450 C   0  0  0  0  0  0  0  0  0  0  0  0
   46.1580   33.3070   43.8850 C   0  0  0  0  0  0  0  0  0  0  0  0
   47.0110   34.2790   45.5880 H   0  0  0  0  0  0  0  0  0  0  0  0
   44.2900   34.8030   46.3240 H   0  0  0  0  0  0  0  0  0  0  0  0
   43.9530   36.3120   44.5500 H   0  0  0  0  0  0  0  0  0  0  0  0
   45.9530   36.5540   43.0080 H   0  0  0  0  0  0  0  0  0  0  0  0
   46.7550   34.3180   42.0510 H   0  0  0  0  0  0  0  0  0  0  0  0
   47.6040   34.8720   43.4890 H   0  0  0  0  0  0  0  0  0  0  0  0
   45.2050   32.9630   43.4300 H   0  0  0  0  0  0  0  0  0  0  0  0
   47.0190   32.6690   43.5500 H   0  0  0  0  0  0  0  0  0  0  0  0
   44.5160   35.2820   42.0530 C   0  0  0  0  0  0  0  0  0  0  0  0
   43.4560   34.4870   42.4450 F   0  0  0  0  0  0  0  0  0  0  0  0
   43.9720   36.5200   41.7200 F   0  0  0  0  0  0  0  0  0  0  0  0
   45.1930   34.8220   40.9400 F   0  0  0  0  0  0  0  0  0  0  0  0
   46.7020   30.5690   44.8350 C   0  0  0  0  0  0  0  0  0  0  0  0
   46.2820   29.8770   43.7440 C   0  0  0  0  0  0  0  0  0  0  0  0
   47.4070   29.4320   43.0420 C   0  0  0  0  0  0  0  0  0  0  0  0
   48.4560   29.8750   43.7390 N   0  0  0  0  0  0  0  0  0  0  0  0
   48.0660   30.5460   44.7970 N   0  0  0  0  0  0  0  0  0  0  0  0
   45.2220   29.7820   43.5980 H   0  0  0  0  0  0  0  0  0  0  0  0
   47.3040   28.8550   42.1340 H   0  0  0  0  0  0  0  0  0  0  0  0
   49.8440   29.6150   43.3240 C   0  0  0  0  0  3  0  0  0  0  0  0
   50.6940   29.3000   44.5290 C   0  0  0  0  0  1  0  0  0  0  0  0
   50.4130   30.9040   42.7200 C   0  0  0  0  0  1  0  0  0  0  0  0
  1  8  1  0  0  0  0
  1  6  1  0  0  0  0
  2  1  2  0  0  0  0
  3  2  1  0  0  0  0
  3  4  2  0  0  0  0
  4  5  1  0  0  0  0
  5  6  2  0  0  0  0
  5  7  1  0  0  0  0
  7  9  1  0  0  0  0
 10  7  1  0  0  0  0
 11 12  1  0  0  0  0
 11 17  1  1  0  0  0
 11  2  1  0  0  0  0
 12 18  1  0  0  0  0
 13 19  1  0  0  0  0
 13 12  2  0  0  0  0
 14 20  1  6  0  0  0
 14 13  1  0  0  0  0
 15 14  1  0  0  0  0
 15 22  1  0  0  0  0
 15 16  1  0  0  0  0
 16 11  1  0  0  0  0
 21 15  1  0  0  0  0
 23 16  1  0  0  0  0
 24 16  1  0  0  0  0
 25 26  1  0  0  0  0
 25 14  1  0  0  0  0
 27 25  1  0  0  0  0
 28 25  1  0  0  0  0
 29  3  1  0  0  0  0
 30 29  1  0  0  0  0
 31 32  1  0  0  0  0
 31 30  2  0  0  0  0
 32 33  1  0  0  0  0
 33 29  2  0  0  0  0
 34 30  1  0  0  0  0
 35 31  1  0  0  0  0
 36 32  1  0  0  0  0
 36 37  1  0  0  0  0
 38 36  1  0  0  0  0
M  END
>  <minimizedAffinity>
-5.6436367

>  <minimizedRMSD>
0.346551597

$$$$
