
 OpenBabel03232519143D

 28 29  0  0  1  0  0  0  0  0999 V2000
   45.5130   34.6370   43.9270 C   0  0  0  0  0  0  0  0  0  0  0  0
   46.5370   34.3340   43.0040 C   0  0  0  0  0  0  0  0  0  0  0  0
   47.5170   33.3800   43.3320 C   0  0  0  0  0  0  0  0  0  0  0  0
   47.4070   32.7970   44.5590 N   0  0  0  0  0  0  0  0  0  0  0  0
   46.4390   33.1000   45.4070 C   0  0  0  0  0  0  0  0  0  0  0  0
   45.4930   34.0130   45.1010 N   0  0  0  0  0  0  0  0  0  0  0  0
   46.5780   34.8250   42.0440 H   0  0  0  0  0  0  0  0  0  0  0  0
   48.3230   33.1090   42.6540 H   0  0  0  0  0  0  0  0  0  0  0  0
   46.3310   32.4570   46.7360 C   0  0  0  0  0  0  0  0  0  0  0  0
   47.3630   31.5720   47.1120 C   0  0  0  0  0  0  0  0  0  0  0  0
   46.7280   31.0640   48.8060 S   0  0  0  0  0  0  0  0  0  0  0  0
   45.2080   32.1560   48.6400 C   0  0  0  0  0  0  0  0  0  0  0  0
   45.3890   32.5910   47.6280 N   0  0  0  0  0  0  0  0  0  0  0  0
   48.2270   31.2610   46.6400 H   0  0  0  0  0  0  0  0  0  0  0  0
   44.4460   32.2350   49.4210 H   0  0  0  0  0  0  0  0  0  0  0  0
   44.5060   35.6310   43.5480 C   0  0  1  0  0  0  0  0  0  0  0  0
   43.7210   35.6540   44.3370 H   0  0  0  0  0  0  0  0  0  0  0  0
   45.1190   37.0290   43.5370 C   0  0  0  0  0  0  0  0  0  0  0  0
   45.8300   37.0940   44.3990 H   0  0  0  0  0  0  0  0  0  0  0  0
   44.3450   37.8040   43.6440 H   0  0  0  0  0  0  0  0  0  0  0  0
   45.7170   37.1820   42.6150 H   0  0  0  0  0  0  0  0  0  0  0  0
   43.8750   35.3770   42.2280 C   0  0  0  0  0  0  0  0  0  0  0  0
   43.7900   36.3810   41.7120 H   0  0  0  0  0  0  0  0  0  0  0  0
   44.5160   34.7870   41.5400 H   0  0  0  0  0  0  0  0  0  0  0  0
   42.5790   34.8230   42.2650 N   0  0  0  0  0  0  0  0  0  0  0  0
   42.4970   33.8220   42.4920 H   0  0  0  0  0  0  0  0  0  0  0  0
   41.5330   35.4230   41.5420 C   0  0  0  0  0  0  0  0  0  0  0  0
   41.4170   36.5200   41.6970 H   0  0  0  0  0  0  0  0  0  0  0  0
  1  6  1  0  0  0  0
  2  3  1  0  0  0  0
  2  1  2  0  0  0  0
  3  4  2  0  0  0  0
  4  5  1  0  0  0  0
  5  9  1  0  0  0  0
  6  5  2  0  0  0  0
  7  2  1  0  0  0  0
  8  3  1  0  0  0  0
  9 10  2  0  0  0  0
  9 13  1  0  0  0  0
 10 11  1  0  0  0  0
 12 11  1  0  0  0  0
 12 15  1  0  0  0  0
 13 12  2  0  0  0  0
 14 10  1  0  0  0  0
 16  1  1  0  0  0  0
 16 17  1  1  0  0  0
 18 16  1  0  0  0  0
 18 20  1  0  0  0  0
 18 19  1  0  0  0  0
 21 18  1  0  0  0  0
 22 25  1  0  0  0  0
 22 16  1  0  0  0  0
 23 22  1  0  0  0  0
 24 22  1  0  0  0  0
 25 26  1  0  0  0  0
 27 28  1  0  0  0  0
 27 25  1  0  0  0  0
M  END
>  <minimizedAffinity>
-4.38334751

>  <minimizedRMSD>
0.539717972

$$$$
