
 OpenBabel03232520593D

 38 40  0  0  1  0  0  0  0  0999 V2000
   45.3660   32.9000   47.5110 C   0  0  0  0  0  0  0  0  0  0  0  0
   45.9230   32.6470   46.2970 C   0  0  0  0  0  0  0  0  0  0  0  0
   46.1920   31.2980   46.0500 C   0  0  0  0  0  0  0  0  0  0  0  0
   45.9260   30.3020   46.9340 N   0  0  0  0  0  0  0  0  0  0  0  0
   45.3570   30.6100   48.1620 C   0  0  0  0  0  0  0  0  0  0  0  0
   45.0940   31.8870   48.4170 N   0  0  0  0  0  0  0  0  0  0  0  0
   45.0760   29.5960   49.1060 N   0  0  0  0  0  0  0  0  0  0  0  0
   45.1210   33.9080   47.8090 H   0  0  0  0  0  0  0  0  0  0  0  0
   45.3940   29.6370   50.1170 H   0  0  0  0  0  0  0  0  0  0  0  0
   44.5310   28.7430   48.8400 H   0  0  0  0  0  0  0  0  0  0  0  0
   46.1720   33.6030   45.2720 C   0  0  2  0  0  0  0  0  0  0  0  0
   44.9530   34.6880   45.4990 C   0  0  0  0  0  0  0  0  0  0  0  0
   44.7150   35.6150   44.4310 C   0  0  0  0  0  0  0  0  0  0  0  0
   45.5190   35.5520   43.2100 C   0  0  1  0  0  0  0  0  0  0  0  0
   46.5880   34.5530   43.1580 C   0  0  0  0  0  0  0  0  0  0  0  0
   46.1460   33.3180   43.9090 C   0  0  0  0  0  0  0  0  0  0  0  0
   46.9940   34.3070   45.6050 H   0  0  0  0  0  0  0  0  0  0  0  0
   44.2710   34.8400   46.3260 H   0  0  0  0  0  0  0  0  0  0  0  0
   43.9410   36.3310   44.5350 H   0  0  0  0  0  0  0  0  0  0  0  0
   45.9470   36.5560   42.9970 H   0  0  0  0  0  0  0  0  0  0  0  0
   46.7510   34.3080   42.0670 H   0  0  0  0  0  0  0  0  0  0  0  0
   47.5960   34.8770   43.5020 H   0  0  0  0  0  0  0  0  0  0  0  0
   45.1950   32.9690   43.4550 H   0  0  0  0  0  0  0  0  0  0  0  0
   47.0090   32.6760   43.5840 H   0  0  0  0  0  0  0  0  0  0  0  0
   44.5130   35.2740   42.0510 C   0  0  0  0  0  0  0  0  0  0  0  0
   43.4590   34.4710   42.4430 F   0  0  0  0  0  0  0  0  0  0  0  0
   43.9580   36.5070   41.7130 F   0  0  0  0  0  0  0  0  0  0  0  0
   45.1950   34.8170   40.9400 F   0  0  0  0  0  0  0  0  0  0  0  0
   46.8300   30.6110   44.9450 C   0  0  0  0  0  0  0  0  0  0  0  0
   46.4900   29.8700   43.8590 C   0  0  0  0  0  0  0  0  0  0  0  0
   47.6620   29.4680   43.2120 C   0  0  0  0  0  0  0  0  0  0  0  0
   48.6600   29.9840   43.9340 N   0  0  0  0  0  0  0  0  0  0  0  0
   48.1940   30.6600   44.9580 N   0  0  0  0  0  0  0  0  0  0  0  0
   45.4430   29.7150   43.6760 H   0  0  0  0  0  0  0  0  0  0  0  0
   47.6250   28.8630   42.3160 H   0  0  0  0  0  0  0  0  0  0  0  0
   50.0750   29.7870   43.5800 C   0  0  0  0  0  3  0  0  0  0  0  0
   50.1870   28.8810   42.3800 C   0  0  0  0  0  1  0  0  0  0  0  0
   50.7610   29.0550   44.7390 C   0  0  0  0  0  1  0  0  0  0  0  0
  1  8  1  0  0  0  0
  1  6  1  0  0  0  0
  2  1  2  0  0  0  0
  3  2  1  0  0  0  0
  3  4  2  0  0  0  0
  4  5  1  0  0  0  0
  5  6  2  0  0  0  0
  5  7  1  0  0  0  0
  7  9  1  0  0  0  0
 10  7  1  0  0  0  0
 11 12  1  0  0  0  0
 11 17  1  1  0  0  0
 11  2  1  0  0  0  0
 12 18  1  0  0  0  0
 13 19  1  0  0  0  0
 13 12  2  0  0  0  0
 14 20  1  6  0  0  0
 14 13  1  0  0  0  0
 15 14  1  0  0  0  0
 15 22  1  0  0  0  0
 15 16  1  0  0  0  0
 16 11  1  0  0  0  0
 21 15  1  0  0  0  0
 23 16  1  0  0  0  0
 24 16  1  0  0  0  0
 25 26  1  0  0  0  0
 25 14  1  0  0  0  0
 27 25  1  0  0  0  0
 28 25  1  0  0  0  0
 29 33  2  0  0  0  0
 29  3  1  0  0  0  0
 30 29  1  0  0  0  0
 31 30  2  0  0  0  0
 31 32  1  0  0  0  0
 32 33  1  0  0  0  0
 34 30  1  0  0  0  0
 35 31  1  0  0  0  0
 36 32  1  0  0  0  0
 36 38  1  0  0  0  0
 37 36  1  0  0  0  0
M  END
>  <minimizedAffinity>
-5.53916693

>  <minimizedRMSD>
0.131760985

$$$$
