
 OpenBabel03232519363D

 36 39  0  0  0  0  0  0  0  0999 V2000
   46.5930   34.4440   42.0700 N   0  0  0  0  0  0  0  0  0  0  0  0
   47.6590   35.2760   41.9570 C   0  0  0  0  0  0  0  0  0  0  0  0
   48.3970   35.3370   40.8010 C   0  0  0  0  0  0  0  0  0  0  0  0
   48.0110   34.5100   39.7400 C   0  0  0  0  0  0  0  0  0  0  0  0
   48.6630   34.5380   38.6670 O   0  0  0  0  0  0  0  0  0  0  0  0
   46.9440   33.7120   39.9260 N   0  0  0  0  0  0  0  0  0  0  0  0
   46.2430   33.6690   41.0570 C   0  0  0  0  0  0  0  0  0  0  0  0
   45.2660   32.9610   41.2760 O   0  0  0  0  0  0  0  0  0  0  0  0
   48.0250   35.9450   42.7230 H   0  0  0  0  0  0  0  0  0  0  0  0
   49.2610   35.9920   40.6650 H   0  0  0  0  0  0  0  0  0  0  0  0
   46.5120   32.8430   38.8770 C   0  0  0  0  0  0  0  0  0  0  0  0
   45.5200   33.1820   37.9710 C   0  0  0  0  0  0  0  0  0  0  0  0
   45.1540   32.2940   36.9800 C   0  0  0  0  0  0  0  0  0  0  0  0
   45.7840   31.0430   36.8820 C   0  0  0  0  0  0  0  0  0  0  0  0
   46.7620   30.7440   37.7980 C   0  0  0  0  0  0  0  0  0  0  0  0
   47.1690   31.6050   38.8200 C   0  0  0  0  0  0  0  0  0  0  0  0
   45.0700   34.1600   38.0950 H   0  0  0  0  0  0  0  0  0  0  0  0
   44.3850   32.5570   36.2770 H   0  0  0  0  0  0  0  0  0  0  0  0
   45.4850   30.3650   36.1020 H   0  0  0  0  0  0  0  0  0  0  0  0
   47.2720   29.7710   37.7450 H   0  0  0  0  0  0  0  0  0  0  0  0
   48.1920   31.2350   39.7420 N   0  0  0  0  0  0  0  0  0  0  0  0
   48.1470   30.7070   41.0980 C   0  0  0  0  0  0  0  0  0  0  0  0
   49.2380   29.6360   41.2200 C   0  0  0  0  0  0  0  0  0  0  0  0
   50.5520   30.3900   41.4020 C   0  0  0  0  0  0  0  0  0  0  0  0
   51.4150   29.8090   41.0460 H   0  0  0  0  0  0  0  0  0  0  0  0
   50.4340   31.6180   40.5340 C   0  0  0  0  0  0  0  0  0  0  0  0
   49.5820   31.3890   39.3020 C   0  0  0  0  0  0  0  0  0  0  0  0
   44.5270   35.7480   44.8520 C   0  0  0  0  0  0  0  0  0  0  0  0
   45.1200   35.6330   43.5630 C   0  0  0  0  0  0  0  0  0  0  0  0
   45.9910   34.5660   43.3650 C   0  0  0  0  0  0  0  0  0  0  0  0
   46.2400   33.6950   44.3830 N   0  0  0  0  0  0  0  0  0  0  0  0
   45.6570   33.8370   45.5970 C   0  0  0  0  0  0  0  0  0  0  0  0
   44.8090   34.8480   45.8410 N   0  0  0  0  0  0  0  0  0  0  0  0
   43.8500   36.5280   45.0970 H   0  0  0  0  0  0  0  0  0  0  0  0
   44.8660   36.3610   42.8280 H   0  0  0  0  0  0  0  0  0  0  0  0
   45.9900   33.0480   46.2430 H   0  0  0  0  0  0  0  0  0  0  0  0
  1 30  1  0  0  0  0
  2  1  1  0  0  0  0
  2  9  1  0  0  0  0
  3  2  2  0  0  0  0
  4  6  1  0  0  0  0
  4  3  1  0  0  0  0
  5  4  2  0  0  0  0
  6  7  1  0  0  0  0
  7  8  2  0  0  0  0
  7  1  1  0  0  0  0
 10  3  1  0  0  0  0
 11  6  1  0  0  0  0
 12 17  1  0  0  0  0
 12 11  2  0  0  0  0
 13 12  1  0  0  0  0
 14 13  2  0  0  0  0
 14 15  1  0  0  0  0
 15 16  2  0  0  0  0
 16 11  1  0  0  0  0
 16 21  1  0  0  0  0
 18 13  1  0  0  0  0
 19 14  1  0  0  0  0
 20 15  1  0  0  0  0
 21 22  1  0  0  0  0
 22 23  1  0  0  0  0
 23 24  1  0  0  0  0
 25 24  1  0  0  0  0
 26 24  1  0  0  0  0
 27 21  1  0  0  0  0
 27 26  1  0  0  0  0
 28 34  1  0  0  0  0
 28 33  1  0  0  0  0
 29 28  2  0  0  0  0
 30 29  1  0  0  0  0
 30 31  2  0  0  0  0
 31 32  1  0  0  0  0
 32 33  2  0  0  0  0
 32 36  1  0  0  0  0
 35 29  1  0  0  0  0
M  END
>  <minimizedAffinity>
-5.39520741

>  <minimizedRMSD>
0.513227701

$$$$
