
 OpenBabel03232520593D

 38 40  0  0  1  0  0  0  0  0999 V2000
   45.3650   32.8920   47.5070 C   0  0  0  0  0  0  0  0  0  0  0  0
   45.9230   32.6420   46.2930 C   0  0  0  0  0  0  0  0  0  0  0  0
   46.1930   31.2940   46.0440 C   0  0  0  0  0  0  0  0  0  0  0  0
   45.9280   30.2960   46.9260 N   0  0  0  0  0  0  0  0  0  0  0  0
   45.3570   30.6020   48.1530 C   0  0  0  0  0  0  0  0  0  0  0  0
   45.0930   31.8780   48.4110 N   0  0  0  0  0  0  0  0  0  0  0  0
   45.0770   29.5860   49.0960 N   0  0  0  0  0  0  0  0  0  0  0  0
   45.1190   33.9000   47.8070 H   0  0  0  0  0  0  0  0  0  0  0  0
   45.3940   29.6250   50.1070 H   0  0  0  0  0  0  0  0  0  0  0  0
   44.5320   28.7330   48.8280 H   0  0  0  0  0  0  0  0  0  0  0  0
   46.1730   33.6000   45.2700 C   0  0  2  0  0  0  0  0  0  0  0  0
   44.9540   34.6840   45.4990 C   0  0  0  0  0  0  0  0  0  0  0  0
   44.7150   35.6140   44.4330 C   0  0  0  0  0  0  0  0  0  0  0  0
   45.5200   35.5530   43.2120 C   0  0  1  0  0  0  0  0  0  0  0  0
   46.5890   34.5550   43.1580 C   0  0  0  0  0  0  0  0  0  0  0  0
   46.1470   33.3180   43.9060 C   0  0  0  0  0  0  0  0  0  0  0  0
   46.9940   34.3040   45.6040 H   0  0  0  0  0  0  0  0  0  0  0  0
   44.2710   34.8350   46.3260 H   0  0  0  0  0  0  0  0  0  0  0  0
   43.9410   36.3290   44.5380 H   0  0  0  0  0  0  0  0  0  0  0  0
   45.9480   36.5570   43.0010 H   0  0  0  0  0  0  0  0  0  0  0  0
   46.7520   34.3120   42.0660 H   0  0  0  0  0  0  0  0  0  0  0  0
   47.5960   34.8780   43.5020 H   0  0  0  0  0  0  0  0  0  0  0  0
   45.1960   32.9700   43.4510 H   0  0  0  0  0  0  0  0  0  0  0  0
   47.0100   32.6760   43.5800 H   0  0  0  0  0  0  0  0  0  0  0  0
   44.5140   35.2770   42.0520 C   0  0  0  0  0  0  0  0  0  0  0  0
   43.4570   34.4770   42.4440 F   0  0  0  0  0  0  0  0  0  0  0  0
   43.9630   36.5110   41.7130 F   0  0  0  0  0  0  0  0  0  0  0  0
   45.1950   34.8180   40.9410 F   0  0  0  0  0  0  0  0  0  0  0  0
   46.8330   30.6090   44.9380 C   0  0  0  0  0  0  0  0  0  0  0  0
   46.4940   29.8730   43.8490 C   0  0  0  0  0  0  0  0  0  0  0  0
   47.6670   29.4700   43.2030 C   0  0  0  0  0  0  0  0  0  0  0  0
   48.6640   29.9820   43.9300 N   0  0  0  0  0  0  0  0  0  0  0  0
   48.1970   30.6560   44.9550 N   0  0  0  0  0  0  0  0  0  0  0  0
   45.4470   29.7200   43.6620 H   0  0  0  0  0  0  0  0  0  0  0  0
   47.6310   28.8690   42.3050 H   0  0  0  0  0  0  0  0  0  0  0  0
   50.0790   29.7840   43.5780 C   0  0  0  0  0  3  0  0  0  0  0  0
   50.1940   28.8730   42.3830 C   0  0  0  0  0  1  0  0  0  0  0  0
   50.7640   29.0570   44.7420 C   0  0  0  0  0  1  0  0  0  0  0  0
  1  8  1  0  0  0  0
  1  6  1  0  0  0  0
  2  1  2  0  0  0  0
  3  2  1  0  0  0  0
  3  4  2  0  0  0  0
  4  5  1  0  0  0  0
  5  6  2  0  0  0  0
  5  7  1  0  0  0  0
  7  9  1  0  0  0  0
 10  7  1  0  0  0  0
 11 12  1  0  0  0  0
 11 17  1  1  0  0  0
 11  2  1  0  0  0  0
 12 18  1  0  0  0  0
 13 19  1  0  0  0  0
 13 12  2  0  0  0  0
 14 20  1  6  0  0  0
 14 13  1  0  0  0  0
 15 14  1  0  0  0  0
 15 22  1  0  0  0  0
 15 16  1  0  0  0  0
 16 11  1  0  0  0  0
 21 15  1  0  0  0  0
 23 16  1  0  0  0  0
 24 16  1  0  0  0  0
 25 26  1  0  0  0  0
 25 14  1  0  0  0  0
 27 25  1  0  0  0  0
 28 25  1  0  0  0  0
 29 33  2  0  0  0  0
 29  3  1  0  0  0  0
 30 29  1  0  0  0  0
 31 30  2  0  0  0  0
 31 32  1  0  0  0  0
 32 33  1  0  0  0  0
 34 30  1  0  0  0  0
 35 31  1  0  0  0  0
 36 32  1  0  0  0  0
 36 38  1  0  0  0  0
 37 36  1  0  0  0  0
M  END
>  <minimizedAffinity>
-5.53695059

>  <minimizedRMSD>
0.111803301

$$$$
