
 OpenBabel03232520133D

 32 34  0  0  0  0  0  0  0  0999 V2000
   47.4280   33.9860   42.4210 C   0  0  0  0  0  0  0  0  0  0  0  0
   48.2150   35.1430   41.8460 C   0  0  0  0  0  0  0  0  0  0  0  0
   49.5920   35.3200   42.3460 C   0  0  0  0  0  0  0  0  0  0  0  0
   50.3610   34.0400   42.4190 C   0  0  0  0  0  0  0  0  0  0  0  0
   49.5390   32.7970   42.2510 C   0  0  0  0  0  0  0  0  0  0  0  0
   48.2870   32.9800   43.0780 C   0  0  0  0  0  0  0  0  0  0  0  0
   47.6230   36.0800   42.0650 H   0  0  0  0  0  0  0  0  0  0  0  0
   48.2670   35.1190   40.7380 H   0  0  0  0  0  0  0  0  0  0  0  0
   49.5390   35.8200   43.3510 H   0  0  0  0  0  0  0  0  0  0  0  0
   50.1050   36.0240   41.6920 H   0  0  0  0  0  0  0  0  0  0  0  0
   51.2120   34.0600   41.6880 H   0  0  0  0  0  0  0  0  0  0  0  0
   50.8610   33.9950   43.4270 H   0  0  0  0  0  0  0  0  0  0  0  0
   50.1240   31.9670   42.7320 H   0  0  0  0  0  0  0  0  0  0  0  0
   49.3640   32.6250   41.1920 H   0  0  0  0  0  0  0  0  0  0  0  0
   48.6490   33.4570   44.0310 H   0  0  0  0  0  0  0  0  0  0  0  0
   47.8180   32.0650   43.3880 H   0  0  0  0  0  0  0  0  0  0  0  0
   45.3290   34.2490   45.4730 C   0  0  0  0  0  0  0  0  0  0  0  0
   44.5760   35.4250   45.2190 C   0  0  0  0  0  0  0  0  0  0  0  0
   44.8080   36.1170   44.0100 C   0  0  0  0  0  0  0  0  0  0  0  0
   45.7590   35.6060   43.1420 N   0  0  0  0  0  0  0  0  0  0  0  0
   46.4390   34.4950   43.4320 C   0  0  0  0  0  0  0  0  0  0  0  0
   46.2300   33.8130   44.5930 N   0  0  0  0  0  0  0  0  0  0  0  0
   45.1130   33.7670   46.3990 H   0  0  0  0  0  0  0  0  0  0  0  0
   43.8290   35.8380   45.8860 H   0  0  0  0  0  0  0  0  0  0  0  0
   44.2740   37.0160   43.7550 H   0  0  0  0  0  0  0  0  0  0  0  0
   46.6060   33.5440   41.3330 N   0  0  0  0  0  0  0  0  0  0  0  0
   46.9110   34.1260   40.0760 C   0  0  0  0  0  0  0  0  0  0  0  0
   46.4800   33.1170   39.0020 C   0  0  0  0  0  0  0  0  0  0  0  0
   45.0400   32.7520   39.1090 C   0  0  0  0  0  0  0  0  0  0  0  0
   44.9490   31.6460   39.2090 H   0  0  0  0  0  0  0  0  0  0  0  0
   44.4430   33.4500   40.3110 C   0  0  0  0  0  0  0  0  0  0  0  0
   45.2870   33.1810   41.5400 C   0  0  0  0  0  0  0  0  0  0  0  0
  1  6  1  0  0  0  0
  1 21  1  0  0  0  0
  2  7  1  0  0  0  0
  2  3  1  0  0  0  0
  2  1  1  0  0  0  0
  3  4  1  0  0  0  0
  3  9  1  0  0  0  0
  4 12  1  0  0  0  0
  5  4  1  0  0  0  0
  5 13  1  0  0  0  0
  5  6  1  0  0  0  0
  6 16  1  0  0  0  0
  6 15  1  0  0  0  0
  8  2  1  0  0  0  0
 10  3  1  0  0  0  0
 11  4  1  0  0  0  0
 14  5  1  0  0  0  0
 17 23  1  0  0  0  0
 18 17  1  0  0  0  0
 18 24  1  0  0  0  0
 19 18  2  0  0  0  0
 20 21  2  0  0  0  0
 20 19  1  0  0  0  0
 21 22  1  0  0  0  0
 22 17  2  0  0  0  0
 25 19  1  0  0  0  0
 26 32  1  0  0  0  0
 26  1  1  0  0  0  0
 27 26  1  0  0  0  0
 28 29  1  0  0  0  0
 28 27  1  0  0  0  0
 29 30  1  0  0  0  0
 29 31  1  0  0  0  0
 31 32  1  0  0  0  0
M  END
>  <minimizedAffinity>
-5.41047049

>  <minimizedRMSD>
0.0646284148

$$$$
