
 OpenBabel03232520583D

 38 40  0  0  1  0  0  0  0  0999 V2000
   45.3520   32.8970   47.5060 C   0  0  0  0  0  0  0  0  0  0  0  0
   45.9200   32.6450   46.2980 C   0  0  0  0  0  0  0  0  0  0  0  0
   46.2010   31.2970   46.0580 C   0  0  0  0  0  0  0  0  0  0  0  0
   45.9360   30.3020   46.9430 N   0  0  0  0  0  0  0  0  0  0  0  0
   45.3550   30.6100   48.1650 C   0  0  0  0  0  0  0  0  0  0  0  0
   45.0800   31.8860   48.4140 N   0  0  0  0  0  0  0  0  0  0  0  0
   45.0740   29.5970   49.1110 N   0  0  0  0  0  0  0  0  0  0  0  0
   45.0960   33.9050   47.7990 H   0  0  0  0  0  0  0  0  0  0  0  0
   45.3840   29.6440   50.1240 H   0  0  0  0  0  0  0  0  0  0  0  0
   44.5380   28.7390   48.8440 H   0  0  0  0  0  0  0  0  0  0  0  0
   46.1710   33.5980   45.2720 C   0  0  2  0  0  0  0  0  0  0  0  0
   44.9560   34.6880   45.5010 C   0  0  0  0  0  0  0  0  0  0  0  0
   44.7180   35.6150   44.4320 C   0  0  0  0  0  0  0  0  0  0  0  0
   45.5190   35.5480   43.2090 C   0  0  1  0  0  0  0  0  0  0  0  0
   46.5840   34.5460   43.1560 C   0  0  0  0  0  0  0  0  0  0  0  0
   46.1400   33.3130   43.9090 C   0  0  0  0  0  0  0  0  0  0  0  0
   46.9950   34.3000   45.6020 H   0  0  0  0  0  0  0  0  0  0  0  0
   44.2760   34.8430   46.3290 H   0  0  0  0  0  0  0  0  0  0  0  0
   43.9470   36.3340   44.5380 H   0  0  0  0  0  0  0  0  0  0  0  0
   45.9500   36.5500   42.9950 H   0  0  0  0  0  0  0  0  0  0  0  0
   46.7440   34.3000   42.0640 H   0  0  0  0  0  0  0  0  0  0  0  0
   47.5940   34.8670   43.4970 H   0  0  0  0  0  0  0  0  0  0  0  0
   45.1870   32.9670   43.4570 H   0  0  0  0  0  0  0  0  0  0  0  0
   47.0000   32.6670   43.5820 H   0  0  0  0  0  0  0  0  0  0  0  0
   44.5090   35.2730   42.0530 C   0  0  0  0  0  0  0  0  0  0  0  0
   43.4570   34.4680   42.4470 F   0  0  0  0  0  0  0  0  0  0  0  0
   43.9530   36.5060   41.7210 F   0  0  0  0  0  0  0  0  0  0  0  0
   45.1880   34.8200   40.9380 F   0  0  0  0  0  0  0  0  0  0  0  0
   46.8540   30.6110   44.9600 C   0  0  0  0  0  0  0  0  0  0  0  0
   46.5280   29.8610   43.8760 C   0  0  0  0  0  0  0  0  0  0  0  0
   47.7090   29.4670   43.2380 C   0  0  0  0  0  0  0  0  0  0  0  0
   48.6960   29.9980   43.9640 N   0  0  0  0  0  0  0  0  0  0  0  0
   48.2170   30.6750   44.9820 N   0  0  0  0  0  0  0  0  0  0  0  0
   45.4840   29.6940   43.6870 H   0  0  0  0  0  0  0  0  0  0  0  0
   47.6830   28.8580   42.3460 H   0  0  0  0  0  0  0  0  0  0  0  0
   50.1150   29.8150   43.6190 C   0  0  0  0  0  3  0  0  0  0  0  0
   50.2410   29.0000   42.3580 C   0  0  0  0  0  1  0  0  0  0  0  0
   50.7760   28.9910   44.7330 C   0  0  0  0  0  1  0  0  0  0  0  0
  1  8  1  0  0  0  0
  1  6  1  0  0  0  0
  2  1  2  0  0  0  0
  3  2  1  0  0  0  0
  3  4  2  0  0  0  0
  4  5  1  0  0  0  0
  5  6  2  0  0  0  0
  5  7  1  0  0  0  0
  7  9  1  0  0  0  0
 10  7  1  0  0  0  0
 11 12  1  0  0  0  0
 11 17  1  1  0  0  0
 11  2  1  0  0  0  0
 12 18  1  0  0  0  0
 13 19  1  0  0  0  0
 13 12  2  0  0  0  0
 14 20  1  6  0  0  0
 14 13  1  0  0  0  0
 15 14  1  0  0  0  0
 15 22  1  0  0  0  0
 15 16  1  0  0  0  0
 16 11  1  0  0  0  0
 21 15  1  0  0  0  0
 23 16  1  0  0  0  0
 24 16  1  0  0  0  0
 25 26  1  0  0  0  0
 25 14  1  0  0  0  0
 27 25  1  0  0  0  0
 28 25  1  0  0  0  0
 29 33  2  0  0  0  0
 29  3  1  0  0  0  0
 30 29  1  0  0  0  0
 31 30  2  0  0  0  0
 31 32  1  0  0  0  0
 32 33  1  0  0  0  0
 34 30  1  0  0  0  0
 35 31  1  0  0  0  0
 36 32  1  0  0  0  0
 36 38  1  0  0  0  0
 37 36  1  0  0  0  0
M  END
>  <minimizedAffinity>
-5.52290297

>  <minimizedRMSD>
0.17249392

$$$$
