
 OpenBabel03232519363D

 35 38  0  0  0  0  0  0  0  0999 V2000
   46.5410   34.4550   41.9760 N   0  0  0  0  0  0  0  0  0  0  0  0
   47.6700   35.2330   41.8730 C   0  0  0  0  0  0  0  0  0  0  0  0
   48.4190   35.2380   40.7180 C   0  0  0  0  0  0  0  0  0  0  0  0
   47.9870   34.4230   39.6560 C   0  0  0  0  0  0  0  0  0  0  0  0
   48.6460   34.4060   38.5910 O   0  0  0  0  0  0  0  0  0  0  0  0
   46.8890   33.7030   39.8320 N   0  0  0  0  0  0  0  0  0  0  0  0
   46.1660   33.7060   40.9640 C   0  0  0  0  0  0  0  0  0  0  0  0
   45.1470   33.0660   41.1880 O   0  0  0  0  0  0  0  0  0  0  0  0
   48.0610   35.8730   42.6280 H   0  0  0  0  0  0  0  0  0  0  0  0
   49.3090   35.8250   40.5800 H   0  0  0  0  0  0  0  0  0  0  0  0
   46.4000   32.8590   38.7950 C   0  0  0  0  0  0  0  0  0  0  0  0
   45.4280   33.2290   37.8800 C   0  0  0  0  0  0  0  0  0  0  0  0
   45.0130   32.3490   36.9060 C   0  0  0  0  0  0  0  0  0  0  0  0
   45.5560   31.0700   36.8180 C   0  0  0  0  0  0  0  0  0  0  0  0
   46.5250   30.7170   37.7370 C   0  0  0  0  0  0  0  0  0  0  0  0
   46.9630   31.5920   38.7340 C   0  0  0  0  0  0  0  0  0  0  0  0
   45.0130   34.2200   37.9560 H   0  0  0  0  0  0  0  0  0  0  0  0
   44.2540   32.6130   36.1800 H   0  0  0  0  0  0  0  0  0  0  0  0
   45.2220   30.3850   36.0480 H   0  0  0  0  0  0  0  0  0  0  0  0
   46.9220   29.7240   37.6400 H   0  0  0  0  0  0  0  0  0  0  0  0
   47.9660   31.0680   39.5980 N   0  0  0  0  0  0  0  0  0  0  0  0
   47.8880   30.5780   40.9790 C   0  0  0  0  0  0  0  0  0  0  0  0
   49.2120   31.0080   41.6210 C   0  0  0  0  0  0  0  0  0  0  0  0
   50.2720   30.2760   41.0980 O   0  0  0  0  0  0  0  0  0  0  0  0
   50.0390   29.8720   39.7880 C   0  0  0  0  0  0  0  0  0  0  0  0
   49.3190   30.9840   39.0600 C   0  0  0  0  0  0  0  0  0  0  0  0
   44.5170   35.8850   44.7350 C   0  0  0  0  0  0  0  0  0  0  0  0
   45.1060   35.7270   43.4530 C   0  0  0  0  0  0  0  0  0  0  0  0
   45.9390   34.6250   43.2740 C   0  0  0  0  0  0  0  0  0  0  0  0
   46.1610   33.7500   44.3050 N   0  0  0  0  0  0  0  0  0  0  0  0
   45.5690   33.9520   45.5150 C   0  0  0  0  0  0  0  0  0  0  0  0
   44.7680   34.9870   45.7350 N   0  0  0  0  0  0  0  0  0  0  0  0
   43.8640   36.7290   44.9150 H   0  0  0  0  0  0  0  0  0  0  0  0
   44.8810   36.4550   42.6980 H   0  0  0  0  0  0  0  0  0  0  0  0
   45.8510   33.1710   46.2140 H   0  0  0  0  0  0  0  0  0  0  0  0
  1 29  1  0  0  0  0
  2  1  1  0  0  0  0
  2  9  1  0  0  0  0
  3  2  2  0  0  0  0
  4  6  1  0  0  0  0
  4  3  1  0  0  0  0
  5  4  2  0  0  0  0
  6  7  1  0  0  0  0
  7  8  2  0  0  0  0
  7  1  1  0  0  0  0
 10  3  1  0  0  0  0
 11  6  1  0  0  0  0
 12 17  1  0  0  0  0
 12 11  2  0  0  0  0
 13 12  1  0  0  0  0
 14 13  2  0  0  0  0
 14 15  1  0  0  0  0
 15 16  2  0  0  0  0
 16 11  1  0  0  0  0
 16 21  1  0  0  0  0
 18 13  1  0  0  0  0
 19 14  1  0  0  0  0
 20 15  1  0  0  0  0
 21 22  1  0  0  0  0
 22 23  1  0  0  0  0
 24 23  1  0  0  0  0
 25 24  1  0  0  0  0
 26 21  1  0  0  0  0
 26 25  1  0  0  0  0
 27 33  1  0  0  0  0
 27 32  1  0  0  0  0
 28 27  2  0  0  0  0
 29 28  1  0  0  0  0
 29 30  2  0  0  0  0
 30 31  1  0  0  0  0
 31 32  2  0  0  0  0
 31 35  1  0  0  0  0
 34 28  1  0  0  0  0
M  END
>  <minimizedAffinity>
-5.32561493

>  <minimizedRMSD>
0.414664835

$$$$
