
 OpenBabel03232520593D

 39 41  0  0  1  0  0  0  0  0999 V2000
   45.3840   32.8940   47.5590 C   0  0  0  0  0  0  0  0  0  0  0  0
   45.9210   32.6200   46.3430 C   0  0  0  0  0  0  0  0  0  0  0  0
   46.1670   31.2670   46.1020 C   0  0  0  0  0  0  0  0  0  0  0  0
   45.8990   30.2840   46.9990 N   0  0  0  0  0  0  0  0  0  0  0  0
   45.3510   30.6190   48.2270 C   0  0  0  0  0  0  0  0  0  0  0  0
   45.1100   31.8980   48.4760 N   0  0  0  0  0  0  0  0  0  0  0  0
   45.0940   29.6090   49.1930 N   0  0  0  0  0  0  0  0  0  0  0  0
   45.1590   33.9080   47.8510 H   0  0  0  0  0  0  0  0  0  0  0  0
   44.1710   29.5870   49.7020 H   0  0  0  0  0  0  0  0  0  0  0  0
   45.8160   28.8680   49.4160 H   0  0  0  0  0  0  0  0  0  0  0  0
   46.1800   33.5620   45.3080 C   0  0  2  0  0  0  0  0  0  0  0  0
   44.9690   34.6570   45.5160 C   0  0  0  0  0  0  0  0  0  0  0  0
   44.7470   35.5770   44.4360 C   0  0  0  0  0  0  0  0  0  0  0  0
   45.5600   35.4930   43.2190 C   0  0  1  0  0  0  0  0  0  0  0  0
   46.6200   34.4930   43.1920 C   0  0  0  0  0  0  0  0  0  0  0  0
   46.1650   33.2660   43.9470 C   0  0  0  0  0  0  0  0  0  0  0  0
   46.9900   34.2790   45.6440 H   0  0  0  0  0  0  0  0  0  0  0  0
   44.2820   34.8220   46.3370 H   0  0  0  0  0  0  0  0  0  0  0  0
   43.9770   36.2980   44.5310 H   0  0  0  0  0  0  0  0  0  0  0  0
   45.9840   36.4970   43.0070 H   0  0  0  0  0  0  0  0  0  0  0  0
   46.8740   34.2710   42.1160 H   0  0  0  0  0  0  0  0  0  0  0  0
   47.5740   34.8140   43.6510 H   0  0  0  0  0  0  0  0  0  0  0  0
   47.0240   32.6170   43.6310 H   0  0  0  0  0  0  0  0  0  0  0  0
   45.2170   32.8730   43.5180 H   0  0  0  0  0  0  0  0  0  0  0  0
   44.5560   35.2130   42.0610 C   0  0  0  0  0  0  0  0  0  0  0  0
   43.5240   34.3700   42.4390 F   0  0  0  0  0  0  0  0  0  0  0  0
   43.9690   36.4360   41.7460 F   0  0  0  0  0  0  0  0  0  0  0  0
   45.2460   34.7960   40.9400 F   0  0  0  0  0  0  0  0  0  0  0  0
   46.7800   30.5570   44.9930 C   0  0  0  0  0  0  0  0  0  0  0  0
   46.4080   29.9170   43.8540 C   0  0  0  0  0  0  0  0  0  0  0  0
   47.5680   29.4040   43.2480 C   0  0  0  0  0  0  0  0  0  0  0  0
   48.5730   29.7580   44.0460 N   0  0  0  0  0  0  0  0  0  0  0  0
   48.1370   30.4370   45.0810 N   0  0  0  0  0  0  0  0  0  0  0  0
   45.3530   29.9090   43.6170 H   0  0  0  0  0  0  0  0  0  0  0  0
   47.4910   28.8650   42.3370 H   0  0  0  0  0  0  0  0  0  0  0  0
   49.9700   29.4030   43.7510 C   0  0  0  0  0  0  0  0  0  0  0  0
   49.9470   28.1350   42.8950 C   0  0  0  0  0  1  0  0  0  0  0  0
   50.7250   29.0670   44.9970 C   0  0  0  0  0  1  0  0  0  0  0  0
   50.5460   30.5180   42.9400 C   0  0  0  0  0  1  0  0  0  0  0  0
  1  8  1  0  0  0  0
  1  6  1  0  0  0  0
  2  1  2  0  0  0  0
  3  2  1  0  0  0  0
  3  4  2  0  0  0  0
  4  5  1  0  0  0  0
  5  6  2  0  0  0  0
  5  7  1  0  0  0  0
  7 10  1  0  0  0  0
  7  9  1  0  0  0  0
 11 12  1  0  0  0  0
 11 17  1  1  0  0  0
 11  2  1  0  0  0  0
 12 18  1  0  0  0  0
 13 19  1  0  0  0  0
 13 12  2  0  0  0  0
 14 20  1  6  0  0  0
 14 13  1  0  0  0  0
 15 14  1  0  0  0  0
 15 22  1  0  0  0  0
 15 16  1  0  0  0  0
 16 11  1  0  0  0  0
 21 15  1  0  0  0  0
 23 16  1  0  0  0  0
 24 16  1  0  0  0  0
 25 26  1  0  0  0  0
 25 14  1  0  0  0  0
 27 25  1  0  0  0  0
 28 25  1  0  0  0  0
 29 33  2  0  0  0  0
 29  3  1  0  0  0  0
 30 29  1  0  0  0  0
 31 30  2  0  0  0  0
 31 32  1  0  0  0  0
 32 33  1  0  0  0  0
 34 30  1  0  0  0  0
 35 31  1  0  0  0  0
 36 32  1  0  0  0  0
 36 38  1  0  0  0  0
 37 36  1  0  0  0  0
 39 36  1  0  0  0  0
M  END
>  <minimizedAffinity>
-5.69383574

>  <minimizedRMSD>
0.261742711

$$$$
