
 OpenBabel03232520583D

 39 41  0  0  1  0  0  0  0  0999 V2000
   45.4100   32.8590   47.5040 C   0  0  0  0  0  0  0  0  0  0  0  0
   45.9200   32.6060   46.2730 C   0  0  0  0  0  0  0  0  0  0  0  0
   46.1440   31.2550   45.9970 C   0  0  0  0  0  0  0  0  0  0  0  0
   45.8800   30.2560   46.8760 N   0  0  0  0  0  0  0  0  0  0  0  0
   45.3600   30.5700   48.1220 C   0  0  0  0  0  0  0  0  0  0  0  0
   45.1400   31.8460   48.4040 N   0  0  0  0  0  0  0  0  0  0  0  0
   45.1080   29.5410   49.0690 N   0  0  0  0  0  0  0  0  0  0  0  0
   45.2020   33.8690   47.8230 H   0  0  0  0  0  0  0  0  0  0  0  0
   44.1950   29.5190   49.5960 H   0  0  0  0  0  0  0  0  0  0  0  0
   45.8250   28.7870   49.2620 H   0  0  0  0  0  0  0  0  0  0  0  0
   46.1710   33.5680   45.2550 C   0  0  2  0  0  0  0  0  0  0  0  0
   44.9660   34.6620   45.4970 C   0  0  0  0  0  0  0  0  0  0  0  0
   44.7360   35.6050   44.4380 C   0  0  0  0  0  0  0  0  0  0  0  0
   45.5370   35.5430   43.2110 C   0  0  1  0  0  0  0  0  0  0  0  0
   46.5940   34.5410   43.1540 C   0  0  0  0  0  0  0  0  0  0  0  0
   46.1420   33.3000   43.8880 C   0  0  0  0  0  0  0  0  0  0  0  0
   46.9870   34.2760   45.5970 H   0  0  0  0  0  0  0  0  0  0  0  0
   44.2880   34.8120   46.3280 H   0  0  0  0  0  0  0  0  0  0  0  0
   43.9700   36.3260   44.5560 H   0  0  0  0  0  0  0  0  0  0  0  0
   45.9620   36.5500   43.0160 H   0  0  0  0  0  0  0  0  0  0  0  0
   46.8350   34.3400   42.0710 H   0  0  0  0  0  0  0  0  0  0  0  0
   47.5530   34.8490   43.6090 H   0  0  0  0  0  0  0  0  0  0  0  0
   46.9960   32.6540   43.5500 H   0  0  0  0  0  0  0  0  0  0  0  0
   45.1890   32.9180   43.4600 H   0  0  0  0  0  0  0  0  0  0  0  0
   44.5200   35.2900   42.0580 C   0  0  0  0  0  0  0  0  0  0  0  0
   43.4500   34.5030   42.4500 F   0  0  0  0  0  0  0  0  0  0  0  0
   43.9920   36.5320   41.7210 F   0  0  0  0  0  0  0  0  0  0  0  0
   45.1900   34.8210   40.9450 F   0  0  0  0  0  0  0  0  0  0  0  0
   46.7270   30.5640   44.8600 C   0  0  0  0  0  0  0  0  0  0  0  0
   46.3260   29.8250   43.7940 C   0  0  0  0  0  0  0  0  0  0  0  0
   47.4750   29.4190   43.0920 C   0  0  0  0  0  0  0  0  0  0  0  0
   48.5030   29.9300   43.7670 N   0  0  0  0  0  0  0  0  0  0  0  0
   48.0910   30.6090   44.8120 N   0  0  0  0  0  0  0  0  0  0  0  0
   45.2610   29.6810   43.6680 H   0  0  0  0  0  0  0  0  0  0  0  0
   47.3750   28.8260   42.2180 H   0  0  0  0  0  0  0  0  0  0  0  0
   49.8970   29.7260   43.3430 C   0  0  0  0  0  0  0  0  0  0  0  0
   49.8990   28.5960   42.3130 C   0  0  0  0  0  1  0  0  0  0  0  0
   50.7540   29.2730   44.4810 C   0  0  0  0  0  1  0  0  0  0  0  0
   50.3420   30.9860   42.6730 C   0  0  0  0  0  1  0  0  0  0  0  0
  1  8  1  0  0  0  0
  1  6  1  0  0  0  0
  2  1  2  0  0  0  0
  3  2  1  0  0  0  0
  3  4  2  0  0  0  0
  4  5  1  0  0  0  0
  5  6  2  0  0  0  0
  5  7  1  0  0  0  0
  7 10  1  0  0  0  0
  7  9  1  0  0  0  0
 11 12  1  0  0  0  0
 11 17  1  1  0  0  0
 11  2  1  0  0  0  0
 12 18  1  0  0  0  0
 13 19  1  0  0  0  0
 13 12  2  0  0  0  0
 14 20  1  6  0  0  0
 14 13  1  0  0  0  0
 15 14  1  0  0  0  0
 15 22  1  0  0  0  0
 15 16  1  0  0  0  0
 16 11  1  0  0  0  0
 21 15  1  0  0  0  0
 23 16  1  0  0  0  0
 24 16  1  0  0  0  0
 25 26  1  0  0  0  0
 25 14  1  0  0  0  0
 27 25  1  0  0  0  0
 28 25  1  0  0  0  0
 29  3  1  0  0  0  0
 30 29  1  0  0  0  0
 31 32  1  0  0  0  0
 31 30  2  0  0  0  0
 32 33  1  0  0  0  0
 33 29  2  0  0  0  0
 34 30  1  0  0  0  0
 35 31  1  0  0  0  0
 36 32  1  0  0  0  0
 36 38  1  0  0  0  0
 37 36  1  0  0  0  0
 39 36  1  0  0  0  0
M  END
>  <minimizedAffinity>
-5.68378496

>  <minimizedRMSD>
0.171822026

$$$$
