
 OpenBabel03232520253D

 42 46  0  0  1  0  0  0  0  0999 V2000
   46.8250   34.4820   41.3460 C   0  0  0  0  0  0  0  0  0  0  0  0
   48.1140   34.8250   40.9820 C   0  0  0  0  0  0  0  0  0  0  0  0
   48.3440   34.4910   39.7110 N   0  0  0  0  0  0  0  0  0  0  0  0
   47.2160   33.9350   39.2510 C   0  0  0  0  0  0  0  0  0  0  0  0
   46.9280   33.4150   37.9840 C   0  0  0  0  0  0  0  0  0  0  0  0
   45.6840   32.8940   37.7590 C   0  0  0  0  0  0  0  0  0  0  0  0
   44.6690   32.8390   38.7050 C   0  0  0  0  0  0  0  0  0  0  0  0
   45.0080   33.3650   39.9320 C   0  0  0  0  0  0  0  0  0  0  0  0
   46.2290   33.9040   40.2380 C   0  0  0  0  0  0  0  0  0  0  0  0
   49.2210   34.6140   39.1250 H   0  0  0  0  0  0  0  0  0  0  0  0
   47.6700   33.4200   37.1860 H   0  0  0  0  0  0  0  0  0  0  0  0
   45.4800   32.4950   36.7680 H   0  0  0  0  0  0  0  0  0  0  0  0
   43.6880   32.4200   38.5020 H   0  0  0  0  0  0  0  0  0  0  0  0
   44.2590   33.3520   40.7150 H   0  0  0  0  0  0  0  0  0  0  0  0
   44.7630   35.9720   44.0780 C   0  0  0  0  0  0  0  0  0  0  0  0
   45.3830   35.8060   42.8230 C   0  0  0  0  0  0  0  0  0  0  0  0
   46.1750   34.6730   42.6380 C   0  0  0  0  0  0  0  0  0  0  0  0
   46.3250   33.7680   43.6690 N   0  0  0  0  0  0  0  0  0  0  0  0
   45.6980   33.9940   44.8530 C   0  0  0  0  0  0  0  0  0  0  0  0
   44.9260   35.0760   45.0640 N   0  0  0  0  0  0  0  0  0  0  0  0
   44.1690   36.8960   44.1020 H   0  0  0  0  0  0  0  0  0  0  0  0
   45.2740   36.5070   42.0030 H   0  0  0  0  0  0  0  0  0  0  0  0
   45.8100   33.2840   45.6730 H   0  0  0  0  0  0  0  0  0  0  0  0
   49.0710   35.4720   41.9050 C   0  0  0  0  0  0  0  0  0  0  0  0
   49.7060   36.2070   41.3340 H   0  0  0  0  0  0  0  0  0  0  0  0
   48.5110   36.0440   42.6670 H   0  0  0  0  0  0  0  0  0  0  0  0
   49.9940   34.4830   42.5420 C   0  0  0  0  0  0  0  0  0  0  0  0
   49.5920   34.3110   43.5830 H   0  0  0  0  0  0  0  0  0  0  0  0
   51.0190   34.8760   42.7110 H   0  0  0  0  0  0  0  0  0  0  0  0
   50.1350   33.1930   41.7950 C   0  0  1  0  0  0  0  0  0  0  0  0
   51.3710   32.4110   41.7430 C   0  0  0  0  0  0  0  0  0  0  0  0
   50.3340   31.9590   42.6890 C   0  0  2  0  0  0  0  0  0  0  0  0
   49.3730   32.9900   40.9990 H   0  0  0  0  0  0  0  0  0  0  0  0
   51.5870   31.8750   40.7990 H   0  0  0  0  0  0  0  0  0  0  0  0
   52.3010   32.8840   42.1490 H   0  0  0  0  0  0  0  0  0  0  0  0
   50.5550   32.1560   43.7680 H   0  0  0  0  0  0  0  0  0  0  0  0
   49.5220   30.7890   42.4760 N   0  0  0  0  0  0  0  0  0  0  0  0
   49.2150   30.0780   43.6890 C   0  0  0  0  0  0  0  0  0  0  0  0
   47.9410   30.5410   44.3550 C   0  0  0  0  0  0  0  0  0  0  0  0
   46.8970   30.1040   43.5440 O   0  0  0  0  0  0  0  0  0  0  0  0
   47.1060   30.3400   42.1970 C   0  0  0  0  0  0  0  0  0  0  0  0
   48.2660   31.2710   41.9320 C   0  0  0  0  0  0  0  0  0  0  0  0
  1 17  1  0  0  0  0
  2  1  2  0  0  0  0
  2 24  1  0  0  0  0
  3  2  1  0  0  0  0
  4  3  1  0  0  0  0
  4  9  1  0  0  0  0
  5  4  2  0  0  0  0
  6  5  1  0  0  0  0
  6  7  2  0  0  0  0
  7  8  1  0  0  0  0
  8  9  2  0  0  0  0
  8 14  1  0  0  0  0
  9  1  1  0  0  0  0
 10  3  1  0  0  0  0
 11  5  1  0  0  0  0
 12  6  1  0  0  0  0
 13  7  1  0  0  0  0
 15 21  1  0  0  0  0
 15 20  1  0  0  0  0
 16 15  2  0  0  0  0
 17 16  1  0  0  0  0
 17 18  2  0  0  0  0
 18 19  1  0  0  0  0
 19 20  2  0  0  0  0
 19 23  1  0  0  0  0
 22 16  1  0  0  0  0
 24 27  1  0  0  0  0
 24 26  1  0  0  0  0
 25 24  1  0  0  0  0
 27 29  1  0  0  0  0
 27 28  1  0  0  0  0
 30 33  1  6  0  0  0
 30 27  1  0  0  0  0
 30 32  1  0  0  0  0
 31 30  1  0  0  0  0
 31 35  1  0  0  0  0
 31 32  1  0  0  0  0
 32 36  1  1  0  0  0
 34 31  1  0  0  0  0
 37 32  1  0  0  0  0
 37 38  1  0  0  0  0
 38 39  1  0  0  0  0
 40 39  1  0  0  0  0
 41 40  1  0  0  0  0
 42 41  1  0  0  0  0
 42 37  1  0  0  0  0
M  END
>  <minimizedAffinity>
-5.74769974

>  <minimizedRMSD>
1.34219313

$$$$
