
 OpenBabel03232519513D

 42 45  0  0  1  0  0  0  0  0999 V2000
   46.8360   33.8050   42.7040 N   0  0  0  0  0  0  0  0  0  0  0  0
   48.0780   34.2880   42.0920 C   0  0  0  0  0  0  0  0  0  0  0  0
   47.8490   33.8580   40.6650 C   0  0  0  0  0  0  0  0  0  0  0  0
   47.4490   32.4250   40.8650 C   0  0  0  0  0  0  0  0  0  0  0  0
   46.5790   32.4940   42.0880 C   0  0  2  0  0  0  0  0  0  0  0  0
   48.1450   35.4010   42.1470 H   0  0  0  0  0  0  0  0  0  0  0  0
   48.9570   33.7930   42.5240 H   0  0  0  0  0  0  0  0  0  0  0  0
   47.0250   34.4620   40.2390 H   0  0  0  0  0  0  0  0  0  0  0  0
   48.7960   33.9500   40.0720 H   0  0  0  0  0  0  0  0  0  0  0  0
   48.3330   31.7850   40.9660 H   0  0  0  0  0  0  0  0  0  0  0  0
   46.8130   32.1230   40.0090 H   0  0  0  0  0  0  0  0  0  0  0  0
   47.0460   31.7800   42.8130 H   0  0  0  0  0  0  0  0  0  0  0  0
   44.5160   36.1100   44.4520 C   0  0  0  0  0  0  0  0  0  0  0  0
   45.3100   35.5740   43.4340 C   0  0  0  0  0  0  0  0  0  0  0  0
   46.0290   34.3990   43.6610 C   0  0  0  0  0  0  0  0  0  0  0  0
   45.8940   33.8470   44.9070 N   0  0  0  0  0  0  0  0  0  0  0  0
   45.1300   34.3730   45.8660 C   0  0  0  0  0  0  0  0  0  0  0  0
   44.4390   35.5100   45.6380 N   0  0  0  0  0  0  0  0  0  0  0  0
   45.1120   33.6550   47.0980 N   0  0  0  0  0  0  0  0  0  0  0  0
   43.9680   37.0180   44.2580 H   0  0  0  0  0  0  0  0  0  0  0  0
   45.3980   36.0270   42.4620 H   0  0  0  0  0  0  0  0  0  0  0  0
   45.0220   34.2960   47.9140 H   0  0  0  0  0  0  0  0  0  0  0  0
   45.1840   32.6220   47.1280 H   0  0  0  0  0  0  0  0  0  0  0  0
   45.2160   32.1980   41.8950 N   0  0  0  0  0  0  0  0  0  0  0  0
   44.4260   32.6040   40.9110 C   0  0  0  0  0  0  0  0  0  0  0  0
   43.0870   32.2510   40.8110 C   0  0  0  0  0  0  0  0  0  0  0  0
   42.5170   31.4360   41.7720 C   0  0  0  0  0  0  0  0  0  0  0  0
   41.2970   31.0820   41.7310 O   0  0  0  0  0  0  0  0  0  0  0  0
   43.3240   31.0280   42.7680 N   0  0  0  0  0  0  0  0  0  0  0  0
   44.5890   31.3960   42.8090 C   0  0  0  0  0  0  0  0  0  0  0  0
   45.2690   30.9520   43.7980 O   0  0  0  0  0  0  0  0  0  0  0  0
   44.8760   33.2450   40.1490 H   0  0  0  0  0  0  0  0  0  0  0  0
   42.8910   30.4170   43.4850 H   0  0  0  0  0  0  0  0  0  0  0  0
   42.2410   32.7290   39.6910 C   0  0  0  0  0  0  0  0  0  0  0  0
   42.7810   32.6870   38.7370 H   0  0  0  0  0  0  0  0  0  0  0  0
   41.4050   31.9960   39.6150 H   0  0  0  0  0  0  0  0  0  0  0  0
   41.6420   33.9930   40.0030 N   0  0  0  0  0  0  0  0  0  0  0  0
   40.1950   33.9750   39.9800 C   0  0  0  0  0  0  0  0  0  0  0  0
   39.6990   35.3770   40.2490 C   0  0  0  0  0  0  0  0  0  0  0  0
   40.6930   36.2280   40.7280 O   0  0  0  0  0  0  0  0  0  0  0  0
   41.2840   35.5930   41.8240 C   0  0  0  0  0  0  0  0  0  0  0  0
   42.1610   34.4900   41.2570 C   0  0  0  0  0  0  0  0  0  0  0  0
  1 15  1  0  0  0  0
  2  6  1  0  0  0  0
  2  7  1  0  0  0  0
  2  1  1  0  0  0  0
  3  4  1  0  0  0  0
  3  2  1  0  0  0  0
  4 10  1  0  0  0  0
  4  5  1  0  0  0  0
  5  1  1  0  0  0  0
  5 12  1  1  0  0  0
  8  3  1  0  0  0  0
  9  3  1  0  0  0  0
 11  4  1  0  0  0  0
 13 18  1  0  0  0  0
 14 15  1  0  0  0  0
 14 13  2  0  0  0  0
 15 16  2  0  0  0  0
 16 17  1  0  0  0  0
 17 19  1  0  0  0  0
 18 17  2  0  0  0  0
 19 23  1  0  0  0  0
 19 22  1  0  0  0  0
 20 13  1  0  0  0  0
 21 14  1  0  0  0  0
 24  5  1  0  0  0  0
 24 30  1  0  0  0  0
 25 24  1  0  0  0  0
 26 25  2  0  0  0  0
 26 27  1  0  0  0  0
 27 29  1  0  0  0  0
 28 27  2  0  0  0  0
 29 30  1  0  0  0  0
 29 33  1  0  0  0  0
 30 31  2  0  0  0  0
 32 25  1  0  0  0  0
 34 37  1  0  0  0  0
 34 26  1  0  0  0  0
 35 34  1  0  0  0  0
 36 34  1  0  0  0  0
 37 42  1  0  0  0  0
 38 37  1  0  0  0  0
 38 39  1  0  0  0  0
 39 40  1  0  0  0  0
 40 41  1  0  0  0  0
 42 41  1  0  0  0  0
M  END
>  <minimizedAffinity>
-6.21692467

>  <minimizedRMSD>
1.75114369

$$$$
