
 OpenBabel03232520013D

 17 17  0  0  0  0  0  0  0  0999 V2000
   47.9290   34.4980   42.6500 C   0  0  0  0  0  0  0  0  0  0  0  0
   46.7720   34.8180   41.9470 C   0  0  0  0  0  0  0  0  0  0  0  0
   45.6190   34.0910   42.2470 C   0  0  0  0  0  0  0  0  0  0  0  0
   45.6840   33.1150   43.2030 N   0  0  0  0  0  0  0  0  0  0  0  0
   46.8440   32.8560   43.8480 C   0  0  0  0  0  0  0  0  0  0  0  0
   47.9620   33.5420   43.5740 N   0  0  0  0  0  0  0  0  0  0  0  0
   46.7910   35.6050   41.2000 H   0  0  0  0  0  0  0  0  0  0  0  0
   44.7180   34.3090   41.7280 H   0  0  0  0  0  0  0  0  0  0  0  0
   49.1540   35.2630   42.3510 C   0  0  0  0  0  0  0  0  0  0  0  0
   49.1550   36.0330   41.3450 O   0  0  0  0  0  0  0  0  0  0  0  0
   50.2590   35.1360   43.1480 O   0  0  0  0  0  0  0  0  0  0  0  0
   51.0120   35.8130   43.1050 H   0  0  0  0  0  0  0  0  0  0  0  0
   47.0020   31.6000   45.1140 S   0  0  0  0  0  0  0  0  0  0  0  0
   46.3730   32.1270   46.7110 C   0  0  0  0  0  0  0  0  0  0  0  0
   45.4410   31.1040   47.3240 C   0  0  0  0  0  0  0  0  0  0  0  0
   47.4450   32.3980   47.7380 C   0  0  0  0  0  0  0  0  0  0  0  0
   45.6010   33.3970   46.5010 C   0  0  0  0  0  0  0  0  0  0  0  0
  1  6  1  0  0  0  0
  2  3  1  0  0  0  0
  2  1  2  0  0  0  0
  3  4  2  0  0  0  0
  4  5  1  0  0  0  0
  5 13  1  0  0  0  0
  6  5  2  0  0  0  0
  7  2  1  0  0  0  0
  8  3  1  0  0  0  0
  9  1  1  0  0  0  0
  9 11  1  0  0  0  0
 10  9  2  0  0  0  0
 12 11  1  0  0  0  0
 13 14  1  0  0  0  0
 14 15  1  0  0  0  0
 14 16  1  0  0  0  0
 17 14  1  0  0  0  0
M  END
>  <minimizedAffinity>
-4.40008116

>  <minimizedRMSD>
1.68843126

$$$$
