
 OpenBabel03232516253D

 32 34  0  0  0  0  0  0  0  0999 V2000
   44.1110   34.0320   40.9770 C   0  0  0  0  0  0  0  0  0  0  0  0
   40.9120   35.7910   41.4150 C   0  0  0  0  0  0  0  0  0  0  0  0
   40.4440   35.9450   40.0780 C   0  0  0  0  0  0  0  0  0  0  0  0
   41.2490   35.4350   39.0330 C   0  0  0  0  0  0  0  0  0  0  0  0
   42.4300   34.8230   39.3760 N   0  0  0  0  0  0  0  0  0  0  0  0
   42.8250   34.7040   40.6720 C   0  0  0  0  0  0  0  0  0  0  0  0
   42.0730   35.1820   41.6560 N   0  0  0  0  0  0  0  0  0  0  0  0
   40.3010   36.1770   42.1980 H   0  0  0  0  0  0  0  0  0  0  0  0
   39.5090   36.4320   39.8200 H   0  0  0  0  0  0  0  0  0  0  0  0
   40.9600   35.5170   37.9970 H   0  0  0  0  0  0  0  0  0  0  0  0
   44.6410   33.3790   39.7160 C   0  0  0  0  0  0  0  0  0  0  0  0
   43.8980   32.7220   39.2390 H   0  0  0  0  0  0  0  0  0  0  0  0
   44.9620   34.1430   38.9830 H   0  0  0  0  0  0  0  0  0  0  0  0
   45.5580   32.8050   40.0120 H   0  0  0  0  0  0  0  0  0  0  0  0
   43.8580   32.9140   41.9630 C   0  0  0  0  0  0  0  0  0  0  0  0
   43.1760   33.2960   42.7400 H   0  0  0  0  0  0  0  0  0  0  0  0
   43.3260   32.0890   41.4450 H   0  0  0  0  0  0  0  0  0  0  0  0
   44.7700   32.5560   42.4430 H   0  0  0  0  0  0  0  0  0  0  0  0
   45.1630   34.9760   41.4730 C   0  0  0  0  0  0  0  0  0  0  0  0
   45.6820   35.3920   40.6040 H   0  0  0  0  0  0  0  0  0  0  0  0
   44.6500   35.8160   42.0030 H   0  0  0  0  0  0  0  0  0  0  0  0
   46.1700   34.3770   42.3620 C   0  0  0  0  0  0  0  0  0  0  0  0
   46.3490   34.3640   43.6870 N   0  0  0  0  0  0  0  0  0  0  0  0
   47.4210   33.6750   43.9990 O   0  0  0  0  0  0  0  0  0  0  0  0
   47.9680   33.2210   42.8870 C   0  0  0  0  0  0  0  0  0  0  0  0
   47.2090   33.6460   41.8780 N   0  0  0  0  0  0  0  0  0  0  0  0
   49.1400   32.4280   42.7410 N   0  0  0  0  0  0  0  0  0  0  0  0
   49.1290   30.9940   43.0690 C   0  0  0  0  0  0  0  0  0  0  0  0
   50.4110   30.3700   42.5840 C   0  0  0  0  0  0  0  0  0  0  0  0
   50.7830   30.7710   41.3100 O   0  0  0  0  0  0  0  0  0  0  0  0
   50.9800   32.1180   41.1520 C   0  0  0  0  0  0  0  0  0  0  0  0
   50.3980   32.9500   42.2740 C   0  0  0  0  0  0  0  0  0  0  0  0
  1 19  1  0  0  0  0
  1 15  1  0  0  0  0
  2  7  1  0  0  0  0
  2  8  1  0  0  0  0
  3  2  2  0  0  0  0
  4  5  2  0  0  0  0
  4  3  1  0  0  0  0
  5  6  1  0  0  0  0
  6  1  1  0  0  0  0
  6  7  2  0  0  0  0
  9  3  1  0  0  0  0
 10  4  1  0  0  0  0
 11 14  1  0  0  0  0
 11  1  1  0  0  0  0
 12 11  1  0  0  0  0
 13 11  1  0  0  0  0
 15 18  1  0  0  0  0
 15 16  1  0  0  0  0
 17 15  1  0  0  0  0
 19 21  1  0  0  0  0
 19 22  1  0  0  0  0
 20 19  1  0  0  0  0
 22 23  2  0  0  0  0
 23 24  1  0  0  0  0
 25 24  1  0  0  0  0
 26 22  1  0  0  0  0
 26 25  2  0  0  0  0
 27 25  1  0  0  0  0
 27 28  1  0  0  0  0
 29 28  1  0  0  0  0
 30 29  1  0  0  0  0
 31 30  1  0  0  0  0
 31 32  1  0  0  0  0
 32 27  1  0  0  0  0
M  END
>  <minimizedAffinity>
-4.69103718

>  <minimizedRMSD>
3.49244618

$$$$
