
 OpenBabel03232520583D

 39 41  0  0  1  0  0  0  0  0999 V2000
   45.4110   32.8970   47.5590 C   0  0  0  0  0  0  0  0  0  0  0  0
   45.9240   32.6210   46.3340 C   0  0  0  0  0  0  0  0  0  0  0  0
   46.1460   31.2660   46.0810 C   0  0  0  0  0  0  0  0  0  0  0  0
   45.8770   30.2830   46.9760 N   0  0  0  0  0  0  0  0  0  0  0  0
   45.3540   30.6180   48.2150 C   0  0  0  0  0  0  0  0  0  0  0  0
   45.1360   31.9000   48.4750 N   0  0  0  0  0  0  0  0  0  0  0  0
   45.0970   29.6070   49.1790 N   0  0  0  0  0  0  0  0  0  0  0  0
   45.2060   33.9120   47.8610 H   0  0  0  0  0  0  0  0  0  0  0  0
   44.1820   29.5960   49.7030 H   0  0  0  0  0  0  0  0  0  0  0  0
   45.8100   28.8540   49.3860 H   0  0  0  0  0  0  0  0  0  0  0  0
   46.1810   33.5660   45.3000 C   0  0  2  0  0  0  0  0  0  0  0  0
   44.9690   34.6590   45.5110 C   0  0  0  0  0  0  0  0  0  0  0  0
   44.7450   35.5810   44.4320 C   0  0  0  0  0  0  0  0  0  0  0  0
   45.5570   35.4990   43.2140 C   0  0  1  0  0  0  0  0  0  0  0  0
   46.6190   34.5010   43.1850 C   0  0  0  0  0  0  0  0  0  0  0  0
   46.1660   33.2720   43.9380 C   0  0  0  0  0  0  0  0  0  0  0  0
   46.9910   34.2840   45.6370 H   0  0  0  0  0  0  0  0  0  0  0  0
   44.2830   34.8210   46.3320 H   0  0  0  0  0  0  0  0  0  0  0  0
   43.9740   36.3010   44.5290 H   0  0  0  0  0  0  0  0  0  0  0  0
   45.9790   36.5050   43.0040 H   0  0  0  0  0  0  0  0  0  0  0  0
   46.8720   34.2810   42.1090 H   0  0  0  0  0  0  0  0  0  0  0  0
   47.5730   34.8230   43.6440 H   0  0  0  0  0  0  0  0  0  0  0  0
   47.0260   32.6250   43.6200 H   0  0  0  0  0  0  0  0  0  0  0  0
   45.2180   32.8780   43.5090 H   0  0  0  0  0  0  0  0  0  0  0  0
   44.5520   35.2200   42.0570 C   0  0  0  0  0  0  0  0  0  0  0  0
   43.5200   34.3790   42.4350 F   0  0  0  0  0  0  0  0  0  0  0  0
   43.9690   36.4430   41.7400 F   0  0  0  0  0  0  0  0  0  0  0  0
   45.2420   34.8010   40.9360 F   0  0  0  0  0  0  0  0  0  0  0  0
   46.7300   30.5540   44.9580 C   0  0  0  0  0  0  0  0  0  0  0  0
   46.3300   29.9280   43.8210 C   0  0  0  0  0  0  0  0  0  0  0  0
   47.4720   29.3990   43.1940 C   0  0  0  0  0  0  0  0  0  0  0  0
   48.4950   29.7320   43.9790 N   0  0  0  0  0  0  0  0  0  0  0  0
   48.0860   30.4120   45.0240 N   0  0  0  0  0  0  0  0  0  0  0  0
   45.2710   29.9390   43.6010 H   0  0  0  0  0  0  0  0  0  0  0  0
   47.3720   28.8680   42.2810 H   0  0  0  0  0  0  0  0  0  0  0  0
   49.8820   29.3560   43.6600 C   0  0  0  0  0  0  0  0  0  0  0  0
   50.5280   30.5510   42.9590 C   0  0  0  0  0  1  0  0  0  0  0  0
   49.9330   28.2130   42.6990 C   0  0  0  0  0  1  0  0  0  0  0  0
   50.5840   29.1260   44.9600 C   0  0  0  0  0  1  0  0  0  0  0  0
  1  8  1  0  0  0  0
  1  6  1  0  0  0  0
  2  1  2  0  0  0  0
  3  2  1  0  0  0  0
  3  4  2  0  0  0  0
  4  5  1  0  0  0  0
  5  6  2  0  0  0  0
  5  7  1  0  0  0  0
  7 10  1  0  0  0  0
  7  9  1  0  0  0  0
 11 12  1  0  0  0  0
 11 17  1  1  0  0  0
 11  2  1  0  0  0  0
 12 18  1  0  0  0  0
 13 19  1  0  0  0  0
 13 12  2  0  0  0  0
 14 20  1  6  0  0  0
 14 13  1  0  0  0  0
 15 14  1  0  0  0  0
 15 22  1  0  0  0  0
 15 16  1  0  0  0  0
 16 11  1  0  0  0  0
 21 15  1  0  0  0  0
 23 16  1  0  0  0  0
 24 16  1  0  0  0  0
 25 26  1  0  0  0  0
 25 14  1  0  0  0  0
 27 25  1  0  0  0  0
 28 25  1  0  0  0  0
 29 33  2  0  0  0  0
 29  3  1  0  0  0  0
 30 29  1  0  0  0  0
 31 30  2  0  0  0  0
 31 32  1  0  0  0  0
 32 33  1  0  0  0  0
 34 30  1  0  0  0  0
 35 31  1  0  0  0  0
 36 32  1  0  0  0  0
 36 39  1  0  0  0  0
 37 36  1  0  0  0  0
 38 36  1  0  0  0  0
M  END
>  <minimizedAffinity>
-5.69830322

>  <minimizedRMSD>
0.38216114

$$$$
