
 OpenBabel03232519003D

 28 30  0  0  1  0  0  0  0  0999 V2000
   44.5160   35.8990   44.7550 C   0  0  0  0  0  0  0  0  0  0  0  0
   44.8410   35.6650   43.4010 C   0  0  0  0  0  0  0  0  0  0  0  0
   45.4930   34.4810   43.1000 C   0  0  0  0  0  0  0  0  0  0  0  0
   45.7790   33.6190   44.1160 N   0  0  0  0  0  0  0  0  0  0  0  0
   45.4600   33.8650   45.3880 C   0  0  0  0  0  0  0  0  0  0  0  0
   44.8340   34.9940   45.7070 N   0  0  0  0  0  0  0  0  0  0  0  0
   45.7920   32.9130   46.3790 N   0  0  0  0  0  0  0  0  0  0  0  0
   45.2090   33.1330   47.6910 C   0  0  0  0  0  0  0  0  0  0  0  0
   45.6050   32.1290   48.7180 C   0  0  0  0  0  0  0  0  0  0  0  0
   46.7940   31.4890   48.3800 O   0  0  0  0  0  0  0  0  0  0  0  0
   46.5340   30.7890   47.1940 C   0  0  0  0  0  0  0  0  0  0  0  0
   46.6570   31.7980   46.0890 C   0  0  1  0  0  0  0  0  0  0  0  0
   44.0110   36.8160   44.9900 H   0  0  0  0  0  0  0  0  0  0  0  0
   44.5920   36.3750   42.6470 H   0  0  0  0  0  0  0  0  0  0  0  0
   45.7520   34.2820   42.0690 H   0  0  0  0  0  0  0  0  0  0  0  0
   45.5670   34.1340   48.0290 H   0  0  0  0  0  0  0  0  0  0  0  0
   44.0980   33.2490   47.6240 H   0  0  0  0  0  0  0  0  0  0  0  0
   44.7980   31.4090   48.8380 H   0  0  0  0  0  0  0  0  0  0  0  0
   45.7870   32.6310   49.7020 H   0  0  0  0  0  0  0  0  0  0  0  0
   45.5130   30.3470   47.2590 H   0  0  0  0  0  0  0  0  0  0  0  0
   47.3210   30.0040   47.1460 H   0  0  0  0  0  0  0  0  0  0  0  0
   47.7070   32.2040   46.1650 H   0  0  0  0  0  0  0  0  0  0  0  0
   46.5460   31.2490   44.7790 N   0  0  0  0  0  0  0  0  0  0  0  0
   47.8460   31.1490   44.1720 C   0  0  0  0  0  0  0  0  0  0  0  0
   48.5240   29.8370   44.2740 C   0  0  0  0  0  0  0  0  0  0  0  0
   47.8380   28.8550   44.9310 O   0  0  0  0  0  0  0  0  0  0  0  0
   46.5050   28.7750   44.6280 C   0  0  0  0  0  0  0  0  0  0  0  0
   45.7590   30.0580   44.6800 C   0  0  0  0  0  0  0  0  0  0  0  0
  1 13  1  0  0  0  0
  1  6  1  0  0  0  0
  2  1  2  0  0  0  0
  3  2  1  0  0  0  0
  3  4  2  0  0  0  0
  4  5  1  0  0  0  0
  5  6  2  0  0  0  0
  5  7  1  0  0  0  0
  7  8  1  0  0  0  0
  8 16  1  0  0  0  0
  8  9  1  0  0  0  0
  9 18  1  0  0  0  0
  9 19  1  0  0  0  0
 10  9  1  0  0  0  0
 11 20  1  0  0  0  0
 11 10  1  0  0  0  0
 12 22  1  1  0  0  0
 12  7  1  0  0  0  0
 12 11  1  0  0  0  0
 14  2  1  0  0  0  0
 15  3  1  0  0  0  0
 17  8  1  0  0  0  0
 21 11  1  0  0  0  0
 23 12  1  0  0  0  0
 24 25  2  0  0  0  0
 24 23  1  0  0  0  0
 25 26  1  0  0  0  0
 27 28  2  0  0  0  0
 27 26  1  0  0  0  0
 28 23  1  0  0  0  0
M  END
>  <minimizedAffinity>
-4.47096968

>  <minimizedRMSD>
1.55744231

$$$$
