
 OpenBabel03232520593D

 39 41  0  0  1  0  0  0  0  0999 V2000
   45.4110   32.8990   47.5580 C   0  0  0  0  0  0  0  0  0  0  0  0
   45.9240   32.6240   46.3330 C   0  0  0  0  0  0  0  0  0  0  0  0
   46.1450   31.2680   46.0800 C   0  0  0  0  0  0  0  0  0  0  0  0
   45.8760   30.2850   46.9750 N   0  0  0  0  0  0  0  0  0  0  0  0
   45.3540   30.6210   48.2140 C   0  0  0  0  0  0  0  0  0  0  0  0
   45.1360   31.9020   48.4740 N   0  0  0  0  0  0  0  0  0  0  0  0
   45.0970   29.6090   49.1780 N   0  0  0  0  0  0  0  0  0  0  0  0
   45.2050   33.9150   47.8590 H   0  0  0  0  0  0  0  0  0  0  0  0
   44.1820   29.5990   49.7020 H   0  0  0  0  0  0  0  0  0  0  0  0
   45.8100   28.8570   49.3860 H   0  0  0  0  0  0  0  0  0  0  0  0
   46.1800   33.5680   45.2990 C   0  0  2  0  0  0  0  0  0  0  0  0
   44.9680   34.6610   45.5090 C   0  0  0  0  0  0  0  0  0  0  0  0
   44.7440   35.5830   44.4310 C   0  0  0  0  0  0  0  0  0  0  0  0
   45.5560   35.5010   43.2130 C   0  0  1  0  0  0  0  0  0  0  0  0
   46.6180   34.5030   43.1840 C   0  0  0  0  0  0  0  0  0  0  0  0
   46.1650   33.2740   43.9370 C   0  0  0  0  0  0  0  0  0  0  0  0
   46.9900   34.2860   45.6350 H   0  0  0  0  0  0  0  0  0  0  0  0
   44.2820   34.8240   46.3310 H   0  0  0  0  0  0  0  0  0  0  0  0
   43.9730   36.3030   44.5280 H   0  0  0  0  0  0  0  0  0  0  0  0
   45.9780   36.5070   43.0020 H   0  0  0  0  0  0  0  0  0  0  0  0
   46.8700   34.2830   42.1070 H   0  0  0  0  0  0  0  0  0  0  0  0
   47.5720   34.8240   43.6420 H   0  0  0  0  0  0  0  0  0  0  0  0
   47.0250   32.6260   43.6190 H   0  0  0  0  0  0  0  0  0  0  0  0
   45.2170   32.8800   43.5080 H   0  0  0  0  0  0  0  0  0  0  0  0
   44.5510   35.2220   42.0560 C   0  0  0  0  0  0  0  0  0  0  0  0
   43.5170   34.3830   42.4350 F   0  0  0  0  0  0  0  0  0  0  0  0
   43.9690   36.4460   41.7380 F   0  0  0  0  0  0  0  0  0  0  0  0
   45.2400   34.8010   40.9360 F   0  0  0  0  0  0  0  0  0  0  0  0
   46.7290   30.5560   44.9560 C   0  0  0  0  0  0  0  0  0  0  0  0
   46.3290   29.9300   43.8190 C   0  0  0  0  0  0  0  0  0  0  0  0
   47.4710   29.4010   43.1920 C   0  0  0  0  0  0  0  0  0  0  0  0
   48.4940   29.7330   43.9780 N   0  0  0  0  0  0  0  0  0  0  0  0
   48.0850   30.4130   45.0230 N   0  0  0  0  0  0  0  0  0  0  0  0
   45.2700   29.9420   43.5990 H   0  0  0  0  0  0  0  0  0  0  0  0
   47.3710   28.8700   42.2800 H   0  0  0  0  0  0  0  0  0  0  0  0
   49.8800   29.3560   43.6590 C   0  0  0  0  0  0  0  0  0  0  0  0
   50.5270   30.5520   42.9580 C   0  0  0  0  0  1  0  0  0  0  0  0
   49.9310   28.2130   42.6980 C   0  0  0  0  0  1  0  0  0  0  0  0
   50.5830   29.1260   44.9590 C   0  0  0  0  0  1  0  0  0  0  0  0
  1  8  1  0  0  0  0
  1  6  1  0  0  0  0
  2  1  2  0  0  0  0
  3  2  1  0  0  0  0
  3  4  2  0  0  0  0
  4  5  1  0  0  0  0
  5  6  2  0  0  0  0
  5  7  1  0  0  0  0
  7 10  1  0  0  0  0
  7  9  1  0  0  0  0
 11 12  1  0  0  0  0
 11 17  1  1  0  0  0
 11  2  1  0  0  0  0
 12 18  1  0  0  0  0
 13 19  1  0  0  0  0
 13 12  2  0  0  0  0
 14 20  1  6  0  0  0
 14 13  1  0  0  0  0
 15 14  1  0  0  0  0
 15 22  1  0  0  0  0
 15 16  1  0  0  0  0
 16 11  1  0  0  0  0
 21 15  1  0  0  0  0
 23 16  1  0  0  0  0
 24 16  1  0  0  0  0
 25 26  1  0  0  0  0
 25 14  1  0  0  0  0
 27 25  1  0  0  0  0
 28 25  1  0  0  0  0
 29 33  2  0  0  0  0
 29  3  1  0  0  0  0
 30 29  1  0  0  0  0
 31 30  2  0  0  0  0
 31 32  1  0  0  0  0
 32 33  1  0  0  0  0
 34 30  1  0  0  0  0
 35 31  1  0  0  0  0
 36 32  1  0  0  0  0
 36 39  1  0  0  0  0
 37 36  1  0  0  0  0
 38 36  1  0  0  0  0
M  END
>  <minimizedAffinity>
-5.69500637

>  <minimizedRMSD>
0.276389718

$$$$
