
 OpenBabel03232519323D

 43 45  0  0  1  0  0  0  0  0999 V2000
   46.8480   34.3680   40.4990 C   0  0  1  0  0  0  0  0  0  0  0  0
   48.0620   34.1070   39.5800 C   0  0  0  0  0  0  0  0  0  0  0  0
   47.4820   33.7460   38.2280 C   0  0  0  0  0  0  0  0  0  0  0  0
   46.7920   32.4120   38.3200 C   0  0  0  0  0  0  0  0  0  0  0  0
   46.5850   32.0190   39.7400 C   0  0  0  0  0  0  0  0  0  0  0  0
   46.0150   33.1880   40.5850 C   0  0  2  0  0  0  0  0  0  0  0  0
   46.4460   35.3060   40.1110 H   0  0  0  0  0  0  0  0  0  0  0  0
   48.6890   33.3130   39.9910 H   0  0  0  0  0  0  0  0  0  0  0  0
   48.5900   35.0660   39.4650 H   0  0  0  0  0  0  0  0  0  0  0  0
   48.3190   33.7410   37.4700 H   0  0  0  0  0  0  0  0  0  0  0  0
   46.8230   34.5660   37.8890 H   0  0  0  0  0  0  0  0  0  0  0  0
   47.5540   31.6740   37.9250 H   0  0  0  0  0  0  0  0  0  0  0  0
   45.9310   32.2760   37.6680 H   0  0  0  0  0  0  0  0  0  0  0  0
   45.8630   31.1660   39.7800 H   0  0  0  0  0  0  0  0  0  0  0  0
   47.5280   31.6310   40.1690 H   0  0  0  0  0  0  0  0  0  0  0  0
   46.0310   32.5800   41.5160 H   0  0  0  0  0  0  0  0  0  0  0  0
   47.3580   34.7670   41.8990 C   0  0  0  0  0  0  0  0  0  0  0  0
   48.4830   34.6160   41.8010 H   0  0  0  0  0  0  0  0  0  0  0  0
   47.1950   35.8160   42.1190 H   0  0  0  0  0  0  0  0  0  0  0  0
   46.8670   33.7460   42.8260 C   0  0  0  0  0  0  0  0  0  0  0  0
   47.6860   33.0850   43.2300 H   0  0  0  0  0  0  0  0  0  0  0  0
   46.0860   33.0220   42.4830 H   0  0  0  0  0  0  0  0  0  0  0  0
   46.0220   33.6210   45.0800 C   0  0  0  0  0  0  0  0  0  0  0  0
   46.0600   34.3240   43.8740 C   0  0  0  0  0  0  0  0  0  0  0  0
   45.3400   35.4520   43.6860 C   0  0  0  0  0  0  0  0  0  0  0  0
   44.5710   35.8760   44.7250 N   0  0  0  0  0  0  0  0  0  0  0  0
   44.5090   35.2210   45.9050 C   0  0  0  0  0  0  0  0  0  0  0  0
   45.2420   34.0810   46.0860 N   0  0  0  0  0  0  0  0  0  0  0  0
   46.5860   32.7180   45.2630 H   0  0  0  0  0  0  0  0  0  0  0  0
   45.2910   36.0620   42.8080 H   0  0  0  0  0  0  0  0  0  0  0  0
   43.8420   35.6910   46.6320 H   0  0  0  0  0  0  0  0  0  0  0  0
   44.6600   33.4250   39.9790 C   0  0  0  0  0  0  0  0  0  0  0  0
   44.6260   33.4640   38.9000 H   0  0  0  0  0  0  0  0  0  0  0  0
   44.0010   32.5650   40.2740 H   0  0  0  0  0  0  0  0  0  0  0  0
   44.0100   34.6790   40.4960 C   0  0  0  0  0  0  0  0  0  0  0  0
   44.2420   35.0050   41.4920 H   0  0  0  0  0  0  0  0  0  0  0  0
   43.9950   35.5050   39.7160 H   0  0  0  0  0  0  0  0  0  0  0  0
   42.5600   34.3370   40.5190 N   0  0  0  0  0  0  0  0  0  0  0  0
   41.8970   35.1590   41.5290 C   0  0  0  0  0  0  0  0  0  0  0  0
   40.4590   34.7000   41.5160 C   0  0  0  0  0  0  0  0  0  0  0  0
   39.8710   35.2710   40.3960 O   0  0  0  0  0  0  0  0  0  0  0  0
   40.7640   35.6410   39.4270 C   0  0  0  0  0  0  0  0  0  0  0  0
   41.9420   34.7070   39.2510 C   0  0  0  0  0  0  0  0  0  0  0  0
  1  7  1  6  0  0  0
  1  6  1  0  0  0  0
  1 17  1  0  0  0  0
  2  8  1  0  0  0  0
  2  1  1  0  0  0  0
  3  4  1  0  0  0  0
  3  2  1  0  0  0  0
  4  5  1  0  0  0  0
  5 14  1  0  0  0  0
  5 15  1  0  0  0  0
  5  6  1  0  0  0  0
  6 16  1  1  0  0  0
  9  2  1  0  0  0  0
 10  3  1  0  0  0  0
 11  3  1  0  0  0  0
 12  4  1  0  0  0  0
 13  4  1  0  0  0  0
 17 19  1  0  0  0  0
 17 20  1  0  0  0  0
 18 17  1  0  0  0  0
 20 21  1  0  0  0  0
 20 24  1  0  0  0  0
 22 20  1  0  0  0  0
 23 29  1  0  0  0  0
 23 28  1  0  0  0  0
 24 23  2  0  0  0  0
 25 24  1  0  0  0  0
 25 26  2  0  0  0  0
 26 27  1  0  0  0  0
 27 28  2  0  0  0  0
 27 31  1  0  0  0  0
 30 25  1  0  0  0  0
 32 34  1  0  0  0  0
 32 35  1  0  0  0  0
 32  6  1  0  0  0  0
 33 32  1  0  0  0  0
 35 38  1  0  0  0  0
 35 36  1  0  0  0  0
 37 35  1  0  0  0  0
 38 39  1  0  0  0  0
 40 39  1  0  0  0  0
 41 40  1  0  0  0  0
 42 41  1  0  0  0  0
 43 42  1  0  0  0  0
 43 38  1  0  0  0  0
M  END
>  <minimizedAffinity>
-5.10340166

>  <minimizedRMSD>
1.8946811

$$$$
