
 OpenBabel03232520593D

 39 41  0  0  1  0  0  0  0  0999 V2000
   45.4080   32.8950   47.5580 C   0  0  0  0  0  0  0  0  0  0  0  0
   45.9230   32.6200   46.3330 C   0  0  0  0  0  0  0  0  0  0  0  0
   46.1470   31.2650   46.0810 C   0  0  0  0  0  0  0  0  0  0  0  0
   45.8780   30.2810   46.9760 N   0  0  0  0  0  0  0  0  0  0  0  0
   45.3530   30.6160   48.2140 C   0  0  0  0  0  0  0  0  0  0  0  0
   45.1320   31.8970   48.4730 N   0  0  0  0  0  0  0  0  0  0  0  0
   45.0960   29.6050   49.1770 N   0  0  0  0  0  0  0  0  0  0  0  0
   45.2000   33.9100   47.8580 H   0  0  0  0  0  0  0  0  0  0  0  0
   44.1800   29.5920   49.7000 H   0  0  0  0  0  0  0  0  0  0  0  0
   45.8100   28.8530   49.3860 H   0  0  0  0  0  0  0  0  0  0  0  0
   46.1800   33.5650   45.3000 C   0  0  2  0  0  0  0  0  0  0  0  0
   44.9700   34.6590   45.5120 C   0  0  0  0  0  0  0  0  0  0  0  0
   44.7460   35.5820   44.4340 C   0  0  0  0  0  0  0  0  0  0  0  0
   45.5570   35.5000   43.2150 C   0  0  1  0  0  0  0  0  0  0  0  0
   46.6170   34.5010   43.1850 C   0  0  0  0  0  0  0  0  0  0  0  0
   46.1630   33.2710   43.9380 C   0  0  0  0  0  0  0  0  0  0  0  0
   46.9910   34.2810   45.6360 H   0  0  0  0  0  0  0  0  0  0  0  0
   44.2840   34.8220   46.3340 H   0  0  0  0  0  0  0  0  0  0  0  0
   43.9760   36.3030   44.5320 H   0  0  0  0  0  0  0  0  0  0  0  0
   45.9800   36.5050   43.0050 H   0  0  0  0  0  0  0  0  0  0  0  0
   46.8690   34.2810   42.1080 H   0  0  0  0  0  0  0  0  0  0  0  0
   47.5720   34.8200   43.6420 H   0  0  0  0  0  0  0  0  0  0  0  0
   47.0220   32.6230   43.6190 H   0  0  0  0  0  0  0  0  0  0  0  0
   45.2150   32.8790   43.5090 H   0  0  0  0  0  0  0  0  0  0  0  0
   44.5510   35.2230   42.0590 C   0  0  0  0  0  0  0  0  0  0  0  0
   43.5170   34.3830   42.4380 F   0  0  0  0  0  0  0  0  0  0  0  0
   43.9680   36.4470   41.7430 F   0  0  0  0  0  0  0  0  0  0  0  0
   45.2390   34.8030   40.9370 F   0  0  0  0  0  0  0  0  0  0  0  0
   46.7340   30.5540   44.9590 C   0  0  0  0  0  0  0  0  0  0  0  0
   46.3370   29.9190   43.8260 C   0  0  0  0  0  0  0  0  0  0  0  0
   47.4820   29.3980   43.1970 C   0  0  0  0  0  0  0  0  0  0  0  0
   48.5040   29.7430   43.9790 N   0  0  0  0  0  0  0  0  0  0  0  0
   48.0920   30.4230   45.0220 N   0  0  0  0  0  0  0  0  0  0  0  0
   45.2780   29.9200   43.6080 H   0  0  0  0  0  0  0  0  0  0  0  0
   47.3840   28.8620   42.2870 H   0  0  0  0  0  0  0  0  0  0  0  0
   49.8930   29.3780   43.6580 C   0  0  0  0  0  0  0  0  0  0  0  0
   50.6110   29.1120   44.9820 C   0  0  0  0  0  1  0  0  0  0  0  0
   50.6160   30.5040   42.9930 C   0  0  0  0  0  1  0  0  0  0  0  0
   49.8430   28.1050   42.8750 C   0  0  0  0  0  1  0  0  0  0  0  0
  1  8  1  0  0  0  0
  1  6  1  0  0  0  0
  2  1  2  0  0  0  0
  3  2  1  0  0  0  0
  3  4  2  0  0  0  0
  4  5  1  0  0  0  0
  5  6  2  0  0  0  0
  5  7  1  0  0  0  0
  7 10  1  0  0  0  0
  7  9  1  0  0  0  0
 11 12  1  0  0  0  0
 11 17  1  1  0  0  0
 11  2  1  0  0  0  0
 12 18  1  0  0  0  0
 13 19  1  0  0  0  0
 13 12  2  0  0  0  0
 14 20  1  6  0  0  0
 14 13  1  0  0  0  0
 15 14  1  0  0  0  0
 15 22  1  0  0  0  0
 15 16  1  0  0  0  0
 16 11  1  0  0  0  0
 21 15  1  0  0  0  0
 23 16  1  0  0  0  0
 24 16  1  0  0  0  0
 25 26  1  0  0  0  0
 25 14  1  0  0  0  0
 27 25  1  0  0  0  0
 28 25  1  0  0  0  0
 29 33  2  0  0  0  0
 29  3  1  0  0  0  0
 30 29  1  0  0  0  0
 31 30  2  0  0  0  0
 31 32  1  0  0  0  0
 32 33  1  0  0  0  0
 34 30  1  0  0  0  0
 35 31  1  0  0  0  0
 36 32  1  0  0  0  0
 36 37  1  0  0  0  0
 38 36  1  0  0  0  0
 39 36  1  0  0  0  0
M  END
>  <minimizedAffinity>
-5.69122171

>  <minimizedRMSD>
0.368191212

$$$$
