
 OpenBabel03232519463D

 40 43  0  0  1  0  0  0  0  0999 V2000
   46.4630   33.8390   42.3360 N   0  0  0  0  0  0  0  0  0  0  0  0
   47.7720   34.1730   41.7850 C   0  0  0  0  0  0  0  0  0  0  0  0
   47.3830   34.4610   40.3470 C   0  0  0  0  0  0  0  0  0  0  0  0
   46.5610   33.2370   40.0410 C   0  0  0  0  0  0  0  0  0  0  0  0
   45.7870   33.0370   41.3040 C   0  0  2  0  0  0  0  0  0  0  0  0
   48.4390   33.2890   41.7750 H   0  0  0  0  0  0  0  0  0  0  0  0
   48.2110   35.0550   42.2820 H   0  0  0  0  0  0  0  0  0  0  0  0
   46.7440   35.3620   40.2730 H   0  0  0  0  0  0  0  0  0  0  0  0
   48.2750   34.5110   39.6950 H   0  0  0  0  0  0  0  0  0  0  0  0
   45.8250   33.5420   39.2440 H   0  0  0  0  0  0  0  0  0  0  0  0
   47.1620   32.3790   39.7110 H   0  0  0  0  0  0  0  0  0  0  0  0
   46.0140   31.9880   41.6110 H   0  0  0  0  0  0  0  0  0  0  0  0
   44.5930   35.5660   45.0370 C   0  0  0  0  0  0  0  0  0  0  0  0
   45.1090   35.3030   43.7560 C   0  0  0  0  0  0  0  0  0  0  0  0
   45.9080   34.1770   43.5730 C   0  0  0  0  0  0  0  0  0  0  0  0
   46.1360   33.3960   44.6720 N   0  0  0  0  0  0  0  0  0  0  0  0
   45.6350   33.6610   45.8880 C   0  0  0  0  0  0  0  0  0  0  0  0
   44.8680   34.7400   46.0680 N   0  0  0  0  0  0  0  0  0  0  0  0
   43.9750   36.4250   45.2090 H   0  0  0  0  0  0  0  0  0  0  0  0
   44.8930   35.9580   42.9270 H   0  0  0  0  0  0  0  0  0  0  0  0
   45.9520   32.7620   46.9470 N   0  0  0  0  0  0  0  0  0  0  0  0
   47.2180   32.0530   46.9090 C   0  0  0  0  0  0  0  0  0  0  0  0
   47.6510   32.0160   48.3820 C   0  0  0  0  0  0  0  0  0  0  0  0
   46.7290   31.2540   49.0360 O   0  0  0  0  0  0  0  0  0  0  0  0
   45.4840   31.8220   49.1760 C   0  0  0  0  0  0  0  0  0  0  0  0
   44.9920   32.6040   48.0080 C   0  0  0  0  0  0  0  0  0  0  0  0
   44.3900   33.2460   41.2300 N   0  0  0  0  0  0  0  0  0  0  0  0
   43.7400   34.2040   40.5580 C   0  0  0  0  0  0  0  0  0  0  0  0
   42.3610   34.3170   40.5540 C   0  0  0  0  0  0  0  0  0  0  0  0
   41.5970   33.4080   41.2720 C   0  0  0  0  0  0  0  0  0  0  0  0
   40.3180   33.4650   41.3030 O   0  0  0  0  0  0  0  0  0  0  0  0
   42.2540   32.4550   41.9380 N   0  0  0  0  0  0  0  0  0  0  0  0
   43.5780   32.3870   41.9120 C   0  0  0  0  0  0  0  0  0  0  0  0
   44.0990   31.4400   42.5820 O   0  0  0  0  0  0  0  0  0  0  0  0
   44.3560   34.9070   40.0030 H   0  0  0  0  0  0  0  0  0  0  0  0
   41.6800   31.7640   42.4830 H   0  0  0  0  0  0  0  0  0  0  0  0
   41.6760   35.3890   39.8000 C   0  0  0  0  0  0  0  0  0  0  0  0
   42.1200   36.3730   40.0960 H   0  0  0  0  0  0  0  0  0  0  0  0
   41.8020   35.1930   38.7100 H   0  0  0  0  0  0  0  0  0  0  0  0
   40.6160   35.4180   40.0450 H   0  0  0  0  0  0  0  0  0  0  0  0
  1 15  1  0  0  0  0
  2  7  1  0  0  0  0
  2  1  1  0  0  0  0
  3  2  1  0  0  0  0
  4  3  1  0  0  0  0
  4  5  1  0  0  0  0
  5 12  1  1  0  0  0
  5  1  1  0  0  0  0
  6  2  1  0  0  0  0
  8  3  1  0  0  0  0
  9  3  1  0  0  0  0
 10  4  1  0  0  0  0
 11  4  1  0  0  0  0
 13 19  1  0  0  0  0
 13 18  1  0  0  0  0
 14 13  2  0  0  0  0
 15 14  1  0  0  0  0
 15 16  2  0  0  0  0
 16 17  1  0  0  0  0
 17 18  2  0  0  0  0
 17 21  1  0  0  0  0
 20 14  1  0  0  0  0
 21 26  1  0  0  0  0
 22 21  1  0  0  0  0
 22 23  1  0  0  0  0
 23 24  1  0  0  0  0
 24 25  1  0  0  0  0
 26 25  1  0  0  0  0
 27  5  1  0  0  0  0
 27 33  1  0  0  0  0
 28 27  1  0  0  0  0
 29 28  2  0  0  0  0
 29 30  1  0  0  0  0
 30 31  2  0  0  0  0
 30 32  1  0  0  0  0
 32 36  1  0  0  0  0
 33 32  1  0  0  0  0
 33 34  2  0  0  0  0
 35 28  1  0  0  0  0
 37 40  1  0  0  0  0
 37 38  1  0  0  0  0
 37 29  1  0  0  0  0
 39 37  1  0  0  0  0
M  END
>  <minimizedAffinity>
-7.03926563

>  <minimizedRMSD>
0.593553483

$$$$
