
 OpenBabel03232520593D

 39 41  0  0  1  0  0  0  0  0999 V2000
   45.4370   32.8570   47.5030 C   0  0  0  0  0  0  0  0  0  0  0  0
   45.9250   32.6030   46.2630 C   0  0  0  0  0  0  0  0  0  0  0  0
   46.1260   31.2510   45.9770 C   0  0  0  0  0  0  0  0  0  0  0  0
   45.8630   30.2510   46.8550 N   0  0  0  0  0  0  0  0  0  0  0  0
   45.3660   30.5660   48.1110 C   0  0  0  0  0  0  0  0  0  0  0  0
   45.1680   31.8430   48.4020 N   0  0  0  0  0  0  0  0  0  0  0  0
   45.1150   29.5360   49.0570 N   0  0  0  0  0  0  0  0  0  0  0  0
   45.2490   33.8680   47.8300 H   0  0  0  0  0  0  0  0  0  0  0  0
   44.2100   29.5240   49.5970 H   0  0  0  0  0  0  0  0  0  0  0  0
   45.8240   28.7710   49.2350 H   0  0  0  0  0  0  0  0  0  0  0  0
   46.1730   33.5670   45.2450 C   0  0  2  0  0  0  0  0  0  0  0  0
   44.9690   34.6610   45.4930 C   0  0  0  0  0  0  0  0  0  0  0  0
   44.7360   35.6050   44.4350 C   0  0  0  0  0  0  0  0  0  0  0  0
   45.5330   35.5450   43.2070 C   0  0  1  0  0  0  0  0  0  0  0  0
   46.5900   34.5430   43.1440 C   0  0  0  0  0  0  0  0  0  0  0  0
   46.1400   33.3010   43.8780 C   0  0  0  0  0  0  0  0  0  0  0  0
   46.9900   34.2740   45.5860 H   0  0  0  0  0  0  0  0  0  0  0  0
   44.2930   34.8100   46.3260 H   0  0  0  0  0  0  0  0  0  0  0  0
   43.9700   36.3260   44.5570 H   0  0  0  0  0  0  0  0  0  0  0  0
   45.9570   36.5520   43.0110 H   0  0  0  0  0  0  0  0  0  0  0  0
   46.8280   34.3430   42.0610 H   0  0  0  0  0  0  0  0  0  0  0  0
   47.5500   34.8500   43.5970 H   0  0  0  0  0  0  0  0  0  0  0  0
   46.9930   32.6560   43.5370 H   0  0  0  0  0  0  0  0  0  0  0  0
   45.1850   32.9200   43.4520 H   0  0  0  0  0  0  0  0  0  0  0  0
   44.5130   35.2930   42.0560 C   0  0  0  0  0  0  0  0  0  0  0  0
   43.4450   34.5050   42.4500 F   0  0  0  0  0  0  0  0  0  0  0  0
   43.9830   36.5360   41.7230 F   0  0  0  0  0  0  0  0  0  0  0  0
   45.1800   34.8270   40.9400 F   0  0  0  0  0  0  0  0  0  0  0  0
   46.6810   30.5580   44.8280 C   0  0  0  0  0  0  0  0  0  0  0  0
   46.2530   29.8400   43.7570 C   0  0  0  0  0  0  0  0  0  0  0  0
   47.3850   29.4130   43.0410 C   0  0  0  0  0  0  0  0  0  0  0  0
   48.4310   29.8910   43.7120 N   0  0  0  0  0  0  0  0  0  0  0  0
   48.0460   30.5680   44.7680 N   0  0  0  0  0  0  0  0  0  0  0  0
   45.1840   29.7250   43.6400 H   0  0  0  0  0  0  0  0  0  0  0  0
   47.2630   28.8320   42.1620 H   0  0  0  0  0  0  0  0  0  0  0  0
   49.8160   29.6560   43.2740 C   0  0  0  0  0  0  0  0  0  0  0  0
   50.3420   30.9720   42.6970 C   0  0  0  0  0  1  0  0  0  0  0  0
   49.8790   28.6460   42.1740 C   0  0  0  0  0  1  0  0  0  0  0  0
   50.6110   29.3170   44.4940 C   0  0  0  0  0  1  0  0  0  0  0  0
  1  8  1  0  0  0  0
  1  6  1  0  0  0  0
  2  1  2  0  0  0  0
  3  2  1  0  0  0  0
  3  4  2  0  0  0  0
  4  5  1  0  0  0  0
  5  6  2  0  0  0  0
  5  7  1  0  0  0  0
  7 10  1  0  0  0  0
  7  9  1  0  0  0  0
 11 12  1  0  0  0  0
 11 17  1  1  0  0  0
 11  2  1  0  0  0  0
 12 18  1  0  0  0  0
 13 19  1  0  0  0  0
 13 12  2  0  0  0  0
 14 20  1  6  0  0  0
 14 13  1  0  0  0  0
 15 14  1  0  0  0  0
 15 22  1  0  0  0  0
 15 16  1  0  0  0  0
 16 11  1  0  0  0  0
 21 15  1  0  0  0  0
 23 16  1  0  0  0  0
 24 16  1  0  0  0  0
 25 26  1  0  0  0  0
 25 14  1  0  0  0  0
 27 25  1  0  0  0  0
 28 25  1  0  0  0  0
 29  3  1  0  0  0  0
 30 29  1  0  0  0  0
 31 32  1  0  0  0  0
 31 30  2  0  0  0  0
 32 33  1  0  0  0  0
 33 29  2  0  0  0  0
 34 30  1  0  0  0  0
 35 31  1  0  0  0  0
 36 32  1  0  0  0  0
 36 39  1  0  0  0  0
 37 36  1  0  0  0  0
 38 36  1  0  0  0  0
M  END
>  <minimizedAffinity>
-5.68278503

>  <minimizedRMSD>
0.140367061

$$$$
