
 OpenBabel03232520593D

 39 41  0  0  1  0  0  0  0  0999 V2000
   45.4380   32.8580   47.5050 C   0  0  0  0  0  0  0  0  0  0  0  0
   45.9250   32.6040   46.2650 C   0  0  0  0  0  0  0  0  0  0  0  0
   46.1260   31.2520   45.9790 C   0  0  0  0  0  0  0  0  0  0  0  0
   45.8620   30.2530   46.8570 N   0  0  0  0  0  0  0  0  0  0  0  0
   45.3670   30.5670   48.1130 C   0  0  0  0  0  0  0  0  0  0  0  0
   45.1690   31.8450   48.4040 N   0  0  0  0  0  0  0  0  0  0  0  0
   45.1160   29.5380   49.0590 N   0  0  0  0  0  0  0  0  0  0  0  0
   45.2500   33.8690   47.8320 H   0  0  0  0  0  0  0  0  0  0  0  0
   44.2100   29.5260   49.6000 H   0  0  0  0  0  0  0  0  0  0  0  0
   45.8240   28.7720   49.2370 H   0  0  0  0  0  0  0  0  0  0  0  0
   46.1730   33.5680   45.2470 C   0  0  2  0  0  0  0  0  0  0  0  0
   44.9680   34.6610   45.4930 C   0  0  0  0  0  0  0  0  0  0  0  0
   44.7350   35.6050   44.4360 C   0  0  0  0  0  0  0  0  0  0  0  0
   45.5330   35.5440   43.2070 C   0  0  1  0  0  0  0  0  0  0  0  0
   46.5900   34.5430   43.1460 C   0  0  0  0  0  0  0  0  0  0  0  0
   46.1410   33.3010   43.8800 C   0  0  0  0  0  0  0  0  0  0  0  0
   46.9900   34.2760   45.5880 H   0  0  0  0  0  0  0  0  0  0  0  0
   44.2920   34.8100   46.3260 H   0  0  0  0  0  0  0  0  0  0  0  0
   43.9690   36.3250   44.5560 H   0  0  0  0  0  0  0  0  0  0  0  0
   45.9570   36.5520   43.0120 H   0  0  0  0  0  0  0  0  0  0  0  0
   46.8290   34.3440   42.0620 H   0  0  0  0  0  0  0  0  0  0  0  0
   47.5510   34.8520   43.5990 H   0  0  0  0  0  0  0  0  0  0  0  0
   46.9950   32.6570   43.5390 H   0  0  0  0  0  0  0  0  0  0  0  0
   45.1870   32.9190   43.4540 H   0  0  0  0  0  0  0  0  0  0  0  0
   44.5130   35.2920   42.0560 C   0  0  0  0  0  0  0  0  0  0  0  0
   43.4470   34.5010   42.4490 F   0  0  0  0  0  0  0  0  0  0  0  0
   43.9810   36.5350   41.7240 F   0  0  0  0  0  0  0  0  0  0  0  0
   45.1820   34.8280   40.9400 F   0  0  0  0  0  0  0  0  0  0  0  0
   46.6800   30.5580   44.8290 C   0  0  0  0  0  0  0  0  0  0  0  0
   46.2510   29.8410   43.7590 C   0  0  0  0  0  0  0  0  0  0  0  0
   47.3830   29.4130   43.0420 C   0  0  0  0  0  0  0  0  0  0  0  0
   48.4300   29.8910   43.7130 N   0  0  0  0  0  0  0  0  0  0  0  0
   48.0450   30.5680   44.7690 N   0  0  0  0  0  0  0  0  0  0  0  0
   45.1820   29.7260   43.6420 H   0  0  0  0  0  0  0  0  0  0  0  0
   47.2600   28.8330   42.1630 H   0  0  0  0  0  0  0  0  0  0  0  0
   49.8140   29.6550   43.2750 C   0  0  0  0  0  0  0  0  0  0  0  0
   50.3390   30.9710   42.6970 C   0  0  0  0  0  1  0  0  0  0  0  0
   49.8760   28.6460   42.1740 C   0  0  0  0  0  1  0  0  0  0  0  0
   50.6100   29.3170   44.4950 C   0  0  0  0  0  1  0  0  0  0  0  0
  1  8  1  0  0  0  0
  1  6  1  0  0  0  0
  2  1  2  0  0  0  0
  3  2  1  0  0  0  0
  3  4  2  0  0  0  0
  4  5  1  0  0  0  0
  5  6  2  0  0  0  0
  5  7  1  0  0  0  0
  7 10  1  0  0  0  0
  7  9  1  0  0  0  0
 11 12  1  0  0  0  0
 11 17  1  1  0  0  0
 11  2  1  0  0  0  0
 12 18  1  0  0  0  0
 13 19  1  0  0  0  0
 13 12  2  0  0  0  0
 14 20  1  6  0  0  0
 14 13  1  0  0  0  0
 15 14  1  0  0  0  0
 15 22  1  0  0  0  0
 15 16  1  0  0  0  0
 16 11  1  0  0  0  0
 21 15  1  0  0  0  0
 23 16  1  0  0  0  0
 24 16  1  0  0  0  0
 25 26  1  0  0  0  0
 25 14  1  0  0  0  0
 27 25  1  0  0  0  0
 28 25  1  0  0  0  0
 29  3  1  0  0  0  0
 30 29  1  0  0  0  0
 31 32  1  0  0  0  0
 31 30  2  0  0  0  0
 32 33  1  0  0  0  0
 33 29  2  0  0  0  0
 34 30  1  0  0  0  0
 35 31  1  0  0  0  0
 36 32  1  0  0  0  0
 36 39  1  0  0  0  0
 37 36  1  0  0  0  0
 38 36  1  0  0  0  0
M  END
>  <minimizedAffinity>
-5.68652678

>  <minimizedRMSD>
0.1764649

$$$$
