
 OpenBabel03232516473D

 22 22  0  0  1  0  0  0  0  0999 V2000
   44.6030   35.5670   43.2970 C   0  0  1  0  0  0  0  0  0  0  0  0
   43.5710   35.5520   43.7270 H   0  0  0  0  0  0  0  0  0  0  0  0
   45.3890   34.5980   44.1270 C   0  0  0  0  0  0  0  0  0  0  0  0
   46.4600   33.9570   43.4480 C   0  0  0  0  0  0  0  0  0  0  0  0
   47.2340   33.0490   44.1650 C   0  0  0  0  0  0  0  0  0  0  0  0
   46.8970   32.8430   45.4850 N   0  0  0  0  0  0  0  0  0  0  0  0
   45.8820   33.4660   46.0840 C   0  0  0  0  0  0  0  0  0  0  0  0
   45.1210   34.3480   45.4070 N   0  0  0  0  0  0  0  0  0  0  0  0
   46.7010   34.1400   42.4090 H   0  0  0  0  0  0  0  0  0  0  0  0
   48.0640   32.5270   43.7070 H   0  0  0  0  0  0  0  0  0  0  0  0
   45.6370   33.2870   47.1230 H   0  0  0  0  0  0  0  0  0  0  0  0
   45.1640   36.9790   43.4010 C   0  0  0  0  0  0  0  0  0  0  0  0
   44.3010   37.6780   43.4330 H   0  0  0  0  0  0  0  0  0  0  0  0
   45.8670   37.1560   42.5770 H   0  0  0  0  0  0  0  0  0  0  0  0
   45.7070   37.0140   44.3890 H   0  0  0  0  0  0  0  0  0  0  0  0
   44.5050   35.1160   41.8660 C   0  0  0  0  0  0  0  0  0  0  0  0
   45.4130   35.3380   41.2830 H   0  0  0  0  0  0  0  0  0  0  0  0
   44.2610   34.0450   41.8620 H   0  0  0  0  0  0  0  0  0  0  0  0
   43.3890   35.8060   41.3370 O   0  0  0  0  0  0  0  0  0  0  0  0
   42.2590   35.0210   41.4220 C   0  0  0  0  0  0  0  0  0  0  0  0
   41.0510   35.8950   41.1700 C   0  0  0  0  0  0  0  0  0  0  0  0
   40.6130   36.1840   42.1540 H   0  0  0  0  0  0  0  0  0  0  0  0
  1 12  1  0  0  0  0
  1  2  1  1  0  0  0
  1  3  1  0  0  0  0
  3  8  1  0  0  0  0
  4  3  2  0  0  0  0
  4  5  1  0  0  0  0
  5  6  2  0  0  0  0
  6  7  1  0  0  0  0
  7 11  1  0  0  0  0
  8  7  2  0  0  0  0
  9  4  1  0  0  0  0
 10  5  1  0  0  0  0
 12 13  1  0  0  0  0
 12 15  1  0  0  0  0
 14 12  1  0  0  0  0
 16  1  1  0  0  0  0
 17 16  1  0  0  0  0
 18 16  1  0  0  0  0
 19 20  1  0  0  0  0
 19 16  1  0  0  0  0
 21 20  1  0  0  0  0
 21 22  1  0  0  0  0
M  END
>  <minimizedAffinity>
-3.46020865

>  <minimizedRMSD>
0.441043794

$$$$
