
 OpenBabel03232519223D

 35 37  0  0  1  0  0  0  0  0999 V2000
   47.0080   30.6930   47.7450 N   0  0  0  0  0  0  0  0  0  0  0  0
   46.9460   31.0730   49.1630 C   0  0  0  0  0  0  0  0  0  0  0  0
   45.8070   32.0370   49.1580 C   0  0  0  0  0  0  0  0  0  0  0  0
   44.7890   31.3800   48.2750 C   0  0  0  0  0  0  0  0  0  0  0  0
   45.7060   30.6260   47.2900 C   0  0  2  0  0  0  0  0  0  0  0  0
   47.6750   31.3610   47.3460 H   0  0  0  0  0  0  0  0  0  0  0  0
   47.8530   31.6110   49.4960 H   0  0  0  0  0  0  0  0  0  0  0  0
   46.7670   30.1820   49.7970 H   0  0  0  0  0  0  0  0  0  0  0  0
   46.1780   33.0000   48.7180 H   0  0  0  0  0  0  0  0  0  0  0  0
   45.4290   32.2420   50.1780 H   0  0  0  0  0  0  0  0  0  0  0  0
   44.1830   30.7260   48.8950 H   0  0  0  0  0  0  0  0  0  0  0  0
   44.1580   32.0950   47.7200 H   0  0  0  0  0  0  0  0  0  0  0  0
   45.1250   29.2490   47.2490 C   0  0  0  0  0  0  0  0  0  0  0  0
   45.1600   28.0820   48.0000 C   0  0  0  0  0  0  0  0  0  0  0  0
   44.3740   27.1590   47.3810 C   0  0  0  0  0  0  0  0  0  0  0  0
   43.8620   27.7360   46.2740 N   0  0  0  0  0  0  0  0  0  0  0  0
   44.3130   28.9900   46.1950 N   0  0  0  0  0  0  0  0  0  0  0  0
   45.7780   28.1290   48.8900 H   0  0  0  0  0  0  0  0  0  0  0  0
   44.2580   26.1710   47.7980 H   0  0  0  0  0  0  0  0  0  0  0  0
   43.2140   27.2280   45.6130 H   0  0  0  0  0  0  0  0  0  0  0  0
   45.5950   31.0530   45.9920 O   0  0  0  0  0  0  0  0  0  0  0  0
   46.5830   31.8180   45.2760 C   0  0  0  0  0  0  0  0  0  0  0  0
   47.7000   31.3480   45.1150 O   0  0  0  0  0  0  0  0  0  0  0  0
   44.9080   35.0590   45.0620 C   0  0  0  0  0  0  0  0  0  0  0  0
   45.3060   35.5600   43.8250 C   0  0  0  0  0  0  0  0  0  0  0  0
   46.1600   34.7680   43.0580 C   0  0  0  0  0  0  0  0  0  0  0  0
   46.5550   33.5560   43.5640 N   0  0  0  0  0  0  0  0  0  0  0  0
   46.1120   33.1420   44.7960 C   0  0  0  0  0  0  0  0  0  0  0  0
   45.3100   33.8780   45.5240 N   0  0  0  0  0  0  0  0  0  0  0  0
   44.2410   35.6590   45.6800 H   0  0  0  0  0  0  0  0  0  0  0  0
   44.9810   36.5120   43.4540 H   0  0  0  0  0  0  0  0  0  0  0  0
   46.6210   35.1590   41.8170 O   0  0  0  0  0  0  0  0  0  0  0  0
   47.8220   34.7600   41.2320 C   0  0  0  0  0  0  0  0  0  0  0  0
   48.9430   35.7610   41.4940 C   0  0  0  0  0  0  0  0  0  0  0  0
   49.2910   35.7140   42.5370 H   0  0  0  0  0  0  0  0  0  0  0  0
  1  2  1  0  0  0  0
  2  7  1  0  0  0  0
  2  8  1  0  0  0  0
  3  2  1  0  0  0  0
  3 10  1  0  0  0  0
  4 11  1  0  0  0  0
  4  3  1  0  0  0  0
  5 21  1  6  0  0  0
  5  1  1  0  0  0  0
  5  4  1  0  0  0  0
  6  1  1  0  0  0  0
  9  3  1  0  0  0  0
 12  4  1  0  0  0  0
 13  5  1  0  0  0  0
 13 14  1  0  0  0  0
 14 18  1  0  0  0  0
 15 19  1  0  0  0  0
 15 14  2  0  0  0  0
 16 15  1  0  0  0  0
 17 16  1  0  0  0  0
 17 13  2  0  0  0  0
 20 16  1  0  0  0  0
 22 21  1  0  0  0  0
 23 22  2  0  0  0  0
 24 29  1  0  0  0  0
 24 30  1  0  0  0  0
 25 24  2  0  0  0  0
 26 27  2  0  0  0  0
 26 25  1  0  0  0  0
 27 28  1  0  0  0  0
 28 22  1  0  0  0  0
 28 29  2  0  0  0  0
 31 25  1  0  0  0  0
 32 26  1  0  0  0  0
 33 34  1  0  0  0  0
 33 32  1  0  0  0  0
 34 35  1  0  0  0  0
M  END
>  <minimizedAffinity>
-5.11670446

>  <minimizedRMSD>
1.14308023

$$$$
