
 OpenBabel03232520523D

 32 34  0  0  1  0  0  0  0  0999 V2000
   46.6230   32.5120   45.2980 C   0  0  2  0  0  0  0  0  0  0  0  0
   45.5120   33.4480   45.7520 C   0  0  0  0  0  0  0  0  0  0  0  0
   45.2770   34.6280   44.9630 C   0  0  0  0  0  0  0  0  0  0  0  0
   46.0750   34.9050   43.7840 C   0  0  1  0  0  0  0  0  0  0  0  0
   47.1970   33.9840   43.5010 C   0  0  0  0  0  0  0  0  0  0  0  0
   46.7730   32.5620   43.8210 C   0  0  0  0  0  0  0  0  0  0  0  0
   47.5470   32.9680   45.7600 H   0  0  0  0  0  0  0  0  0  0  0  0
   44.7990   33.4630   46.5660 H   0  0  0  0  0  0  0  0  0  0  0  0
   44.5060   35.3430   45.2210 H   0  0  0  0  0  0  0  0  0  0  0  0
   46.4950   35.9370   43.8770 H   0  0  0  0  0  0  0  0  0  0  0  0
   48.1080   34.2360   44.0940 H   0  0  0  0  0  0  0  0  0  0  0  0
   47.4680   34.0470   42.4250 H   0  0  0  0  0  0  0  0  0  0  0  0
   47.4910   31.8220   43.4800 H   0  0  0  0  0  0  0  0  0  0  0  0
   45.7510   32.4500   43.3810 H   0  0  0  0  0  0  0  0  0  0  0  0
   46.9850   30.8770   47.0980 C   0  0  0  0  0  0  0  0  0  0  0  0
   46.4160   31.1990   45.8820 C   0  0  0  0  0  0  0  0  0  0  0  0
   45.6650   30.1980   45.2770 C   0  0  0  0  0  0  0  0  0  0  0  0
   45.5180   28.9920   45.8680 N   0  0  0  0  0  0  0  0  0  0  0  0
   46.0880   28.7120   47.0550 C   0  0  0  0  0  0  0  0  0  0  0  0
   46.8220   29.6530   47.6740 N   0  0  0  0  0  0  0  0  0  0  0  0
   47.5970   31.5310   47.7000 H   0  0  0  0  0  0  0  0  0  0  0  0
   45.1790   30.3500   44.3260 H   0  0  0  0  0  0  0  0  0  0  0  0
   45.9050   27.4280   47.6370 N   0  0  0  0  0  0  0  0  0  0  0  0
   46.8940   26.3710   47.6890 C   0  0  0  0  0  0  0  0  0  0  0  0
   46.3620   25.4320   48.7360 C   0  0  0  0  0  0  0  0  0  0  0  0
   44.8590   25.4720   48.4580 C   0  0  0  0  0  0  0  0  0  0  0  0
   44.6690   26.9740   48.2810 C   0  0  0  0  0  0  0  0  0  0  0  0
   44.5730   27.4140   49.2860 H   0  0  0  0  0  0  0  0  0  0  0  0
   45.1290   34.9750   42.5750 C   0  0  0  0  0  0  0  0  0  0  0  0
   44.0540   34.1250   42.6880 F   0  0  0  0  0  0  0  0  0  0  0  0
   44.5840   36.2640   42.5410 F   0  0  0  0  0  0  0  0  0  0  0  0
   45.8470   34.7960   41.4050 F   0  0  0  0  0  0  0  0  0  0  0  0
  1  2  1  0  0  0  0
  1  7  1  1  0  0  0
  1 16  1  0  0  0  0
  2  8  1  0  0  0  0
  3  9  1  0  0  0  0
  3  2  2  0  0  0  0
  4 10  1  1  0  0  0
  4  3  1  0  0  0  0
  5  4  1  0  0  0  0
  5  6  1  0  0  0  0
  5 11  1  0  0  0  0
  6  1  1  0  0  0  0
 12  5  1  0  0  0  0
 13  6  1  0  0  0  0
 14  6  1  0  0  0  0
 15 20  1  0  0  0  0
 15 21  1  0  0  0  0
 16 15  2  0  0  0  0
 17 18  2  0  0  0  0
 17 16  1  0  0  0  0
 18 19  1  0  0  0  0
 19 23  1  0  0  0  0
 19 20  2  0  0  0  0
 22 17  1  0  0  0  0
 23 24  1  0  0  0  0
 23 27  1  0  0  0  0
 24 25  1  0  0  0  0
 26 25  1  0  0  0  0
 27 26  1  0  0  0  0
 27 28  1  0  0  0  0
 29 30  1  0  0  0  0
 29  4  1  0  0  0  0
 31 29  1  0  0  0  0
 32 29  1  0  0  0  0
M  END
>  <minimizedAffinity>
-4.84138155

>  <minimizedRMSD>
2.10450196

$$$$
