
 OpenBabel03232520313D

 41 44  0  0  1  0  0  0  0  0999 V2000
   46.9280   34.5210   41.3170 C   0  0  0  0  0  0  0  0  0  0  0  0
   48.1900   34.9440   40.9510 C   0  0  0  0  0  0  0  0  0  0  0  0
   48.4450   34.6300   39.6970 N   0  0  0  0  0  0  0  0  0  0  0  0
   47.3510   33.9960   39.2220 C   0  0  0  0  0  0  0  0  0  0  0  0
   47.0980   33.4580   37.9560 C   0  0  0  0  0  0  0  0  0  0  0  0
   45.8910   32.8610   37.7390 C   0  0  0  0  0  0  0  0  0  0  0  0
   44.8880   32.7390   38.6620 C   0  0  0  0  0  0  0  0  0  0  0  0
   45.1900   33.2860   39.8920 C   0  0  0  0  0  0  0  0  0  0  0  0
   46.3780   33.9050   40.1990 C   0  0  0  0  0  0  0  0  0  0  0  0
   49.2980   34.8000   39.0990 H   0  0  0  0  0  0  0  0  0  0  0  0
   47.8370   33.5110   37.1680 H   0  0  0  0  0  0  0  0  0  0  0  0
   45.7260   32.4490   36.7320 H   0  0  0  0  0  0  0  0  0  0  0  0
   43.9490   32.2610   38.4500 H   0  0  0  0  0  0  0  0  0  0  0  0
   44.4670   33.2480   40.7040 H   0  0  0  0  0  0  0  0  0  0  0  0
   44.7740   35.8680   44.0530 C   0  0  0  0  0  0  0  0  0  0  0  0
   45.4110   35.7540   42.7960 C   0  0  0  0  0  0  0  0  0  0  0  0
   46.2590   34.6670   42.6050 C   0  0  0  0  0  0  0  0  0  0  0  0
   46.4350   33.7760   43.6200 N   0  0  0  0  0  0  0  0  0  0  0  0
   45.7940   33.9370   44.8140 C   0  0  0  0  0  0  0  0  0  0  0  0
   44.9680   34.9740   45.0320 N   0  0  0  0  0  0  0  0  0  0  0  0
   44.1340   36.7600   44.0840 H   0  0  0  0  0  0  0  0  0  0  0  0
   45.2750   36.4540   41.9940 H   0  0  0  0  0  0  0  0  0  0  0  0
   45.9280   33.2360   45.6230 H   0  0  0  0  0  0  0  0  0  0  0  0
   49.1090   35.6540   41.8790 C   0  0  0  0  0  0  0  0  0  0  0  0
   48.5130   36.2690   42.6010 H   0  0  0  0  0  0  0  0  0  0  0  0
   49.7470   36.3360   41.2900 H   0  0  0  0  0  0  0  0  0  0  0  0
   49.9990   34.7040   42.6250 C   0  0  0  0  0  0  0  0  0  0  0  0
   49.5820   34.5490   43.6450 H   0  0  0  0  0  0  0  0  0  0  0  0
   50.9790   35.2000   42.7650 H   0  0  0  0  0  0  0  0  0  0  0  0
   50.2140   33.3810   41.9330 C   0  0  1  0  0  0  0  0  0  0  0  0
   51.0380   32.3030   42.4450 C   0  0  0  0  0  0  0  0  0  0  0  0
   49.5540   32.1840   42.6440 C   0  0  2  0  0  0  0  0  0  0  0  0
   50.0580   33.4320   40.8330 H   0  0  0  0  0  0  0  0  0  0  0  0
   51.6830   32.5240   43.3170 H   0  0  0  0  0  0  0  0  0  0  0  0
   51.5640   31.6370   41.7190 H   0  0  0  0  0  0  0  0  0  0  0  0
   49.2630   32.2690   43.7050 H   0  0  0  0  0  0  0  0  0  0  0  0
   48.9420   31.2310   41.9000 O   0  0  0  0  0  0  0  0  0  0  0  0
   47.8450   30.6000   42.3830 C   0  0  0  0  0  0  0  0  0  0  0  0
   47.7590   30.8640   43.7630 F   0  0  0  0  0  0  0  0  0  0  0  0
   47.9830   29.2390   42.2990 F   0  0  0  0  0  0  0  0  0  0  0  0
   46.6570   31.0200   41.8170 F   0  0  0  0  0  0  0  0  0  0  0  0
  1 17  1  0  0  0  0
  2  1  2  0  0  0  0
  2 24  1  0  0  0  0
  3  2  1  0  0  0  0
  4  3  1  0  0  0  0
  4  9  1  0  0  0  0
  5  4  2  0  0  0  0
  6  5  1  0  0  0  0
  6  7  2  0  0  0  0
  7  8  1  0  0  0  0
  8  9  2  0  0  0  0
  8 14  1  0  0  0  0
  9  1  1  0  0  0  0
 10  3  1  0  0  0  0
 11  5  1  0  0  0  0
 12  6  1  0  0  0  0
 13  7  1  0  0  0  0
 15 21  1  0  0  0  0
 15 20  1  0  0  0  0
 16 15  2  0  0  0  0
 17 16  1  0  0  0  0
 17 18  2  0  0  0  0
 18 19  1  0  0  0  0
 19 20  2  0  0  0  0
 19 23  1  0  0  0  0
 22 16  1  0  0  0  0
 24 25  1  0  0  0  0
 24 27  1  0  0  0  0
 26 24  1  0  0  0  0
 27 29  1  0  0  0  0
 27 28  1  0  0  0  0
 30 33  1  6  0  0  0
 30 31  1  0  0  0  0
 30 27  1  0  0  0  0
 30 32  1  0  0  0  0
 31 32  1  0  0  0  0
 31 34  1  0  0  0  0
 32 36  1  1  0  0  0
 35 31  1  0  0  0  0
 37 38  1  0  0  0  0
 37 32  1  0  0  0  0
 38 39  1  0  0  0  0
 40 38  1  0  0  0  0
 41 38  1  0  0  0  0
M  END
>  <minimizedAffinity>
-5.49155378

>  <minimizedRMSD>
0.346557796

$$$$
