
 OpenBabel03232520593D

 41 44  0  0  1  0  0  0  0  0999 V2000
   45.3640   32.8610   47.4850 C   0  0  0  0  0  0  0  0  0  0  0  0
   45.9210   32.6190   46.2710 C   0  0  0  0  0  0  0  0  0  0  0  0
   46.1960   31.2740   46.0140 C   0  0  0  0  0  0  0  0  0  0  0  0
   45.9350   30.2690   46.8880 N   0  0  0  0  0  0  0  0  0  0  0  0
   45.3660   30.5690   48.1160 C   0  0  0  0  0  0  0  0  0  0  0  0
   45.0970   31.8420   48.3820 N   0  0  0  0  0  0  0  0  0  0  0  0
   45.0980   29.5450   49.0600 N   0  0  0  0  0  0  0  0  0  0  0  0
   45.1160   33.8660   47.7890 H   0  0  0  0  0  0  0  0  0  0  0  0
   45.9500   28.9150   49.1430 H   0  0  0  0  0  0  0  0  0  0  0  0
   44.2680   29.3470   49.6250 H   0  0  0  0  0  0  0  0  0  0  0  0
   46.1670   33.5830   45.2520 C   0  0  2  0  0  0  0  0  0  0  0  0
   44.9580   34.6730   45.5000 C   0  0  0  0  0  0  0  0  0  0  0  0
   44.7220   35.6150   44.4410 C   0  0  0  0  0  0  0  0  0  0  0  0
   45.5200   35.5580   43.2140 C   0  0  1  0  0  0  0  0  0  0  0  0
   46.5800   34.5540   43.1490 C   0  0  0  0  0  0  0  0  0  0  0  0
   46.1310   33.3130   43.8850 C   0  0  0  0  0  0  0  0  0  0  0  0
   46.9840   34.2900   45.5890 H   0  0  0  0  0  0  0  0  0  0  0  0
   44.2840   34.8160   46.3370 H   0  0  0  0  0  0  0  0  0  0  0  0
   43.9550   36.3350   44.5620 H   0  0  0  0  0  0  0  0  0  0  0  0
   45.9480   36.5690   43.0280 H   0  0  0  0  0  0  0  0  0  0  0  0
   46.7570   34.3290   42.0560 H   0  0  0  0  0  0  0  0  0  0  0  0
   47.5850   34.8730   43.5180 H   0  0  0  0  0  0  0  0  0  0  0  0
   46.9850   32.6680   43.5470 H   0  0  0  0  0  0  0  0  0  0  0  0
   45.1780   32.9820   43.4240 H   0  0  0  0  0  0  0  0  0  0  0  0
   44.5050   35.3060   42.0610 C   0  0  0  0  0  0  0  0  0  0  0  0
   43.4350   34.5200   42.4550 F   0  0  0  0  0  0  0  0  0  0  0  0
   43.9750   36.5490   41.7260 F   0  0  0  0  0  0  0  0  0  0  0  0
   45.1760   34.8380   40.9460 F   0  0  0  0  0  0  0  0  0  0  0  0
   46.8390   30.5950   44.9030 C   0  0  0  0  0  0  0  0  0  0  0  0
   46.5050   29.8180   43.8410 C   0  0  0  0  0  0  0  0  0  0  0  0
   47.6830   29.4600   43.1730 C   0  0  0  0  0  0  0  0  0  0  0  0
   48.6720   30.0370   43.8580 N   0  0  0  0  0  0  0  0  0  0  0  0
   48.1990   30.7100   44.8810 N   0  0  0  0  0  0  0  0  0  0  0  0
   45.4580   29.6120   43.6910 H   0  0  0  0  0  0  0  0  0  0  0  0
   47.6480   28.8400   42.2940 H   0  0  0  0  0  0  0  0  0  0  0  0
   51.6570   29.8400   44.8160 H   0  0  0  0  0  0  0  0  0  0  0  0
   50.7970   29.3200   44.5830 N   0  0  0  0  0  0  0  0  0  0  0  0
   51.0310   27.9390   44.2070 C   0  0  0  0  0  2  0  0  0  0  0  0
   51.3600   28.0870   42.7290 C   0  0  0  0  0  2  0  0  0  0  0  0
   50.2790   29.0440   42.2700 C   0  0  0  0  0  2  0  0  0  0  0  0
   50.0850   29.9010   43.4730 C   0  0  1  0  0  3  0  0  0  0  0  0
  1  8  1  0  0  0  0
  1  6  1  0  0  0  0
  2  1  2  0  0  0  0
  3  2  1  0  0  0  0
  3  4  2  0  0  0  0
  4  5  1  0  0  0  0
  5  6  2  0  0  0  0
  5  7  1  0  0  0  0
  7  9  1  0  0  0  0
  7 10  1  0  0  0  0
 11 12  1  0  0  0  0
 11 17  1  1  0  0  0
 11  2  1  0  0  0  0
 12 18  1  0  0  0  0
 13 19  1  0  0  0  0
 13 12  2  0  0  0  0
 14 20  1  6  0  0  0
 14 13  1  0  0  0  0
 15 14  1  0  0  0  0
 15 22  1  0  0  0  0
 15 16  1  0  0  0  0
 16 11  1  0  0  0  0
 21 15  1  0  0  0  0
 23 16  1  0  0  0  0
 24 16  1  0  0  0  0
 25 26  1  0  0  0  0
 25 14  1  0  0  0  0
 27 25  1  0  0  0  0
 28 25  1  0  0  0  0
 29  3  1  0  0  0  0
 30 29  1  0  0  0  0
 31 30  2  0  0  0  0
 31 32  1  0  0  0  0
 32 33  1  0  0  0  0
 33 29  2  0  0  0  0
 34 30  1  0  0  0  0
 35 31  1  0  0  0  0
 37 36  1  0  0  0  0
 38 37  1  0  0  0  0
 39 38  1  0  0  0  0
 40 39  1  0  0  0  0
 41 40  1  6  0  0  0
 41 32  1  0  0  0  0
 41 37  1  0  0  0  0
M  END
>  <minimizedAffinity>
-5.58240032

>  <minimizedRMSD>
0.635855973

$$$$
