
 OpenBabel03232520263D

 42 46  0  0  1  0  0  0  0  0999 V2000
   46.8270   34.5240   41.3320 C   0  0  0  0  0  0  0  0  0  0  0  0
   48.0820   34.9530   40.9520 C   0  0  0  0  0  0  0  0  0  0  0  0
   48.3280   34.5980   39.6870 N   0  0  0  0  0  0  0  0  0  0  0  0
   47.2350   33.9410   39.2520 C   0  0  0  0  0  0  0  0  0  0  0  0
   46.9600   33.3610   38.0160 C   0  0  0  0  0  0  0  0  0  0  0  0
   45.7610   32.7470   37.8230 C   0  0  0  0  0  0  0  0  0  0  0  0
   44.7750   32.6520   38.7770 C   0  0  0  0  0  0  0  0  0  0  0  0
   45.0770   33.2360   39.9900 C   0  0  0  0  0  0  0  0  0  0  0  0
   46.2730   33.8740   40.2530 C   0  0  0  0  0  0  0  0  0  0  0  0
   49.1780   34.7600   39.0820 H   0  0  0  0  0  0  0  0  0  0  0  0
   47.6830   33.3870   37.1950 H   0  0  0  0  0  0  0  0  0  0  0  0
   45.5540   32.2940   36.8500 H   0  0  0  0  0  0  0  0  0  0  0  0
   43.8080   32.1630   38.6410 H   0  0  0  0  0  0  0  0  0  0  0  0
   44.3460   33.1990   40.7900 H   0  0  0  0  0  0  0  0  0  0  0  0
   44.7410   35.9940   44.0590 C   0  0  0  0  0  0  0  0  0  0  0  0
   45.3550   35.8300   42.8030 C   0  0  0  0  0  0  0  0  0  0  0  0
   46.1780   34.7110   42.6360 C   0  0  0  0  0  0  0  0  0  0  0  0
   46.3600   33.8260   43.6700 N   0  0  0  0  0  0  0  0  0  0  0  0
   45.7360   34.0440   44.8600 C   0  0  0  0  0  0  0  0  0  0  0  0
   44.9370   35.1060   45.0640 N   0  0  0  0  0  0  0  0  0  0  0  0
   44.1180   36.8970   44.0910 H   0  0  0  0  0  0  0  0  0  0  0  0
   45.2180   36.5170   41.9890 H   0  0  0  0  0  0  0  0  0  0  0  0
   45.8650   33.3610   45.6890 H   0  0  0  0  0  0  0  0  0  0  0  0
   49.0070   35.6970   41.8340 C   0  0  0  0  0  0  0  0  0  0  0  0
   48.4420   36.2710   42.6010 H   0  0  0  0  0  0  0  0  0  0  0  0
   49.5640   36.4620   41.2270 H   0  0  0  0  0  0  0  0  0  0  0  0
   49.9280   34.7830   42.5660 C   0  0  0  0  0  0  0  0  0  0  0  0
   49.6600   34.7000   43.6490 H   0  0  0  0  0  0  0  0  0  0  0  0
   50.9510   35.2590   42.5680 H   0  0  0  0  0  0  0  0  0  0  0  0
   50.1060   33.4360   41.9350 C   0  0  1  0  0  0  0  0  0  0  0  0
   51.0900   32.4560   42.3790 C   0  0  0  0  0  0  0  0  0  0  0  0
   49.7060   32.2590   42.8470 C   0  0  2  0  0  0  0  0  0  0  0  0
   49.7090   33.2950   40.8900 H   0  0  0  0  0  0  0  0  0  0  0  0
   51.8720   32.8190   43.0960 H   0  0  0  0  0  0  0  0  0  0  0  0
   51.5460   31.7600   41.6380 H   0  0  0  0  0  0  0  0  0  0  0  0
   49.5520   32.4980   43.9330 H   0  0  0  0  0  0  0  0  0  0  0  0
   48.8400   31.2460   42.3660 N   0  0  2  0  0  0  0  0  0  0  0  0
   48.0170   30.7920   43.4830 C   0  0  0  0  0  0  0  0  0  0  0  0
   48.7720   29.5890   44.0330 C   0  0  0  0  0  0  0  0  0  0  0  0
   49.3330   28.9740   42.7650 C   0  0  0  0  0  0  0  0  0  0  0  0
   49.4390   30.1040   41.7620 C   0  0  0  0  0  0  0  0  0  0  0  0
   48.7810   29.8190   40.8910 H   0  0  0  0  0  0  0  0  0  0  0  0
  1 17  1  0  0  0  0
  2  1  2  0  0  0  0
  2 24  1  0  0  0  0
  3  2  1  0  0  0  0
  4  3  1  0  0  0  0
  4  9  1  0  0  0  0
  5  4  2  0  0  0  0
  6  5  1  0  0  0  0
  6  7  2  0  0  0  0
  7  8  1  0  0  0  0
  8  9  2  0  0  0  0
  8 14  1  0  0  0  0
  9  1  1  0  0  0  0
 10  3  1  0  0  0  0
 11  5  1  0  0  0  0
 12  6  1  0  0  0  0
 13  7  1  0  0  0  0
 15 21  1  0  0  0  0
 15 20  1  0  0  0  0
 16 15  2  0  0  0  0
 17 16  1  0  0  0  0
 17 18  2  0  0  0  0
 18 19  1  0  0  0  0
 19 20  2  0  0  0  0
 19 23  1  0  0  0  0
 22 16  1  0  0  0  0
 24 27  1  0  0  0  0
 24 25  1  0  0  0  0
 26 24  1  0  0  0  0
 27 29  1  0  0  0  0
 27 28  1  0  0  0  0
 30 33  1  6  0  0  0
 30 31  1  0  0  0  0
 30 27  1  0  0  0  0
 30 32  1  0  0  0  0
 31 32  1  0  0  0  0
 31 34  1  0  0  0  0
 32 36  1  1  0  0  0
 35 31  1  0  0  0  0
 37 32  1  0  0  0  0
 37 38  1  1  0  0  0
 38 39  1  0  0  0  0
 40 39  1  0  0  0  0
 41 37  1  0  0  0  0
 41 40  1  0  0  0  0
 42 41  1  0  0  0  0
M  END
>  <minimizedAffinity>
-5.68056297

>  <minimizedRMSD>
1.44894207

$$$$
