
 OpenBabel03232520443D

 38 41  0  0  0  0  0  0  0  0999 V2000
   46.4530   34.6540   42.1780 C   0  0  0  0  0  0  0  0  0  0  0  0
   47.7530   35.0270   42.0500 C   0  0  0  0  0  0  0  0  0  0  0  0
   48.4550   34.8610   40.8420 C   0  0  0  0  0  0  0  0  0  0  0  0
   47.8020   34.2980   39.7460 C   0  0  0  0  0  0  0  0  0  0  0  0
   46.4900   33.9240   39.8830 C   0  0  0  0  0  0  0  0  0  0  0  0
   45.8370   34.1070   41.0930 C   0  0  0  0  0  0  0  0  0  0  0  0
   48.2990   35.4690   42.8760 H   0  0  0  0  0  0  0  0  0  0  0  0
   49.4890   35.1790   40.8030 H   0  0  0  0  0  0  0  0  0  0  0  0
   48.3840   34.1970   38.8590 H   0  0  0  0  0  0  0  0  0  0  0  0
   46.0180   33.4910   39.0120 H   0  0  0  0  0  0  0  0  0  0  0  0
   44.4110   36.0160   45.0410 C   0  0  0  0  0  0  0  0  0  0  0  0
   44.9680   35.9280   43.7600 C   0  0  0  0  0  0  0  0  0  0  0  0
   45.8090   34.8650   43.4690 C   0  0  0  0  0  0  0  0  0  0  0  0
   46.0480   33.9670   44.4400 N   0  0  0  0  0  0  0  0  0  0  0  0
   45.5010   34.0690   45.6720 C   0  0  0  0  0  0  0  0  0  0  0  0
   44.6820   35.0960   45.9700 N   0  0  0  0  0  0  0  0  0  0  0  0
   43.7540   36.8620   45.2410 H   0  0  0  0  0  0  0  0  0  0  0  0
   44.7780   36.6470   42.9780 H   0  0  0  0  0  0  0  0  0  0  0  0
   45.8120   33.0700   46.6370 N   0  0  0  0  0  0  0  0  0  0  0  0
   45.0640   32.8800   47.8700 C   0  0  0  0  0  0  0  0  0  0  0  0
   45.8130   31.8170   48.6210 C   0  0  0  0  0  0  0  0  0  0  0  0
   46.6930   31.1350   47.6140 C   0  0  0  0  0  0  0  0  0  0  0  0
   46.9170   32.1110   46.5120 C   0  0  0  0  0  0  0  0  0  0  0  0
   46.7970   31.6120   45.5320 H   0  0  0  0  0  0  0  0  0  0  0  0
   44.4780   33.7060   41.1950 N   0  0  0  0  0  0  0  0  0  0  0  0
   43.6440   34.6550   40.6630 C   0  0  0  0  0  0  0  0  0  0  0  0
   42.2670   34.4720   40.6560 C   0  0  0  0  0  0  0  0  0  0  0  0
   41.7740   33.2980   41.2070 C   0  0  0  0  0  0  0  0  0  0  0  0
   40.5380   33.0630   41.2340 O   0  0  0  0  0  0  0  0  0  0  0  0
   42.6260   32.3920   41.7170 N   0  0  0  0  0  0  0  0  0  0  0  0
   43.9490   32.5860   41.7150 C   0  0  0  0  0  0  0  0  0  0  0  0
   44.8150   31.8020   42.1670 O   0  0  0  0  0  0  0  0  0  0  0  0
   43.9530   35.5830   40.2230 H   0  0  0  0  0  0  0  0  0  0  0  0
   42.2890   31.5070   42.1340 H   0  0  0  0  0  0  0  0  0  0  0  0
   41.3330   35.4820   40.0880 C   0  0  0  0  0  0  0  0  0  0  0  0
   41.3030   35.2740   38.9840 H   0  0  0  0  0  0  0  0  0  0  0  0
   40.3250   35.3040   40.4630 H   0  0  0  0  0  0  0  0  0  0  0  0
   41.6570   36.5120   40.2740 H   0  0  0  0  0  0  0  0  0  0  0  0
  1 13  1  0  0  0  0
  2  1  1  0  0  0  0
  2  7  1  0  0  0  0
  3  2  2  0  0  0  0
  4  5  2  0  0  0  0
  4  3  1  0  0  0  0
  5  6  1  0  0  0  0
  6 25  1  0  0  0  0
  6  1  2  0  0  0  0
  8  3  1  0  0  0  0
  9  4  1  0  0  0  0
 10  5  1  0  0  0  0
 11 17  1  0  0  0  0
 11 16  1  0  0  0  0
 12 11  2  0  0  0  0
 13 12  1  0  0  0  0
 13 14  2  0  0  0  0
 14 15  1  0  0  0  0
 15 16  2  0  0  0  0
 15 19  1  0  0  0  0
 18 12  1  0  0  0  0
 19 20  1  0  0  0  0
 20 21  1  0  0  0  0
 22 21  1  0  0  0  0
 23 19  1  0  0  0  0
 23 22  1  0  0  0  0
 24 23  1  0  0  0  0
 25 31  1  0  0  0  0
 26 25  1  0  0  0  0
 27 26  2  0  0  0  0
 27 28  1  0  0  0  0
 28 29  2  0  0  0  0
 28 30  1  0  0  0  0
 30 34  1  0  0  0  0
 31 30  1  0  0  0  0
 31 32  2  0  0  0  0
 33 26  1  0  0  0  0
 35 38  1  0  0  0  0
 35 37  1  0  0  0  0
 35 27  1  0  0  0  0
 36 35  1  0  0  0  0
M  END
>  <minimizedAffinity>
-7.76980305

>  <minimizedRMSD>
0.140077278

$$$$
