
 OpenBabel03232520593D

 41 44  0  0  1  0  0  0  0  0999 V2000
   45.3660   32.8820   47.5390 C   0  0  0  0  0  0  0  0  0  0  0  0
   45.9260   32.6180   46.3320 C   0  0  0  0  0  0  0  0  0  0  0  0
   46.1950   31.2670   46.0980 C   0  0  0  0  0  0  0  0  0  0  0  0
   45.9250   30.2780   46.9870 N   0  0  0  0  0  0  0  0  0  0  0  0
   45.3530   30.6000   48.2080 C   0  0  0  0  0  0  0  0  0  0  0  0
   45.0900   31.8790   48.4520 N   0  0  0  0  0  0  0  0  0  0  0  0
   45.0750   29.5930   49.1660 N   0  0  0  0  0  0  0  0  0  0  0  0
   45.1220   33.8930   47.8270 H   0  0  0  0  0  0  0  0  0  0  0  0
   45.9240   28.9600   49.2640 H   0  0  0  0  0  0  0  0  0  0  0  0
   44.2410   29.4080   49.7310 H   0  0  0  0  0  0  0  0  0  0  0  0
   46.1820   33.5630   45.2990 C   0  0  2  0  0  0  0  0  0  0  0  0
   44.9700   34.6570   45.5160 C   0  0  0  0  0  0  0  0  0  0  0  0
   44.7440   35.5800   44.4390 C   0  0  0  0  0  0  0  0  0  0  0  0
   45.5540   35.5020   43.2200 C   0  0  1  0  0  0  0  0  0  0  0  0
   46.6150   34.4980   43.1830 C   0  0  0  0  0  0  0  0  0  0  0  0
   46.1600   33.2690   43.9360 C   0  0  0  0  0  0  0  0  0  0  0  0
   46.9960   34.2770   45.6310 H   0  0  0  0  0  0  0  0  0  0  0  0
   44.2880   34.8140   46.3430 H   0  0  0  0  0  0  0  0  0  0  0  0
   43.9760   36.3020   44.5390 H   0  0  0  0  0  0  0  0  0  0  0  0
   45.9830   36.5090   43.0210 H   0  0  0  0  0  0  0  0  0  0  0  0
   46.8020   34.2530   42.0960 H   0  0  0  0  0  0  0  0  0  0  0  0
   47.6160   34.8240   43.5560 H   0  0  0  0  0  0  0  0  0  0  0  0
   47.0170   32.6190   43.6180 H   0  0  0  0  0  0  0  0  0  0  0  0
   45.2100   32.9290   43.4720 H   0  0  0  0  0  0  0  0  0  0  0  0
   44.5510   35.2290   42.0620 C   0  0  0  0  0  0  0  0  0  0  0  0
   43.5110   34.3970   42.4430 F   0  0  0  0  0  0  0  0  0  0  0  0
   43.9730   36.4560   41.7460 F   0  0  0  0  0  0  0  0  0  0  0  0
   45.2390   34.8050   40.9410 F   0  0  0  0  0  0  0  0  0  0  0  0
   46.8390   30.5660   45.0000 C   0  0  0  0  0  0  0  0  0  0  0  0
   46.5010   29.9040   43.8650 C   0  0  0  0  0  0  0  0  0  0  0  0
   47.6760   29.4220   43.2730 C   0  0  0  0  0  0  0  0  0  0  0  0
   48.6670   29.8150   44.0750 N   0  0  0  0  0  0  0  0  0  0  0  0
   48.1980   30.4910   45.0990 N   0  0  0  0  0  0  0  0  0  0  0  0
   45.4540   29.8560   43.6150 H   0  0  0  0  0  0  0  0  0  0  0  0
   47.6380   28.8620   42.3550 H   0  0  0  0  0  0  0  0  0  0  0  0
   51.5980   29.6590   45.1960 H   0  0  0  0  0  0  0  0  0  0  0  0
   50.7100   29.1550   45.0480 N   0  0  0  0  0  0  0  0  0  0  0  0
   50.8550   27.7120   45.0130 C   0  0  0  0  0  2  0  0  0  0  0  0
   51.2420   27.4900   43.5560 C   0  0  0  0  0  2  0  0  0  0  0  0
   50.2490   28.3790   42.8390 C   0  0  0  0  0  2  0  0  0  0  0  0
   50.0780   29.5040   43.8000 C   0  0  1  0  0  3  0  0  0  0  0  0
  1  8  1  0  0  0  0
  1  6  1  0  0  0  0
  2  1  2  0  0  0  0
  3  2  1  0  0  0  0
  3  4  2  0  0  0  0
  4  5  1  0  0  0  0
  5  6  2  0  0  0  0
  5  7  1  0  0  0  0
  7  9  1  0  0  0  0
  7 10  1  0  0  0  0
 11 12  1  0  0  0  0
 11 17  1  1  0  0  0
 11  2  1  0  0  0  0
 12 18  1  0  0  0  0
 13 19  1  0  0  0  0
 13 12  2  0  0  0  0
 14 20  1  6  0  0  0
 14 13  1  0  0  0  0
 15 14  1  0  0  0  0
 15 22  1  0  0  0  0
 15 16  1  0  0  0  0
 16 11  1  0  0  0  0
 21 15  1  0  0  0  0
 23 16  1  0  0  0  0
 24 16  1  0  0  0  0
 25 26  1  0  0  0  0
 25 14  1  0  0  0  0
 27 25  1  0  0  0  0
 28 25  1  0  0  0  0
 29 33  2  0  0  0  0
 29  3  1  0  0  0  0
 30 29  1  0  0  0  0
 31 30  2  0  0  0  0
 31 32  1  0  0  0  0
 32 33  1  0  0  0  0
 34 30  1  0  0  0  0
 35 31  1  0  0  0  0
 37 36  1  0  0  0  0
 38 37  1  0  0  0  0
 39 38  1  0  0  0  0
 40 39  1  0  0  0  0
 41 40  1  6  0  0  0
 41 32  1  0  0  0  0
 41 37  1  0  0  0  0
M  END
>  <minimizedAffinity>
-5.58716631

>  <minimizedRMSD>
0.495641202

$$$$
