
 OpenBabel03232520593D

 41 44  0  0  1  0  0  0  0  0999 V2000
   45.5000   32.9000   47.3750 C   0  0  0  0  0  0  0  0  0  0  0  0
   45.9600   32.6510   46.1230 C   0  0  0  0  0  0  0  0  0  0  0  0
   46.1610   31.2990   45.8340 C   0  0  0  0  0  0  0  0  0  0  0  0
   45.9220   30.2950   46.7150 N   0  0  0  0  0  0  0  0  0  0  0  0
   45.4540   30.6020   47.9830 C   0  0  0  0  0  0  0  0  0  0  0  0
   45.2560   31.8810   48.2790 N   0  0  0  0  0  0  0  0  0  0  0  0
   45.2120   29.5780   48.9330 N   0  0  0  0  0  0  0  0  0  0  0  0
   45.3150   33.9100   47.7060 H   0  0  0  0  0  0  0  0  0  0  0  0
   46.0420   28.9130   48.9500 H   0  0  0  0  0  0  0  0  0  0  0  0
   44.4160   29.4050   49.5530 H   0  0  0  0  0  0  0  0  0  0  0  0
   46.1720   33.6170   45.0980 C   0  0  2  0  0  0  0  0  0  0  0  0
   44.9780   34.7120   45.3930 C   0  0  0  0  0  0  0  0  0  0  0  0
   44.7070   35.6570   44.3470 C   0  0  0  0  0  0  0  0  0  0  0  0
   45.4580   35.6010   43.0910 C   0  0  1  0  0  0  0  0  0  0  0  0
   46.5110   34.5930   42.9840 C   0  0  0  0  0  0  0  0  0  0  0  0
   46.0850   33.3510   43.7320 C   0  0  0  0  0  0  0  0  0  0  0  0
   47.0040   34.3200   45.4070 H   0  0  0  0  0  0  0  0  0  0  0  0
   44.3350   34.8540   46.2550 H   0  0  0  0  0  0  0  0  0  0  0  0
   43.9480   36.3800   44.4980 H   0  0  0  0  0  0  0  0  0  0  0  0
   45.8840   36.6100   42.8920 H   0  0  0  0  0  0  0  0  0  0  0  0
   46.6470   34.3700   41.8840 H   0  0  0  0  0  0  0  0  0  0  0  0
   47.5300   34.9070   43.3160 H   0  0  0  0  0  0  0  0  0  0  0  0
   46.9230   32.7040   43.3620 H   0  0  0  0  0  0  0  0  0  0  0  0
   45.1130   33.0250   43.3060 H   0  0  0  0  0  0  0  0  0  0  0  0
   44.4010   35.3560   41.9750 C   0  0  0  0  0  0  0  0  0  0  0  0
   43.3270   34.6010   42.4160 F   0  0  0  0  0  0  0  0  0  0  0  0
   43.8880   36.6070   41.6400 F   0  0  0  0  0  0  0  0  0  0  0  0
   45.0240   34.8580   40.8460 F   0  0  0  0  0  0  0  0  0  0  0  0
   46.6970   30.6090   44.6730 C   0  0  0  0  0  0  0  0  0  0  0  0
   46.2900   29.7290   43.7230 C   0  0  0  0  0  0  0  0  0  0  0  0
   47.3830   29.4420   42.8960 C   0  0  0  0  0  0  0  0  0  0  0  0
   48.3970   30.1600   43.3820 N   0  0  0  0  0  0  0  0  0  0  0  0
   48.0160   30.8560   44.4280 N   0  0  0  0  0  0  0  0  0  0  0  0
   45.2610   29.4110   43.7540 H   0  0  0  0  0  0  0  0  0  0  0  0
   47.2820   28.7600   42.0690 H   0  0  0  0  0  0  0  0  0  0  0  0
   50.3400   28.8130   41.3120 H   0  0  0  0  0  0  0  0  0  0  0  0
   49.6370   29.5520   41.4720 N   0  0  0  0  0  0  0  0  0  0  0  0
   49.7380   30.6640   40.5460 C   0  0  0  0  0  2  0  0  0  0  0  0
   50.8060   31.5130   41.2210 C   0  0  0  0  0  2  0  0  0  0  0  0
   50.3450   31.4940   42.6630 C   0  0  0  0  0  2  0  0  0  0  0  0
   49.7410   30.1370   42.7840 C   0  0  1  0  0  3  0  0  0  0  0  0
  1  8  1  0  0  0  0
  1  6  1  0  0  0  0
  2  1  2  0  0  0  0
  3  2  1  0  0  0  0
  3  4  2  0  0  0  0
  4  5  1  0  0  0  0
  5  6  2  0  0  0  0
  5  7  1  0  0  0  0
  7  9  1  0  0  0  0
  7 10  1  0  0  0  0
 11 12  1  0  0  0  0
 11 17  1  1  0  0  0
 11  2  1  0  0  0  0
 12 18  1  0  0  0  0
 13 19  1  0  0  0  0
 13 12  2  0  0  0  0
 14 20  1  6  0  0  0
 14 13  1  0  0  0  0
 15 14  1  0  0  0  0
 15 22  1  0  0  0  0
 15 16  1  0  0  0  0
 16 11  1  0  0  0  0
 21 15  1  0  0  0  0
 23 16  1  0  0  0  0
 24 16  1  0  0  0  0
 25 26  1  0  0  0  0
 25 14  1  0  0  0  0
 27 25  1  0  0  0  0
 28 25  1  0  0  0  0
 29  3  1  0  0  0  0
 30 34  1  0  0  0  0
 30 29  1  0  0  0  0
 31 32  1  0  0  0  0
 31 30  2  0  0  0  0
 32 33  1  0  0  0  0
 33 29  2  0  0  0  0
 35 31  1  0  0  0  0
 36 37  1  0  0  0  0
 37 41  1  0  0  0  0
 38 39  1  0  0  0  0
 38 37  1  0  0  0  0
 39 40  1  0  0  0  0
 41 40  1  6  0  0  0
 41 32  1  0  0  0  0
M  END
>  <minimizedAffinity>
-5.71162701

>  <minimizedRMSD>
0.904433072

$$$$
