
 OpenBabel03232517143D

 43 48  0  0  1  0  0  0  0  0999 V2000
   46.3490   32.7360   46.8890 C   0  0  0  0  0  0  0  0  0  0  0  0
   45.5690   32.6500   48.0130 C   0  0  0  0  0  0  0  0  0  0  0  0
   46.2510   31.8210   48.8760 C   0  0  0  0  0  0  0  0  0  0  0  0
   47.4040   31.4360   48.2580 C   0  0  0  0  0  0  0  0  0  0  0  0
   47.4040   32.0120   47.0830 O   0  0  0  0  0  0  0  0  0  0  0  0
   44.6400   33.1790   48.0680 H   0  0  0  0  0  0  0  0  0  0  0  0
   45.8570   31.5790   49.8520 H   0  0  0  0  0  0  0  0  0  0  0  0
   46.6690   34.0690   43.5940 C   0  0  0  0  0  0  0  0  0  0  0  0
   45.5290   34.7180   44.0520 C   0  0  0  0  0  0  0  0  0  0  0  0
   45.2700   34.2900   45.3600 C   0  0  0  0  0  0  0  0  0  0  0  0
   46.2610   33.3990   45.6440 N   0  0  0  0  0  0  0  0  0  0  0  0
   47.0940   33.2530   44.6230 N   0  0  0  0  0  0  0  0  0  0  0  0
   44.9150   35.4390   43.5260 H   0  0  0  0  0  0  0  0  0  0  0  0
   44.4620   34.6000   45.9980 H   0  0  0  0  0  0  0  0  0  0  0  0
   48.6880   35.3920   40.8210 C   0  0  0  0  0  0  0  0  0  0  0  0
   48.1430   34.7290   39.7300 C   0  0  0  0  0  0  0  0  0  0  0  0
   47.0910   33.8380   39.9570 C   0  0  0  0  0  0  0  0  0  0  0  0
   46.6300   33.6430   41.2360 N   0  0  0  0  0  0  0  0  0  0  0  0
   47.1970   34.3120   42.2490 C   0  0  0  0  0  0  0  0  0  0  0  0
   48.2080   35.1750   42.0750 N   0  0  0  0  0  0  0  0  0  0  0  0
   49.5020   36.0780   40.6270 H   0  0  0  0  0  0  0  0  0  0  0  0
   48.4450   34.8270   38.7130 H   0  0  0  0  0  0  0  0  0  0  0  0
   46.5820   33.2640   39.2060 H   0  0  0  0  0  0  0  0  0  0  0  0
   48.3890   30.5650   48.8360 N   0  0  0  0  0  0  0  0  0  0  0  0
   49.1040   30.6270   50.0060 C   0  0  0  0  0  0  0  0  0  0  0  0
   49.9150   29.5090   50.0420 C   0  0  0  0  0  0  0  0  0  0  0  0
   49.6770   28.7960   48.8980 N   0  0  0  0  0  0  0  0  0  0  0  0
   48.7530   29.4560   48.1920 C   0  0  0  0  0  0  0  0  0  0  0  0
   48.9530   31.4680   50.6860 H   0  0  0  0  0  0  0  0  0  0  0  0
   50.5760   29.3310   50.8660 H   0  0  0  0  0  0  0  0  0  0  0  0
   48.2520   28.9410   46.8760 C   0  0  1  0  0  0  0  0  0  0  0  0
   47.9610   27.4090   46.8120 C   0  0  0  0  0  0  0  0  0  0  0  0
   46.9160   28.4560   46.6670 C   0  0  1  0  0  0  0  0  0  0  0  0
   48.8750   29.3030   46.0420 H   0  0  0  0  0  0  0  0  0  0  0  0
   48.3630   26.8790   45.9060 H   0  0  0  0  0  0  0  0  0  0  0  0
   48.2100   26.8870   47.7320 H   0  0  0  0  0  0  0  0  0  0  0  0
   46.5580   28.5400   45.5900 H   0  0  0  0  0  0  0  0  0  0  0  0
   45.8370   28.4290   47.5760 N   0  0  1  0  0  0  0  0  0  0  0  0
   44.6820   29.1630   47.0300 C   0  0  0  0  0  0  0  0  0  0  0  0
   43.9580   28.1680   46.1580 C   0  0  0  0  0  0  0  0  0  0  0  0
   44.1770   26.8820   46.8850 C   0  0  0  0  0  0  0  0  0  0  0  0
   45.2730   27.1620   47.9050 C   0  0  0  0  0  0  0  0  0  0  0  0
   45.9380   26.3000   47.9000 H   0  0  0  0  0  0  0  0  0  0  0  0
  1  5  1  0  0  0  0
  1  2  2  0  0  0  0
  2  6  1  0  0  0  0
  2  3  1  0  0  0  0
  3  7  1  0  0  0  0
  4 24  1  0  0  0  0
  4  3  2  0  0  0  0
  5  4  1  0  0  0  0
  8  9  1  0  0  0  0
  8 12  2  0  0  0  0
  9 10  2  0  0  0  0
 10 11  1  0  0  0  0
 10 14  1  0  0  0  0
 11  1  1  0  0  0  0
 12 11  1  0  0  0  0
 13  9  1  0  0  0  0
 15 20  1  0  0  0  0
 16 17  1  0  0  0  0
 16 15  2  0  0  0  0
 17 18  2  0  0  0  0
 18 19  1  0  0  0  0
 19  8  1  0  0  0  0
 20 19  2  0  0  0  0
 21 15  1  0  0  0  0
 22 16  1  0  0  0  0
 23 17  1  0  0  0  0
 24 25  1  0  0  0  0
 25 26  2  0  0  0  0
 25 29  1  0  0  0  0
 26 30  1  0  0  0  0
 27 26  1  0  0  0  0
 28 24  1  0  0  0  0
 28 27  2  0  0  0  0
 31 34  1  6  0  0  0
 31 28  1  0  0  0  0
 32 31  1  0  0  0  0
 32 36  1  0  0  0  0
 33 37  1  6  0  0  0
 33 32  1  0  0  0  0
 33 31  1  0  0  0  0
 33 38  1  0  0  0  0
 35 32  1  0  0  0  0
 38 39  1  6  0  0  0
 38 42  1  0  0  0  0
 40 41  1  0  0  0  0
 40 39  1  0  0  0  0
 41 42  1  0  0  0  0
 43 42  1  0  0  0  0
M  END
>  <minimizedAffinity>
-6.33452606

>  <minimizedRMSD>
0.594992518

$$$$
