
 OpenBabel03232520143D

 31 33  0  0  1  0  0  0  0  0999 V2000
   47.5050   34.0270   42.2830 C   0  0  0  0  0  0  0  0  0  0  0  0
   48.3390   35.1460   41.6860 C   0  0  0  0  0  0  0  0  0  0  0  0
   49.6970   35.3410   42.2750 C   0  0  0  0  0  0  0  0  0  0  0  0
   50.4370   34.0530   42.4610 C   0  0  0  0  0  0  0  0  0  0  0  0
   49.6080   32.8200   42.2780 C   0  0  0  0  0  0  0  0  0  0  0  0
   48.3230   33.0480   43.0380 C   0  0  0  0  0  0  0  0  0  0  0  0
   47.7580   36.0870   41.7430 H   0  0  0  0  0  0  0  0  0  0  0  0
   48.5270   34.9780   40.5820 H   0  0  0  0  0  0  0  0  0  0  0  0
   50.2230   36.0470   41.6290 H   0  0  0  0  0  0  0  0  0  0  0  0
   49.5720   35.8510   43.2610 H   0  0  0  0  0  0  0  0  0  0  0  0
   50.9930   34.0640   43.4330 H   0  0  0  0  0  0  0  0  0  0  0  0
   51.2300   34.0230   41.6630 H   0  0  0  0  0  0  0  0  0  0  0  0
   50.1350   31.9730   42.7810 H   0  0  0  0  0  0  0  0  0  0  0  0
   49.4400   32.6320   41.2010 H   0  0  0  0  0  0  0  0  0  0  0  0
   48.6190   33.5220   44.0100 H   0  0  0  0  0  0  0  0  0  0  0  0
   47.7950   32.1400   43.2940 H   0  0  0  0  0  0  0  0  0  0  0  0
   45.1940   34.4430   45.1590 C   0  0  0  0  0  0  0  0  0  0  0  0
   44.5300   35.6590   44.8550 C   0  0  0  0  0  0  0  0  0  0  0  0
   44.9000   36.3250   43.6670 C   0  0  0  0  0  0  0  0  0  0  0  0
   45.8790   35.7550   42.8770 N   0  0  0  0  0  0  0  0  0  0  0  0
   46.4730   34.6080   43.2040 C   0  0  0  0  0  0  0  0  0  0  0  0
   46.1370   33.9470   44.3440 N   0  0  0  0  0  0  0  0  0  0  0  0
   44.8820   33.9680   46.0750 H   0  0  0  0  0  0  0  0  0  0  0  0
   43.7790   36.0870   45.4710 H   0  0  0  0  0  0  0  0  0  0  0  0
   44.4330   37.2490   43.3840 H   0  0  0  0  0  0  0  0  0  0  0  0
   46.7920   33.4800   41.1720 N   0  0  1  0  0  0  0  0  0  0  0  0
   45.3670   33.4390   41.2630 C   0  0  0  0  0  0  0  0  0  0  0  0
   44.9940   32.9690   39.8490 C   0  0  0  0  0  0  0  0  0  0  0  0
   46.2350   33.0650   39.0090 C   0  0  0  0  0  0  0  0  0  0  0  0
   47.0850   34.0030   39.8880 C   0  0  0  0  0  0  0  0  0  0  0  0
   46.6810   35.0090   39.6600 H   0  0  0  0  0  0  0  0  0  0  0  0
  1  6  1  0  0  0  0
  1 21  1  0  0  0  0
  2  7  1  0  0  0  0
  2  3  1  0  0  0  0
  2  1  1  0  0  0  0
  3  4  1  0  0  0  0
  3 10  1  0  0  0  0
  4 11  1  0  0  0  0
  5  4  1  0  0  0  0
  5 13  1  0  0  0  0
  5  6  1  0  0  0  0
  6 16  1  0  0  0  0
  6 15  1  0  0  0  0
  8  2  1  0  0  0  0
  9  3  1  0  0  0  0
 12  4  1  0  0  0  0
 14  5  1  0  0  0  0
 17 23  1  0  0  0  0
 18 17  1  0  0  0  0
 18 24  1  0  0  0  0
 19 18  2  0  0  0  0
 20 21  2  0  0  0  0
 20 19  1  0  0  0  0
 21 22  1  0  0  0  0
 22 17  2  0  0  0  0
 25 19  1  0  0  0  0
 26 27  1  1  0  0  0
 26  1  1  0  0  0  0
 28 27  1  0  0  0  0
 29 28  1  0  0  0  0
 29 30  1  0  0  0  0
 30 26  1  0  0  0  0
 31 30  1  0  0  0  0
M  END
>  <minimizedAffinity>
-5.24529171

>  <minimizedRMSD>
0.281978339

$$$$
