
 OpenBabel03232520433D

 40 42  0  0  0  0  0  0  0  0999 V2000
   45.7770   34.2080   41.3650 C   0  0  0  0  0  0  0  0  0  0  0  0
   47.0740   34.3110   40.9620 C   0  0  0  0  0  0  0  0  0  0  0  0
   47.4840   33.9460   39.6700 C   0  0  0  0  0  0  0  0  0  0  0  0
   46.5380   33.4590   38.7620 C   0  0  0  0  0  0  0  0  0  0  0  0
   45.2430   33.3590   39.1760 C   0  0  0  0  0  0  0  0  0  0  0  0
   44.8660   33.7280   40.4590 C   0  0  0  0  0  0  0  0  0  0  0  0
   47.8460   34.6880   41.6400 H   0  0  0  0  0  0  0  0  0  0  0  0
   48.5370   34.0590   39.4260 H   0  0  0  0  0  0  0  0  0  0  0  0
   46.8580   33.1780   37.7660 H   0  0  0  0  0  0  0  0  0  0  0  0
   44.5380   32.9770   38.4400 H   0  0  0  0  0  0  0  0  0  0  0  0
   44.6590   36.1140   44.4060 C   0  0  0  0  0  0  0  0  0  0  0  0
   44.9380   35.8540   43.0600 C   0  0  0  0  0  0  0  0  0  0  0  0
   45.4460   34.6080   42.7170 C   0  0  0  0  0  0  0  0  0  0  0  0
   45.6430   33.7200   43.6970 N   0  0  0  0  0  0  0  0  0  0  0  0
   45.3620   34.0030   44.9990 C   0  0  0  0  0  0  0  0  0  0  0  0
   44.8720   35.2000   45.3380 N   0  0  0  0  0  0  0  0  0  0  0  0
   44.2640   37.0810   44.6770 H   0  0  0  0  0  0  0  0  0  0  0  0
   44.7760   36.5770   42.2740 H   0  0  0  0  0  0  0  0  0  0  0  0
   45.5890   33.0220   46.0070 N   0  0  0  0  0  0  0  0  0  0  0  0
   45.3140   33.2700   47.3570 C   0  0  0  0  0  0  0  0  0  0  0  0
   44.3460   34.0830   47.6470 N   0  0  0  0  0  0  0  0  0  0  0  0
   46.0850   32.6400   48.3810 N   0  0  0  0  0  0  0  0  0  0  0  0
   45.9780   32.0760   45.7210 H   0  0  0  0  0  0  0  0  0  0  0  0
   44.0770   34.3210   48.6480 H   0  0  0  0  0  0  0  0  0  0  0  0
   45.7880   32.3940   49.3470 H   0  0  0  0  0  0  0  0  0  0  0  0
   47.0790   32.3570   48.2270 H   0  0  0  0  0  0  0  0  0  0  0  0
   43.5050   33.6060   40.8390 N   0  0  0  0  0  0  0  0  0  0  0  0
   42.7960   34.7040   40.4220 C   0  0  0  0  0  0  0  0  0  0  0  0
   41.4200   34.7980   40.6910 C   0  0  0  0  0  0  0  0  0  0  0  0
   40.8280   33.7500   41.3840 C   0  0  0  0  0  0  0  0  0  0  0  0
   39.6000   33.7840   41.6510 O   0  0  0  0  0  0  0  0  0  0  0  0
   41.5710   32.7070   41.7640 N   0  0  0  0  0  0  0  0  0  0  0  0
   42.8860   32.6230   41.5030 C   0  0  0  0  0  0  0  0  0  0  0  0
   43.6510   31.6900   41.8200 O   0  0  0  0  0  0  0  0  0  0  0  0
   43.1720   35.5420   39.8910 H   0  0  0  0  0  0  0  0  0  0  0  0
   41.1690   31.8960   42.2870 H   0  0  0  0  0  0  0  0  0  0  0  0
   40.6090   35.9690   40.2590 C   0  0  0  0  0  0  0  0  0  0  0  0
   41.2110   36.8670   40.1090 H   0  0  0  0  0  0  0  0  0  0  0  0
   40.0200   35.6780   39.3600 H   0  0  0  0  0  0  0  0  0  0  0  0
   39.8470   36.2180   41.0540 H   0  0  0  0  0  0  0  0  0  0  0  0
  1 13  1  0  0  0  0
  2  1  1  0  0  0  0
  2  7  1  0  0  0  0
  3  2  2  0  0  0  0
  4  5  2  0  0  0  0
  4  3  1  0  0  0  0
  5  6  1  0  0  0  0
  6 27  1  0  0  0  0
  6  1  2  0  0  0  0
  8  3  1  0  0  0  0
  9  4  1  0  0  0  0
 10  5  1  0  0  0  0
 11 17  1  0  0  0  0
 11 16  1  0  0  0  0
 12 11  2  0  0  0  0
 13 12  1  0  0  0  0
 13 14  2  0  0  0  0
 14 15  1  0  0  0  0
 15 16  2  0  0  0  0
 15 19  1  0  0  0  0
 18 12  1  0  0  0  0
 19 20  1  0  0  0  0
 20 21  2  0  0  0  0
 20 22  1  0  0  0  0
 21 24  1  0  0  0  0
 22 25  1  0  0  0  0
 23 19  1  0  0  0  0
 26 22  1  0  0  0  0
 27 33  1  0  0  0  0
 28 29  2  0  0  0  0
 28 27  1  0  0  0  0
 29 30  1  0  0  0  0
 30 31  2  0  0  0  0
 30 32  1  0  0  0  0
 32 36  1  0  0  0  0
 33 32  1  0  0  0  0
 33 34  2  0  0  0  0
 35 28  1  0  0  0  0
 37 29  1  0  0  0  0
 37 40  1  0  0  0  0
 38 37  1  0  0  0  0
 39 37  1  0  0  0  0
M  END
>  <minimizedAffinity>
-7.9946909

>  <minimizedRMSD>
1.04518855

$$$$
