
 OpenBabel03232520593D

 40 43  0  0  1  0  0  0  0  0999 V2000
   45.3750   32.8490   47.4860 C   0  0  0  0  0  0  0  0  0  0  0  0
   45.9290   32.6060   46.2700 C   0  0  0  0  0  0  0  0  0  0  0  0
   46.1970   31.2580   46.0120 C   0  0  0  0  0  0  0  0  0  0  0  0
   45.9330   30.2570   46.8890 N   0  0  0  0  0  0  0  0  0  0  0  0
   45.3680   30.5550   48.1170 C   0  0  0  0  0  0  0  0  0  0  0  0
   45.1040   31.8350   48.3830 N   0  0  0  0  0  0  0  0  0  0  0  0
   45.0920   29.5340   49.0580 N   0  0  0  0  0  0  0  0  0  0  0  0
   45.1320   33.8550   47.7880 H   0  0  0  0  0  0  0  0  0  0  0  0
   44.1340   29.2730   49.3270 H   0  0  0  0  0  0  0  0  0  0  0  0
   45.8440   28.9820   49.5390 H   0  0  0  0  0  0  0  0  0  0  0  0
   46.1710   33.5690   45.2500 C   0  0  2  0  0  0  0  0  0  0  0  0
   44.9620   34.6620   45.5010 C   0  0  0  0  0  0  0  0  0  0  0  0
   44.7320   35.6040   44.4420 C   0  0  0  0  0  0  0  0  0  0  0  0
   45.5290   35.5470   43.2140 C   0  0  1  0  0  0  0  0  0  0  0  0
   46.5850   34.5430   43.1520 C   0  0  0  0  0  0  0  0  0  0  0  0
   46.1320   33.3000   43.8840 C   0  0  0  0  0  0  0  0  0  0  0  0
   46.9670   34.2980   45.5930 H   0  0  0  0  0  0  0  0  0  0  0  0
   44.2910   34.7990   46.3400 H   0  0  0  0  0  0  0  0  0  0  0  0
   43.9680   36.3220   44.5620 H   0  0  0  0  0  0  0  0  0  0  0  0
   45.9610   36.5520   43.0290 H   0  0  0  0  0  0  0  0  0  0  0  0
   47.4930   34.9340   43.6960 H   0  0  0  0  0  0  0  0  0  0  0  0
   46.8540   34.3620   42.0890 H   0  0  0  0  0  0  0  0  0  0  0  0
   46.9790   32.6500   43.5390 H   0  0  0  0  0  0  0  0  0  0  0  0
   45.1720   32.9820   43.4270 H   0  0  0  0  0  0  0  0  0  0  0  0
   44.5100   35.3010   42.0620 C   0  0  0  0  0  0  0  0  0  0  0  0
   43.4390   34.5170   42.4570 F   0  0  0  0  0  0  0  0  0  0  0  0
   43.9880   36.5480   41.7320 F   0  0  0  0  0  0  0  0  0  0  0  0
   45.1780   34.8340   40.9460 F   0  0  0  0  0  0  0  0  0  0  0  0
   46.8400   30.5790   44.9020 C   0  0  0  0  0  0  0  0  0  0  0  0
   46.5070   29.8060   43.8360 C   0  0  0  0  0  0  0  0  0  0  0  0
   47.6820   29.4460   43.1660 C   0  0  0  0  0  0  0  0  0  0  0  0
   48.6670   30.0180   43.8580 N   0  0  0  0  0  0  0  0  0  0  0  0
   48.1990   30.6890   44.8820 N   0  0  0  0  0  0  0  0  0  0  0  0
   45.4520   29.6050   43.6850 H   0  0  0  0  0  0  0  0  0  0  0  0
   47.6380   28.8270   42.2820 H   0  0  0  0  0  0  0  0  0  0  0  0
   50.0660   29.8670   43.4580 C   0  0  0  0  0  0  0  0  0  0  0  0
   51.1860   29.5870   44.0740 C   0  0  0  0  0  3  0  0  0  0  0  0
   52.3590   29.5240   43.3740 C   0  0  0  0  0  3  0  0  0  0  0  0
   52.2800   29.7690   42.0130 C   0  0  0  0  0  3  0  0  0  0  0  0
   50.4240   30.0980   41.7820 S   0  0  0  0  0  0  0  0  0  0  0  0
  1  8  1  0  0  0  0
  1  6  1  0  0  0  0
  2  1  2  0  0  0  0
  3  2  1  0  0  0  0
  3  4  2  0  0  0  0
  4  5  1  0  0  0  0
  5  6  2  0  0  0  0
  5  7  1  0  0  0  0
  7  9  1  0  0  0  0
  7 10  1  0  0  0  0
 11 12  1  0  0  0  0
 11 17  1  1  0  0  0
 11  2  1  0  0  0  0
 12 18  1  0  0  0  0
 13 19  1  0  0  0  0
 13 12  2  0  0  0  0
 14 20  1  6  0  0  0
 14 13  1  0  0  0  0
 15 14  1  0  0  0  0
 15 21  1  0  0  0  0
 15 16  1  0  0  0  0
 16 11  1  0  0  0  0
 22 15  1  0  0  0  0
 23 16  1  0  0  0  0
 24 16  1  0  0  0  0
 25 26  1  0  0  0  0
 25 14  1  0  0  0  0
 27 25  1  0  0  0  0
 28 25  1  0  0  0  0
 29  3  1  0  0  0  0
 30 29  1  0  0  0  0
 31 30  2  0  0  0  0
 31 32  1  0  0  0  0
 32 33  1  0  0  0  0
 33 29  2  0  0  0  0
 34 30  1  0  0  0  0
 35 31  1  0  0  0  0
 36 32  1  0  0  0  0
 36 37  2  0  0  0  0
 38 37  1  0  0  0  0
 39 38  2  0  0  0  0
 40 39  1  0  0  0  0
 40 36  1  0  0  0  0
M  END
>  <minimizedAffinity>
-5.74273682

>  <minimizedRMSD>
0.198396251

$$$$
