
 OpenBabel03232520553D

 36 37  0  0  1  0  0  0  0  0999 V2000
   46.0790   33.6450   45.3510 C   0  0  2  0  0  0  0  0  0  0  0  0
   44.9140   34.6910   45.4920 C   0  0  0  0  0  0  0  0  0  0  0  0
   44.7180   35.5850   44.3850 C   0  0  0  0  0  0  0  0  0  0  0  0
   45.5470   35.5070   43.1880 C   0  0  1  0  0  0  0  0  0  0  0  0
   46.6520   34.5560   43.2180 C   0  0  0  0  0  0  0  0  0  0  0  0
   46.2870   33.3170   43.9790 C   0  0  0  0  0  0  0  0  0  0  0  0
   46.8720   34.3620   45.7680 H   0  0  0  0  0  0  0  0  0  0  0  0
   44.2240   34.8410   46.3160 H   0  0  0  0  0  0  0  0  0  0  0  0
   43.9350   36.2990   44.4620 H   0  0  0  0  0  0  0  0  0  0  0  0
   45.9430   36.5240   42.9570 H   0  0  0  0  0  0  0  0  0  0  0  0
   46.9920   34.3300   42.1820 H   0  0  0  0  0  0  0  0  0  0  0  0
   47.5390   35.0460   43.7110 H   0  0  0  0  0  0  0  0  0  0  0  0
   47.2150   32.7140   43.7600 H   0  0  0  0  0  0  0  0  0  0  0  0
   45.4540   32.8200   43.4650 H   0  0  0  0  0  0  0  0  0  0  0  0
   45.5940   32.9800   47.6330 C   0  0  0  0  0  0  0  0  0  0  0  0
   45.8840   32.6300   46.3400 C   0  0  0  0  0  0  0  0  0  0  0  0
   45.9370   31.2550   46.0570 C   0  0  0  0  0  0  0  0  0  0  0  0
   45.7130   30.3750   47.0360 N   0  0  0  0  0  0  0  0  0  0  0  0
   45.4320   30.7240   48.2980 C   0  0  0  0  0  0  0  0  0  0  0  0
   45.3730   32.0130   48.5850 N   0  0  0  0  0  0  0  0  0  0  0  0
   45.2190   29.7030   49.2710 N   0  0  0  0  0  0  0  0  0  0  0  0
   45.5270   34.0020   47.9570 H   0  0  0  0  0  0  0  0  0  0  0  0
   45.3650   29.9980   50.2830 H   0  0  0  0  0  0  0  0  0  0  0  0
   44.9390   28.7360   48.9830 H   0  0  0  0  0  0  0  0  0  0  0  0
   46.1180   30.6700   44.7820 N   0  0  0  0  0  0  0  0  0  0  0  0
   45.0460   30.0200   44.1140 C   0  0  0  0  0  0  0  0  0  0  0  0
   44.1160   29.3650   44.7280 N   0  0  0  0  0  0  0  0  0  0  0  0
   44.7500   29.9360   42.7120 N   0  0  0  0  0  0  0  0  0  0  0  0
   46.7600   30.4900   43.9920 H   0  0  0  0  0  0  0  0  0  0  0  0
   43.9830   29.2000   45.7140 H   0  0  0  0  0  0  0  0  0  0  0  0
   45.0880   29.4030   41.8680 H   0  0  0  0  0  0  0  0  0  0  0  0
   44.0030   30.5060   42.2170 H   0  0  0  0  0  0  0  0  0  0  0  0
   44.6120   35.1740   42.0030 C   0  0  0  0  0  0  0  0  0  0  0  0
   43.6270   34.2760   42.3350 F   0  0  0  0  0  0  0  0  0  0  0  0
   43.9500   36.3600   41.6700 F   0  0  0  0  0  0  0  0  0  0  0  0
   45.3500   34.7910   40.9060 F   0  0  0  0  0  0  0  0  0  0  0  0
  1  2  1  0  0  0  0
  1  7  1  1  0  0  0
  1 16  1  0  0  0  0
  2  8  1  0  0  0  0
  3  9  1  0  0  0  0
  3  2  2  0  0  0  0
  4 10  1  6  0  0  0
  4  5  1  0  0  0  0
  4  3  1  0  0  0  0
  5 12  1  0  0  0  0
  5  6  1  0  0  0  0
  6  1  1  0  0  0  0
 11  5  1  0  0  0  0
 13  6  1  0  0  0  0
 14  6  1  0  0  0  0
 15 22  1  0  0  0  0
 15 20  1  0  0  0  0
 16 15  2  0  0  0  0
 17 16  1  0  0  0  0
 17 18  2  0  0  0  0
 18 19  1  0  0  0  0
 19 20  2  0  0  0  0
 19 21  1  0  0  0  0
 21 23  1  0  0  0  0
 24 21  1  0  0  0  0
 25 17  1  0  0  0  0
 26 27  2  0  0  0  0
 26 25  1  0  0  0  0
 27 30  1  0  0  0  0
 28 26  1  0  0  0  0
 29 25  1  0  0  0  0
 31 28  1  0  0  0  0
 32 28  1  0  0  0  0
 33 34  1  0  0  0  0
 33  4  1  0  0  0  0
 35 33  1  0  0  0  0
 36 33  1  0  0  0  0
M  END
>  <minimizedAffinity>
-5.67739534

>  <minimizedRMSD>
0.605694711

$$$$
