
 OpenBabel03232520593D

 40 43  0  0  1  0  0  0  0  0999 V2000
   45.3540   32.8920   47.5080 C   0  0  0  0  0  0  0  0  0  0  0  0
   45.9170   32.6340   46.2990 C   0  0  0  0  0  0  0  0  0  0  0  0
   46.1910   31.2840   46.0610 C   0  0  0  0  0  0  0  0  0  0  0  0
   45.9250   30.2940   46.9500 N   0  0  0  0  0  0  0  0  0  0  0  0
   45.3500   30.6060   48.1700 C   0  0  0  0  0  0  0  0  0  0  0  0
   45.0810   31.8890   48.4170 N   0  0  0  0  0  0  0  0  0  0  0  0
   45.0720   29.5970   49.1220 N   0  0  0  0  0  0  0  0  0  0  0  0
   45.1060   33.9010   47.7950 H   0  0  0  0  0  0  0  0  0  0  0  0
   44.1130   29.3370   49.3880 H   0  0  0  0  0  0  0  0  0  0  0  0
   45.8220   29.0550   49.6160 H   0  0  0  0  0  0  0  0  0  0  0  0
   46.1630   33.5850   45.2680 C   0  0  2  0  0  0  0  0  0  0  0  0
   44.9550   34.6830   45.5030 C   0  0  0  0  0  0  0  0  0  0  0  0
   44.7290   35.6120   44.4330 C   0  0  0  0  0  0  0  0  0  0  0  0
   45.5270   35.5390   43.2070 C   0  0  1  0  0  0  0  0  0  0  0  0
   46.5820   34.5320   43.1590 C   0  0  0  0  0  0  0  0  0  0  0  0
   46.1250   33.3000   43.9050 C   0  0  0  0  0  0  0  0  0  0  0  0
   46.9590   34.3160   45.6030 H   0  0  0  0  0  0  0  0  0  0  0  0
   44.2830   34.8310   46.3400 H   0  0  0  0  0  0  0  0  0  0  0  0
   43.9670   36.3340   44.5430 H   0  0  0  0  0  0  0  0  0  0  0  0
   45.9620   36.5410   43.0110 H   0  0  0  0  0  0  0  0  0  0  0  0
   47.4900   34.9280   43.6990 H   0  0  0  0  0  0  0  0  0  0  0  0
   46.8520   34.3380   42.0980 H   0  0  0  0  0  0  0  0  0  0  0  0
   46.9710   32.6430   43.5700 H   0  0  0  0  0  0  0  0  0  0  0  0
   45.1650   32.9780   43.4510 H   0  0  0  0  0  0  0  0  0  0  0  0
   44.5100   35.2810   42.0570 C   0  0  0  0  0  0  0  0  0  0  0  0
   43.4480   34.4860   42.4540 F   0  0  0  0  0  0  0  0  0  0  0  0
   43.9740   36.5220   41.7260 F   0  0  0  0  0  0  0  0  0  0  0  0
   45.1810   34.8210   40.9400 F   0  0  0  0  0  0  0  0  0  0  0  0
   46.8440   30.5930   44.9640 C   0  0  0  0  0  0  0  0  0  0  0  0
   46.5180   29.8140   43.9000 C   0  0  0  0  0  0  0  0  0  0  0  0
   47.7000   29.4410   43.2470 C   0  0  0  0  0  0  0  0  0  0  0  0
   48.6800   30.0110   43.9480 N   0  0  0  0  0  0  0  0  0  0  0  0
   48.2040   30.6930   44.9610 N   0  0  0  0  0  0  0  0  0  0  0  0
   45.4650   29.6190   43.7360 H   0  0  0  0  0  0  0  0  0  0  0  0
   47.6630   28.8150   42.3680 H   0  0  0  0  0  0  0  0  0  0  0  0
   50.0830   29.8480   43.5670 C   0  0  0  0  0  0  0  0  0  0  0  0
   51.1690   29.4320   44.1670 C   0  0  0  0  0  3  0  0  0  0  0  0
   52.3600   29.4080   43.4950 C   0  0  0  0  0  3  0  0  0  0  0  0
   52.3350   29.8400   42.1790 C   0  0  0  0  0  3  0  0  0  0  0  0
   50.5040   30.2880   41.9490 S   0  0  0  0  0  0  0  0  0  0  0  0
  1  8  1  0  0  0  0
  1  6  1  0  0  0  0
  2  1  2  0  0  0  0
  3  2  1  0  0  0  0
  3  4  2  0  0  0  0
  4  5  1  0  0  0  0
  5  6  2  0  0  0  0
  5  7  1  0  0  0  0
  7  9  1  0  0  0  0
  7 10  1  0  0  0  0
 11 12  1  0  0  0  0
 11 17  1  1  0  0  0
 11  2  1  0  0  0  0
 12 18  1  0  0  0  0
 13 19  1  0  0  0  0
 13 12  2  0  0  0  0
 14 20  1  6  0  0  0
 14 13  1  0  0  0  0
 15 14  1  0  0  0  0
 15 21  1  0  0  0  0
 15 16  1  0  0  0  0
 16 11  1  0  0  0  0
 22 15  1  0  0  0  0
 23 16  1  0  0  0  0
 24 16  1  0  0  0  0
 25 26  1  0  0  0  0
 25 14  1  0  0  0  0
 27 25  1  0  0  0  0
 28 25  1  0  0  0  0
 29  3  1  0  0  0  0
 30 29  1  0  0  0  0
 31 30  2  0  0  0  0
 31 32  1  0  0  0  0
 32 33  1  0  0  0  0
 33 29  2  0  0  0  0
 34 30  1  0  0  0  0
 35 31  1  0  0  0  0
 36 32  1  0  0  0  0
 36 37  2  0  0  0  0
 38 37  1  0  0  0  0
 39 38  2  0  0  0  0
 40 39  1  0  0  0  0
 40 36  1  0  0  0  0
M  END
>  <minimizedAffinity>
-5.74426031

>  <minimizedRMSD>
0.190711632

$$$$
