
 OpenBabel03232520593D

 40 43  0  0  1  0  0  0  0  0999 V2000
   45.3520   32.9060   47.5110 C   0  0  0  0  0  0  0  0  0  0  0  0
   45.9130   32.6470   46.3010 C   0  0  0  0  0  0  0  0  0  0  0  0
   46.1870   31.2960   46.0640 C   0  0  0  0  0  0  0  0  0  0  0  0
   45.9220   30.3080   46.9550 N   0  0  0  0  0  0  0  0  0  0  0  0
   45.3490   30.6210   48.1750 C   0  0  0  0  0  0  0  0  0  0  0  0
   45.0800   31.9040   48.4210 N   0  0  0  0  0  0  0  0  0  0  0  0
   45.0730   29.6130   49.1290 N   0  0  0  0  0  0  0  0  0  0  0  0
   45.1040   33.9160   47.7970 H   0  0  0  0  0  0  0  0  0  0  0  0
   44.1130   29.3530   49.3970 H   0  0  0  0  0  0  0  0  0  0  0  0
   45.8230   29.0720   49.6220 H   0  0  0  0  0  0  0  0  0  0  0  0
   46.1570   33.5960   45.2690 C   0  0  2  0  0  0  0  0  0  0  0  0
   44.9480   34.6930   45.5020 C   0  0  0  0  0  0  0  0  0  0  0  0
   44.7210   35.6200   44.4300 C   0  0  0  0  0  0  0  0  0  0  0  0
   45.5190   35.5460   43.2040 C   0  0  1  0  0  0  0  0  0  0  0  0
   46.5760   34.5410   43.1580 C   0  0  0  0  0  0  0  0  0  0  0  0
   46.1210   33.3090   43.9060 C   0  0  0  0  0  0  0  0  0  0  0  0
   46.9530   34.3290   45.6030 H   0  0  0  0  0  0  0  0  0  0  0  0
   44.2750   34.8410   46.3380 H   0  0  0  0  0  0  0  0  0  0  0  0
   43.9570   36.3410   44.5380 H   0  0  0  0  0  0  0  0  0  0  0  0
   45.9520   36.5490   43.0070 H   0  0  0  0  0  0  0  0  0  0  0  0
   47.4830   34.9400   43.6980 H   0  0  0  0  0  0  0  0  0  0  0  0
   46.8470   34.3460   42.0980 H   0  0  0  0  0  0  0  0  0  0  0  0
   46.9680   32.6530   43.5720 H   0  0  0  0  0  0  0  0  0  0  0  0
   45.1620   32.9850   43.4520 H   0  0  0  0  0  0  0  0  0  0  0  0
   44.5030   35.2840   42.0540 C   0  0  0  0  0  0  0  0  0  0  0  0
   43.4410   34.4890   42.4530 F   0  0  0  0  0  0  0  0  0  0  0  0
   43.9660   36.5240   41.7200 F   0  0  0  0  0  0  0  0  0  0  0  0
   45.1750   34.8220   40.9390 F   0  0  0  0  0  0  0  0  0  0  0  0
   46.8390   30.6040   44.9680 C   0  0  0  0  0  0  0  0  0  0  0  0
   46.5130   29.8210   43.9070 C   0  0  0  0  0  0  0  0  0  0  0  0
   47.6940   29.4490   43.2520 C   0  0  0  0  0  0  0  0  0  0  0  0
   48.6740   30.0250   43.9480 N   0  0  0  0  0  0  0  0  0  0  0  0
   48.1990   30.7080   44.9610 N   0  0  0  0  0  0  0  0  0  0  0  0
   45.4590   29.6220   43.7470 H   0  0  0  0  0  0  0  0  0  0  0  0
   47.6560   28.8210   42.3750 H   0  0  0  0  0  0  0  0  0  0  0  0
   50.0760   29.8650   43.5630 C   0  0  0  0  0  0  0  0  0  0  0  0
   51.1510   29.3870   44.1360 C   0  0  0  0  0  3  0  0  0  0  0  0
   52.3460   29.3900   43.4700 C   0  0  0  0  0  3  0  0  0  0  0  0
   52.3360   29.9180   42.1880 C   0  0  0  0  0  3  0  0  0  0  0  0
   50.5140   30.4130   41.9840 S   0  0  0  0  0  0  0  0  0  0  0  0
  1  8  1  0  0  0  0
  1  6  1  0  0  0  0
  2  1  2  0  0  0  0
  3  2  1  0  0  0  0
  3  4  2  0  0  0  0
  4  5  1  0  0  0  0
  5  6  2  0  0  0  0
  5  7  1  0  0  0  0
  7  9  1  0  0  0  0
  7 10  1  0  0  0  0
 11 12  1  0  0  0  0
 11 17  1  1  0  0  0
 11  2  1  0  0  0  0
 12 18  1  0  0  0  0
 13 19  1  0  0  0  0
 13 12  2  0  0  0  0
 14 20  1  6  0  0  0
 14 13  1  0  0  0  0
 15 14  1  0  0  0  0
 15 21  1  0  0  0  0
 15 16  1  0  0  0  0
 16 11  1  0  0  0  0
 22 15  1  0  0  0  0
 23 16  1  0  0  0  0
 24 16  1  0  0  0  0
 25 26  1  0  0  0  0
 25 14  1  0  0  0  0
 27 25  1  0  0  0  0
 28 25  1  0  0  0  0
 29  3  1  0  0  0  0
 30 29  1  0  0  0  0
 31 30  2  0  0  0  0
 31 32  1  0  0  0  0
 32 33  1  0  0  0  0
 33 29  2  0  0  0  0
 34 30  1  0  0  0  0
 35 31  1  0  0  0  0
 36 32  1  0  0  0  0
 36 37  2  0  0  0  0
 38 37  1  0  0  0  0
 39 38  2  0  0  0  0
 40 39  1  0  0  0  0
 40 36  1  0  0  0  0
M  END
>  <minimizedAffinity>
-5.74949932

>  <minimizedRMSD>
0.502729595

$$$$
