
 OpenBabel03232519473D

 42 44  0  0  1  0  0  0  0  0999 V2000
   46.4890   34.1230   42.4580 N   0  0  0  0  0  0  0  0  0  0  0  0
   47.8600   34.3600   42.0090 C   0  0  0  0  0  0  0  0  0  0  0  0
   47.6440   34.4060   40.5130 C   0  0  0  0  0  0  0  0  0  0  0  0
   46.8390   33.1410   40.3240 C   0  0  0  0  0  0  0  0  0  0  0  0
   45.9220   33.1600   41.5020 C   0  0  2  0  0  0  0  0  0  0  0  0
   48.1980   35.3250   42.4090 H   0  0  0  0  0  0  0  0  0  0  0  0
   48.4990   33.5070   42.2670 H   0  0  0  0  0  0  0  0  0  0  0  0
   48.6280   34.3230   40.0290 H   0  0  0  0  0  0  0  0  0  0  0  0
   47.0790   35.2970   40.2270 H   0  0  0  0  0  0  0  0  0  0  0  0
   46.2430   33.2980   39.3910 H   0  0  0  0  0  0  0  0  0  0  0  0
   47.5000   32.2750   40.2430 H   0  0  0  0  0  0  0  0  0  0  0  0
   46.0920   32.1750   42.0080 H   0  0  0  0  0  0  0  0  0  0  0  0
   44.5460   36.3910   44.6510 C   0  0  0  0  0  0  0  0  0  0  0  0
   45.2110   35.9240   43.5170 C   0  0  0  0  0  0  0  0  0  0  0  0
   45.8090   34.6620   43.5440 C   0  0  0  0  0  0  0  0  0  0  0  0
   45.6950   33.9610   44.7060 N   0  0  0  0  0  0  0  0  0  0  0  0
   45.0480   34.4220   45.8010 C   0  0  0  0  0  0  0  0  0  0  0  0
   44.4790   35.6400   45.7570 N   0  0  0  0  0  0  0  0  0  0  0  0
   44.0720   37.3720   44.6550 H   0  0  0  0  0  0  0  0  0  0  0  0
   45.2770   36.5110   42.6170 H   0  0  0  0  0  0  0  0  0  0  0  0
   44.9630   33.6460   46.9880 N   0  0  0  0  0  0  0  0  0  0  0  0
   45.9980   32.7290   47.3190 C   0  0  0  0  0  0  0  0  0  0  0  0
   47.1930   32.9630   46.8830 N   0  0  0  0  0  0  0  0  0  0  0  0
   45.7470   31.5640   48.1180 N   0  0  0  0  0  0  0  0  0  0  0  0
   44.1500   33.7310   47.6300 H   0  0  0  0  0  0  0  0  0  0  0  0
   48.0220   32.3690   47.0600 H   0  0  0  0  0  0  0  0  0  0  0  0
   45.6650   31.9190   49.0770 H   0  0  0  0  0  0  0  0  0  0  0  0
   45.6500   30.5410   47.8900 H   0  0  0  0  0  0  0  0  0  0  0  0
   44.5430   33.3500   41.2310 N   0  0  0  0  0  0  0  0  0  0  0  0
   43.9950   34.2140   40.3780 C   0  0  0  0  0  0  0  0  0  0  0  0
   42.6260   34.3180   40.1900 C   0  0  0  0  0  0  0  0  0  0  0  0
   41.7670   33.4980   40.9090 C   0  0  0  0  0  0  0  0  0  0  0  0
   40.4990   33.5480   40.7780 O   0  0  0  0  0  0  0  0  0  0  0  0
   42.3300   32.6280   41.7680 N   0  0  0  0  0  0  0  0  0  0  0  0
   43.6490   32.5750   41.9050 C   0  0  0  0  0  0  0  0  0  0  0  0
   44.0740   31.7170   42.7440 O   0  0  0  0  0  0  0  0  0  0  0  0
   44.6800   34.8510   39.8210 H   0  0  0  0  0  0  0  0  0  0  0  0
   41.6880   32.0160   42.3030 H   0  0  0  0  0  0  0  0  0  0  0  0
   42.0410   35.2860   39.2360 C   0  0  0  0  0  0  0  0  0  0  0  0
   42.1700   34.8940   38.2140 H   0  0  0  0  0  0  0  0  0  0  0  0
   40.9730   35.4540   39.4730 H   0  0  0  0  0  0  0  0  0  0  0  0
   42.6180   36.2370   39.3440 H   0  0  0  0  0  0  0  0  0  0  0  0
  1 15  1  0  0  0  0
  2  7  1  0  0  0  0
  2  6  1  0  0  0  0
  2  1  1  0  0  0  0
  3  2  1  0  0  0  0
  4  3  1  0  0  0  0
  4  5  1  0  0  0  0
  5 12  1  1  0  0  0
  5  1  1  0  0  0  0
  8  3  1  0  0  0  0
  9  3  1  0  0  0  0
 10  4  1  0  0  0  0
 11  4  1  0  0  0  0
 13 19  1  0  0  0  0
 13 18  1  0  0  0  0
 14 15  1  0  0  0  0
 14 13  2  0  0  0  0
 15 16  2  0  0  0  0
 16 17  1  0  0  0  0
 17 21  1  0  0  0  0
 18 17  2  0  0  0  0
 20 14  1  0  0  0  0
 21 22  1  0  0  0  0
 21 25  1  0  0  0  0
 22 24  1  0  0  0  0
 23 26  1  0  0  0  0
 23 22  2  0  0  0  0
 24 27  1  0  0  0  0
 28 24  1  0  0  0  0
 29  5  1  0  0  0  0
 29 35  1  0  0  0  0
 30 29  1  0  0  0  0
 31 30  2  0  0  0  0
 31 32  1  0  0  0  0
 32 34  1  0  0  0  0
 33 32  2  0  0  0  0
 34 35  1  0  0  0  0
 34 38  1  0  0  0  0
 35 36  2  0  0  0  0
 37 30  1  0  0  0  0
 39 42  1  0  0  0  0
 39 41  1  0  0  0  0
 39 31  1  0  0  0  0
 40 39  1  0  0  0  0
M  END
>  <minimizedAffinity>
-7.1009407

>  <minimizedRMSD>
0.316277921

$$$$
