
 OpenBabel03232520593D

 40 43  0  0  1  0  0  0  0  0999 V2000
   45.6430   32.8330   47.4210 C   0  0  0  0  0  0  0  0  0  0  0  0
   45.9930   32.5620   46.1370 C   0  0  0  0  0  0  0  0  0  0  0  0
   46.0540   31.2000   45.8250 C   0  0  0  0  0  0  0  0  0  0  0  0
   45.7870   30.2120   46.7170 N   0  0  0  0  0  0  0  0  0  0  0  0
   45.4340   30.5380   48.0150 C   0  0  0  0  0  0  0  0  0  0  0  0
   45.3720   31.8320   48.3330 N   0  0  0  0  0  0  0  0  0  0  0  0
   45.1620   29.5300   48.9700 N   0  0  0  0  0  0  0  0  0  0  0  0
   45.5710   33.8520   47.7680 H   0  0  0  0  0  0  0  0  0  0  0  0
   44.2230   29.3800   49.3640 H   0  0  0  0  0  0  0  0  0  0  0  0
   45.8960   28.8760   49.3350 H   0  0  0  0  0  0  0  0  0  0  0  0
   46.2150   33.5200   45.1070 C   0  0  2  0  0  0  0  0  0  0  0  0
   45.0180   34.6190   45.3830 C   0  0  0  0  0  0  0  0  0  0  0  0
   44.7670   35.5580   44.3260 C   0  0  0  0  0  0  0  0  0  0  0  0
   45.5320   35.4920   43.0790 C   0  0  1  0  0  0  0  0  0  0  0  0
   46.5820   34.4820   42.9950 C   0  0  0  0  0  0  0  0  0  0  0  0
   46.1410   33.2450   43.7440 C   0  0  0  0  0  0  0  0  0  0  0  0
   47.0230   34.2450   45.4270 H   0  0  0  0  0  0  0  0  0  0  0  0
   44.3690   34.7630   46.2380 H   0  0  0  0  0  0  0  0  0  0  0  0
   44.0100   36.2810   44.4610 H   0  0  0  0  0  0  0  0  0  0  0  0
   45.9650   36.4940   42.8790 H   0  0  0  0  0  0  0  0  0  0  0  0
   47.5050   34.8710   43.5140 H   0  0  0  0  0  0  0  0  0  0  0  0
   46.8230   34.2950   41.9260 H   0  0  0  0  0  0  0  0  0  0  0  0
   46.9750   32.5880   43.3810 H   0  0  0  0  0  0  0  0  0  0  0  0
   45.1680   32.9300   43.3120 H   0  0  0  0  0  0  0  0  0  0  0  0
   44.4840   35.2460   41.9540 C   0  0  0  0  0  0  0  0  0  0  0  0
   43.4400   34.4350   42.3670 F   0  0  0  0  0  0  0  0  0  0  0  0
   43.9300   36.4880   41.6610 F   0  0  0  0  0  0  0  0  0  0  0  0
   45.1260   34.8110   40.8110 F   0  0  0  0  0  0  0  0  0  0  0  0
   46.4510   30.4830   44.6280 C   0  0  0  0  0  0  0  0  0  0  0  0
   45.8810   29.8820   43.5520 C   0  0  0  0  0  0  0  0  0  0  0  0
   46.8980   29.3260   42.7650 C   0  0  0  0  0  0  0  0  0  0  0  0
   48.0300   29.6170   43.4040 N   0  0  0  0  0  0  0  0  0  0  0  0
   47.7960   30.2950   44.5010 N   0  0  0  0  0  0  0  0  0  0  0  0
   44.8010   29.9280   43.4770 H   0  0  0  0  0  0  0  0  0  0  0  0
   46.6560   28.7990   41.8540 H   0  0  0  0  0  0  0  0  0  0  0  0
   49.3300   29.1950   42.8800 C   0  0  0  0  0  0  0  0  0  0  0  0
   49.7410   28.3080   42.0110 C   0  0  0  0  0  3  0  0  0  0  0  0
   51.0760   28.1700   41.7480 C   0  0  0  0  0  3  0  0  0  0  0  0
   51.9320   29.0070   42.4460 C   0  0  0  0  0  3  0  0  0  0  0  0
   50.7190   30.0120   43.5060 S   0  0  0  0  0  0  0  0  0  0  0  0
  1  8  1  0  0  0  0
  1  6  1  0  0  0  0
  2  1  2  0  0  0  0
  3  2  1  0  0  0  0
  3  4  2  0  0  0  0
  4  5  1  0  0  0  0
  5  6  2  0  0  0  0
  5  7  1  0  0  0  0
  7 10  1  0  0  0  0
  7  9  1  0  0  0  0
 11 12  1  0  0  0  0
 11 17  1  1  0  0  0
 11  2  1  0  0  0  0
 12 18  1  0  0  0  0
 13 19  1  0  0  0  0
 13 12  2  0  0  0  0
 14 20  1  6  0  0  0
 14 13  1  0  0  0  0
 15 14  1  0  0  0  0
 15 21  1  0  0  0  0
 15 16  1  0  0  0  0
 16 11  1  0  0  0  0
 22 15  1  0  0  0  0
 23 16  1  0  0  0  0
 24 16  1  0  0  0  0
 25 26  1  0  0  0  0
 25 14  1  0  0  0  0
 27 25  1  0  0  0  0
 28 25  1  0  0  0  0
 29  3  1  0  0  0  0
 30 29  1  0  0  0  0
 31 32  1  0  0  0  0
 31 30  2  0  0  0  0
 32 33  1  0  0  0  0
 33 29  2  0  0  0  0
 34 30  1  0  0  0  0
 35 31  1  0  0  0  0
 36 32  1  0  0  0  0
 36 40  1  0  0  0  0
 37 36  2  0  0  0  0
 38 37  1  0  0  0  0
 38 39  2  0  0  0  0
 39 40  1  0  0  0  0
M  END
>  <minimizedAffinity>
-5.43072414

>  <minimizedRMSD>
0.577960134

$$$$
