
 OpenBabel03232520313D

 40 43  0  0  1  0  0  0  0  0999 V2000
   46.9190   34.5060   41.3020 C   0  0  0  0  0  0  0  0  0  0  0  0
   48.1840   34.9240   40.9380 C   0  0  0  0  0  0  0  0  0  0  0  0
   48.4460   34.6190   39.6740 N   0  0  0  0  0  0  0  0  0  0  0  0
   47.3420   33.9970   39.2030 C   0  0  0  0  0  0  0  0  0  0  0  0
   47.0880   33.4690   37.9350 C   0  0  0  0  0  0  0  0  0  0  0  0
   45.8800   32.8820   37.7140 C   0  0  0  0  0  0  0  0  0  0  0  0
   44.8770   32.7610   38.6390 C   0  0  0  0  0  0  0  0  0  0  0  0
   45.1820   33.2970   39.8710 C   0  0  0  0  0  0  0  0  0  0  0  0
   46.3650   33.9080   40.1950 C   0  0  0  0  0  0  0  0  0  0  0  0
   49.3060   34.7900   39.0790 H   0  0  0  0  0  0  0  0  0  0  0  0
   47.8440   33.5280   37.1370 H   0  0  0  0  0  0  0  0  0  0  0  0
   45.7250   32.4840   36.7100 H   0  0  0  0  0  0  0  0  0  0  0  0
   43.9470   32.2880   38.4060 H   0  0  0  0  0  0  0  0  0  0  0  0
   44.4480   33.2510   40.6750 H   0  0  0  0  0  0  0  0  0  0  0  0
   44.7810   35.8620   44.0370 C   0  0  0  0  0  0  0  0  0  0  0  0
   45.4130   35.7400   42.7810 C   0  0  0  0  0  0  0  0  0  0  0  0
   46.2570   34.6490   42.5930 C   0  0  0  0  0  0  0  0  0  0  0  0
   46.4440   33.7410   43.6160 N   0  0  0  0  0  0  0  0  0  0  0  0
   45.8070   33.9130   44.8020 C   0  0  0  0  0  0  0  0  0  0  0  0
   44.9790   34.9620   45.0220 N   0  0  0  0  0  0  0  0  0  0  0  0
   44.1120   36.6940   44.2380 H   0  0  0  0  0  0  0  0  0  0  0  0
   45.2390   36.4740   42.0040 H   0  0  0  0  0  0  0  0  0  0  0  0
   46.0840   33.1030   45.4660 H   0  0  0  0  0  0  0  0  0  0  0  0
   49.1180   35.6230   41.8670 C   0  0  0  0  0  0  0  0  0  0  0  0
   49.7900   36.2830   41.2780 H   0  0  0  0  0  0  0  0  0  0  0  0
   48.5230   36.2790   42.5150 H   0  0  0  0  0  0  0  0  0  0  0  0
   49.9630   34.6610   42.6440 C   0  0  0  0  0  0  0  0  0  0  0  0
   50.9340   35.1410   42.8930 H   0  0  0  0  0  0  0  0  0  0  0  0
   49.4960   34.4540   43.6480 H   0  0  0  0  0  0  0  0  0  0  0  0
   50.2630   33.3830   41.9210 C   0  0  1  0  0  0  0  0  0  0  0  0
   51.0920   32.3030   42.4600 C   0  0  0  0  0  0  0  0  0  0  0  0
   49.6100   32.1390   42.5520 C   0  0  2  0  0  0  0  0  0  0  0  0
   50.2100   33.4510   40.8090 H   0  0  0  0  0  0  0  0  0  0  0  0
   51.6390   32.5470   43.3940 H   0  0  0  0  0  0  0  0  0  0  0  0
   51.6670   31.6590   41.7830 H   0  0  0  0  0  0  0  0  0  0  0  0
   49.1860   32.2040   43.5600 H   0  0  0  0  0  0  0  0  0  0  0  0
   49.0610   31.1880   41.7230 O   0  0  0  0  0  0  0  0  0  0  0  0
   48.2280   30.2970   42.3280 C   0  0  0  0  0  0  0  0  0  0  0  0
   46.8260   30.5750   41.7620 C   0  0  0  0  0  0  0  0  0  0  0  0
   48.1600   30.6040   43.8060 C   0  0  0  0  0  0  0  0  0  0  0  0
  1 17  1  0  0  0  0
  2  1  2  0  0  0  0
  2 24  1  0  0  0  0
  3  2  1  0  0  0  0
  4  3  1  0  0  0  0
  4  9  1  0  0  0  0
  5  4  2  0  0  0  0
  6  5  1  0  0  0  0
  6  7  2  0  0  0  0
  7  8  1  0  0  0  0
  8  9  2  0  0  0  0
  8 14  1  0  0  0  0
  9  1  1  0  0  0  0
 10  3  1  0  0  0  0
 11  5  1  0  0  0  0
 12  6  1  0  0  0  0
 13  7  1  0  0  0  0
 15 21  1  0  0  0  0
 15 20  1  0  0  0  0
 16 15  2  0  0  0  0
 17 16  1  0  0  0  0
 17 18  2  0  0  0  0
 18 19  1  0  0  0  0
 19 20  2  0  0  0  0
 19 23  1  0  0  0  0
 22 16  1  0  0  0  0
 24 26  1  0  0  0  0
 24 27  1  0  0  0  0
 25 24  1  0  0  0  0
 27 28  1  0  0  0  0
 27 29  1  0  0  0  0
 30 33  1  6  0  0  0
 30 31  1  0  0  0  0
 30 32  1  0  0  0  0
 30 27  1  0  0  0  0
 31 32  1  0  0  0  0
 31 34  1  0  0  0  0
 32 36  1  1  0  0  0
 35 31  1  0  0  0  0
 37 38  1  0  0  0  0
 37 32  1  0  0  0  0
 38 40  1  0  0  0  0
 39 38  1  0  0  0  0
M  END
>  <minimizedAffinity>
-5.458745

>  <minimizedRMSD>
0.224227622

$$$$
