
 OpenBabel03232519033D

 44 44  0  0  1  0  0  0  0  0999 V2000
   44.3780   36.1070   44.9020 C   0  0  0  0  0  0  0  0  0  0  0  0
   44.8780   36.5290   43.6460 C   0  0  0  0  0  0  0  0  0  0  0  0
   45.6000   35.5460   42.8950 C   0  0  0  0  0  0  0  0  0  0  0  0
   46.2500   34.6650   43.7050 N   0  0  0  0  0  0  0  0  0  0  0  0
   45.7490   34.2400   44.8520 C   0  0  0  0  0  0  0  0  0  0  0  0
   44.8120   34.9760   45.4500 N   0  0  0  0  0  0  0  0  0  0  0  0
   46.2690   33.0880   45.4390 N   0  0  0  0  0  0  0  0  0  0  0  0
   45.6450   32.6630   46.6740 C   0  0  0  0  0  0  0  0  0  0  0  0
   46.3670   31.5470   47.3680 C   0  0  0  0  0  0  0  0  0  0  0  0
   47.5810   31.2280   46.8170 O   0  0  0  0  0  0  0  0  0  0  0  0
   47.3890   30.9800   45.4620 C   0  0  0  0  0  0  0  0  0  0  0  0
   47.3730   32.3600   44.8400 C   0  0  1  0  0  0  0  0  0  0  0  0
   43.7900   36.6570   45.6390 H   0  0  0  0  0  0  0  0  0  0  0  0
   44.6240   37.5480   43.4570 H   0  0  0  0  0  0  0  0  0  0  0  0
   45.9920   36.0600   42.0000 H   0  0  0  0  0  0  0  0  0  0  0  0
   44.7160   34.9520   42.3900 H   0  0  0  0  0  0  0  0  0  0  0  0
   46.7040   34.8880   42.9520 H   0  0  0  0  0  0  0  0  0  0  0  0
   45.6110   33.5430   47.3440 H   0  0  0  0  0  0  0  0  0  0  0  0
   44.5870   32.4230   46.4310 H   0  0  0  0  0  0  0  0  0  0  0  0
   45.6890   30.6810   47.3690 H   0  0  0  0  0  0  0  0  0  0  0  0
   46.5340   31.8380   48.4350 H   0  0  0  0  0  0  0  0  0  0  0  0
   46.4120   30.5030   45.2740 H   0  0  0  0  0  0  0  0  0  0  0  0
   48.1820   30.3860   45.0170 H   0  0  0  0  0  0  0  0  0  0  0  0
   48.3180   32.8800   45.0920 H   0  0  0  0  0  0  0  0  0  0  0  0
   47.1120   32.4630   43.4620 N   0  0  1  0  0  0  0  0  0  0  0  0
   45.9260   32.0720   42.9600 C   0  0  0  0  0  0  0  0  0  0  0  0
   46.0780   32.2730   41.4570 C   0  0  0  0  0  0  0  0  0  0  0  0
   47.1750   33.2910   41.3470 C   0  0  0  0  0  0  0  0  0  0  0  0
   47.5890   33.5160   42.7820 C   0  0  2  0  0  0  0  0  0  0  0  0
   44.9250   31.9470   43.3210 H   0  0  0  0  0  0  0  0  0  0  0  0
   46.1370   30.9370   43.0410 H   0  0  0  0  0  0  0  0  0  0  0  0
   46.2750   31.3860   40.8760 H   0  0  0  0  0  0  0  0  0  0  0  0
   45.1000   32.6790   41.0550 H   0  0  0  0  0  0  0  0  0  0  0  0
   47.9140   32.8910   40.6480 H   0  0  0  0  0  0  0  0  0  0  0  0
   46.7620   34.1970   40.8440 H   0  0  0  0  0  0  0  0  0  0  0  0
   48.2160   34.3960   42.9780 H   0  0  0  0  0  0  0  0  0  0  0  0
   48.9380   32.8540   42.7370 N   0  0  0  0  0  0  0  0  0  0  0  0
   50.1150   33.6580   42.7180 C   0  0  0  0  0  0  0  0  0  0  0  0
   50.0630   34.9330   43.0410 N   0  0  0  0  0  0  0  0  0  0  0  0
   51.4030   33.1560   42.3580 N   0  0  0  0  0  0  0  0  0  0  0  0
   49.2280   31.8550   42.7270 H   0  0  0  0  0  0  0  0  0  0  0  0
   50.8790   35.5470   43.0420 H   0  0  0  0  0  0  0  0  0  0  0  0
   51.6370   32.1920   42.6860 H   0  0  0  0  0  0  0  0  0  0  0  0
   52.0430   33.7640   41.7930 H   0  0  0  0  0  0  0  0  0  0  0  0
  1  6  2  0  0  0  0
  1 13  1  0  0  0  0
  2  1  1  0  0  0  0
  4  5  2  0  0  0  0
  5  7  1  0  0  0  0
  5  6  1  0  0  0  0
  7  8  1  0  0  0  0
  8 18  1  0  0  0  0
  8  9  1  0  0  0  0
  9 20  1  0  0  0  0
  9 21  1  0  0  0  0
 10  9  1  0  0  0  0
 11 10  1  0  0  0  0
 12 24  1  1  0  0  0
 12  7  1  0  0  0  0
 12 11  1  0  0  0  0
 14  2  1  0  0  0  0
 15  3  1  0  0  0  0
 16  3  1  0  0  0  0
 17  4  1  0  0  0  0
 19  8  1  0  0  0  0
 22 11  1  0  0  0  0
 23 11  1  0  0  0  0
 25 26  1  1  0  0  0
 25 12  1  0  0  0  0
 26 31  1  0  0  0  0
 26 30  1  0  0  0  0
 27 26  1  0  0  0  0
 28 27  1  0  0  0  0
 28 29  1  0  0  0  0
 29 36  1  1  0  0  0
 29 25  1  0  0  0  0
 32 27  1  0  0  0  0
 33 27  1  0  0  0  0
 34 28  1  0  0  0  0
 35 28  1  0  0  0  0
 37 29  1  0  0  0  0
 38 37  1  0  0  0  0
 38 39  2  0  0  0  0
 39 42  1  0  0  0  0
 40 43  1  0  0  0  0
 40 38  1  0  0  0  0
 41 37  1  0  0  0  0
 44 40  1  0  0  0  0
M  END
>  <minimizedAffinity>
-6.02529573

>  <minimizedRMSD>
2.24540353

$$$$
