
 OpenBabel03232520593D

 40 43  0  0  1  0  0  0  0  0999 V2000
   45.3460   32.8960   47.5120 C   0  0  0  0  0  0  0  0  0  0  0  0
   45.9140   32.6380   46.3050 C   0  0  0  0  0  0  0  0  0  0  0  0
   46.1930   31.2880   46.0700 C   0  0  0  0  0  0  0  0  0  0  0  0
   45.9260   30.2990   46.9600 N   0  0  0  0  0  0  0  0  0  0  0  0
   45.3460   30.6110   48.1770 C   0  0  0  0  0  0  0  0  0  0  0  0
   45.0730   31.8940   48.4220 N   0  0  0  0  0  0  0  0  0  0  0  0
   45.0670   29.6030   49.1300 N   0  0  0  0  0  0  0  0  0  0  0  0
   45.0940   33.9050   47.7970 H   0  0  0  0  0  0  0  0  0  0  0  0
   44.1070   29.3400   49.3930 H   0  0  0  0  0  0  0  0  0  0  0  0
   45.8170   29.0630   49.6270 H   0  0  0  0  0  0  0  0  0  0  0  0
   46.1610   33.5880   45.2740 C   0  0  2  0  0  0  0  0  0  0  0  0
   44.9520   34.6850   45.5060 C   0  0  0  0  0  0  0  0  0  0  0  0
   44.7280   35.6130   44.4340 C   0  0  0  0  0  0  0  0  0  0  0  0
   45.5280   35.5390   43.2100 C   0  0  1  0  0  0  0  0  0  0  0  0
   46.5830   34.5330   43.1640 C   0  0  0  0  0  0  0  0  0  0  0  0
   46.1260   33.3010   43.9110 C   0  0  0  0  0  0  0  0  0  0  0  0
   46.9570   34.3190   45.6090 H   0  0  0  0  0  0  0  0  0  0  0  0
   44.2790   34.8340   46.3410 H   0  0  0  0  0  0  0  0  0  0  0  0
   43.9640   36.3350   44.5420 H   0  0  0  0  0  0  0  0  0  0  0  0
   45.9620   36.5420   43.0130 H   0  0  0  0  0  0  0  0  0  0  0  0
   47.4900   34.9300   43.7050 H   0  0  0  0  0  0  0  0  0  0  0  0
   46.8550   34.3380   42.1040 H   0  0  0  0  0  0  0  0  0  0  0  0
   46.9720   32.6440   43.5780 H   0  0  0  0  0  0  0  0  0  0  0  0
   45.1670   32.9780   43.4550 H   0  0  0  0  0  0  0  0  0  0  0  0
   44.5130   35.2790   42.0580 C   0  0  0  0  0  0  0  0  0  0  0  0
   43.4510   34.4820   42.4530 F   0  0  0  0  0  0  0  0  0  0  0  0
   43.9750   36.5190   41.7260 F   0  0  0  0  0  0  0  0  0  0  0  0
   45.1860   34.8210   40.9420 F   0  0  0  0  0  0  0  0  0  0  0  0
   46.8510   30.5970   44.9770 C   0  0  0  0  0  0  0  0  0  0  0  0
   46.5310   29.8170   43.9120 C   0  0  0  0  0  0  0  0  0  0  0  0
   47.7160   29.4450   43.2640 C   0  0  0  0  0  0  0  0  0  0  0  0
   48.6920   30.0160   43.9690 N   0  0  0  0  0  0  0  0  0  0  0  0
   48.2110   30.6980   44.9800 N   0  0  0  0  0  0  0  0  0  0  0  0
   45.4780   29.6210   43.7430 H   0  0  0  0  0  0  0  0  0  0  0  0
   47.6840   28.8190   42.3850 H   0  0  0  0  0  0  0  0  0  0  0  0
   50.0970   29.8540   43.5950 C   0  0  0  0  0  0  0  0  0  0  0  0
   50.8420   30.2270   42.5860 C   0  0  0  0  0  3  0  0  0  0  0  0
   52.1680   29.8950   42.5490 C   0  0  0  0  0  3  0  0  0  0  0  0
   52.6490   29.1620   43.6210 C   0  0  0  0  0  3  0  0  0  0  0  0
   51.0940   28.9690   44.6940 S   0  0  0  0  0  0  0  0  0  0  0  0
  1  8  1  0  0  0  0
  1  6  1  0  0  0  0
  2  1  2  0  0  0  0
  3  2  1  0  0  0  0
  3  4  2  0  0  0  0
  4  5  1  0  0  0  0
  5  6  2  0  0  0  0
  5  7  1  0  0  0  0
  7  9  1  0  0  0  0
  7 10  1  0  0  0  0
 11 12  1  0  0  0  0
 11 17  1  1  0  0  0
 11  2  1  0  0  0  0
 12 18  1  0  0  0  0
 13 19  1  0  0  0  0
 13 12  2  0  0  0  0
 14 20  1  6  0  0  0
 14 13  1  0  0  0  0
 15 14  1  0  0  0  0
 15 21  1  0  0  0  0
 15 16  1  0  0  0  0
 16 11  1  0  0  0  0
 22 15  1  0  0  0  0
 23 16  1  0  0  0  0
 24 16  1  0  0  0  0
 25 26  1  0  0  0  0
 25 14  1  0  0  0  0
 27 25  1  0  0  0  0
 28 25  1  0  0  0  0
 29 33  2  0  0  0  0
 29  3  1  0  0  0  0
 30 29  1  0  0  0  0
 31 30  2  0  0  0  0
 31 32  1  0  0  0  0
 32 33  1  0  0  0  0
 34 30  1  0  0  0  0
 35 31  1  0  0  0  0
 36 32  1  0  0  0  0
 36 40  1  0  0  0  0
 37 36  2  0  0  0  0
 38 37  1  0  0  0  0
 38 39  2  0  0  0  0
 39 40  1  0  0  0  0
M  END
>  <minimizedAffinity>
-5.71971941

>  <minimizedRMSD>
0.231713891

$$$$
