
 OpenBabel03232519263D

 39 40  0  0  1  0  0  0  0  0999 V2000
   47.9580   33.6450   40.3750 C   0  0  1  0  0  0  0  0  0  0  0  0
   48.1940   34.5380   39.1880 C   0  0  0  0  0  0  0  0  0  0  0  0
   47.6270   33.8060   37.9680 C   0  0  0  0  0  0  0  0  0  0  0  0
   48.4080   32.5610   37.7000 C   0  0  0  0  0  0  0  0  0  0  0  0
   49.3070   32.2210   38.8380 C   0  0  0  0  0  0  0  0  0  0  0  0
   48.8460   32.4620   40.2250 C   0  0  1  0  0  0  0  0  0  0  0  0
   46.8760   33.3260   40.4180 H   0  0  0  0  0  0  0  0  0  0  0  0
   47.6730   35.5190   39.2820 H   0  0  0  0  0  0  0  0  0  0  0  0
   49.2660   34.6500   39.0060 H   0  0  0  0  0  0  0  0  0  0  0  0
   46.6040   33.4760   38.3120 H   0  0  0  0  0  0  0  0  0  0  0  0
   47.5070   34.4750   37.1080 H   0  0  0  0  0  0  0  0  0  0  0  0
   47.7100   31.7090   37.4490 H   0  0  0  0  0  0  0  0  0  0  0  0
   48.9790   32.7240   36.7750 H   0  0  0  0  0  0  0  0  0  0  0  0
   50.3050   32.6940   38.5780 H   0  0  0  0  0  0  0  0  0  0  0  0
   49.5410   31.1190   38.7280 H   0  0  0  0  0  0  0  0  0  0  0  0
   48.3580   31.5280   40.5660 H   0  0  0  0  0  0  0  0  0  0  0  0
   50.1710   32.6410   40.8750 N   0  0  0  0  0  0  0  0  0  0  0  0
   50.5970   31.5500   41.7260 C   0  0  0  0  0  0  0  0  0  0  0  0
   49.7270   30.6710   42.1340 N   0  0  0  0  0  0  0  0  0  0  0  0
   51.9690   31.3940   42.1550 N   0  0  0  0  0  0  0  0  0  0  0  0
   50.9180   33.3540   40.8770 H   0  0  0  0  0  0  0  0  0  0  0  0
   50.0320   29.8940   42.7410 H   0  0  0  0  0  0  0  0  0  0  0  0
   52.8210   31.0180   41.6620 H   0  0  0  0  0  0  0  0  0  0  0  0
   51.8910   31.7720   43.1410 H   0  0  0  0  0  0  0  0  0  0  0  0
   48.2150   34.3130   41.7060 C   0  0  0  0  0  0  0  0  0  0  0  0
   49.3160   34.1020   41.9050 H   0  0  0  0  0  0  0  0  0  0  0  0
   48.0890   35.3840   41.6950 H   0  0  0  0  0  0  0  0  0  0  0  0
   47.4590   33.5290   42.7360 C   0  0  0  0  0  0  0  0  0  0  0  0
   48.1100   33.1870   43.6010 H   0  0  0  0  0  0  0  0  0  0  0  0
   46.8930   32.6510   42.3240 H   0  0  0  0  0  0  0  0  0  0  0  0
   45.9630   33.9370   44.6220 C   0  0  0  0  0  0  0  0  0  0  0  0
   46.4540   34.3290   43.3800 C   0  0  0  0  0  0  0  0  0  0  0  0
   45.9610   35.4740   42.8250 C   0  0  0  0  0  0  0  0  0  0  0  0
   45.0130   36.1810   43.5110 N   0  0  0  0  0  0  0  0  0  0  0  0
   44.5500   35.7950   44.7030 C   0  0  0  0  0  0  0  0  0  0  0  0
   45.0210   34.6780   45.2580 N   0  0  0  0  0  0  0  0  0  0  0  0
   46.3470   33.0330   45.0680 H   0  0  0  0  0  0  0  0  0  0  0  0
   46.1770   35.9560   41.8910 H   0  0  0  0  0  0  0  0  0  0  0  0
   43.8040   36.3560   45.2380 H   0  0  0  0  0  0  0  0  0  0  0  0
  1  7  1  6  0  0  0
  1 25  1  0  0  0  0
  2  8  1  0  0  0  0
  2  1  1  0  0  0  0
  3 10  1  0  0  0  0
  3  2  1  0  0  0  0
  4  3  1  0  0  0  0
  4  5  1  0  0  0  0
  5  6  1  0  0  0  0
  6  1  1  0  0  0  0
  6 16  1  1  0  0  0
  6 17  1  0  0  0  0
  9  2  1  0  0  0  0
 11  3  1  0  0  0  0
 12  4  1  0  0  0  0
 13  4  1  0  0  0  0
 14  5  1  0  0  0  0
 15  5  1  0  0  0  0
 17 21  1  0  0  0  0
 17 18  1  0  0  0  0
 18 19  2  0  0  0  0
 18 20  1  0  0  0  0
 19 22  1  0  0  0  0
 20 24  1  0  0  0  0
 23 20  1  0  0  0  0
 25 26  1  0  0  0  0
 25 28  1  0  0  0  0
 27 25  1  0  0  0  0
 28 32  1  0  0  0  0
 28 29  1  0  0  0  0
 30 28  1  0  0  0  0
 31 37  1  0  0  0  0
 31 36  1  0  0  0  0
 32 31  2  0  0  0  0
 33 32  1  0  0  0  0
 33 34  2  0  0  0  0
 34 35  1  0  0  0  0
 35 39  1  0  0  0  0
 35 36  2  0  0  0  0
 38 33  1  0  0  0  0
M  END
>  <minimizedAffinity>
-4.61895323

>  <minimizedRMSD>
1.04104507

$$$$
