
 OpenBabel03232520243D

 37 39  0  0  0  0  0  0  0  0999 V2000
   47.0990   34.5250   41.1470 C   0  0  0  0  0  0  0  0  0  0  0  0
   48.3520   35.0300   40.8380 C   0  0  0  0  0  0  0  0  0  0  0  0
   48.6580   34.7540   39.5760 N   0  0  0  0  0  0  0  0  0  0  0  0
   47.6110   34.0700   39.0570 C   0  0  0  0  0  0  0  0  0  0  0  0
   47.4250   33.5490   37.7860 C   0  0  0  0  0  0  0  0  0  0  0  0
   46.2490   32.8860   37.5210 C   0  0  0  0  0  0  0  0  0  0  0  0
   45.2160   32.6910   38.4320 C   0  0  0  0  0  0  0  0  0  0  0  0
   45.4670   33.2360   39.6800 C   0  0  0  0  0  0  0  0  0  0  0  0
   46.6080   33.9060   40.0170 C   0  0  0  0  0  0  0  0  0  0  0  0
   49.5160   34.9800   38.9880 H   0  0  0  0  0  0  0  0  0  0  0  0
   48.1750   33.6490   37.0020 H   0  0  0  0  0  0  0  0  0  0  0  0
   46.1330   32.4880   36.5110 H   0  0  0  0  0  0  0  0  0  0  0  0
   44.3130   32.1610   38.1620 H   0  0  0  0  0  0  0  0  0  0  0  0
   44.7030   33.1260   40.4520 H   0  0  0  0  0  0  0  0  0  0  0  0
   44.8850   35.8060   43.8780 C   0  0  0  0  0  0  0  0  0  0  0  0
   45.5560   35.7210   42.6440 C   0  0  0  0  0  0  0  0  0  0  0  0
   46.3970   34.6200   42.4300 C   0  0  0  0  0  0  0  0  0  0  0  0
   46.5350   33.6820   43.4120 N   0  0  0  0  0  0  0  0  0  0  0  0
   45.8540   33.8250   44.5880 C   0  0  0  0  0  0  0  0  0  0  0  0
   45.0430   34.8710   44.8180 N   0  0  0  0  0  0  0  0  0  0  0  0
   44.2670   36.6920   43.9350 H   0  0  0  0  0  0  0  0  0  0  0  0
   45.4610   36.4430   41.8650 H   0  0  0  0  0  0  0  0  0  0  0  0
   45.9620   33.0800   45.3720 H   0  0  0  0  0  0  0  0  0  0  0  0
   49.2100   35.7600   41.7890 C   0  0  0  0  0  0  0  0  0  0  0  0
   49.9810   36.2830   41.1850 H   0  0  0  0  0  0  0  0  0  0  0  0
   48.6450   36.5920   42.2940 H   0  0  0  0  0  0  0  0  0  0  0  0
   49.7920   34.8580   42.8320 C   0  0  0  0  0  0  0  0  0  0  0  0
   50.1700   35.4510   43.6870 H   0  0  0  0  0  0  0  0  0  0  0  0
   48.9580   34.2430   43.2400 H   0  0  0  0  0  0  0  0  0  0  0  0
   50.8180   34.0400   42.2290 N   0  0  0  0  0  0  0  0  0  0  0  0
   50.5650   32.6290   42.4320 C   0  0  0  0  0  0  0  0  0  0  0  0
   49.3730   32.1770   42.6220 N   0  0  0  0  0  0  0  0  0  0  0  0
   51.6700   31.6990   42.4200 N   0  0  0  0  0  0  0  0  0  0  0  0
   51.6990   34.1770   41.6840 H   0  0  0  0  0  0  0  0  0  0  0  0
   49.2460   31.1550   42.7630 H   0  0  0  0  0  0  0  0  0  0  0  0
   51.8320   31.1980   43.3410 H   0  0  0  0  0  0  0  0  0  0  0  0
   52.4670   31.0320   42.4050 H   0  0  0  0  0  0  0  0  0  0  0  0
  1 17  1  0  0  0  0
  2  1  2  0  0  0  0
  2 24  1  0  0  0  0
  3  2  1  0  0  0  0
  4  3  1  0  0  0  0
  4  9  1  0  0  0  0
  5  4  2  0  0  0  0
  6  5  1  0  0  0  0
  6  7  2  0  0  0  0
  7  8  1  0  0  0  0
  8  9  2  0  0  0  0
  8 14  1  0  0  0  0
  9  1  1  0  0  0  0
 10  3  1  0  0  0  0
 11  5  1  0  0  0  0
 12  6  1  0  0  0  0
 13  7  1  0  0  0  0
 15 21  1  0  0  0  0
 15 20  1  0  0  0  0
 16 15  2  0  0  0  0
 17 16  1  0  0  0  0
 17 18  2  0  0  0  0
 18 19  1  0  0  0  0
 19 20  2  0  0  0  0
 19 23  1  0  0  0  0
 22 16  1  0  0  0  0
 24 26  1  0  0  0  0
 24 27  1  0  0  0  0
 25 24  1  0  0  0  0
 27 29  1  0  0  0  0
 27 28  1  0  0  0  0
 30 31  1  0  0  0  0
 30 27  1  0  0  0  0
 31 32  2  0  0  0  0
 32 35  1  0  0  0  0
 33 31  1  0  0  0  0
 33 36  1  0  0  0  0
 34 30  1  0  0  0  0
 37 33  1  0  0  0  0
M  END
>  <minimizedAffinity>
-6.0098772

>  <minimizedRMSD>
0.489489168

$$$$
