
 OpenBabel03232520413D

 42 44  0  0  1  0  0  0  0  0999 V2000
   39.2190   34.2170   38.8640 N   0  0  0  0  0  0  0  0  0  0  0  0
   39.0840   34.6300   40.2310 C   0  0  0  0  0  0  0  0  0  0  0  0
   40.1020   33.9280   41.1010 C   0  0  0  0  0  0  0  0  0  0  0  0
   41.4810   34.2820   40.5850 C   0  0  1  0  0  0  0  0  0  0  0  0
   41.4640   35.1140   39.3500 C   0  0  0  0  0  0  0  0  0  0  0  0
   40.5350   34.5500   38.3180 C   0  0  2  0  0  0  0  0  0  0  0  0
   39.1280   33.1720   38.8410 H   0  0  0  0  0  0  0  0  0  0  0  0
   38.0570   34.3930   40.5440 H   0  0  0  0  0  0  0  0  0  0  0  0
   39.1930   35.7370   40.2840 H   0  0  0  0  0  0  0  0  0  0  0  0
   39.9160   34.2850   42.1370 H   0  0  0  0  0  0  0  0  0  0  0  0
   39.8630   32.8600   41.0640 H   0  0  0  0  0  0  0  0  0  0  0  0
   41.9360   33.3090   40.2960 H   0  0  0  0  0  0  0  0  0  0  0  0
   41.2520   36.1550   39.6460 H   0  0  0  0  0  0  0  0  0  0  0  0
   42.5020   35.0070   38.9160 H   0  0  0  0  0  0  0  0  0  0  0  0
   41.0250   33.6530   37.8820 H   0  0  0  0  0  0  0  0  0  0  0  0
   40.2760   35.4490   37.2290 N   0  0  0  0  0  0  0  0  0  0  0  0
   41.2970   36.3420   36.8030 C   0  0  0  0  0  0  0  0  0  0  0  0
   42.5270   36.1940   37.1620 N   0  0  0  0  0  0  0  0  0  0  0  0
   40.9900   37.4320   35.9620 N   0  0  0  0  0  0  0  0  0  0  0  0
   39.3630   35.5190   36.6890 H   0  0  0  0  0  0  0  0  0  0  0  0
   43.2940   36.8320   36.8630 H   0  0  0  0  0  0  0  0  0  0  0  0
   40.6590   38.2460   35.4070 H   0  0  0  0  0  0  0  0  0  0  0  0
   40.0890   37.9390   36.1160 H   0  0  0  0  0  0  0  0  0  0  0  0
   42.3410   35.1320   41.9220 S   0  0  0  0  0  0  0  0  0  0  0  0
   44.8470   34.9160   43.0910 C   0  0  0  0  0  0  0  0  0  0  0  0
   44.0860   34.7320   41.9280 C   0  0  0  0  0  0  0  0  0  0  0  0
   44.7100   34.2440   40.8150 C   0  0  0  0  0  0  0  0  0  0  0  0
   46.0480   33.9460   40.8540 N   0  0  0  0  0  0  0  0  0  0  0  0
   46.7560   34.1350   41.9920 C   0  0  0  0  0  0  0  0  0  0  0  0
   46.1600   34.6180   43.1080 N   0  0  0  0  0  0  0  0  0  0  0  0
   44.3280   35.3040   43.9600 H   0  0  0  0  0  0  0  0  0  0  0  0
   44.1870   34.0790   39.8920 H   0  0  0  0  0  0  0  0  0  0  0  0
   48.1740   33.8410   42.0990 C   0  0  0  0  0  0  0  0  0  0  0  0
   49.0620   34.7860   42.4980 C   0  0  0  0  0  0  0  0  0  0  0  0
   50.4190   34.5180   42.6050 C   0  0  0  0  0  0  0  0  0  0  0  0
   50.9130   33.2740   42.3070 C   0  0  0  0  0  0  0  0  0  0  0  0
   49.9960   32.3300   41.9040 C   0  0  0  0  0  0  0  0  0  0  0  0
   48.6870   32.6310   41.8150 N   0  0  0  0  0  0  0  0  0  0  0  0
   48.7710   35.8010   42.7560 H   0  0  0  0  0  0  0  0  0  0  0  0
   51.1480   35.2690   42.9240 H   0  0  0  0  0  0  0  0  0  0  0  0
   51.9540   32.9530   42.3540 H   0  0  0  0  0  0  0  0  0  0  0  0
   50.2020   31.2970   41.6290 H   0  0  0  0  0  0  0  0  0  0  0  0
  1  2  1  0  0  0  0
  2  9  1  0  0  0  0
  2  8  1  0  0  0  0
  2  3  1  0  0  0  0
  3 10  1  0  0  0  0
  4 12  1  6  0  0  0
  4  3  1  0  0  0  0
  4 24  1  0  0  0  0
  5 13  1  0  0  0  0
  5  4  1  0  0  0  0
  6 15  1  6  0  0  0
  6  1  1  0  0  0  0
  6  5  1  0  0  0  0
  7  1  1  0  0  0  0
 11  3  1  0  0  0  0
 14  5  1  0  0  0  0
 16  6  1  0  0  0  0
 17 18  2  0  0  0  0
 17 16  1  0  0  0  0
 19 23  1  0  0  0  0
 19 17  1  0  0  0  0
 20 16  1  0  0  0  0
 21 18  1  0  0  0  0
 22 19  1  0  0  0  0
 24 26  1  0  0  0  0
 25 30  1  0  0  0  0
 25 31  1  0  0  0  0
 26 25  2  0  0  0  0
 27 28  2  0  0  0  0
 27 26  1  0  0  0  0
 28 29  1  0  0  0  0
 29 33  1  0  0  0  0
 29 30  2  0  0  0  0
 32 27  1  0  0  0  0
 33 34  1  0  0  0  0
 34 35  2  0  0  0  0
 34 39  1  0  0  0  0
 35 40  1  0  0  0  0
 36 41  1  0  0  0  0
 36 35  1  0  0  0  0
 37 36  2  0  0  0  0
 38 37  1  0  0  0  0
 38 33  2  0  0  0  0
 42 37  1  0  0  0  0
M  END
>  <minimizedAffinity>
-5.70615721

>  <minimizedRMSD>
1.12277627

$$$$
