
 OpenBabel03232520593D

 40 43  0  0  1  0  0  0  0  0999 V2000
   45.3660   32.8990   47.5110 C   0  0  0  0  0  0  0  0  0  0  0  0
   45.9200   32.6430   46.2980 C   0  0  0  0  0  0  0  0  0  0  0  0
   46.1860   31.2920   46.0530 C   0  0  0  0  0  0  0  0  0  0  0  0
   45.9200   30.3000   46.9410 N   0  0  0  0  0  0  0  0  0  0  0  0
   45.3540   30.6110   48.1650 C   0  0  0  0  0  0  0  0  0  0  0  0
   45.0930   31.8940   48.4180 N   0  0  0  0  0  0  0  0  0  0  0  0
   45.0770   29.6000   49.1160 N   0  0  0  0  0  0  0  0  0  0  0  0
   45.1240   33.9090   47.8030 H   0  0  0  0  0  0  0  0  0  0  0  0
   44.1170   29.3440   49.3860 H   0  0  0  0  0  0  0  0  0  0  0  0
   45.8270   29.0520   49.6030 H   0  0  0  0  0  0  0  0  0  0  0  0
   46.1650   33.5960   45.2690 C   0  0  2  0  0  0  0  0  0  0  0  0
   44.9510   34.6880   45.5010 C   0  0  0  0  0  0  0  0  0  0  0  0
   44.7250   35.6170   44.4310 C   0  0  0  0  0  0  0  0  0  0  0  0
   45.5270   35.5490   43.2080 C   0  0  1  0  0  0  0  0  0  0  0  0
   46.5870   34.5470   43.1620 C   0  0  0  0  0  0  0  0  0  0  0  0
   46.1340   33.3120   43.9060 C   0  0  0  0  0  0  0  0  0  0  0  0
   46.9570   34.3300   45.6070 H   0  0  0  0  0  0  0  0  0  0  0  0
   44.2760   34.8320   46.3350 H   0  0  0  0  0  0  0  0  0  0  0  0
   43.9580   36.3350   44.5390 H   0  0  0  0  0  0  0  0  0  0  0  0
   45.9570   36.5540   43.0140 H   0  0  0  0  0  0  0  0  0  0  0  0
   47.4910   34.9480   43.7060 H   0  0  0  0  0  0  0  0  0  0  0  0
   46.8620   34.3560   42.1020 H   0  0  0  0  0  0  0  0  0  0  0  0
   46.9830   32.6600   43.5720 H   0  0  0  0  0  0  0  0  0  0  0  0
   45.1770   32.9860   43.4470 H   0  0  0  0  0  0  0  0  0  0  0  0
   44.5150   35.2870   42.0540 C   0  0  0  0  0  0  0  0  0  0  0  0
   43.4510   34.4940   42.4490 F   0  0  0  0  0  0  0  0  0  0  0  0
   43.9820   36.5270   41.7160 F   0  0  0  0  0  0  0  0  0  0  0  0
   45.1910   34.8230   40.9420 F   0  0  0  0  0  0  0  0  0  0  0  0
   46.8290   30.6020   44.9510 C   0  0  0  0  0  0  0  0  0  0  0  0
   46.4900   29.8830   43.8490 C   0  0  0  0  0  0  0  0  0  0  0  0
   47.6660   29.4610   43.2170 C   0  0  0  0  0  0  0  0  0  0  0  0
   48.6570   29.9430   43.9660 N   0  0  0  0  0  0  0  0  0  0  0  0
   48.1920   30.6170   44.9910 N   0  0  0  0  0  0  0  0  0  0  0  0
   45.4320   29.7610   43.6480 H   0  0  0  0  0  0  0  0  0  0  0  0
   47.6190   28.8710   42.3140 H   0  0  0  0  0  0  0  0  0  0  0  0
   50.0590   29.7060   43.6200 C   0  0  0  0  0  0  0  0  0  0  0  0
   51.0000   30.3940   43.0260 C   0  0  0  0  0  3  0  0  0  0  0  0
   52.2460   29.8550   42.8600 C   0  0  0  0  0  3  0  0  0  0  0  0
   52.4320   28.5720   43.3510 C   0  0  0  0  0  3  0  0  0  0  0  0
   50.7190   28.1730   44.0670 S   0  0  0  0  0  0  0  0  0  0  0  0
  1  8  1  0  0  0  0
  1  6  1  0  0  0  0
  2  1  2  0  0  0  0
  3  2  1  0  0  0  0
  3  4  2  0  0  0  0
  4  5  1  0  0  0  0
  5  6  2  0  0  0  0
  5  7  1  0  0  0  0
  7  9  1  0  0  0  0
  7 10  1  0  0  0  0
 11 12  1  0  0  0  0
 11 17  1  1  0  0  0
 11  2  1  0  0  0  0
 12 18  1  0  0  0  0
 13 19  1  0  0  0  0
 13 12  2  0  0  0  0
 14 20  1  6  0  0  0
 14 13  1  0  0  0  0
 15 14  1  0  0  0  0
 15 21  1  0  0  0  0
 15 16  1  0  0  0  0
 16 11  1  0  0  0  0
 22 15  1  0  0  0  0
 23 16  1  0  0  0  0
 24 16  1  0  0  0  0
 25 26  1  0  0  0  0
 25 14  1  0  0  0  0
 27 25  1  0  0  0  0
 28 25  1  0  0  0  0
 29 33  2  0  0  0  0
 29  3  1  0  0  0  0
 30 29  1  0  0  0  0
 31 30  2  0  0  0  0
 31 32  1  0  0  0  0
 32 33  1  0  0  0  0
 34 30  1  0  0  0  0
 35 31  1  0  0  0  0
 36 32  1  0  0  0  0
 36 40  1  0  0  0  0
 37 36  2  0  0  0  0
 38 37  1  0  0  0  0
 38 39  2  0  0  0  0
 39 40  1  0  0  0  0
M  END
>  <minimizedAffinity>
-5.73377132

>  <minimizedRMSD>
0.134906039

$$$$
