
 OpenBabel03232520593D

 40 43  0  0  1  0  0  0  0  0999 V2000
   45.3540   32.9070   47.5120 C   0  0  0  0  0  0  0  0  0  0  0  0
   45.9150   32.6490   46.3020 C   0  0  0  0  0  0  0  0  0  0  0  0
   46.1890   31.2990   46.0640 C   0  0  0  0  0  0  0  0  0  0  0  0
   45.9230   30.3090   46.9540 N   0  0  0  0  0  0  0  0  0  0  0  0
   45.3500   30.6210   48.1740 C   0  0  0  0  0  0  0  0  0  0  0  0
   45.0820   31.9040   48.4220 N   0  0  0  0  0  0  0  0  0  0  0  0
   45.0720   29.6120   49.1270 N   0  0  0  0  0  0  0  0  0  0  0  0
   45.1060   33.9160   47.8000 H   0  0  0  0  0  0  0  0  0  0  0  0
   44.1130   29.3520   49.3940 H   0  0  0  0  0  0  0  0  0  0  0  0
   45.8220   29.0690   49.6190 H   0  0  0  0  0  0  0  0  0  0  0  0
   46.1610   33.6000   45.2720 C   0  0  2  0  0  0  0  0  0  0  0  0
   44.9480   34.6930   45.5020 C   0  0  0  0  0  0  0  0  0  0  0  0
   44.7220   35.6210   44.4300 C   0  0  0  0  0  0  0  0  0  0  0  0
   45.5240   35.5490   43.2070 C   0  0  1  0  0  0  0  0  0  0  0  0
   46.5830   34.5460   43.1630 C   0  0  0  0  0  0  0  0  0  0  0  0
   46.1290   33.3130   43.9090 C   0  0  0  0  0  0  0  0  0  0  0  0
   46.9530   34.3340   45.6080 H   0  0  0  0  0  0  0  0  0  0  0  0
   44.2730   34.8390   46.3360 H   0  0  0  0  0  0  0  0  0  0  0  0
   43.9560   36.3390   44.5370 H   0  0  0  0  0  0  0  0  0  0  0  0
   45.9550   36.5530   43.0110 H   0  0  0  0  0  0  0  0  0  0  0  0
   47.4870   34.9470   43.7050 H   0  0  0  0  0  0  0  0  0  0  0  0
   46.8570   34.3530   42.1030 H   0  0  0  0  0  0  0  0  0  0  0  0
   46.9780   32.6590   43.5770 H   0  0  0  0  0  0  0  0  0  0  0  0
   45.1710   32.9870   43.4520 H   0  0  0  0  0  0  0  0  0  0  0  0
   44.5110   35.2860   42.0540 C   0  0  0  0  0  0  0  0  0  0  0  0
   43.4490   34.4910   42.4490 F   0  0  0  0  0  0  0  0  0  0  0  0
   43.9750   36.5250   41.7170 F   0  0  0  0  0  0  0  0  0  0  0  0
   45.1870   34.8240   40.9410 F   0  0  0  0  0  0  0  0  0  0  0  0
   46.8400   30.6080   44.9670 C   0  0  0  0  0  0  0  0  0  0  0  0
   46.5090   29.8780   43.8700 C   0  0  0  0  0  0  0  0  0  0  0  0
   47.6910   29.4640   43.2420 C   0  0  0  0  0  0  0  0  0  0  0  0
   48.6750   29.9620   43.9890 N   0  0  0  0  0  0  0  0  0  0  0  0
   48.2020   30.6370   45.0080 N   0  0  0  0  0  0  0  0  0  0  0  0
   45.4530   29.7430   43.6690 H   0  0  0  0  0  0  0  0  0  0  0  0
   47.6500   28.8670   42.3430 H   0  0  0  0  0  0  0  0  0  0  0  0
   50.0800   29.7380   43.6450 C   0  0  0  0  0  0  0  0  0  0  0  0
   50.9900   30.3950   42.9740 C   0  0  0  0  0  3  0  0  0  0  0  0
   52.2520   29.8810   42.8400 C   0  0  0  0  0  3  0  0  0  0  0  0
   52.4860   28.6580   43.4470 C   0  0  0  0  0  3  0  0  0  0  0  0
   50.7960   28.2760   44.2250 S   0  0  0  0  0  0  0  0  0  0  0  0
  1  8  1  0  0  0  0
  1  6  1  0  0  0  0
  2  1  2  0  0  0  0
  3  2  1  0  0  0  0
  3  4  2  0  0  0  0
  4  5  1  0  0  0  0
  5  6  2  0  0  0  0
  5  7  1  0  0  0  0
  7  9  1  0  0  0  0
  7 10  1  0  0  0  0
 11 12  1  0  0  0  0
 11 17  1  1  0  0  0
 11  2  1  0  0  0  0
 12 18  1  0  0  0  0
 13 19  1  0  0  0  0
 13 12  2  0  0  0  0
 14 20  1  6  0  0  0
 14 13  1  0  0  0  0
 15 14  1  0  0  0  0
 15 21  1  0  0  0  0
 15 16  1  0  0  0  0
 16 11  1  0  0  0  0
 22 15  1  0  0  0  0
 23 16  1  0  0  0  0
 24 16  1  0  0  0  0
 25 26  1  0  0  0  0
 25 14  1  0  0  0  0
 27 25  1  0  0  0  0
 28 25  1  0  0  0  0
 29 33  2  0  0  0  0
 29  3  1  0  0  0  0
 30 29  1  0  0  0  0
 31 30  2  0  0  0  0
 31 32  1  0  0  0  0
 32 33  1  0  0  0  0
 34 30  1  0  0  0  0
 35 31  1  0  0  0  0
 36 32  1  0  0  0  0
 36 40  1  0  0  0  0
 37 36  2  0  0  0  0
 38 37  1  0  0  0  0
 38 39  2  0  0  0  0
 39 40  1  0  0  0  0
M  END
>  <minimizedAffinity>
-5.72162294

>  <minimizedRMSD>
0.484087229

$$$$
