
 OpenBabel03232519173D

 45 47  0  0  1  0  0  0  0  0999 V2000
   44.3260   34.5910   42.0860 C   0  0  0  0  0  0  0  0  0  0  0  0
   44.3980   35.5770   41.6220 H   0  0  0  0  0  0  0  0  0  0  0  0
   43.5960   34.7600   42.9400 H   0  0  0  0  0  0  0  0  0  0  0  0
   43.7000   33.5400   41.2520 C   0  0  1  0  0  0  0  0  0  0  0  0
   43.9770   32.5350   41.6750 H   0  0  0  0  0  0  0  0  0  0  0  0
   42.2360   33.6320   41.2240 C   0  0  0  0  0  0  0  0  0  0  0  0
   41.6340   34.9210   41.0210 C   0  0  0  0  0  0  0  0  0  0  0  0
   40.2380   35.0520   40.9840 C   0  0  0  0  0  0  0  0  0  0  0  0
   39.5240   33.9160   41.1480 N   0  0  0  0  0  0  0  0  0  0  0  0
   40.0920   32.7390   41.3330 C   0  0  0  0  0  0  0  0  0  0  0  0
   41.4450   32.5620   41.3770 N   0  0  0  0  0  0  0  0  0  0  0  0
   42.3050   35.7730   40.9000 H   0  0  0  0  0  0  0  0  0  0  0  0
   39.8130   36.0270   40.8310 H   0  0  0  0  0  0  0  0  0  0  0  0
   39.2810   31.5180   41.5040 C   0  0  0  0  0  0  0  0  0  0  0  0
   39.8930   30.3940   42.0980 C   0  0  0  0  0  0  0  0  0  0  0  0
   38.4610   29.1810   42.0660 S   0  0  0  0  0  0  0  0  0  0  0  0
   37.3330   30.4490   41.2560 C   0  0  0  0  0  0  0  0  0  0  0  0
   38.0270   31.3220   41.1700 N   0  0  0  0  0  0  0  0  0  0  0  0
   40.8090   30.1220   42.4880 H   0  0  0  0  0  0  0  0  0  0  0  0
   36.1850   30.5830   40.8390 H   0  0  0  0  0  0  0  0  0  0  0  0
   44.2430   33.6010   39.8420 C   0  0  0  0  0  0  0  0  0  0  0  0
   44.9790   32.7870   39.6610 H   0  0  0  0  0  0  0  0  0  0  0  0
   44.6480   34.5990   39.5880 H   0  0  0  0  0  0  0  0  0  0  0  0
   43.4010   33.4160   39.1270 H   0  0  0  0  0  0  0  0  0  0  0  0
   45.5450   34.2530   42.7090 N   0  0  0  0  0  0  0  0  0  0  0  0
   45.9620   33.2550   43.6400 C   0  0  0  0  0  0  0  0  0  0  0  0
   46.8370   32.2810   43.2330 C   0  0  0  0  0  0  0  0  0  0  0  0
   47.2690   31.2870   44.1010 C   0  0  0  0  0  0  0  0  0  0  0  0
   46.7860   31.3300   45.3530 N   0  0  0  0  0  0  0  0  0  0  0  0
   45.9240   32.2950   45.7400 C   0  0  0  0  0  0  0  0  0  0  0  0
   45.5000   33.2610   44.9110 N   0  0  0  0  0  0  0  0  0  0  0  0
   47.1990   32.2880   42.2130 H   0  0  0  0  0  0  0  0  0  0  0  0
   47.9670   30.5380   43.7200 H   0  0  0  0  0  0  0  0  0  0  0  0
   45.4520   32.2820   47.0840 N   0  0  0  0  0  0  0  0  0  0  0  0
   46.3800   32.3880   48.1560 C   0  0  0  0  0  0  0  0  0  0  0  0
   47.5710   32.8550   47.9870 N   0  0  0  0  0  0  0  0  0  0  0  0
   45.9840   31.9660   49.4530 N   0  0  0  0  0  0  0  0  0  0  0  0
   44.4340   32.1970   47.2970 H   0  0  0  0  0  0  0  0  0  0  0  0
   48.2770   32.9500   48.7310 H   0  0  0  0  0  0  0  0  0  0  0  0
   45.7070   30.9400   49.5110 H   0  0  0  0  0  0  0  0  0  0  0  0
   45.6870   31.5940   50.3640 H   0  0  0  0  0  0  0  0  0  0  0  0
   46.6970   35.0090   42.4350 C   0  0  0  0  0  0  0  0  0  0  0  0
   47.6890   34.7570   43.3380 F   0  0  0  0  0  0  0  0  0  0  0  0
   46.2910   36.3550   42.6840 F   0  0  0  0  0  0  0  0  0  0  0  0
   47.1600   34.9240   41.1510 F   0  0  0  0  0  0  0  0  0  0  0  0
  1 25  1  0  0  0  0
  1  3  1  0  0  0  0
  2  1  1  0  0  0  0
  4  5  1  1  0  0  0
  4  1  1  0  0  0  0
  6  4  1  0  0  0  0
  6 11  1  0  0  0  0
  7  6  2  0  0  0  0
  8  7  1  0  0  0  0
  8  9  2  0  0  0  0
  9 10  1  0  0  0  0
 10 11  2  0  0  0  0
 10 14  1  0  0  0  0
 12  7  1  0  0  0  0
 13  8  1  0  0  0  0
 14 15  2  0  0  0  0
 15 19  1  0  0  0  0
 16 15  1  0  0  0  0
 17 16  1  0  0  0  0
 18 17  2  0  0  0  0
 18 14  1  0  0  0  0
 20 17  1  0  0  0  0
 21  4  1  0  0  0  0
 22 21  1  0  0  0  0
 23 21  1  0  0  0  0
 24 21  1  0  0  0  0
 25 26  1  0  0  0  0
 26 31  1  0  0  0  0
 27 26  2  0  0  0  0
 27 28  1  0  0  0  0
 28 29  2  0  0  0  0
 29 30  1  0  0  0  0
 30 34  1  0  0  0  0
 31 30  2  0  0  0  0
 32 27  1  0  0  0  0
 33 28  1  0  0  0  0
 34 38  1  0  0  0  0
 34 35  1  0  0  0  0
 35 37  1  0  0  0  0
 36 35  2  0  0  0  0
 36 39  1  0  0  0  0
 37 40  1  0  0  0  0
 37 41  1  0  0  0  0
 42 44  1  0  0  0  0
 42 25  1  0  0  0  0
 42 43  1  0  0  0  0
 45 42  1  0  0  0  0
M  END
>  <minimizedAffinity>
-6.73360634

>  <minimizedRMSD>
0.888503969

$$$$
