
 OpenBabel03232520183D

 40 42  0  0  0  0  0  0  0  0999 V2000
   47.6360   34.1020   42.2200 C   0  0  0  0  0  0  0  0  0  0  0  0
   48.4840   35.2310   41.7090 C   0  0  0  0  0  0  0  0  0  0  0  0
   49.8090   35.3700   42.3330 C   0  0  0  0  0  0  0  0  0  0  0  0
   50.5560   34.0880   42.5310 C   0  0  0  0  0  0  0  0  0  0  0  0
   49.7310   32.8520   42.2590 C   0  0  0  0  0  0  0  0  0  0  0  0
   48.3970   33.0350   42.9550 C   0  0  0  0  0  0  0  0  0  0  0  0
   47.9260   36.1930   41.8840 H   0  0  0  0  0  0  0  0  0  0  0  0
   48.6090   35.1650   40.5980 H   0  0  0  0  0  0  0  0  0  0  0  0
   49.7850   35.8920   43.3130 H   0  0  0  0  0  0  0  0  0  0  0  0
   50.3990   36.0690   41.6710 H   0  0  0  0  0  0  0  0  0  0  0  0
   50.9820   33.9630   43.5490 H   0  0  0  0  0  0  0  0  0  0  0  0
   51.4310   34.0690   41.8340 H   0  0  0  0  0  0  0  0  0  0  0  0
   49.5130   32.7220   41.1730 H   0  0  0  0  0  0  0  0  0  0  0  0
   50.2440   31.9930   42.7090 H   0  0  0  0  0  0  0  0  0  0  0  0
   48.5600   33.2550   44.0310 H   0  0  0  0  0  0  0  0  0  0  0  0
   47.8260   32.0880   42.8580 H   0  0  0  0  0  0  0  0  0  0  0  0
   45.2710   34.4160   45.0470 C   0  0  0  0  0  0  0  0  0  0  0  0
   44.5400   35.5530   44.7220 C   0  0  0  0  0  0  0  0  0  0  0  0
   44.8650   36.2110   43.5320 C   0  0  0  0  0  0  0  0  0  0  0  0
   45.8650   35.7050   42.7700 N   0  0  0  0  0  0  0  0  0  0  0  0
   46.5600   34.5900   43.1170 C   0  0  0  0  0  0  0  0  0  0  0  0
   46.2430   33.9560   44.2710 N   0  0  0  0  0  0  0  0  0  0  0  0
   45.1160   33.8130   45.9470 H   0  0  0  0  0  0  0  0  0  0  0  0
   43.7720   35.8410   45.4230 H   0  0  0  0  0  0  0  0  0  0  0  0
   44.2990   37.0780   43.2970 H   0  0  0  0  0  0  0  0  0  0  0  0
   47.0050   33.4180   41.0220 C   0  0  0  0  0  0  0  0  0  0  0  0
   45.9900   32.5180   40.7670 C   0  0  0  0  0  0  0  0  0  0  0  0
   45.7690   32.1670   39.4930 C   0  0  0  0  0  0  0  0  0  0  0  0
   46.4910   32.6590   38.4800 C   0  0  0  0  0  0  0  0  0  0  0  0
   47.6610   33.7720   39.3730 S   0  0  0  0  0  0  0  0  0  0  0  0
   45.5040   32.2170   41.6800 H   0  0  0  0  0  0  0  0  0  0  0  0
   44.9720   31.4580   39.2830 H   0  0  0  0  0  0  0  0  0  0  0  0
   46.5750   32.5590   37.1010 N   0  0  0  0  0  0  0  0  0  0  0  0
   45.5380   33.1230   36.3340 C   0  0  0  0  0  0  0  0  0  0  0  0
   44.8720   34.1260   36.7940 N   0  0  0  0  0  0  0  0  0  0  0  0
   45.1680   32.6400   35.0410 N   0  0  0  0  0  0  0  0  0  0  0  0
   47.3580   32.0920   36.6000 H   0  0  0  0  0  0  0  0  0  0  0  0
   44.1040   34.5840   36.2890 H   0  0  0  0  0  0  0  0  0  0  0  0
   45.0230   32.2730   34.0760 H   0  0  0  0  0  0  0  0  0  0  0  0
   45.9520   32.3490   34.3900 H   0  0  0  0  0  0  0  0  0  0  0  0
  1  6  1  0  0  0  0
  1 21  1  0  0  0  0
  2  7  1  0  0  0  0
  2  1  1  0  0  0  0
  2  3  1  0  0  0  0
  3  4  1  0  0  0  0
  3  9  1  0  0  0  0
  4 11  1  0  0  0  0
  5  4  1  0  0  0  0
  5 14  1  0  0  0  0
  5  6  1  0  0  0  0
  6 15  1  0  0  0  0
  8  2  1  0  0  0  0
 10  3  1  0  0  0  0
 12  4  1  0  0  0  0
 13  5  1  0  0  0  0
 16  6  1  0  0  0  0
 17 23  1  0  0  0  0
 18 17  1  0  0  0  0
 18 24  1  0  0  0  0
 19 18  2  0  0  0  0
 20 21  2  0  0  0  0
 20 19  1  0  0  0  0
 21 22  1  0  0  0  0
 22 17  2  0  0  0  0
 25 19  1  0  0  0  0
 26  1  1  0  0  0  0
 27 26  2  0  0  0  0
 27 31  1  0  0  0  0
 28 27  1  0  0  0  0
 29 30  1  0  0  0  0
 29 28  2  0  0  0  0
 30 26  1  0  0  0  0
 32 28  1  0  0  0  0
 33 29  1  0  0  0  0
 34 35  2  0  0  0  0
 34 33  1  0  0  0  0
 36 34  1  0  0  0  0
 37 33  1  0  0  0  0
 38 35  1  0  0  0  0
 39 36  1  0  0  0  0
 40 36  1  0  0  0  0
M  END
>  <minimizedAffinity>
-6.4162159

>  <minimizedRMSD>
0.53521955

$$$$
