
 OpenBabel03232519513D

 38 40  0  0  1  0  0  0  0  0999 V2000
   46.2090   33.9250   42.2480 N   0  0  0  0  0  0  0  0  0  0  0  0
   47.5210   34.1510   41.6600 C   0  0  0  0  0  0  0  0  0  0  0  0
   47.1440   34.2200   40.2050 C   0  0  0  0  0  0  0  0  0  0  0  0
   46.2830   32.9900   40.0780 C   0  0  0  0  0  0  0  0  0  0  0  0
   45.5190   32.9870   41.3510 C   0  0  2  0  0  0  0  0  0  0  0  0
   48.2370   33.3350   41.8480 H   0  0  0  0  0  0  0  0  0  0  0  0
   47.8630   35.1540   41.9760 H   0  0  0  0  0  0  0  0  0  0  0  0
   48.0370   34.0720   39.5700 H   0  0  0  0  0  0  0  0  0  0  0  0
   46.6000   35.1460   39.9780 H   0  0  0  0  0  0  0  0  0  0  0  0
   46.9040   32.0910   39.9120 H   0  0  0  0  0  0  0  0  0  0  0  0
   45.5980   33.1080   39.2170 H   0  0  0  0  0  0  0  0  0  0  0  0
   45.7240   31.9840   41.8260 H   0  0  0  0  0  0  0  0  0  0  0  0
   44.5310   36.1680   44.6960 C   0  0  0  0  0  0  0  0  0  0  0  0
   45.0560   35.7010   43.4920 C   0  0  0  0  0  0  0  0  0  0  0  0
   45.6580   34.4590   43.4270 C   0  0  0  0  0  0  0  0  0  0  0  0
   45.7020   33.7380   44.5920 N   0  0  0  0  0  0  0  0  0  0  0  0
   45.1920   34.1930   45.7580 C   0  0  0  0  0  0  0  0  0  0  0  0
   44.6100   35.4050   45.7990 N   0  0  0  0  0  0  0  0  0  0  0  0
   45.3300   33.3050   46.8620 N   0  0  0  0  0  0  0  0  0  0  0  0
   44.0690   37.1450   44.7020 H   0  0  0  0  0  0  0  0  0  0  0  0
   45.0260   36.2570   42.5790 H   0  0  0  0  0  0  0  0  0  0  0  0
   46.3150   33.2100   47.1720 H   0  0  0  0  0  0  0  0  0  0  0  0
   44.5070   32.8320   47.2700 H   0  0  0  0  0  0  0  0  0  0  0  0
   44.1170   33.1930   41.2550 N   0  0  0  0  0  0  0  0  0  0  0  0
   43.5030   34.1420   40.5460 C   0  0  0  0  0  0  0  0  0  0  0  0
   42.1200   34.2730   40.5090 C   0  0  0  0  0  0  0  0  0  0  0  0
   41.3330   33.3890   41.2330 C   0  0  0  0  0  0  0  0  0  0  0  0
   40.0570   33.4670   41.2320 O   0  0  0  0  0  0  0  0  0  0  0  0
   41.9680   32.4410   41.9400 N   0  0  0  0  0  0  0  0  0  0  0  0
   43.2840   32.3640   41.9380 C   0  0  0  0  0  0  0  0  0  0  0  0
   43.7910   31.4380   42.6340 O   0  0  0  0  0  0  0  0  0  0  0  0
   44.1360   34.8300   39.9820 H   0  0  0  0  0  0  0  0  0  0  0  0
   41.3770   31.7770   42.4840 H   0  0  0  0  0  0  0  0  0  0  0  0
   41.4560   35.3300   39.7150 C   0  0  0  0  0  0  0  0  0  0  0  0
   40.6100   35.6980   40.3430 H   0  0  0  0  0  0  0  0  0  0  0  0
   42.2050   36.1290   39.5360 H   0  0  0  0  0  0  0  0  0  0  0  0
   40.8500   34.7210   38.1220 S   0  0  0  0  0  0  0  0  0  0  0  0
   41.0210   33.3250   38.0010 H   0  0  0  0  0  0  0  0  0  0  0  0
  1 15  1  0  0  0  0
  2  6  1  0  0  0  0
  2  7  1  0  0  0  0
  2  1  1  0  0  0  0
  3  2  1  0  0  0  0
  4  3  1  0  0  0  0
  4  5  1  0  0  0  0
  5 12  1  1  0  0  0
  5  1  1  0  0  0  0
  8  3  1  0  0  0  0
  9  3  1  0  0  0  0
 10  4  1  0  0  0  0
 11  4  1  0  0  0  0
 13 20  1  0  0  0  0
 13 18  1  0  0  0  0
 14 13  2  0  0  0  0
 15 14  1  0  0  0  0
 15 16  2  0  0  0  0
 16 17  1  0  0  0  0
 17 18  2  0  0  0  0
 17 19  1  0  0  0  0
 19 22  1  0  0  0  0
 19 23  1  0  0  0  0
 21 14  1  0  0  0  0
 24  5  1  0  0  0  0
 24 30  1  0  0  0  0
 25 24  1  0  0  0  0
 26 25  2  0  0  0  0
 26 27  1  0  0  0  0
 27 29  1  0  0  0  0
 28 27  2  0  0  0  0
 29 33  1  0  0  0  0
 30 29  1  0  0  0  0
 30 31  2  0  0  0  0
 32 25  1  0  0  0  0
 34 35  1  0  0  0  0
 34 26  1  0  0  0  0
 36 34  1  0  0  0  0
 37 34  1  0  0  0  0
 38 37  1  0  0  0  0
M  END
>  <minimizedAffinity>
-5.84820986

>  <minimizedRMSD>
0.264354497

$$$$
