
 OpenBabel03232520593D

 42 45  0  0  1  0  0  0  0  0999 V2000
   45.3480   32.8720   47.4760 C   0  0  0  0  0  0  0  0  0  0  0  0
   45.9080   32.6300   46.2650 C   0  0  0  0  0  0  0  0  0  0  0  0
   46.1930   31.2860   46.0110 C   0  0  0  0  0  0  0  0  0  0  0  0
   45.9360   30.2840   46.8880 N   0  0  0  0  0  0  0  0  0  0  0  0
   45.3610   30.5920   48.1130 C   0  0  0  0  0  0  0  0  0  0  0  0
   45.0840   31.8580   48.3730 N   0  0  0  0  0  0  0  0  0  0  0  0
   45.1180   29.5630   49.0640 N   0  0  0  0  0  0  0  0  0  0  0  0
   45.0920   33.8770   47.7730 H   0  0  0  0  0  0  0  0  0  0  0  0
   44.1620   29.3710   49.4780 H   0  0  0  0  0  0  0  0  0  0  0  0
   45.8900   28.9420   49.3980 H   0  0  0  0  0  0  0  0  0  0  0  0
   46.1530   33.5910   45.2430 C   0  0  2  0  0  0  0  0  0  0  0  0
   44.9450   34.6850   45.4920 C   0  0  0  0  0  0  0  0  0  0  0  0
   44.7170   35.6330   44.4360 C   0  0  0  0  0  0  0  0  0  0  0  0
   45.5120   35.5710   43.2070 C   0  0  1  0  0  0  0  0  0  0  0  0
   46.5630   34.5670   43.1430 C   0  0  0  0  0  0  0  0  0  0  0  0
   46.1160   33.3230   43.8770 C   0  0  0  0  0  0  0  0  0  0  0  0
   46.9260   34.3420   45.5900 H   0  0  0  0  0  0  0  0  0  0  0  0
   44.2700   34.8240   46.3250 H   0  0  0  0  0  0  0  0  0  0  0  0
   43.9520   36.3520   44.5590 H   0  0  0  0  0  0  0  0  0  0  0  0
   45.9380   36.5780   43.0180 H   0  0  0  0  0  0  0  0  0  0  0  0
   47.5470   34.9070   43.5510 H   0  0  0  0  0  0  0  0  0  0  0  0
   46.7880   34.3640   42.0540 H   0  0  0  0  0  0  0  0  0  0  0  0
   46.9600   32.6750   43.5280 H   0  0  0  0  0  0  0  0  0  0  0  0
   45.1560   32.9890   43.4280 H   0  0  0  0  0  0  0  0  0  0  0  0
   44.4890   35.3190   42.0570 C   0  0  0  0  0  0  0  0  0  0  0  0
   43.4140   34.5430   42.4570 F   0  0  0  0  0  0  0  0  0  0  0  0
   43.9710   36.5670   41.7190 F   0  0  0  0  0  0  0  0  0  0  0  0
   45.1480   34.8410   40.9420 F   0  0  0  0  0  0  0  0  0  0  0  0
   46.8450   30.6080   44.9020 C   0  0  0  0  0  0  0  0  0  0  0  0
   46.5120   29.8250   43.8450 C   0  0  0  0  0  0  0  0  0  0  0  0
   47.6930   29.4730   43.1780 C   0  0  0  0  0  0  0  0  0  0  0  0
   48.6770   30.0580   43.8610 N   0  0  0  0  0  0  0  0  0  0  0  0
   48.2040   30.7320   44.8810 N   0  0  0  0  0  0  0  0  0  0  0  0
   45.4690   29.6110   43.6940 H   0  0  0  0  0  0  0  0  0  0  0  0
   47.6640   28.8540   42.3090 H   0  0  0  0  0  0  0  0  0  0  0  0
   50.0650   29.9330   43.4830 C   0  0  0  0  0  0  0  0  0  0  0  0
   50.5030   30.2930   42.2290 C   0  0  0  0  0  3  0  0  0  0  0  0
   51.8200   30.1890   41.8270 C   0  0  0  0  0  3  0  0  0  0  0  0
   52.7050   29.7110   42.7220 N   0  0  0  0  0  0  0  0  0  0  0  0
   52.2750   29.3550   43.9590 C   0  0  0  0  0  0  0  0  0  0  0  0
   53.0530   28.9890   44.5870 H   0  0  0  0  0  0  0  0  0  0  0  0
   50.9820   29.4570   44.3500 N   0  0  0  0  0  0  0  0  0  0  0  0
  1  8  1  0  0  0  0
  1  6  1  0  0  0  0
  2  1  2  0  0  0  0
  3  2  1  0  0  0  0
  3  4  2  0  0  0  0
  4  5  1  0  0  0  0
  5  6  2  0  0  0  0
  5  7  1  0  0  0  0
  7 10  1  0  0  0  0
  7  9  1  0  0  0  0
 11 12  1  0  0  0  0
 11 17  1  1  0  0  0
 11  2  1  0  0  0  0
 12 18  1  0  0  0  0
 13 19  1  0  0  0  0
 13 12  2  0  0  0  0
 14 20  1  6  0  0  0
 14 13  1  0  0  0  0
 15 14  1  0  0  0  0
 15 21  1  0  0  0  0
 15 16  1  0  0  0  0
 16 11  1  0  0  0  0
 22 15  1  0  0  0  0
 23 16  1  0  0  0  0
 24 16  1  0  0  0  0
 25 26  1  0  0  0  0
 25 14  1  0  0  0  0
 27 25  1  0  0  0  0
 28 25  1  0  0  0  0
 29  3  1  0  0  0  0
 30 29  1  0  0  0  0
 31 30  2  0  0  0  0
 31 32  1  0  0  0  0
 32 33  1  0  0  0  0
 33 29  2  0  0  0  0
 34 30  1  0  0  0  0
 35 31  1  0  0  0  0
 36 32  1  0  0  0  0
 36 42  1  0  0  0  0
 37 36  2  0  0  0  0
 38 37  1  0  0  0  0
 38 39  2  0  0  0  0
 39 40  1  0  0  0  0
 40 42  2  0  0  0  0
 40 41  1  0  0  0  0
M  END
>  <minimizedAffinity>
-5.81610203

>  <minimizedRMSD>
0.274745435

$$$$
