
 OpenBabel03232520183D

 36 38  0  0  0  0  0  0  0  0999 V2000
   47.5400   34.1350   42.1720 C   0  0  0  0  0  0  0  0  0  0  0  0
   48.4820   35.2360   41.7810 C   0  0  0  0  0  0  0  0  0  0  0  0
   49.8100   35.1990   42.4170 C   0  0  0  0  0  0  0  0  0  0  0  0
   50.4470   33.8480   42.4580 C   0  0  0  0  0  0  0  0  0  0  0  0
   49.5230   32.7210   42.0670 C   0  0  0  0  0  0  0  0  0  0  0  0
   48.2060   32.9420   42.7980 C   0  0  0  0  0  0  0  0  0  0  0  0
   47.9970   36.2170   41.9990 H   0  0  0  0  0  0  0  0  0  0  0  0
   48.6290   35.2490   40.6740 H   0  0  0  0  0  0  0  0  0  0  0  0
   49.6910   35.5250   43.4780 H   0  0  0  0  0  0  0  0  0  0  0  0
   50.4350   35.9730   41.9300 H   0  0  0  0  0  0  0  0  0  0  0  0
   50.9320   33.6330   43.4300 H   0  0  0  0  0  0  0  0  0  0  0  0
   51.2780   33.8590   41.6980 H   0  0  0  0  0  0  0  0  0  0  0  0
   49.9660   31.7890   42.4780 H   0  0  0  0  0  0  0  0  0  0  0  0
   49.3600   32.6750   40.9910 H   0  0  0  0  0  0  0  0  0  0  0  0
   48.3730   33.0660   43.8690 H   0  0  0  0  0  0  0  0  0  0  0  0
   47.5340   32.0720   42.6380 H   0  0  0  0  0  0  0  0  0  0  0  0
   45.2860   34.4270   45.0980 C   0  0  0  0  0  0  0  0  0  0  0  0
   44.5780   35.5950   44.8370 C   0  0  0  0  0  0  0  0  0  0  0  0
   44.8810   36.2770   43.6620 C   0  0  0  0  0  0  0  0  0  0  0  0
   45.8360   35.7730   42.8440 N   0  0  0  0  0  0  0  0  0  0  0  0
   46.5080   34.6280   43.1310 C   0  0  0  0  0  0  0  0  0  0  0  0
   46.2170   33.9580   44.2770 N   0  0  0  0  0  0  0  0  0  0  0  0
   45.0240   33.9260   46.0200 H   0  0  0  0  0  0  0  0  0  0  0  0
   43.8110   36.0150   45.4760 H   0  0  0  0  0  0  0  0  0  0  0  0
   44.4100   37.1860   43.3440 H   0  0  0  0  0  0  0  0  0  0  0  0
   46.8540   33.6410   40.9230 C   0  0  0  0  0  0  0  0  0  0  0  0
   45.7170   32.9280   40.5910 C   0  0  0  0  0  0  0  0  0  0  0  0
   45.4840   32.7020   39.2870 C   0  0  0  0  0  0  0  0  0  0  0  0
   46.3070   33.1440   38.3240 C   0  0  0  0  0  0  0  0  0  0  0  0
   47.6320   34.0130   39.3180 S   0  0  0  0  0  0  0  0  0  0  0  0
   45.1280   32.6230   41.4430 H   0  0  0  0  0  0  0  0  0  0  0  0
   44.6090   32.1490   38.9630 H   0  0  0  0  0  0  0  0  0  0  0  0
   46.3660   33.0910   36.9100 C   0  0  0  0  0  0  0  0  0  0  0  0
   47.4800   32.6990   36.4870 O   0  0  0  0  0  0  0  0  0  0  0  0
   45.3060   33.4370   36.1160 O   0  0  0  0  0  0  0  0  0  0  0  0
   45.4520   33.5050   35.1040 H   0  0  0  0  0  0  0  0  0  0  0  0
  1  6  1  0  0  0  0
  1 21  1  0  0  0  0
  2  7  1  0  0  0  0
  2  1  1  0  0  0  0
  2  3  1  0  0  0  0
  3  4  1  0  0  0  0
  3  9  1  0  0  0  0
  4 11  1  0  0  0  0
  5  4  1  0  0  0  0
  5 13  1  0  0  0  0
  5  6  1  0  0  0  0
  6 15  1  0  0  0  0
  8  2  1  0  0  0  0
 10  3  1  0  0  0  0
 12  4  1  0  0  0  0
 14  5  1  0  0  0  0
 16  6  1  0  0  0  0
 17 23  1  0  0  0  0
 18 17  1  0  0  0  0
 18 24  1  0  0  0  0
 19 18  2  0  0  0  0
 20 21  2  0  0  0  0
 20 19  1  0  0  0  0
 21 22  1  0  0  0  0
 22 17  2  0  0  0  0
 25 19  1  0  0  0  0
 26  1  1  0  0  0  0
 27 26  2  0  0  0  0
 27 31  1  0  0  0  0
 28 27  1  0  0  0  0
 29 28  2  0  0  0  0
 29 30  1  0  0  0  0
 30 26  1  0  0  0  0
 32 28  1  0  0  0  0
 33 29  1  0  0  0  0
 34 33  2  0  0  0  0
 35 33  1  0  0  0  0
 36 35  1  0  0  0  0
M  END
>  <minimizedAffinity>
-5.97233772

>  <minimizedRMSD>
0.475204498

$$$$
