
 OpenBabel03232520433D

 36 38  0  0  0  0  0  0  0  0999 V2000
   46.4150   34.7070   42.1350 C   0  0  0  0  0  0  0  0  0  0  0  0
   47.7240   35.0680   41.9990 C   0  0  0  0  0  0  0  0  0  0  0  0
   48.4350   34.8370   40.8140 C   0  0  0  0  0  0  0  0  0  0  0  0
   47.7920   34.2150   39.7230 C   0  0  0  0  0  0  0  0  0  0  0  0
   46.4830   33.8630   39.8830 C   0  0  0  0  0  0  0  0  0  0  0  0
   45.8150   34.1070   41.0660 C   0  0  0  0  0  0  0  0  0  0  0  0
   48.3110   35.5490   42.7680 H   0  0  0  0  0  0  0  0  0  0  0  0
   49.4670   35.1200   40.7030 H   0  0  0  0  0  0  0  0  0  0  0  0
   48.3160   34.0250   38.7990 H   0  0  0  0  0  0  0  0  0  0  0  0
   45.9890   33.3850   39.0460 H   0  0  0  0  0  0  0  0  0  0  0  0
   44.4540   33.7180   41.1710 N   0  0  0  0  0  0  0  0  0  0  0  0
   43.6250   34.6540   40.6060 C   0  0  0  0  0  0  0  0  0  0  0  0
   42.2480   34.4790   40.5950 C   0  0  0  0  0  0  0  0  0  0  0  0
   41.7470   33.3280   41.1730 C   0  0  0  0  0  0  0  0  0  0  0  0
   40.5080   33.1000   41.2010 O   0  0  0  0  0  0  0  0  0  0  0  0
   42.5880   32.4300   41.7190 N   0  0  0  0  0  0  0  0  0  0  0  0
   43.9130   32.6120   41.7220 C   0  0  0  0  0  0  0  0  0  0  0  0
   44.7670   31.8400   42.2000 O   0  0  0  0  0  0  0  0  0  0  0  0
   43.9490   35.5710   40.1400 H   0  0  0  0  0  0  0  0  0  0  0  0
   42.2460   31.5400   42.1680 H   0  0  0  0  0  0  0  0  0  0  0  0
   41.3280   35.4810   39.9880 C   0  0  0  0  0  0  0  0  0  0  0  0
   41.7570   36.5070   40.1560 H   0  0  0  0  0  0  0  0  0  0  0  0
   40.3900   35.4610   40.5800 H   0  0  0  0  0  0  0  0  0  0  0  0
   41.1690   35.3170   38.9150 H   0  0  0  0  0  0  0  0  0  0  0  0
   44.4100   36.2700   44.9050 C   0  0  0  0  0  0  0  0  0  0  0  0
   44.9890   36.1120   43.6530 C   0  0  0  0  0  0  0  0  0  0  0  0
   45.7620   34.9840   43.3940 C   0  0  0  0  0  0  0  0  0  0  0  0
   45.9090   34.0890   44.3910 N   0  0  0  0  0  0  0  0  0  0  0  0
   45.3300   34.2710   45.6020 C   0  0  0  0  0  0  0  0  0  0  0  0
   44.5870   35.3500   45.8610 N   0  0  0  0  0  0  0  0  0  0  0  0
   43.8090   37.1470   45.1070 H   0  0  0  0  0  0  0  0  0  0  0  0
   44.8720   36.8260   42.8610 H   0  0  0  0  0  0  0  0  0  0  0  0
   45.5330   33.2600   46.6340 C   0  0  0  0  0  0  0  0  0  0  0  0
   46.2200   32.2310   46.4040 O   0  0  0  0  0  0  0  0  0  0  0  0
   44.9750   33.4020   47.8960 O   0  0  0  0  0  0  0  0  0  0  0  0
   45.3920   33.0140   48.7320 H   0  0  0  0  0  0  0  0  0  0  0  0
  1 27  1  0  0  0  0
  2  1  1  0  0  0  0
  2  7  1  0  0  0  0
  3  2  2  0  0  0  0
  4  5  2  0  0  0  0
  4  3  1  0  0  0  0
  5  6  1  0  0  0  0
  6 11  1  0  0  0  0
  6  1  2  0  0  0  0
  8  3  1  0  0  0  0
  9  4  1  0  0  0  0
 10  5  1  0  0  0  0
 11 17  1  0  0  0  0
 12 11  1  0  0  0  0
 13 12  2  0  0  0  0
 13 14  1  0  0  0  0
 14 15  2  0  0  0  0
 14 16  1  0  0  0  0
 16 17  1  0  0  0  0
 16 20  1  0  0  0  0
 17 18  2  0  0  0  0
 19 12  1  0  0  0  0
 21 22  1  0  0  0  0
 21 23  1  0  0  0  0
 21 13  1  0  0  0  0
 24 21  1  0  0  0  0
 25 31  1  0  0  0  0
 25 30  1  0  0  0  0
 26 25  2  0  0  0  0
 27 26  1  0  0  0  0
 27 28  2  0  0  0  0
 28 29  1  0  0  0  0
 29 30  2  0  0  0  0
 29 33  1  0  0  0  0
 32 26  1  0  0  0  0
 33 35  1  0  0  0  0
 34 33  2  0  0  0  0
 35 36  1  0  0  0  0
M  END
>  <minimizedAffinity>
-7.21574593

>  <minimizedRMSD>
0.102930464

$$$$
