
 OpenBabel03232520593D

 42 45  0  0  1  0  0  0  0  0999 V2000
   45.3360   32.9050   47.5010 C   0  0  0  0  0  0  0  0  0  0  0  0
   45.8980   32.6450   46.2940 C   0  0  0  0  0  0  0  0  0  0  0  0
   46.1800   31.2970   46.0580 C   0  0  0  0  0  0  0  0  0  0  0  0
   45.9190   30.3070   46.9480 N   0  0  0  0  0  0  0  0  0  0  0  0
   45.3420   30.6330   48.1680 C   0  0  0  0  0  0  0  0  0  0  0  0
   45.0680   31.9030   48.4110 N   0  0  0  0  0  0  0  0  0  0  0  0
   45.0940   29.6170   49.1310 N   0  0  0  0  0  0  0  0  0  0  0  0
   45.0830   33.9140   47.7840 H   0  0  0  0  0  0  0  0  0  0  0  0
   44.1370   29.4330   49.5460 H   0  0  0  0  0  0  0  0  0  0  0  0
   45.8630   28.9990   49.4750 H   0  0  0  0  0  0  0  0  0  0  0  0
   46.1480   33.5920   45.2600 C   0  0  2  0  0  0  0  0  0  0  0  0
   44.9450   34.6950   45.4950 C   0  0  0  0  0  0  0  0  0  0  0  0
   44.7220   35.6300   44.4270 C   0  0  0  0  0  0  0  0  0  0  0  0
   45.5170   35.5490   43.1990 C   0  0  1  0  0  0  0  0  0  0  0  0
   46.5630   34.5390   43.1480 C   0  0  0  0  0  0  0  0  0  0  0  0
   46.1090   33.3070   43.8980 C   0  0  0  0  0  0  0  0  0  0  0  0
   46.9250   34.3440   45.5980 H   0  0  0  0  0  0  0  0  0  0  0  0
   44.2710   34.8470   46.3260 H   0  0  0  0  0  0  0  0  0  0  0  0
   43.9610   36.3550   44.5410 H   0  0  0  0  0  0  0  0  0  0  0  0
   45.9480   36.5520   42.9980 H   0  0  0  0  0  0  0  0  0  0  0  0
   47.5490   34.8790   43.5520 H   0  0  0  0  0  0  0  0  0  0  0  0
   46.7870   34.3220   42.0610 H   0  0  0  0  0  0  0  0  0  0  0  0
   46.9510   32.6500   43.5560 H   0  0  0  0  0  0  0  0  0  0  0  0
   45.1480   32.9720   43.4530 H   0  0  0  0  0  0  0  0  0  0  0  0
   44.4930   35.2880   42.0530 C   0  0  0  0  0  0  0  0  0  0  0  0
   43.4320   34.4920   42.4520 F   0  0  0  0  0  0  0  0  0  0  0  0
   43.9530   36.5300   41.7250 F   0  0  0  0  0  0  0  0  0  0  0  0
   45.1550   34.8280   40.9320 F   0  0  0  0  0  0  0  0  0  0  0  0
   46.8330   30.6030   44.9600 C   0  0  0  0  0  0  0  0  0  0  0  0
   46.5000   29.8060   43.9130 C   0  0  0  0  0  0  0  0  0  0  0  0
   47.6810   29.4420   43.2520 C   0  0  0  0  0  0  0  0  0  0  0  0
   48.6650   30.0350   43.9280 N   0  0  0  0  0  0  0  0  0  0  0  0
   48.1920   30.7240   44.9380 N   0  0  0  0  0  0  0  0  0  0  0  0
   45.4560   29.5920   43.7630 H   0  0  0  0  0  0  0  0  0  0  0  0
   47.6520   28.8120   42.3920 H   0  0  0  0  0  0  0  0  0  0  0  0
   50.0530   29.9030   43.5540 C   0  0  0  0  0  0  0  0  0  0  0  0
   50.9550   29.2490   44.3630 C   0  0  0  0  0  3  0  0  0  0  0  0
   52.2890   29.0990   44.0460 C   0  0  0  0  0  3  0  0  0  0  0  0
   52.7110   29.6260   42.8820 N   0  0  0  0  0  0  0  0  0  0  0  0
   51.8250   30.2710   42.0810 C   0  0  0  0  0  0  0  0  0  0  0  0
   52.2610   30.6490   41.1860 H   0  0  0  0  0  0  0  0  0  0  0  0
   50.5160   30.4170   42.3950 N   0  0  0  0  0  0  0  0  0  0  0  0
  1  8  1  0  0  0  0
  1  6  1  0  0  0  0
  2  1  2  0  0  0  0
  3  2  1  0  0  0  0
  3  4  2  0  0  0  0
  4  5  1  0  0  0  0
  5  6  2  0  0  0  0
  5  7  1  0  0  0  0
  7 10  1  0  0  0  0
  7  9  1  0  0  0  0
 11 12  1  0  0  0  0
 11 17  1  1  0  0  0
 11  2  1  0  0  0  0
 12 18  1  0  0  0  0
 13 19  1  0  0  0  0
 13 12  2  0  0  0  0
 14 20  1  6  0  0  0
 14 13  1  0  0  0  0
 15 14  1  0  0  0  0
 15 21  1  0  0  0  0
 15 16  1  0  0  0  0
 16 11  1  0  0  0  0
 22 15  1  0  0  0  0
 23 16  1  0  0  0  0
 24 16  1  0  0  0  0
 25 26  1  0  0  0  0
 25 14  1  0  0  0  0
 27 25  1  0  0  0  0
 28 25  1  0  0  0  0
 29  3  1  0  0  0  0
 30 29  1  0  0  0  0
 31 30  2  0  0  0  0
 31 32  1  0  0  0  0
 32 33  1  0  0  0  0
 33 29  2  0  0  0  0
 34 30  1  0  0  0  0
 35 31  1  0  0  0  0
 36 32  1  0  0  0  0
 36 37  1  0  0  0  0
 38 37  2  0  0  0  0
 39 38  1  0  0  0  0
 40 42  1  0  0  0  0
 40 39  2  0  0  0  0
 41 40  1  0  0  0  0
 42 36  2  0  0  0  0
M  END
>  <minimizedAffinity>
-5.81673956

>  <minimizedRMSD>
0.290362597

$$$$
