
 OpenBabel03232519463D

 38 40  0  0  1  0  0  0  0  0999 V2000
   46.3740   33.9430   42.1060 N   0  0  0  0  0  0  0  0  0  0  0  0
   47.7140   34.1520   41.5640 C   0  0  0  0  0  0  0  0  0  0  0  0
   47.3880   34.2860   40.0950 C   0  0  0  0  0  0  0  0  0  0  0  0
   46.5200   33.0630   39.9050 C   0  0  0  0  0  0  0  0  0  0  0  0
   45.6950   33.0530   41.1510 C   0  0  2  0  0  0  0  0  0  0  0  0
   48.1530   35.0660   41.9940 H   0  0  0  0  0  0  0  0  0  0  0  0
   48.2820   33.2370   41.7890 H   0  0  0  0  0  0  0  0  0  0  0  0
   48.2920   34.2700   39.4540 H   0  0  0  0  0  0  0  0  0  0  0  0
   46.8150   35.2300   39.9800 H   0  0  0  0  0  0  0  0  0  0  0  0
   47.1870   32.1930   39.7730 H   0  0  0  0  0  0  0  0  0  0  0  0
   45.8660   33.1740   39.0060 H   0  0  0  0  0  0  0  0  0  0  0  0
   45.8630   32.0350   41.5930 H   0  0  0  0  0  0  0  0  0  0  0  0
   44.3120   33.3100   40.9990 N   0  0  0  0  0  0  0  0  0  0  0  0
   43.7310   34.2010   40.1960 C   0  0  0  0  0  0  0  0  0  0  0  0
   42.3560   34.3680   40.1280 C   0  0  0  0  0  0  0  0  0  0  0  0
   41.5290   33.5960   40.9110 C   0  0  0  0  0  0  0  0  0  0  0  0
   40.2560   33.7030   40.8950 O   0  0  0  0  0  0  0  0  0  0  0  0
   42.1210   32.6930   41.7260 N   0  0  0  0  0  0  0  0  0  0  0  0
   43.4400   32.5750   41.7500 C   0  0  0  0  0  0  0  0  0  0  0  0
   43.8960   31.6960   42.5510 O   0  0  0  0  0  0  0  0  0  0  0  0
   44.3910   34.8040   39.5820 H   0  0  0  0  0  0  0  0  0  0  0  0
   41.5000   32.1120   42.3160 H   0  0  0  0  0  0  0  0  0  0  0  0
   41.7360   35.3650   39.2270 C   0  0  0  0  0  0  0  0  0  0  0  0
   40.7170   35.0620   38.9030 H   0  0  0  0  0  0  0  0  0  0  0  0
   41.6220   36.3280   39.7870 H   0  0  0  0  0  0  0  0  0  0  0  0
   42.3980   35.6190   38.3730 H   0  0  0  0  0  0  0  0  0  0  0  0
   44.5800   36.1080   44.5240 C   0  0  0  0  0  0  0  0  0  0  0  0
   45.1250   35.6780   43.3120 C   0  0  0  0  0  0  0  0  0  0  0  0
   45.8000   34.4470   43.2690 C   0  0  0  0  0  0  0  0  0  0  0  0
   45.8750   33.7500   44.4340 N   0  0  0  0  0  0  0  0  0  0  0  0
   45.3410   34.1790   45.6030 C   0  0  0  0  0  0  0  0  0  0  0  0
   44.7010   35.3510   45.6350 N   0  0  0  0  0  0  0  0  0  0  0  0
   44.0580   37.0590   44.5560 H   0  0  0  0  0  0  0  0  0  0  0  0
   45.0440   36.2580   42.4160 H   0  0  0  0  0  0  0  0  0  0  0  0
   45.4590   33.3780   46.8170 C   0  0  0  0  0  0  0  0  0  0  0  0
   46.3990   32.5570   46.9410 O   0  0  0  0  0  0  0  0  0  0  0  0
   44.5440   33.5060   47.8510 O   0  0  0  0  0  0  0  0  0  0  0  0
   44.2520   32.6670   48.3570 H   0  0  0  0  0  0  0  0  0  0  0  0
  1 29  1  0  0  0  0
  2  7  1  0  0  0  0
  2  6  1  0  0  0  0
  2  1  1  0  0  0  0
  3  2  1  0  0  0  0
  4  3  1  0  0  0  0
  4  5  1  0  0  0  0
  5 12  1  1  0  0  0
  5  1  1  0  0  0  0
  8  3  1  0  0  0  0
  9  3  1  0  0  0  0
 10  4  1  0  0  0  0
 11  4  1  0  0  0  0
 13  5  1  0  0  0  0
 13 19  1  0  0  0  0
 14 13  1  0  0  0  0
 15 14  2  0  0  0  0
 15 16  1  0  0  0  0
 16 18  1  0  0  0  0
 17 16  2  0  0  0  0
 18 19  1  0  0  0  0
 18 22  1  0  0  0  0
 19 20  2  0  0  0  0
 21 14  1  0  0  0  0
 23 25  1  0  0  0  0
 23 15  1  0  0  0  0
 24 23  1  0  0  0  0
 26 23  1  0  0  0  0
 27 33  1  0  0  0  0
 27 32  1  0  0  0  0
 28 27  2  0  0  0  0
 29 28  1  0  0  0  0
 29 30  2  0  0  0  0
 30 31  1  0  0  0  0
 31 32  2  0  0  0  0
 31 35  1  0  0  0  0
 34 28  1  0  0  0  0
 35 36  2  0  0  0  0
 35 37  1  0  0  0  0
 37 38  1  0  0  0  0
M  END
>  <minimizedAffinity>
-6.35967112

>  <minimizedRMSD>
0.195580691

$$$$
