
 OpenBabel03232521003D

 42 45  0  0  1  0  0  0  0  0999 V2000
   45.3380   32.8960   47.5020 C   0  0  0  0  0  0  0  0  0  0  0  0
   45.9010   32.6400   46.2950 C   0  0  0  0  0  0  0  0  0  0  0  0
   46.1820   31.2930   46.0550 C   0  0  0  0  0  0  0  0  0  0  0  0
   45.9210   30.3000   46.9410 N   0  0  0  0  0  0  0  0  0  0  0  0
   45.3430   30.6220   48.1620 C   0  0  0  0  0  0  0  0  0  0  0  0
   45.0690   31.8910   48.4080 N   0  0  0  0  0  0  0  0  0  0  0  0
   45.0940   29.6040   49.1210 N   0  0  0  0  0  0  0  0  0  0  0  0
   45.0840   33.9040   47.7880 H   0  0  0  0  0  0  0  0  0  0  0  0
   44.1360   29.4180   49.5350 H   0  0  0  0  0  0  0  0  0  0  0  0
   45.8630   28.9840   49.4640 H   0  0  0  0  0  0  0  0  0  0  0  0
   46.1520   33.5900   45.2640 C   0  0  2  0  0  0  0  0  0  0  0  0
   44.9460   34.6900   45.4990 C   0  0  0  0  0  0  0  0  0  0  0  0
   44.7240   35.6290   44.4330 C   0  0  0  0  0  0  0  0  0  0  0  0
   45.5220   35.5520   43.2070 C   0  0  1  0  0  0  0  0  0  0  0  0
   46.5710   34.5440   43.1550 C   0  0  0  0  0  0  0  0  0  0  0  0
   46.1170   33.3090   43.9010 C   0  0  0  0  0  0  0  0  0  0  0  0
   46.9270   34.3420   45.6060 H   0  0  0  0  0  0  0  0  0  0  0  0
   44.2700   34.8400   46.3290 H   0  0  0  0  0  0  0  0  0  0  0  0
   43.9610   36.3520   44.5470 H   0  0  0  0  0  0  0  0  0  0  0  0
   45.9520   36.5560   43.0090 H   0  0  0  0  0  0  0  0  0  0  0  0
   47.5550   34.8840   43.5630 H   0  0  0  0  0  0  0  0  0  0  0  0
   46.7970   34.3300   42.0690 H   0  0  0  0  0  0  0  0  0  0  0  0
   46.9610   32.6540   43.5600 H   0  0  0  0  0  0  0  0  0  0  0  0
   45.1570   32.9730   43.4530 H   0  0  0  0  0  0  0  0  0  0  0  0
   44.5020   35.2920   42.0570 C   0  0  0  0  0  0  0  0  0  0  0  0
   43.4370   34.5010   42.4540 F   0  0  0  0  0  0  0  0  0  0  0  0
   43.9680   36.5350   41.7250 F   0  0  0  0  0  0  0  0  0  0  0  0
   45.1660   34.8270   40.9400 F   0  0  0  0  0  0  0  0  0  0  0  0
   46.8360   30.6020   44.9550 C   0  0  0  0  0  0  0  0  0  0  0  0
   46.5040   29.8100   43.9050 C   0  0  0  0  0  0  0  0  0  0  0  0
   47.6850   29.4470   43.2440 C   0  0  0  0  0  0  0  0  0  0  0  0
   48.6690   30.0360   43.9240 N   0  0  0  0  0  0  0  0  0  0  0  0
   48.1950   30.7220   44.9360 N   0  0  0  0  0  0  0  0  0  0  0  0
   45.4600   29.5970   43.7520 H   0  0  0  0  0  0  0  0  0  0  0  0
   47.6570   28.8200   42.3820 H   0  0  0  0  0  0  0  0  0  0  0  0
   50.0570   29.9030   43.5520 C   0  0  0  0  0  0  0  0  0  0  0  0
   50.9600   29.2540   44.3640 C   0  0  0  0  0  3  0  0  0  0  0  0
   52.2940   29.1040   44.0490 C   0  0  0  0  0  3  0  0  0  0  0  0
   52.7170   29.6270   42.8830 N   0  0  0  0  0  0  0  0  0  0  0  0
   51.8310   30.2670   42.0800 C   0  0  0  0  0  0  0  0  0  0  0  0
   52.2670   30.6420   41.1830 H   0  0  0  0  0  0  0  0  0  0  0  0
   50.5210   30.4130   42.3910 N   0  0  0  0  0  0  0  0  0  0  0  0
  1  8  1  0  0  0  0
  1  6  1  0  0  0  0
  2  1  2  0  0  0  0
  3  2  1  0  0  0  0
  3  4  2  0  0  0  0
  4  5  1  0  0  0  0
  5  6  2  0  0  0  0
  5  7  1  0  0  0  0
  7 10  1  0  0  0  0
  7  9  1  0  0  0  0
 11 12  1  0  0  0  0
 11 17  1  1  0  0  0
 11  2  1  0  0  0  0
 12 18  1  0  0  0  0
 13 19  1  0  0  0  0
 13 12  2  0  0  0  0
 14 20  1  6  0  0  0
 14 13  1  0  0  0  0
 15 14  1  0  0  0  0
 15 21  1  0  0  0  0
 15 16  1  0  0  0  0
 16 11  1  0  0  0  0
 22 15  1  0  0  0  0
 23 16  1  0  0  0  0
 24 16  1  0  0  0  0
 25 26  1  0  0  0  0
 25 14  1  0  0  0  0
 27 25  1  0  0  0  0
 28 25  1  0  0  0  0
 29  3  1  0  0  0  0
 30 29  1  0  0  0  0
 31 30  2  0  0  0  0
 31 32  1  0  0  0  0
 32 33  1  0  0  0  0
 33 29  2  0  0  0  0
 34 30  1  0  0  0  0
 35 31  1  0  0  0  0
 36 32  1  0  0  0  0
 36 37  1  0  0  0  0
 38 37  2  0  0  0  0
 39 38  1  0  0  0  0
 40 42  1  0  0  0  0
 40 39  2  0  0  0  0
 41 40  1  0  0  0  0
 42 36  2  0  0  0  0
M  END
>  <minimizedAffinity>
-5.82328939

>  <minimizedRMSD>
0.228286907

$$$$
