
 OpenBabel03232520363D

 14 14  0  0  0  0  0  0  0  0999 V2000
   44.3950   35.6680   44.3240 C   0  0  0  0  0  0  0  0  0  0  0  0
   44.4870   34.9300   43.1250 C   0  0  0  0  0  0  0  0  0  0  0  0
   45.0400   33.6450   43.1660 C   0  0  0  0  0  0  0  0  0  0  0  0
   45.4640   33.1770   44.3880 N   0  0  0  0  0  0  0  0  0  0  0  0
   45.3570   33.9170   45.5040 C   0  0  0  0  0  0  0  0  0  0  0  0
   44.8340   35.1370   45.4800 N   0  0  0  0  0  0  0  0  0  0  0  0
   43.9560   36.6620   44.2340 H   0  0  0  0  0  0  0  0  0  0  0  0
   45.1170   33.0680   42.2530 H   0  0  0  0  0  0  0  0  0  0  0  0
   43.9080   35.6140   41.5630 S   0  0  0  0  0  0  0  0  0  0  0  0
   44.9840   35.8700   40.6980 H   0  0  0  0  0  0  0  0  0  0  0  0
   45.8300   33.3500   46.7620 C   0  0  0  0  0  0  0  0  0  0  0  0
   45.0410   32.9570   47.6570 O   0  0  0  0  0  0  0  0  0  0  0  0
   47.2060   33.2300   47.0030 O   0  0  0  0  0  0  0  0  0  0  0  0
   47.5960   32.7680   47.8120 H   0  0  0  0  0  0  0  0  0  0  0  0
  1  6  1  0  0  0  0
  2  3  1  0  0  0  0
  2  1  2  0  0  0  0
  3  4  2  0  0  0  0
  4  5  1  0  0  0  0
  5 11  1  0  0  0  0
  6  5  2  0  0  0  0
  7  1  1  0  0  0  0
  8  3  1  0  0  0  0
  9  2  1  0  0  0  0
 10  9  1  0  0  0  0
 11 13  1  0  0  0  0
 11 12  2  0  0  0  0
 13 14  1  0  0  0  0
M  END
>  <minimizedAffinity>
-3.68298674

>  <minimizedRMSD>
0.400118768

$$$$
