
 OpenBabel03232518453D

 23 23  0  0  0  0  0  0  0  0999 V2000
   44.8000   35.3330   44.8510 C   0  0  0  0  0  0  0  0  0  0  0  0
   45.6440   34.8240   43.8890 C   0  0  0  0  0  0  0  0  0  0  0  0
   46.3750   33.6950   44.1890 C   0  0  0  0  0  0  0  0  0  0  0  0
   46.2170   33.1440   45.4340 N   0  0  0  0  0  0  0  0  0  0  0  0
   45.3980   33.6490   46.3510 C   0  0  0  0  0  0  0  0  0  0  0  0
   44.7070   34.7320   46.0410 N   0  0  0  0  0  0  0  0  0  0  0  0
   44.2370   36.2290   44.5770 H   0  0  0  0  0  0  0  0  0  0  0  0
   45.7760   35.4590   42.5580 C   0  0  0  0  0  0  0  0  0  0  0  0
   44.8490   36.5020   42.5030 F   0  0  0  0  0  0  0  0  0  0  0  0
   45.3410   34.6010   41.5480 F   0  0  0  0  0  0  0  0  0  0  0  0
   47.0230   35.8980   42.2740 F   0  0  0  0  0  0  0  0  0  0  0  0
   47.2940   33.0050   43.3440 C   0  0  0  0  0  0  0  0  0  0  0  0
   46.9500   32.2160   42.4200 O   0  0  0  0  0  0  0  0  0  0  0  0
   48.6160   32.8560   43.1260 O   0  0  0  0  0  0  0  0  0  0  0  0
   49.4550   33.5380   42.2720 C   0  0  0  0  0  0  0  0  0  0  0  0
   49.6890   34.9750   42.6980 C   0  0  0  0  0  0  0  0  0  0  0  0
   50.7890   32.9110   42.0460 C   0  0  0  0  0  0  0  0  0  0  0  0
   48.7290   33.6090   40.9450 C   0  0  0  0  0  0  0  0  0  0  0  0
   45.2170   33.1160   47.6170 O   0  0  0  0  0  0  0  0  0  0  0  0
   46.1250   32.2370   48.2260 C   0  0  0  0  0  0  0  0  0  0  0  0
   47.4030   32.7490   48.2300 F   0  0  0  0  0  0  0  0  0  0  0  0
   46.0600   30.9820   47.7070 F   0  0  0  0  0  0  0  0  0  0  0  0
   45.7730   32.1920   49.5890 F   0  0  0  0  0  0  0  0  0  0  0  0
  1  6  1  0  0  0  0
  2  3  1  0  0  0  0
  2  1  2  0  0  0  0
  3  4  2  0  0  0  0
  4  5  1  0  0  0  0
  5 19  1  0  0  0  0
  6  5  2  0  0  0  0
  7  1  1  0  0  0  0
  8  2  1  0  0  0  0
  9  8  1  0  0  0  0
 10  8  1  0  0  0  0
 11  8  1  0  0  0  0
 12  3  1  0  0  0  0
 13 12  2  0  0  0  0
 14 12  1  0  0  0  0
 15 16  1  0  0  0  0
 15 14  1  0  0  0  0
 17 15  1  0  0  0  0
 18 15  1  0  0  0  0
 19 20  1  0  0  0  0
 20 21  1  0  0  0  0
 20 23  1  0  0  0  0
 22 20  1  0  0  0  0
M  END
>  <minimizedAffinity>
-5.6625638

>  <minimizedRMSD>
0.954184711

$$$$
