
 OpenBabel03232520423D

 38 40  0  0  1  0  0  0  0  0999 V2000
   41.5810   35.3620   41.4400 S   0  0  0  0  0  0  0  0  0  0  0  0
   38.5860   33.7060   38.5710 N   0  0  0  0  0  0  0  0  0  0  0  0
   38.4180   34.1950   39.9110 C   0  0  0  0  0  0  0  0  0  0  0  0
   39.5430   33.7470   40.8270 C   0  0  0  0  0  0  0  0  0  0  0  0
   40.8390   34.2520   40.2490 C   0  0  1  0  0  0  0  0  0  0  0  0
   40.6980   34.9030   38.9040 C   0  0  0  0  0  0  0  0  0  0  0  0
   39.8630   34.0270   37.9800 C   0  0  1  0  0  0  0  0  0  0  0  0
   38.3570   32.6690   38.5180 H   0  0  0  0  0  0  0  0  0  0  0  0
   38.3620   35.2900   39.9080 H   0  0  0  0  0  0  0  0  0  0  0  0
   37.4830   33.8040   40.3090 H   0  0  0  0  0  0  0  0  0  0  0  0
   39.3380   34.1360   41.8340 H   0  0  0  0  0  0  0  0  0  0  0  0
   39.4940   32.6410   40.8770 H   0  0  0  0  0  0  0  0  0  0  0  0
   41.4860   33.3590   40.1030 H   0  0  0  0  0  0  0  0  0  0  0  0
   41.7000   34.9430   38.4470 H   0  0  0  0  0  0  0  0  0  0  0  0
   40.2230   35.9010   38.9420 H   0  0  0  0  0  0  0  0  0  0  0  0
   39.7650   34.4890   36.9980 H   0  0  0  0  0  0  0  0  0  0  0  0
   40.6060   32.7220   37.8890 C   0  0  0  0  0  0  0  0  0  0  0  0
   39.9850   31.6320   38.0680 O   0  0  0  0  0  0  0  0  0  0  0  0
   41.9740   32.6580   37.6120 O   0  0  0  0  0  0  0  0  0  0  0  0
   42.3410   31.7610   37.3220 H   0  0  0  0  0  0  0  0  0  0  0  0
   44.0620   35.5620   42.6810 C   0  0  0  0  0  0  0  0  0  0  0  0
   43.3510   35.0770   41.5860 C   0  0  0  0  0  0  0  0  0  0  0  0
   44.0440   34.3820   40.6390 C   0  0  0  0  0  0  0  0  0  0  0  0
   45.3840   34.1680   40.7580 N   0  0  0  0  0  0  0  0  0  0  0  0
   46.0460   34.6570   41.8420 C   0  0  0  0  0  0  0  0  0  0  0  0
   45.3900   35.3530   42.8050 N   0  0  0  0  0  0  0  0  0  0  0  0
   43.5030   36.1120   43.4290 H   0  0  0  0  0  0  0  0  0  0  0  0
   43.5770   33.9710   39.7570 H   0  0  0  0  0  0  0  0  0  0  0  0
   47.4720   34.4780   42.0520 C   0  0  0  0  0  0  0  0  0  0  0  0
   48.3330   35.5200   41.9580 C   0  0  0  0  0  0  0  0  0  0  0  0
   49.6970   35.3670   42.1540 C   0  0  0  0  0  0  0  0  0  0  0  0
   50.2190   34.1230   42.4580 C   0  0  0  0  0  0  0  0  0  0  0  0
   49.3250   33.0790   42.5500 C   0  0  0  0  0  0  0  0  0  0  0  0
   48.0130   33.2700   42.3520 N   0  0  0  0  0  0  0  0  0  0  0  0
   47.9790   36.5160   41.7220 H   0  0  0  0  0  0  0  0  0  0  0  0
   50.3880   36.1920   42.0810 H   0  0  0  0  0  0  0  0  0  0  0  0
   51.2550   33.9210   42.6240 H   0  0  0  0  0  0  0  0  0  0  0  0
   49.6220   32.0530   42.7840 H   0  0  0  0  0  0  0  0  0  0  0  0
  1 22  1  0  0  0  0
  2  3  1  0  0  0  0
  3 10  1  0  0  0  0
  3  4  1  0  0  0  0
  4 12  1  0  0  0  0
  4 11  1  0  0  0  0
  5 13  1  6  0  0  0
  5  4  1  0  0  0  0
  5  1  1  0  0  0  0
  6 15  1  0  0  0  0
  6  5  1  0  0  0  0
  7 16  1  6  0  0  0
  7  2  1  0  0  0  0
  7  6  1  0  0  0  0
  8  2  1  0  0  0  0
  9  3  1  0  0  0  0
 14  6  1  0  0  0  0
 17  7  1  0  0  0  0
 17 18  2  0  0  0  0
 19 17  1  0  0  0  0
 20 19  1  0  0  0  0
 21 26  1  0  0  0  0
 21 27  1  0  0  0  0
 22 21  2  0  0  0  0
 23 24  2  0  0  0  0
 23 22  1  0  0  0  0
 24 25  1  0  0  0  0
 25 29  1  0  0  0  0
 25 26  2  0  0  0  0
 28 23  1  0  0  0  0
 29 34  1  0  0  0  0
 30 29  2  0  0  0  0
 30 31  1  0  0  0  0
 31 32  2  0  0  0  0
 32 33  1  0  0  0  0
 32 37  1  0  0  0  0
 33 38  1  0  0  0  0
 34 33  2  0  0  0  0
 35 30  1  0  0  0  0
 36 31  1  0  0  0  0
M  END
>  <minimizedAffinity>
-5.91418219

>  <minimizedRMSD>
0.371750146

$$$$
