
 OpenBabel03232521003D

 42 45  0  0  1  0  0  0  0  0999 V2000
   45.3500   32.9000   47.4700 C   0  0  0  0  0  0  0  0  0  0  0  0
   45.9060   32.6510   46.2590 C   0  0  0  0  0  0  0  0  0  0  0  0
   46.1920   31.3060   46.0120 C   0  0  0  0  0  0  0  0  0  0  0  0
   45.9400   30.3080   46.8960 N   0  0  0  0  0  0  0  0  0  0  0  0
   45.3690   30.6230   48.1220 C   0  0  0  0  0  0  0  0  0  0  0  0
   45.0920   31.8900   48.3750 N   0  0  0  0  0  0  0  0  0  0  0  0
   45.1300   29.6000   49.0790 N   0  0  0  0  0  0  0  0  0  0  0  0
   45.0940   33.9060   47.7630 H   0  0  0  0  0  0  0  0  0  0  0  0
   44.1760   29.4090   49.4990 H   0  0  0  0  0  0  0  0  0  0  0  0
   45.9040   28.9820   49.4140 H   0  0  0  0  0  0  0  0  0  0  0  0
   46.1470   33.6060   45.2300 C   0  0  2  0  0  0  0  0  0  0  0  0
   44.9400   34.7010   45.4790 C   0  0  0  0  0  0  0  0  0  0  0  0
   44.7070   35.6430   44.4180 C   0  0  0  0  0  0  0  0  0  0  0  0
   45.4960   35.5740   43.1860 C   0  0  1  0  0  0  0  0  0  0  0  0
   46.5470   34.5690   43.1220 C   0  0  0  0  0  0  0  0  0  0  0  0
   46.1030   33.3300   43.8660 C   0  0  0  0  0  0  0  0  0  0  0  0
   46.9220   34.3590   45.5690 H   0  0  0  0  0  0  0  0  0  0  0  0
   44.2690   34.8450   46.3140 H   0  0  0  0  0  0  0  0  0  0  0  0
   43.9420   36.3630   44.5410 H   0  0  0  0  0  0  0  0  0  0  0  0
   45.9210   36.5800   42.9890 H   0  0  0  0  0  0  0  0  0  0  0  0
   47.5330   34.9110   43.5240 H   0  0  0  0  0  0  0  0  0  0  0  0
   46.7660   34.3600   42.0330 H   0  0  0  0  0  0  0  0  0  0  0  0
   46.9460   32.6790   43.5160 H   0  0  0  0  0  0  0  0  0  0  0  0
   45.1410   32.9930   43.4240 H   0  0  0  0  0  0  0  0  0  0  0  0
   44.4670   35.3150   42.0430 C   0  0  0  0  0  0  0  0  0  0  0  0
   43.4000   34.5320   42.4490 F   0  0  0  0  0  0  0  0  0  0  0  0
   43.9390   36.5600   41.7080 F   0  0  0  0  0  0  0  0  0  0  0  0
   45.1230   34.8420   40.9230 F   0  0  0  0  0  0  0  0  0  0  0  0
   46.8410   30.6220   44.9050 C   0  0  0  0  0  0  0  0  0  0  0  0
   46.5050   29.8320   43.8540 C   0  0  0  0  0  0  0  0  0  0  0  0
   47.6840   29.4770   43.1840 C   0  0  0  0  0  0  0  0  0  0  0  0
   48.6700   30.0660   43.8610 N   0  0  0  0  0  0  0  0  0  0  0  0
   48.2000   30.7460   44.8790 N   0  0  0  0  0  0  0  0  0  0  0  0
   45.4620   29.6170   43.7070 H   0  0  0  0  0  0  0  0  0  0  0  0
   47.6530   28.8540   42.3190 H   0  0  0  0  0  0  0  0  0  0  0  0
   50.0560   29.9400   43.4800 C   0  0  0  0  0  0  0  0  0  0  0  0
   50.4930   30.2990   42.2240 C   0  0  0  0  0  3  0  0  0  0  0  0
   51.8060   30.1950   41.8180 C   0  0  0  0  0  3  0  0  0  0  0  0
   52.6930   29.7140   42.7100 N   0  0  0  0  0  0  0  0  0  0  0  0
   52.2670   29.3590   43.9490 C   0  0  0  0  0  0  0  0  0  0  0  0
   53.0470   28.9910   44.5740 H   0  0  0  0  0  0  0  0  0  0  0  0
   50.9760   29.4620   44.3440 N   0  0  0  0  0  0  0  0  0  0  0  0
  1  8  1  0  0  0  0
  1  6  1  0  0  0  0
  2  1  2  0  0  0  0
  3  2  1  0  0  0  0
  3  4  2  0  0  0  0
  4  5  1  0  0  0  0
  5  6  2  0  0  0  0
  5  7  1  0  0  0  0
  7 10  1  0  0  0  0
  7  9  1  0  0  0  0
 11 12  1  0  0  0  0
 11 17  1  1  0  0  0
 11  2  1  0  0  0  0
 12 18  1  0  0  0  0
 13 19  1  0  0  0  0
 13 12  2  0  0  0  0
 14 20  1  6  0  0  0
 14 13  1  0  0  0  0
 15 14  1  0  0  0  0
 15 21  1  0  0  0  0
 15 16  1  0  0  0  0
 16 11  1  0  0  0  0
 22 15  1  0  0  0  0
 23 16  1  0  0  0  0
 24 16  1  0  0  0  0
 25 26  1  0  0  0  0
 25 14  1  0  0  0  0
 27 25  1  0  0  0  0
 28 25  1  0  0  0  0
 29  3  1  0  0  0  0
 30 29  1  0  0  0  0
 31 30  2  0  0  0  0
 31 32  1  0  0  0  0
 32 33  1  0  0  0  0
 33 29  2  0  0  0  0
 34 30  1  0  0  0  0
 35 31  1  0  0  0  0
 36 32  1  0  0  0  0
 36 42  1  0  0  0  0
 37 36  2  0  0  0  0
 38 37  1  0  0  0  0
 38 39  2  0  0  0  0
 39 40  1  0  0  0  0
 40 42  2  0  0  0  0
 40 41  1  0  0  0  0
M  END
>  <minimizedAffinity>
-5.81128263

>  <minimizedRMSD>
0.517637074

$$$$
