
 OpenBabel03232514253D

 30 32  0  0  0  0  0  0  0  0999 V2000
   44.3300   35.5720   44.6140 C   0  0  0  0  0  0  0  0  0  0  0  0
   44.9770   35.3890   43.3870 C   0  0  0  0  0  0  0  0  0  0  0  0
   46.0470   34.4910   43.3510 C   0  0  0  0  0  0  0  0  0  0  0  0
   46.3850   33.8590   44.5080 N   0  0  0  0  0  0  0  0  0  0  0  0
   45.7510   34.0510   45.6670 C   0  0  0  0  0  0  0  0  0  0  0  0
   44.7220   34.9080   45.7230 N   0  0  0  0  0  0  0  0  0  0  0  0
   43.4970   36.2750   44.6280 H   0  0  0  0  0  0  0  0  0  0  0  0
   46.0390   33.5350   46.5740 H   0  0  0  0  0  0  0  0  0  0  0  0
   44.5630   36.1050   42.1620 C   0  0  0  0  0  0  0  0  0  0  0  0
   45.3960   36.2420   41.4760 H   0  0  0  0  0  0  0  0  0  0  0  0
   44.2770   37.1460   42.4930 H   0  0  0  0  0  0  0  0  0  0  0  0
   43.3880   35.4130   41.5070 C   0  0  0  0  0  0  0  0  0  0  0  0
   43.5740   34.6020   40.4170 C   0  0  0  0  0  0  0  0  0  0  0  0
   41.8880   34.0280   40.0160 S   0  0  0  0  0  0  0  0  0  0  0  0
   41.1940   35.0560   41.4930 C   0  0  0  0  0  0  0  0  0  0  0  0
   42.1510   35.5150   41.8930 N   0  0  0  0  0  0  0  0  0  0  0  0
   44.4310   34.2880   39.8340 H   0  0  0  0  0  0  0  0  0  0  0  0
   40.1200   35.2550   41.9710 H   0  0  0  0  0  0  0  0  0  0  0  0
   46.9410   34.1740   41.8730 S   0  0  0  0  0  0  0  0  0  0  0  0
   48.5340   33.7400   41.9730 C   0  0  0  0  0  0  0  0  0  0  0  0
   49.7700   34.0280   42.5390 C   0  0  0  0  0  0  0  0  0  0  0  0
   50.9140   33.3500   42.3140 C   0  0  0  0  0  0  0  0  0  0  0  0
   50.8330   32.2550   41.4220 C   0  0  0  0  0  0  0  0  0  0  0  0
   49.0200   32.2610   40.9320 S   0  0  0  0  0  0  0  0  0  0  0  0
   49.6060   34.8840   43.1740 H   0  0  0  0  0  0  0  0  0  0  0  0
   51.8150   33.6380   42.7880 H   0  0  0  0  0  0  0  0  0  0  0  0
   51.7710   31.3310   40.9420 C   0  0  0  0  0  0  0  0  0  0  0  0
   51.5090   30.1050   40.9180 O   0  0  0  0  0  0  0  0  0  0  0  0
   52.9590   31.8920   40.5180 O   0  0  0  0  0  0  0  0  0  0  0  0
   53.7030   31.2950   40.1520 H   0  0  0  0  0  0  0  0  0  0  0  0
  1  7  1  0  0  0  0
  1  6  1  0  0  0  0
  2  1  2  0  0  0  0
  3  2  1  0  0  0  0
  3  4  2  0  0  0  0
  4  5  1  0  0  0  0
  5  6  2  0  0  0  0
  5  8  1  0  0  0  0
  9 11  1  0  0  0  0
  9  2  1  0  0  0  0
 10  9  1  0  0  0  0
 12 16  1  0  0  0  0
 12  9  1  0  0  0  0
 13 12  2  0  0  0  0
 14 13  1  0  0  0  0
 14 15  1  0  0  0  0
 15 16  2  0  0  0  0
 15 18  1  0  0  0  0
 17 13  1  0  0  0  0
 19 20  1  0  0  0  0
 19  3  1  0  0  0  0
 20 21  2  0  0  0  0
 21 25  1  0  0  0  0
 22 21  1  0  0  0  0
 22 26  1  0  0  0  0
 23 22  2  0  0  0  0
 24 23  1  0  0  0  0
 24 20  1  0  0  0  0
 27 23  1  0  0  0  0
 28 27  2  0  0  0  0
 29 27  1  0  0  0  0
 30 29  1  0  0  0  0
M  END
>  <minimizedAffinity>
-5.32271767

>  <minimizedRMSD>
0.14178516

$$$$
