
 OpenBabel03232520013D

 20 21  0  0  0  0  0  0  0  0999 V2000
   47.9530   34.5670   42.7190 C   0  0  0  0  0  0  0  0  0  0  0  0
   46.7300   35.0850   42.3290 C   0  0  0  0  0  0  0  0  0  0  0  0
   45.5810   34.3870   42.7010 C   0  0  0  0  0  0  0  0  0  0  0  0
   45.7240   33.2450   43.4220 N   0  0  0  0  0  0  0  0  0  0  0  0
   46.9340   32.7760   43.7800 C   0  0  0  0  0  0  0  0  0  0  0  0
   48.0390   33.4370   43.4280 N   0  0  0  0  0  0  0  0  0  0  0  0
   46.6830   35.9940   41.7590 H   0  0  0  0  0  0  0  0  0  0  0  0
   44.5980   34.7440   42.4260 H   0  0  0  0  0  0  0  0  0  0  0  0
   49.1740   35.2960   42.3300 C   0  0  0  0  0  0  0  0  0  0  0  0
   49.1530   36.0240   41.3050 O   0  0  0  0  0  0  0  0  0  0  0  0
   50.3140   35.1610   43.1020 O   0  0  0  0  0  0  0  0  0  0  0  0
   51.2170   35.1890   42.6180 H   0  0  0  0  0  0  0  0  0  0  0  0
   47.1880   31.2760   44.7290 S   0  0  0  0  0  0  0  0  0  0  0  0
   46.7920   31.6170   46.4520 C   0  0  0  0  0  0  0  0  0  0  0  0
   47.5190   31.1500   47.5270 C   0  0  0  0  0  0  0  0  0  0  0  0
   47.0950   31.4950   48.8090 C   0  0  0  0  0  0  0  0  0  0  0  0
   46.0180   32.2510   48.9850 N   0  0  0  0  0  0  0  0  0  0  0  0
   45.3390   32.6850   47.9060 C   0  0  0  0  0  0  0  0  0  0  0  0
   44.4640   33.3040   48.1500 H   0  0  0  0  0  0  0  0  0  0  0  0
   45.6910   32.3920   46.6440 N   0  0  0  0  0  0  0  0  0  0  0  0
  1  6  1  0  0  0  0
  2  3  1  0  0  0  0
  2  1  2  0  0  0  0
  3  4  2  0  0  0  0
  4  5  1  0  0  0  0
  5 13  1  0  0  0  0
  6  5  2  0  0  0  0
  7  2  1  0  0  0  0
  8  3  1  0  0  0  0
  9  1  1  0  0  0  0
  9 11  1  0  0  0  0
 10  9  2  0  0  0  0
 12 11  1  0  0  0  0
 13 14  1  0  0  0  0
 14 20  2  0  0  0  0
 14 15  1  0  0  0  0
 15 16  2  0  0  0  0
 16 17  1  0  0  0  0
 18 19  1  0  0  0  0
 18 17  2  0  0  0  0
 20 18  1  0  0  0  0
M  END
>  <minimizedAffinity>
-4.97373867

>  <minimizedRMSD>
2.72037005

$$$$
