
 OpenBabel03232521003D

 42 45  0  0  1  0  0  0  0  0999 V2000
   45.3320   32.9060   47.5060 C   0  0  0  0  0  0  0  0  0  0  0  0
   45.8980   32.6470   46.3010 C   0  0  0  0  0  0  0  0  0  0  0  0
   46.1820   31.2990   46.0660 C   0  0  0  0  0  0  0  0  0  0  0  0
   45.9200   30.3090   46.9560 N   0  0  0  0  0  0  0  0  0  0  0  0
   45.3390   30.6340   48.1740 C   0  0  0  0  0  0  0  0  0  0  0  0
   45.0630   31.9040   48.4160 N   0  0  0  0  0  0  0  0  0  0  0  0
   45.0890   29.6180   49.1360 N   0  0  0  0  0  0  0  0  0  0  0  0
   45.0760   33.9150   47.7890 H   0  0  0  0  0  0  0  0  0  0  0  0
   44.1310   29.4330   49.5490 H   0  0  0  0  0  0  0  0  0  0  0  0
   45.8590   29.0010   49.4830 H   0  0  0  0  0  0  0  0  0  0  0  0
   46.1500   33.5940   45.2680 C   0  0  2  0  0  0  0  0  0  0  0  0
   44.9440   34.6950   45.4990 C   0  0  0  0  0  0  0  0  0  0  0  0
   44.7230   35.6300   44.4300 C   0  0  0  0  0  0  0  0  0  0  0  0
   45.5220   35.5490   43.2050 C   0  0  1  0  0  0  0  0  0  0  0  0
   46.5710   34.5410   43.1570 C   0  0  0  0  0  0  0  0  0  0  0  0
   46.1160   33.3080   43.9060 C   0  0  0  0  0  0  0  0  0  0  0  0
   46.9250   34.3470   45.6090 H   0  0  0  0  0  0  0  0  0  0  0  0
   44.2670   34.8460   46.3280 H   0  0  0  0  0  0  0  0  0  0  0  0
   43.9600   36.3530   44.5410 H   0  0  0  0  0  0  0  0  0  0  0  0
   45.9520   36.5530   43.0040 H   0  0  0  0  0  0  0  0  0  0  0  0
   47.5540   34.8830   43.5650 H   0  0  0  0  0  0  0  0  0  0  0  0
   46.7980   34.3240   42.0710 H   0  0  0  0  0  0  0  0  0  0  0  0
   46.9600   32.6530   43.5670 H   0  0  0  0  0  0  0  0  0  0  0  0
   45.1570   32.9710   43.4580 H   0  0  0  0  0  0  0  0  0  0  0  0
   44.5020   35.2860   42.0550 C   0  0  0  0  0  0  0  0  0  0  0  0
   43.4400   34.4910   42.4520 F   0  0  0  0  0  0  0  0  0  0  0  0
   43.9640   36.5270   41.7230 F   0  0  0  0  0  0  0  0  0  0  0  0
   45.1680   34.8240   40.9370 F   0  0  0  0  0  0  0  0  0  0  0  0
   46.8400   30.6060   44.9710 C   0  0  0  0  0  0  0  0  0  0  0  0
   46.5100   29.8190   43.9150 C   0  0  0  0  0  0  0  0  0  0  0  0
   47.6930   29.4480   43.2640 C   0  0  0  0  0  0  0  0  0  0  0  0
   48.6770   30.0270   43.9540 N   0  0  0  0  0  0  0  0  0  0  0  0
   48.2000   30.7140   44.9640 N   0  0  0  0  0  0  0  0  0  0  0  0
   45.4660   29.6160   43.7540 H   0  0  0  0  0  0  0  0  0  0  0  0
   47.6680   28.8240   42.3990 H   0  0  0  0  0  0  0  0  0  0  0  0
   50.0670   29.8830   43.5930 C   0  0  0  0  0  0  0  0  0  0  0  0
   50.5600   30.3960   42.4150 C   0  0  0  0  0  3  0  0  0  0  0  0
   51.8800   30.2810   42.0310 C   0  0  0  0  0  3  0  0  0  0  0  0
   52.7130   29.6310   42.8650 N   0  0  0  0  0  0  0  0  0  0  0  0
   52.2300   29.1250   44.0280 C   0  0  0  0  0  0  0  0  0  0  0  0
   52.9710   28.6310   44.6140 H   0  0  0  0  0  0  0  0  0  0  0  0
   50.9340   29.2390   44.4020 N   0  0  0  0  0  0  0  0  0  0  0  0
  1  8  1  0  0  0  0
  1  6  1  0  0  0  0
  2  1  2  0  0  0  0
  3  2  1  0  0  0  0
  3  4  2  0  0  0  0
  4  5  1  0  0  0  0
  5  6  2  0  0  0  0
  5  7  1  0  0  0  0
  7 10  1  0  0  0  0
  7  9  1  0  0  0  0
 11 12  1  0  0  0  0
 11 17  1  1  0  0  0
 11  2  1  0  0  0  0
 12 18  1  0  0  0  0
 13 19  1  0  0  0  0
 13 12  2  0  0  0  0
 14 20  1  6  0  0  0
 14 13  1  0  0  0  0
 15 14  1  0  0  0  0
 15 21  1  0  0  0  0
 15 16  1  0  0  0  0
 16 11  1  0  0  0  0
 22 15  1  0  0  0  0
 23 16  1  0  0  0  0
 24 16  1  0  0  0  0
 25 26  1  0  0  0  0
 25 14  1  0  0  0  0
 27 25  1  0  0  0  0
 28 25  1  0  0  0  0
 29  3  1  0  0  0  0
 30 29  1  0  0  0  0
 31 30  2  0  0  0  0
 31 32  1  0  0  0  0
 32 33  1  0  0  0  0
 33 29  2  0  0  0  0
 34 30  1  0  0  0  0
 35 31  1  0  0  0  0
 36 32  1  0  0  0  0
 36 42  1  0  0  0  0
 37 36  2  0  0  0  0
 38 37  1  0  0  0  0
 38 39  2  0  0  0  0
 39 40  1  0  0  0  0
 40 42  2  0  0  0  0
 40 41  1  0  0  0  0
M  END
>  <minimizedAffinity>
-5.81732941

>  <minimizedRMSD>
0.46825403

$$$$
