
 OpenBabel03232520593D

 42 45  0  0  1  0  0  0  0  0999 V2000
   45.3560   32.9190   47.5200 C   0  0  0  0  0  0  0  0  0  0  0  0
   45.9090   32.6580   46.3110 C   0  0  0  0  0  0  0  0  0  0  0  0
   46.1770   31.3070   46.0710 C   0  0  0  0  0  0  0  0  0  0  0  0
   45.9110   30.3170   46.9610 N   0  0  0  0  0  0  0  0  0  0  0  0
   45.3440   30.6340   48.1850 C   0  0  0  0  0  0  0  0  0  0  0  0
   45.0830   31.9160   48.4310 N   0  0  0  0  0  0  0  0  0  0  0  0
   45.0720   29.6290   49.1420 N   0  0  0  0  0  0  0  0  0  0  0  0
   45.1120   33.9290   47.8090 H   0  0  0  0  0  0  0  0  0  0  0  0
   46.0180   29.2490   49.4170 H   0  0  0  0  0  0  0  0  0  0  0  0
   44.1810   29.2860   49.5350 H   0  0  0  0  0  0  0  0  0  0  0  0
   46.1600   33.6040   45.2760 C   0  0  2  0  0  0  0  0  0  0  0  0
   44.9430   34.6950   45.4980 C   0  0  0  0  0  0  0  0  0  0  0  0
   44.7190   35.6250   44.4260 C   0  0  0  0  0  0  0  0  0  0  0  0
   45.5230   35.5490   43.2050 C   0  0  1  0  0  0  0  0  0  0  0  0
   46.5830   34.5490   43.1660 C   0  0  0  0  0  0  0  0  0  0  0  0
   46.1340   33.3140   43.9140 C   0  0  0  0  0  0  0  0  0  0  0  0
   46.9260   34.3630   45.6100 H   0  0  0  0  0  0  0  0  0  0  0  0
   44.2600   34.8420   46.3250 H   0  0  0  0  0  0  0  0  0  0  0  0
   43.9480   36.3440   44.5330 H   0  0  0  0  0  0  0  0  0  0  0  0
   45.9390   36.5640   43.0010 H   0  0  0  0  0  0  0  0  0  0  0  0
   47.4690   34.9330   43.7300 H   0  0  0  0  0  0  0  0  0  0  0  0
   46.8790   34.3570   42.1160 H   0  0  0  0  0  0  0  0  0  0  0  0
   46.9870   32.6640   43.5840 H   0  0  0  0  0  0  0  0  0  0  0  0
   45.2160   32.8740   43.4760 H   0  0  0  0  0  0  0  0  0  0  0  0
   44.5120   35.2750   42.0510 C   0  0  0  0  0  0  0  0  0  0  0  0
   43.4580   34.4690   42.4420 F   0  0  0  0  0  0  0  0  0  0  0  0
   43.9550   36.5060   41.7160 F   0  0  0  0  0  0  0  0  0  0  0  0
   45.1930   34.8190   40.9370 F   0  0  0  0  0  0  0  0  0  0  0  0
   46.8160   30.6090   44.9670 C   0  0  0  0  0  0  0  0  0  0  0  0
   46.4690   29.8420   43.9020 C   0  0  0  0  0  0  0  0  0  0  0  0
   47.6420   29.4490   43.2500 C   0  0  0  0  0  0  0  0  0  0  0  0
   48.6430   29.9940   43.9440 N   0  0  0  0  0  0  0  0  0  0  0  0
   48.1750   30.6830   44.9600 N   0  0  0  0  0  0  0  0  0  0  0  0
   45.4160   29.6680   43.7410 H   0  0  0  0  0  0  0  0  0  0  0  0
   47.5790   28.8190   42.3600 H   0  0  0  0  0  0  0  0  0  0  0  0
   50.0050   29.8040   43.5640 C   0  0  0  0  0  0  0  0  0  0  0  0
   50.4090   30.5590   42.4670 C   0  0  0  0  0  3  0  0  0  0  0  0
   51.6830   30.5240   41.9400 C   0  0  0  0  0  3  0  0  0  0  0  0
   52.6230   29.6980   42.5210 C   0  0  0  0  0  0  0  0  0  0  0  0
   53.6430   29.6110   42.1700 H   0  0  0  0  0  0  0  0  0  0  0  0
   52.1740   28.9690   43.6080 C   0  0  0  0  0  3  0  0  0  0  0  0
   50.9320   29.0030   44.1240 N   0  0  0  0  0  0  0  0  0  0  0  0
  1  8  1  0  0  0  0
  1  6  1  0  0  0  0
  2  1  2  0  0  0  0
  3  2  1  0  0  0  0
  3  4  2  0  0  0  0
  4  5  1  0  0  0  0
  5  6  2  0  0  0  0
  5  7  1  0  0  0  0
  7  9  1  0  0  0  0
  7 10  1  0  0  0  0
 11 12  1  0  0  0  0
 11 17  1  1  0  0  0
 11  2  1  0  0  0  0
 12 18  1  0  0  0  0
 13 19  1  0  0  0  0
 13 12  2  0  0  0  0
 14 20  1  6  0  0  0
 14 13  1  0  0  0  0
 15 14  1  0  0  0  0
 15 21  1  0  0  0  0
 15 16  1  0  0  0  0
 16 11  1  0  0  0  0
 22 15  1  0  0  0  0
 23 16  1  0  0  0  0
 24 16  1  0  0  0  0
 25 26  1  0  0  0  0
 25 14  1  0  0  0  0
 27 25  1  0  0  0  0
 28 25  1  0  0  0  0
 29  3  1  0  0  0  0
 30 29  1  0  0  0  0
 31 30  2  0  0  0  0
 31 32  1  0  0  0  0
 32 33  1  0  0  0  0
 33 29  2  0  0  0  0
 34 30  1  0  0  0  0
 35 31  1  0  0  0  0
 36 32  1  0  0  0  0
 36 42  1  0  0  0  0
 37 36  2  0  0  0  0
 38 37  1  0  0  0  0
 38 39  2  0  0  0  0
 39 41  1  0  0  0  0
 40 39  1  0  0  0  0
 41 42  2  0  0  0  0
M  END
>  <minimizedAffinity>
-5.84740686

>  <minimizedRMSD>
0.245267972

$$$$
