
 OpenBabel03232521003D

 42 45  0  0  1  0  0  0  0  0999 V2000
   45.3700   32.9250   47.5230 C   0  0  0  0  0  0  0  0  0  0  0  0
   45.9060   32.6550   46.3070 C   0  0  0  0  0  0  0  0  0  0  0  0
   46.1550   31.3020   46.0660 C   0  0  0  0  0  0  0  0  0  0  0  0
   45.8880   30.3160   46.9600 N   0  0  0  0  0  0  0  0  0  0  0  0
   45.3390   30.6410   48.1900 C   0  0  0  0  0  0  0  0  0  0  0  0
   45.0960   31.9250   48.4380 N   0  0  0  0  0  0  0  0  0  0  0  0
   45.0660   29.6400   49.1520 N   0  0  0  0  0  0  0  0  0  0  0  0
   45.1420   33.9380   47.8130 H   0  0  0  0  0  0  0  0  0  0  0  0
   46.0100   29.2490   49.4160 H   0  0  0  0  0  0  0  0  0  0  0  0
   44.1750   29.3080   49.5550 H   0  0  0  0  0  0  0  0  0  0  0  0
   46.1560   33.5970   45.2690 C   0  0  2  0  0  0  0  0  0  0  0  0
   44.9480   34.6970   45.4960 C   0  0  0  0  0  0  0  0  0  0  0  0
   44.7220   35.6260   44.4240 C   0  0  0  0  0  0  0  0  0  0  0  0
   45.5180   35.5420   43.1970 C   0  0  1  0  0  0  0  0  0  0  0  0
   46.5710   34.5350   43.1530 C   0  0  0  0  0  0  0  0  0  0  0  0
   46.1190   33.3050   43.9080 C   0  0  0  0  0  0  0  0  0  0  0  0
   46.9300   34.3520   45.5960 H   0  0  0  0  0  0  0  0  0  0  0  0
   44.2720   34.8500   46.3270 H   0  0  0  0  0  0  0  0  0  0  0  0
   43.9580   36.3500   44.5330 H   0  0  0  0  0  0  0  0  0  0  0  0
   45.9400   36.5530   42.9880 H   0  0  0  0  0  0  0  0  0  0  0  0
   47.4640   34.9140   43.7100 H   0  0  0  0  0  0  0  0  0  0  0  0
   46.8590   34.3380   42.1020 H   0  0  0  0  0  0  0  0  0  0  0  0
   46.9660   32.6480   43.5740 H   0  0  0  0  0  0  0  0  0  0  0  0
   45.1950   32.8690   43.4770 H   0  0  0  0  0  0  0  0  0  0  0  0
   44.4980   35.2720   42.0510 C   0  0  0  0  0  0  0  0  0  0  0  0
   43.4450   34.4660   42.4480 F   0  0  0  0  0  0  0  0  0  0  0  0
   43.9400   36.5040   41.7220 F   0  0  0  0  0  0  0  0  0  0  0  0
   45.1690   34.8170   40.9300 F   0  0  0  0  0  0  0  0  0  0  0  0
   46.7730   30.5950   44.9560 C   0  0  0  0  0  0  0  0  0  0  0  0
   46.4070   29.8100   43.9100 C   0  0  0  0  0  0  0  0  0  0  0  0
   47.5670   29.4200   43.2340 C   0  0  0  0  0  0  0  0  0  0  0  0
   48.5790   29.9830   43.8950 N   0  0  0  0  0  0  0  0  0  0  0  0
   48.1310   30.6800   44.9140 N   0  0  0  0  0  0  0  0  0  0  0  0
   45.3520   29.6250   43.7770 H   0  0  0  0  0  0  0  0  0  0  0  0
   47.4880   28.7770   42.3540 H   0  0  0  0  0  0  0  0  0  0  0  0
   49.9340   29.8000   43.4840 C   0  0  0  0  0  0  0  0  0  0  0  0
   50.3520   30.6650   42.4770 C   0  0  0  0  0  3  0  0  0  0  0  0
   51.6220   30.6550   41.9380 C   0  0  0  0  0  3  0  0  0  0  0  0
   52.5420   29.7430   42.4120 C   0  0  0  0  0  0  0  0  0  0  0  0
   53.5570   29.6690   42.0440 H   0  0  0  0  0  0  0  0  0  0  0  0
   52.0780   28.9060   43.4120 C   0  0  0  0  0  3  0  0  0  0  0  0
   50.8410   28.9140   43.9400 N   0  0  0  0  0  0  0  0  0  0  0  0
  1  8  1  0  0  0  0
  1  6  1  0  0  0  0
  2  1  2  0  0  0  0
  3  2  1  0  0  0  0
  3  4  2  0  0  0  0
  4  5  1  0  0  0  0
  5  6  2  0  0  0  0
  5  7  1  0  0  0  0
  7  9  1  0  0  0  0
  7 10  1  0  0  0  0
 11 12  1  0  0  0  0
 11 17  1  1  0  0  0
 11  2  1  0  0  0  0
 12 18  1  0  0  0  0
 13 19  1  0  0  0  0
 13 12  2  0  0  0  0
 14 20  1  6  0  0  0
 14 13  1  0  0  0  0
 15 14  1  0  0  0  0
 15 21  1  0  0  0  0
 15 16  1  0  0  0  0
 16 11  1  0  0  0  0
 22 15  1  0  0  0  0
 23 16  1  0  0  0  0
 24 16  1  0  0  0  0
 25 26  1  0  0  0  0
 25 14  1  0  0  0  0
 27 25  1  0  0  0  0
 28 25  1  0  0  0  0
 29  3  1  0  0  0  0
 30 29  1  0  0  0  0
 31 32  1  0  0  0  0
 31 30  2  0  0  0  0
 32 33  1  0  0  0  0
 33 29  2  0  0  0  0
 34 30  1  0  0  0  0
 35 31  1  0  0  0  0
 36 32  1  0  0  0  0
 36 42  1  0  0  0  0
 37 36  2  0  0  0  0
 38 39  2  0  0  0  0
 38 37  1  0  0  0  0
 39 41  1  0  0  0  0
 40 39  1  0  0  0  0
 41 42  2  0  0  0  0
M  END
>  <minimizedAffinity>
-5.85541248

>  <minimizedRMSD>
0.159328699

$$$$
