
 OpenBabel03232521003D

 42 45  0  0  1  0  0  0  0  0999 V2000
   45.4040   32.9400   47.5130 C   0  0  0  0  0  0  0  0  0  0  0  0
   45.9050   32.6670   46.2830 C   0  0  0  0  0  0  0  0  0  0  0  0
   46.1210   31.3100   46.0300 C   0  0  0  0  0  0  0  0  0  0  0  0
   45.8580   30.3250   46.9250 N   0  0  0  0  0  0  0  0  0  0  0  0
   45.3460   30.6530   48.1700 C   0  0  0  0  0  0  0  0  0  0  0  0
   45.1340   31.9410   48.4290 N   0  0  0  0  0  0  0  0  0  0  0  0
   45.0770   29.6530   49.1320 N   0  0  0  0  0  0  0  0  0  0  0  0
   45.2030   33.9550   47.8150 H   0  0  0  0  0  0  0  0  0  0  0  0
   46.0200   29.2420   49.3710 H   0  0  0  0  0  0  0  0  0  0  0  0
   44.1900   29.3360   49.5560 H   0  0  0  0  0  0  0  0  0  0  0  0
   46.1470   33.6100   45.2440 C   0  0  2  0  0  0  0  0  0  0  0  0
   44.9400   34.7080   45.4790 C   0  0  0  0  0  0  0  0  0  0  0  0
   44.7070   35.6370   44.4090 C   0  0  0  0  0  0  0  0  0  0  0  0
   45.4950   35.5550   43.1770 C   0  0  1  0  0  0  0  0  0  0  0  0
   46.5480   34.5490   43.1270 C   0  0  0  0  0  0  0  0  0  0  0  0
   46.1020   33.3180   43.8830 C   0  0  0  0  0  0  0  0  0  0  0  0
   46.9220   34.3650   45.5660 H   0  0  0  0  0  0  0  0  0  0  0  0
   44.2690   34.8610   46.3150 H   0  0  0  0  0  0  0  0  0  0  0  0
   43.9420   36.3610   44.5240 H   0  0  0  0  0  0  0  0  0  0  0  0
   45.9140   36.5670   42.9660 H   0  0  0  0  0  0  0  0  0  0  0  0
   47.4440   34.9290   43.6780 H   0  0  0  0  0  0  0  0  0  0  0  0
   46.8290   34.3530   42.0730 H   0  0  0  0  0  0  0  0  0  0  0  0
   46.9480   32.6620   43.5440 H   0  0  0  0  0  0  0  0  0  0  0  0
   45.1760   32.8820   43.4580 H   0  0  0  0  0  0  0  0  0  0  0  0
   44.4670   35.2850   42.0370 C   0  0  0  0  0  0  0  0  0  0  0  0
   43.4170   34.4800   42.4420 F   0  0  0  0  0  0  0  0  0  0  0  0
   43.9090   36.5170   41.7110 F   0  0  0  0  0  0  0  0  0  0  0  0
   45.1320   34.8280   40.9130 F   0  0  0  0  0  0  0  0  0  0  0  0
   46.6980   30.5980   44.9010 C   0  0  0  0  0  0  0  0  0  0  0  0
   46.2970   29.7900   43.8860 C   0  0  0  0  0  0  0  0  0  0  0  0
   47.4300   29.4110   43.1590 C   0  0  0  0  0  0  0  0  0  0  0  0
   48.4620   30.0040   43.7610 N   0  0  0  0  0  0  0  0  0  0  0  0
   48.0510   30.7090   44.7890 N   0  0  0  0  0  0  0  0  0  0  0  0
   45.2410   29.5820   43.8080 H   0  0  0  0  0  0  0  0  0  0  0  0
   47.3200   28.7540   42.2940 H   0  0  0  0  0  0  0  0  0  0  0  0
   49.7980   29.8410   43.2860 C   0  0  0  0  0  0  0  0  0  0  0  0
   50.2680   30.8990   42.5120 C   0  0  0  0  0  3  0  0  0  0  0  0
   51.5300   30.9400   41.9570 C   0  0  0  0  0  3  0  0  0  0  0  0
   52.3880   29.8810   42.1710 C   0  0  0  0  0  0  0  0  0  0  0  0
   53.3930   29.8340   41.7730 H   0  0  0  0  0  0  0  0  0  0  0  0
   51.8750   28.8560   42.9460 C   0  0  0  0  0  3  0  0  0  0  0  0
   50.6450   28.8140   43.4890 N   0  0  0  0  0  0  0  0  0  0  0  0
  1  8  1  0  0  0  0
  1  6  1  0  0  0  0
  2  1  2  0  0  0  0
  3  2  1  0  0  0  0
  3  4  2  0  0  0  0
  4  5  1  0  0  0  0
  5  6  2  0  0  0  0
  5  7  1  0  0  0  0
  7  9  1  0  0  0  0
  7 10  1  0  0  0  0
 11 12  1  0  0  0  0
 11 17  1  1  0  0  0
 11  2  1  0  0  0  0
 12 18  1  0  0  0  0
 13 19  1  0  0  0  0
 13 12  2  0  0  0  0
 14 20  1  6  0  0  0
 14 13  1  0  0  0  0
 15 14  1  0  0  0  0
 15 21  1  0  0  0  0
 15 16  1  0  0  0  0
 16 11  1  0  0  0  0
 22 15  1  0  0  0  0
 23 16  1  0  0  0  0
 24 16  1  0  0  0  0
 25 26  1  0  0  0  0
 25 14  1  0  0  0  0
 27 25  1  0  0  0  0
 28 25  1  0  0  0  0
 29  3  1  0  0  0  0
 30 29  1  0  0  0  0
 31 32  1  0  0  0  0
 31 30  2  0  0  0  0
 32 33  1  0  0  0  0
 33 29  2  0  0  0  0
 34 30  1  0  0  0  0
 35 31  1  0  0  0  0
 36 42  1  0  0  0  0
 36 32  1  0  0  0  0
 37 36  2  0  0  0  0
 38 39  2  0  0  0  0
 38 37  1  0  0  0  0
 39 41  1  0  0  0  0
 40 39  1  0  0  0  0
 41 42  2  0  0  0  0
M  END
>  <minimizedAffinity>
-5.88037157

>  <minimizedRMSD>
0.305214584

$$$$
