
 OpenBabel03232520593D

 42 45  0  0  1  0  0  0  0  0999 V2000
   45.4040   32.9380   47.5140 C   0  0  0  0  0  0  0  0  0  0  0  0
   45.9060   32.6660   46.2850 C   0  0  0  0  0  0  0  0  0  0  0  0
   46.1220   31.3090   46.0310 C   0  0  0  0  0  0  0  0  0  0  0  0
   45.8580   30.3230   46.9250 N   0  0  0  0  0  0  0  0  0  0  0  0
   45.3460   30.6510   48.1700 C   0  0  0  0  0  0  0  0  0  0  0  0
   45.1340   31.9390   48.4300 N   0  0  0  0  0  0  0  0  0  0  0  0
   45.0760   29.6510   49.1320 N   0  0  0  0  0  0  0  0  0  0  0  0
   45.2030   33.9540   47.8160 H   0  0  0  0  0  0  0  0  0  0  0  0
   46.0190   29.2400   49.3720 H   0  0  0  0  0  0  0  0  0  0  0  0
   44.1890   29.3330   49.5560 H   0  0  0  0  0  0  0  0  0  0  0  0
   46.1480   33.6090   45.2460 C   0  0  2  0  0  0  0  0  0  0  0  0
   44.9400   34.7070   45.4810 C   0  0  0  0  0  0  0  0  0  0  0  0
   44.7070   35.6360   44.4110 C   0  0  0  0  0  0  0  0  0  0  0  0
   45.4960   35.5540   43.1790 C   0  0  1  0  0  0  0  0  0  0  0  0
   46.5490   34.5480   43.1280 C   0  0  0  0  0  0  0  0  0  0  0  0
   46.1030   33.3170   43.8850 C   0  0  0  0  0  0  0  0  0  0  0  0
   46.9230   34.3640   45.5680 H   0  0  0  0  0  0  0  0  0  0  0  0
   44.2690   34.8590   46.3160 H   0  0  0  0  0  0  0  0  0  0  0  0
   43.9420   36.3600   44.5250 H   0  0  0  0  0  0  0  0  0  0  0  0
   45.9150   36.5670   42.9680 H   0  0  0  0  0  0  0  0  0  0  0  0
   47.4450   34.9280   43.6800 H   0  0  0  0  0  0  0  0  0  0  0  0
   46.8310   34.3530   42.0750 H   0  0  0  0  0  0  0  0  0  0  0  0
   46.9490   32.6610   43.5450 H   0  0  0  0  0  0  0  0  0  0  0  0
   45.1770   32.8810   43.4590 H   0  0  0  0  0  0  0  0  0  0  0  0
   44.4690   35.2840   42.0390 C   0  0  0  0  0  0  0  0  0  0  0  0
   43.4180   34.4790   42.4430 F   0  0  0  0  0  0  0  0  0  0  0  0
   43.9100   36.5160   41.7130 F   0  0  0  0  0  0  0  0  0  0  0  0
   45.1340   34.8280   40.9150 F   0  0  0  0  0  0  0  0  0  0  0  0
   46.6980   30.5970   44.9010 C   0  0  0  0  0  0  0  0  0  0  0  0
   46.2970   29.7890   43.8870 C   0  0  0  0  0  0  0  0  0  0  0  0
   47.4300   29.4100   43.1600 C   0  0  0  0  0  0  0  0  0  0  0  0
   48.4630   30.0030   43.7620 N   0  0  0  0  0  0  0  0  0  0  0  0
   48.0510   30.7080   44.7910 N   0  0  0  0  0  0  0  0  0  0  0  0
   45.2410   29.5810   43.8090 H   0  0  0  0  0  0  0  0  0  0  0  0
   47.3210   28.7530   42.2940 H   0  0  0  0  0  0  0  0  0  0  0  0
   49.7980   29.8400   43.2870 C   0  0  0  0  0  0  0  0  0  0  0  0
   50.2690   30.8980   42.5130 C   0  0  0  0  0  3  0  0  0  0  0  0
   51.5300   30.9390   41.9570 C   0  0  0  0  0  3  0  0  0  0  0  0
   52.3890   29.8810   42.1730 C   0  0  0  0  0  0  0  0  0  0  0  0
   53.3940   29.8340   41.7740 H   0  0  0  0  0  0  0  0  0  0  0  0
   51.8760   28.8570   42.9480 C   0  0  0  0  0  3  0  0  0  0  0  0
   50.6460   28.8130   43.4900 N   0  0  0  0  0  0  0  0  0  0  0  0
  1  8  1  0  0  0  0
  1  6  1  0  0  0  0
  2  1  2  0  0  0  0
  3  2  1  0  0  0  0
  3  4  2  0  0  0  0
  4  5  1  0  0  0  0
  5  6  2  0  0  0  0
  5  7  1  0  0  0  0
  7  9  1  0  0  0  0
  7 10  1  0  0  0  0
 11 12  1  0  0  0  0
 11 17  1  1  0  0  0
 11  2  1  0  0  0  0
 12 18  1  0  0  0  0
 13 19  1  0  0  0  0
 13 12  2  0  0  0  0
 14 20  1  6  0  0  0
 14 13  1  0  0  0  0
 15 14  1  0  0  0  0
 15 21  1  0  0  0  0
 15 16  1  0  0  0  0
 16 11  1  0  0  0  0
 22 15  1  0  0  0  0
 23 16  1  0  0  0  0
 24 16  1  0  0  0  0
 25 26  1  0  0  0  0
 25 14  1  0  0  0  0
 27 25  1  0  0  0  0
 28 25  1  0  0  0  0
 29  3  1  0  0  0  0
 30 29  1  0  0  0  0
 31 32  1  0  0  0  0
 31 30  2  0  0  0  0
 32 33  1  0  0  0  0
 33 29  2  0  0  0  0
 34 30  1  0  0  0  0
 35 31  1  0  0  0  0
 36 42  1  0  0  0  0
 36 32  1  0  0  0  0
 37 36  2  0  0  0  0
 38 39  2  0  0  0  0
 38 37  1  0  0  0  0
 39 41  1  0  0  0  0
 40 39  1  0  0  0  0
 41 42  2  0  0  0  0
M  END
>  <minimizedAffinity>
-5.88073826

>  <minimizedRMSD>
0.482329786

$$$$
