
 OpenBabel03232516433D

 25 26  0  0  1  0  0  0  0  0999 V2000
   46.0680   35.2240   42.7730 C   0  0  2  0  0  0  0  0  0  0  0  0
   44.9370   36.1430   42.9220 C   0  0  0  0  0  0  0  0  0  0  0  0
   43.8000   35.6300   42.0380 C   0  0  0  0  0  0  0  0  0  0  0  0
   44.2470   34.3060   41.4620 C   0  0  2  0  0  0  0  0  0  0  0  0
   45.7300   34.3960   41.5010 C   0  0  0  0  0  0  0  0  0  0  0  0
   47.0300   35.7530   42.5290 H   0  0  0  0  0  0  0  0  0  0  0  0
   44.4760   36.2760   43.9090 H   0  0  0  0  0  0  0  0  0  0  0  0
   45.1900   37.2130   42.6160 H   0  0  0  0  0  0  0  0  0  0  0  0
   42.8360   35.5690   42.5530 H   0  0  0  0  0  0  0  0  0  0  0  0
   43.7320   36.3330   41.1820 H   0  0  0  0  0  0  0  0  0  0  0  0
   43.9420   33.4370   42.0840 H   0  0  0  0  0  0  0  0  0  0  0  0
   46.1130   34.9950   40.6500 H   0  0  0  0  0  0  0  0  0  0  0  0
   46.2600   33.4260   41.5480 H   0  0  0  0  0  0  0  0  0  0  0  0
   46.2780   34.2330   43.8420 C   0  0  0  0  0  0  0  0  0  0  0  0
   45.5470   34.3500   45.0380 C   0  0  0  0  0  0  0  0  0  0  0  0
   45.7250   33.4000   46.0390 C   0  0  0  0  0  0  0  0  0  0  0  0
   46.6220   32.3900   45.7910 N   0  0  0  0  0  0  0  0  0  0  0  0
   47.3130   32.3080   44.6260 C   0  0  0  0  0  0  0  0  0  0  0  0
   47.1370   33.2240   43.6650 N   0  0  0  0  0  0  0  0  0  0  0  0
   44.8280   35.0820   45.3540 H   0  0  0  0  0  0  0  0  0  0  0  0
   45.2250   33.3790   46.9970 H   0  0  0  0  0  0  0  0  0  0  0  0
   48.0130   31.4990   44.4600 H   0  0  0  0  0  0  0  0  0  0  0  0
   43.7350   34.1630   40.0660 C   0  0  0  0  0  0  0  0  0  0  0  0
   44.1490   33.3670   39.4490 H   0  0  0  0  0  0  0  0  0  0  0  0
   42.8730   34.9050   39.6020 O   0  0  0  0  0  0  0  0  0  0  0  0
  1  6  1  6  0  0  0
  1  2  1  0  0  0  0
  1 14  1  0  0  0  0
  2  7  1  0  0  0  0
  3  9  1  0  0  0  0
  3  2  1  0  0  0  0
  4  5  1  0  0  0  0
  4  3  1  0  0  0  0
  4 11  1  1  0  0  0
  5 13  1  0  0  0  0
  5  1  1  0  0  0  0
  8  2  1  0  0  0  0
 10  3  1  0  0  0  0
 12  5  1  0  0  0  0
 14 15  1  0  0  0  0
 15 20  1  0  0  0  0
 15 16  2  0  0  0  0
 16 21  1  0  0  0  0
 17 16  1  0  0  0  0
 18 17  2  0  0  0  0
 19 14  2  0  0  0  0
 19 18  1  0  0  0  0
 22 18  1  0  0  0  0
 23  4  1  0  0  0  0
 24 23  1  0  0  0  0
 25 23  2  0  0  0  0
M  END
>  <minimizedAffinity>
-3.86160398

>  <minimizedRMSD>
4.63277626

$$$$
