
 OpenBabel03232521003D

 42 45  0  0  1  0  0  0  0  0999 V2000
   45.3440   32.9280   47.4720 C   0  0  0  0  0  0  0  0  0  0  0  0
   45.9010   32.6730   46.2630 C   0  0  0  0  0  0  0  0  0  0  0  0
   46.1840   31.3260   46.0240 C   0  0  0  0  0  0  0  0  0  0  0  0
   45.9310   30.3330   46.9140 N   0  0  0  0  0  0  0  0  0  0  0  0
   45.3600   30.6430   48.1380 C   0  0  0  0  0  0  0  0  0  0  0  0
   45.0830   31.9220   48.3830 N   0  0  0  0  0  0  0  0  0  0  0  0
   45.0990   29.6350   49.0950 N   0  0  0  0  0  0  0  0  0  0  0  0
   45.0890   33.9350   47.7610 H   0  0  0  0  0  0  0  0  0  0  0  0
   46.0490   29.2670   49.3700 H   0  0  0  0  0  0  0  0  0  0  0  0
   44.2120   29.2820   49.4880 H   0  0  0  0  0  0  0  0  0  0  0  0
   46.1400   33.6220   45.2290 C   0  0  2  0  0  0  0  0  0  0  0  0
   44.9330   34.7180   45.4740 C   0  0  0  0  0  0  0  0  0  0  0  0
   44.6970   35.6540   44.4090 C   0  0  0  0  0  0  0  0  0  0  0  0
   45.4820   35.5790   43.1750 C   0  0  1  0  0  0  0  0  0  0  0  0
   46.5350   34.5730   43.1160 C   0  0  0  0  0  0  0  0  0  0  0  0
   46.0920   33.3380   43.8660 C   0  0  0  0  0  0  0  0  0  0  0  0
   46.9160   34.3750   45.5530 H   0  0  0  0  0  0  0  0  0  0  0  0
   44.2640   34.8660   46.3110 H   0  0  0  0  0  0  0  0  0  0  0  0
   43.9320   36.3760   44.5300 H   0  0  0  0  0  0  0  0  0  0  0  0
   45.9010   36.5920   42.9680 H   0  0  0  0  0  0  0  0  0  0  0  0
   47.4330   34.9500   43.6670 H   0  0  0  0  0  0  0  0  0  0  0  0
   46.8140   34.3840   42.0610 H   0  0  0  0  0  0  0  0  0  0  0  0
   46.9360   32.6840   43.5210 H   0  0  0  0  0  0  0  0  0  0  0  0
   45.1650   32.9040   43.4410 H   0  0  0  0  0  0  0  0  0  0  0  0
   44.4520   35.3150   42.0360 C   0  0  0  0  0  0  0  0  0  0  0  0
   43.3890   34.5280   42.4450 F   0  0  0  0  0  0  0  0  0  0  0  0
   43.9110   36.5530   41.7000 F   0  0  0  0  0  0  0  0  0  0  0  0
   45.1110   34.8410   40.9160 F   0  0  0  0  0  0  0  0  0  0  0  0
   46.8320   30.6350   44.9200 C   0  0  0  0  0  0  0  0  0  0  0  0
   46.5020   29.8130   43.8910 C   0  0  0  0  0  0  0  0  0  0  0  0
   47.6770   29.4760   43.2120 C   0  0  0  0  0  0  0  0  0  0  0  0
   48.6610   30.1070   43.8540 N   0  0  0  0  0  0  0  0  0  0  0  0
   48.1830   30.7960   44.8640 N   0  0  0  0  0  0  0  0  0  0  0  0
   45.4580   29.5670   43.7710 H   0  0  0  0  0  0  0  0  0  0  0  0
   47.6270   28.8150   42.3430 H   0  0  0  0  0  0  0  0  0  0  0  0
   50.0200   29.9930   43.4340 C   0  0  0  0  0  0  0  0  0  0  0  0
   50.8450   29.3120   44.3250 C   0  0  0  0  0  3  0  0  0  0  0  0
   52.1900   29.0920   44.1100 C   0  0  0  0  0  3  0  0  0  0  0  0
   52.7660   29.5690   42.9510 C   0  0  0  0  0  0  0  0  0  0  0  0
   53.8120   29.4390   42.7060 H   0  0  0  0  0  0  0  0  0  0  0  0
   51.9060   30.2380   42.0980 C   0  0  0  0  0  3  0  0  0  0  0  0
   50.5950   30.4530   42.3060 N   0  0  0  0  0  0  0  0  0  0  0  0
  1  8  1  0  0  0  0
  1  6  1  0  0  0  0
  2  1  2  0  0  0  0
  3  2  1  0  0  0  0
  3  4  2  0  0  0  0
  4  5  1  0  0  0  0
  5  6  2  0  0  0  0
  5  7  1  0  0  0  0
  7  9  1  0  0  0  0
  7 10  1  0  0  0  0
 11 12  1  0  0  0  0
 11 17  1  1  0  0  0
 11  2  1  0  0  0  0
 12 18  1  0  0  0  0
 13 19  1  0  0  0  0
 13 12  2  0  0  0  0
 14 20  1  6  0  0  0
 14 13  1  0  0  0  0
 15 14  1  0  0  0  0
 15 21  1  0  0  0  0
 15 16  1  0  0  0  0
 16 11  1  0  0  0  0
 22 15  1  0  0  0  0
 23 16  1  0  0  0  0
 24 16  1  0  0  0  0
 25 26  1  0  0  0  0
 25 14  1  0  0  0  0
 27 25  1  0  0  0  0
 28 25  1  0  0  0  0
 29  3  1  0  0  0  0
 30 29  1  0  0  0  0
 31 32  1  0  0  0  0
 31 30  2  0  0  0  0
 32 33  1  0  0  0  0
 33 29  2  0  0  0  0
 34 30  1  0  0  0  0
 35 31  1  0  0  0  0
 36 32  1  0  0  0  0
 36 37  1  0  0  0  0
 38 37  2  0  0  0  0
 39 38  1  0  0  0  0
 40 39  1  0  0  0  0
 41 42  1  0  0  0  0
 41 39  2  0  0  0  0
 42 36  2  0  0  0  0
M  END
>  <minimizedAffinity>
-5.85700989

>  <minimizedRMSD>
0.447128356

$$$$
