
 OpenBabel03232520593D

 42 45  0  0  1  0  0  0  0  0999 V2000
   45.3490   32.8840   47.4970 C   0  0  0  0  0  0  0  0  0  0  0  0
   45.9140   32.6340   46.2900 C   0  0  0  0  0  0  0  0  0  0  0  0
   46.1950   31.2880   46.0450 C   0  0  0  0  0  0  0  0  0  0  0  0
   45.9330   30.2900   46.9270 N   0  0  0  0  0  0  0  0  0  0  0  0
   45.3550   30.5950   48.1490 C   0  0  0  0  0  0  0  0  0  0  0  0
   45.0800   31.8720   48.4000 N   0  0  0  0  0  0  0  0  0  0  0  0
   45.0850   29.5820   49.0980 N   0  0  0  0  0  0  0  0  0  0  0  0
   45.0940   33.8890   47.7900 H   0  0  0  0  0  0  0  0  0  0  0  0
   46.0320   29.2090   49.3780 H   0  0  0  0  0  0  0  0  0  0  0  0
   44.1940   29.2280   49.4830 H   0  0  0  0  0  0  0  0  0  0  0  0
   46.1620   33.5880   45.2630 C   0  0  2  0  0  0  0  0  0  0  0  0
   44.9500   34.6810   45.4990 C   0  0  0  0  0  0  0  0  0  0  0  0
   44.7230   35.6200   44.4360 C   0  0  0  0  0  0  0  0  0  0  0  0
   45.5230   35.5530   43.2110 C   0  0  1  0  0  0  0  0  0  0  0  0
   46.5800   34.5510   43.1590 C   0  0  0  0  0  0  0  0  0  0  0  0
   46.1310   33.3110   43.8990 C   0  0  0  0  0  0  0  0  0  0  0  0
   46.9320   34.3420   45.6000 H   0  0  0  0  0  0  0  0  0  0  0  0
   44.2710   34.8220   46.3290 H   0  0  0  0  0  0  0  0  0  0  0  0
   43.9550   36.3400   44.5510 H   0  0  0  0  0  0  0  0  0  0  0  0
   45.9410   36.5690   43.0140 H   0  0  0  0  0  0  0  0  0  0  0  0
   47.4690   34.9280   43.7230 H   0  0  0  0  0  0  0  0  0  0  0  0
   46.8710   34.3670   42.1070 H   0  0  0  0  0  0  0  0  0  0  0  0
   46.9810   32.6610   43.5600 H   0  0  0  0  0  0  0  0  0  0  0  0
   45.2090   32.8760   43.4600 H   0  0  0  0  0  0  0  0  0  0  0  0
   44.5060   35.2920   42.0590 C   0  0  0  0  0  0  0  0  0  0  0  0
   43.4420   34.5000   42.4520 F   0  0  0  0  0  0  0  0  0  0  0  0
   43.9660   36.5300   41.7230 F   0  0  0  0  0  0  0  0  0  0  0  0
   45.1800   34.8250   40.9440 F   0  0  0  0  0  0  0  0  0  0  0  0
   46.8490   30.6020   44.9420 C   0  0  0  0  0  0  0  0  0  0  0  0
   46.5200   29.8100   43.8890 C   0  0  0  0  0  0  0  0  0  0  0  0
   47.7010   29.4550   43.2280 C   0  0  0  0  0  0  0  0  0  0  0  0
   48.6870   30.0450   43.9050 N   0  0  0  0  0  0  0  0  0  0  0  0
   48.2050   30.7270   44.9180 N   0  0  0  0  0  0  0  0  0  0  0  0
   45.4730   29.5940   43.7410 H   0  0  0  0  0  0  0  0  0  0  0  0
   47.6520   28.8130   42.3460 H   0  0  0  0  0  0  0  0  0  0  0  0
   50.0520   29.9030   43.5120 C   0  0  0  0  0  0  0  0  0  0  0  0
   50.8660   29.2980   44.4650 C   0  0  0  0  0  3  0  0  0  0  0  0
   52.2140   29.0670   44.2850 C   0  0  0  0  0  3  0  0  0  0  0  0
   52.8040   29.4520   43.0980 C   0  0  0  0  0  0  0  0  0  0  0  0
   53.8540   29.3060   42.8780 H   0  0  0  0  0  0  0  0  0  0  0  0
   51.9540   30.0470   42.1850 C   0  0  0  0  0  3  0  0  0  0  0  0
   50.6390   30.2740   42.3580 N   0  0  0  0  0  0  0  0  0  0  0  0
  1  8  1  0  0  0  0
  1  6  1  0  0  0  0
  2  1  2  0  0  0  0
  3  2  1  0  0  0  0
  3  4  2  0  0  0  0
  4  5  1  0  0  0  0
  5  6  2  0  0  0  0
  5  7  1  0  0  0  0
  7  9  1  0  0  0  0
  7 10  1  0  0  0  0
 11 12  1  0  0  0  0
 11 17  1  1  0  0  0
 11  2  1  0  0  0  0
 12 18  1  0  0  0  0
 13 19  1  0  0  0  0
 13 12  2  0  0  0  0
 14 20  1  6  0  0  0
 14 13  1  0  0  0  0
 15 14  1  0  0  0  0
 15 21  1  0  0  0  0
 15 16  1  0  0  0  0
 16 11  1  0  0  0  0
 22 15  1  0  0  0  0
 23 16  1  0  0  0  0
 24 16  1  0  0  0  0
 25 26  1  0  0  0  0
 25 14  1  0  0  0  0
 27 25  1  0  0  0  0
 28 25  1  0  0  0  0
 29  3  1  0  0  0  0
 30 29  1  0  0  0  0
 31 30  2  0  0  0  0
 31 32  1  0  0  0  0
 32 33  1  0  0  0  0
 33 29  2  0  0  0  0
 34 30  1  0  0  0  0
 35 31  1  0  0  0  0
 36 32  1  0  0  0  0
 36 37  1  0  0  0  0
 38 37  2  0  0  0  0
 39 38  1  0  0  0  0
 40 39  1  0  0  0  0
 41 42  1  0  0  0  0
 41 39  2  0  0  0  0
 42 36  2  0  0  0  0
M  END
>  <minimizedAffinity>
-5.83579969

>  <minimizedRMSD>
0.235954836

$$$$
