
 OpenBabel03232519033D

 39 39  0  0  1  0  0  0  0  0999 V2000
   44.3960   35.9160   44.6150 C   0  0  0  0  0  0  0  0  0  0  0  0
   44.3910   35.7150   43.2300 C   0  0  0  0  0  0  0  0  0  0  0  0
   45.2960   34.7270   42.7970 C   0  0  0  0  0  0  0  0  0  0  0  0
   45.4160   33.6840   43.6670 N   0  0  0  0  0  0  0  0  0  0  0  0
   45.4670   33.9130   44.9740 C   0  0  0  0  0  0  0  0  0  0  0  0
   44.9360   35.0520   45.4780 N   0  0  0  0  0  0  0  0  0  0  0  0
   46.0300   32.9860   45.8150 N   0  0  0  0  0  0  0  0  0  0  0  0
   45.4650   32.9430   47.1910 C   0  0  0  0  0  0  0  0  0  0  0  0
   46.3520   32.1850   48.1490 C   0  0  0  0  0  0  0  0  0  0  0  0
   47.5450   31.7450   47.6130 O   0  0  0  0  0  0  0  0  0  0  0  0
   47.2810   31.0520   46.4540 C   0  0  0  0  0  0  0  0  0  0  0  0
   47.1110   32.1500   45.4170 C   0  0  1  0  0  0  0  0  0  0  0  0
   43.8000   36.6420   45.2060 H   0  0  0  0  0  0  0  0  0  0  0  0
   43.6910   36.3580   42.7340 H   0  0  0  0  0  0  0  0  0  0  0  0
   46.2780   35.4060   42.8410 H   0  0  0  0  0  0  0  0  0  0  0  0
   45.2230   34.7020   41.6840 H   0  0  0  0  0  0  0  0  0  0  0  0
   45.3750   33.5990   42.7950 H   0  0  0  0  0  0  0  0  0  0  0  0
   45.1680   33.9430   47.5360 H   0  0  0  0  0  0  0  0  0  0  0  0
   44.5390   32.3450   47.0640 H   0  0  0  0  0  0  0  0  0  0  0  0
   45.8120   31.3640   48.6270 H   0  0  0  0  0  0  0  0  0  0  0  0
   46.6300   32.9260   48.9210 H   0  0  0  0  0  0  0  0  0  0  0  0
   48.2360   30.5170   46.1780 H   0  0  0  0  0  0  0  0  0  0  0  0
   46.4430   30.3530   46.4930 H   0  0  0  0  0  0  0  0  0  0  0  0
   48.0430   32.7710   45.4880 H   0  0  0  0  0  0  0  0  0  0  0  0
   46.7870   31.7960   44.1250 N   0  0  1  0  0  0  0  0  0  0  0  0
   45.5000   31.5010   43.8280 C   0  0  0  0  0  0  0  0  0  0  0  0
   45.4820   31.1820   42.3450 C   0  0  0  0  0  0  0  0  0  0  0  0
   46.8100   31.7880   41.8270 C   0  0  0  0  0  0  0  0  0  0  0  0
   47.3700   32.3940   43.0470 C   0  0  1  0  0  0  0  0  0  0  0  0
   45.6370   30.4450   44.1870 H   0  0  0  0  0  0  0  0  0  0  0  0
   44.5780   31.5330   44.3890 H   0  0  0  0  0  0  0  0  0  0  0  0
   44.6150   31.7280   41.8660 H   0  0  0  0  0  0  0  0  0  0  0  0
   45.3610   30.1550   42.0370 H   0  0  0  0  0  0  0  0  0  0  0  0
   46.6020   32.5120   41.0130 H   0  0  0  0  0  0  0  0  0  0  0  0
   47.3170   30.9660   41.2970 H   0  0  0  0  0  0  0  0  0  0  0  0
   48.1270   31.5320   43.1810 H   0  0  0  0  0  0  0  0  0  0  0  0
   48.6300   33.1590   42.9640 C   0  0  0  0  0  0  0  0  0  0  0  0
   49.6490   32.8930   42.8200 H   0  0  0  0  0  0  0  0  0  0  0  0
   48.6960   34.3510   43.0620 O   0  0  0  0  0  0  0  0  0  0  0  0
  1 13  1  0  0  0  0
  1  6  2  0  0  0  0
  2  1  1  0  0  0  0
  3 15  1  0  0  0  0
  4  5  2  0  0  0  0
  5  6  1  0  0  0  0
  5  7  1  0  0  0  0
  7  8  1  0  0  0  0
  8 18  1  0  0  0  0
  8  9  1  0  0  0  0
  9 20  1  0  0  0  0
  9 21  1  0  0  0  0
 10  9  1  0  0  0  0
 11 23  1  0  0  0  0
 11 10  1  0  0  0  0
 12 24  1  6  0  0  0
 12  7  1  0  0  0  0
 12 11  1  0  0  0  0
 14  2  1  0  0  0  0
 16  3  1  0  0  0  0
 17  4  1  0  0  0  0
 19  8  1  0  0  0  0
 22 11  1  0  0  0  0
 25 26  1  6  0  0  0
 25 12  1  0  0  0  0
 26 30  1  0  0  0  0
 26 31  1  0  0  0  0
 27 26  1  0  0  0  0
 28 27  1  0  0  0  0
 28 29  1  0  0  0  0
 29 36  1  1  0  0  0
 29 25  1  0  0  0  0
 32 27  1  0  0  0  0
 33 27  1  0  0  0  0
 34 28  1  0  0  0  0
 35 28  1  0  0  0  0
 37 29  1  0  0  0  0
 37 39  2  0  0  0  0
 38 37  1  0  0  0  0
M  END
>  <minimizedAffinity>
-4.59924221

>  <minimizedRMSD>
0.823628843

$$$$
