
     RDKit          3D

 29 31  0  0  0  0  0  0  0  0999 V2000
   36.6970   29.9170   49.5140 C   0  0  0  0  0  0  0  0  0  0  0  0
   37.7930   30.3780   48.8020 C   0  0  0  0  0  0  0  0  0  0  0  0
   37.6870   30.7590   47.4830 C   0  0  0  0  0  0  0  0  0  0  0  0
   36.4300   30.6530   46.9380 N   0  0  0  0  0  0  0  0  0  0  0  0
   35.3610   30.2060   47.6330 C   0  0  0  0  0  0  0  0  0  0  0  0
   35.5230   29.8500   48.8990 N   0  0  0  0  0  0  0  0  0  0  0  0
   38.6660   31.3210   46.5910 C   0  0  0  0  0  0  0  0  0  0  0  0
   39.2180   32.5610   46.9570 C   0  0  0  0  0  0  0  0  0  0  0  0
   40.1560   33.2480   46.2200 C   0  0  0  0  0  0  0  0  0  0  0  0
   40.6040   32.7100   45.0370 C   0  0  0  0  0  0  0  0  0  0  0  0
   40.1100   31.5000   44.6080 C   0  0  0  0  0  0  0  0  0  0  0  0
   40.5200   30.9710   43.4180 C   0  0  0  0  0  0  0  0  0  0  0  0
   40.0170   29.7670   42.9230 C   0  0  0  0  0  0  0  0  0  0  0  0
   39.0610   29.1390   43.7300 C   0  0  0  0  0  0  0  0  0  0  0  0
   38.6780   29.7040   44.9200 C   0  0  0  0  0  0  0  0  0  0  0  0
   39.1790   30.8840   45.4020 C   0  0  0  0  0  0  0  0  0  0  0  0
   36.8750   29.5000   50.9370 C   0  0  0  0  0  0  0  0  0  0  0  0
   35.6630   29.1210   51.4700 F   0  0  0  0  0  0  0  0  0  0  0  0
   37.8140   28.4980   50.9680 F   0  0  0  0  0  0  0  0  0  0  0  0
   37.3470   30.5910   51.6420 F   0  0  0  0  0  0  0  0  0  0  0  0
   38.7706   30.4410   49.3023 H   0  0  0  0  0  0  0  0  0  0  0  0
   34.3723   30.1387   47.1556 H   0  0  0  0  0  0  0  0  0  0  0  0
   38.8762   33.0144   47.8991 H   0  0  0  0  0  0  0  0  0  0  0  0
   40.5422   34.2155   46.5733 H   0  0  0  0  0  0  0  0  0  0  0  0
   41.3543   33.2448   44.4360 H   0  0  0  0  0  0  0  0  0  0  0  0
   41.2738   31.5132   42.8283 H   0  0  0  0  0  0  0  0  0  0  0  0
   40.3489   29.3409   41.9647 H   0  0  0  0  0  0  0  0  0  0  0  0
   38.6142   28.1868   43.4080 H   0  0  0  0  0  0  0  0  0  0  0  0
   37.9234   29.1778   45.5231 H   0  0  0  0  0  0  0  0  0  0  0  0
  1 17  1  0
  2  1  2  0
  3  2  1  0
  4  3  2  0
  4  5  1  0
  5  6  2  0
  6  1  1  0
  7  8  2  0
  7  3  1  0
  9  8  1  0
 10  9  2  0
 11 10  1  0
 11 16  2  0
 12 11  1  0
 13 12  2  0
 13 14  1  0
 14 15  2  0
 15 16  1  0
 16  7  1  0
 17 19  1  0
 17 18  1  0
 17 20  1  0
  2 21  1  0
  5 22  1  0
  8 23  1  0
  9 24  1  0
 10 25  1  0
 12 26  1  0
 13 27  1  0
 14 28  1  0
 15 29  1  0
M  END
>  <Score>  (1) 
-7.15717

$$$$
