
     RDKit          3D

 39 43  0  0  1  0  0  0  0  0999 V2000
   38.5140   32.2250   48.0370 C   0  0  2  0  0  0  0  0  0  0  0  0
   38.9260   32.1170   46.6660 C   0  0  0  0  0  0  0  0  0  0  0  0
   39.8370   33.1300   46.3360 C   0  0  0  0  0  0  0  0  0  0  0  0
   40.4870   33.1070   45.0590 C   0  0  0  0  0  0  0  0  0  0  0  0
   40.1610   32.0780   44.2460 N   0  0  0  0  0  0  0  0  0  0  0  0
   39.2690   31.1140   44.6030 C   0  0  0  0  0  0  0  0  0  0  0  0
   38.6670   31.1310   45.7790 N   0  0  0  0  0  0  0  0  0  0  0  0
   38.9960   30.0750   43.6690 N   0  0  0  0  0  0  0  0  0  0  0  0
   37.8160   29.4550   43.4860 C   0  0  0  0  0  0  0  0  0  0  0  0
   37.8610   28.5170   42.5350 N   0  0  0  0  0  0  0  0  0  0  0  0
   39.1390   28.5230   42.0670 C   0  0  0  0  0  0  0  0  0  0  0  0
   39.7210   27.7540   41.0850 C   0  0  0  0  0  0  0  0  0  0  0  0
   41.0270   27.9860   40.8330 N   0  0  0  0  0  0  0  0  0  0  0  0
   41.6990   28.9320   41.5280 C   0  0  0  0  0  0  0  0  0  0  0  0
   41.1140   29.6900   42.5000 N   0  0  0  0  0  0  0  0  0  0  0  0
   39.8250   29.4950   42.7830 C   0  0  0  0  0  0  0  0  0  0  0  0
   37.8930   31.2900   48.9750 C   0  0  0  0  0  0  0  0  0  0  0  0
   38.4240   31.1450   50.1860 N   0  0  0  0  0  0  0  0  0  0  0  0
   37.9260   30.2900   51.1150 C   0  0  0  0  0  0  0  0  0  0  0  0
   36.8580   29.5210   50.8820 N   0  0  0  0  0  0  0  0  0  0  0  0
   36.2500   29.5960   49.6910 C   0  0  0  0  0  0  0  0  0  0  0  0
   35.1470   28.8270   49.3850 C   0  0  0  0  0  0  0  0  0  0  0  0
   34.5160   28.8820   48.1870 C   0  0  0  0  0  0  0  0  0  0  0  0
   35.0430   29.7640   47.2720 C   0  0  0  0  0  0  0  0  0  0  0  0
   36.1420   30.5240   47.5840 C   0  0  0  0  0  0  0  0  0  0  0  0
   36.7920   30.4830   48.7780 C   0  0  0  0  0  0  0  0  0  0  0  0
   38.2160   33.4070   48.5670 O   0  0  0  0  0  0  0  0  0  0  0  0
   39.4830   31.7567   47.8093 H   0  0  0  0  0  0  0  0  0  0  0  0
   40.0514   33.9369   47.0522 H   0  0  0  0  0  0  0  0  0  0  0  0
   41.2085   33.8810   44.7584 H   0  0  0  0  0  0  0  0  0  0  0  0
   36.9086   29.6952   44.0595 H   0  0  0  0  0  0  0  0  0  0  0  0
   39.1520   26.9904   40.5344 H   0  0  0  0  0  0  0  0  0  0  0  0
   42.7623   29.0972   41.2999 H   0  0  0  0  0  0  0  0  0  0  0  0
   38.4197   30.2276   52.0960 H   0  0  0  0  0  0  0  0  0  0  0  0
   34.7612   28.1364   50.1494 H   0  0  0  0  0  0  0  0  0  0  0  0
   33.6373   28.2603   47.9603 H   0  0  0  0  0  0  0  0  0  0  0  0
   34.5783   29.8609   46.2797 H   0  0  0  0  0  0  0  0  0  0  0  0
   36.5233   31.2133   46.8162 H   0  0  0  0  0  0  0  0  0  0  0  0
   38.2330   33.3396   49.5546 H   0  0  0  0  0  0  0  0  0  0  0  0
  1 27  1  0
  1 17  1  0
  2  1  1  0
  3  2  2  0
  4  3  1  0
  5  6  1  0
  5  4  2  0
  6  7  2  0
  7  2  1  0
  8  6  1  0
  9  8  1  0
 10  9  2  0
 11 10  1  0
 11 16  2  0
 12 11  1  0
 13 12  2  0
 13 14  1  0
 14 15  2  0
 15 16  1  0
 16  8  1  0
 17 18  2  0
 18 19  1  0
 20 19  2  0
 21 20  1  0
 22 21  2  0
 23 22  1  0
 24 25  1  0
 24 23  2  0
 25 26  2  0
 26 17  1  0
 26 21  1  0
  1 28  1  1
  3 29  1  0
  4 30  1  0
  9 31  1  0
 12 32  1  0
 14 33  1  0
 19 34  1  0
 22 35  1  0
 23 36  1  0
 24 37  1  0
 25 38  1  0
 27 39  1  0
M  END
>  <Score>  (1) 
-8.09609

$$$$
