
     RDKit          3D

 38 41  0  0  1  0  0  0  0  0999 V2000
   38.6070   32.2430   48.0120 C   0  0  1  0  0  0  0  0  0  0  0  0
   37.9490   31.2870   48.8990 C   0  0  0  0  0  0  0  0  0  0  0  0
   38.4370   31.1050   50.1260 N   0  0  0  0  0  0  0  0  0  0  0  0
   37.8910   30.2370   51.0150 C   0  0  0  0  0  0  0  0  0  0  0  0
   36.8200   29.5000   50.7270 N   0  0  0  0  0  0  0  0  0  0  0  0
   36.2500   29.6120   49.5150 C   0  0  0  0  0  0  0  0  0  0  0  0
   35.1510   28.8560   49.1760 C   0  0  0  0  0  0  0  0  0  0  0  0
   34.5700   28.9480   47.9410 C   0  0  0  0  0  0  0  0  0  0  0  0
   35.1410   29.8370   47.0550 C   0  0  0  0  0  0  0  0  0  0  0  0
   36.2380   30.5760   47.4280 C   0  0  0  0  0  0  0  0  0  0  0  0
   36.8410   30.5030   48.6540 C   0  0  0  0  0  0  0  0  0  0  0  0
   39.0940   32.1670   46.6670 C   0  0  0  0  0  0  0  0  0  0  0  0
   39.6850   33.3790   46.2780 C   0  0  0  0  0  0  0  0  0  0  0  0
   40.3660   33.4720   45.0150 C   0  0  0  0  0  0  0  0  0  0  0  0
   40.3760   32.3330   44.2830 N   0  0  0  0  0  0  0  0  0  0  0  0
   39.7900   31.1770   44.6890 C   0  0  0  0  0  0  0  0  0  0  0  0
   39.1620   31.0920   45.8540 N   0  0  0  0  0  0  0  0  0  0  0  0
   39.8590   30.0060   43.8150 C   0  0  0  0  0  0  0  0  0  0  0  0
   38.9710   28.9780   43.9510 C   0  0  0  0  0  0  0  0  0  0  0  0
   39.0480   27.8790   43.1190 C   0  0  0  0  0  0  0  0  0  0  0  0
   40.0010   27.7590   42.1310 C   0  0  0  0  0  0  0  0  0  0  0  0
   40.9010   28.7920   41.9870 C   0  0  0  0  0  0  0  0  0  0  0  0
   40.8150   29.8890   42.8260 C   0  0  0  0  0  0  0  0  0  0  0  0
   38.2600   33.4160   48.5450 O   0  0  0  0  0  0  0  0  0  0  0  0
   39.5917   31.7871   47.8319 H   0  0  0  0  0  0  0  0  0  0  0  0
   38.3500   30.1387   52.0098 H   0  0  0  0  0  0  0  0  0  0  0  0
   34.7293   28.1605   49.9166 H   0  0  0  0  0  0  0  0  0  0  0  0
   33.6922   28.3437   47.6686 H   0  0  0  0  0  0  0  0  0  0  0  0
   34.7172   29.9550   46.0468 H   0  0  0  0  0  0  0  0  0  0  0  0
   36.6603   31.2741   46.6902 H   0  0  0  0  0  0  0  0  0  0  0  0
   39.6273   34.2567   46.9385 H   0  0  0  0  0  0  0  0  0  0  0  0
   40.8438   34.4004   44.6689 H   0  0  0  0  0  0  0  0  0  0  0  0
   38.1917   29.0255   44.7259 H   0  0  0  0  0  0  0  0  0  0  0  0
   38.3188   27.0659   43.2501 H   0  0  0  0  0  0  0  0  0  0  0  0
   40.0416   26.8719   41.4818 H   0  0  0  0  0  0  0  0  0  0  0  0
   41.6806   28.7452   41.2124 H   0  0  0  0  0  0  0  0  0  0  0  0
   41.5416   30.7051   42.6991 H   0  0  0  0  0  0  0  0  0  0  0  0
   38.2799   33.3486   49.5325 H   0  0  0  0  0  0  0  0  0  0  0  0
  1 24  1  0
  1  2  1  0
  2  3  2  0
  3  4  1  0
  5  4  2  0
  6  5  1  0
  7  6  2  0
  8  7  1  0
  9 10  1  0
  9  8  2  0
 10 11  2  0
 11  2  1  0
 11  6  1  0
 12  1  1  0
 13 12  2  0
 14 13  1  0
 15 16  1  0
 15 14  2  0
 16 17  2  0
 17 12  1  0
 18 19  2  0
 18 16  1  0
 20 19  1  0
 21 20  2  0
 22 21  1  0
 22 23  2  0
 23 18  1  0
  1 25  1  1
  4 26  1  0
  7 27  1  0
  8 28  1  0
  9 29  1  0
 10 30  1  0
 13 31  1  0
 14 32  1  0
 19 33  1  0
 20 34  1  0
 21 35  1  0
 22 36  1  0
 23 37  1  0
 24 38  1  0
M  END
>  <Score>  (1) 
-7.34731

$$$$
