
     RDKit          3D

 43 46  0  0  0  0  0  0  0  0999 V2000
   36.8490   30.7890   46.1020 C   0  0  0  0  0  0  0  0  0  0  0  0
   35.8250   30.0240   46.6640 C   0  0  0  0  0  0  0  0  0  0  0  0
   35.5160   29.9820   47.9870 C   0  0  0  0  0  0  0  0  0  0  0  0
   36.2430   30.7340   48.8780 C   0  0  0  0  0  0  0  0  0  0  0  0
   37.2450   31.4930   48.3980 C   0  0  0  0  0  0  0  0  0  0  0  0
   37.9690   32.2470   49.3030 C   0  0  0  0  0  0  0  0  0  0  0  0
   39.0020   33.0460   48.9040 C   0  0  0  0  0  0  0  0  0  0  0  0
   39.3110   33.0850   47.5530 C   0  0  0  0  0  0  0  0  0  0  0  0
   38.5710   32.3250   46.6920 C   0  0  0  0  0  0  0  0  0  0  0  0
   37.5460   31.5270   47.0590 C   0  0  0  0  0  0  0  0  0  0  0  0
   36.1210   31.2990   42.6150 C   0  0  0  0  0  0  0  0  0  0  0  0
   37.2970   30.9830   41.9230 C   0  0  0  0  0  0  0  0  0  0  0  0
   38.3630   30.5860   42.6640 C   0  0  0  0  0  0  0  0  0  0  0  0
   38.1840   30.5360   43.9650 N   0  0  0  0  0  0  0  0  0  0  0  0
   37.1440   30.8070   44.6850 C   0  0  0  0  0  0  0  0  0  0  0  0
   36.1130   31.1940   43.9510 N   0  0  0  0  0  0  0  0  0  0  0  0
   39.6100   30.2210   42.1150 N   0  0  0  0  0  0  0  0  0  0  0  0
   40.7430   29.9240   42.9100 C   0  0  0  0  0  0  0  0  0  0  0  0
   40.9550   30.6490   43.9670 N   0  0  0  0  0  0  0  0  0  0  0  0
   41.6170   28.8620   42.5660 N   0  0  0  0  0  0  0  0  0  0  0  0
   41.6910   30.5350   44.6510 H   0  0  0  0  0  0  0  0  0  0  0  0
   37.3690   31.0870   40.4520 C   0  0  0  0  0  0  0  0  0  0  0  0
   36.4960   31.9160   39.7810 C   0  0  0  0  0  0  0  0  0  0  0  0
   36.9030   31.7570   38.0510 S   0  0  0  0  0  0  0  0  0  0  0  0
   38.2870   30.5110   38.4760 C   0  0  0  0  0  0  0  0  0  0  0  0
   38.1220   30.5330   39.5680 N   0  0  0  0  0  0  0  0  0  0  0  0
   35.9150   30.6780   50.2160 O   0  0  0  0  0  0  0  0  0  0  0  0
   36.4180   29.6380   51.0350 C   0  0  0  0  0  0  0  0  0  0  0  0
   37.2380   28.7420   50.4170 F   0  0  0  0  0  0  0  0  0  0  0  0
   37.1960   30.2360   52.0260 F   0  0  0  0  0  0  0  0  0  0  0  0
   35.3150   29.0040   51.5910 F   0  0  0  0  0  0  0  0  0  0  0  0
   35.2210   29.4069   45.9826 H   0  0  0  0  0  0  0  0  0  0  0  0
   34.6889   29.3498   48.3422 H   0  0  0  0  0  0  0  0  0  0  0  0
   37.7065   32.2021   50.3703 H   0  0  0  0  0  0  0  0  0  0  0  0
   39.5720   33.6410   49.6328 H   0  0  0  0  0  0  0  0  0  0  0  0
   40.1339   33.7140   47.1825 H   0  0  0  0  0  0  0  0  0  0  0  0
   38.8289   32.3663   45.6235 H   0  0  0  0  0  0  0  0  0  0  0  0
   35.2219   31.6268   42.0727 H   0  0  0  0  0  0  0  0  0  0  0  0
   39.7002   30.1682   41.0903 H   0  0  0  0  0  0  0  0  0  0  0  0
   42.4372   28.6587   43.1550 H   0  0  0  0  0  0  0  0  0  0  0  0
   41.4318   28.2938   41.7271 H   0  0  0  0  0  0  0  0  0  0  0  0
   35.7096   32.5464   40.2216 H   0  0  0  0  0  0  0  0  0  0  0  0
   39.0030   29.9602   37.8483 H   0  0  0  0  0  0  0  0  0  0  0  0
  1  2  2  0
  1 10  1  0
  2  3  1  0
  3  4  2  0
  4 27  1  0
  5  4  1  0
  5  6  2  0
  7  6  1  0
  8  7  2  0
  9 10  2  0
  9  8  1  0
 10  5  1  0
 11 16  2  0
 12 11  1  0
 12 13  2  0
 13 14  1  0
 14 15  2  0
 15  1  1  0
 16 15  1  0
 17 13  1  0
 17 18  1  0
 18 19  2  0
 19 21  1  0
 20 18  1  0
 22 12  1  0
 23 22  2  0
 24 25  1  0
 24 23  1  0
 25 26  2  0
 26 22  1  0
 27 28  1  0
 28 31  1  0
 28 30  1  0
 29 28  1  0
  2 32  1  0
  3 33  1  0
  6 34  1  0
  7 35  1  0
  8 36  1  0
  9 37  1  0
 11 38  1  0
 17 39  1  0
 20 40  1  0
 20 41  1  0
 23 42  1  0
 25 43  1  0
M  END
>  <Score>  (1) 
-7.38544

$$$$
