
     RDKit          3D

 40 43  0  0  1  0  0  0  0  0999 V2000
   38.4860   32.1850   47.9390 C   0  0  1  0  0  0  0  0  0  0  0  0
   37.8780   31.2300   48.8700 C   0  0  0  0  0  0  0  0  0  0  0  0
   38.4250   31.0710   50.0760 N   0  0  0  0  0  0  0  0  0  0  0  0
   37.9310   30.2070   50.9990 C   0  0  0  0  0  0  0  0  0  0  0  0
   36.8580   29.4520   50.7680 N   0  0  0  0  0  0  0  0  0  0  0  0
   36.2340   29.5400   49.5890 C   0  0  0  0  0  0  0  0  0  0  0  0
   35.1240   28.7710   49.2990 C   0  0  0  0  0  0  0  0  0  0  0  0
   34.4850   28.8450   48.0990 C   0  0  0  0  0  0  0  0  0  0  0  0
   35.0060   29.7310   47.1810 C   0  0  0  0  0  0  0  0  0  0  0  0
   36.1120   30.4860   47.4880 C   0  0  0  0  0  0  0  0  0  0  0  0
   36.7710   30.4300   48.6820 C   0  0  0  0  0  0  0  0  0  0  0  0
   38.9250   32.0740   46.5750 C   0  0  0  0  0  0  0  0  0  0  0  0
   39.9050   33.0390   46.2920 C   0  0  0  0  0  0  0  0  0  0  0  0
   40.5880   32.9970   45.0310 C   0  0  0  0  0  0  0  0  0  0  0  0
   40.2230   32.0000   44.1890 N   0  0  0  0  0  0  0  0  0  0  0  0
   39.2660   31.0890   44.5040 C   0  0  0  0  0  0  0  0  0  0  0  0
   38.6290   31.1200   45.6660 N   0  0  0  0  0  0  0  0  0  0  0  0
   38.9440   30.0770   43.5550 N   0  0  0  0  0  0  0  0  0  0  0  0
   37.6760   29.7940   42.9110 C   0  0  0  0  0  0  0  0  0  0  0  0
   37.5920   28.2650   42.8530 C   0  0  0  0  0  0  0  0  0  0  0  0
   38.9860   27.8100   43.3040 C   0  0  0  0  0  0  0  0  0  0  0  0
   39.8000   29.0560   42.9780 C   0  0  0  0  0  0  0  0  0  0  0  0
   38.1440   33.3540   48.4570 O   0  0  0  0  0  0  0  0  0  0  0  0
   39.4816   31.7669   47.7293 H   0  0  0  0  0  0  0  0  0  0  0  0
   38.4351   30.1273   51.9734 H   0  0  0  0  0  0  0  0  0  0  0  0
   34.7438   28.0762   50.0623 H   0  0  0  0  0  0  0  0  0  0  0  0
   33.6006   28.2307   47.8744 H   0  0  0  0  0  0  0  0  0  0  0  0
   34.5321   29.8346   46.1937 H   0  0  0  0  0  0  0  0  0  0  0  0
   36.4905   31.1798   46.7229 H   0  0  0  0  0  0  0  0  0  0  0  0
   40.1465   33.8188   47.0293 H   0  0  0  0  0  0  0  0  0  0  0  0
   41.3624   33.7310   44.7634 H   0  0  0  0  0  0  0  0  0  0  0  0
   36.8430   30.2047   43.5005 H   0  0  0  0  0  0  0  0  0  0  0  0
   37.6098   30.2492   41.9118 H   0  0  0  0  0  0  0  0  0  0  0  0
   36.8159   27.8881   43.5354 H   0  0  0  0  0  0  0  0  0  0  0  0
   37.3217   27.8892   41.8551 H   0  0  0  0  0  0  0  0  0  0  0  0
   39.0101   27.5783   44.3790 H   0  0  0  0  0  0  0  0  0  0  0  0
   39.3458   26.8875   42.8249 H   0  0  0  0  0  0  0  0  0  0  0  0
   40.7894   29.0341   43.4583 H   0  0  0  0  0  0  0  0  0  0  0  0
   40.0285   29.1930   41.9108 H   0  0  0  0  0  0  0  0  0  0  0  0
   38.1613   33.2949   49.4451 H   0  0  0  0  0  0  0  0  0  0  0  0
  1 23  1  0
  1  2  1  0
  2  3  2  0
  3  4  1  0
  5  4  2  0
  6  5  1  0
  7  6  2  0
  8  7  1  0
  9 10  1  0
  9  8  2  0
 10 11  2  0
 11  2  1  0
 11  6  1  0
 12  1  1  0
 13 12  2  0
 14 13  1  0
 15 16  1  0
 15 14  2  0
 16 17  2  0
 17 12  1  0
 18 16  1  0
 19 18  1  0
 20 19  1  0
 20 21  1  0
 22 21  1  0
 22 18  1  0
  1 24  1  1
  4 25  1  0
  7 26  1  0
  8 27  1  0
  9 28  1  0
 10 29  1  0
 13 30  1  0
 14 31  1  0
 19 32  1  0
 19 33  1  0
 20 34  1  0
 20 35  1  0
 21 36  1  0
 21 37  1  0
 22 38  1  0
 22 39  1  0
 23 40  1  0
M  END
>  <Score>  (1) 
-7.18935

$$$$
