
     RDKit          3D

 51 54  0  0  0  0  0  0  0  0999 V2000
   36.2280   31.2130   42.5740 C   0  0  0  0  0  0  0  0  0  0  0  0
   37.4400   30.9750   41.9020 C   0  0  0  0  0  0  0  0  0  0  0  0
   38.5270   30.6690   42.6720 C   0  0  0  0  0  0  0  0  0  0  0  0
   38.3260   30.6290   43.9810 N   0  0  0  0  0  0  0  0  0  0  0  0
   37.2530   30.8320   44.6730 C   0  0  0  0  0  0  0  0  0  0  0  0
   36.2100   31.1280   43.9040 N   0  0  0  0  0  0  0  0  0  0  0  0
   36.9350   30.8120   46.0750 C   0  0  0  0  0  0  0  0  0  0  0  0
   35.9130   30.0390   46.6240 C   0  0  0  0  0  0  0  0  0  0  0  0
   35.5780   29.9880   47.9390 C   0  0  0  0  0  0  0  0  0  0  0  0
   36.2690   30.7390   48.8400 C   0  0  0  0  0  0  0  0  0  0  0  0
   37.2730   31.5110   48.3770 C   0  0  0  0  0  0  0  0  0  0  0  0
   37.9750   32.2740   49.3010 C   0  0  0  0  0  0  0  0  0  0  0  0
   39.0050   33.0820   48.9220 C   0  0  0  0  0  0  0  0  0  0  0  0
   39.3400   33.1280   47.5770 C   0  0  0  0  0  0  0  0  0  0  0  0
   38.6250   32.3620   46.6990 C   0  0  0  0  0  0  0  0  0  0  0  0
   37.5990   31.5490   47.0380 C   0  0  0  0  0  0  0  0  0  0  0  0
   35.9180   30.6770   50.1700 O   0  0  0  0  0  0  0  0  0  0  0  0
   36.4300   29.6520   51.0070 C   0  0  0  0  0  0  0  0  0  0  0  0
   37.2370   28.7390   50.3940 F   0  0  0  0  0  0  0  0  0  0  0  0
   37.2080   30.2620   51.9790 F   0  0  0  0  0  0  0  0  0  0  0  0
   35.3240   29.0260   51.5770 F   0  0  0  0  0  0  0  0  0  0  0  0
   39.8100   30.4040   42.1490 N   0  0  0  0  0  0  0  0  0  0  0  0
   40.8880   29.9630   42.9570 C   0  0  0  0  0  0  0  0  0  0  0  0
   41.0250   30.5020   44.1320 N   0  0  0  0  0  0  0  0  0  0  0  0
   41.7850   28.9630   42.4880 N   0  0  0  0  0  0  0  0  0  0  0  0
   41.7260   30.2640   44.8240 H   0  0  0  0  0  0  0  0  0  0  0  0
   37.5590   31.0380   40.4850 N   0  0  0  0  0  0  0  0  0  0  0  0
   37.9410   32.1110   39.5850 C   0  0  0  0  0  0  0  0  0  0  0  0
   37.0390   32.0770   38.3710 C   0  0  0  0  0  0  0  0  0  0  0  0
   37.3920   30.8990   37.6100 N   0  0  0  0  0  0  0  0  0  0  0  0
   37.8400   29.8080   38.4120 C   0  0  0  0  0  0  0  0  0  0  0  0
   37.2320   29.7760   39.8090 C   0  0  0  0  0  0  0  0  0  0  0  0
   35.3148   31.4638   42.0144 H   0  0  0  0  0  0  0  0  0  0  0  0
   35.3271   29.4163   45.9319 H   0  0  0  0  0  0  0  0  0  0  0  0
   34.7524   29.3431   48.2745 H   0  0  0  0  0  0  0  0  0  0  0  0
   37.6932   32.2251   50.3632 H   0  0  0  0  0  0  0  0  0  0  0  0
   39.5554   33.6811   49.6624 H   0  0  0  0  0  0  0  0  0  0  0  0
   40.1631   33.7669   47.2244 H   0  0  0  0  0  0  0  0  0  0  0  0
   38.9055   32.4107   45.6365 H   0  0  0  0  0  0  0  0  0  0  0  0
   39.9699   30.5362   41.1401 H   0  0  0  0  0  0  0  0  0  0  0  0
   42.5648   28.6503   43.0838 H   0  0  0  0  0  0  0  0  0  0  0  0
   41.6545   28.5518   41.5527 H   0  0  0  0  0  0  0  0  0  0  0  0
   37.8340   33.0784   40.0975 H   0  0  0  0  0  0  0  0  0  0  0  0
   38.9884   31.9820   39.2747 H   0  0  0  0  0  0  0  0  0  0  0  0
   35.9862   32.0216   38.6849 H   0  0  0  0  0  0  0  0  0  0  0  0
   37.1650   32.9862   37.7648 H   0  0  0  0  0  0  0  0  0  0  0  0
   36.5627   30.5938   37.0807 H   0  0  0  0  0  0  0  0  0  0  0  0
   37.5779   28.8709   37.8990 H   0  0  0  0  0  0  0  0  0  0  0  0
   38.9256   29.9312   38.5398 H   0  0  0  0  0  0  0  0  0  0  0  0
   36.1400   29.6653   39.7366 H   0  0  0  0  0  0  0  0  0  0  0  0
   37.6365   28.9261   40.3782 H   0  0  0  0  0  0  0  0  0  0  0  0
  1  6  2  0
  2  1  1  0
  2  3  2  0
  3  4  1  0
  4  5  2  0
  5  7  1  0
  6  5  1  0
  7  8  2  0
  7 16  1  0
  8  9  1  0
  9 10  2  0
 10 17  1  0
 11 10  1  0
 11 12  2  0
 13 12  1  0
 14 13  2  0
 15 16  2  0
 15 14  1  0
 16 11  1  0
 17 18  1  0
 18 21  1  0
 18 20  1  0
 19 18  1  0
 22  3  1  0
 22 23  1  0
 23 24  2  0
 24 26  1  0
 25 23  1  0
 27  2  1  0
 28 27  1  0
 29 28  1  0
 30 29  1  0
 30 31  1  0
 31 32  1  0
 32 27  1  0
  1 33  1  0
  8 34  1  0
  9 35  1  0
 12 36  1  0
 13 37  1  0
 14 38  1  0
 15 39  1  0
 22 40  1  0
 25 41  1  0
 25 42  1  0
 28 43  1  0
 28 44  1  0
 29 45  1  0
 29 46  1  0
 30 47  1  0
 31 48  1  0
 31 49  1  0
 32 50  1  0
 32 51  1  0
M  END
>  <Score>  (1) 
-7.44872

$$$$
