
     RDKit          3D

 41 45  0  0  1  0  0  0  0  0999 V2000
   37.6860   31.6370   48.4030 C   0  0  2  0  0  0  0  0  0  0  0  0
   38.0560   31.3790   49.8000 C   0  0  0  0  0  0  0  0  0  0  0  0
   37.6600   30.2350   48.8160 C   0  0  1  0  0  0  0  0  0  0  0  0
   36.3870   29.6110   49.0060 N   0  0  0  0  0  0  0  0  0  0  0  0
   36.2410   28.8440   50.1120 C   0  0  0  0  0  0  0  0  0  0  0  0
   34.9730   28.3510   50.0990 N   0  0  0  0  0  0  0  0  0  0  0  0
   34.3440   28.8080   48.9970 C   0  0  0  0  0  0  0  0  0  0  0  0
   33.0970   28.6490   48.4760 C   0  0  0  0  0  0  0  0  0  0  0  0
   32.2800   27.9350   49.0850 O   0  0  0  0  0  0  0  0  0  0  0  0
   32.7670   29.2580   47.3190 N   0  0  0  0  0  0  0  0  0  0  0  0
   33.6980   30.0300   46.6900 C   0  0  0  0  0  0  0  0  0  0  0  0
   33.2870   30.6440   45.4760 N   0  0  0  0  0  0  0  0  0  0  0  0
   34.9630   30.2260   47.1650 N   0  0  0  0  0  0  0  0  0  0  0  0
   35.2470   29.6020   48.3150 C   0  0  0  0  0  0  0  0  0  0  0  0
   39.5480   32.1530   45.3200 N   0  0  0  0  0  0  0  0  0  0  0  0
   40.3080   33.2410   45.6660 C   0  0  0  0  0  0  0  0  0  0  0  0
   40.2110   33.8190   46.9350 C   0  0  0  0  0  0  0  0  0  0  0  0
   39.3130   33.2500   47.8390 C   0  0  0  0  0  0  0  0  0  0  0  0
   39.2190   33.7580   48.9630 O   0  0  0  0  0  0  0  0  0  0  0  0
   38.5920   32.1780   47.4370 N   0  0  0  0  0  0  0  0  0  0  0  0
   38.7170   31.6610   46.2200 C   0  0  0  0  0  0  0  0  0  0  0  0
   38.0760   30.6850   45.8100 O   0  0  0  0  0  0  0  0  0  0  0  0
   40.8750   30.2630   42.4750 C   0  0  0  0  0  0  0  0  0  0  0  0
   40.6280   30.6600   43.8080 C   0  0  0  0  0  0  0  0  0  0  0  0
   39.8090   31.7430   43.9970 C   0  0  0  0  0  0  0  0  0  0  0  0
   39.2640   32.3970   42.9060 N   0  0  0  0  0  0  0  0  0  0  0  0
   39.5290   31.9800   41.6460 C   0  0  0  0  0  0  0  0  0  0  0  0
   40.3310   30.9180   41.4220 N   0  0  0  0  0  0  0  0  0  0  0  0
   36.9403   32.2874   47.9226 H   0  0  0  0  0  0  0  0  0  0  0  0
   39.0992   31.4933   50.1295 H   0  0  0  0  0  0  0  0  0  0  0  0
   37.7158   31.7278   50.7862 H   0  0  0  0  0  0  0  0  0  0  0  0
   38.1194   29.3016   48.4586 H   0  0  0  0  0  0  0  0  0  0  0  0
   37.0061   28.6544   50.8793 H   0  0  0  0  0  0  0  0  0  0  0  0
   31.8260   29.1417   46.9167 H   0  0  0  0  0  0  0  0  0  0  0  0
   32.3320   30.4940   45.1206 H   0  0  0  0  0  0  0  0  0  0  0  0
   33.9441   31.2390   44.9516 H   0  0  0  0  0  0  0  0  0  0  0  0
   41.0070   33.6667   44.9311 H   0  0  0  0  0  0  0  0  0  0  0  0
   40.8210   34.6916   47.2113 H   0  0  0  0  0  0  0  0  0  0  0  0
   41.5275   29.3976   42.2871 H   0  0  0  0  0  0  0  0  0  0  0  0
   41.0739   30.1230   44.6582 H   0  0  0  0  0  0  0  0  0  0  0  0
   39.0847   32.5139   40.7930 H   0  0  0  0  0  0  0  0  0  0  0  0
  1  3  1  0
  1  2  1  0
  3  4  1  0
  3  2  1  0
  4  5  1  0
  6  5  2  0
  7  6  1  0
  8  7  1  0
  8  9  2  0
 10  8  1  0
 11 13  2  0
 11 10  1  0
 12 11  1  0
 13 14  1  0
 14  7  2  0
 14  4  1  0
 15 16  1  0
 15 21  1  0
 16 17  2  0
 17 18  1  0
 18 19  2  0
 20 18  1  0
 20  1  1  0
 21 20  1  0
 22 21  2  0
 23 24  2  0
 24 25  1  0
 25 15  1  0
 26 25  2  0
 27 26  1  0
 28 27  2  0
 28 23  1  0
  1 29  1  1
  2 30  1  0
  2 31  1  0
  3 32  1  6
  5 33  1  0
 10 34  1  0
 12 35  1  0
 12 36  1  0
 16 37  1  0
 17 38  1  0
 23 39  1  0
 24 40  1  0
 27 41  1  0
M  END
>  <Score>  (1) 
-7.06884

$$$$
