
     RDKit          3D

 33 35  0  0  0  0  0  0  0  0999 V2000
   37.1180   30.8790   44.7530 C   0  0  0  0  0  0  0  0  0  0  0  0
   36.8350   30.6780   46.1270 C   0  0  0  0  0  0  0  0  0  0  0  0
   37.8890   30.7350   47.0360 C   0  0  0  0  0  0  0  0  0  0  0  0
   39.1090   30.9820   46.5190 N   0  0  0  0  0  0  0  0  0  0  0  0
   39.3570   31.1680   45.2240 C   0  0  0  0  0  0  0  0  0  0  0  0
   38.3640   31.1150   44.3610 N   0  0  0  0  0  0  0  0  0  0  0  0
   37.5330   30.5400   48.4270 C   0  0  0  0  0  0  0  0  0  0  0  0
   38.3650   30.9370   49.4500 C   0  0  0  0  0  0  0  0  0  0  0  0
   38.0920   30.7730   50.7780 C   0  0  0  0  0  0  0  0  0  0  0  0
   36.9200   30.1760   51.1950 C   0  0  0  0  0  0  0  0  0  0  0  0
   36.0530   29.7590   50.2230 C   0  0  0  0  0  0  0  0  0  0  0  0
   34.8800   29.1550   50.6220 C   0  0  0  0  0  0  0  0  0  0  0  0
   33.9640   28.7050   49.7070 C   0  0  0  0  0  0  0  0  0  0  0  0
   34.2760   28.8880   48.3570 C   0  0  0  0  0  0  0  0  0  0  0  0
   35.4500   29.4910   48.0170 C   0  0  0  0  0  0  0  0  0  0  0  0
   36.3830   29.9520   48.9050 C   0  0  0  0  0  0  0  0  0  0  0  0
   40.7790   31.4310   44.8780 C   0  0  0  0  0  0  0  0  0  0  0  0
   41.6240   30.9230   45.8790 F   0  0  0  0  0  0  0  0  0  0  0  0
   41.1240   30.7940   43.7190 F   0  0  0  0  0  0  0  0  0  0  0  0
   41.0340   32.7890   44.7080 F   0  0  0  0  0  0  0  0  0  0  0  0
   36.0690   30.8230   43.8430 O   0  0  0  0  0  0  0  0  0  0  0  0
   35.6690   31.8560   43.0190 C   0  0  0  0  0  0  0  0  0  0  0  0
   34.2940   32.0410   42.9480 F   0  0  0  0  0  0  0  0  0  0  0  0
   36.2970   33.0590   43.2960 F   0  0  0  0  0  0  0  0  0  0  0  0
   36.0910   31.4850   41.7350 F   0  0  0  0  0  0  0  0  0  0  0  0
   35.8076   30.4817   46.4675 H   0  0  0  0  0  0  0  0  0  0  0  0
   39.3155   31.4197   49.1787 H   0  0  0  0  0  0  0  0  0  0  0  0
   38.8179   31.1223   51.5270 H   0  0  0  0  0  0  0  0  0  0  0  0
   36.6929   30.0413   52.2628 H   0  0  0  0  0  0  0  0  0  0  0  0
   34.6750   29.0317   51.6957 H   0  0  0  0  0  0  0  0  0  0  0  0
   33.0267   28.2222   50.0207 H   0  0  0  0  0  0  0  0  0  0  0  0
   33.5801   28.5483   47.5757 H   0  0  0  0  0  0  0  0  0  0  0  0
   35.6640   29.6168   46.9454 H   0  0  0  0  0  0  0  0  0  0  0  0
  1  2  2  0
  2  3  1  0
  3  7  1  0
  4  3  2  0
  5  4  1  0
  6  1  1  0
  6  5  2  0
  7 16  1  0
  7  8  2  0
  8  9  1  0
  9 10  2  0
 11 12  2  0
 11 10  1  0
 13 12  1  0
 14 13  2  0
 15 14  1  0
 15 16  2  0
 16 11  1  0
 17  5  1  0
 17 18  1  0
 19 17  1  0
 20 17  1  0
 21  1  1  0
 22 24  1  0
 22 21  1  0
 23 22  1  0
 25 22  1  0
  2 26  1  0
  8 27  1  0
  9 28  1  0
 10 29  1  0
 12 30  1  0
 13 31  1  0
 14 32  1  0
 15 33  1  0
M  END
>  <Score>  (1) 
-7.39398

$$$$
