
     RDKit          3D

 49 53  0  0  1  0  0  0  0  0999 V2000
   38.7110   31.8080   48.1980 C   0  0  1  0  0  0  0  0  0  0  0  0
   37.8820   31.0660   49.1320 C   0  0  0  0  0  0  0  0  0  0  0  0
   38.3040   30.8820   50.3830 N   0  0  0  0  0  0  0  0  0  0  0  0
   37.6000   30.1770   51.2880 C   0  0  0  0  0  0  0  0  0  0  0  0
   36.4430   29.6110   51.0240 N   0  0  0  0  0  0  0  0  0  0  0  0
   35.9000   29.7190   49.8110 C   0  0  0  0  0  0  0  0  0  0  0  0
   34.7010   29.1420   49.4610 C   0  0  0  0  0  0  0  0  0  0  0  0
   34.1640   29.2520   48.2340 C   0  0  0  0  0  0  0  0  0  0  0  0
   34.8880   29.9880   47.3280 C   0  0  0  0  0  0  0  0  0  0  0  0
   36.0840   30.5610   47.6700 C   0  0  0  0  0  0  0  0  0  0  0  0
   36.6470   30.4550   48.9030 C   0  0  0  0  0  0  0  0  0  0  0  0
   39.0980   31.5890   46.8390 C   0  0  0  0  0  0  0  0  0  0  0  0
   39.9550   32.6270   46.3960 C   0  0  0  0  0  0  0  0  0  0  0  0
   40.5490   32.5340   45.0950 C   0  0  0  0  0  0  0  0  0  0  0  0
   40.2380   31.4480   44.3840 N   0  0  0  0  0  0  0  0  0  0  0  0
   39.3990   30.4600   44.8430 C   0  0  0  0  0  0  0  0  0  0  0  0
   38.8630   30.5560   46.0360 N   0  0  0  0  0  0  0  0  0  0  0  0
   39.1120   29.2690   44.0250 C   0  0  0  0  0  0  0  0  0  0  0  0
   38.9320   29.6050   42.6240 C   0  0  0  0  0  0  0  0  0  0  0  0
   37.6770   30.1320   42.4370 N   0  0  0  0  0  0  0  0  0  0  0  0
   37.1710   30.4850   41.2420 C   0  0  0  0  0  0  0  0  0  0  0  0
   38.0310   30.2660   40.2640 N   0  0  0  0  0  0  0  0  0  0  0  0
   39.2310   29.7960   40.2040 C   0  0  0  0  0  0  0  0  0  0  0  0
   40.1230   29.6210   39.1520 C   0  0  0  0  0  0  0  0  0  0  0  0
   41.3910   29.1240   39.3930 C   0  0  0  0  0  0  0  0  0  0  0  0
   41.8100   28.7830   40.6820 C   0  0  0  0  0  0  0  0  0  0  0  0
   40.9490   28.9420   41.7870 C   0  0  0  0  0  0  0  0  0  0  0  0
   39.6680   29.4600   41.4530 C   0  0  0  0  0  0  0  0  0  0  0  0
   38.4250   33.1050   48.5830 O   0  0  0  0  0  0  0  0  0  0  0  0
   39.2460   34.0500   49.1610 C   0  0  0  0  0  0  0  0  0  0  0  0
   39.7050   35.2230   48.4130 N   0  0  0  0  0  0  0  0  0  0  0  0
   39.6410   33.9550   50.3460 O   0  0  0  0  0  0  0  0  0  0  0  0
   39.6775   31.2856   48.2534 H   0  0  0  0  0  0  0  0  0  0  0  0
   38.0142   30.0687   52.3013 H   0  0  0  0  0  0  0  0  0  0  0  0
   34.1562   28.5633   50.2215 H   0  0  0  0  0  0  0  0  0  0  0  0
   33.2047   28.7820   47.9716 H   0  0  0  0  0  0  0  0  0  0  0  0
   34.4994   30.1198   46.3074 H   0  0  0  0  0  0  0  0  0  0  0  0
   36.6197   31.1400   46.9033 H   0  0  0  0  0  0  0  0  0  0  0  0
   40.1616   33.4928   47.0422 H   0  0  0  0  0  0  0  0  0  0  0  0
   41.2218   33.3121   44.7052 H   0  0  0  0  0  0  0  0  0  0  0  0
   39.9514   28.5640   44.1166 H   0  0  0  0  0  0  0  0  0  0  0  0
   38.1763   28.8213   44.3912 H   0  0  0  0  0  0  0  0  0  0  0  0
   36.1645   30.9046   41.0970 H   0  0  0  0  0  0  0  0  0  0  0  0
   39.8198   29.8782   38.1264 H   0  0  0  0  0  0  0  0  0  0  0  0
   42.0860   28.9941   38.5504 H   0  0  0  0  0  0  0  0  0  0  0  0
   42.8241   28.3857   40.8362 H   0  0  0  0  0  0  0  0  0  0  0  0
   41.2424   28.6878   42.8162 H   0  0  0  0  0  0  0  0  0  0  0  0
   40.3180   35.9155   48.8664 H   0  0  0  0  0  0  0  0  0  0  0  0
   39.4147   35.3553   47.4336 H   0  0  0  0  0  0  0  0  0  0  0  0
  1 29  1  0
  1  2  1  0
  2  3  2  0
  3  4  1  0
  5  4  2  0
  6  5  1  0
  7  6  2  0
  8  7  1  0
  9 10  1  0
  9  8  2  0
 10 11  2  0
 11  2  1  0
 11  6  1  0
 12  1  1  0
 13 12  2  0
 14 13  1  0
 15 16  1  0
 15 14  2  0
 16 17  2  0
 17 12  1  0
 18 16  1  0
 19 18  1  0
 20 19  2  0
 21 20  1  0
 22 21  2  0
 23 22  1  0
 23 28  2  0
 24 25  2  0
 24 23  1  0
 25 26  1  0
 26 27  2  0
 28 27  1  0
 28 19  1  0
 29 30  1  0
 30 32  2  0
 31 30  1  0
  1 33  1  1
  4 34  1  0
  7 35  1  0
  8 36  1  0
  9 37  1  0
 10 38  1  0
 13 39  1  0
 14 40  1  0
 18 41  1  0
 18 42  1  0
 21 43  1  0
 24 44  1  0
 25 45  1  0
 26 46  1  0
 27 47  1  0
 31 48  1  0
 31 49  1  0
M  END
>  <Score>  (1) 
-7.46738

$$$$
