
     RDKit          3D

 49 51  0  0  0  0  0  0  0  0999 V2000
   36.9140   30.8160   46.0760 C   0  0  0  0  0  0  0  0  0  0  0  0
   35.8890   30.0420   46.6230 C   0  0  0  0  0  0  0  0  0  0  0  0
   35.5640   29.9900   47.9420 C   0  0  0  0  0  0  0  0  0  0  0  0
   36.2620   30.7350   48.8430 C   0  0  0  0  0  0  0  0  0  0  0  0
   37.2690   31.5090   48.3910 C   0  0  0  0  0  0  0  0  0  0  0  0
   37.9700   32.2580   49.3070 C   0  0  0  0  0  0  0  0  0  0  0  0
   39.0020   33.0660   48.9280 C   0  0  0  0  0  0  0  0  0  0  0  0
   39.3330   33.1180   47.5830 C   0  0  0  0  0  0  0  0  0  0  0  0
   38.6150   32.3600   46.7030 C   0  0  0  0  0  0  0  0  0  0  0  0
   37.5900   31.5540   47.0500 C   0  0  0  0  0  0  0  0  0  0  0  0
   36.2220   31.2720   42.5770 C   0  0  0  0  0  0  0  0  0  0  0  0
   37.4350   31.0170   41.9080 C   0  0  0  0  0  0  0  0  0  0  0  0
   38.5080   30.6820   42.6820 C   0  0  0  0  0  0  0  0  0  0  0  0
   38.3010   30.6310   43.9740 N   0  0  0  0  0  0  0  0  0  0  0  0
   37.2330   30.8460   44.6660 C   0  0  0  0  0  0  0  0  0  0  0  0
   36.2010   31.1690   43.9060 N   0  0  0  0  0  0  0  0  0  0  0  0
   39.7770   30.3880   42.1420 N   0  0  0  0  0  0  0  0  0  0  0  0
   40.8700   29.9790   42.9550 C   0  0  0  0  0  0  0  0  0  0  0  0
   41.0140   30.5840   44.0910 N   0  0  0  0  0  0  0  0  0  0  0  0
   41.7710   28.9520   42.5470 N   0  0  0  0  0  0  0  0  0  0  0  0
   41.7360   30.4140   44.7840 H   0  0  0  0  0  0  0  0  0  0  0  0
   37.5550   31.0990   40.4070 C   0  0  0  0  0  0  0  0  0  0  0  0
   36.2990   31.4150   39.6980 C   0  0  0  0  0  0  0  0  0  0  0  0
   38.1870   29.8370   39.8590 C   0  0  0  0  0  0  0  0  0  0  0  0
   38.5510   32.2070   40.1350 C   0  0  0  0  0  0  0  0  0  0  0  0
   35.9070   30.6600   50.1710 O   0  0  0  0  0  0  0  0  0  0  0  0
   36.4280   29.6340   51.0050 C   0  0  0  0  0  0  0  0  0  0  0  0
   37.2410   28.7350   50.3860 F   0  0  0  0  0  0  0  0  0  0  0  0
   37.1990   30.2460   51.9780 F   0  0  0  0  0  0  0  0  0  0  0  0
   35.3240   29.0030   51.5710 F   0  0  0  0  0  0  0  0  0  0  0  0
   35.2969   29.4248   45.9313 H   0  0  0  0  0  0  0  0  0  0  0  0
   34.7383   29.3470   48.2809 H   0  0  0  0  0  0  0  0  0  0  0  0
   37.6922   32.2044   50.3700 H   0  0  0  0  0  0  0  0  0  0  0  0
   39.5562   33.6600   49.6696 H   0  0  0  0  0  0  0  0  0  0  0  0
   40.1569   33.7566   47.2318 H   0  0  0  0  0  0  0  0  0  0  0  0
   38.8908   32.4098   45.6393 H   0  0  0  0  0  0  0  0  0  0  0  0
   35.3161   31.5488   42.0178 H   0  0  0  0  0  0  0  0  0  0  0  0
   39.9170   30.4722   41.1250 H   0  0  0  0  0  0  0  0  0  0  0  0
   42.5528   28.6794   43.1597 H   0  0  0  0  0  0  0  0  0  0  0  0
   41.6401   28.4827   41.6395 H   0  0  0  0  0  0  0  0  0  0  0  0
   35.5041   31.6150   40.4316 H   0  0  0  0  0  0  0  0  0  0  0  0
   36.4477   32.3037   39.0671 H   0  0  0  0  0  0  0  0  0  0  0  0
   36.0094   30.5617   39.0671 H   0  0  0  0  0  0  0  0  0  0  0  0
   38.5081   29.1957   40.6931 H   0  0  0  0  0  0  0  0  0  0  0  0
   37.4529   29.2970   39.2429 H   0  0  0  0  0  0  0  0  0  0  0  0
   39.0591   30.1014   39.2429 H   0  0  0  0  0  0  0  0  0  0  0  0
   38.9167   32.6138   41.0894 H   0  0  0  0  0  0  0  0  0  0  0  0
   39.3978   31.8056   39.5590 H   0  0  0  0  0  0  0  0  0  0  0  0
   38.0619   33.0064   39.5590 H   0  0  0  0  0  0  0  0  0  0  0  0
  1  2  2  0
  1 10  1  0
  2  3  1  0
  3  4  2  0
  4 26  1  0
  5  4  1  0
  5  6  2  0
  7  6  1  0
  8  7  2  0
  9 10  2  0
  9  8  1  0
 10  5  1  0
 11 16  2  0
 12 11  1  0
 12 13  2  0
 13 14  1  0
 14 15  2  0
 15  1  1  0
 16 15  1  0
 17 13  1  0
 17 18  1  0
 18 19  2  0
 19 21  1  0
 20 18  1  0
 22 12  1  0
 23 22  1  0
 24 22  1  0
 25 22  1  0
 26 27  1  0
 27 30  1  0
 27 29  1  0
 28 27  1  0
  2 31  1  0
  3 32  1  0
  6 33  1  0
  7 34  1  0
  8 35  1  0
  9 36  1  0
 11 37  1  0
 17 38  1  0
 20 39  1  0
 20 40  1  0
 23 41  1  0
 23 42  1  0
 23 43  1  0
 24 44  1  0
 24 45  1  0
 24 46  1  0
 25 47  1  0
 25 48  1  0
 25 49  1  0
M  END
>  <Score>  (1) 
-7.44669

$$$$
