
     RDKit          3D

 38 40  0  0  0  0  0  0  0  0999 V2000
   36.8470   30.7990   46.0970 C   0  0  0  0  0  0  0  0  0  0  0  0
   35.8230   30.0340   46.6590 C   0  0  0  0  0  0  0  0  0  0  0  0
   35.5150   29.9850   47.9820 C   0  0  0  0  0  0  0  0  0  0  0  0
   36.2420   30.7340   48.8760 C   0  0  0  0  0  0  0  0  0  0  0  0
   37.2460   31.4970   48.4000 C   0  0  0  0  0  0  0  0  0  0  0  0
   37.9700   32.2440   49.3050 C   0  0  0  0  0  0  0  0  0  0  0  0
   39.0010   33.0410   48.9050 C   0  0  0  0  0  0  0  0  0  0  0  0
   39.3070   33.0830   47.5530 C   0  0  0  0  0  0  0  0  0  0  0  0
   38.5620   32.3240   46.6910 C   0  0  0  0  0  0  0  0  0  0  0  0
   37.5440   31.5330   47.0510 C   0  0  0  0  0  0  0  0  0  0  0  0
   36.1110   31.3250   42.6140 C   0  0  0  0  0  0  0  0  0  0  0  0
   37.2880   30.9960   41.9210 C   0  0  0  0  0  0  0  0  0  0  0  0
   38.3570   30.5870   42.6610 C   0  0  0  0  0  0  0  0  0  0  0  0
   38.1810   30.5370   43.9730 N   0  0  0  0  0  0  0  0  0  0  0  0
   37.1390   30.8200   44.6820 C   0  0  0  0  0  0  0  0  0  0  0  0
   36.1140   31.2150   43.9430 N   0  0  0  0  0  0  0  0  0  0  0  0
   39.6150   30.2170   42.1100 N   0  0  0  0  0  0  0  0  0  0  0  0
   40.7400   29.9220   42.9040 C   0  0  0  0  0  0  0  0  0  0  0  0
   40.9540   30.6560   43.9510 N   0  0  0  0  0  0  0  0  0  0  0  0
   41.6030   28.8590   42.5660 N   0  0  0  0  0  0  0  0  0  0  0  0
   41.7020   30.5610   44.6280 H   0  0  0  0  0  0  0  0  0  0  0  0
   37.4380   31.0940   40.1430 S   0  0  0  0  0  0  0  0  0  0  0  0
   35.9150   30.6730   50.2140 O   0  0  0  0  0  0  0  0  0  0  0  0
   36.4240   29.6350   51.0310 C   0  0  0  0  0  0  0  0  0  0  0  0
   37.2350   28.7340   50.4060 F   0  0  0  0  0  0  0  0  0  0  0  0
   37.1980   30.2200   52.0200 F   0  0  0  0  0  0  0  0  0  0  0  0
   35.3160   28.9870   51.5800 F   0  0  0  0  0  0  0  0  0  0  0  0
   35.2164   29.4214   45.9758 H   0  0  0  0  0  0  0  0  0  0  0  0
   34.6891   29.3499   48.3349 H   0  0  0  0  0  0  0  0  0  0  0  0
   37.7100   32.1958   50.3727 H   0  0  0  0  0  0  0  0  0  0  0  0
   39.5737   33.6337   49.6335 H   0  0  0  0  0  0  0  0  0  0  0  0
   40.1296   33.7119   47.1817 H   0  0  0  0  0  0  0  0  0  0  0  0
   38.8193   32.3674   45.6224 H   0  0  0  0  0  0  0  0  0  0  0  0
   35.2132   31.6634   42.0760 H   0  0  0  0  0  0  0  0  0  0  0  0
   39.7072   30.1625   41.0856 H   0  0  0  0  0  0  0  0  0  0  0  0
   42.4225   28.6537   43.1552 H   0  0  0  0  0  0  0  0  0  0  0  0
   41.4138   28.2880   41.7299 H   0  0  0  0  0  0  0  0  0  0  0  0
   38.5522   31.8219   39.8181 H   0  0  0  0  0  0  0  0  0  0  0  0
  1  2  2  0
  1 10  1  0
  2  3  1  0
  3  4  2  0
  4 23  1  0
  5  4  1  0
  5  6  2  0
  7  6  1  0
  8  7  2  0
  9 10  2  0
  9  8  1  0
 10  5  1  0
 11 16  2  0
 12 11  1  0
 12 13  2  0
 13 14  1  0
 14 15  2  0
 15  1  1  0
 16 15  1  0
 17 13  1  0
 17 18  1  0
 18 19  2  0
 19 21  1  0
 20 18  1  0
 22 12  1  0
 23 24  1  0
 24 27  1  0
 24 26  1  0
 25 24  1  0
  2 28  1  0
  3 29  1  0
  6 30  1  0
  7 31  1  0
  8 32  1  0
  9 33  1  0
 11 34  1  0
 17 35  1  0
 20 36  1  0
 20 37  1  0
 22 38  1  0
M  END
>  <Score>  (1) 
-7.53679

$$$$
