
     RDKit          3D

 35 39  0  0  0  0  0  0  0  0999 V2000
   35.2970   28.9300   48.9480 C   0  0  0  0  0  0  0  0  0  0  0  0
   35.4470   30.0550   48.1560 C   0  0  0  0  0  0  0  0  0  0  0  0
   34.5090   30.2670   47.1540 C   0  0  0  0  0  0  0  0  0  0  0  0
   33.5000   29.3650   47.0050 N   0  0  0  0  0  0  0  0  0  0  0  0
   33.3840   28.2810   47.7950 C   0  0  0  0  0  0  0  0  0  0  0  0
   34.2940   28.0530   48.7840 N   0  0  0  0  0  0  0  0  0  0  0  0
   32.3190   27.3620   47.6100 N   0  0  0  0  0  0  0  0  0  0  0  0
   32.4090   26.0190   47.6730 C   0  0  0  0  0  0  0  0  0  0  0  0
   31.1930   25.4480   47.4450 N   0  0  0  0  0  0  0  0  0  0  0  0
   30.3300   26.4620   47.2370 C   0  0  0  0  0  0  0  0  0  0  0  0
   28.9840   26.3690   46.9670 C   0  0  0  0  0  0  0  0  0  0  0  0
   28.3410   27.5550   46.7980 N   0  0  0  0  0  0  0  0  0  0  0  0
   29.0100   28.7340   46.8940 C   0  0  0  0  0  0  0  0  0  0  0  0
   30.3450   28.7850   47.1630 N   0  0  0  0  0  0  0  0  0  0  0  0
   31.0450   27.6350   47.3430 C   0  0  0  0  0  0  0  0  0  0  0  0
   36.5730   30.9370   48.4250 C   0  0  0  0  0  0  0  0  0  0  0  0
   36.7510   31.5660   49.6290 C   0  0  0  0  0  0  0  0  0  0  0  0
   37.8790   32.3880   49.7500 C   0  0  0  0  0  0  0  0  0  0  0  0
   38.7660   32.5740   48.7620 N   0  0  0  0  0  0  0  0  0  0  0  0
   38.5430   31.9300   47.5950 C   0  0  0  0  0  0  0  0  0  0  0  0
   37.4600   31.1230   47.4330 N   0  0  0  0  0  0  0  0  0  0  0  0
   39.4630   32.1030   46.5150 N   0  0  0  0  0  0  0  0  0  0  0  0
   40.0450   33.1500   45.9010 C   0  0  0  0  0  0  0  0  0  0  0  0
   40.8360   32.6490   44.9280 N   0  0  0  0  0  0  0  0  0  0  0  0
   40.7250   31.2940   44.9610 C   0  0  0  0  0  0  0  0  0  0  0  0
   39.8610   30.9440   45.9600 N   0  0  0  0  0  0  0  0  0  0  0  0
   36.0313   28.7466   49.7462 H   0  0  0  0  0  0  0  0  0  0  0  0
   34.5797   31.1448   46.4949 H   0  0  0  0  0  0  0  0  0  0  0  0
   33.3346   25.4616   47.8796 H   0  0  0  0  0  0  0  0  0  0  0  0
   28.4643   25.4023   46.8930 H   0  0  0  0  0  0  0  0  0  0  0  0
   28.4579   29.6745   46.7504 H   0  0  0  0  0  0  0  0  0  0  0  0
   36.0429   31.4322   50.4601 H   0  0  0  0  0  0  0  0  0  0  0  0
   38.0455   32.9077   50.7051 H   0  0  0  0  0  0  0  0  0  0  0  0
   39.9030   34.2130   46.1457 H   0  0  0  0  0  0  0  0  0  0  0  0
   41.2462   30.5934   44.2920 H   0  0  0  0  0  0  0  0  0  0  0  0
  2 16  1  0
  2  1  2  0
  3  2  1  0
  4  3  2  0
  4  5  1  0
  5  6  2  0
  6  1  1  0
  7  8  1  0
  7  5  1  0
  9  8  2  0
 10 15  2  0
 10  9  1  0
 11 10  1  0
 12 13  1  0
 12 11  2  0
 13 14  2  0
 14 15  1  0
 15  7  1  0
 16 17  2  0
 17 18  1  0
 19 18  2  0
 20 19  1  0
 21 20  2  0
 21 16  1  0
 22 20  1  0
 23 22  1  0
 24 25  1  0
 24 23  2  0
 25 26  2  0
 26 22  1  0
  1 27  1  0
  3 28  1  0
  8 29  1  0
 11 30  1  0
 13 31  1  0
 17 32  1  0
 18 33  1  0
 23 34  1  0
 25 35  1  0
M  END
>  <Score>  (1) 
-7.23244

$$$$
