
     RDKit          3D

 45 48  0  0  0  0  0  0  0  0999 V2000
   31.7010   26.4720   47.8200 C   0  0  0  0  0  0  0  0  0  0  0  0
   31.4410   25.2590   47.2980 C   0  0  0  0  0  0  0  0  0  0  0  0
   32.4350   24.3940   46.8560 C   0  0  0  0  0  0  0  0  0  0  0  0
   33.7340   24.8500   46.9810 C   0  0  0  0  0  0  0  0  0  0  0  0
   34.0110   26.0780   47.5080 C   0  0  0  0  0  0  0  0  0  0  0  0
   33.0030   26.9120   47.9370 C   0  0  0  0  0  0  0  0  0  0  0  0
   29.2170   28.1960   49.9310 C   0  0  0  0  0  0  0  0  0  0  0  0
   28.5800   29.0560   49.0020 C   0  0  0  0  0  0  0  0  0  0  0  0
   29.0270   29.0150   47.6790 C   0  0  0  0  0  0  0  0  0  0  0  0
   30.0470   28.1550   47.3460 N   0  0  0  0  0  0  0  0  0  0  0  0
   30.6210   27.3540   48.2750 C   0  0  0  0  0  0  0  0  0  0  0  0
   30.2020   27.3880   49.5370 N   0  0  0  0  0  0  0  0  0  0  0  0
   27.4810   29.9710   49.3890 C   0  0  0  0  0  0  0  0  0  0  0  0
   27.8370   30.8730   50.3530 F   0  0  0  0  0  0  0  0  0  0  0  0
   26.3780   29.2790   49.8540 F   0  0  0  0  0  0  0  0  0  0  0  0
   27.0750   30.7060   48.2580 F   0  0  0  0  0  0  0  0  0  0  0  0
   33.2560   28.2480   48.5140 C   0  0  0  0  0  0  0  0  0  0  0  0
   33.9050   29.2150   47.5940 C   0  0  0  0  0  0  0  0  0  0  0  0
   34.9840   29.9300   48.2760 C   0  0  0  0  0  0  0  0  0  0  0  0
   35.1880   29.8850   49.6440 C   0  0  0  0  0  0  0  0  0  0  0  0
   36.2770   30.6630   49.9720 C   0  0  0  0  0  0  0  0  0  0  0  0
   36.7100   31.1640   48.7650 N   0  0  0  0  0  0  0  0  0  0  0  0
   35.9490   30.7320   47.7750 N   0  0  0  0  0  0  0  0  0  0  0  0
   37.7840   32.0260   48.4110 C   0  0  0  0  0  0  0  0  0  0  0  0
   38.1390   32.9570   49.3620 C   0  0  0  0  0  0  0  0  0  0  0  0
   39.1610   33.8610   49.1620 C   0  0  0  0  0  0  0  0  0  0  0  0
   39.8430   33.8080   47.9440 C   0  0  0  0  0  0  0  0  0  0  0  0
   39.4610   32.8550   47.0010 C   0  0  0  0  0  0  0  0  0  0  0  0
   38.4460   31.9810   47.2410 N   0  0  0  0  0  0  0  0  0  0  0  0
   30.3923   24.9370   47.2174 H   0  0  0  0  0  0  0  0  0  0  0  0
   32.2021   23.4060   46.4322 H   0  0  0  0  0  0  0  0  0  0  0  0
   34.5632   24.2085   46.6481 H   0  0  0  0  0  0  0  0  0  0  0  0
   35.0573   26.4071   47.5914 H   0  0  0  0  0  0  0  0  0  0  0  0
   28.8970   28.1950   50.9834 H   0  0  0  0  0  0  0  0  0  0  0  0
   28.5698   29.6611   46.9151 H   0  0  0  0  0  0  0  0  0  0  0  0
   32.2913   28.6718   48.8296 H   0  0  0  0  0  0  0  0  0  0  0  0
   33.9589   28.0957   49.3463 H   0  0  0  0  0  0  0  0  0  0  0  0
   33.1554   29.9401   47.2442 H   0  0  0  0  0  0  0  0  0  0  0  0
   34.3283   28.6639   46.7413 H   0  0  0  0  0  0  0  0  0  0  0  0
   34.5755   29.3161   50.3590 H   0  0  0  0  0  0  0  0  0  0  0  0
   36.7030   30.8427   50.9701 H   0  0  0  0  0  0  0  0  0  0  0  0
   37.5883   32.9802   50.3139 H   0  0  0  0  0  0  0  0  0  0  0  0
   39.4295   34.5973   49.9338 H   0  0  0  0  0  0  0  0  0  0  0  0
   40.6667   34.5058   47.7328 H   0  0  0  0  0  0  0  0  0  0  0  0
   39.9931   32.8084   46.0394 H   0  0  0  0  0  0  0  0  0  0  0  0
  1  6  1  0
  1 11  1  0
  2  1  2  0
  3  4  2  0
  3  2  1  0
  4  5  1  0
  5  6  2  0
  6 17  1  0
  8 13  1  0
  8  7  2  0
  9  8  1  0
 10  9  2  0
 10 11  1  0
 11 12  2  0
 12  7  1  0
 13 15  1  0
 13 14  1  0
 16 13  1  0
 18 19  1  0
 18 17  1  0
 19 20  1  0
 20 21  2  0
 22 21  1  0
 23 19  2  0
 23 22  1  0
 24 22  1  0
 24 25  2  0
 26 25  1  0
 27 26  2  0
 28 29  2  0
 28 27  1  0
 29 24  1  0
  2 30  1  0
  3 31  1  0
  4 32  1  0
  5 33  1  0
  7 34  1  0
  9 35  1  0
 17 36  1  0
 17 37  1  0
 18 38  1  0
 18 39  1  0
 20 40  1  0
 21 41  1  0
 25 42  1  0
 26 43  1  0
 27 44  1  0
 28 45  1  0
M  END
>  <Score>  (1) 
-7.15482

$$$$
