
     RDKit          3D

 44 47  0  0  0  0  0  0  0  0999 V2000
   36.9310   30.8160   46.0740 C   0  0  0  0  0  0  0  0  0  0  0  0
   35.9070   30.0430   46.6320 C   0  0  0  0  0  0  0  0  0  0  0  0
   35.5810   29.9950   47.9490 C   0  0  0  0  0  0  0  0  0  0  0  0
   36.2800   30.7490   48.8510 C   0  0  0  0  0  0  0  0  0  0  0  0
   37.2770   31.5160   48.3820 C   0  0  0  0  0  0  0  0  0  0  0  0
   37.9830   32.2760   49.3000 C   0  0  0  0  0  0  0  0  0  0  0  0
   39.0110   33.0830   48.9190 C   0  0  0  0  0  0  0  0  0  0  0  0
   39.3400   33.1280   47.5730 C   0  0  0  0  0  0  0  0  0  0  0  0
   38.6180   32.3600   46.6970 C   0  0  0  0  0  0  0  0  0  0  0  0
   37.5950   31.5510   47.0420 C   0  0  0  0  0  0  0  0  0  0  0  0
   36.2130   31.1750   42.5830 C   0  0  0  0  0  0  0  0  0  0  0  0
   37.4260   30.9540   41.9090 C   0  0  0  0  0  0  0  0  0  0  0  0
   38.5170   30.6800   42.6730 C   0  0  0  0  0  0  0  0  0  0  0  0
   38.3240   30.6460   43.9720 N   0  0  0  0  0  0  0  0  0  0  0  0
   37.2440   30.8370   44.6680 C   0  0  0  0  0  0  0  0  0  0  0  0
   36.1980   31.1020   43.9080 N   0  0  0  0  0  0  0  0  0  0  0  0
   39.8030   30.4630   42.1400 N   0  0  0  0  0  0  0  0  0  0  0  0
   40.8840   29.9650   42.9240 C   0  0  0  0  0  0  0  0  0  0  0  0
   41.0250   30.4870   44.1090 N   0  0  0  0  0  0  0  0  0  0  0  0
   41.7680   28.9560   42.4610 N   0  0  0  0  0  0  0  0  0  0  0  0
   41.7330   30.2700   44.8030 H   0  0  0  0  0  0  0  0  0  0  0  0
   37.4600   30.9870   40.4250 C   0  0  0  0  0  0  0  0  0  0  0  0
   38.1640   32.0520   39.6710 C   0  0  0  0  0  0  0  0  0  0  0  0
   36.7250   32.2400   39.8370 C   0  0  0  0  0  0  0  0  0  0  0  0
   35.9200   30.6740   50.1750 O   0  0  0  0  0  0  0  0  0  0  0  0
   36.4360   29.6430   51.0080 C   0  0  0  0  0  0  0  0  0  0  0  0
   37.2440   28.7400   50.3940 F   0  0  0  0  0  0  0  0  0  0  0  0
   37.2160   30.2610   51.9800 F   0  0  0  0  0  0  0  0  0  0  0  0
   35.3340   29.0190   51.5790 F   0  0  0  0  0  0  0  0  0  0  0  0
   35.3152   29.4207   45.9446 H   0  0  0  0  0  0  0  0  0  0  0  0
   34.7567   29.3513   48.2898 H   0  0  0  0  0  0  0  0  0  0  0  0
   37.7061   32.2262   50.3634 H   0  0  0  0  0  0  0  0  0  0  0  0
   39.5644   33.6818   49.6574 H   0  0  0  0  0  0  0  0  0  0  0  0
   40.1621   33.7658   47.2161 H   0  0  0  0  0  0  0  0  0  0  0  0
   38.8933   32.4067   45.6330 H   0  0  0  0  0  0  0  0  0  0  0  0
   35.2941   31.4040   42.0234 H   0  0  0  0  0  0  0  0  0  0  0  0
   39.9683   30.6724   41.1452 H   0  0  0  0  0  0  0  0  0  0  0  0
   42.5357   28.6275   43.0640 H   0  0  0  0  0  0  0  0  0  0  0  0
   41.6419   28.5521   41.5219 H   0  0  0  0  0  0  0  0  0  0  0  0
   37.4725   29.8904   40.3401 H   0  0  0  0  0  0  0  0  0  0  0  0
   38.5651   31.8277   38.6716 H   0  0  0  0  0  0  0  0  0  0  0  0
   39.0355   32.6833   39.8989 H   0  0  0  0  0  0  0  0  0  0  0  0
   36.3423   33.0233   40.5078 H   0  0  0  0  0  0  0  0  0  0  0  0
   35.8709   32.4069   39.1642 H   0  0  0  0  0  0  0  0  0  0  0  0
  1  2  2  0
  1 10  1  0
  2  3  1  0
  3  4  2  0
  4 25  1  0
  5  4  1  0
  5  6  2  0
  7  6  1  0
  8  7  2  0
  9 10  2  0
  9  8  1  0
 10  5  1  0
 11 16  2  0
 12 11  1  0
 12 13  2  0
 13 14  1  0
 14 15  2  0
 15  1  1  0
 16 15  1  0
 17 13  1  0
 17 18  1  0
 18 19  2  0
 19 21  1  0
 20 18  1  0
 22 12  1  0
 23 24  1  0
 23 22  1  0
 24 22  1  0
 25 26  1  0
 26 29  1  0
 26 28  1  0
 27 26  1  0
  2 30  1  0
  3 31  1  0
  6 32  1  0
  7 33  1  0
  8 34  1  0
  9 35  1  0
 11 36  1  0
 17 37  1  0
 20 38  1  0
 20 39  1  0
 22 40  1  0
 23 41  1  0
 23 42  1  0
 24 43  1  0
 24 44  1  0
M  END
>  <Score>  (1) 
-7.39692

$$$$
