
     RDKit          3D

 39 42  0  0  0  0  0  0  0  0999 V2000
   36.7100   31.0780   48.5600 C   0  0  0  0  0  0  0  0  0  0  0  0
   36.9500   31.8060   49.7010 C   0  0  0  0  0  0  0  0  0  0  0  0
   38.0660   32.6490   49.6800 C   0  0  0  0  0  0  0  0  0  0  0  0
   38.8830   32.7700   48.6230 N   0  0  0  0  0  0  0  0  0  0  0  0
   38.6040   32.0340   47.5310 C   0  0  0  0  0  0  0  0  0  0  0  0
   37.5260   31.1960   47.4990 N   0  0  0  0  0  0  0  0  0  0  0  0
   39.4490   32.1290   46.3760 N   0  0  0  0  0  0  0  0  0  0  0  0
   39.9630   33.1230   45.6440 C   0  0  0  0  0  0  0  0  0  0  0  0
   40.7010   32.5550   44.6560 N   0  0  0  0  0  0  0  0  0  0  0  0
   40.6190   31.2060   44.8100 C   0  0  0  0  0  0  0  0  0  0  0  0
   39.8290   30.9340   45.8940 N   0  0  0  0  0  0  0  0  0  0  0  0
   35.4450   29.1710   49.3930 C   0  0  0  0  0  0  0  0  0  0  0  0
   35.5890   30.1620   48.4400 C   0  0  0  0  0  0  0  0  0  0  0  0
   34.6510   30.2240   47.4240 C   0  0  0  0  0  0  0  0  0  0  0  0
   33.6340   29.3170   47.4010 N   0  0  0  0  0  0  0  0  0  0  0  0
   33.5270   28.3560   48.3570 C   0  0  0  0  0  0  0  0  0  0  0  0
   34.4310   28.2870   49.3470 N   0  0  0  0  0  0  0  0  0  0  0  0
   32.4820   27.3940   48.3650 N   0  0  0  0  0  0  0  0  0  0  0  0
   31.2240   27.6040   49.0410 C   0  0  0  0  0  0  0  0  0  0  0  0
   30.2000   27.9260   47.9520 C   0  0  0  0  0  0  0  0  0  0  0  0
   30.6680   27.3540   46.6380 C   0  0  0  0  0  0  0  0  0  0  0  0
   31.3550   26.0120   46.7960 C   0  0  0  0  0  0  0  0  0  0  0  0
   32.5890   26.1090   47.6910 C   0  0  0  0  0  0  0  0  0  0  0  0
   36.2987   31.7297   50.5842 H   0  0  0  0  0  0  0  0  0  0  0  0
   38.2854   33.2446   50.5784 H   0  0  0  0  0  0  0  0  0  0  0  0
   39.8154   34.2002   45.8112 H   0  0  0  0  0  0  0  0  0  0  0  0
   41.1072   30.4571   44.1690 H   0  0  0  0  0  0  0  0  0  0  0  0
   36.1782   29.1031   50.2102 H   0  0  0  0  0  0  0  0  0  0  0  0
   34.7255   30.9963   46.6443 H   0  0  0  0  0  0  0  0  0  0  0  0
   30.9279   26.6953   49.5855 H   0  0  0  0  0  0  0  0  0  0  0  0
   31.2962   28.4196   49.7756 H   0  0  0  0  0  0  0  0  0  0  0  0
   29.2289   27.4839   48.2194 H   0  0  0  0  0  0  0  0  0  0  0  0
   30.0930   29.0169   47.8600 H   0  0  0  0  0  0  0  0  0  0  0  0
   31.3758   28.0599   46.1790 H   0  0  0  0  0  0  0  0  0  0  0  0
   29.7800   27.2006   46.0072 H   0  0  0  0  0  0  0  0  0  0  0  0
   30.6461   25.2994   47.2428 H   0  0  0  0  0  0  0  0  0  0  0  0
   31.6799   25.6746   45.8007 H   0  0  0  0  0  0  0  0  0  0  0  0
   32.5967   25.2897   48.4249 H   0  0  0  0  0  0  0  0  0  0  0  0
   33.5203   26.0293   47.1111 H   0  0  0  0  0  0  0  0  0  0  0  0
  1  2  2  0
  3  2  1  0
  4  3  2  0
  5  4  1  0
  6  5  2  0
  6  1  1  0
  7  5  1  0
  8  7  1  0
  9 10  1  0
  9  8  2  0
 10 11  2  0
 11  7  1  0
 13  1  1  0
 13 12  2  0
 14 13  1  0
 15 14  2  0
 15 16  1  0
 16 18  1  0
 16 17  2  0
 17 12  1  0
 18 19  1  0
 20 19  1  0
 21 22  1  0
 21 20  1  0
 22 23  1  0
 23 18  1  0
  2 24  1  0
  3 25  1  0
  8 26  1  0
 10 27  1  0
 12 28  1  0
 14 29  1  0
 19 30  1  0
 19 31  1  0
 20 32  1  0
 20 33  1  0
 21 34  1  0
 21 35  1  0
 22 36  1  0
 22 37  1  0
 23 38  1  0
 23 39  1  0
M  END
>  <Score>  (1) 
-7.05682

$$$$
