
     RDKit          3D

 44 49  0  0  1  0  0  0  0  0999 V2000
   34.7620   30.2160   47.3700 C   0  0  0  0  0  0  0  0  0  0  0  0
   35.8710   30.2510   48.1960 C   0  0  0  0  0  0  0  0  0  0  0  0
   35.9640   29.1500   49.1080 C   0  0  0  0  0  0  0  0  0  0  0  0
   35.0050   28.1800   49.1110 N   0  0  0  0  0  0  0  0  0  0  0  0
   33.9690   28.2270   48.2780 C   0  0  0  0  0  0  0  0  0  0  0  0
   33.8410   29.2380   47.4080 N   0  0  0  0  0  0  0  0  0  0  0  0
   36.9410   31.2160   48.2850 C   0  0  0  0  0  0  0  0  0  0  0  0
   36.9140   31.8920   49.4840 C   0  0  0  0  0  0  0  0  0  0  0  0
   37.8590   32.8740   49.7860 C   0  0  0  0  0  0  0  0  0  0  0  0
   38.8400   33.1740   48.8630 C   0  0  0  0  0  0  0  0  0  0  0  0
   38.8560   32.4880   47.6610 C   0  0  0  0  0  0  0  0  0  0  0  0
   39.8070   32.7210   46.6640 C   0  0  0  0  0  0  0  0  0  0  0  0
   39.7660   32.0020   45.4910 C   0  0  0  0  0  0  0  0  0  0  0  0
   38.8090   31.0470   45.2550 C   0  0  0  0  0  0  0  0  0  0  0  0
   37.8630   30.8080   46.2340 C   0  0  0  0  0  0  0  0  0  0  0  0
   37.9200   31.5290   47.3870 C   0  0  0  0  0  0  0  0  0  0  0  0
   32.9470   27.1400   48.3380 C   0  0  1  0  0  0  0  0  0  0  0  0
   31.5180   27.4920   48.5520 C   0  0  0  0  0  0  0  0  0  0  0  0
   31.9720   26.9810   47.2070 C   0  0  2  0  0  0  0  0  0  0  0  0
   31.6780   25.6110   46.8370 N   0  0  0  0  0  0  0  0  0  0  0  0
   32.5250   24.5610   47.0390 C   0  0  0  0  0  0  0  0  0  0  0  0
   31.9480   23.4160   46.5800 N   0  0  0  0  0  0  0  0  0  0  0  0
   30.7350   23.7110   46.0810 C   0  0  0  0  0  0  0  0  0  0  0  0
   29.7080   23.0020   45.4940 C   0  0  0  0  0  0  0  0  0  0  0  0
   28.5660   23.6130   45.0820 N   0  0  0  0  0  0  0  0  0  0  0  0
   28.4510   24.9590   45.2620 C   0  0  0  0  0  0  0  0  0  0  0  0
   29.4570   25.6410   45.8360 N   0  0  0  0  0  0  0  0  0  0  0  0
   30.5910   25.0750   46.2520 C   0  0  0  0  0  0  0  0  0  0  0  0
   34.6268   31.0313   46.6441 H   0  0  0  0  0  0  0  0  0  0  0  0
   36.8107   29.0868   49.8074 H   0  0  0  0  0  0  0  0  0  0  0  0
   36.1315   31.6533   50.2193 H   0  0  0  0  0  0  0  0  0  0  0  0
   37.8221   33.4032   50.7497 H   0  0  0  0  0  0  0  0  0  0  0  0
   39.5953   33.9441   49.0786 H   0  0  0  0  0  0  0  0  0  0  0  0
   40.5889   33.4795   46.8167 H   0  0  0  0  0  0  0  0  0  0  0  0
   40.5240   32.1990   44.7186 H   0  0  0  0  0  0  0  0  0  0  0  0
   38.7952   30.4852   44.3094 H   0  0  0  0  0  0  0  0  0  0  0  0
   37.0798   30.0503   46.0843 H   0  0  0  0  0  0  0  0  0  0  0  0
   33.6641   26.4747   48.8411 H   0  0  0  0  0  0  0  0  0  0  0  0
   30.8870   26.8610   49.1952 H   0  0  0  0  0  0  0  0  0  0  0  0
   30.9823   28.3864   48.9028 H   0  0  0  0  0  0  0  0  0  0  0  0
   31.8642   27.3522   46.1772 H   0  0  0  0  0  0  0  0  0  0  0  0
   33.5208   24.6287   47.5014 H   0  0  0  0  0  0  0  0  0  0  0  0
   29.8157   21.9160   45.3560 H   0  0  0  0  0  0  0  0  0  0  0  0
   27.5400   25.4843   44.9393 H   0  0  0  0  0  0  0  0  0  0  0  0
  1  6  2  0
  1  2  1  0
  2  7  1  0
  2  3  2  0
  3  4  1  0
  5 17  1  0
  5  4  2  0
  6  5  1  0
  7  8  2  0
  8  9  1  0
 10  9  2  0
 11 10  1  0
 12 11  2  0
 13 12  1  0
 14 13  2  0
 14 15  1  0
 15 16  2  0
 16 11  1  0
 16  7  1  0
 17 18  1  0
 19 17  1  0
 19 18  1  0
 20 21  1  0
 20 19  1  0
 22 21  2  0
 23 28  2  0
 23 22  1  0
 24 23  1  0
 25 26  1  0
 25 24  2  0
 26 27  2  0
 27 28  1  0
 28 20  1  0
  1 29  1  0
  3 30  1  0
  8 31  1  0
  9 32  1  0
 10 33  1  0
 12 34  1  0
 13 35  1  0
 14 36  1  0
 15 37  1  0
 17 38  1  1
 18 39  1  0
 18 40  1  0
 19 41  1  6
 21 42  1  0
 24 43  1  0
 26 44  1  0
M  END
>  <Score>  (1) 
-7.10131

$$$$
