
     RDKit          3D

 45 50  0  0  0  0  0  0  0  0999 V2000
   31.9440   29.3680   46.2270 C   0  0  0  0  0  0  0  0  0  0  0  0
   31.7880   27.9790   46.2710 C   0  0  0  0  0  0  0  0  0  0  0  0
   32.8400   27.2260   46.7970 C   0  0  0  0  0  0  0  0  0  0  0  0
   33.9460   27.8500   47.2360 N   0  0  0  0  0  0  0  0  0  0  0  0
   34.0740   29.2080   47.1820 C   0  0  0  0  0  0  0  0  0  0  0  0
   33.0800   29.9530   46.6820 N   0  0  0  0  0  0  0  0  0  0  0  0
   32.7030   25.7760   46.8560 C   0  0  0  0  0  0  0  0  0  0  0  0
   33.7070   25.0430   47.4630 C   0  0  0  0  0  0  0  0  0  0  0  0
   33.5250   23.6740   47.4890 C   0  0  0  0  0  0  0  0  0  0  0  0
   32.4330   23.0870   46.9540 N   0  0  0  0  0  0  0  0  0  0  0  0
   31.4690   23.8370   46.3660 C   0  0  0  0  0  0  0  0  0  0  0  0
   31.6380   25.1780   46.3350 N   0  0  0  0  0  0  0  0  0  0  0  0
   30.2750   23.3440   45.7670 N   0  0  0  0  0  0  0  0  0  0  0  0
   29.5660   24.0890   44.8880 C   0  0  0  0  0  0  0  0  0  0  0  0
   28.4770   23.3910   44.4680 N   0  0  0  0  0  0  0  0  0  0  0  0
   28.5050   22.2070   45.0850 C   0  0  0  0  0  0  0  0  0  0  0  0
   27.7310   21.0650   45.1130 C   0  0  0  0  0  0  0  0  0  0  0  0
   28.0390   19.9930   45.8740 N   0  0  0  0  0  0  0  0  0  0  0  0
   29.1530   20.0100   46.6540 C   0  0  0  0  0  0  0  0  0  0  0  0
   29.9310   21.1080   46.6530 N   0  0  0  0  0  0  0  0  0  0  0  0
   29.6230   22.1720   45.8970 C   0  0  0  0  0  0  0  0  0  0  0  0
   26.5610   21.0180   44.3050 N   0  0  0  0  0  0  0  0  0  0  0  0
   35.3090   29.7820   47.6800 C   0  0  0  0  0  0  0  0  0  0  0  0
   36.2240   30.4610   46.8720 C   0  0  0  0  0  0  0  0  0  0  0  0
   37.2610   30.8720   47.6190 N   0  0  0  0  0  0  0  0  0  0  0  0
   37.0460   30.4780   48.8990 C   0  0  0  0  0  0  0  0  0  0  0  0
   37.8000   30.6460   50.0520 C   0  0  0  0  0  0  0  0  0  0  0  0
   37.3070   30.1180   51.2420 C   0  0  0  0  0  0  0  0  0  0  0  0
   36.1000   29.4500   51.2510 C   0  0  0  0  0  0  0  0  0  0  0  0
   35.3300   29.2730   50.1010 C   0  0  0  0  0  0  0  0  0  0  0  0
   35.8380   29.8040   48.9400 C   0  0  0  0  0  0  0  0  0  0  0  0
   31.1363   29.9932   45.8188 H   0  0  0  0  0  0  0  0  0  0  0  0
   30.8697   27.4969   45.9045 H   0  0  0  0  0  0  0  0  0  0  0  0
   34.5965   25.5215   47.8986 H   0  0  0  0  0  0  0  0  0  0  0  0
   34.2930   23.0428   47.9599 H   0  0  0  0  0  0  0  0  0  0  0  0
   29.8304   25.1058   44.5622 H   0  0  0  0  0  0  0  0  0  0  0  0
   29.4137   19.1406   47.2754 H   0  0  0  0  0  0  0  0  0  0  0  0
   25.9664   20.1770   44.3081 H   0  0  0  0  0  0  0  0  0  0  0  0
   26.3085   21.8250   43.7169 H   0  0  0  0  0  0  0  0  0  0  0  0
   36.1122   30.6324   45.7912 H   0  0  0  0  0  0  0  0  0  0  0  0
   38.0795   31.3965   47.2786 H   0  0  0  0  0  0  0  0  0  0  0  0
   38.7605   31.1815   50.0263 H   0  0  0  0  0  0  0  0  0  0  0  0
   37.8793   30.2333   52.1743 H   0  0  0  0  0  0  0  0  0  0  0  0
   35.7300   29.0407   52.2026 H   0  0  0  0  0  0  0  0  0  0  0  0
   34.3692   28.7378   50.1226 H   0  0  0  0  0  0  0  0  0  0  0  0
  1  2  2  0
  1  6  1  0
  2  3  1  0
  3  7  1  0
  3  4  2  0
  5  4  1  0
  5 23  1  0
  6  5  2  0
  7  8  2  0
  8  9  1  0
 10  9  2  0
 11 10  1  0
 12 11  2  0
 12  7  1  0
 13 21  1  0
 13 11  1  0
 14 13  1  0
 15 14  2  0
 15 16  1  0
 16 17  2  0
 16 21  1  0
 17 18  1  0
 18 19  2  0
 20 19  1  0
 21 20  2  0
 22 17  1  0
 23 31  1  0
 24 25  1  0
 24 23  2  0
 25 26  1  0
 26 31  2  0
 26 27  1  0
 27 28  2  0
 28 29  1  0
 30 29  2  0
 31 30  1  0
  1 32  1  0
  2 33  1  0
  8 34  1  0
  9 35  1  0
 14 36  1  0
 19 37  1  0
 22 38  1  0
 22 39  1  0
 24 40  1  0
 25 41  1  0
 27 42  1  0
 28 43  1  0
 29 44  1  0
 30 45  1  0
M  END
>  <Score>  (1) 
-7.2374

$$$$
