
     RDKit          3D

 30 32  0  0  1  0  0  0  0  0999 V2000
   37.7780   31.1670   49.0830 C   0  0  0  0  0  0  0  0  0  0  0  0
   38.2780   31.0270   50.3100 N   0  0  0  0  0  0  0  0  0  0  0  0
   37.6900   30.2580   51.2630 C   0  0  0  0  0  0  0  0  0  0  0  0
   36.5610   29.5860   51.0380 N   0  0  0  0  0  0  0  0  0  0  0  0
   35.9650   29.6620   49.8220 C   0  0  0  0  0  0  0  0  0  0  0  0
   34.8120   28.9850   49.5680 C   0  0  0  0  0  0  0  0  0  0  0  0
   34.2040   29.0510   48.3540 C   0  0  0  0  0  0  0  0  0  0  0  0
   34.8200   29.8420   47.3950 C   0  0  0  0  0  0  0  0  0  0  0  0
   35.9820   30.5090   47.6920 C   0  0  0  0  0  0  0  0  0  0  0  0
   36.6100   30.4530   48.9120 C   0  0  0  0  0  0  0  0  0  0  0  0
   38.4880   32.0120   48.1250 C   0  0  1  0  0  0  0  0  0  0  0  0
   39.0140   31.7780   46.8090 C   0  0  0  0  0  0  0  0  0  0  0  0
   39.8210   32.8510   46.3980 C   0  0  0  0  0  0  0  0  0  0  0  0
   40.5690   32.7420   45.1760 C   0  0  0  0  0  0  0  0  0  0  0  0
   40.4280   31.5770   44.5000 N   0  0  0  0  0  0  0  0  0  0  0  0
   39.6310   30.5630   44.9330 C   0  0  0  0  0  0  0  0  0  0  0  0
   38.9400   30.6590   46.0570 N   0  0  0  0  0  0  0  0  0  0  0  0
   39.5060   29.3490   44.1900 N   0  0  0  0  0  0  0  0  0  0  0  0
   38.1540   33.2380   48.5140 O   0  0  0  0  0  0  0  0  0  0  0  0
   38.1616   30.1874   52.2542 H   0  0  0  0  0  0  0  0  0  0  0  0
   34.3623   28.3711   50.3623 H   0  0  0  0  0  0  0  0  0  0  0  0
   33.2723   28.5057   48.1430 H   0  0  0  0  0  0  0  0  0  0  0  0
   34.3755   29.9348   46.3931 H   0  0  0  0  0  0  0  0  0  0  0  0
   36.4385   31.1265   46.9044 H   0  0  0  0  0  0  0  0  0  0  0  0
   39.4731   31.5301   48.0399 H   0  0  0  0  0  0  0  0  0  0  0  0
   39.8800   33.7661   47.0056 H   0  0  0  0  0  0  0  0  0  0  0  0
   41.2157   33.5541   44.8123 H   0  0  0  0  0  0  0  0  0  0  0  0
   38.8970   28.5938   44.5360 H   0  0  0  0  0  0  0  0  0  0  0  0
   40.0249   29.2290   43.3084 H   0  0  0  0  0  0  0  0  0  0  0  0
   38.1429   33.2788   49.5031 H   0  0  0  0  0  0  0  0  0  0  0  0
  1  2  2  0
  2  3  1  0
  4  3  2  0
  5  4  1  0
  6  5  2  0
  7  6  1  0
  8  9  1  0
  8  7  2  0
  9 10  2  0
 10  1  1  0
 10  5  1  0
 11 19  1  0
 11  1  1  0
 12 11  1  0
 13 12  2  0
 14 13  1  0
 15 16  1  0
 15 14  2  0
 16 17  2  0
 17 12  1  0
 18 16  1  0
  3 20  1  0
  6 21  1  0
  7 22  1  0
  8 23  1  0
  9 24  1  0
 11 25  1  1
 13 26  1  0
 14 27  1  0
 18 28  1  0
 18 29  1  0
 19 30  1  0
M  END
>  <Score>  (1) 
-7.07215

$$$$
