
     RDKit          3D

 45 49  0  0  1  0  0  0  0  0999 V2000
   32.2420   27.5690   47.8480 C   0  0  2  0  0  0  0  0  0  0  0  0
   35.5240   29.9040   48.5220 C   0  0  0  0  0  0  0  0  0  0  0  0
   35.3950   28.8350   49.3950 C   0  0  0  0  0  0  0  0  0  0  0  0
   34.3290   28.0190   49.2460 C   0  0  0  0  0  0  0  0  0  0  0  0
   33.4770   28.2820   48.2850 C   0  0  0  0  0  0  0  0  0  0  0  0
   34.0770   29.7760   47.4200 S   0  0  0  0  0  0  0  0  0  0  0  0
   37.8180   32.5790   49.5250 C   0  0  0  0  0  0  0  0  0  0  0  0
   38.5980   32.7820   48.3720 C   0  0  0  0  0  0  0  0  0  0  0  0
   38.3260   32.0040   47.2720 C   0  0  0  0  0  0  0  0  0  0  0  0
   37.3270   31.0830   47.3460 N   0  0  0  0  0  0  0  0  0  0  0  0
   36.6160   30.9360   48.4750 C   0  0  0  0  0  0  0  0  0  0  0  0
   36.8060   31.6610   49.6280 N   0  0  0  0  0  0  0  0  0  0  0  0
   31.8190   28.0410   46.5500 C   0  0  0  0  0  0  0  0  0  0  0  0
   31.2220   27.6950   48.9760 C   0  0  0  0  0  0  0  0  0  0  0  0
   30.1930   26.8400   48.8770 O   0  0  0  0  0  0  0  0  0  0  0  0
   28.8910   27.2650   48.6940 C   0  0  0  0  0  0  0  0  0  0  0  0
   27.6050   26.7480   48.6440 C   0  0  0  0  0  0  0  0  0  0  0  0
   26.7890   27.8410   48.4130 C   0  0  0  0  0  0  0  0  0  0  0  0
   27.5840   28.9540   48.3340 C   0  0  0  0  0  0  0  0  0  0  0  0
   28.8170   28.5520   48.5070 O   0  0  0  0  0  0  0  0  0  0  0  0
   27.0230   30.2440   48.1000 N   0  0  0  0  0  0  0  0  0  0  0  0
   26.5900   31.1390   49.0070 C   0  0  0  0  0  0  0  0  0  0  0  0
   26.1500   32.2070   48.2830 N   0  0  0  0  0  0  0  0  0  0  0  0
   26.3110   31.9730   46.9620 C   0  0  0  0  0  0  0  0  0  0  0  0
   26.0650   32.6470   45.7840 C   0  0  0  0  0  0  0  0  0  0  0  0
   26.3470   32.1250   44.5750 N   0  0  0  0  0  0  0  0  0  0  0  0
   26.8890   30.9050   44.4920 C   0  0  0  0  0  0  0  0  0  0  0  0
   27.1470   30.2110   45.6120 N   0  0  0  0  0  0  0  0  0  0  0  0
   26.8730   30.7100   46.8460 C   0  0  0  0  0  0  0  0  0  0  0  0
   32.4035   26.4931   47.6860 H   0  0  0  0  0  0  0  0  0  0  0  0
   36.1387   28.6565   50.1856 H   0  0  0  0  0  0  0  0  0  0  0  0
   34.1798   27.1571   49.9130 H   0  0  0  0  0  0  0  0  0  0  0  0
   38.0358   33.2009   50.4058 H   0  0  0  0  0  0  0  0  0  0  0  0
   39.3977   33.5370   48.3515 H   0  0  0  0  0  0  0  0  0  0  0  0
   38.9071   32.1241   46.3458 H   0  0  0  0  0  0  0  0  0  0  0  0
   31.0897   28.8548   46.6756 H   0  0  0  0  0  0  0  0  0  0  0  0
   32.6915   28.4132   45.9930 H   0  0  0  0  0  0  0  0  0  0  0  0
   31.3538   27.2144   45.9930 H   0  0  0  0  0  0  0  0  0  0  0  0
   31.7364   27.5087   49.9303 H   0  0  0  0  0  0  0  0  0  0  0  0
   30.8011   28.7094   48.9137 H   0  0  0  0  0  0  0  0  0  0  0  0
   27.3003   25.6977   48.7623 H   0  0  0  0  0  0  0  0  0  0  0  0
   25.6940   27.8201   48.3107 H   0  0  0  0  0  0  0  0  0  0  0  0
   26.5909   31.0314   50.1017 H   0  0  0  0  0  0  0  0  0  0  0  0
   25.6203   33.6519   45.8341 H   0  0  0  0  0  0  0  0  0  0  0  0
   27.1228   30.4713   43.5085 H   0  0  0  0  0  0  0  0  0  0  0  0
  1  5  1  0
  1 14  1  0
  2  3  2  0
  4  3  1  0
  5  4  2  0
  6  5  1  0
  6  2  1  0
  7 12  2  0
  8  7  1  0
  9 10  1  0
  9  8  2  0
 10 11  2  0
 11  2  1  0
 11 12  1  0
 13  1  1  0
 15 14  1  0
 16 15  1  0
 17 16  2  0
 18 17  1  0
 19 18  2  0
 19 20  1  0
 20 16  1  0
 21 19  1  0
 21 22  1  0
 23 22  2  0
 24 23  1  0
 25 24  2  0
 26 25  1  0
 27 26  2  0
 27 28  1  0
 28 29  2  0
 29 24  1  0
 29 21  1  0
  1 30  1  6
  3 31  1  0
  4 32  1  0
  7 33  1  0
  8 34  1  0
  9 35  1  0
 13 36  1  0
 13 37  1  0
 13 38  1  0
 14 39  1  0
 14 40  1  0
 17 41  1  0
 18 42  1  0
 22 43  1  0
 25 44  1  0
 27 45  1  0
M  END
>  <Score>  (1) 
-7.1865

$$$$
