
     RDKit          3D

 51 55  0  0  0  0  0  0  0  0999 V2000
   40.0830   32.9020   40.8450 C   0  0  0  0  0  0  0  0  0  0  0  0
   41.2010   32.2900   41.4550 C   0  0  0  0  0  0  0  0  0  0  0  0
   41.1640   31.0360   42.0450 C   0  0  0  0  0  0  0  0  0  0  0  0
   39.9580   30.3390   42.0360 C   0  0  0  0  0  0  0  0  0  0  0  0
   38.8550   30.8930   41.4570 C   0  0  0  0  0  0  0  0  0  0  0  0
   37.7110   30.1740   41.4730 C   0  0  0  0  0  0  0  0  0  0  0  0
   36.5270   30.6950   40.8800 C   0  0  0  0  0  0  0  0  0  0  0  0
   36.6480   31.9710   40.3030 C   0  0  0  0  0  0  0  0  0  0  0  0
   37.8450   32.6280   40.3330 C   0  0  0  0  0  0  0  0  0  0  0  0
   38.9780   32.1250   40.9030 C   0  0  0  0  0  0  0  0  0  0  0  0
   40.3220   34.1970   40.3030 C   0  0  0  0  0  0  0  0  0  0  0  0
   39.7380   35.4430   40.6350 C   0  0  0  0  0  0  0  0  0  0  0  0
   40.1180   36.6240   40.0050 C   0  0  0  0  0  0  0  0  0  0  0  0
   41.0850   36.5180   39.0470 N   0  0  0  0  0  0  0  0  0  0  0  0
   41.6370   35.3650   38.7250 C   0  0  0  0  0  0  0  0  0  0  0  0
   41.2640   34.2390   39.3360 N   0  0  0  0  0  0  0  0  0  0  0  0
   37.4400   28.8710   42.0270 C   0  0  0  0  0  0  0  0  0  0  0  0
   37.1530   28.5370   43.3350 C   0  0  0  0  0  0  0  0  0  0  0  0
   36.8780   27.2660   43.7910 C   0  0  0  0  0  0  0  0  0  0  0  0
   36.8760   26.2140   42.9200 C   0  0  0  0  0  0  0  0  0  0  0  0
   37.1630   26.5550   41.6310 C   0  0  0  0  0  0  0  0  0  0  0  0
   37.4290   27.8020   41.1990 N   0  0  0  0  0  0  0  0  0  0  0  0
   37.1890   25.4780   40.5860 C   0  0  0  0  0  0  0  0  0  0  0  0
   36.4270   25.9170   39.3470 C   0  0  0  0  0  0  0  0  0  0  0  0
   36.8750   24.9650   38.2380 C   0  0  0  0  0  0  0  0  0  0  0  0
   37.0280   23.5740   38.8280 C   0  0  0  0  0  0  0  0  0  0  0  0
   35.9980   23.4420   39.9300 C   0  0  0  0  0  0  0  0  0  0  0  0
   36.5440   24.2220   41.1250 C   0  0  0  0  0  0  0  0  0  0  0  0
   42.1540   32.8393   41.4621 H   0  0  0  0  0  0  0  0  0  0  0  0
   42.0630   30.6030   42.5079 H   0  0  0  0  0  0  0  0  0  0  0  0
   39.8956   29.3417   42.4960 H   0  0  0  0  0  0  0  0  0  0  0  0
   35.5796   30.1361   40.8736 H   0  0  0  0  0  0  0  0  0  0  0  0
   35.7759   32.4419   39.8258 H   0  0  0  0  0  0  0  0  0  0  0  0
   37.8989   33.6239   39.8691 H   0  0  0  0  0  0  0  0  0  0  0  0
   38.9615   35.4786   41.4133 H   0  0  0  0  0  0  0  0  0  0  0  0
   39.6636   37.5914   40.2649 H   0  0  0  0  0  0  0  0  0  0  0  0
   42.4123   35.3309   37.9454 H   0  0  0  0  0  0  0  0  0  0  0  0
   37.1429   29.3519   44.0738 H   0  0  0  0  0  0  0  0  0  0  0  0
   36.6602   27.0988   44.8562 H   0  0  0  0  0  0  0  0  0  0  0  0
   36.6615   25.1810   43.2312 H   0  0  0  0  0  0  0  0  0  0  0  0
   38.2390   25.2832   40.3224 H   0  0  0  0  0  0  0  0  0  0  0  0
   35.3427   25.8330   39.5119 H   0  0  0  0  0  0  0  0  0  0  0  0
   36.6303   26.9675   39.0919 H   0  0  0  0  0  0  0  0  0  0  0  0
   37.8383   25.3015   37.8271 H   0  0  0  0  0  0  0  0  0  0  0  0
   36.1290   24.9511   37.4298 H   0  0  0  0  0  0  0  0  0  0  0  0
   36.8508   22.8138   38.0529 H   0  0  0  0  0  0  0  0  0  0  0  0
   38.0442   23.4255   39.2221 H   0  0  0  0  0  0  0  0  0  0  0  0
   35.0367   23.8668   39.6053 H   0  0  0  0  0  0  0  0  0  0  0  0
   35.8226   22.3872   40.1882 H   0  0  0  0  0  0  0  0  0  0  0  0
   37.2896   23.6163   41.6608 H   0  0  0  0  0  0  0  0  0  0  0  0
   35.7364   24.4707   41.8292 H   0  0  0  0  0  0  0  0  0  0  0  0
  1 10  1  0
  1  2  2  0
  2  3  1  0
  4  3  2  0
  5  6  2  0
  5  4  1  0
  6 17  1  0
  7  6  1  0
  8  9  1  0
  8  7  2  0
  9 10  2  0
 10  5  1  0
 11 12  2  0
 11  1  1  0
 13 12  1  0
 14 13  2  0
 15 14  1  0
 15 16  2  0
 16 11  1  0
 17 18  2  0
 18 19  1  0
 20 19  2  0
 21 20  1  0
 22 21  2  0
 22 17  1  0
 23 28  1  0
 23 21  1  0
 24 23  1  0
 25 26  1  0
 25 24  1  0
 26 27  1  0
 27 28  1  0
  2 29  1  0
  3 30  1  0
  4 31  1  0
  7 32  1  0
  8 33  1  0
  9 34  1  0
 12 35  1  0
 13 36  1  0
 15 37  1  0
 18 38  1  0
 19 39  1  0
 20 40  1  0
 23 41  1  0
 24 42  1  0
 24 43  1  0
 25 44  1  0
 25 45  1  0
 26 46  1  0
 26 47  1  0
 27 48  1  0
 27 49  1  0
 28 50  1  0
 28 51  1  0
M  END
>  <Score>  (1) 
-7.0739

$$$$
