
     RDKit          3D

 52 56  0  0  1  0  0  0  0  0999 V2000
   39.3270   31.1410   41.0810 C   0  0  0  0  0  0  0  0  0  0  0  0
   40.3470   30.5310   40.9760 O   0  0  0  0  0  0  0  0  0  0  0  0
   39.0840   32.5550   40.7450 C   0  0  0  0  0  0  0  0  0  0  0  0
   37.8260   32.8150   40.0810 C   0  0  0  0  0  0  0  0  0  0  0  0
   37.5440   34.1310   39.7120 C   0  0  0  0  0  0  0  0  0  0  0  0
   38.4750   35.0760   40.0050 N   0  0  0  0  0  0  0  0  0  0  0  0
   39.6520   34.8020   40.6330 C   0  0  0  0  0  0  0  0  0  0  0  0
   39.8830   33.5590   40.9640 N   0  0  0  0  0  0  0  0  0  0  0  0
   40.5480   35.9500   40.8880 C   0  0  0  0  0  0  0  0  0  0  0  0
   41.9470   35.5200   41.0720 C   0  0  0  0  0  0  0  0  0  0  0  0
   42.4900   34.5740   40.1910 C   0  0  0  0  0  0  0  0  0  0  0  0
   43.7500   34.0410   40.2270 C   0  0  0  0  0  0  0  0  0  0  0  0
   44.5780   34.4800   41.2380 C   0  0  0  0  0  0  0  0  0  0  0  0
   44.1200   35.4110   42.1470 C   0  0  0  0  0  0  0  0  0  0  0  0
   44.9320   35.8760   43.1650 C   0  0  0  0  0  0  0  0  0  0  0  0
   44.5020   36.8270   44.0980 C   0  0  0  0  0  0  0  0  0  0  0  0
   43.2120   37.2880   43.9540 C   0  0  0  0  0  0  0  0  0  0  0  0
   42.3860   36.8380   42.9470 C   0  0  0  0  0  0  0  0  0  0  0  0
   42.8380   35.9050   42.0480 C   0  0  0  0  0  0  0  0  0  0  0  0
   38.1620   30.4490   41.5850 O   0  0  0  0  0  0  0  0  0  0  0  0
   37.8330   29.2130   41.3050 C   0  0  2  0  0  0  0  0  0  0  0  0
   37.2530   29.3580   39.7360 C   0  0  0  0  0  0  0  0  0  0  0  0
   35.8190   29.4470   39.7650 C   0  0  0  0  0  0  0  0  0  0  0  0
   35.4920   28.5810   40.9120 C   0  0  0  0  0  0  0  0  0  0  0  0
   36.6400   28.8170   41.9080 C   0  0  1  0  0  0  0  0  0  0  0  0
   36.7790   27.6700   42.8630 C   0  0  0  0  0  0  0  0  0  0  0  0
   37.9750   27.5750   43.6980 C   0  0  0  0  0  0  0  0  0  0  0  0
   36.7290   28.0050   44.3800 C   0  0  0  0  0  0  0  0  0  0  0  0
   37.1146   32.0021   39.8735 H   0  0  0  0  0  0  0  0  0  0  0  0
   36.6044   34.3930   39.2036 H   0  0  0  0  0  0  0  0  0  0  0  0
   40.4966   36.6393   40.0323 H   0  0  0  0  0  0  0  0  0  0  0  0
   40.2168   36.4445   41.8131 H   0  0  0  0  0  0  0  0  0  0  0  0
   41.8317   34.2220   39.3831 H   0  0  0  0  0  0  0  0  0  0  0  0
   44.0851   33.2997   39.4866 H   0  0  0  0  0  0  0  0  0  0  0  0
   45.6027   34.0884   41.3197 H   0  0  0  0  0  0  0  0  0  0  0  0
   45.9563   35.4831   43.2449 H   0  0  0  0  0  0  0  0  0  0  0  0
   45.1593   37.1869   44.9032 H   0  0  0  0  0  0  0  0  0  0  0  0
   42.8302   38.0370   44.6634 H   0  0  0  0  0  0  0  0  0  0  0  0
   41.3609   37.2280   42.8635 H   0  0  0  0  0  0  0  0  0  0  0  0
   38.6744   28.5519   41.5602 H   0  0  0  0  0  0  0  0  0  0  0  0
   37.5545   28.4772   39.1501 H   0  0  0  0  0  0  0  0  0  0  0  0
   37.6687   30.2647   39.2723 H   0  0  0  0  0  0  0  0  0  0  0  0
   35.4843   30.4811   39.9344 H   0  0  0  0  0  0  0  0  0  0  0  0
   35.3327   29.1475   38.8249 H   0  0  0  0  0  0  0  0  0  0  0  0
   34.5271   28.8690   41.3547 H   0  0  0  0  0  0  0  0  0  0  0  0
   35.3960   27.5234   40.6253 H   0  0  0  0  0  0  0  0  0  0  0  0
   36.3621   29.6897   42.5172 H   0  0  0  0  0  0  0  0  0  0  0  0
   36.2586   26.9826   42.1798 H   0  0  0  0  0  0  0  0  0  0  0  0
   38.3989   26.5851   43.9226 H   0  0  0  0  0  0  0  0  0  0  0  0
   38.9839   28.0072   43.6247 H   0  0  0  0  0  0  0  0  0  0  0  0
   36.6091   29.0452   44.7170 H   0  0  0  0  0  0  0  0  0  0  0  0
   36.1431   27.6667   45.2474 H   0  0  0  0  0  0  0  0  0  0  0  0
  1 20  1  0
  2  1  2  0
  3  8  1  0
  3  1  1  0
  4  3  2  0
  5  6  2  0
  5  4  1  0
  6  7  1  0
  7  9  1  0
  7  8  2  0
  9 10  1  0
 10 19  2  0
 11 12  2  0
 11 10  1  0
 12 13  1  0
 13 14  2  0
 14 15  1  0
 15 16  2  0
 17 16  1  0
 18 17  2  0
 19 14  1  0
 19 18  1  0
 21 20  1  0
 21 25  1  0
 22 23  1  0
 22 21  1  0
 23 24  1  0
 24 25  1  0
 25 26  1  0
 26 27  1  0
 26 28  1  0
 27 28  1  0
  4 29  1  0
  5 30  1  0
  9 31  1  0
  9 32  1  0
 11 33  1  0
 12 34  1  0
 13 35  1  0
 15 36  1  0
 16 37  1  0
 17 38  1  0
 18 39  1  0
 21 40  1  6
 22 41  1  0
 22 42  1  0
 23 43  1  0
 23 44  1  0
 24 45  1  0
 24 46  1  0
 25 47  1  1
 26 48  1  0
 27 49  1  0
 27 50  1  0
 28 51  1  0
 28 52  1  0
M  END
>  <Score>  (1) 
-7.37513

$$$$
