
     RDKit          3D

 52 55  0  0  0  0  0  0  0  0999 V2000
   36.7370   30.2360   41.7170 O   0  0  0  0  0  0  0  0  0  0  0  0
   37.2760   26.6990   41.0590 C   0  0  0  0  0  0  0  0  0  0  0  0
   38.3080   26.4210   41.9770 C   0  0  0  0  0  0  0  0  0  0  0  0
   38.7870   27.4530   42.7910 C   0  0  0  0  0  0  0  0  0  0  0  0
   38.2130   28.6890   42.6440 N   0  0  0  0  0  0  0  0  0  0  0  0
   37.2220   28.9420   41.7590 C   0  0  0  0  0  0  0  0  0  0  0  0
   36.7480   27.9480   40.9600 N   0  0  0  0  0  0  0  0  0  0  0  0
   39.8010   27.2210   43.7000 N   0  0  0  0  0  0  0  0  0  0  0  0
   36.7680   25.7200   40.2220 N   0  0  0  0  0  0  0  0  0  0  0  0
   38.7820   25.0410   41.9840 C   0  0  0  0  0  0  0  0  0  0  0  0
   37.6400   24.0380   41.8340 C   0  0  0  0  0  0  0  0  0  0  0  0
   39.5940   24.6150   43.1570 C   0  0  0  0  0  0  0  0  0  0  0  0
   39.6820   24.8830   40.7630 C   0  0  0  0  0  0  0  0  0  0  0  0
   37.0410   31.1280   40.7140 C   0  0  0  0  0  0  0  0  0  0  0  0
   36.7280   31.3800   39.4370 N   0  0  0  0  0  0  0  0  0  0  0  0
   37.3780   32.4200   39.0090 O   0  0  0  0  0  0  0  0  0  0  0  0
   38.1360   32.8880   39.9820 C   0  0  0  0  0  0  0  0  0  0  0  0
   37.9420   32.0950   41.0610 N   0  0  0  0  0  0  0  0  0  0  0  0
   39.0280   34.0520   39.9130 C   0  0  0  0  0  0  0  0  0  0  0  0
   38.6540   35.3290   40.2260 C   0  0  0  0  0  0  0  0  0  0  0  0
   39.5840   36.3760   40.1280 C   0  0  0  0  0  0  0  0  0  0  0  0
   40.8720   36.1440   39.7220 C   0  0  0  0  0  0  0  0  0  0  0  0
   41.2420   34.8710   39.4120 C   0  0  0  0  0  0  0  0  0  0  0  0
   40.3400   33.8210   39.5010 C   0  0  0  0  0  0  0  0  0  0  0  0
   40.7560   32.4990   39.1700 N   0  0  0  0  0  0  0  0  0  0  0  0
   40.6090   32.1220   37.8760 C   0  0  0  0  0  0  0  0  0  0  0  0
   40.9970   30.8420   37.4880 C   0  0  0  0  0  0  0  0  0  0  0  0
   41.5310   29.9590   38.4280 C   0  0  0  0  0  0  0  0  0  0  0  0
   41.9030   28.7840   38.1540 O   0  0  0  0  0  0  0  0  0  0  0  0
   41.6510   30.3990   39.7130 N   0  0  0  0  0  0  0  0  0  0  0  0
   41.2680   31.6490   40.0650 C   0  0  0  0  0  0  0  0  0  0  0  0
   41.3880   32.0390   41.2660 O   0  0  0  0  0  0  0  0  0  0  0  0
   40.1456   27.9886   44.2941 H   0  0  0  0  0  0  0  0  0  0  0  0
   40.2124   26.2804   43.7837 H   0  0  0  0  0  0  0  0  0  0  0  0
   36.0133   25.9495   39.5597 H   0  0  0  0  0  0  0  0  0  0  0  0
   37.1448   24.7622   40.2617 H   0  0  0  0  0  0  0  0  0  0  0  0
   37.2893   23.7300   42.8301 H   0  0  0  0  0  0  0  0  0  0  0  0
   36.8114   24.5056   41.2819 H   0  0  0  0  0  0  0  0  0  0  0  0
   37.9968   23.1560   41.2819 H   0  0  0  0  0  0  0  0  0  0  0  0
   39.0704   24.8897   44.0846 H   0  0  0  0  0  0  0  0  0  0  0  0
   39.7385   23.5250   43.1265 H   0  0  0  0  0  0  0  0  0  0  0  0
   40.5730   25.1156   43.1265 H   0  0  0  0  0  0  0  0  0  0  0  0
   40.7162   24.7014   41.0908 H   0  0  0  0  0  0  0  0  0  0  0  0
   39.3342   24.0322   40.1587 H   0  0  0  0  0  0  0  0  0  0  0  0
   39.6448   25.8014   40.1587 H   0  0  0  0  0  0  0  0  0  0  0  0
   37.6248   35.5361   40.5545 H   0  0  0  0  0  0  0  0  0  0  0  0
   39.2734   37.4003   40.3815 H   0  0  0  0  0  0  0  0  0  0  0  0
   41.5936   36.9709   39.6479 H   0  0  0  0  0  0  0  0  0  0  0  0
   42.2734   34.6718   39.0855 H   0  0  0  0  0  0  0  0  0  0  0  0
   40.1869   32.8211   37.1390 H   0  0  0  0  0  0  0  0  0  0  0  0
   40.8826   30.5267   36.4404 H   0  0  0  0  0  0  0  0  0  0  0  0
   42.0401   29.7690   40.4289 H   0  0  0  0  0  0  0  0  0  0  0  0
  1  6  1  0
  2  3  2  0
  3 10  1  0
  3  4  1  0
  4  8  1  0
  5  4  2  0
  6  5  1  0
  7  2  1  0
  7  6  2  0
  9  2  1  0
 10 12  1  0
 11 10  1  0
 13 10  1  0
 14 18  1  0
 14  1  1  0
 15 14  2  0
 16 15  1  0
 16 17  1  0
 17 18  2  0
 19 17  1  0
 19 20  2  0
 21 20  1  0
 22 21  2  0
 23 24  2  0
 23 22  1  0
 24 19  1  0
 25 24  1  0
 25 31  1  0
 26 25  1  0
 27 26  2  0
 27 28  1  0
 28 30  1  0
 29 28  2  0
 30 31  1  0
 31 32  2  0
  8 33  1  0
  8 34  1  0
  9 35  1  0
  9 36  1  0
 11 37  1  0
 11 38  1  0
 11 39  1  0
 12 40  1  0
 12 41  1  0
 12 42  1  0
 13 43  1  0
 13 44  1  0
 13 45  1  0
 20 46  1  0
 21 47  1  0
 22 48  1  0
 23 49  1  0
 26 50  1  0
 27 51  1  0
 30 52  1  0
M  END
>  <Score>  (1) 
-7.20282

$$$$
