
     RDKit          3D

 39 42  0  0  0  0  0  0  0  0999 V2000
   37.2940   33.6780   39.9820 N   0  0  0  0  0  0  0  0  0  0  0  0
   37.6710   34.8980   39.7010 N   0  0  0  0  0  0  0  0  0  0  0  0
   38.9350   35.0810   40.1730 C   0  0  0  0  0  0  0  0  0  0  0  0
   39.2630   33.8610   40.7500 C   0  0  0  0  0  0  0  0  0  0  0  0
   38.1770   32.9690   40.6110 C   0  0  0  0  0  0  0  0  0  0  0  0
   38.2700   31.6730   41.1700 C   0  0  0  0  0  0  0  0  0  0  0  0
   39.3410   31.3590   41.9600 N   0  0  0  0  0  0  0  0  0  0  0  0
   39.5390   30.2130   42.5780 C   0  0  0  0  0  0  0  0  0  0  0  0
   38.6740   29.1950   42.4920 N   0  0  0  0  0  0  0  0  0  0  0  0
   37.5750   29.3810   41.7380 C   0  0  0  0  0  0  0  0  0  0  0  0
   36.6460   28.3860   41.6050 C   0  0  0  0  0  0  0  0  0  0  0  0
   35.4980   28.5530   40.8250 C   0  0  0  0  0  0  0  0  0  0  0  0
   35.3510   29.7780   40.1960 C   0  0  0  0  0  0  0  0  0  0  0  0
   36.3260   30.7240   40.3820 C   0  0  0  0  0  0  0  0  0  0  0  0
   37.4440   30.6080   41.1250 C   0  0  0  0  0  0  0  0  0  0  0  0
   40.0590   36.4860   40.2150 S   0  0  0  0  0  0  0  0  0  0  0  0
   43.3440   34.6570   41.4530 C   0  0  0  0  0  0  0  0  0  0  0  0
   43.7620   35.3940   42.5750 C   0  0  0  0  0  0  0  0  0  0  0  0
   43.0110   36.4740   42.9620 C   0  0  0  0  0  0  0  0  0  0  0  0
   41.9030   36.7690   42.2320 N   0  0  0  0  0  0  0  0  0  0  0  0
   41.5210   36.0520   41.1620 C   0  0  0  0  0  0  0  0  0  0  0  0
   42.2360   35.0130   40.7850 N   0  0  0  0  0  0  0  0  0  0  0  0
   43.4580   37.2430   44.1480 C   0  0  0  0  0  0  0  0  0  0  0  0
   44.5750   36.5900   44.8890 C   0  0  0  0  0  0  0  0  0  0  0  0
   44.2190   36.5530   46.2450 O   0  0  0  0  0  0  0  0  0  0  0  0
   36.3675   33.3095   39.7235 H   0  0  0  0  0  0  0  0  0  0  0  0
   40.2198   33.6261   41.2392 H   0  0  0  0  0  0  0  0  0  0  0  0
   40.4470   30.0880   43.1862 H   0  0  0  0  0  0  0  0  0  0  0  0
   36.8063   27.4300   42.1250 H   0  0  0  0  0  0  0  0  0  0  0  0
   34.7506   27.7533   40.7165 H   0  0  0  0  0  0  0  0  0  0  0  0
   34.4752   29.9866   39.5639 H   0  0  0  0  0  0  0  0  0  0  0  0
   36.1790   31.6849   39.8671 H   0  0  0  0  0  0  0  0  0  0  0  0
   43.9274   33.7853   41.1215 H   0  0  0  0  0  0  0  0  0  0  0  0
   44.6693   35.1111   43.1288 H   0  0  0  0  0  0  0  0  0  0  0  0
   43.7942   38.2356   43.8138 H   0  0  0  0  0  0  0  0  0  0  0  0
   42.6027   37.3046   44.8370 H   0  0  0  0  0  0  0  0  0  0  0  0
   44.7275   35.5675   44.5131 H   0  0  0  0  0  0  0  0  0  0  0  0
   45.5110   37.1509   44.7502 H   0  0  0  0  0  0  0  0  0  0  0  0
   45.0329   36.6376   46.8023 H   0  0  0  0  0  0  0  0  0  0  0  0
  1  5  1  0
  2  1  1  0
  2  3  2  0
  3 16  1  0
  3  4  1  0
  5  4  2  0
  5  6  1  0
  6  7  2  0
  7  8  1  0
  9  8  2  0
 10  9  1  0
 11 10  2  0
 12 11  1  0
 13 14  1  0
 13 12  2  0
 14 15  2  0
 15  6  1  0
 15 10  1  0
 16 21  1  0
 17 18  2  0
 18 19  1  0
 19 23  1  0
 20 19  2  0
 21 20  1  0
 22 21  2  0
 22 17  1  0
 23 24  1  0
 24 25  1  0
  1 26  1  0
  4 27  1  0
  8 28  1  0
 11 29  1  0
 12 30  1  0
 13 31  1  0
 14 32  1  0
 17 33  1  0
 18 34  1  0
 23 35  1  0
 23 36  1  0
 24 37  1  0
 24 38  1  0
 25 39  1  0
M  END
>  <Score>  (1) 
-7.62964

$$$$
