
     RDKit          3D

 49 53  0  0  1  0  0  0  0  0999 V2000
   37.2860   28.8680   41.2160 C   0  0  0  0  0  0  0  0  0  0  0  0
   37.5260   29.4560   42.4760 C   0  0  0  0  0  0  0  0  0  0  0  0
   37.5560   28.7250   43.6800 C   0  0  0  0  0  0  0  0  0  0  0  0
   37.3470   27.3440   43.6300 C   0  0  0  0  0  0  0  0  0  0  0  0
   37.1150   26.7270   42.4070 C   0  0  0  0  0  0  0  0  0  0  0  0
   36.9640   25.3680   42.3160 C   0  0  0  0  0  0  0  0  0  0  0  0
   36.7840   24.7210   41.0960 C   0  0  0  0  0  0  0  0  0  0  0  0
   36.7630   25.5520   39.9700 C   0  0  0  0  0  0  0  0  0  0  0  0
   36.9160   26.9230   40.0970 C   0  0  0  0  0  0  0  0  0  0  0  0
   37.0990   27.5250   41.2970 C   0  0  0  0  0  0  0  0  0  0  0  0
   41.3170   28.5740   40.9230 C   0  0  0  0  0  0  0  0  0  0  0  0
   42.2720   28.7190   39.8900 C   0  0  0  0  0  0  0  0  0  0  0  0
   41.8830   29.4120   38.7440 C   0  0  0  0  0  0  0  0  0  0  0  0
   40.5980   29.9210   38.6710 N   0  0  0  0  0  0  0  0  0  0  0  0
   39.7430   29.7510   39.6800 C   0  0  0  0  0  0  0  0  0  0  0  0
   40.1040   29.0920   40.7740 N   0  0  0  0  0  0  0  0  0  0  0  0
   38.4690   30.2750   39.5710 N   0  0  0  0  0  0  0  0  0  0  0  0
   38.1350   31.4370   38.7320 C   0  0  0  0  0  0  0  0  0  0  0  0
   36.9750   32.0600   39.4210 C   0  0  0  0  0  0  0  0  0  0  0  0
   36.6260   31.1580   40.5730 C   0  0  0  0  0  0  0  0  0  0  0  0
   37.2010   29.8210   40.1710 C   0  0  2  0  0  0  0  0  0  0  0  0
   36.7460   27.4350   38.7930 N   0  0  0  0  0  0  0  0  0  0  0  0
   35.8370   28.1190   38.0750 C   0  0  0  0  0  0  0  0  0  0  0  0
   36.1050   28.5350   36.7910 C   0  0  0  0  0  0  0  0  0  0  0  0
   37.3210   28.2640   36.2000 C   0  0  0  0  0  0  0  0  0  0  0  0
   37.4510   28.7570   34.8730 N   0  0  0  0  0  0  0  0  0  0  0  0
   38.2890   27.5760   36.8710 N   0  0  0  0  0  0  0  0  0  0  0  0
   37.9610   27.1910   38.1400 C   0  0  0  0  0  0  0  0  0  0  0  0
   38.9950   26.5710   38.5790 O   0  0  0  0  0  0  0  0  0  0  0  0
   37.6986   30.5415   42.5205 H   0  0  0  0  0  0  0  0  0  0  0  0
   37.7401   29.2306   44.6394 H   0  0  0  0  0  0  0  0  0  0  0  0
   37.3661   26.7484   44.5546 H   0  0  0  0  0  0  0  0  0  0  0  0
   36.9857   24.7680   43.2377 H   0  0  0  0  0  0  0  0  0  0  0  0
   36.6662   23.6298   41.0223 H   0  0  0  0  0  0  0  0  0  0  0  0
   36.6233   25.1111   38.9720 H   0  0  0  0  0  0  0  0  0  0  0  0
   41.5782   28.0346   41.8454 H   0  0  0  0  0  0  0  0  0  0  0  0
   43.2846   28.3005   39.9869 H   0  0  0  0  0  0  0  0  0  0  0  0
   42.5870   29.5520   37.9105 H   0  0  0  0  0  0  0  0  0  0  0  0
   37.8605   31.1187   37.7155 H   0  0  0  0  0  0  0  0  0  0  0  0
   38.9803   32.1314   38.6166 H   0  0  0  0  0  0  0  0  0  0  0  0
   37.2450   33.0604   39.7902 H   0  0  0  0  0  0  0  0  0  0  0  0
   36.1224   32.1775   38.7360 H   0  0  0  0  0  0  0  0  0  0  0  0
   37.0855   31.5177   41.5055 H   0  0  0  0  0  0  0  0  0  0  0  0
   35.5440   31.1147   40.7666 H   0  0  0  0  0  0  0  0  0  0  0  0
   36.5820   29.2231   39.4858 H   0  0  0  0  0  0  0  0  0  0  0  0
   34.8596   28.3505   38.5234 H   0  0  0  0  0  0  0  0  0  0  0  0
   35.3397   29.0906   36.2291 H   0  0  0  0  0  0  0  0  0  0  0  0
   38.3247   28.6030   34.3497 H   0  0  0  0  0  0  0  0  0  0  0  0
   36.6715   29.2682   34.4348 H   0  0  0  0  0  0  0  0  0  0  0  0
  1 10  1  0
  1  2  2  0
  2  3  1  0
  4  3  2  0
  5  4  1  0
  6  5  2  0
  7  6  1  0
  8  9  1  0
  8  7  2  0
  9 10  2  0
 10  5  1  0
 12 11  2  0
 13 12  1  0
 14 13  2  0
 14 15  1  0
 15 16  2  0
 16 11  1  0
 17 15  1  0
 17 21  1  0
 18 19  1  0
 18 17  1  0
 19 20  1  0
 21 20  1  0
 21  1  1  0
 22  9  1  0
 23 22  1  0
 24 23  2  0
 25 24  1  0
 25 27  2  0
 26 25  1  0
 27 28  1  0
 28 29  2  0
 28 22  1  0
  2 30  1  0
  3 31  1  0
  4 32  1  0
  6 33  1  0
  7 34  1  0
  8 35  1  0
 11 36  1  0
 12 37  1  0
 13 38  1  0
 18 39  1  0
 18 40  1  0
 19 41  1  0
 19 42  1  0
 20 43  1  0
 20 44  1  0
 21 45  1  6
 23 46  1  0
 24 47  1  0
 26 48  1  0
 26 49  1  0
M  END
>  <Score>  (1) 
-7.0162

$$$$
