
     RDKit          3D

 56 60  0  0  0  0  0  0  0  0999 V2000
   36.9510   31.1650   40.6390 C   0  0  0  0  0  0  0  0  0  0  0  0
   36.6440   31.4410   39.3710 N   0  0  0  0  0  0  0  0  0  0  0  0
   37.3160   32.4750   38.9600 O   0  0  0  0  0  0  0  0  0  0  0  0
   38.0740   32.9090   39.9220 C   0  0  0  0  0  0  0  0  0  0  0  0
   37.8620   32.1000   40.9920 N   0  0  0  0  0  0  0  0  0  0  0  0
   38.9970   34.0590   39.8860 C   0  0  0  0  0  0  0  0  0  0  0  0
   38.6330   35.3480   40.1590 C   0  0  0  0  0  0  0  0  0  0  0  0
   39.5650   36.3830   40.1030 C   0  0  0  0  0  0  0  0  0  0  0  0
   40.8870   36.1100   39.7670 C   0  0  0  0  0  0  0  0  0  0  0  0
   41.2520   34.8230   39.4950 C   0  0  0  0  0  0  0  0  0  0  0  0
   40.3160   33.8180   39.5550 C   0  0  0  0  0  0  0  0  0  0  0  0
   40.7330   32.4460   39.2570 C   0  0  0  0  0  0  0  0  0  0  0  0
   40.6360   31.9890   37.9900 N   0  0  0  0  0  0  0  0  0  0  0  0
   40.9890   30.7610   37.6220 C   0  0  0  0  0  0  0  0  0  0  0  0
   41.4780   29.8960   38.5470 N   0  0  0  0  0  0  0  0  0  0  0  0
   41.6110   30.2740   39.8470 C   0  0  0  0  0  0  0  0  0  0  0  0
   42.1080   29.3990   40.7920 C   0  0  0  0  0  0  0  0  0  0  0  0
   42.2430   29.7880   42.1290 C   0  0  0  0  0  0  0  0  0  0  0  0
   41.8520   31.0720   42.4070 C   0  0  0  0  0  0  0  0  0  0  0  0
   41.3480   31.9810   41.4890 C   0  0  0  0  0  0  0  0  0  0  0  0
   41.2320   31.5570   40.1870 C   0  0  0  0  0  0  0  0  0  0  0  0
   36.6350   30.2690   41.6290 O   0  0  0  0  0  0  0  0  0  0  0  0
   37.2590   26.7170   41.1360 C   0  0  0  0  0  0  0  0  0  0  0  0
   38.3660   26.5320   42.0010 C   0  0  0  0  0  0  0  0  0  0  0  0
   38.8520   27.6310   42.7160 C   0  0  0  0  0  0  0  0  0  0  0  0
   38.2240   28.8290   42.5370 N   0  0  0  0  0  0  0  0  0  0  0  0
   37.1680   28.9940   41.7080 C   0  0  0  0  0  0  0  0  0  0  0  0
   36.6790   27.9400   41.0030 N   0  0  0  0  0  0  0  0  0  0  0  0
   39.9320   27.4830   43.5630 N   0  0  0  0  0  0  0  0  0  0  0  0
   36.7350   25.6700   40.3960 N   0  0  0  0  0  0  0  0  0  0  0  0
   38.8870   25.1710   42.0510 C   0  0  0  0  0  0  0  0  0  0  0  0
   37.7870   24.1170   41.9260 C   0  0  0  0  0  0  0  0  0  0  0  0
   39.7020   24.8270   43.2510 C   0  0  0  0  0  0  0  0  0  0  0  0
   39.8010   25.0100   40.8390 C   0  0  0  0  0  0  0  0  0  0  0  0
   37.5898   35.5717   40.4267 H   0  0  0  0  0  0  0  0  0  0  0  0
   39.2553   37.4150   40.3244 H   0  0  0  0  0  0  0  0  0  0  0  0
   41.6289   36.9209   39.7211 H   0  0  0  0  0  0  0  0  0  0  0  0
   42.2935   34.5905   39.2282 H   0  0  0  0  0  0  0  0  0  0  0  0
   40.8853   30.4474   36.5728 H   0  0  0  0  0  0  0  0  0  0  0  0
   42.4016   28.3829   40.4899 H   0  0  0  0  0  0  0  0  0  0  0  0
   42.6352   29.1113   42.9025 H   0  0  0  0  0  0  0  0  0  0  0  0
   41.9462   31.4109   43.4492 H   0  0  0  0  0  0  0  0  0  0  0  0
   41.0538   32.9973   41.7899 H   0  0  0  0  0  0  0  0  0  0  0  0
   40.2888   28.2935   44.0890 H   0  0  0  0  0  0  0  0  0  0  0  0
   40.3810   26.5621   43.6690 H   0  0  0  0  0  0  0  0  0  0  0  0
   35.9296   25.8311   39.7744 H   0  0  0  0  0  0  0  0  0  0  0  0
   37.1507   24.7303   40.4673 H   0  0  0  0  0  0  0  0  0  0  0  0
   37.4619   23.8055   42.9296 H   0  0  0  0  0  0  0  0  0  0  0  0
   36.9324   24.5420   41.3792 H   0  0  0  0  0  0  0  0  0  0  0  0
   38.1751   23.2450   41.3792 H   0  0  0  0  0  0  0  0  0  0  0  0
   39.1334   25.0670   44.1615 H   0  0  0  0  0  0  0  0  0  0  0  0
   39.9377   23.7526   43.2384 H   0  0  0  0  0  0  0  0  0  0  0  0
   40.6362   25.4075   43.2384 H   0  0  0  0  0  0  0  0  0  0  0  0
   40.8315   24.8285   41.1784 H   0  0  0  0  0  0  0  0  0  0  0  0
   39.4593   24.1582   40.2326 H   0  0  0  0  0  0  0  0  0  0  0  0
   39.7709   25.9273   40.2326 H   0  0  0  0  0  0  0  0  0  0  0  0
  1  5  1  0
  1 22  1  0
  2  1  2  0
  3  2  1  0
  3  4  1  0
  4  5  2  0
  6  4  1  0
  6  7  2  0
  8  7  1  0
  9  8  2  0
 10 11  2  0
 10  9  1  0
 11  6  1  0
 12 11  1  0
 12 21  1  0
 13 12  2  0
 14 13  1  0
 14 15  2  0
 15 16  1  0
 16 21  2  0
 16 17  1  0
 17 18  2  0
 18 19  1  0
 20 19  2  0
 21 20  1  0
 22 27  1  0
 23 24  2  0
 24 31  1  0
 24 25  1  0
 25 29  1  0
 26 25  2  0
 27 26  1  0
 28 23  1  0
 28 27  2  0
 30 23  1  0
 31 33  1  0
 32 31  1  0
 34 31  1  0
  7 35  1  0
  8 36  1  0
  9 37  1  0
 10 38  1  0
 14 39  1  0
 17 40  1  0
 18 41  1  0
 19 42  1  0
 20 43  1  0
 29 44  1  0
 29 45  1  0
 30 46  1  0
 30 47  1  0
 32 48  1  0
 32 49  1  0
 32 50  1  0
 33 51  1  0
 33 52  1  0
 33 53  1  0
 34 54  1  0
 34 55  1  0
 34 56  1  0
M  END
>  <Score>  (1) 
-7.40312

$$$$
