
     RDKit          3D

 43 48  0  0  1  0  0  0  0  0999 V2000
   40.4230   28.0050   43.1660 C   0  0  0  0  0  0  0  0  0  0  0  0
   39.6070   27.0670   43.8110 C   0  0  0  0  0  0  0  0  0  0  0  0
   38.2420   27.2210   43.6760 C   0  0  0  0  0  0  0  0  0  0  0  0
   37.7680   28.2570   42.9370 N   0  0  0  0  0  0  0  0  0  0  0  0
   38.5750   29.1390   42.3310 C   0  0  0  0  0  0  0  0  0  0  0  0
   39.9200   29.0320   42.4330 N   0  0  0  0  0  0  0  0  0  0  0  0
   37.9520   30.1810   41.5850 N   0  0  0  0  0  0  0  0  0  0  0  0
   36.6530   30.0270   41.2350 C   0  0  0  0  0  0  0  0  0  0  0  0
   36.3000   31.1230   40.5500 N   0  0  0  0  0  0  0  0  0  0  0  0
   37.3150   31.9680   40.4470 C   0  0  0  0  0  0  0  0  0  0  0  0
   37.5880   33.2080   39.8930 C   0  0  0  0  0  0  0  0  0  0  0  0
   38.8070   33.7840   39.9950 N   0  0  0  0  0  0  0  0  0  0  0  0
   39.7930   33.1350   40.6580 C   0  0  0  0  0  0  0  0  0  0  0  0
   39.5550   31.9240   41.2100 N   0  0  0  0  0  0  0  0  0  0  0  0
   38.3540   31.3660   41.1030 C   0  0  0  0  0  0  0  0  0  0  0  0
   41.0990   33.6550   40.7980 N   0  0  0  0  0  0  0  0  0  0  0  0
   41.7600   34.7470   40.3630 C   0  0  0  0  0  0  0  0  0  0  0  0
   43.0230   34.7270   40.7900 N   0  0  0  0  0  0  0  0  0  0  0  0
   43.1630   33.6190   41.4990 C   0  0  0  0  0  0  0  0  0  0  0  0
   41.9780   32.9490   41.5110 N   0  0  0  0  0  0  0  0  0  0  0  0
   44.4030   33.1340   42.1610 C   0  0  1  0  0  0  0  0  0  0  0  0
   45.6640   33.0400   41.3360 C   0  0  0  0  0  0  0  0  0  0  0  0
   45.5000   34.1200   42.4620 C   0  0  2  0  0  0  0  0  0  0  0  0
   46.2450   33.8460   43.7320 C   0  0  0  0  0  0  0  0  0  0  0  0
   47.6100   33.6770   43.8440 C   0  0  0  0  0  0  0  0  0  0  0  0
   48.1750   33.4270   45.0850 C   0  0  0  0  0  0  0  0  0  0  0  0
   47.3810   33.3450   46.2260 C   0  0  0  0  0  0  0  0  0  0  0  0
   46.0370   33.5190   46.0770 C   0  0  0  0  0  0  0  0  0  0  0  0
   45.5070   33.7600   44.8630 N   0  0  0  0  0  0  0  0  0  0  0  0
   41.5148   27.9060   43.2567 H   0  0  0  0  0  0  0  0  0  0  0  0
   40.0357   26.2428   44.4000 H   0  0  0  0  0  0  0  0  0  0  0  0
   37.5494   26.5161   44.1591 H   0  0  0  0  0  0  0  0  0  0  0  0
   36.0098   29.1658   41.4687 H   0  0  0  0  0  0  0  0  0  0  0  0
   36.7897   33.7396   39.3544 H   0  0  0  0  0  0  0  0  0  0  0  0
   41.3194   35.5420   39.7434 H   0  0  0  0  0  0  0  0  0  0  0  0
   43.8358   32.4200   42.7762 H   0  0  0  0  0  0  0  0  0  0  0  0
   46.3552   32.1956   41.4746 H   0  0  0  0  0  0  0  0  0  0  0  0
   45.9044   33.0531   40.2627 H   0  0  0  0  0  0  0  0  0  0  0  0
   45.5909   35.2151   42.5120 H   0  0  0  0  0  0  0  0  0  0  0  0
   48.2484   33.7405   42.9505 H   0  0  0  0  0  0  0  0  0  0  0  0
   49.2634   33.2918   45.1694 H   0  0  0  0  0  0  0  0  0  0  0  0
   47.8229   33.1467   47.2136 H   0  0  0  0  0  0  0  0  0  0  0  0
   45.3794   33.4619   46.9570 H   0  0  0  0  0  0  0  0  0  0  0  0
  1  2  2  0
  3  2  1  0
  4  3  2  0
  5  6  2  0
  5  4  1  0
  6  1  1  0
  7  5  1  0
  8  7  1  0
  9  8  2  0
 10  9  1  0
 10 15  2  0
 11 12  2  0
 11 10  1  0
 12 13  1  0
 13 16  1  0
 13 14  2  0
 15 14  1  0
 15  7  1  0
 16 20  1  0
 17 18  2  0
 17 16  1  0
 18 19  1  0
 19 20  2  0
 19 21  1  0
 21 23  1  0
 22 21  1  0
 22 23  1  0
 23 24  1  0
 24 25  2  0
 24 29  1  0
 25 26  1  0
 26 27  2  0
 28 27  1  0
 29 28  2  0
  1 30  1  0
  2 31  1  0
  3 32  1  0
  8 33  1  0
 11 34  1  0
 17 35  1  0
 21 36  1  1
 22 37  1  0
 22 38  1  0
 23 39  1  6
 25 40  1  0
 26 41  1  0
 27 42  1  0
 28 43  1  0
M  END
>  <Score>  (1) 
-7.39278

$$$$
