
     RDKit          3D

 38 41  0  0  0  0  0  0  0  0999 V2000
   37.4610   27.9650   42.9340 C   0  0  0  0  0  0  0  0  0  0  0  0
   38.2810   26.7770   42.9290 C   0  0  0  0  0  0  0  0  0  0  0  0
   39.3830   26.6920   43.7850 C   0  0  0  0  0  0  0  0  0  0  0  0
   40.1870   25.5770   43.8110 C   0  0  0  0  0  0  0  0  0  0  0  0
   39.8780   24.5170   42.9590 C   0  0  0  0  0  0  0  0  0  0  0  0
   38.8100   24.5890   42.1230 C   0  0  0  0  0  0  0  0  0  0  0  0
   38.4880   23.5270   41.2780 C   0  0  0  0  0  0  0  0  0  0  0  0
   37.3990   23.6050   40.4490 C   0  0  0  0  0  0  0  0  0  0  0  0
   36.5850   24.7180   40.4100 C   0  0  0  0  0  0  0  0  0  0  0  0
   36.9250   25.7750   41.2670 C   0  0  0  0  0  0  0  0  0  0  0  0
   38.0010   25.7270   42.1030 C   0  0  0  0  0  0  0  0  0  0  0  0
   38.9860   29.9220   43.0890 C   0  0  0  0  0  0  0  0  0  0  0  0
   38.0580   29.1970   42.3750 C   0  0  0  0  0  0  0  0  0  0  0  0
   37.7340   29.7140   41.1180 C   0  0  0  0  0  0  0  0  0  0  0  0
   38.3250   30.8410   40.7040 N   0  0  0  0  0  0  0  0  0  0  0  0
   39.2100   31.5040   41.4220 C   0  0  0  0  0  0  0  0  0  0  0  0
   39.5620   31.0420   42.6570 N   0  0  0  0  0  0  0  0  0  0  0  0
   39.7280   32.6850   40.8150 N   0  0  0  0  0  0  0  0  0  0  0  0
   40.9190   33.1540   40.5620 N   0  0  0  0  0  0  0  0  0  0  0  0
   40.8260   34.3560   39.9490 C   0  0  0  0  0  0  0  0  0  0  0  0
   39.4880   34.6390   39.8180 C   0  0  0  0  0  0  0  0  0  0  0  0
   38.8170   33.5720   40.3710 C   0  0  0  0  0  0  0  0  0  0  0  0
   37.3750   33.5870   40.3780 N   0  0  0  0  0  0  0  0  0  0  0  0
   36.5532   27.7437   42.3536 H   0  0  0  0  0  0  0  0  0  0  0  0
   37.2897   28.1885   43.9973 H   0  0  0  0  0  0  0  0  0  0  0  0
   39.6119   27.5358   44.4525 H   0  0  0  0  0  0  0  0  0  0  0  0
   41.0528   25.5223   44.4873 H   0  0  0  0  0  0  0  0  0  0  0  0
   40.5055   23.6136   42.9641 H   0  0  0  0  0  0  0  0  0  0  0  0
   39.1119   22.6211   41.2768 H   0  0  0  0  0  0  0  0  0  0  0  0
   37.1668   22.7525   39.7937 H   0  0  0  0  0  0  0  0  0  0  0  0
   35.7137   24.7737   39.7409 H   0  0  0  0  0  0  0  0  0  0  0  0
   36.2983   26.6790   41.2645 H   0  0  0  0  0  0  0  0  0  0  0  0
   39.2709   29.5503   44.0843 H   0  0  0  0  0  0  0  0  0  0  0  0
   37.0022   29.2010   40.4767 H   0  0  0  0  0  0  0  0  0  0  0  0
   41.6635   34.9877   39.6179 H   0  0  0  0  0  0  0  0  0  0  0  0
   39.0431   35.5364   39.3633 H   0  0  0  0  0  0  0  0  0  0  0  0
   36.8537   32.7984   40.7870 H   0  0  0  0  0  0  0  0  0  0  0  0
   36.8663   34.3863   39.9740 H   0  0  0  0  0  0  0  0  0  0  0  0
  2  1  1  0
  2  3  2  0
  3  4  1  0
  5  4  2  0
  6  5  1  0
  7  6  2  0
  8  7  1  0
  9  8  2  0
  9 10  1  0
 10 11  2  0
 11  6  1  0
 11  2  1  0
 13  1  1  0
 13 12  2  0
 14 13  1  0
 15 14  2  0
 15 16  1  0
 16 17  2  0
 17 12  1  0
 18 16  1  0
 19 18  1  0
 20 19  2  0
 21 20  1  0
 21 22  2  0
 22 23  1  0
 22 18  1  0
  1 24  1  0
  1 25  1  0
  3 26  1  0
  4 27  1  0
  5 28  1  0
  7 29  1  0
  8 30  1  0
  9 31  1  0
 10 32  1  0
 12 33  1  0
 14 34  1  0
 20 35  1  0
 21 36  1  0
 23 37  1  0
 23 38  1  0
M  END
>  <Score>  (1) 
-7.20051

$$$$
