
     RDKit          3D

 37 41  0  0  0  0  0  0  0  0999 V2000
   41.1730   28.5860   42.8980 C   0  0  0  0  0  0  0  0  0  0  0  0
   40.6560   27.4760   43.6050 C   0  0  0  0  0  0  0  0  0  0  0  0
   39.2850   27.2290   43.5200 C   0  0  0  0  0  0  0  0  0  0  0  0
   38.5060   28.0710   42.7580 N   0  0  0  0  0  0  0  0  0  0  0  0
   39.0460   29.1210   42.1010 C   0  0  0  0  0  0  0  0  0  0  0  0
   40.3800   29.4000   42.1540 N   0  0  0  0  0  0  0  0  0  0  0  0
   38.1240   29.9090   41.3510 N   0  0  0  0  0  0  0  0  0  0  0  0
   36.9320   29.3720   41.0230 C   0  0  0  0  0  0  0  0  0  0  0  0
   36.2530   30.3050   40.3260 N   0  0  0  0  0  0  0  0  0  0  0  0
   36.9720   31.4180   40.1970 C   0  0  0  0  0  0  0  0  0  0  0  0
   36.8650   32.6590   39.6380 C   0  0  0  0  0  0  0  0  0  0  0  0
   37.8550   33.5840   39.7110 N   0  0  0  0  0  0  0  0  0  0  0  0
   38.9990   33.2630   40.3710 C   0  0  0  0  0  0  0  0  0  0  0  0
   39.1340   32.0520   40.9330 N   0  0  0  0  0  0  0  0  0  0  0  0
   38.1520   31.1500   40.8520 C   0  0  0  0  0  0  0  0  0  0  0  0
   40.0780   34.1770   40.4910 N   0  0  0  0  0  0  0  0  0  0  0  0
   40.3530   35.4310   40.1070 C   0  0  0  0  0  0  0  0  0  0  0  0
   41.5770   35.7890   40.5190 N   0  0  0  0  0  0  0  0  0  0  0  0
   42.0730   34.7340   41.1750 C   0  0  0  0  0  0  0  0  0  0  0  0
   41.1550   33.7490   41.1580 N   0  0  0  0  0  0  0  0  0  0  0  0
   43.3770   34.7110   41.7810 N   0  0  0  0  0  0  0  0  0  0  0  0
   44.1940   33.7000   41.4150 C   0  0  0  0  0  0  0  0  0  0  0  0
   45.4590   33.6770   42.0030 C   0  0  0  0  0  0  0  0  0  0  0  0
   45.8020   34.6580   42.9010 C   0  0  0  0  0  0  0  0  0  0  0  0
   46.9420   34.6510   43.4400 O   0  0  0  0  0  0  0  0  0  0  0  0
   44.9520   35.6670   43.2490 N   0  0  0  0  0  0  0  0  0  0  0  0
   43.7380   35.6580   42.6620 C   0  0  0  0  0  0  0  0  0  0  0  0
   42.9470   36.5880   42.9800 O   0  0  0  0  0  0  0  0  0  0  0  0
   42.2512   28.7970   42.9522 H   0  0  0  0  0  0  0  0  0  0  0  0
   41.3134   26.8278   44.2030 H   0  0  0  0  0  0  0  0  0  0  0  0
   38.8351   26.3776   44.0517 H   0  0  0  0  0  0  0  0  0  0  0  0
   36.5792   28.3614   41.2766 H   0  0  0  0  0  0  0  0  0  0  0  0
   35.9379   32.9197   39.1065 H   0  0  0  0  0  0  0  0  0  0  0  0
   39.6702   36.0758   39.5342 H   0  0  0  0  0  0  0  0  0  0  0  0
   43.8785   32.9344   40.6909 H   0  0  0  0  0  0  0  0  0  0  0  0
   46.1747   32.8809   41.7499 H   0  0  0  0  0  0  0  0  0  0  0  0
   45.2231   36.3964   43.9238 H   0  0  0  0  0  0  0  0  0  0  0  0
  1  2  2  0
  3  2  1  0
  4  3  2  0
  5  6  2  0
  5  4  1  0
  6  1  1  0
  7  5  1  0
  8  7  1  0
  9  8  2  0
 10  9  1  0
 10 15  2  0
 11 12  2  0
 11 10  1  0
 12 13  1  0
 13 16  1  0
 13 14  2  0
 15 14  1  0
 15  7  1  0
 16 20  1  0
 17 16  1  0
 17 18  2  0
 18 19  1  0
 19 21  1  0
 20 19  2  0
 21 27  1  0
 22 21  1  0
 22 23  2  0
 23 24  1  0
 24 26  1  0
 24 25  2  0
 27 28  2  0
 27 26  1  0
  1 29  1  0
  2 30  1  0
  3 31  1  0
  8 32  1  0
 11 33  1  0
 17 34  1  0
 22 35  1  0
 23 36  1  0
 26 37  1  0
M  END
>  <Score>  (1) 
-7.44992

$$$$
