
     RDKit          3D

 49 53  0  0  1  0  0  0  0  0999 V2000
   38.6890   30.0090   42.4140 C   0  0  0  0  0  0  0  0  0  0  0  0
   38.2940   28.9990   43.3160 C   0  0  0  0  0  0  0  0  0  0  0  0
   37.4990   27.9870   42.8140 C   0  0  0  0  0  0  0  0  0  0  0  0
   37.1460   28.0160   41.5080 N   0  0  0  0  0  0  0  0  0  0  0  0
   37.5390   29.0040   40.6590 C   0  0  0  0  0  0  0  0  0  0  0  0
   38.3180   29.9980   41.1430 N   0  0  0  0  0  0  0  0  0  0  0  0
   37.1070   28.9360   39.3020 N   0  0  0  0  0  0  0  0  0  0  0  0
   36.0030   28.0210   39.0100 C   0  0  0  0  0  0  0  0  0  0  0  0
   35.6700   28.0400   37.5410 C   0  0  0  0  0  0  0  0  0  0  0  0
   35.7280   29.3980   37.1150 N   0  0  0  0  0  0  0  0  0  0  0  0
   37.1150   29.7880   37.0060 C   0  0  0  0  0  0  0  0  0  0  0  0
   37.8000   29.7730   38.3420 C   0  0  1  0  0  0  0  0  0  0  0  0
   38.0580   31.1250   38.8580 C   0  0  0  0  0  0  0  0  0  0  0  0
   37.0660   31.9800   39.3840 C   0  0  0  0  0  0  0  0  0  0  0  0
   37.3450   33.2350   39.8610 C   0  0  0  0  0  0  0  0  0  0  0  0
   38.6070   33.6720   39.8300 N   0  0  0  0  0  0  0  0  0  0  0  0
   39.5800   32.8900   39.3380 C   0  0  0  0  0  0  0  0  0  0  0  0
   39.2790   31.6840   38.8840 N   0  0  0  0  0  0  0  0  0  0  0  0
   41.0330   33.2990   39.2730 C   0  0  0  0  0  0  0  0  0  0  0  0
   41.1680   34.5660   39.9930 C   0  0  0  0  0  0  0  0  0  0  0  0
   40.3490   35.5960   39.6330 N   0  0  0  0  0  0  0  0  0  0  0  0
   40.3940   36.7980   40.2280 C   0  0  0  0  0  0  0  0  0  0  0  0
   41.2620   37.0550   41.2220 N   0  0  0  0  0  0  0  0  0  0  0  0
   42.1090   36.0600   41.6250 C   0  0  0  0  0  0  0  0  0  0  0  0
   43.0170   36.3030   42.6630 C   0  0  0  0  0  0  0  0  0  0  0  0
   43.8310   35.2530   43.0190 C   0  0  0  0  0  0  0  0  0  0  0  0
   43.8110   34.0070   42.4330 C   0  0  0  0  0  0  0  0  0  0  0  0
   42.9140   33.7730   41.4070 C   0  0  0  0  0  0  0  0  0  0  0  0
   42.0750   34.7970   41.0150 C   0  0  0  0  0  0  0  0  0  0  0  0
   39.3242   30.8303   42.7773 H   0  0  0  0  0  0  0  0  0  0  0  0
   38.6049   29.0165   44.3710 H   0  0  0  0  0  0  0  0  0  0  0  0
   37.1579   27.1696   43.4663 H   0  0  0  0  0  0  0  0  0  0  0  0
   36.2930   27.0007   39.3013 H   0  0  0  0  0  0  0  0  0  0  0  0
   35.1174   28.3429   39.5776 H   0  0  0  0  0  0  0  0  0  0  0  0
   36.4003   27.4375   36.9809 H   0  0  0  0  0  0  0  0  0  0  0  0
   34.6712   27.6159   37.3609 H   0  0  0  0  0  0  0  0  0  0  0  0
   35.2674   29.4942   36.1987 H   0  0  0  0  0  0  0  0  0  0  0  0
   37.6308   29.0878   36.3325 H   0  0  0  0  0  0  0  0  0  0  0  0
   37.1539   30.8139   36.6109 H   0  0  0  0  0  0  0  0  0  0  0  0
   38.7869   29.3144   38.1816 H   0  0  0  0  0  0  0  0  0  0  0  0
   36.0253   31.6248   39.4125 H   0  0  0  0  0  0  0  0  0  0  0  0
   36.5428   33.8715   40.2626 H   0  0  0  0  0  0  0  0  0  0  0  0
   41.6609   32.5297   39.7463 H   0  0  0  0  0  0  0  0  0  0  0  0
   41.3564   33.4120   38.2277 H   0  0  0  0  0  0  0  0  0  0  0  0
   39.7063   37.5895   39.8955 H   0  0  0  0  0  0  0  0  0  0  0  0
   43.0760   37.2796   43.1658 H   0  0  0  0  0  0  0  0  0  0  0  0
   44.5519   35.4211   43.8327 H   0  0  0  0  0  0  0  0  0  0  0  0
   44.4939   33.2149   42.7738 H   0  0  0  0  0  0  0  0  0  0  0  0
   42.8698   32.7911   40.9132 H   0  0  0  0  0  0  0  0  0  0  0  0
  1  2  2  0
  3  2  1  0
  4  3  2  0
  5  6  2  0
  5  4  1  0
  6  1  1  0
  7  5  1  0
  8  7  1  0
  9  8  1  0
 10  9  1  0
 11 10  1  0
 11 12  1  0
 12 13  1  0
 12  7  1  0
 13 18  1  0
 13 14  2  0
 14 15  1  0
 16 15  2  0
 17 16  1  0
 18 17  2  0
 19 17  1  0
 19 20  1  0
 20 29  1  0
 21 20  2  0
 21 22  1  0
 22 23  2  0
 23 24  1  0
 24 25  2  0
 25 26  1  0
 27 26  2  0
 28 27  1  0
 29 28  2  0
 29 24  1  0
  1 30  1  0
  2 31  1  0
  3 32  1  0
  8 33  1  0
  8 34  1  0
  9 35  1  0
  9 36  1  0
 10 37  1  0
 11 38  1  0
 11 39  1  0
 12 40  1  6
 14 41  1  0
 15 42  1  0
 19 43  1  0
 19 44  1  0
 22 45  1  0
 25 46  1  0
 26 47  1  0
 27 48  1  0
 28 49  1  0
M  END
>  <Score>  (1) 
-7.17712

$$$$
