
     RDKit          3D

 44 48  0  0  0  0  0  0  0  0999 V2000
   36.9500   31.4690   40.4690 C   0  0  0  0  0  0  0  0  0  0  0  0
   36.9490   31.8420   39.1470 N   0  0  0  0  0  0  0  0  0  0  0  0
   37.8440   32.7940   38.9840 O   0  0  0  0  0  0  0  0  0  0  0  0
   38.3960   33.0190   40.1660 C   0  0  0  0  0  0  0  0  0  0  0  0
   37.8670   32.2220   41.0910 N   0  0  0  0  0  0  0  0  0  0  0  0
   39.4320   34.0090   40.3760 C   0  0  0  0  0  0  0  0  0  0  0  0
   39.3060   35.3800   40.2960 C   0  0  0  0  0  0  0  0  0  0  0  0
   40.5210   35.9710   40.5630 C   0  0  0  0  0  0  0  0  0  0  0  0
   41.3750   34.9200   40.8020 C   0  0  0  0  0  0  0  0  0  0  0  0
   40.6980   33.8180   40.6820 O   0  0  0  0  0  0  0  0  0  0  0  0
   42.7930   35.0230   41.1340 C   0  0  0  0  0  0  0  0  0  0  0  0
   43.8350   34.3870   40.4920 C   0  0  0  0  0  0  0  0  0  0  0  0
   44.9860   34.7560   41.1170 N   0  0  0  0  0  0  0  0  0  0  0  0
   44.7100   35.6090   42.1360 C   0  0  0  0  0  0  0  0  0  0  0  0
   45.4510   36.2860   43.0840 C   0  0  0  0  0  0  0  0  0  0  0  0
   44.8080   37.1060   44.0110 C   0  0  0  0  0  0  0  0  0  0  0  0
   43.4200   37.2740   44.0220 C   0  0  0  0  0  0  0  0  0  0  0  0
   42.7060   36.5860   43.0640 C   0  0  0  0  0  0  0  0  0  0  0  0
   43.3410   35.7780   42.1500 C   0  0  0  0  0  0  0  0  0  0  0  0
   36.1820   30.5030   41.1370 O   0  0  0  0  0  0  0  0  0  0  0  0
   38.1050   28.2560   43.2630 C   0  0  0  0  0  0  0  0  0  0  0  0
   37.8860   27.0520   42.5260 C   0  0  0  0  0  0  0  0  0  0  0  0
   37.1100   27.1190   41.3850 C   0  0  0  0  0  0  0  0  0  0  0  0
   36.6080   28.3220   41.0390 N   0  0  0  0  0  0  0  0  0  0  0  0
   36.8110   29.4340   41.7210 C   0  0  0  0  0  0  0  0  0  0  0  0
   37.5610   29.4200   42.8420 N   0  0  0  0  0  0  0  0  0  0  0  0
   36.9670   25.8340   40.7400 C   0  0  0  0  0  0  0  0  0  0  0  0
   36.9760   24.6510   41.6130 C   0  0  0  0  0  0  0  0  0  0  0  0
   37.8820   23.2550   40.8550 S   0  0  0  0  0  0  0  0  0  0  0  0
   38.3776   35.9188   40.0558 H   0  0  0  0  0  0  0  0  0  0  0  0
   40.7561   37.0454   40.5811 H   0  0  0  0  0  0  0  0  0  0  0  0
   43.7509   33.7061   39.6322 H   0  0  0  0  0  0  0  0  0  0  0  0
   45.9290   34.4349   40.8551 H   0  0  0  0  0  0  0  0  0  0  0  0
   46.5455   36.1790   43.1081 H   0  0  0  0  0  0  0  0  0  0  0  0
   45.4135   37.6387   44.7590 H   0  0  0  0  0  0  0  0  0  0  0  0
   42.9226   37.9226   44.7581 H   0  0  0  0  0  0  0  0  0  0  0  0
   41.6110   36.6849   43.0302 H   0  0  0  0  0  0  0  0  0  0  0  0
   38.7182   28.2360   44.1760 H   0  0  0  0  0  0  0  0  0  0  0  0
   38.3229   26.0985   42.8576 H   0  0  0  0  0  0  0  0  0  0  0  0
   36.0111   25.8390   40.1958 H   0  0  0  0  0  0  0  0  0  0  0  0
   37.8582   25.7298   40.1037 H   0  0  0  0  0  0  0  0  0  0  0  0
   37.4599   24.9146   42.5650 H   0  0  0  0  0  0  0  0  0  0  0  0
   35.9343   24.3361   41.7731 H   0  0  0  0  0  0  0  0  0  0  0  0
   38.3997   22.4573   41.8412 H   0  0  0  0  0  0  0  0  0  0  0  0
  1  5  1  0
  1 20  1  0
  2  1  2  0
  3  2  1  0
  3  4  1  0
  4  6  1  0
  4  5  2  0
  6 10  1  0
  7  6  2  0
  7  8  1  0
  8  9  2  0
  9 11  1  0
 10  9  1  0
 11 19  1  0
 12 13  1  0
 12 11  2  0
 13 14  1  0
 14 19  2  0
 14 15  1  0
 15 16  2  0
 16 17  1  0
 18 17  2  0
 19 18  1  0
 20 25  1  0
 22 21  2  0
 23 22  1  0
 24 23  2  0
 24 25  1  0
 25 26  2  0
 26 21  1  0
 27 23  1  0
 27 28  1  0
 29 28  1  0
  7 30  1  0
  8 31  1  0
 12 32  1  0
 13 33  1  0
 15 34  1  0
 16 35  1  0
 17 36  1  0
 18 37  1  0
 21 38  1  0
 22 39  1  0
 27 40  1  0
 27 41  1  0
 28 42  1  0
 28 43  1  0
 29 44  1  0
M  END
>  <Score>  (1) 
-7.49725

$$$$
