
     RDKit          3D

 42 46  0  0  0  0  0  0  0  0999 V2000
   40.0980   33.9560   40.2060 C   0  0  0  0  0  0  0  0  0  0  0  0
   40.6980   32.7650   40.4560 C   0  0  0  0  0  0  0  0  0  0  0  0
   39.9410   31.6240   40.6940 C   0  0  0  0  0  0  0  0  0  0  0  0
   38.5760   31.6610   40.6860 C   0  0  0  0  0  0  0  0  0  0  0  0
   37.9500   32.8480   40.4370 C   0  0  0  0  0  0  0  0  0  0  0  0
   38.7200   33.9900   40.1990 C   0  0  0  0  0  0  0  0  0  0  0  0
   37.2340   28.3540   41.1580 C   0  0  0  0  0  0  0  0  0  0  0  0
   36.2360   29.2050   41.5640 N   0  0  0  0  0  0  0  0  0  0  0  0
   36.6100   30.4390   41.4370 O   0  0  0  0  0  0  0  0  0  0  0  0
   37.8620   30.4470   40.9460 C   0  0  0  0  0  0  0  0  0  0  0  0
   38.2440   29.1650   40.7740 N   0  0  0  0  0  0  0  0  0  0  0  0
   37.0100   24.8250   42.2300 C   0  0  0  0  0  0  0  0  0  0  0  0
   36.6760   24.2120   41.0240 C   0  0  0  0  0  0  0  0  0  0  0  0
   36.5370   25.0090   39.8920 C   0  0  0  0  0  0  0  0  0  0  0  0
   36.7380   26.3570   40.0220 N   0  0  0  0  0  0  0  0  0  0  0  0
   37.0600   26.9070   41.2050 C   0  0  0  0  0  0  0  0  0  0  0  0
   37.1970   26.1460   42.3130 N   0  0  0  0  0  0  0  0  0  0  0  0
   41.0300   35.4070   39.8670 S   0  0  0  0  0  0  0  0  0  0  0  0
   41.7670   35.1450   38.5710 O   0  0  0  0  0  0  0  0  0  0  0  0
   40.0850   36.5610   39.6200 O   0  0  0  0  0  0  0  0  0  0  0  0
   42.0580   35.6730   41.2190 C   0  0  0  0  0  0  0  0  0  0  0  0
   41.6100   36.6670   42.0470 N   0  0  0  0  0  0  0  0  0  0  0  0
   42.2840   37.0160   43.1570 C   0  0  0  0  0  0  0  0  0  0  0  0
   43.4480   36.3950   43.5100 N   0  0  0  0  0  0  0  0  0  0  0  0
   43.9300   35.4120   42.7290 C   0  0  0  0  0  0  0  0  0  0  0  0
   45.1060   34.7060   42.9720 C   0  0  0  0  0  0  0  0  0  0  0  0
   45.5440   33.7120   42.1180 C   0  0  0  0  0  0  0  0  0  0  0  0
   44.8090   33.3840   40.9720 C   0  0  0  0  0  0  0  0  0  0  0  0
   43.6510   34.0910   40.7490 C   0  0  0  0  0  0  0  0  0  0  0  0
   43.2270   35.0670   41.5960 C   0  0  0  0  0  0  0  0  0  0  0  0
   41.7961   32.7018   40.4705 H   0  0  0  0  0  0  0  0  0  0  0  0
   40.4524   30.6707   40.8931 H   0  0  0  0  0  0  0  0  0  0  0  0
   36.8516   32.9053   40.4238 H   0  0  0  0  0  0  0  0  0  0  0  0
   38.2110   34.9446   40.0001 H   0  0  0  0  0  0  0  0  0  0  0  0
   37.1223   24.2081   43.1338 H   0  0  0  0  0  0  0  0  0  0  0  0
   36.5258   23.1237   40.9682 H   0  0  0  0  0  0  0  0  0  0  0  0
   36.2729   24.5682   38.9194 H   0  0  0  0  0  0  0  0  0  0  0  0
   41.8888   37.8200   43.7953 H   0  0  0  0  0  0  0  0  0  0  0  0
   45.7006   34.9457   43.8658 H   0  0  0  0  0  0  0  0  0  0  0  0
   46.4774   33.1740   42.3401 H   0  0  0  0  0  0  0  0  0  0  0  0
   45.1432   32.5960   40.2811 H   0  0  0  0  0  0  0  0  0  0  0  0
   43.0488   33.8601   39.8579 H   0  0  0  0  0  0  0  0  0  0  0  0
  1  2  2  0
  2  3  1  0
  4  3  2  0
  4 10  1  0
  5  4  1  0
  6  1  1  0
  6  5  2  0
  7 16  1  0
  7  8  2  0
  9  8  1  0
 10  9  1  0
 11 10  2  0
 11  7  1  0
 12 17  2  0
 13 12  1  0
 14 15  1  0
 14 13  2  0
 15 16  2  0
 16 17  1  0
 18  1  1  0
 18 21  1  0
 19 18  2  0
 20 18  2  0
 21 30  1  0
 21 22  2  0
 22 23  1  0
 23 24  2  0
 25 26  2  0
 25 24  1  0
 27 26  1  0
 28 27  2  0
 29 28  1  0
 29 30  2  0
 30 25  1  0
  2 31  1  0
  3 32  1  0
  5 33  1  0
  6 34  1  0
 12 35  1  0
 13 36  1  0
 14 37  1  0
 23 38  1  0
 26 39  1  0
 27 40  1  0
 28 41  1  0
 29 42  1  0
M  END
>  <Score>  (1) 
-7.34773

$$$$
