
     RDKit          3D

 45 49  0  0  0  0  0  0  0  0999 V2000
   37.3770   33.5390   39.9880 N   0  0  0  0  0  0  0  0  0  0  0  0
   37.7680   34.7680   39.7770 N   0  0  0  0  0  0  0  0  0  0  0  0
   38.9700   34.9520   40.3880 C   0  0  0  0  0  0  0  0  0  0  0  0
   39.2470   33.7220   40.9680 C   0  0  0  0  0  0  0  0  0  0  0  0
   38.1930   32.8230   40.6930 C   0  0  0  0  0  0  0  0  0  0  0  0
   38.2440   31.5160   41.2300 C   0  0  0  0  0  0  0  0  0  0  0  0
   39.3010   31.1510   42.0130 N   0  0  0  0  0  0  0  0  0  0  0  0
   39.4580   29.9860   42.6030 C   0  0  0  0  0  0  0  0  0  0  0  0
   38.5630   28.9970   42.4940 N   0  0  0  0  0  0  0  0  0  0  0  0
   37.4720   29.2350   41.7430 C   0  0  0  0  0  0  0  0  0  0  0  0
   36.5250   28.2650   41.5880 C   0  0  0  0  0  0  0  0  0  0  0  0
   35.3880   28.4740   40.8120 C   0  0  0  0  0  0  0  0  0  0  0  0
   35.2770   29.7300   40.2030 C   0  0  0  0  0  0  0  0  0  0  0  0
   36.2730   30.6410   40.4130 C   0  0  0  0  0  0  0  0  0  0  0  0
   37.3820   30.4740   41.1590 C   0  0  0  0  0  0  0  0  0  0  0  0
   40.0660   36.3670   40.5810 S   0  0  0  0  0  0  0  0  0  0  0  0
   43.4340   34.3000   40.8520 C   0  0  0  0  0  0  0  0  0  0  0  0
   44.1620   34.9520   41.8510 C   0  0  0  0  0  0  0  0  0  0  0  0
   43.6210   36.0470   42.4550 C   0  0  0  0  0  0  0  0  0  0  0  0
   42.3830   36.4350   42.0350 N   0  0  0  0  0  0  0  0  0  0  0  0
   41.6940   35.8000   41.0760 C   0  0  0  0  0  0  0  0  0  0  0  0
   42.2200   34.7480   40.4980 N   0  0  0  0  0  0  0  0  0  0  0  0
   44.3860   36.7150   43.5570 C   0  0  0  0  0  0  0  0  0  0  0  0
   44.1720   36.0850   44.8690 C   0  0  0  0  0  0  0  0  0  0  0  0
   45.1380   35.0460   45.2720 C   0  0  0  0  0  0  0  0  0  0  0  0
   46.0640   34.1220   44.7850 C   0  0  0  0  0  0  0  0  0  0  0  0
   46.6840   33.4710   45.8240 C   0  0  0  0  0  0  0  0  0  0  0  0
   46.1390   33.9960   46.9110 N   0  0  0  0  0  0  0  0  0  0  0  0
   45.2350   34.9160   46.6290 N   0  0  0  0  0  0  0  0  0  0  0  0
   36.4884   33.1688   39.6217 H   0  0  0  0  0  0  0  0  0  0  0  0
   40.1484   33.4840   41.5518 H   0  0  0  0  0  0  0  0  0  0  0  0
   40.3601   29.8180   43.2097 H   0  0  0  0  0  0  0  0  0  0  0  0
   36.6631   27.2949   42.0879 H   0  0  0  0  0  0  0  0  0  0  0  0
   34.6204   27.6965   40.6846 H   0  0  0  0  0  0  0  0  0  0  0  0
   34.4104   29.9766   39.5720 H   0  0  0  0  0  0  0  0  0  0  0  0
   36.1567   31.6170   39.9192 H   0  0  0  0  0  0  0  0  0  0  0  0
   43.8582   33.4157   40.3538 H   0  0  0  0  0  0  0  0  0  0  0  0
   45.1569   34.5866   42.1453 H   0  0  0  0  0  0  0  0  0  0  0  0
   45.4585   36.6692   43.3169 H   0  0  0  0  0  0  0  0  0  0  0  0
   44.0248   37.7516   43.6269 H   0  0  0  0  0  0  0  0  0  0  0  0
   44.2015   36.8798   45.6289 H   0  0  0  0  0  0  0  0  0  0  0  0
   43.2068   35.5642   44.7848 H   0  0  0  0  0  0  0  0  0  0  0  0
   46.2685   33.9406   43.7195 H   0  0  0  0  0  0  0  0  0  0  0  0
   47.4574   32.6909   45.7662 H   0  0  0  0  0  0  0  0  0  0  0  0
   46.3923   33.7175   47.8697 H   0  0  0  0  0  0  0  0  0  0  0  0
  1  5  1  0
  2  1  1  0
  2  3  2  0
  3 16  1  0
  3  4  1  0
  5  4  2  0
  5  6  1  0
  6  7  2  0
  7  8  1  0
  9  8  2  0
 10  9  1  0
 11 10  2  0
 12 11  1  0
 13 14  1  0
 13 12  2  0
 14 15  2  0
 15  6  1  0
 15 10  1  0
 16 21  1  0
 17 18  2  0
 18 19  1  0
 19 23  1  0
 20 19  2  0
 21 20  1  0
 22 17  1  0
 22 21  2  0
 23 24  1  0
 24 25  1  0
 25 29  2  0
 26 25  1  0
 26 27  2  0
 27 28  1  0
 29 28  1  0
  1 30  1  0
  4 31  1  0
  8 32  1  0
 11 33  1  0
 12 34  1  0
 13 35  1  0
 14 36  1  0
 17 37  1  0
 18 38  1  0
 23 39  1  0
 23 40  1  0
 24 41  1  0
 24 42  1  0
 26 43  1  0
 27 44  1  0
 28 45  1  0
M  END
>  <Score>  (1) 
-7.29073

$$$$
