
     RDKit          3D

 40 43  0  0  0  0  0  0  0  0999 V2000
   37.7350   30.0590   41.9030 N   0  0  0  0  0  0  0  0  0  0  0  0
   36.5290   29.9350   41.3040 C   0  0  0  0  0  0  0  0  0  0  0  0
   36.3840   30.5930   40.0940 C   0  0  0  0  0  0  0  0  0  0  0  0
   37.3640   31.3340   39.4960 C   0  0  0  0  0  0  0  0  0  0  0  0
   37.2030   31.9100   38.4140 O   0  0  0  0  0  0  0  0  0  0  0  0
   38.5330   31.3980   40.1720 N   0  0  0  0  0  0  0  0  0  0  0  0
   38.7240   30.7740   41.3560 C   0  0  0  0  0  0  0  0  0  0  0  0
   39.8510   30.8810   41.9290 O   0  0  0  0  0  0  0  0  0  0  0  0
   39.6180   32.1540   39.6190 C   0  0  0  0  0  0  0  0  0  0  0  0
   40.6990   31.8110   38.8310 C   0  0  0  0  0  0  0  0  0  0  0  0
   41.4370   32.9000   38.5770 N   0  0  0  0  0  0  0  0  0  0  0  0
   40.8400   33.9650   39.1990 C   0  0  0  0  0  0  0  0  0  0  0  0
   41.1530   35.2910   39.2770 C   0  0  0  0  0  0  0  0  0  0  0  0
   40.4010   36.2050   39.9690 C   0  0  0  0  0  0  0  0  0  0  0  0
   39.2530   35.7720   40.6340 C   0  0  0  0  0  0  0  0  0  0  0  0
   38.9530   34.4300   40.5440 C   0  0  0  0  0  0  0  0  0  0  0  0
   39.7090   33.5070   39.8480 C   0  0  0  0  0  0  0  0  0  0  0  0
   38.0080   29.4160   43.1720 C   0  0  0  0  0  0  0  0  0  0  0  0
   40.3770   26.5680   43.0210 C   0  0  0  0  0  0  0  0  0  0  0  0
   39.5560   25.5350   42.5650 C   0  0  0  0  0  0  0  0  0  0  0  0
   38.2190   25.8060   42.3140 C   0  0  0  0  0  0  0  0  0  0  0  0
   37.7790   27.0590   42.5230 N   0  0  0  0  0  0  0  0  0  0  0  0
   38.5850   28.0570   42.9670 C   0  0  0  0  0  0  0  0  0  0  0  0
   39.8520   27.7820   43.2010 N   0  0  0  0  0  0  0  0  0  0  0  0
   37.2690   24.7750   41.8270 C   0  0  0  0  0  0  0  0  0  0  0  0
   36.2280   24.7440   42.7490 F   0  0  0  0  0  0  0  0  0  0  0  0
   37.8520   23.5490   41.6820 F   0  0  0  0  0  0  0  0  0  0  0  0
   36.7040   25.1110   40.6110 F   0  0  0  0  0  0  0  0  0  0  0  0
   35.7132   29.3475   41.7504 H   0  0  0  0  0  0  0  0  0  0  0  0
   35.4148   30.5138   39.5798 H   0  0  0  0  0  0  0  0  0  0  0  0
   40.9206   30.7969   38.4669 H   0  0  0  0  0  0  0  0  0  0  0  0
   42.2993   32.9311   38.0145 H   0  0  0  0  0  0  0  0  0  0  0  0
   42.0557   35.6450   38.7576 H   0  0  0  0  0  0  0  0  0  0  0  0
   40.6981   37.2637   39.9996 H   0  0  0  0  0  0  0  0  0  0  0  0
   38.6185   36.4680   41.2023 H   0  0  0  0  0  0  0  0  0  0  0  0
   38.0513   34.0698   41.0609 H   0  0  0  0  0  0  0  0  0  0  0  0
   38.7235   30.0290   43.7397 H   0  0  0  0  0  0  0  0  0  0  0  0
   37.0628   29.3164   43.7258 H   0  0  0  0  0  0  0  0  0  0  0  0
   41.4414   26.3841   43.2290 H   0  0  0  0  0  0  0  0  0  0  0  0
   39.9619   24.5248   42.4077 H   0  0  0  0  0  0  0  0  0  0  0  0
  1 18  1  0
  2  1  1  0
  3  2  2  0
  4  3  1  0
  4  6  1  0
  5  4  2  0
  6  7  1  0
  7  1  1  0
  7  8  2  0
  9 17  1  0
  9  6  1  0
 10  9  2  0
 11 10  1  0
 11 12  1  0
 12 13  2  0
 12 17  1  0
 13 14  1  0
 14 15  2  0
 16 15  1  0
 17 16  2  0
 19 24  2  0
 20 19  1  0
 21 22  1  0
 21 20  2  0
 22 23  2  0
 23 18  1  0
 23 24  1  0
 25 21  1  0
 25 26  1  0
 27 25  1  0
 28 25  1  0
  2 29  1  0
  3 30  1  0
 10 31  1  0
 11 32  1  0
 13 33  1  0
 14 34  1  0
 15 35  1  0
 16 36  1  0
 18 37  1  0
 18 38  1  0
 19 39  1  0
 20 40  1  0
M  END
>  <Score>  (1) 
-7.0228

$$$$
