
     RDKit          3D

 47 51  0  0  0  0  0  0  0  0999 V2000
   40.1050   32.8520   40.8480 C   0  0  0  0  0  0  0  0  0  0  0  0
   41.2100   32.2320   41.4760 C   0  0  0  0  0  0  0  0  0  0  0  0
   41.1520   30.9880   42.0850 C   0  0  0  0  0  0  0  0  0  0  0  0
   39.9400   30.3090   42.0810 C   0  0  0  0  0  0  0  0  0  0  0  0
   38.8500   30.8670   41.4880 C   0  0  0  0  0  0  0  0  0  0  0  0
   37.6910   30.1650   41.5080 C   0  0  0  0  0  0  0  0  0  0  0  0
   36.5190   30.6920   40.9040 C   0  0  0  0  0  0  0  0  0  0  0  0
   36.6620   31.9560   40.3070 C   0  0  0  0  0  0  0  0  0  0  0  0
   37.8640   32.6000   40.3290 C   0  0  0  0  0  0  0  0  0  0  0  0
   38.9890   32.0900   40.9130 C   0  0  0  0  0  0  0  0  0  0  0  0
   37.4010   28.8750   42.0830 C   0  0  0  0  0  0  0  0  0  0  0  0
   37.0930   28.5680   43.3910 C   0  0  0  0  0  0  0  0  0  0  0  0
   36.7980   27.3080   43.8660 C   0  0  0  0  0  0  0  0  0  0  0  0
   36.7970   26.2360   43.0100 C   0  0  0  0  0  0  0  0  0  0  0  0
   37.1050   26.5560   41.7200 C   0  0  0  0  0  0  0  0  0  0  0  0
   37.3920   27.7970   41.2720 N   0  0  0  0  0  0  0  0  0  0  0  0
   37.1330   25.5110   40.7370 N   0  0  0  0  0  0  0  0  0  0  0  0
   37.1360   25.6150   39.2890 C   0  0  0  0  0  0  0  0  0  0  0  0
   36.0190   24.6390   38.9250 C   0  0  0  0  0  0  0  0  0  0  0  0
   35.8970   23.7080   40.1340 C   0  0  0  0  0  0  0  0  0  0  0  0
   37.1660   24.0710   40.9160 C   0  0  0  0  0  0  0  0  0  0  0  0
   40.3620   34.1330   40.2880 C   0  0  0  0  0  0  0  0  0  0  0  0
   39.8090   35.3940   40.6120 C   0  0  0  0  0  0  0  0  0  0  0  0
   40.2100   36.5620   39.9560 C   0  0  0  0  0  0  0  0  0  0  0  0
   41.1540   36.4210   38.9970 N   0  0  0  0  0  0  0  0  0  0  0  0
   41.6840   35.2510   38.6790 C   0  0  0  0  0  0  0  0  0  0  0  0
   41.2950   34.1390   39.3100 N   0  0  0  0  0  0  0  0  0  0  0  0
   42.1708   32.7676   41.4816 H   0  0  0  0  0  0  0  0  0  0  0  0
   42.0426   30.5499   42.5591 H   0  0  0  0  0  0  0  0  0  0  0  0
   39.8616   29.3205   42.5571 H   0  0  0  0  0  0  0  0  0  0  0  0
   35.5633   30.1474   40.9035 H   0  0  0  0  0  0  0  0  0  0  0  0
   35.7979   32.4297   39.8182 H   0  0  0  0  0  0  0  0  0  0  0  0
   37.9317   33.5873   39.8487 H   0  0  0  0  0  0  0  0  0  0  0  0
   37.0817   29.3961   44.1149 H   0  0  0  0  0  0  0  0  0  0  0  0
   36.5635   27.1622   44.9308 H   0  0  0  0  0  0  0  0  0  0  0  0
   36.5683   25.2102   43.3347 H   0  0  0  0  0  0  0  0  0  0  0  0
   36.9033   26.6375   38.9569 H   0  0  0  0  0  0  0  0  0  0  0  0
   38.1054   25.3905   38.8200 H   0  0  0  0  0  0  0  0  0  0  0  0
   35.0751   25.1776   38.7550 H   0  0  0  0  0  0  0  0  0  0  0  0
   36.2379   24.0872   37.9989 H   0  0  0  0  0  0  0  0  0  0  0  0
   34.9889   23.9209   40.7172 H   0  0  0  0  0  0  0  0  0  0  0  0
   35.8135   22.6417   39.8772 H   0  0  0  0  0  0  0  0  0  0  0  0
   38.0669   23.6202   40.4742 H   0  0  0  0  0  0  0  0  0  0  0  0
   37.1972   23.7226   41.9589 H   0  0  0  0  0  0  0  0  0  0  0  0
   39.0441   35.4574   41.4000 H   0  0  0  0  0  0  0  0  0  0  0  0
   39.7808   37.5434   40.2063 H   0  0  0  0  0  0  0  0  0  0  0  0
   42.4491   35.1933   37.8908 H   0  0  0  0  0  0  0  0  0  0  0  0
  1 10  1  0
  1  2  2  0
  2  3  1  0
  4  3  2  0
  5  6  2  0
  5  4  1  0
  6 11  1  0
  7  6  1  0
  8  9  1  0
  8  7  2  0
  9 10  2  0
 10  5  1  0
 11 12  2  0
 12 13  1  0
 14 13  2  0
 15 14  1  0
 16 15  2  0
 16 11  1  0
 17 21  1  0
 17 15  1  0
 18 17  1  0
 19 18  1  0
 19 20  1  0
 20 21  1  0
 22 23  2  0
 22  1  1  0
 24 23  1  0
 25 24  2  0
 26 25  1  0
 26 27  2  0
 27 22  1  0
  2 28  1  0
  3 29  1  0
  4 30  1  0
  7 31  1  0
  8 32  1  0
  9 33  1  0
 12 34  1  0
 13 35  1  0
 14 36  1  0
 18 37  1  0
 18 38  1  0
 19 39  1  0
 19 40  1  0
 20 41  1  0
 20 42  1  0
 21 43  1  0
 21 44  1  0
 23 45  1  0
 24 46  1  0
 26 47  1  0
M  END
>  <Score>  (1) 
-7.06354

$$$$
