
     RDKit          3D

 42 45  0  0  0  0  0  0  0  0999 V2000
   37.1980   27.8530   42.8660 C   0  0  0  0  0  0  0  0  0  0  0  0
   39.0940   29.4200   42.2690 C   0  0  0  0  0  0  0  0  0  0  0  0
   37.7320   29.1140   42.2960 C   0  0  0  0  0  0  0  0  0  0  0  0
   36.8770   30.0720   41.7510 C   0  0  0  0  0  0  0  0  0  0  0  0
   37.4020   31.2010   41.2480 N   0  0  0  0  0  0  0  0  0  0  0  0
   38.7060   31.4570   41.2410 C   0  0  0  0  0  0  0  0  0  0  0  0
   39.5690   30.5540   41.7590 N   0  0  0  0  0  0  0  0  0  0  0  0
   39.2670   32.6540   40.7080 N   0  0  0  0  0  0  0  0  0  0  0  0
   40.5660   32.8810   41.0210 C   0  0  0  0  0  0  0  0  0  0  0  0
   41.1620   34.0380   40.5240 C   0  0  0  0  0  0  0  0  0  0  0  0
   42.5900   34.2750   40.8760 C   0  0  0  0  0  0  0  0  0  0  0  0
   40.4030   34.9020   39.7340 C   0  0  0  0  0  0  0  0  0  0  0  0
   40.9970   35.9300   39.3160 O   0  0  0  0  0  0  0  0  0  0  0  0
   39.1040   34.6020   39.4660 N   0  0  0  0  0  0  0  0  0  0  0  0
   38.5260   33.4830   39.9460 C   0  0  0  0  0  0  0  0  0  0  0  0
   37.3190   33.2180   39.6880 O   0  0  0  0  0  0  0  0  0  0  0  0
   38.1490   26.7440   42.9160 C   0  0  0  0  0  0  0  0  0  0  0  0
   39.2480   26.7340   43.7850 C   0  0  0  0  0  0  0  0  0  0  0  0
   40.1210   25.6710   43.8040 C   0  0  0  0  0  0  0  0  0  0  0  0
   39.9030   24.6100   42.9550 C   0  0  0  0  0  0  0  0  0  0  0  0
   38.8390   24.5970   42.0990 C   0  0  0  0  0  0  0  0  0  0  0  0
   38.6110   23.5270   41.2420 C   0  0  0  0  0  0  0  0  0  0  0  0
   37.5390   23.5280   40.3920 C   0  0  0  0  0  0  0  0  0  0  0  0
   36.6350   24.5820   40.3440 C   0  0  0  0  0  0  0  0  0  0  0  0
   36.8900   25.6400   41.2160 C   0  0  0  0  0  0  0  0  0  0  0  0
   37.9550   25.6800   42.0840 C   0  0  0  0  0  0  0  0  0  0  0  0
   36.3398   27.5388   42.2538 H   0  0  0  0  0  0  0  0  0  0  0  0
   36.9327   28.0766   43.9098 H   0  0  0  0  0  0  0  0  0  0  0  0
   39.8052   28.6925   42.6873 H   0  0  0  0  0  0  0  0  0  0  0  0
   35.7899   29.9053   41.7335 H   0  0  0  0  0  0  0  0  0  0  0  0
   41.1312   32.1748   41.6470 H   0  0  0  0  0  0  0  0  0  0  0  0
   42.6997   34.2932   41.9704 H   0  0  0  0  0  0  0  0  0  0  0  0
   43.2094   33.4674   40.4588 H   0  0  0  0  0  0  0  0  0  0  0  0
   42.9153   35.2394   40.4588 H   0  0  0  0  0  0  0  0  0  0  0  0
   38.5491   35.2446   38.8829 H   0  0  0  0  0  0  0  0  0  0  0  0
   39.4148   27.5863   44.4601 H   0  0  0  0  0  0  0  0  0  0  0  0
   40.9819   25.6691   44.4887 H   0  0  0  0  0  0  0  0  0  0  0  0
   40.5980   23.7574   42.9661 H   0  0  0  0  0  0  0  0  0  0  0  0
   39.3002   22.6697   41.2472 H   0  0  0  0  0  0  0  0  0  0  0  0
   37.3879   22.6665   39.7250 H   0  0  0  0  0  0  0  0  0  0  0  0
   35.7725   24.5819   39.6612 H   0  0  0  0  0  0  0  0  0  0  0  0
   36.1969   26.4942   41.2087 H   0  0  0  0  0  0  0  0  0  0  0  0
  1 17  1  0
  2  3  2  0
  3  1  1  0
  4  3  1  0
  5  4  2  0
  6  5  1  0
  6  7  2  0
  7  2  1  0
  8  9  1  0
  8  6  1  0
 10 11  1  0
 10  9  2  0
 12 10  1  0
 13 12  2  0
 14 12  1  0
 14 15  1  0
 15  8  1  0
 16 15  2  0
 17 18  2  0
 18 19  1  0
 20 19  2  0
 21 20  1  0
 22 21  2  0
 23 22  1  0
 24 23  2  0
 24 25  1  0
 25 26  2  0
 26 21  1  0
 26 17  1  0
  1 27  1  0
  1 28  1  0
  2 29  1  0
  4 30  1  0
  9 31  1  0
 11 32  1  0
 11 33  1  0
 11 34  1  0
 14 35  1  0
 18 36  1  0
 19 37  1  0
 20 38  1  0
 22 39  1  0
 23 40  1  0
 24 41  1  0
 25 42  1  0
M  END
>  <Score>  (1) 
-7.72055

$$$$
