
     RDKit          3D

 50 55  0  0  1  0  0  0  0  0999 V2000
   36.0340   30.7130   40.9570 C   0  0  0  0  0  0  0  0  0  0  0  0
   36.6470   29.6020   41.5710 C   0  0  0  0  0  0  0  0  0  0  0  0
   38.0240   29.5050   41.5500 C   0  0  0  0  0  0  0  0  0  0  0  0
   38.6960   30.5160   40.9280 N   0  0  0  0  0  0  0  0  0  0  0  0
   38.0960   31.5750   40.3460 C   0  0  0  0  0  0  0  0  0  0  0  0
   36.7590   31.6650   40.3640 N   0  0  0  0  0  0  0  0  0  0  0  0
   38.6540   28.3680   42.1560 C   0  0  0  0  0  0  0  0  0  0  0  0
   39.7710   28.3600   42.9850 C   0  0  0  0  0  0  0  0  0  0  0  0
   40.0400   27.0810   43.3480 N   0  0  0  0  0  0  0  0  0  0  0  0
   39.1480   26.2450   42.7950 C   0  0  0  0  0  0  0  0  0  0  0  0
   38.9640   24.8730   42.8390 C   0  0  0  0  0  0  0  0  0  0  0  0
   37.9080   24.2570   42.1380 C   0  0  0  0  0  0  0  0  0  0  0  0
   37.0720   25.0830   41.4090 C   0  0  0  0  0  0  0  0  0  0  0  0
   37.2690   26.4380   41.3760 C   0  0  0  0  0  0  0  0  0  0  0  0
   38.2940   27.0370   42.0590 C   0  0  0  0  0  0  0  0  0  0  0  0
   38.9350   32.6550   39.7150 C   0  0  1  0  0  0  0  0  0  0  0  0
   38.7750   34.0740   40.2980 C   0  0  0  0  0  0  0  0  0  0  0  0
   40.0030   33.2820   40.5340 C   0  0  2  0  0  0  0  0  0  0  0  0
   41.3010   33.6540   39.9210 C   0  0  0  0  0  0  0  0  0  0  0  0
   41.5040   34.6070   38.9960 N   0  0  0  0  0  0  0  0  0  0  0  0
   42.7790   34.6290   38.6870 O   0  0  0  0  0  0  0  0  0  0  0  0
   43.4230   33.7180   39.3810 C   0  0  0  0  0  0  0  0  0  0  0  0
   42.5050   33.0960   40.1640 N   0  0  0  0  0  0  0  0  0  0  0  0
   44.8280   33.5650   39.2020 N   0  0  0  0  0  0  0  0  0  0  0  0
   45.3540   32.4430   38.4040 C   0  0  0  0  0  0  0  0  0  0  0  0
   45.9160   33.0570   37.1600 C   0  0  0  0  0  0  0  0  0  0  0  0
   46.3010   34.4090   37.2420 N   0  0  0  0  0  0  0  0  0  0  0  0
   46.5010   35.0390   38.4810 C   0  0  0  0  0  0  0  0  0  0  0  0
   45.9310   34.3740   39.7020 C   0  0  0  0  0  0  0  0  0  0  0  0
   34.9373   30.7975   40.9665 H   0  0  0  0  0  0  0  0  0  0  0  0
   36.0388   28.8258   42.0584 H   0  0  0  0  0  0  0  0  0  0  0  0
   40.3431   29.2467   43.2957 H   0  0  0  0  0  0  0  0  0  0  0  0
   40.8169   26.7931   43.9599 H   0  0  0  0  0  0  0  0  0  0  0  0
   39.6538   24.2537   43.4311 H   0  0  0  0  0  0  0  0  0  0  0  0
   37.7555   23.1681   42.1693 H   0  0  0  0  0  0  0  0  0  0  0  0
   36.2348   24.6444   40.8462 H   0  0  0  0  0  0  0  0  0  0  0  0
   36.5844   27.0631   40.7840 H   0  0  0  0  0  0  0  0  0  0  0  0
   38.8917   32.1927   38.7178 H   0  0  0  0  0  0  0  0  0  0  0  0
   38.8012   34.9510   39.6345 H   0  0  0  0  0  0  0  0  0  0  0  0
   38.0349   34.5826   40.9333 H   0  0  0  0  0  0  0  0  0  0  0  0
   40.5477   32.9879   41.4433 H   0  0  0  0  0  0  0  0  0  0  0  0
   46.1419   31.9136   38.9598 H   0  0  0  0  0  0  0  0  0  0  0  0
   44.5699   31.7066   38.1740 H   0  0  0  0  0  0  0  0  0  0  0  0
   45.1520   32.9748   36.3729 H   0  0  0  0  0  0  0  0  0  0  0  0
   46.8445   32.5031   36.9574 H   0  0  0  0  0  0  0  0  0  0  0  0
   47.1895   34.4903   36.7274 H   0  0  0  0  0  0  0  0  0  0  0  0
   47.5868   35.1291   38.6324 H   0  0  0  0  0  0  0  0  0  0  0  0
   45.9541   35.9901   38.4012 H   0  0  0  0  0  0  0  0  0  0  0  0
   45.5673   35.1251   40.4186 H   0  0  0  0  0  0  0  0  0  0  0  0
   46.6806   33.7711   40.2356 H   0  0  0  0  0  0  0  0  0  0  0  0
  1  2  2  0
  3  2  1  0
  3  7  1  0
  4  3  2  0
  5  6  2  0
  5  4  1  0
  6  1  1  0
  7  8  2  0
  8  9  1  0
 10 11  2  0
 10  9  1  0
 12 11  1  0
 13 12  2  0
 14 13  1  0
 14 15  2  0
 15  7  1  0
 15 10  1  0
 16 17  1  0
 16  5  1  0
 16 18  1  0
 17 18  1  0
 19 23  1  0
 19 18  1  0
 20 19  2  0
 21 20  1  0
 21 22  1  0
 22 23  2  0
 24 22  1  0
 24 29  1  0
 25 24  1  0
 26 27  1  0
 26 25  1  0
 27 28  1  0
 28 29  1  0
  1 30  1  0
  2 31  1  0
  8 32  1  0
  9 33  1  0
 11 34  1  0
 12 35  1  0
 13 36  1  0
 14 37  1  0
 16 38  1  6
 17 39  1  0
 17 40  1  0
 18 41  1  1
 25 42  1  0
 25 43  1  0
 26 44  1  0
 26 45  1  0
 27 46  1  0
 28 47  1  0
 28 48  1  0
 29 49  1  0
 29 50  1  0
M  END
>  <Score>  (1) 
-7.18644

$$$$
