
     RDKit          3D

 53 57  0  0  1  0  0  0  0  0999 V2000
   43.1890   34.7970   41.8740 C   0  0  2  0  0  0  0  0  0  0  0  0
   43.0620   36.1730   42.6400 C   0  0  0  0  0  0  0  0  0  0  0  0
   44.6220   34.5430   41.5960 C   0  0  0  0  0  0  0  0  0  0  0  0
   45.2320   34.0720   42.8320 N   0  0  0  0  0  0  0  0  0  0  0  0
   46.4000   34.5570   43.3430 C   0  0  0  0  0  0  0  0  0  0  0  0
   46.6890   33.9140   44.4900 N   0  0  0  0  0  0  0  0  0  0  0  0
   45.6840   33.0200   44.6880 C   0  0  0  0  0  0  0  0  0  0  0  0
   44.8010   33.1380   43.6540 N   0  0  0  0  0  0  0  0  0  0  0  0
   45.5610   32.1080   45.7860 N   0  0  0  0  0  0  0  0  0  0  0  0
   44.7050   31.0780   45.6820 C   0  0  0  0  0  0  0  0  0  0  0  0
   44.6200   30.2160   46.7780 C   0  0  0  0  0  0  0  0  0  0  0  0
   43.6990   29.0360   46.7690 C   0  0  0  0  0  0  0  0  0  0  0  0
   45.3970   30.4320   47.9180 C   0  0  0  0  0  0  0  0  0  0  0  0
   45.3370   29.6630   48.9270 O   0  0  0  0  0  0  0  0  0  0  0  0
   46.2360   31.4830   47.9610 N   0  0  0  0  0  0  0  0  0  0  0  0
   46.3080   32.3160   46.8840 C   0  0  0  0  0  0  0  0  0  0  0  0
   47.1180   33.2720   47.0120 O   0  0  0  0  0  0  0  0  0  0  0  0
   42.4360   34.9980   40.6910 O   0  0  0  0  0  0  0  0  0  0  0  0
   38.8800   35.4530   40.2290 C   0  0  0  0  0  0  0  0  0  0  0  0
   40.2300   35.8170   40.3530 C   0  0  0  0  0  0  0  0  0  0  0  0
   41.1460   34.7620   40.5590 C   0  0  0  0  0  0  0  0  0  0  0  0
   40.6340   33.5480   40.6120 N   0  0  0  0  0  0  0  0  0  0  0  0
   39.3830   33.1630   40.5010 C   0  0  0  0  0  0  0  0  0  0  0  0
   38.5320   34.1730   40.3070 N   0  0  0  0  0  0  0  0  0  0  0  0
   38.7150   31.8760   40.5460 C   0  0  0  0  0  0  0  0  0  0  0  0
   38.6030   31.1320   41.6670 N   0  0  0  0  0  0  0  0  0  0  0  0
   38.0000   29.9550   41.7460 C   0  0  0  0  0  0  0  0  0  0  0  0
   37.4460   29.4090   40.6870 N   0  0  0  0  0  0  0  0  0  0  0  0
   37.4870   30.0520   39.4960 C   0  0  0  0  0  0  0  0  0  0  0  0
   36.9030   29.4860   38.3740 C   0  0  0  0  0  0  0  0  0  0  0  0
   36.9270   30.1060   37.1740 C   0  0  0  0  0  0  0  0  0  0  0  0
   37.5750   31.3730   37.0860 C   0  0  0  0  0  0  0  0  0  0  0  0
   38.1310   31.8710   38.2400 C   0  0  0  0  0  0  0  0  0  0  0  0
   38.1230   31.2740   39.4590 C   0  0  0  0  0  0  0  0  0  0  0  0
   42.8203   33.9238   42.4322 H   0  0  0  0  0  0  0  0  0  0  0  0
   43.0787   35.9917   43.7248 H   0  0  0  0  0  0  0  0  0  0  0  0
   43.9038   36.8252   42.3642 H   0  0  0  0  0  0  0  0  0  0  0  0
   42.1151   36.6601   42.3642 H   0  0  0  0  0  0  0  0  0  0  0  0
   44.7224   33.7776   40.8124 H   0  0  0  0  0  0  0  0  0  0  0  0
   45.1168   35.4608   41.2455 H   0  0  0  0  0  0  0  0  0  0  0  0
   47.0112   35.3506   42.8883 H   0  0  0  0  0  0  0  0  0  0  0  0
   44.0998   30.9208   44.7770 H   0  0  0  0  0  0  0  0  0  0  0  0
   43.4696   28.7420   47.8039 H   0  0  0  0  0  0  0  0  0  0  0  0
   42.7673   29.3020   46.2483 H   0  0  0  0  0  0  0  0  0  0  0  0
   44.1833   28.1968   46.2483 H   0  0  0  0  0  0  0  0  0  0  0  0
   46.8152   31.6557   48.7950 H   0  0  0  0  0  0  0  0  0  0  0  0
   38.1129   36.2247   40.0678 H   0  0  0  0  0  0  0  0  0  0  0  0
   40.5563   36.8658   40.2930 H   0  0  0  0  0  0  0  0  0  0  0  0
   37.9626   29.4279   42.7108 H   0  0  0  0  0  0  0  0  0  0  0  0
   36.4077   28.5078   38.4627 H   0  0  0  0  0  0  0  0  0  0  0  0
   36.4601   29.6466   36.2903 H   0  0  0  0  0  0  0  0  0  0  0  0
   37.6276   31.9270   36.1371 H   0  0  0  0  0  0  0  0  0  0  0  0
   38.6310   32.8482   38.1689 H   0  0  0  0  0  0  0  0  0  0  0  0
  1  2  1  0
  3  1  1  0
  3  4  1  0
  4  5  1  0
  4  8  1  0
  5  6  2  0
  6  7  1  0
  7  9  1  0
  8  7  2  0
  9 16  1  0
 10  9  1  0
 10 11  2  0
 11 13  1  0
 12 11  1  0
 13 15  1  0
 13 14  2  0
 16 17  2  0
 16 15  1  0
 18  1  1  0
 19 24  2  0
 19 20  1  0
 20 21  2  0
 21 22  1  0
 21 18  1  0
 23 25  1  0
 23 22  2  0
 24 23  1  0
 25 26  2  0
 26 27  1  0
 28 27  2  0
 29 28  1  0
 30 29  2  0
 31 30  1  0
 32 31  2  0
 32 33  1  0
 33 34  2  0
 34 29  1  0
 34 25  1  0
  1 35  1  1
  2 36  1  0
  2 37  1  0
  2 38  1  0
  3 39  1  0
  3 40  1  0
  5 41  1  0
 10 42  1  0
 12 43  1  0
 12 44  1  0
 12 45  1  0
 15 46  1  0
 19 47  1  0
 20 48  1  0
 27 49  1  0
 30 50  1  0
 31 51  1  0
 32 52  1  0
 33 53  1  0
M  END
>  <Score>  (1) 
-8.35598

$$$$
