
     RDKit          3D

 54 59  0  0  1  0  0  0  0  0999 V2000
   43.0680   35.1950   42.0110 C   0  0  2  0  0  0  0  0  0  0  0  0
   42.7650   36.5350   42.7920 C   0  0  0  0  0  0  0  0  0  0  0  0
   44.5330   35.0860   41.8120 C   0  0  0  0  0  0  0  0  0  0  0  0
   45.0740   34.3380   42.9370 N   0  0  0  0  0  0  0  0  0  0  0  0
   46.2080   34.6810   43.6100 C   0  0  0  0  0  0  0  0  0  0  0  0
   46.4370   33.7890   44.5950 N   0  0  0  0  0  0  0  0  0  0  0  0
   45.4220   32.8820   44.5240 C   0  0  0  0  0  0  0  0  0  0  0  0
   44.6020   33.2440   43.4970 N   0  0  0  0  0  0  0  0  0  0  0  0
   45.3680   31.7940   45.4390 N   0  0  0  0  0  0  0  0  0  0  0  0
   44.2040   31.2660   45.8640 C   0  0  0  0  0  0  0  0  0  0  0  0
   44.4120   30.2520   46.7210 N   0  0  0  0  0  0  0  0  0  0  0  0
   45.7620   30.1250   46.8510 C   0  0  0  0  0  0  0  0  0  0  0  0
   46.5460   29.2520   47.6000 C   0  0  0  0  0  0  0  0  0  0  0  0
   46.0160   28.3920   48.3150 O   0  0  0  0  0  0  0  0  0  0  0  0
   47.8840   29.4390   47.4650 N   0  0  0  0  0  0  0  0  0  0  0  0
   48.4410   30.3800   46.6820 C   0  0  0  0  0  0  0  0  0  0  0  0
   49.8670   30.4030   46.6870 N   0  0  0  0  0  0  0  0  0  0  0  0
   47.6580   31.2280   45.9550 N   0  0  0  0  0  0  0  0  0  0  0  0
   46.3340   31.0890   46.0490 C   0  0  0  0  0  0  0  0  0  0  0  0
   42.3660   35.3540   40.7900 O   0  0  0  0  0  0  0  0  0  0  0  0
   38.8250   35.6220   40.1110 C   0  0  0  0  0  0  0  0  0  0  0  0
   40.1490   36.0510   40.2950 C   0  0  0  0  0  0  0  0  0  0  0  0
   41.0970   35.0530   40.5960 C   0  0  0  0  0  0  0  0  0  0  0  0
   40.6380   33.8190   40.6740 N   0  0  0  0  0  0  0  0  0  0  0  0
   39.4140   33.3710   40.5110 C   0  0  0  0  0  0  0  0  0  0  0  0
   38.5310   34.3300   40.2260 N   0  0  0  0  0  0  0  0  0  0  0  0
   38.8040   32.0570   40.5760 C   0  0  0  0  0  0  0  0  0  0  0  0
   38.7450   31.3150   41.7020 N   0  0  0  0  0  0  0  0  0  0  0  0
   38.1970   30.1140   41.8010 C   0  0  0  0  0  0  0  0  0  0  0  0
   37.6450   29.5340   40.7520 N   0  0  0  0  0  0  0  0  0  0  0  0
   37.6400   30.1740   39.5610 C   0  0  0  0  0  0  0  0  0  0  0  0
   37.0630   29.5770   38.4500 C   0  0  0  0  0  0  0  0  0  0  0  0
   37.0380   30.1880   37.2460 C   0  0  0  0  0  0  0  0  0  0  0  0
   37.6240   31.4740   37.1400 C   0  0  0  0  0  0  0  0  0  0  0  0
   38.1780   32.0060   38.2800 C   0  0  0  0  0  0  0  0  0  0  0  0
   38.2190   31.4210   39.5020 C   0  0  0  0  0  0  0  0  0  0  0  0
   42.7561   34.2769   42.5303 H   0  0  0  0  0  0  0  0  0  0  0  0
   42.8077   36.3460   43.8748 H   0  0  0  0  0  0  0  0  0  0  0  0
   43.5142   37.2940   42.5224 H   0  0  0  0  0  0  0  0  0  0  0  0
   41.7621   36.8978   42.5224 H   0  0  0  0  0  0  0  0  0  0  0  0
   44.7457   34.5561   40.8718 H   0  0  0  0  0  0  0  0  0  0  0  0
   44.9911   36.0845   41.7551 H   0  0  0  0  0  0  0  0  0  0  0  0
   46.8401   35.5525   43.3843 H   0  0  0  0  0  0  0  0  0  0  0  0
   43.2108   31.6194   45.5499 H   0  0  0  0  0  0  0  0  0  0  0  0
   48.5130   28.8203   47.9965 H   0  0  0  0  0  0  0  0  0  0  0  0
   50.3729   31.0935   46.1141 H   0  0  0  0  0  0  0  0  0  0  0  0
   50.3909   29.7291   47.2635 H   0  0  0  0  0  0  0  0  0  0  0  0
   38.0355   36.3501   39.8731 H   0  0  0  0  0  0  0  0  0  0  0  0
   40.4315   37.1106   40.2087 H   0  0  0  0  0  0  0  0  0  0  0  0
   38.2018   29.5930   42.7698 H   0  0  0  0  0  0  0  0  0  0  0  0
   36.6134   28.5783   38.5524 H   0  0  0  0  0  0  0  0  0  0  0  0
   36.5766   29.7021   36.3736 H   0  0  0  0  0  0  0  0  0  0  0  0
   37.6350   32.0227   36.1867 H   0  0  0  0  0  0  0  0  0  0  0  0
   38.6324   33.0039   38.1920 H   0  0  0  0  0  0  0  0  0  0  0  0
  1  2  1  0
  3  1  1  0
  3  4  1  0
  4  8  1  0
  4  5  1  0
  5  6  2  0
  7  6  1  0
  7  9  1  0
  8  7  2  0
  9 10  1  0
  9 19  1  0
 10 11  2  0
 11 12  1  0
 12 13  1  0
 13 14  2  0
 15 13  1  0
 16 17  1  0
 16 15  1  0
 18 19  1  0
 18 16  2  0
 19 12  2  0
 20  1  1  0
 21 26  2  0
 21 22  1  0
 22 23  2  0
 23 24  1  0
 23 20  1  0
 25 27  1  0
 25 24  2  0
 26 25  1  0
 27 28  2  0
 28 29  1  0
 30 29  2  0
 31 30  1  0
 32 31  2  0
 33 32  1  0
 34 33  2  0
 34 35  1  0
 35 36  2  0
 36 31  1  0
 36 27  1  0
  1 37  1  1
  2 38  1  0
  2 39  1  0
  2 40  1  0
  3 41  1  0
  3 42  1  0
  5 43  1  0
 10 44  1  0
 15 45  1  0
 17 46  1  0
 17 47  1  0
 21 48  1  0
 22 49  1  0
 29 50  1  0
 32 51  1  0
 33 52  1  0
 34 53  1  0
 35 54  1  0
M  END
>  <Score>  (1) 
-7.82123

$$$$
