
     RDKit          3D

 45 49  0  0  0  0  0  0  0  0999 V2000
   37.4310   28.0490   43.2270 C   0  0  0  0  0  0  0  0  0  0  0  0
   38.3850   26.9430   43.1870 C   0  0  0  0  0  0  0  0  0  0  0  0
   39.5580   26.9250   43.9520 C   0  0  0  0  0  0  0  0  0  0  0  0
   40.4270   25.8600   43.8770 C   0  0  0  0  0  0  0  0  0  0  0  0
   40.1400   24.7950   43.0390 C   0  0  0  0  0  0  0  0  0  0  0  0
   38.9970   24.7940   42.2840 C   0  0  0  0  0  0  0  0  0  0  0  0
   38.6710   23.7510   41.4440 C   0  0  0  0  0  0  0  0  0  0  0  0
   37.5410   23.7370   40.7000 C   0  0  0  0  0  0  0  0  0  0  0  0
   36.6410   24.7920   40.7480 C   0  0  0  0  0  0  0  0  0  0  0  0
   36.9750   25.8450   41.5990 C   0  0  0  0  0  0  0  0  0  0  0  0
   38.1140   25.8830   42.3630 C   0  0  0  0  0  0  0  0  0  0  0  0
   39.0450   29.9680   42.8680 C   0  0  0  0  0  0  0  0  0  0  0  0
   37.8720   29.2820   42.5320 C   0  0  0  0  0  0  0  0  0  0  0  0
   37.1250   29.8160   41.4890 C   0  0  0  0  0  0  0  0  0  0  0  0
   37.5630   30.9340   40.8770 N   0  0  0  0  0  0  0  0  0  0  0  0
   38.6680   31.5600   41.2100 C   0  0  0  0  0  0  0  0  0  0  0  0
   39.4200   31.0790   42.2120 N   0  0  0  0  0  0  0  0  0  0  0  0
   39.2720   32.7730   40.6430 C   0  0  0  0  0  0  0  0  0  0  0  0
   38.9570   34.0710   41.0630 C   0  0  0  0  0  0  0  0  0  0  0  0
   39.5050   35.2130   40.5530 C   0  0  0  0  0  0  0  0  0  0  0  0
   40.4340   35.1350   39.5570 C   0  0  0  0  0  0  0  0  0  0  0  0
   40.7950   33.9030   39.0930 C   0  0  0  0  0  0  0  0  0  0  0  0
   41.7350   33.8690   38.0890 C   0  0  0  0  0  0  0  0  0  0  0  0
   42.1530   32.6680   37.5650 C   0  0  0  0  0  0  0  0  0  0  0  0
   41.5920   31.5170   38.0890 C   0  0  0  0  0  0  0  0  0  0  0  0
   40.6580   31.6120   39.0900 C   0  0  0  0  0  0  0  0  0  0  0  0
   40.2130   32.7860   39.6400 C   0  0  0  0  0  0  0  0  0  0  0  0
   36.4952   27.7096   42.7590 H   0  0  0  0  0  0  0  0  0  0  0  0
   37.3164   28.3180   44.2874 H   0  0  0  0  0  0  0  0  0  0  0  0
   39.7869   27.7694   44.6187 H   0  0  0  0  0  0  0  0  0  0  0  0
   41.3465   25.8547   44.4807 H   0  0  0  0  0  0  0  0  0  0  0  0
   40.8347   23.9442   42.9794 H   0  0  0  0  0  0  0  0  0  0  0  0
   39.3579   22.8946   41.3757 H   0  0  0  0  0  0  0  0  0  0  0  0
   37.3327   22.8764   40.0473 H   0  0  0  0  0  0  0  0  0  0  0  0
   35.7180   24.7974   40.1497 H   0  0  0  0  0  0  0  0  0  0  0  0
   36.2827   26.6976   41.6616 H   0  0  0  0  0  0  0  0  0  0  0  0
   39.6737   29.5891   43.6873 H   0  0  0  0  0  0  0  0  0  0  0  0
   36.1902   29.3334   41.1677 H   0  0  0  0  0  0  0  0  0  0  0  0
   38.2115   34.1790   41.8646 H   0  0  0  0  0  0  0  0  0  0  0  0
   39.1980   36.1940   40.9445 H   0  0  0  0  0  0  0  0  0  0  0  0
   40.8832   36.0467   39.1362 H   0  0  0  0  0  0  0  0  0  0  0  0
   42.1553   34.8092   37.7025 H   0  0  0  0  0  0  0  0  0  0  0  0
   42.9031   32.6244   36.7616 H   0  0  0  0  0  0  0  0  0  0  0  0
   41.8930   30.5310   37.7053 H   0  0  0  0  0  0  0  0  0  0  0  0
   40.2344   30.6750   39.4806 H   0  0  0  0  0  0  0  0  0  0  0  0
  2  1  1  0
  2  3  2  0
  4  3  1  0
  5  4  2  0
  6 11  2  0
  6  5  1  0
  7  6  1  0
  8  9  1  0
  8  7  2  0
  9 10  2  0
 10 11  1  0
 11  2  1  0
 13 12  2  0
 13  1  1  0
 14 13  1  0
 15 16  1  0
 15 14  2  0
 16 17  2  0
 17 12  1  0
 18 19  2  0
 18 16  1  0
 20 19  1  0
 21 20  2  0
 22 21  1  0
 22 27  2  0
 23 22  1  0
 24 25  1  0
 24 23  2  0
 25 26  2  0
 26 27  1  0
 27 18  1  0
  1 28  1  0
  1 29  1  0
  3 30  1  0
  4 31  1  0
  5 32  1  0
  7 33  1  0
  8 34  1  0
  9 35  1  0
 10 36  1  0
 12 37  1  0
 14 38  1  0
 19 39  1  0
 20 40  1  0
 21 41  1  0
 23 42  1  0
 24 43  1  0
 25 44  1  0
 26 45  1  0
M  END
>  <Score>  (1) 
-7.55596

$$$$
