
     RDKit          3D

 48 52  0  0  1  0  0  0  0  0999 V2000
   39.5050   35.6860   39.9640 C   0  0  0  0  0  0  0  0  0  0  0  0
   40.7730   36.1280   40.3310 C   0  0  0  0  0  0  0  0  0  0  0  0
   41.6180   35.1650   40.9040 C   0  0  0  0  0  0  0  0  0  0  0  0
   41.1150   33.9420   41.0300 N   0  0  0  0  0  0  0  0  0  0  0  0
   39.9240   33.4940   40.6920 C   0  0  0  0  0  0  0  0  0  0  0  0
   39.1430   34.4220   40.1540 N   0  0  0  0  0  0  0  0  0  0  0  0
   39.2730   32.1950   40.7810 C   0  0  0  0  0  0  0  0  0  0  0  0
   39.2830   31.4250   41.8730 N   0  0  0  0  0  0  0  0  0  0  0  0
   38.7020   30.2410   41.9850 C   0  0  0  0  0  0  0  0  0  0  0  0
   38.0380   29.7110   40.9720 N   0  0  0  0  0  0  0  0  0  0  0  0
   37.9520   30.3820   39.8130 C   0  0  0  0  0  0  0  0  0  0  0  0
   37.2600   29.8370   38.7470 C   0  0  0  0  0  0  0  0  0  0  0  0
   37.1590   30.4950   37.5650 C   0  0  0  0  0  0  0  0  0  0  0  0
   37.7720   31.7490   37.4430 C   0  0  0  0  0  0  0  0  0  0  0  0
   38.4480   32.2390   38.5440 C   0  0  0  0  0  0  0  0  0  0  0  0
   38.5720   31.6070   39.7480 C   0  0  0  0  0  0  0  0  0  0  0  0
   42.8630   35.4140   41.3140 O   0  0  0  0  0  0  0  0  0  0  0  0
   43.2340   35.6890   42.6540 C   0  0  2  0  0  0  0  0  0  0  0  0
   42.5100   36.9940   43.0730 C   0  0  0  0  0  0  0  0  0  0  0  0
   44.7190   35.8810   42.7540 C   0  0  0  0  0  0  0  0  0  0  0  0
   45.1490   35.3370   44.0910 C   0  0  0  0  0  0  0  0  0  0  0  0
   44.6030   35.7130   45.2680 N   0  0  0  0  0  0  0  0  0  0  0  0
   45.0270   35.1650   46.4220 C   0  0  0  0  0  0  0  0  0  0  0  0
   46.0000   34.2300   46.4540 N   0  0  0  0  0  0  0  0  0  0  0  0
   46.5690   33.8300   45.3040 C   0  0  0  0  0  0  0  0  0  0  0  0
   47.5760   32.8760   45.3160 C   0  0  0  0  0  0  0  0  0  0  0  0
   48.1990   32.4340   44.1530 C   0  0  0  0  0  0  0  0  0  0  0  0
   47.7820   32.9830   42.9420 C   0  0  0  0  0  0  0  0  0  0  0  0
   46.7810   33.9270   42.9750 C   0  0  0  0  0  0  0  0  0  0  0  0
   46.1580   34.3710   44.1030 C   0  0  0  0  0  0  0  0  0  0  0  0
   38.7938   36.3923   39.5109 H   0  0  0  0  0  0  0  0  0  0  0  0
   41.0934   37.1695   40.1809 H   0  0  0  0  0  0  0  0  0  0  0  0
   38.7726   29.6901   42.9345 H   0  0  0  0  0  0  0  0  0  0  0  0
   36.7829   28.8523   38.8595 H   0  0  0  0  0  0  0  0  0  0  0  0
   36.6082   30.0539   36.7212 H   0  0  0  0  0  0  0  0  0  0  0  0
   37.7171   32.3221   36.5057 H   0  0  0  0  0  0  0  0  0  0  0  0
   38.9278   33.2235   38.4417 H   0  0  0  0  0  0  0  0  0  0  0  0
   42.9528   34.8522   43.3103 H   0  0  0  0  0  0  0  0  0  0  0  0
   42.4747   37.0576   44.1706 H   0  0  0  0  0  0  0  0  0  0  0  0
   43.0561   37.8610   42.6729 H   0  0  0  0  0  0  0  0  0  0  0  0
   41.4854   36.9895   42.6729 H   0  0  0  0  0  0  0  0  0  0  0  0
   45.2251   35.3348   41.9444 H   0  0  0  0  0  0  0  0  0  0  0  0
   44.9824   36.9451   42.6622 H   0  0  0  0  0  0  0  0  0  0  0  0
   44.5668   35.4888   47.3672 H   0  0  0  0  0  0  0  0  0  0  0  0
   47.8937   32.4533   46.2806 H   0  0  0  0  0  0  0  0  0  0  0  0
   48.9950   31.6757   44.1884 H   0  0  0  0  0  0  0  0  0  0  0  0
   48.2381   32.6720   41.9905 H   0  0  0  0  0  0  0  0  0  0  0  0
   46.4583   34.3570   42.0153 H   0  0  0  0  0  0  0  0  0  0  0  0
  1  6  2  0
  1  2  1  0
  2  3  2  0
  3  4  1  0
  3 17  1  0
  5  7  1  0
  5  4  2  0
  6  5  1  0
  7  8  2  0
  8  9  1  0
 10  9  2  0
 11 10  1  0
 12 11  2  0
 13 12  1  0
 14 13  2  0
 14 15  1  0
 15 16  2  0
 16 11  1  0
 16  7  1  0
 17 18  1  0
 18 20  1  0
 18 19  1  0
 20 21  1  0
 21 30  1  0
 21 22  2  0
 22 23  1  0
 23 24  2  0
 25 26  2  0
 25 24  1  0
 27 26  1  0
 28 29  1  0
 28 27  2  0
 29 30  2  0
 30 25  1  0
  1 31  1  0
  2 32  1  0
  9 33  1  0
 12 34  1  0
 13 35  1  0
 14 36  1  0
 15 37  1  0
 18 38  1  1
 19 39  1  0
 19 40  1  0
 19 41  1  0
 20 42  1  0
 20 43  1  0
 23 44  1  0
 26 45  1  0
 27 46  1  0
 28 47  1  0
 29 48  1  0
M  END
>  <Score>  (1) 
-7.22085

$$$$
