
     RDKit          3D

 40 44  0  0  0  0  0  0  0  0999 V2000
   41.1030   28.4830   42.9920 C   0  0  0  0  0  0  0  0  0  0  0  0
   40.5790   27.3550   43.6730 C   0  0  0  0  0  0  0  0  0  0  0  0
   39.1950   27.0970   43.5900 C   0  0  0  0  0  0  0  0  0  0  0  0
   38.4540   27.9670   42.8480 N   0  0  0  0  0  0  0  0  0  0  0  0
   38.9780   29.0240   42.2160 C   0  0  0  0  0  0  0  0  0  0  0  0
   40.2950   29.3020   42.2740 N   0  0  0  0  0  0  0  0  0  0  0  0
   38.0500   29.8290   41.4840 N   0  0  0  0  0  0  0  0  0  0  0  0
   36.8250   29.3180   41.2150 C   0  0  0  0  0  0  0  0  0  0  0  0
   36.1550   30.2580   40.5270 N   0  0  0  0  0  0  0  0  0  0  0  0
   36.9010   31.3460   40.3460 C   0  0  0  0  0  0  0  0  0  0  0  0
   36.8170   32.5870   39.7590 C   0  0  0  0  0  0  0  0  0  0  0  0
   37.8330   33.4760   39.7760 N   0  0  0  0  0  0  0  0  0  0  0  0
   38.9820   33.1330   40.3920 C   0  0  0  0  0  0  0  0  0  0  0  0
   39.1100   31.9330   40.9780 N   0  0  0  0  0  0  0  0  0  0  0  0
   38.0950   31.0640   40.9530 C   0  0  0  0  0  0  0  0  0  0  0  0
   40.1040   34.0050   40.4600 N   0  0  0  0  0  0  0  0  0  0  0  0
   40.3750   35.2690   40.0870 C   0  0  0  0  0  0  0  0  0  0  0  0
   41.6390   35.5840   40.4070 N   0  0  0  0  0  0  0  0  0  0  0  0
   42.1600   34.5020   40.9860 C   0  0  0  0  0  0  0  0  0  0  0  0
   41.2190   33.5260   41.0210 N   0  0  0  0  0  0  0  0  0  0  0  0
   43.4920   34.3430   41.5060 N   0  0  0  0  0  0  0  0  0  0  0  0
   44.2100   33.3370   40.9470 C   0  0  0  0  0  0  0  0  0  0  0  0
   45.5030   33.1250   41.3990 C   0  0  0  0  0  0  0  0  0  0  0  0
   46.2740   32.0170   40.7730 C   0  0  0  0  0  0  0  0  0  0  0  0
   46.0030   33.9340   42.3860 C   0  0  0  0  0  0  0  0  0  0  0  0
   47.1710   33.7120   42.7670 O   0  0  0  0  0  0  0  0  0  0  0  0
   45.2150   34.9050   42.8800 N   0  0  0  0  0  0  0  0  0  0  0  0
   43.9530   35.1480   42.4720 C   0  0  0  0  0  0  0  0  0  0  0  0
   43.2520   36.0690   42.9620 O   0  0  0  0  0  0  0  0  0  0  0  0
   42.1806   28.6969   43.0469 H   0  0  0  0  0  0  0  0  0  0  0  0
   41.2389   26.6943   44.2545 H   0  0  0  0  0  0  0  0  0  0  0  0
   38.7366   26.2363   44.0989 H   0  0  0  0  0  0  0  0  0  0  0  0
   36.4506   28.3249   41.5040 H   0  0  0  0  0  0  0  0  0  0  0  0
   35.8811   32.8675   39.2536 H   0  0  0  0  0  0  0  0  0  0  0  0
   39.6633   35.9458   39.5916 H   0  0  0  0  0  0  0  0  0  0  0  0
   43.7777   32.7064   40.1562 H   0  0  0  0  0  0  0  0  0  0  0  0
   46.7132   31.3858   41.5596 H   0  0  0  0  0  0  0  0  0  0  0  0
   45.6022   31.4100   40.1483 H   0  0  0  0  0  0  0  0  0  0  0  0
   47.0766   32.4360   40.1483 H   0  0  0  0  0  0  0  0  0  0  0  0
   45.6025   35.5052   43.6220 H   0  0  0  0  0  0  0  0  0  0  0  0
  1  2  2  0
  3  2  1  0
  4  3  2  0
  5  6  2  0
  5  4  1  0
  6  1  1  0
  7  5  1  0
  8  7  1  0
  9  8  2  0
 10  9  1  0
 10 15  2  0
 11 12  2  0
 11 10  1  0
 12 13  1  0
 13 16  1  0
 13 14  2  0
 15 14  1  0
 15  7  1  0
 16 20  1  0
 17 18  2  0
 17 16  1  0
 18 19  1  0
 19 20  2  0
 19 21  1  0
 21 28  1  0
 22 23  2  0
 22 21  1  0
 23 25  1  0
 24 23  1  0
 25 26  2  0
 25 27  1  0
 28 27  1  0
 28 29  2  0
  1 30  1  0
  2 31  1  0
  3 32  1  0
  8 33  1  0
 11 34  1  0
 17 35  1  0
 22 36  1  0
 24 37  1  0
 24 38  1  0
 24 39  1  0
 27 40  1  0
M  END
>  <Score>  (1) 
-7.39195

$$$$
