
     RDKit          3D

 51 55  0  0  1  0  0  0  0  0999 V2000
   38.5370   29.4850   41.4950 N   0  0  0  0  0  0  0  0  0  0  0  0
   39.1800   29.4200   42.6340 C   0  0  0  0  0  0  0  0  0  0  0  0
   39.4480   28.2420   43.2880 C   0  0  0  0  0  0  0  0  0  0  0  0
   39.0300   27.0280   42.7440 C   0  0  0  0  0  0  0  0  0  0  0  0
   39.2720   25.9500   43.3370 O   0  0  0  0  0  0  0  0  0  0  0  0
   38.3660   27.1260   41.5640 N   0  0  0  0  0  0  0  0  0  0  0  0
   38.1400   28.2980   40.9830 C   0  0  0  0  0  0  0  0  0  0  0  0
   37.5080   28.2800   39.8760 O   0  0  0  0  0  0  0  0  0  0  0  0
   37.9250   25.8900   40.9810 C   0  0  2  0  0  0  0  0  0  0  0  0
   37.0870   25.0150   41.7810 C   0  0  0  0  0  0  0  0  0  0  0  0
   37.2580   23.6490   41.0920 C   0  0  0  0  0  0  0  0  0  0  0  0
   38.7050   23.6130   40.8060 C   0  0  0  0  0  0  0  0  0  0  0  0
   39.1050   25.0310   40.5030 C   0  0  1  0  0  0  0  0  0  0  0  0
   39.4720   25.2930   39.0890 C   0  0  0  0  0  0  0  0  0  0  0  0
   38.2500   30.6940   40.8030 C   0  0  0  0  0  0  0  0  0  0  0  0
   36.9370   31.1050   40.4480 C   0  0  0  0  0  0  0  0  0  0  0  0
   36.8010   32.3130   39.7710 C   0  0  0  0  0  0  0  0  0  0  0  0
   37.9110   33.0180   39.4940 N   0  0  0  0  0  0  0  0  0  0  0  0
   39.1520   32.6160   39.8370 C   0  0  0  0  0  0  0  0  0  0  0  0
   39.2980   31.4580   40.4860 N   0  0  0  0  0  0  0  0  0  0  0  0
   40.2690   33.3680   39.5330 O   0  0  0  0  0  0  0  0  0  0  0  0
   40.5660   34.5900   40.0670 C   0  0  0  0  0  0  0  0  0  0  0  0
   39.8710   35.7440   39.8470 N   0  0  0  0  0  0  0  0  0  0  0  0
   40.3090   36.8790   40.4640 C   0  0  0  0  0  0  0  0  0  0  0  0
   41.3870   36.9020   41.2690 N   0  0  0  0  0  0  0  0  0  0  0  0
   42.1030   35.7940   41.5180 C   0  0  0  0  0  0  0  0  0  0  0  0
   43.2100   35.8240   42.3470 C   0  0  0  0  0  0  0  0  0  0  0  0
   43.9010   34.6480   42.5580 C   0  0  0  0  0  0  0  0  0  0  0  0
   43.5340   33.4520   41.9790 C   0  0  0  0  0  0  0  0  0  0  0  0
   42.4200   33.4990   41.1640 C   0  0  0  0  0  0  0  0  0  0  0  0
   41.6800   34.6310   40.9040 C   0  0  0  0  0  0  0  0  0  0  0  0
   39.5240   30.3592   43.0917 H   0  0  0  0  0  0  0  0  0  0  0  0
   39.9936   28.2564   44.2430 H   0  0  0  0  0  0  0  0  0  0  0  0
   37.2947   26.2711   40.1640 H   0  0  0  0  0  0  0  0  0  0  0  0
   37.4353   24.9785   42.8238 H   0  0  0  0  0  0  0  0  0  0  0  0
   36.0394   25.3464   41.8338 H   0  0  0  0  0  0  0  0  0  0  0  0
   36.9648   22.8269   41.7614 H   0  0  0  0  0  0  0  0  0  0  0  0
   36.6313   23.5289   40.1960 H   0  0  0  0  0  0  0  0  0  0  0  0
   39.2579   23.2388   41.6802 H   0  0  0  0  0  0  0  0  0  0  0  0
   38.9320   22.9425   39.9640 H   0  0  0  0  0  0  0  0  0  0  0  0
   40.0408   25.2770   41.0263 H   0  0  0  0  0  0  0  0  0  0  0  0
   40.3668   25.9318   39.0548 H   0  0  0  0  0  0  0  0  0  0  0  0
   39.6824   24.3397   38.5821 H   0  0  0  0  0  0  0  0  0  0  0  0
   38.6387   25.8017   38.5821 H   0  0  0  0  0  0  0  0  0  0  0  0
   36.0599   30.4905   40.6992 H   0  0  0  0  0  0  0  0  0  0  0  0
   35.8094   32.6818   39.4700 H   0  0  0  0  0  0  0  0  0  0  0  0
   39.7572   37.8157   40.2963 H   0  0  0  0  0  0  0  0  0  0  0  0
   43.5312   36.7609   42.8257 H   0  0  0  0  0  0  0  0  0  0  0  0
   44.7821   34.6659   43.2162 H   0  0  0  0  0  0  0  0  0  0  0  0
   44.0922   32.5206   42.1547 H   0  0  0  0  0  0  0  0  0  0  0  0
   42.0996   32.5613   40.6864 H   0  0  0  0  0  0  0  0  0  0  0  0
  1  2  1  0
  2  3  2  0
  4  3  1  0
  4  5  2  0
  6  4  1  0
  7  1  1  0
  7  6  1  0
  8  7  2  0
  9  6  1  0
  9 10  1  0
 11 10  1  0
 12 11  1  0
 13 12  1  0
 13  9  1  0
 14 13  1  0
 15  1  1  0
 16 15  2  0
 17 16  1  0
 18 17  2  0
 18 19  1  0
 19 20  2  0
 20 15  1  0
 21 19  1  0
 21 22  1  0
 22 31  1  0
 23 22  2  0
 23 24  1  0
 24 25  2  0
 25 26  1  0
 26 27  2  0
 27 28  1  0
 29 28  2  0
 30 29  1  0
 31 30  2  0
 31 26  1  0
  2 32  1  0
  3 33  1  0
  9 34  1  6
 10 35  1  0
 10 36  1  0
 11 37  1  0
 11 38  1  0
 12 39  1  0
 12 40  1  0
 13 41  1  1
 14 42  1  0
 14 43  1  0
 14 44  1  0
 16 45  1  0
 17 46  1  0
 24 47  1  0
 27 48  1  0
 28 49  1  0
 29 50  1  0
 30 51  1  0
M  END
>  <Score>  (1) 
-7.10452

$$$$
