
 OpenBabel03252514073D

 43 46  0  0  0  0  0  0  0  0999 V2000
   34.2210   30.1260   47.1850 C   0  0  0  0  0  0  0  0  0  0  0  0
   35.2940   29.9140   48.0880 C   0  0  0  0  0  0  0  0  0  0  0  0
   35.1540   28.8670   48.9850 C   0  0  0  0  0  0  0  0  0  0  0  0
   34.0340   28.1070   48.9670 N   0  0  0  0  0  0  0  0  0  0  0  0
   33.0250   28.3250   48.0980 C   0  0  0  0  0  0  0  0  0  0  0  0
   33.1320   29.3240   47.2270 N   0  0  0  0  0  0  0  0  0  0  0  0
   34.2640   30.9260   46.4600 H   0  0  0  0  0  0  0  0  0  0  0  0
   35.9780   28.7270   49.6590 H   0  0  0  0  0  0  0  0  0  0  0  0
   36.4190   30.7800   47.9950 N   0  0  0  0  0  0  0  0  0  0  0  0
   36.9330   31.4650   49.0330 C   0  0  0  0  0  0  0  0  0  0  0  0
   37.9900   32.1870   48.5940 N   0  0  0  0  0  0  0  0  0  0  0  0
   38.1130   31.9320   47.2750 C   0  0  0  0  0  0  0  0  0  0  0  0
   38.9870   32.3650   46.2950 C   0  0  0  0  0  0  0  0  0  0  0  0
   38.8870   31.9460   45.0270 N   0  0  0  0  0  0  0  0  0  0  0  0
   37.9230   31.0800   44.6460 C   0  0  0  0  0  0  0  0  0  0  0  0
   37.0750   30.6610   45.5990 N   0  0  0  0  0  0  0  0  0  0  0  0
   37.1310   31.0490   46.8820 C   0  0  0  0  0  0  0  0  0  0  0  0
   36.5600   31.4390   50.0430 H   0  0  0  0  0  0  0  0  0  0  0  0
   37.8500   30.7480   43.6250 H   0  0  0  0  0  0  0  0  0  0  0  0
   40.0170   33.2750   46.6400 N   0  0  0  0  0  0  0  0  0  0  0  0
   39.9180   34.3140   46.5870 H   0  0  0  0  0  0  0  0  0  0  0  0
   40.9880   33.1320   46.9830 H   0  0  0  0  0  0  0  0  0  0  0  0
   31.8150   27.4750   48.0790 C   0  0  0  0  0  0  0  0  0  0  0  0
   30.9810   27.7690   49.3330 C   0  0  0  0  0  0  0  0  0  0  0  0
   30.9590   28.8720   49.4870 H   0  0  0  0  0  0  0  0  0  0  0  0
   29.9220   27.4630   49.1820 H   0  0  0  0  0  0  0  0  0  0  0  0
   31.4040   27.2860   50.2200 H   0  0  0  0  0  0  0  0  0  0  0  0
   30.9010   27.8920   46.9250 C   0  0  0  0  0  0  0  0  0  0  0  0
   30.6000   28.9700   47.0950 H   0  0  0  0  0  0  0  0  0  0  0  0
   29.9600   27.3430   46.9190 H   0  0  0  0  0  0  0  0  0  0  0  0
   31.3860   27.7980   45.9390 H   0  0  0  0  0  0  0  0  0  0  0  0
   32.0830   26.0260   47.9670 C   0  0  0  0  0  0  0  0  0  0  0  0
   31.3000   25.5000   48.5910 H   0  0  0  0  0  0  0  0  0  0  0  0
   33.0310   25.8240   48.5340 H   0  0  0  0  0  0  0  0  0  0  0  0
   32.0620   25.4160   46.6950 N   0  0  0  0  0  0  0  0  0  0  0  0
   30.9840   24.8730   46.1000 C   0  0  0  0  0  3  0  0  0  0  0  0
   30.9380   24.2710   44.8670 C   0  0  0  0  0  3  0  0  0  0  0  0
   32.1160   24.2040   44.1380 C   0  0  0  0  0  0  0  0  0  0  0  0
   32.1270   23.6680   43.0140 O   0  0  0  0  0  0  0  0  0  0  0  0
   33.2110   24.7300   44.6870 N   0  0  0  0  0  0  0  0  0  0  0  0
   33.1700   25.3020   45.9040 C   0  0  0  0  0  0  0  0  0  0  0  0
   34.2840   25.7500   46.2760 O   0  0  0  0  0  0  0  0  0  0  0  0
   34.0650   24.6600   44.1150 H   0  0  0  0  0  0  0  0  0  0  0  0
  1  6  2  0  0  0  0
  1  2  1  0  0  0  0
  2  3  2  0  0  0  0
  3  8  1  0  0  0  0
  4  3  1  0  0  0  0
  5  4  2  0  0  0  0
  6  5  1  0  0  0  0
  7  1  1  0  0  0  0
  9  2  1  0  0  0  0
  9 10  1  0  0  0  0
 10 18  1  0  0  0  0
 11 10  2  0  0  0  0
 12 11  1  0  0  0  0
 13 20  1  0  0  0  0
 13 12  2  0  0  0  0
 14 13  1  0  0  0  0
 15 14  2  0  0  0  0
 15 16  1  0  0  0  0
 16 17  2  0  0  0  0
 17 12  1  0  0  0  0
 17  9  1  0  0  0  0
 19 15  1  0  0  0  0
 20 22  1  0  0  0  0
 21 20  1  0  0  0  0
 23  5  1  0  0  0  0
 23 24  1  0  0  0  0
 24 25  1  0  0  0  0
 24 27  1  0  0  0  0
 26 24  1  0  0  0  0
 28 29  1  0  0  0  0
 28 23  1  0  0  0  0
 30 28  1  0  0  0  0
 31 28  1  0  0  0  0
 32 23  1  0  0  0  0
 32 34  1  0  0  0  0
 32 33  1  0  0  0  0
 35 32  1  0  0  0  0
 36 35  1  0  0  0  0
 37 36  2  0  0  0  0
 38 40  1  0  0  0  0
 38 37  1  0  0  0  0
 39 38  2  0  0  0  0
 40 41  1  0  0  0  0
 41 42  2  0  0  0  0
 41 35  1  0  0  0  0
 43 40  1  0  0  0  0
M  END
>  <minimizedAffinity>
-5.11914015

>  <minimizedRMSD>
2.33764744

$$$$
