
 OpenBabel03252512033D

 31 32  0  0  0  0  0  0  0  0999 V2000
   38.3530   32.4560   49.2530 C   0  0  0  0  0  0  0  0  0  0  0  0
   39.2360   33.0710   49.6020 H   0  0  0  0  0  0  0  0  0  0  0  0
   37.5030   33.1230   49.3180 H   0  0  0  0  0  0  0  0  0  0  0  0
   38.7350   32.0720   47.8520 C   0  0  0  0  0  0  0  0  0  0  0  0
   38.5600   30.8030   47.3830 C   0  0  0  0  0  0  0  0  0  0  0  0
   38.9260   30.4590   46.0950 C   0  0  0  0  0  0  0  0  0  0  0  0
   39.4660   31.4390   45.3170 N   0  0  0  0  0  0  0  0  0  0  0  0
   39.6360   32.6730   45.7730 C   0  0  0  0  0  0  0  0  0  0  0  0
   39.2820   33.0270   47.0340 N   0  0  0  0  0  0  0  0  0  0  0  0
   38.1410   30.0190   47.9580 H   0  0  0  0  0  0  0  0  0  0  0  0
   38.7950   29.4600   45.7110 H   0  0  0  0  0  0  0  0  0  0  0  0
   40.2230   33.7300   44.9080 C   0  0  0  0  0  0  0  0  0  0  0  0
   41.3010   33.8640   45.0250 H   0  0  0  0  0  0  0  0  0  0  0  0
   39.7220   34.7100   45.1630 H   0  0  0  0  0  0  0  0  0  0  0  0
   39.8090   33.5010   43.4430 C   0  0  0  0  0  0  0  0  0  0  0  0
   40.0030   34.3950   42.8530 H   0  0  0  0  0  0  0  0  0  0  0  0
   40.4000   32.5990   43.1440 H   0  0  0  0  0  0  0  0  0  0  0  0
   38.7210   33.2300   43.4980 H   0  0  0  0  0  0  0  0  0  0  0  0
   38.2650   31.1670   50.0120 C   0  0  0  0  0  0  0  0  0  0  0  0
   38.3680   31.4830   51.1000 H   0  0  0  0  0  0  0  0  0  0  0  0
   39.1930   30.5620   49.8540 H   0  0  0  0  0  0  0  0  0  0  0  0
   36.9060   29.1410   49.9370 C   0  0  0  0  0  0  0  0  0  0  0  0
   37.0120   30.5230   49.8690 C   0  0  0  0  0  0  0  0  0  0  0  0
   35.8630   31.2320   49.6780 C   0  0  0  0  0  0  0  0  0  0  0  0
   34.6490   30.6000   49.5570 N   0  0  0  0  0  0  0  0  0  0  0  0
   34.5690   29.2620   49.6250 C   0  0  0  0  0  0  0  0  0  0  0  0
   35.6850   28.5590   49.8120 N   0  0  0  0  0  0  0  0  0  0  0  0
   37.7960   28.5380   50.0880 H   0  0  0  0  0  0  0  0  0  0  0  0
   35.7180   32.2950   49.5890 H   0  0  0  0  0  0  0  0  0  0  0  0
   33.2600   28.5550   49.4970 C   0  0  0  0  0  0  0  0  0  0  0  0
   32.6400   29.0270   48.6960 H   0  0  0  0  0  0  0  0  0  0  0  0
  1  3  1  0  0  0  0
  1  2  1  0  0  0  0
  1 19  1  0  0  0  0
  4  1  1  0  0  0  0
  5  4  1  0  0  0  0
  5 10  1  0  0  0  0
  6  5  2  0  0  0  0
  7  8  2  0  0  0  0
  7  6  1  0  0  0  0
  8  9  1  0  0  0  0
  9  4  2  0  0  0  0
 11  6  1  0  0  0  0
 12 13  1  0  0  0  0
 12 14  1  0  0  0  0
 12  8  1  0  0  0  0
 15 18  1  0  0  0  0
 15 12  1  0  0  0  0
 16 15  1  0  0  0  0
 17 15  1  0  0  0  0
 19 20  1  0  0  0  0
 21 19  1  0  0  0  0
 22 28  1  0  0  0  0
 23 22  1  0  0  0  0
 23 19  1  0  0  0  0
 24 23  2  0  0  0  0
 25 26  2  0  0  0  0
 25 24  1  0  0  0  0
 26 27  1  0  0  0  0
 27 22  2  0  0  0  0
 29 24  1  0  0  0  0
 30 26  1  0  0  0  0
 31 30  1  0  0  0  0
M  END
>  <minimizedAffinity>
-5.07299471

>  <minimizedRMSD>
0.648065388

$$$$
