
 OpenBabel03252514073D

 43 46  0  0  0  0  0  0  0  0999 V2000
   34.2740   30.0900   47.6010 C   0  0  0  0  0  0  0  0  0  0  0  0
   35.2950   29.8520   48.5550 C   0  0  0  0  0  0  0  0  0  0  0  0
   35.2670   28.6280   49.2050 C   0  0  0  0  0  0  0  0  0  0  0  0
   34.2960   27.7320   48.9140 N   0  0  0  0  0  0  0  0  0  0  0  0
   33.3340   27.9770   48.0010 C   0  0  0  0  0  0  0  0  0  0  0  0
   33.3360   29.1440   47.3630 N   0  0  0  0  0  0  0  0  0  0  0  0
   34.2360   31.0230   47.0580 H   0  0  0  0  0  0  0  0  0  0  0  0
   36.0490   28.4720   49.9240 H   0  0  0  0  0  0  0  0  0  0  0  0
   36.2620   30.8760   48.7600 N   0  0  0  0  0  0  0  0  0  0  0  0
   36.3830   31.5840   49.8980 C   0  0  0  0  0  0  0  0  0  0  0  0
   37.3950   32.4700   49.7500 N   0  0  0  0  0  0  0  0  0  0  0  0
   37.8890   32.2920   48.5080 C   0  0  0  0  0  0  0  0  0  0  0  0
   38.9090   32.8880   47.7900 C   0  0  0  0  0  0  0  0  0  0  0  0
   39.2020   32.5140   46.5370 N   0  0  0  0  0  0  0  0  0  0  0  0
   38.5110   31.5320   45.9170 C   0  0  0  0  0  0  0  0  0  0  0  0
   37.5200   30.9540   46.6160 N   0  0  0  0  0  0  0  0  0  0  0  0
   37.1860   31.2920   47.8710 C   0  0  0  0  0  0  0  0  0  0  0  0
   35.7720   31.4620   50.7760 H   0  0  0  0  0  0  0  0  0  0  0  0
   38.7520   31.2370   44.9110 H   0  0  0  0  0  0  0  0  0  0  0  0
   39.6660   33.9240   48.3920 N   0  0  0  0  0  0  0  0  0  0  0  0
   39.4270   34.9380   48.3190 H   0  0  0  0  0  0  0  0  0  0  0  0
   40.5270   33.9090   48.9750 H   0  0  0  0  0  0  0  0  0  0  0  0
   32.2900   26.9800   47.6810 C   0  0  0  0  0  0  0  0  0  0  0  0
   31.1090   27.1700   48.6440 C   0  0  0  0  0  0  0  0  0  0  0  0
   30.9120   28.2610   48.7430 H   0  0  0  0  0  0  0  0  0  0  0  0
   30.1800   26.7310   48.2180 H   0  0  0  0  0  0  0  0  0  0  0  0
   31.3230   26.7470   49.6310 H   0  0  0  0  0  0  0  0  0  0  0  0
   31.6900   27.2740   46.3050 C   0  0  0  0  0  0  0  0  0  0  0  0
   31.2250   28.3050   46.3420 H   0  0  0  0  0  0  0  0  0  0  0  0
   30.8610   26.6100   46.0600 H   0  0  0  0  0  0  0  0  0  0  0  0
   32.4380   27.2390   45.4950 H   0  0  0  0  0  0  0  0  0  0  0  0
   32.7520   25.5770   47.7030 C   0  0  0  0  0  0  0  0  0  0  0  0
   32.2150   25.0690   48.5600 H   0  0  0  0  0  0  0  0  0  0  0  0
   33.8200   25.5890   48.0510 H   0  0  0  0  0  0  0  0  0  0  0  0
   32.5530   24.7650   46.5660 N   0  0  0  0  0  0  0  0  0  0  0  0
   31.4380   24.0690   46.2820 C   0  0  0  0  0  3  0  0  0  0  0  0
   31.2200   23.2710   45.1850 C   0  0  0  0  0  3  0  0  0  0  0  0
   32.2460   23.1550   44.2580 C   0  0  0  0  0  0  0  0  0  0  0  0
   32.0990   22.4440   43.2470 O   0  0  0  0  0  0  0  0  0  0  0  0
   33.3710   23.8290   44.4990 N   0  0  0  0  0  0  0  0  0  0  0  0
   33.5020   24.5900   45.5990 C   0  0  0  0  0  0  0  0  0  0  0  0
   34.6210   25.1600   45.6760 O   0  0  0  0  0  0  0  0  0  0  0  0
   34.1090   23.7180   43.7870 H   0  0  0  0  0  0  0  0  0  0  0  0
  1  2  1  0  0  0  0
  2  9  1  0  0  0  0
  2  3  2  0  0  0  0
  3  8  1  0  0  0  0
  4  3  1  0  0  0  0
  5  4  2  0  0  0  0
  6  1  2  0  0  0  0
  6  5  1  0  0  0  0
  7  1  1  0  0  0  0
  9 10  1  0  0  0  0
 10 18  1  0  0  0  0
 11 10  2  0  0  0  0
 12 11  1  0  0  0  0
 13 20  1  0  0  0  0
 13 12  2  0  0  0  0
 14 13  1  0  0  0  0
 15 14  2  0  0  0  0
 15 16  1  0  0  0  0
 16 17  2  0  0  0  0
 17 12  1  0  0  0  0
 17  9  1  0  0  0  0
 19 15  1  0  0  0  0
 20 22  1  0  0  0  0
 21 20  1  0  0  0  0
 23 32  1  0  0  0  0
 23  5  1  0  0  0  0
 23 24  1  0  0  0  0
 24 25  1  0  0  0  0
 24 27  1  0  0  0  0
 26 24  1  0  0  0  0
 28 29  1  0  0  0  0
 28 23  1  0  0  0  0
 30 28  1  0  0  0  0
 31 28  1  0  0  0  0
 32 34  1  0  0  0  0
 32 33  1  0  0  0  0
 35 32  1  0  0  0  0
 36 35  1  0  0  0  0
 37 36  2  0  0  0  0
 38 40  1  0  0  0  0
 38 37  1  0  0  0  0
 39 38  2  0  0  0  0
 40 41  1  0  0  0  0
 41 42  2  0  0  0  0
 41 35  1  0  0  0  0
 43 40  1  0  0  0  0
M  END
>  <minimizedAffinity>
-5.33066511

>  <minimizedRMSD>
2.07025981

$$$$
