
 OpenBabel03252513303D

 41 44  0  0  0  0  0  0  0  0999 V2000
   31.7160   26.1930   47.5530 C   0  0  0  0  0  0  0  0  0  0  0  0
   31.4220   25.1030   46.8060 C   0  0  0  0  0  0  0  0  0  0  0  0
   32.3720   24.3430   46.1580 C   0  0  0  0  0  0  0  0  0  0  0  0
   33.6820   24.7610   46.3110 C   0  0  0  0  0  0  0  0  0  0  0  0
   34.0100   25.8520   47.0570 C   0  0  0  0  0  0  0  0  0  0  0  0
   33.0330   26.5880   47.6910 C   0  0  0  0  0  0  0  0  0  0  0  0
   30.3890   24.7660   46.6790 H   0  0  0  0  0  0  0  0  0  0  0  0
   32.1330   23.4740   45.5620 H   0  0  0  0  0  0  0  0  0  0  0  0
   34.4960   24.2230   45.8380 H   0  0  0  0  0  0  0  0  0  0  0  0
   35.0330   26.1880   47.1840 H   0  0  0  0  0  0  0  0  0  0  0  0
   29.3840   27.4890   50.0990 C   0  0  0  0  0  0  0  0  0  0  0  0
   28.6970   28.4950   49.4010 C   0  0  0  0  0  0  0  0  0  0  0  0
   29.0570   28.7010   48.0650 C   0  0  0  0  0  0  0  0  0  0  0  0
   30.0480   27.9230   47.5130 N   0  0  0  0  0  0  0  0  0  0  0  0
   30.6730   26.9740   48.2270 C   0  0  0  0  0  0  0  0  0  0  0  0
   30.3320   26.7760   49.4990 N   0  0  0  0  0  0  0  0  0  0  0  0
   29.1170   27.3140   51.1430 H   0  0  0  0  0  0  0  0  0  0  0  0
   28.5850   29.4470   47.4610 H   0  0  0  0  0  0  0  0  0  0  0  0
   27.6330   29.3160   50.0210 C   0  0  0  0  0  0  0  0  0  0  0  0
   28.0500   30.5720   50.3710 F   0  0  0  0  0  0  0  0  0  0  0  0
   27.1220   28.7200   51.1560 F   0  0  0  0  0  0  0  0  0  0  0  0
   26.5720   29.4650   49.1020 F   0  0  0  0  0  0  0  0  0  0  0  0
   33.3320   27.7800   48.5080 C   0  0  0  0  0  0  0  0  0  0  0  0
   32.4160   28.0880   49.0700 H   0  0  0  0  0  0  0  0  0  0  0  0
   34.0390   27.4500   49.2940 H   0  0  0  0  0  0  0  0  0  0  0  0
   33.7720   28.9720   47.7370 C   0  0  0  0  0  0  0  0  0  0  0  0
   33.9240   28.7050   46.6610 H   0  0  0  0  0  0  0  0  0  0  0  0
   33.0020   29.7890   47.7480 H   0  0  0  0  0  0  0  0  0  0  0  0
   35.0180   29.5100   48.2850 C   0  0  0  0  0  0  0  0  0  0  0  0
   35.7440   28.8920   49.2880 C   0  0  0  0  0  0  0  0  0  0  0  0
   36.8550   29.6470   49.5860 C   0  0  0  0  0  0  0  0  0  0  0  0
   36.7630   30.7250   48.7330 N   0  0  0  0  0  0  0  0  0  0  0  0
   35.6860   30.6420   47.9720 N   0  0  0  0  0  0  0  0  0  0  0  0
   35.6440   27.9850   49.8690 H   0  0  0  0  0  0  0  0  0  0  0  0
   37.6780   29.5540   50.2820 H   0  0  0  0  0  0  0  0  0  0  0  0
   37.6810   31.8110   48.6430 C   0  0  0  0  0  0  0  0  0  0  0  0
   37.8260   32.9170   49.6290 C   0  0  0  0  0  0  0  0  0  0  0  0
   39.2130   33.9140   48.8060 S   0  0  0  0  0  0  0  0  0  0  0  0
   39.2780   32.6640   47.3790 C   0  0  0  0  0  0  0  0  0  0  0  0
   40.1320   33.1340   46.7160 H   0  0  0  0  0  0  0  0  0  0  0  0
   38.4990   31.8930   47.6170 N   0  0  0  0  0  0  0  0  0  0  0  0
  1  6  1  0  0  0  0
  1 15  1  0  0  0  0
  2  1  2  0  0  0  0
  3  4  2  0  0  0  0
  3  2  1  0  0  0  0
  4  5  1  0  0  0  0
  5 10  1  0  0  0  0
  5  6  2  0  0  0  0
  6 23  1  0  0  0  0
  7  2  1  0  0  0  0
  8  3  1  0  0  0  0
  9  4  1  0  0  0  0
 11 17  1  0  0  0  0
 12 19  1  0  0  0  0
 12 11  2  0  0  0  0
 13 12  1  0  0  0  0
 14 13  2  0  0  0  0
 14 15  1  0  0  0  0
 15 16  2  0  0  0  0
 16 11  1  0  0  0  0
 18 13  1  0  0  0  0
 19 20  1  0  0  0  0
 19 21  1  0  0  0  0
 22 19  1  0  0  0  0
 23 24  1  0  0  0  0
 23 25  1  0  0  0  0
 26 28  1  0  0  0  0
 26 29  1  0  0  0  0
 26 23  1  0  0  0  0
 27 26  1  0  0  0  0
 29 30  1  0  0  0  0
 30 31  2  0  0  0  0
 30 34  1  0  0  0  0
 31 35  1  0  0  0  0
 32 31  1  0  0  0  0
 33 29  2  0  0  0  0
 33 32  1  0  0  0  0
 36 32  1  0  0  0  0
 36 37  2  0  0  0  0
 38 37  1  0  0  0  0
 39 41  2  0  0  0  0
 39 38  1  0  0  0  0
 40 39  1  0  0  0  0
 41 36  1  0  0  0  0
M  END
>  <minimizedAffinity>
-6.55532265

>  <minimizedRMSD>
0.983634353

$$$$
