
 OpenBabel03252513533D

 37 39  0  0  1  0  0  0  0  0999 V2000
   37.0130   30.5960   46.0830 C   0  0  0  0  0  0  0  0  0  0  0  0
   37.9130   30.4930   46.9610 O   0  0  0  0  0  0  0  0  0  0  0  0
   37.4280   31.2990   44.9080 N   0  0  0  0  0  0  0  0  0  0  0  0
   37.0390   30.6960   43.6440 C   0  0  0  0  0  0  0  0  0  0  0  0
   37.8470   31.2510   42.4940 C   0  0  0  0  0  0  0  0  0  0  0  0
   39.1090   31.5210   42.9820 O   0  0  0  0  0  0  0  0  0  0  0  0
   39.0070   32.7330   43.7030 C   0  0  0  0  0  0  0  0  0  0  0  0
   38.1940   32.5440   44.9510 C   0  0  2  0  0  0  0  0  0  0  0  0
   35.9600   30.8080   43.4480 H   0  0  0  0  0  0  0  0  0  0  0  0
   37.2350   29.6090   43.7270 H   0  0  0  0  0  0  0  0  0  0  0  0
   37.9170   30.4660   41.7120 H   0  0  0  0  0  0  0  0  0  0  0  0
   37.3640   32.1590   42.0850 H   0  0  0  0  0  0  0  0  0  0  0  0
   38.4660   33.4150   43.0050 H   0  0  0  0  0  0  0  0  0  0  0  0
   40.0050   33.1570   43.8900 H   0  0  0  0  0  0  0  0  0  0  0  0
   37.4990   33.3830   45.0610 H   0  0  0  0  0  0  0  0  0  0  0  0
   33.9810   29.1800   47.7950 C   0  0  0  0  0  0  0  0  0  0  0  0
   35.2850   29.7430   47.6070 C   0  0  0  0  0  0  0  0  0  0  0  0
   35.7100   30.0290   46.3180 C   0  0  0  0  0  0  0  0  0  0  0  0
   34.8330   29.7450   45.3090 N   0  0  0  0  0  0  0  0  0  0  0  0
   33.6270   29.2220   45.5120 C   0  0  0  0  0  0  0  0  0  0  0  0
   33.2110   28.9450   46.7350 N   0  0  0  0  0  0  0  0  0  0  0  0
   35.8890   29.9250   48.4660 H   0  0  0  0  0  0  0  0  0  0  0  0
   32.8180   28.9850   44.2800 C   0  0  0  0  0  0  0  0  0  0  0  0
   32.7330   30.1640   43.5340 F   0  0  0  0  0  0  0  0  0  0  0  0
   33.4630   28.0760   43.4760 F   0  0  0  0  0  0  0  0  0  0  0  0
   31.5670   28.4560   44.5580 F   0  0  0  0  0  0  0  0  0  0  0  0
   33.5760   28.9020   49.0930 O   0  0  0  0  0  0  0  0  0  0  0  0
   34.0230   29.5740   50.2140 C   0  0  0  0  0  0  0  0  0  0  0  0
   35.0230   28.9080   50.9090 F   0  0  0  0  0  0  0  0  0  0  0  0
   34.3790   30.8810   49.9980 F   0  0  0  0  0  0  0  0  0  0  0  0
   32.9030   29.6330   51.0760 F   0  0  0  0  0  0  0  0  0  0  0  0
   39.1090   32.3700   45.9810 O   0  0  0  0  0  0  0  0  0  0  0  0
   39.3930   33.0760   47.0290 C   0  0  0  0  0  0  0  0  0  0  0  0
   40.2850   34.1340   47.3020 C   0  0  0  0  0  0  0  0  0  0  0  0
   40.3040   34.6400   48.5700 C   0  0  0  0  0  0  0  0  0  0  0  0
   39.4320   34.0920   49.5690 C   0  0  0  0  0  0  0  0  0  0  0  0
   38.5550   32.7820   48.5950 S   0  0  0  0  0  0  0  0  0  0  0  0
  1 18  1  0  0  0  0
  1  2  2  0  0  0  0
  3  8  1  0  0  0  0
  3  1  1  0  0  0  0
  4 10  1  0  0  0  0
  4  3  1  0  0  0  0
  5  6  1  0  0  0  0
  5  4  1  0  0  0  0
  6  7  1  0  0  0  0
  7 14  1  0  0  0  0
  7  8  1  0  0  0  0
  8 15  1  1  0  0  0
  8 32  1  0  0  0  0
  9  4  1  0  0  0  0
 11  5  1  0  0  0  0
 12  5  1  0  0  0  0
 13  7  1  0  0  0  0
 16 27  1  0  0  0  0
 17 16  1  0  0  0  0
 17 22  1  0  0  0  0
 18 17  2  0  0  0  0
 19 20  2  0  0  0  0
 19 18  1  0  0  0  0
 20 21  1  0  0  0  0
 21 16  2  0  0  0  0
 23 26  1  0  0  0  0
 23 20  1  0  0  0  0
 24 23  1  0  0  0  0
 25 23  1  0  0  0  0
 27 28  1  0  0  0  0
 28 29  1  0  0  0  0
 28 31  1  0  0  0  0
 30 28  1  0  0  0  0
 32 33  1  0  0  0  0
 33 34  2  0  0  0  0
 33 37  1  0  0  0  0
 34 35  1  0  0  0  0
 35 36  2  0  0  0  0
 37 36  1  0  0  0  0
M  END
>  <minimizedAffinity>
-5.15308952

>  <minimizedRMSD>
1.74802279

$$$$
