
 OpenBabel03252511033D

 36 39  0  0  0  0  0  0  0  0999 V2000
   39.2950   31.8590   45.6630 C   0  0  0  0  0  0  0  0  0  0  0  0
   40.5670   31.2970   45.4790 C   0  0  0  0  0  0  0  0  0  0  0  0
   40.8290   31.2580   44.1140 C   0  0  0  0  0  0  0  0  0  0  0  0
   39.6940   31.8040   43.5360 C   0  0  0  0  0  0  0  0  0  0  0  0
   38.8380   32.1340   44.4850 O   0  0  0  0  0  0  0  0  0  0  0  0
   41.2410   30.9490   46.2510 H   0  0  0  0  0  0  0  0  0  0  0  0
   41.7040   30.8930   43.6200 H   0  0  0  0  0  0  0  0  0  0  0  0
   37.1770   31.3810   48.5800 C   0  0  0  0  0  0  0  0  0  0  0  0
   37.5750   32.4230   49.4550 C   0  0  0  0  0  0  0  0  0  0  0  0
   38.5830   33.2780   49.0040 C   0  0  0  0  0  0  0  0  0  0  0  0
   39.1160   33.0540   47.7560 N   0  0  0  0  0  0  0  0  0  0  0  0
   38.7010   32.0520   46.9700 C   0  0  0  0  0  0  0  0  0  0  0  0
   37.7180   31.1950   47.3730 N   0  0  0  0  0  0  0  0  0  0  0  0
   37.1040   32.5300   50.4250 H   0  0  0  0  0  0  0  0  0  0  0  0
   38.9190   34.0770   49.6220 H   0  0  0  0  0  0  0  0  0  0  0  0
   36.1310   30.4990   49.0570 C   0  0  0  0  0  0  0  0  0  0  0  0
   34.9320   30.7260   48.7570 O   0  0  0  0  0  0  0  0  0  0  0  0
   36.4640   29.3930   49.8540 O   0  0  0  0  0  0  0  0  0  0  0  0
   36.5070   29.4470   51.2450 C   0  0  0  0  0  0  0  0  0  0  0  0
   37.6810   29.7370   51.9660 N   0  0  0  0  0  0  0  0  0  0  0  0
   35.4000   29.2100   51.7790 O   0  0  0  0  0  0  0  0  0  0  0  0
   38.6050   29.2240   51.9400 H   0  0  0  0  0  0  0  0  0  0  0  0
   37.7640   30.5460   52.6490 H   0  0  0  0  0  0  0  0  0  0  0  0
   39.4550   31.9940   42.1140 C   0  0  0  0  0  0  0  0  0  0  0  0
   40.0680   31.2900   41.1130 C   0  0  0  0  0  0  0  0  0  0  0  0
   39.5500   31.7930   39.9450 C   0  0  0  0  0  0  0  0  0  0  0  0
   38.6600   32.7620   40.2260 N   0  0  0  0  0  0  0  0  0  0  0  0
   38.6150   32.8700   41.5390 N   0  0  0  0  0  0  0  0  0  0  0  0
   40.7960   30.5090   41.1540 H   0  0  0  0  0  0  0  0  0  0  0  0
   39.7220   31.5600   38.9040 H   0  0  0  0  0  0  0  0  0  0  0  0
   37.8070   33.6440   39.4870 C   0  0  0  0  0  0  0  0  0  0  0  0
   36.5350   33.6240   40.0710 C   0  0  0  0  0  0  0  0  0  0  0  0
   35.5330   34.8270   38.9920 S   0  0  0  0  0  0  0  0  0  0  0  0
   37.1170   35.1070   37.9420 C   0  0  0  0  0  0  0  0  0  0  0  0
   37.6160   35.6830   36.9980 H   0  0  0  0  0  0  0  0  0  0  0  0
   37.8670   34.4460   38.4480 N   0  0  0  0  0  0  0  0  0  0  0  0
  1 12  1  0  0  0  0
  2  1  2  0  0  0  0
  2  6  1  0  0  0  0
  3  2  1  0  0  0  0
  4  3  2  0  0  0  0
  4  5  1  0  0  0  0
  5  1  1  0  0  0  0
  7  3  1  0  0  0  0
  8 16  1  0  0  0  0
  8  9  1  0  0  0  0
  9 14  1  0  0  0  0
 10  9  2  0  0  0  0
 10 15  1  0  0  0  0
 11 10  1  0  0  0  0
 12 13  1  0  0  0  0
 12 11  2  0  0  0  0
 13  8  2  0  0  0  0
 16 18  1  0  0  0  0
 17 16  2  0  0  0  0
 18 19  1  0  0  0  0
 19 21  2  0  0  0  0
 19 20  1  0  0  0  0
 20 23  1  0  0  0  0
 22 20  1  0  0  0  0
 24  4  1  0  0  0  0
 25 29  1  0  0  0  0
 25 24  1  0  0  0  0
 26 27  1  0  0  0  0
 26 25  2  0  0  0  0
 27 28  1  0  0  0  0
 28 24  2  0  0  0  0
 30 26  1  0  0  0  0
 31 32  2  0  0  0  0
 31 27  1  0  0  0  0
 33 32  1  0  0  0  0
 34 36  2  0  0  0  0
 34 33  1  0  0  0  0
 35 34  1  0  0  0  0
 36 31  1  0  0  0  0
M  END
>  <minimizedAffinity>
-5.90899229

>  <minimizedRMSD>
0.930944085

$$$$
