
 OpenBabel03252513263D

 37 39  0  0  0  0  0  0  0  0999 V2000
   31.7780   26.3250   47.5100 C   0  0  0  0  0  0  0  0  0  0  0  0
   31.5170   25.1550   46.8500 C   0  0  0  0  0  0  0  0  0  0  0  0
   32.4800   24.4250   46.1680 C   0  0  0  0  0  0  0  0  0  0  0  0
   33.7620   24.9440   46.1800 C   0  0  0  0  0  0  0  0  0  0  0  0
   34.0610   26.1110   46.8290 C   0  0  0  0  0  0  0  0  0  0  0  0
   33.0710   26.8120   47.5010 C   0  0  0  0  0  0  0  0  0  0  0  0
   30.5070   24.7570   46.8460 H   0  0  0  0  0  0  0  0  0  0  0  0
   32.2610   23.5010   45.6490 H   0  0  0  0  0  0  0  0  0  0  0  0
   34.5550   24.4160   45.6630 H   0  0  0  0  0  0  0  0  0  0  0  0
   35.0450   26.5050   46.8360 H   0  0  0  0  0  0  0  0  0  0  0  0
   29.5000   27.5690   50.1020 C   0  0  0  0  0  0  0  0  0  0  0  0
   28.7430   28.5260   49.4080 C   0  0  0  0  0  0  0  0  0  0  0  0
   29.0420   28.7130   48.0660 C   0  0  0  0  0  0  0  0  0  0  0  0
   30.0420   27.9700   47.4910 N   0  0  0  0  0  0  0  0  0  0  0  0
   30.7460   27.0550   48.2100 C   0  0  0  0  0  0  0  0  0  0  0  0
   30.4610   26.8790   49.4830 N   0  0  0  0  0  0  0  0  0  0  0  0
   29.2680   27.4210   51.1520 H   0  0  0  0  0  0  0  0  0  0  0  0
   28.4870   29.4430   47.4740 H   0  0  0  0  0  0  0  0  0  0  0  0
   27.6660   29.3170   50.0540 C   0  0  0  0  0  0  0  0  0  0  0  0
   28.0290   30.5980   50.3300 F   0  0  0  0  0  0  0  0  0  0  0  0
   27.2320   28.7370   51.2250 F   0  0  0  0  0  0  0  0  0  0  0  0
   26.5640   29.3940   49.1770 F   0  0  0  0  0  0  0  0  0  0  0  0
   33.3430   28.0550   48.2040 C   0  0  0  0  0  0  0  0  0  0  0  0
   32.3980   28.4220   48.6980 H   0  0  0  0  0  0  0  0  0  0  0  0
   33.5970   28.8360   47.4580 H   0  0  0  0  0  0  0  0  0  0  0  0
   34.3690   27.9900   49.3050 C   0  0  0  0  0  0  0  0  0  0  0  0
   33.8860   28.1620   50.2890 H   0  0  0  0  0  0  0  0  0  0  0  0
   34.9510   27.0760   49.3620 H   0  0  0  0  0  0  0  0  0  0  0  0
   35.2300   29.1680   49.1110 N   0  0  0  0  0  0  0  0  0  0  0  0
   35.5610   29.7540   47.9460 C   0  0  0  0  0  0  0  0  0  0  0  0
   36.3760   30.8430   47.9570 C   0  0  0  0  0  0  0  0  0  0  0  0
   36.9010   31.4070   49.1010 C   0  0  0  0  0  0  0  0  0  0  0  0
   37.6480   32.4090   49.0910 O   0  0  0  0  0  0  0  0  0  0  0  0
   36.5490   30.7930   50.2480 N   0  0  0  0  0  0  0  0  0  0  0  0
   35.7420   29.7130   50.2470 C   0  0  0  0  0  0  0  0  0  0  0  0
   35.4690   29.2070   51.3780 O   0  0  0  0  0  0  0  0  0  0  0  0
   36.9110   31.1670   51.1540 H   0  0  0  0  0  0  0  0  0  0  0  0
  1 15  1  0  0  0  0
  2  1  2  0  0  0  0
  3  4  2  0  0  0  0
  3  2  1  0  0  0  0
  4  5  1  0  0  0  0
  5 10  1  0  0  0  0
  5  6  2  0  0  0  0
  6  1  1  0  0  0  0
  6 23  1  0  0  0  0
  7  2  1  0  0  0  0
  8  3  1  0  0  0  0
  9  4  1  0  0  0  0
 11 17  1  0  0  0  0
 12 19  1  0  0  0  0
 12 11  2  0  0  0  0
 13 12  1  0  0  0  0
 14 13  2  0  0  0  0
 14 15  1  0  0  0  0
 15 16  2  0  0  0  0
 16 11  1  0  0  0  0
 18 13  1  0  0  0  0
 19 20  1  0  0  0  0
 19 21  1  0  0  0  0
 22 19  1  0  0  0  0
 23 24  1  0  0  0  0
 23 26  1  0  0  0  0
 25 23  1  0  0  0  0
 26 28  1  0  0  0  0
 26 27  1  0  0  0  0
 29 26  1  0  0  0  0
 29 35  1  0  0  0  0
 30 31  2  0  0  0  0
 30 29  1  0  0  0  0
 31 32  1  0  0  0  0
 32 34  1  0  0  0  0
 33 32  2  0  0  0  0
 34 37  1  0  0  0  0
 35 34  1  0  0  0  0
 35 36  2  0  0  0  0
M  END
>  <minimizedAffinity>
-6.28952169

>  <minimizedRMSD>
6.97185516

$$$$
