
 OpenBabel03252511213D

 43 46  0  0  1  0  0  0  0  0999 V2000
   38.7230   31.7810   48.0830 C   0  0  1  0  0  0  0  0  0  0  0  0
   39.7820   31.6740   48.5590 H   0  0  0  0  0  0  0  0  0  0  0  0
   37.9000   31.0020   48.9940 C   0  0  0  0  0  0  0  0  0  0  0  0
   38.3080   30.8010   50.2400 N   0  0  0  0  0  0  0  0  0  0  0  0
   37.5900   30.0780   51.1220 C   0  0  0  0  0  0  0  0  0  0  0  0
   36.4340   29.5110   50.8330 N   0  0  0  0  0  0  0  0  0  0  0  0
   35.8980   29.6380   49.5950 C   0  0  0  0  0  0  0  0  0  0  0  0
   34.7220   29.0620   49.2710 C   0  0  0  0  0  0  0  0  0  0  0  0
   34.1960   29.1880   48.0280 C   0  0  0  0  0  0  0  0  0  0  0  0
   34.9310   29.9380   47.1240 C   0  0  0  0  0  0  0  0  0  0  0  0
   36.1250   30.5090   47.4980 C   0  0  0  0  0  0  0  0  0  0  0  0
   36.6650   30.3870   48.7290 C   0  0  0  0  0  0  0  0  0  0  0  0
   37.9370   29.9100   52.1730 H   0  0  0  0  0  0  0  0  0  0  0  0
   34.1880   28.4870   50.0210 H   0  0  0  0  0  0  0  0  0  0  0  0
   33.2640   28.7580   47.6910 H   0  0  0  0  0  0  0  0  0  0  0  0
   34.5500   30.0720   46.1070 H   0  0  0  0  0  0  0  0  0  0  0  0
   36.6200   31.1160   46.7550 H   0  0  0  0  0  0  0  0  0  0  0  0
   39.1150   31.6000   46.7180 C   0  0  0  0  0  0  0  0  0  0  0  0
   39.9190   32.6890   46.2930 C   0  0  0  0  0  0  0  0  0  0  0  0
   40.5150   32.6530   44.9890 C   0  0  0  0  0  0  0  0  0  0  0  0
   40.2640   31.5820   44.2640 N   0  0  0  0  0  0  0  0  0  0  0  0
   39.4770   30.5420   44.7030 C   0  0  0  0  0  0  0  0  0  0  0  0
   38.9290   30.5720   45.8970 N   0  0  0  0  0  0  0  0  0  0  0  0
   40.2630   33.6220   46.6960 H   0  0  0  0  0  0  0  0  0  0  0  0
   41.1300   33.3730   44.5300 H   0  0  0  0  0  0  0  0  0  0  0  0
   39.1910   29.3440   43.8520 C   0  0  0  0  0  0  0  0  0  0  0  0
   38.0970   29.1880   43.7670 H   0  0  0  0  0  0  0  0  0  0  0  0
   39.6430   28.4620   44.3580 H   0  0  0  0  0  0  0  0  0  0  0  0
   39.7510   29.4750   42.5200 N   0  0  0  0  0  0  0  0  0  0  0  0
   41.0200   29.0200   42.3540 C   0  0  0  0  0  0  0  0  0  0  0  0
   41.6230   29.1110   41.1150 C   0  0  0  0  0  0  0  0  0  0  0  0
   40.9180   29.6660   40.0640 C   0  0  0  0  0  0  0  0  0  0  0  0
   41.3960   29.7850   38.9030 O   0  0  0  0  0  0  0  0  0  0  0  0
   39.6740   30.1040   40.2640 N   0  0  0  0  0  0  0  0  0  0  0  0
   39.1050   30.0080   41.4710 C   0  0  0  0  0  0  0  0  0  0  0  0
   37.9520   30.4050   41.6920 O   0  0  0  0  0  0  0  0  0  0  0  0
   39.1160   30.5330   39.4710 H   0  0  0  0  0  0  0  0  0  0  0  0
   38.4260   33.0640   48.5050 O   0  0  0  0  0  0  0  0  0  0  0  0
   39.2280   34.0020   49.1180 C   0  0  0  0  0  0  0  0  0  0  0  0
   39.7090   35.1860   48.4120 N   0  0  0  0  0  0  0  0  0  0  0  0
   39.5810   33.8780   50.3180 O   0  0  0  0  0  0  0  0  0  0  0  0
   39.1820   35.7550   47.6960 H   0  0  0  0  0  0  0  0  0  0  0  0
   40.6590   35.5610   48.5830 H   0  0  0  0  0  0  0  0  0  0  0  0
  1 38  1  0  0  0  0
  1  2  1  1  0  0  0
  1  3  1  0  0  0  0
  3  4  1  0  0  0  0
  4  5  2  0  0  0  0
  5 13  1  0  0  0  0
  6  5  1  0  0  0  0
  7  6  2  0  0  0  0
  8  7  1  0  0  0  0
  8 14  1  0  0  0  0
  9  8  2  0  0  0  0
 10 11  2  0  0  0  0
 10  9  1  0  0  0  0
 11 12  1  0  0  0  0
 12  3  2  0  0  0  0
 12  7  1  0  0  0  0
 15  9  1  0  0  0  0
 16 10  1  0  0  0  0
 17 11  1  0  0  0  0
 18  1  1  0  0  0  0
 19 24  1  0  0  0  0
 19 18  1  0  0  0  0
 20 19  2  0  0  0  0
 21 22  2  0  0  0  0
 21 20  1  0  0  0  0
 22 23  1  0  0  0  0
 23 18  2  0  0  0  0
 25 20  1  0  0  0  0
 26 28  1  0  0  0  0
 26 22  1  0  0  0  0
 27 26  1  0  0  0  0
 29 26  1  0  0  0  0
 30 29  1  0  0  0  0
 31 30  2  0  0  0  0
 32 34  1  0  0  0  0
 32 31  1  0  0  0  0
 33 32  2  0  0  0  0
 34 35  1  0  0  0  0
 35 36  2  0  0  0  0
 35 29  1  0  0  0  0
 37 34  1  0  0  0  0
 38 39  1  0  0  0  0
 39 41  2  0  0  0  0
 40 43  1  0  0  0  0
 40 39  1  0  0  0  0
 42 40  1  0  0  0  0
M  END
>  <minimizedAffinity>
-7.29475498

>  <minimizedRMSD>
2.32581043

$$$$
