
 OpenBabel03252514073D

 43 46  0  0  0  0  0  0  0  0999 V2000
   33.8340   29.8210   47.2710 C   0  0  0  0  0  0  0  0  0  0  0  0
   34.8390   29.5590   48.2350 C   0  0  0  0  0  0  0  0  0  0  0  0
   34.6860   28.4110   48.9970 C   0  0  0  0  0  0  0  0  0  0  0  0
   33.6170   27.6060   48.7970 N   0  0  0  0  0  0  0  0  0  0  0  0
   32.6720   27.8720   47.8730 C   0  0  0  0  0  0  0  0  0  0  0  0
   32.7930   28.9680   47.1280 N   0  0  0  0  0  0  0  0  0  0  0  0
   33.8900   30.6990   46.6430 H   0  0  0  0  0  0  0  0  0  0  0  0
   35.4590   28.2350   49.7210 H   0  0  0  0  0  0  0  0  0  0  0  0
   35.9160   30.4830   48.3370 N   0  0  0  0  0  0  0  0  0  0  0  0
   36.2790   31.0980   49.4780 C   0  0  0  0  0  0  0  0  0  0  0  0
   37.3330   31.9060   49.2170 N   0  0  0  0  0  0  0  0  0  0  0  0
   37.6080   31.7730   47.9030 C   0  0  0  0  0  0  0  0  0  0  0  0
   38.5530   32.3320   47.0620 C   0  0  0  0  0  0  0  0  0  0  0  0
   38.6100   32.0220   45.7600 N   0  0  0  0  0  0  0  0  0  0  0  0
   37.7420   31.1470   45.2070 C   0  0  0  0  0  0  0  0  0  0  0  0
   36.8240   30.6060   46.0250 N   0  0  0  0  0  0  0  0  0  0  0  0
   36.7240   30.8820   47.3340 C   0  0  0  0  0  0  0  0  0  0  0  0
   35.8050   30.9660   50.4350 H   0  0  0  0  0  0  0  0  0  0  0  0
   37.7940   30.9040   44.1600 H   0  0  0  0  0  0  0  0  0  0  0  0
   39.4880   33.2570   47.5900 N   0  0  0  0  0  0  0  0  0  0  0  0
   39.3360   34.2900   47.6130 H   0  0  0  0  0  0  0  0  0  0  0  0
   40.4250   33.1310   48.0240 H   0  0  0  0  0  0  0  0  0  0  0  0
   31.5190   26.9730   47.6540 C   0  0  0  0  0  0  0  0  0  0  0  0
   30.6770   26.9230   48.9370 C   0  0  0  0  0  0  0  0  0  0  0  0
   30.5870   27.9600   49.3350 H   0  0  0  0  0  0  0  0  0  0  0  0
   29.6390   26.5920   48.7140 H   0  0  0  0  0  0  0  0  0  0  0  0
   31.1370   26.2800   49.6950 H   0  0  0  0  0  0  0  0  0  0  0  0
   30.5700   27.5810   46.6190 C   0  0  0  0  0  0  0  0  0  0  0  0
   30.2030   28.5710   47.0250 H   0  0  0  0  0  0  0  0  0  0  0  0
   29.6660   26.9880   46.4830 H   0  0  0  0  0  0  0  0  0  0  0  0
   31.0520   27.7420   45.6400 H   0  0  0  0  0  0  0  0  0  0  0  0
   31.8770   25.6070   47.2200 C   0  0  0  0  0  0  0  0  0  0  0  0
   30.9580   25.1690   46.7280 H   0  0  0  0  0  0  0  0  0  0  0  0
   31.9830   24.9850   48.1490 H   0  0  0  0  0  0  0  0  0  0  0  0
   32.9440   25.4280   46.3130 N   0  0  0  0  0  0  0  0  0  0  0  0
   33.0200   25.9480   45.0760 C   0  0  0  0  0  3  0  0  0  0  0  0
   34.0440   25.7860   44.1740 C   0  0  0  0  0  3  0  0  0  0  0  0
   35.1240   25.0060   44.5590 C   0  0  0  0  0  0  0  0  0  0  0  0
   36.0770   24.8280   43.7780 O   0  0  0  0  0  0  0  0  0  0  0  0
   35.0920   24.4690   45.7800 N   0  0  0  0  0  0  0  0  0  0  0  0
   34.0500   24.6790   46.6020 C   0  0  0  0  0  0  0  0  0  0  0  0
   34.1760   24.1050   47.7140 O   0  0  0  0  0  0  0  0  0  0  0  0
   35.9130   23.8970   46.0280 H   0  0  0  0  0  0  0  0  0  0  0  0
  1  2  1  0  0  0  0
  2  9  1  0  0  0  0
  2  3  2  0  0  0  0
  3  8  1  0  0  0  0
  4  3  1  0  0  0  0
  5  4  2  0  0  0  0
  6  1  2  0  0  0  0
  6  5  1  0  0  0  0
  7  1  1  0  0  0  0
  9 10  1  0  0  0  0
 10 18  1  0  0  0  0
 11 10  2  0  0  0  0
 12 11  1  0  0  0  0
 13 20  1  0  0  0  0
 13 12  2  0  0  0  0
 14 13  1  0  0  0  0
 15 14  2  0  0  0  0
 15 16  1  0  0  0  0
 16 17  2  0  0  0  0
 17 12  1  0  0  0  0
 17  9  1  0  0  0  0
 19 15  1  0  0  0  0
 20 21  1  0  0  0  0
 20 22  1  0  0  0  0
 23  5  1  0  0  0  0
 23 24  1  0  0  0  0
 24 25  1  0  0  0  0
 24 27  1  0  0  0  0
 26 24  1  0  0  0  0
 28 29  1  0  0  0  0
 28 23  1  0  0  0  0
 30 28  1  0  0  0  0
 31 28  1  0  0  0  0
 32 23  1  0  0  0  0
 32 34  1  0  0  0  0
 33 32  1  0  0  0  0
 35 41  1  0  0  0  0
 35 32  1  0  0  0  0
 36 35  1  0  0  0  0
 37 38  1  0  0  0  0
 37 36  2  0  0  0  0
 38 40  1  0  0  0  0
 39 38  2  0  0  0  0
 40 43  1  0  0  0  0
 40 41  1  0  0  0  0
 41 42  2  0  0  0  0
M  END
>  <minimizedAffinity>
-5.30171871

>  <minimizedRMSD>
1.31629622

$$$$
