
 OpenBabel03252514073D

 43 46  0  0  0  0  0  0  0  0999 V2000
   34.2130   30.0710   47.5920 C   0  0  0  0  0  0  0  0  0  0  0  0
   35.2380   29.8120   48.5360 C   0  0  0  0  0  0  0  0  0  0  0  0
   35.1950   28.5860   49.1810 C   0  0  0  0  0  0  0  0  0  0  0  0
   34.2050   27.7080   48.8950 N   0  0  0  0  0  0  0  0  0  0  0  0
   33.2390   27.9740   47.9930 C   0  0  0  0  0  0  0  0  0  0  0  0
   33.2560   29.1430   47.3590 N   0  0  0  0  0  0  0  0  0  0  0  0
   34.1860   31.0070   47.0530 H   0  0  0  0  0  0  0  0  0  0  0  0
   35.9810   28.4130   49.8910 H   0  0  0  0  0  0  0  0  0  0  0  0
   36.2250   30.8180   48.7350 N   0  0  0  0  0  0  0  0  0  0  0  0
   36.4030   31.4810   49.8920 C   0  0  0  0  0  0  0  0  0  0  0  0
   37.4180   32.3620   49.7320 N   0  0  0  0  0  0  0  0  0  0  0  0
   37.8550   32.2260   48.4640 C   0  0  0  0  0  0  0  0  0  0  0  0
   38.8500   32.8380   47.7240 C   0  0  0  0  0  0  0  0  0  0  0  0
   39.0830   32.5080   46.4470 N   0  0  0  0  0  0  0  0  0  0  0  0
   38.3540   31.5580   45.8220 C   0  0  0  0  0  0  0  0  0  0  0  0
   37.3890   30.9640   46.5420 N   0  0  0  0  0  0  0  0  0  0  0  0
   37.1140   31.2570   47.8220 C   0  0  0  0  0  0  0  0  0  0  0  0
   35.8300   31.3320   50.7910 H   0  0  0  0  0  0  0  0  0  0  0  0
   38.5480   31.2980   44.7950 H   0  0  0  0  0  0  0  0  0  0  0  0
   39.6440   33.8430   48.3300 N   0  0  0  0  0  0  0  0  0  0  0  0
   39.4140   34.8620   48.3050 H   0  0  0  0  0  0  0  0  0  0  0  0
   40.5300   33.7980   48.8730 H   0  0  0  0  0  0  0  0  0  0  0  0
   32.1740   26.9960   47.6780 C   0  0  0  0  0  0  0  0  0  0  0  0
   30.9700   27.2610   48.5930 C   0  0  0  0  0  0  0  0  0  0  0  0
   30.8050   28.3620   48.6420 H   0  0  0  0  0  0  0  0  0  0  0  0
   30.0420   26.8340   48.1550 H   0  0  0  0  0  0  0  0  0  0  0  0
   31.1400   26.8730   49.6030 H   0  0  0  0  0  0  0  0  0  0  0  0
   31.6280   27.2520   46.2720 C   0  0  0  0  0  0  0  0  0  0  0  0
   31.1960   28.2970   46.2530 H   0  0  0  0  0  0  0  0  0  0  0  0
   30.7870   26.6030   46.0270 H   0  0  0  0  0  0  0  0  0  0  0  0
   32.4000   27.1610   45.4900 H   0  0  0  0  0  0  0  0  0  0  0  0
   32.5910   25.5820   47.7720 C   0  0  0  0  0  0  0  0  0  0  0  0
   31.6690   24.9870   48.0480 H   0  0  0  0  0  0  0  0  0  0  0  0
   33.2310   25.4890   48.6910 H   0  0  0  0  0  0  0  0  0  0  0  0
   33.1540   24.9510   46.6430 N   0  0  0  0  0  0  0  0  0  0  0  0
   34.3880   25.1670   46.1540 C   0  0  0  0  0  3  0  0  0  0  0  0
   34.9570   24.5690   45.0560 C   0  0  0  0  0  3  0  0  0  0  0  0
   34.1960   23.6400   44.3600 C   0  0  0  0  0  0  0  0  0  0  0  0
   34.6660   23.0710   43.3590 O   0  0  0  0  0  0  0  0  0  0  0  0
   32.9650   23.3930   44.8100 N   0  0  0  0  0  0  0  0  0  0  0  0
   32.4830   24.0230   45.8960 C   0  0  0  0  0  0  0  0  0  0  0  0
   31.3100   23.6770   46.1870 O   0  0  0  0  0  0  0  0  0  0  0  0
   32.4320   22.6980   44.2670 H   0  0  0  0  0  0  0  0  0  0  0  0
  1  2  1  0  0  0  0
  2  9  1  0  0  0  0
  2  3  2  0  0  0  0
  3  8  1  0  0  0  0
  4  3  1  0  0  0  0
  5  4  2  0  0  0  0
  6  1  2  0  0  0  0
  6  5  1  0  0  0  0
  7  1  1  0  0  0  0
  9 10  1  0  0  0  0
 10 18  1  0  0  0  0
 11 10  2  0  0  0  0
 12 11  1  0  0  0  0
 13 20  1  0  0  0  0
 13 12  2  0  0  0  0
 14 13  1  0  0  0  0
 15 14  2  0  0  0  0
 15 16  1  0  0  0  0
 16 17  2  0  0  0  0
 17 12  1  0  0  0  0
 17  9  1  0  0  0  0
 19 15  1  0  0  0  0
 20 22  1  0  0  0  0
 21 20  1  0  0  0  0
 23 32  1  0  0  0  0
 23  5  1  0  0  0  0
 23 24  1  0  0  0  0
 24 25  1  0  0  0  0
 24 27  1  0  0  0  0
 26 24  1  0  0  0  0
 28 23  1  0  0  0  0
 29 28  1  0  0  0  0
 30 28  1  0  0  0  0
 31 28  1  0  0  0  0
 32 33  1  0  0  0  0
 32 34  1  0  0  0  0
 35 32  1  0  0  0  0
 36 35  1  0  0  0  0
 37 36  2  0  0  0  0
 38 40  1  0  0  0  0
 38 37  1  0  0  0  0
 39 38  2  0  0  0  0
 40 41  1  0  0  0  0
 41 42  2  0  0  0  0
 41 35  1  0  0  0  0
 43 40  1  0  0  0  0
M  END
>  <minimizedAffinity>
-5.40351677

>  <minimizedRMSD>
1.29636264

$$$$
