
 OpenBabel03252514073D

 43 46  0  0  0  0  0  0  0  0999 V2000
   34.1450   30.0450   47.5340 C   0  0  0  0  0  0  0  0  0  0  0  0
   35.1290   29.8190   48.5290 C   0  0  0  0  0  0  0  0  0  0  0  0
   34.9960   28.6670   49.2870 C   0  0  0  0  0  0  0  0  0  0  0  0
   33.9620   27.8240   49.0570 N   0  0  0  0  0  0  0  0  0  0  0  0
   33.0360   28.0560   48.1050 C   0  0  0  0  0  0  0  0  0  0  0  0
   33.1390   29.1550   47.3630 N   0  0  0  0  0  0  0  0  0  0  0  0
   34.1880   30.9240   46.9080 H   0  0  0  0  0  0  0  0  0  0  0  0
   35.7530   28.5190   50.0340 H   0  0  0  0  0  0  0  0  0  0  0  0
   36.1690   30.7810   48.6610 N   0  0  0  0  0  0  0  0  0  0  0  0
   36.4580   31.4290   49.8040 C   0  0  0  0  0  0  0  0  0  0  0  0
   37.4960   32.2680   49.5760 N   0  0  0  0  0  0  0  0  0  0  0  0
   37.8360   32.1210   48.2790 C   0  0  0  0  0  0  0  0  0  0  0  0
   38.8000   32.6950   47.4710 C   0  0  0  0  0  0  0  0  0  0  0  0
   38.9280   32.3630   46.1800 N   0  0  0  0  0  0  0  0  0  0  0  0
   38.1160   31.4490   45.6050 C   0  0  0  0  0  0  0  0  0  0  0  0
   37.1800   30.8920   46.3910 N   0  0  0  0  0  0  0  0  0  0  0  0
   37.0100   31.1890   47.6880 C   0  0  0  0  0  0  0  0  0  0  0  0
   35.9450   31.2990   50.7420 H   0  0  0  0  0  0  0  0  0  0  0  0
   38.2250   31.1880   44.5670 H   0  0  0  0  0  0  0  0  0  0  0  0
   39.6780   33.6620   48.0230 N   0  0  0  0  0  0  0  0  0  0  0  0
   39.4900   34.6890   48.0170 H   0  0  0  0  0  0  0  0  0  0  0  0
   40.5970   33.5750   48.5010 H   0  0  0  0  0  0  0  0  0  0  0  0
   31.9230   27.1160   47.8530 C   0  0  0  0  0  0  0  0  0  0  0  0
   30.7910   27.4080   48.8490 C   0  0  0  0  0  0  0  0  0  0  0  0
   30.6650   28.5130   48.9180 H   0  0  0  0  0  0  0  0  0  0  0  0
   29.8230   27.0150   48.4690 H   0  0  0  0  0  0  0  0  0  0  0  0
   31.0150   27.0040   49.8410 H   0  0  0  0  0  0  0  0  0  0  0  0
   31.2930   27.4040   46.4890 C   0  0  0  0  0  0  0  0  0  0  0  0
   30.8930   28.4620   46.5090 H   0  0  0  0  0  0  0  0  0  0  0  0
   30.4170   26.7850   46.2950 H   0  0  0  0  0  0  0  0  0  0  0  0
   32.0070   27.2980   45.6570 H   0  0  0  0  0  0  0  0  0  0  0  0
   32.2990   25.6880   47.9060 C   0  0  0  0  0  0  0  0  0  0  0  0
   31.3490   25.1070   48.1020 H   0  0  0  0  0  0  0  0  0  0  0  0
   32.8830   25.5380   48.8540 H   0  0  0  0  0  0  0  0  0  0  0  0
   32.9120   25.0930   46.7830 N   0  0  0  0  0  0  0  0  0  0  0  0
   34.1620   25.3320   46.3480 C   0  0  0  0  0  3  0  0  0  0  0  0
   34.7780   24.7690   45.2570 C   0  0  0  0  0  3  0  0  0  0  0  0
   34.0530   23.8530   44.5090 C   0  0  0  0  0  0  0  0  0  0  0  0
   34.5670   23.3160   43.5110 O   0  0  0  0  0  0  0  0  0  0  0  0
   32.8080   23.5830   44.9030 N   0  0  0  0  0  0  0  0  0  0  0  0
   32.2790   24.1810   45.9860 C   0  0  0  0  0  0  0  0  0  0  0  0
   31.1000   23.8160   46.2230 O   0  0  0  0  0  0  0  0  0  0  0  0
   32.3030   22.8990   44.3220 H   0  0  0  0  0  0  0  0  0  0  0  0
  1  2  1  0  0  0  0
  2  9  1  0  0  0  0
  2  3  2  0  0  0  0
  3  8  1  0  0  0  0
  4  3  1  0  0  0  0
  5  4  2  0  0  0  0
  6  1  2  0  0  0  0
  6  5  1  0  0  0  0
  7  1  1  0  0  0  0
  9 10  1  0  0  0  0
 10 18  1  0  0  0  0
 11 10  2  0  0  0  0
 12 11  1  0  0  0  0
 13 20  1  0  0  0  0
 13 12  2  0  0  0  0
 14 13  1  0  0  0  0
 15 14  2  0  0  0  0
 15 16  1  0  0  0  0
 16 17  2  0  0  0  0
 17 12  1  0  0  0  0
 17  9  1  0  0  0  0
 19 15  1  0  0  0  0
 20 22  1  0  0  0  0
 21 20  1  0  0  0  0
 23 32  1  0  0  0  0
 23  5  1  0  0  0  0
 23 24  1  0  0  0  0
 24 25  1  0  0  0  0
 24 27  1  0  0  0  0
 26 24  1  0  0  0  0
 28 29  1  0  0  0  0
 28 23  1  0  0  0  0
 30 28  1  0  0  0  0
 31 28  1  0  0  0  0
 32 33  1  0  0  0  0
 32 34  1  0  0  0  0
 35 32  1  0  0  0  0
 36 35  1  0  0  0  0
 37 36  2  0  0  0  0
 38 40  1  0  0  0  0
 38 37  1  0  0  0  0
 39 38  2  0  0  0  0
 40 41  1  0  0  0  0
 41 42  2  0  0  0  0
 41 35  1  0  0  0  0
 43 40  1  0  0  0  0
M  END
>  <minimizedAffinity>
-5.4315834

>  <minimizedRMSD>
1.36295557

$$$$
