
 OpenBabel03252514003D

 27 29  0  0  1  0  0  0  0  0999 V2000
   35.3150   29.3860   48.9900 C   0  0  2  0  0  0  0  0  0  0  0  0
   34.1670   29.4050   49.9070 C   0  0  0  0  0  0  0  0  0  0  0  0
   34.5290   28.1100   49.3360 C   0  0  1  0  0  0  0  0  0  0  0  0
   35.2060   29.8270   47.9920 H   0  0  0  0  0  0  0  0  0  0  0  0
   34.3600   29.5050   51.0140 H   0  0  0  0  0  0  0  0  0  0  0  0
   33.1930   29.8900   49.6580 H   0  0  0  0  0  0  0  0  0  0  0  0
   35.1870   27.3150   49.6800 H   0  0  0  0  0  0  0  0  0  0  0  0
   36.7100   29.3760   49.6050 C   0  0  0  0  0  0  0  0  0  0  0  0
   37.2460   28.4240   49.3790 H   0  0  0  0  0  0  0  0  0  0  0  0
   36.5820   29.4680   50.6980 H   0  0  0  0  0  0  0  0  0  0  0  0
   38.0860   32.7680   49.4360 C   0  0  0  0  0  0  0  0  0  0  0  0
   38.7560   32.7770   48.2030 C   0  0  0  0  0  0  0  0  0  0  0  0
   38.7210   31.5980   47.4390 C   0  0  0  0  0  0  0  0  0  0  0  0
   38.0420   30.5120   47.9340 N   0  0  0  0  0  0  0  0  0  0  0  0
   37.4180   30.5630   49.1230 C   0  0  0  0  0  0  0  0  0  0  0  0
   37.4480   31.6950   49.8630 N   0  0  0  0  0  0  0  0  0  0  0  0
   38.1770   33.7220   49.9380 H   0  0  0  0  0  0  0  0  0  0  0  0
   39.3110   33.5850   47.7440 H   0  0  0  0  0  0  0  0  0  0  0  0
   39.1900   31.4620   46.4760 H   0  0  0  0  0  0  0  0  0  0  0  0
   33.5680   27.5940   48.2990 C   0  0  0  0  0  0  0  0  0  0  0  0
   33.9090   26.4590   47.7720 O   0  0  0  0  0  0  0  0  0  0  0  0
   32.3960   28.2040   47.8890 O   0  0  0  0  0  0  0  0  0  0  0  0
   31.1440   27.8150   48.2140 C   0  0  0  0  0  0  0  0  0  0  0  0
   30.6310   27.8180   49.6230 C   0  0  0  0  0  0  0  0  0  0  0  0
   29.3510   27.4060   49.8310 C   0  0  0  0  0  0  0  0  0  0  0  0
   28.5240   26.9830   48.7400 C   0  0  0  0  0  0  0  0  0  0  0  0
   29.6450   27.1780   47.2470 S   0  0  0  0  0  0  0  0  0  0  0  0
  1  4  1  6  0  0  0
  1  3  1  0  0  0  0
  1  8  1  0  0  0  0
  1  2  1  0  0  0  0
  2  5  1  0  0  0  0
  3  7  1  1  0  0  0
  3  2  1  0  0  0  0
  6  2  1  0  0  0  0
  8 10  1  0  0  0  0
  9  8  1  0  0  0  0
 11 16  1  0  0  0  0
 11 17  1  0  0  0  0
 12 11  2  0  0  0  0
 13 14  2  0  0  0  0
 13 12  1  0  0  0  0
 14 15  1  0  0  0  0
 15  8  1  0  0  0  0
 15 16  2  0  0  0  0
 18 12  1  0  0  0  0
 19 13  1  0  0  0  0
 20  3  1  0  0  0  0
 21 20  2  0  0  0  0
 22 23  1  0  0  0  0
 22 20  1  0  0  0  0
 23 24  2  0  0  0  0
 24 25  1  0  0  0  0
 26 25  2  0  0  0  0
 27 23  1  0  0  0  0
 27 26  1  0  0  0  0
M  END
>  <minimizedAffinity>
-5.17187023

>  <minimizedRMSD>
1.41156161

$$$$
