
 OpenBabel03252514073D

 43 46  0  0  0  0  0  0  0  0999 V2000
   34.0970   29.9940   47.3510 C   0  0  0  0  0  0  0  0  0  0  0  0
   35.0900   29.8100   48.3460 C   0  0  0  0  0  0  0  0  0  0  0  0
   34.9170   28.7380   49.2080 C   0  0  0  0  0  0  0  0  0  0  0  0
   33.8400   27.9300   49.0710 N   0  0  0  0  0  0  0  0  0  0  0  0
   32.9080   28.1210   48.1160 C   0  0  0  0  0  0  0  0  0  0  0  0
   33.0480   29.1430   47.2760 N   0  0  0  0  0  0  0  0  0  0  0  0
   34.1690   30.8100   46.6470 H   0  0  0  0  0  0  0  0  0  0  0  0
   35.6800   28.6210   49.9530 H   0  0  0  0  0  0  0  0  0  0  0  0
   36.1770   30.7280   48.3750 N   0  0  0  0  0  0  0  0  0  0  0  0
   36.5490   31.4250   49.4640 C   0  0  0  0  0  0  0  0  0  0  0  0
   37.6110   32.1990   49.1400 N   0  0  0  0  0  0  0  0  0  0  0  0
   37.8800   31.9640   47.8390 C   0  0  0  0  0  0  0  0  0  0  0  0
   38.8290   32.4470   46.9570 C   0  0  0  0  0  0  0  0  0  0  0  0
   38.8800   32.0370   45.6820 N   0  0  0  0  0  0  0  0  0  0  0  0
   38.0020   31.1310   45.2000 C   0  0  0  0  0  0  0  0  0  0  0  0
   37.0800   30.6640   46.0580 N   0  0  0  0  0  0  0  0  0  0  0  0
   36.9860   31.0410   47.3420 C   0  0  0  0  0  0  0  0  0  0  0  0
   36.0760   31.3720   50.4300 H   0  0  0  0  0  0  0  0  0  0  0  0
   38.0480   30.8070   44.1740 H   0  0  0  0  0  0  0  0  0  0  0  0
   39.7750   33.4000   47.4110 N   0  0  0  0  0  0  0  0  0  0  0  0
   39.6330   34.4330   47.3540 H   0  0  0  0  0  0  0  0  0  0  0  0
   40.7110   33.2980   47.8510 H   0  0  0  0  0  0  0  0  0  0  0  0
   31.7460   27.2180   47.9680 C   0  0  0  0  0  0  0  0  0  0  0  0
   30.7120   27.5560   49.0520 C   0  0  0  0  0  0  0  0  0  0  0  0
   30.6290   28.6650   49.1200 H   0  0  0  0  0  0  0  0  0  0  0  0
   29.7030   27.1930   48.7580 H   0  0  0  0  0  0  0  0  0  0  0  0
   31.0050   27.1520   50.0260 H   0  0  0  0  0  0  0  0  0  0  0  0
   31.0140   27.5170   46.6580 C   0  0  0  0  0  0  0  0  0  0  0  0
   30.6530   28.5890   46.7000 H   0  0  0  0  0  0  0  0  0  0  0  0
   30.1050   26.9270   46.5440 H   0  0  0  0  0  0  0  0  0  0  0  0
   31.6520   27.3800   45.7700 H   0  0  0  0  0  0  0  0  0  0  0  0
   32.0770   25.7790   48.0040 C   0  0  0  0  0  0  0  0  0  0  0  0
   31.1010   25.2210   48.1310 H   0  0  0  0  0  0  0  0  0  0  0  0
   32.6020   25.5870   48.9780 H   0  0  0  0  0  0  0  0  0  0  0  0
   32.7340   25.1930   46.9000 N   0  0  0  0  0  0  0  0  0  0  0  0
   34.0140   25.4030   46.5430 C   0  0  0  0  0  3  0  0  0  0  0  0
   34.6730   24.8470   45.4740 C   0  0  0  0  0  3  0  0  0  0  0  0
   33.9650   23.9750   44.6620 C   0  0  0  0  0  0  0  0  0  0  0  0
   34.5180   23.4460   43.6800 O   0  0  0  0  0  0  0  0  0  0  0  0
   32.6920   23.7360   44.9790 N   0  0  0  0  0  0  0  0  0  0  0  0
   32.1210   24.3220   46.0450 C   0  0  0  0  0  0  0  0  0  0  0  0
   30.9190   23.9910   46.2050 O   0  0  0  0  0  0  0  0  0  0  0  0
   32.2000   23.0820   44.3500 H   0  0  0  0  0  0  0  0  0  0  0  0
  1  2  1  0  0  0  0
  2  9  1  0  0  0  0
  2  3  2  0  0  0  0
  3  8  1  0  0  0  0
  4  3  1  0  0  0  0
  5  4  2  0  0  0  0
  6  1  2  0  0  0  0
  6  5  1  0  0  0  0
  7  1  1  0  0  0  0
  9 10  1  0  0  0  0
 10 18  1  0  0  0  0
 11 10  2  0  0  0  0
 12 11  1  0  0  0  0
 13 20  1  0  0  0  0
 13 12  2  0  0  0  0
 14 13  1  0  0  0  0
 15 14  2  0  0  0  0
 15 16  1  0  0  0  0
 16 17  2  0  0  0  0
 17 12  1  0  0  0  0
 17  9  1  0  0  0  0
 19 15  1  0  0  0  0
 20 22  1  0  0  0  0
 21 20  1  0  0  0  0
 23 32  1  0  0  0  0
 23  5  1  0  0  0  0
 23 24  1  0  0  0  0
 24 25  1  0  0  0  0
 24 27  1  0  0  0  0
 26 24  1  0  0  0  0
 28 29  1  0  0  0  0
 28 23  1  0  0  0  0
 30 28  1  0  0  0  0
 31 28  1  0  0  0  0
 32 33  1  0  0  0  0
 32 34  1  0  0  0  0
 35 32  1  0  0  0  0
 36 35  1  0  0  0  0
 37 36  2  0  0  0  0
 38 40  1  0  0  0  0
 38 37  1  0  0  0  0
 39 38  2  0  0  0  0
 40 41  1  0  0  0  0
 41 42  2  0  0  0  0
 41 35  1  0  0  0  0
 43 40  1  0  0  0  0
M  END
>  <minimizedAffinity>
-5.39481544

>  <minimizedRMSD>
1.80791986

$$$$
