
 OpenBabel03252513363D

 22 22  0  0  0  0  0  0  0  0999 V2000
   36.8940   29.9650   49.8900 C   0  0  0  0  0  0  0  0  0  0  0  0
   38.0020   30.6760   49.4420 C   0  0  0  0  0  0  0  0  0  0  0  0
   37.9920   31.1770   48.1400 C   0  0  0  0  0  0  0  0  0  0  0  0
   36.8970   30.9410   47.3840 N   0  0  0  0  0  0  0  0  0  0  0  0
   35.8430   30.2490   47.8540 C   0  0  0  0  0  0  0  0  0  0  0  0
   35.8540   29.7690   49.1000 N   0  0  0  0  0  0  0  0  0  0  0  0
   39.0900   31.9030   47.6370 N   0  0  0  0  0  0  0  0  0  0  0  0
   39.0200   32.6210   46.4340 C   0  0  0  0  0  0  0  0  0  0  0  0
   37.9610   32.5050   45.7270 N   0  0  0  0  0  0  0  0  0  0  0  0
   40.0930   33.4460   46.0240 N   0  0  0  0  0  0  0  0  0  0  0  0
   37.9000   33.0060   44.8050 H   0  0  0  0  0  0  0  0  0  0  0  0
   38.8670   30.8460   50.0790 H   0  0  0  0  0  0  0  0  0  0  0  0
   39.9870   31.9120   48.1730 H   0  0  0  0  0  0  0  0  0  0  0  0
   39.8740   34.4670   45.9250 H   0  0  0  0  0  0  0  0  0  0  0  0
   41.0390   33.0610   45.8340 H   0  0  0  0  0  0  0  0  0  0  0  0
   36.9030   29.4230   51.2960 C   0  0  0  0  0  0  0  0  0  0  0  0
   35.6120   29.1250   51.6790 F   0  0  0  0  0  0  0  0  0  0  0  0
   37.7660   28.3950   51.3710 F   0  0  0  0  0  0  0  0  0  0  0  0
   37.3330   30.4800   52.1210 F   0  0  0  0  0  0  0  0  0  0  0  0
   34.6290   29.9870   47.0190 C   0  0  0  0  0  0  0  0  0  0  0  0
   33.7770   28.8900   47.5910 C   0  0  0  0  0  0  0  0  0  0  0  0
   33.4980   29.1810   48.6030 H   0  0  0  0  0  0  0  0  0  0  0  0
  1 16  1  0  0  0  0
  2  1  1  0  0  0  0
  2 12  1  0  0  0  0
  3  2  2  0  0  0  0
  4  5  2  0  0  0  0
  4  3  1  0  0  0  0
  5  6  1  0  0  0  0
  6  1  2  0  0  0  0
  7  3  1  0  0  0  0
  7 13  1  0  0  0  0
  8  7  1  0  0  0  0
  9  8  2  0  0  0  0
 10  8  1  0  0  0  0
 11  9  1  0  0  0  0
 14 10  1  0  0  0  0
 15 10  1  0  0  0  0
 16 18  1  0  0  0  0
 16 17  1  0  0  0  0
 16 19  1  0  0  0  0
 20 21  1  0  0  0  0
 20  5  1  0  0  0  0
 21 22  1  0  0  0  0
M  END
>  <minimizedAffinity>
-6.14241552

>  <minimizedRMSD>
0.273552597

$$$$
