
 OpenBabel03252514063D

 25 27  0  0  0  0  0  0  0  0999 V2000
   36.7270   31.2300   48.7690 N   0  0  0  0  0  0  0  0  0  0  0  0
   36.8330   32.0770   49.7960 C   0  0  0  0  0  0  0  0  0  0  0  0
   37.8300   32.9610   49.5230 N   0  0  0  0  0  0  0  0  0  0  0  0
   38.3250   32.6390   48.3190 C   0  0  0  0  0  0  0  0  0  0  0  0
   39.3280   33.1720   47.5440 C   0  0  0  0  0  0  0  0  0  0  0  0
   39.6280   32.6350   46.3360 N   0  0  0  0  0  0  0  0  0  0  0  0
   38.9580   31.5580   45.8460 C   0  0  0  0  0  0  0  0  0  0  0  0
   37.9840   31.0640   46.6310 N   0  0  0  0  0  0  0  0  0  0  0  0
   37.6470   31.5550   47.8290 C   0  0  0  0  0  0  0  0  0  0  0  0
   40.0670   34.2790   47.9730 N   0  0  0  0  0  0  0  0  0  0  0  0
   36.2250   32.0640   50.7010 H   0  0  0  0  0  0  0  0  0  0  0  0
   39.1770   31.1090   44.8840 H   0  0  0  0  0  0  0  0  0  0  0  0
   40.9970   33.9930   48.3970 H   0  0  0  0  0  0  0  0  0  0  0  0
   39.5140   35.1550   47.7680 H   0  0  0  0  0  0  0  0  0  0  0  0
   34.7400   30.2500   47.7520 C   0  0  0  0  0  0  0  0  0  0  0  0
   35.7880   30.1590   48.6940 C   0  0  0  0  0  0  0  0  0  0  0  0
   35.8210   29.0170   49.4840 C   0  0  0  0  0  0  0  0  0  0  0  0
   34.8680   28.0530   49.3250 N   0  0  0  0  0  0  0  0  0  0  0  0
   33.8810   28.1880   48.4050 C   0  0  0  0  0  0  0  0  0  0  0  0
   33.8220   29.2760   47.6280 N   0  0  0  0  0  0  0  0  0  0  0  0
   34.6140   31.0910   47.0830 H   0  0  0  0  0  0  0  0  0  0  0  0
   36.6210   28.9520   50.2010 H   0  0  0  0  0  0  0  0  0  0  0  0
   32.8420   27.1250   48.2390 C   0  0  0  0  0  2  0  0  0  0  0  0
   32.3630   27.0390   46.8220 C   0  0  0  0  0  2  0  0  0  0  0  0
   32.6410   26.0530   46.4010 H   0  0  0  0  0  0  0  0  0  0  0  0
  1  2  1  0  0  0  0
  2 11  1  0  0  0  0
  3  2  2  0  0  0  0
  4  3  1  0  0  0  0
  5 10  1  0  0  0  0
  5  4  2  0  0  0  0
  6  5  1  0  0  0  0
  7  6  2  0  0  0  0
  7  8  1  0  0  0  0
  8  9  2  0  0  0  0
  9  4  1  0  0  0  0
  9  1  1  0  0  0  0
 10 13  1  0  0  0  0
 12  7  1  0  0  0  0
 14 10  1  0  0  0  0
 15 16  1  0  0  0  0
 16  1  1  0  0  0  0
 16 17  2  0  0  0  0
 17 22  1  0  0  0  0
 18 17  1  0  0  0  0
 19 18  2  0  0  0  0
 20 15  2  0  0  0  0
 20 19  1  0  0  0  0
 21 15  1  0  0  0  0
 23 19  1  0  0  0  0
 24 23  1  0  0  0  0
 25 24  1  0  0  0  0
M  END
>  <minimizedAffinity>
-5.2452631

>  <minimizedRMSD>
2.33157516

$$$$
