
 OpenBabel03252513143D

 39 41  0  0  0  0  0  0  0  0999 V2000
   36.8390   30.7870   46.0840 C   0  0  0  0  0  0  0  0  0  0  0  0
   35.8170   30.0280   46.6620 C   0  0  0  0  0  0  0  0  0  0  0  0
   35.5230   29.9930   47.9900 C   0  0  0  0  0  0  0  0  0  0  0  0
   36.2500   30.7390   48.8790 C   0  0  0  0  0  0  0  0  0  0  0  0
   37.2460   31.4910   48.3890 C   0  0  0  0  0  0  0  0  0  0  0  0
   37.9800   32.2500   49.2970 C   0  0  0  0  0  0  0  0  0  0  0  0
   39.0100   33.0480   48.8940 C   0  0  0  0  0  0  0  0  0  0  0  0
   39.3080   33.0830   47.5400 C   0  0  0  0  0  0  0  0  0  0  0  0
   38.5680   32.3250   46.6790 C   0  0  0  0  0  0  0  0  0  0  0  0
   37.5440   31.5250   47.0390 C   0  0  0  0  0  0  0  0  0  0  0  0
   35.2080   29.4180   45.9980 H   0  0  0  0  0  0  0  0  0  0  0  0
   34.7110   29.3720   48.3520 H   0  0  0  0  0  0  0  0  0  0  0  0
   37.7980   32.2690   50.3610 H   0  0  0  0  0  0  0  0  0  0  0  0
   39.6120   33.6560   49.5600 H   0  0  0  0  0  0  0  0  0  0  0  0
   40.1200   33.7040   47.1870 H   0  0  0  0  0  0  0  0  0  0  0  0
   38.8400   32.3840   45.6180 H   0  0  0  0  0  0  0  0  0  0  0  0
   36.1090   31.2930   42.6110 C   0  0  0  0  0  0  0  0  0  0  0  0
   37.2930   30.9920   41.9160 C   0  0  0  0  0  0  0  0  0  0  0  0
   38.3570   30.6070   42.6510 C   0  0  0  0  0  0  0  0  0  0  0  0
   38.1740   30.5520   43.9580 N   0  0  0  0  0  0  0  0  0  0  0  0
   37.1350   30.8080   44.6780 C   0  0  0  0  0  0  0  0  0  0  0  0
   36.1020   31.1840   43.9380 N   0  0  0  0  0  0  0  0  0  0  0  0
   35.2200   31.6130   42.0190 H   0  0  0  0  0  0  0  0  0  0  0  0
   39.6140   30.2600   42.1000 N   0  0  0  0  0  0  0  0  0  0  0  0
   40.7430   29.9310   42.9000 C   0  0  0  0  0  0  0  0  0  0  0  0
   40.9440   30.6580   43.9550 N   0  0  0  0  0  0  0  0  0  0  0  0
   41.6130   28.8560   42.5620 N   0  0  0  0  0  0  0  0  0  0  0  0
   41.6970   30.5470   44.6340 H   0  0  0  0  0  0  0  0  0  0  0  0
   39.7600   30.2280   41.0440 H   0  0  0  0  0  0  0  0  0  0  0  0
   41.3940   27.8730   42.2870 H   0  0  0  0  0  0  0  0  0  0  0  0
   42.6570   28.8130   42.5150 H   0  0  0  0  0  0  0  0  0  0  0  0
   37.4040   31.0970   40.4210 C   0  0  0  0  0  0  0  0  0  0  0  0
   36.4750   32.2390   39.9800 C   0  0  0  0  0  0  0  0  0  0  0  0
   36.7240   32.6170   38.9770 H   0  0  0  0  0  0  0  0  0  0  0  0
   35.9170   30.6720   50.2130 O   0  0  0  0  0  0  0  0  0  0  0  0
   36.4170   29.6380   51.0330 C   0  0  0  0  0  0  0  0  0  0  0  0
   37.2360   28.7360   50.4090 F   0  0  0  0  0  0  0  0  0  0  0  0
   37.1930   30.2450   52.0110 F   0  0  0  0  0  0  0  0  0  0  0  0
   35.3190   29.0040   51.5910 F   0  0  0  0  0  0  0  0  0  0  0  0
  1  2  2  0  0  0  0
  1 10  1  0  0  0  0
  2  3  1  0  0  0  0
  3 12  1  0  0  0  0
  3  4  2  0  0  0  0
  4 35  1  0  0  0  0
  5  4  1  0  0  0  0
  5  6  1  0  0  0  0
  6 13  1  0  0  0  0
  7  6  2  0  0  0  0
  7 14  1  0  0  0  0
  8  7  1  0  0  0  0
  9 10  1  0  0  0  0
  9  8  2  0  0  0  0
 10  5  2  0  0  0  0
 11  2  1  0  0  0  0
 15  8  1  0  0  0  0
 16  9  1  0  0  0  0
 17 22  1  0  0  0  0
 18 17  2  0  0  0  0
 18 19  1  0  0  0  0
 19 20  2  0  0  0  0
 20 21  1  0  0  0  0
 21  1  1  0  0  0  0
 22 21  2  0  0  0  0
 23 17  1  0  0  0  0
 24 19  1  0  0  0  0
 24 25  1  0  0  0  0
 25 26  2  0  0  0  0
 26 28  1  0  0  0  0
 27 25  1  0  0  0  0
 29 24  1  0  0  0  0
 30 27  1  0  0  0  0
 31 27  1  0  0  0  0
 32 18  1  0  0  0  0
 33 32  1  0  0  0  0
 34 33  1  0  0  0  0
 35 36  1  0  0  0  0
 36 39  1  0  0  0  0
 36 38  1  0  0  0  0
 37 36  1  0  0  0  0
M  END
>  <minimizedAffinity>
-7.27759981

>  <minimizedRMSD>
0.023926124

$$$$
