
 OpenBabel03252512143D

 34 37  0  0  0  0  0  0  0  0999 V2000
   32.3270   30.0950   46.0920 C   0  0  0  0  0  0  0  0  0  0  0  0
   31.9780   28.7360   46.1200 C   0  0  0  0  0  0  0  0  0  0  0  0
   32.8830   27.8440   46.7130 C   0  0  0  0  0  0  0  0  0  0  0  0
   34.0370   28.3270   47.2240 N   0  0  0  0  0  0  0  0  0  0  0  0
   34.3490   29.6480   47.1830 C   0  0  0  0  0  0  0  0  0  0  0  0
   33.4990   30.5140   46.6230 N   0  0  0  0  0  0  0  0  0  0  0  0
   31.6590   30.8300   45.6420 H   0  0  0  0  0  0  0  0  0  0  0  0
   31.0350   28.4340   45.6890 H   0  0  0  0  0  0  0  0  0  0  0  0
   35.6170   30.0520   47.7640 C   0  0  0  0  0  0  0  0  0  0  0  0
   36.6540   30.6280   47.0370 C   0  0  0  0  0  0  0  0  0  0  0  0
   37.6890   30.8890   47.8480 N   0  0  0  0  0  0  0  0  0  0  0  0
   37.3530   30.4940   49.0990 C   0  0  0  0  0  0  0  0  0  0  0  0
   38.0400   30.5320   50.2970 C   0  0  0  0  0  0  0  0  0  0  0  0
   37.4310   30.0460   51.4420 C   0  0  0  0  0  0  0  0  0  0  0  0
   36.1600   29.5380   51.3600 C   0  0  0  0  0  0  0  0  0  0  0  0
   35.4280   29.4820   50.1660 C   0  0  0  0  0  0  0  0  0  0  0  0
   36.0710   29.9740   49.0560 C   0  0  0  0  0  0  0  0  0  0  0  0
   36.6800   30.8580   45.9680 H   0  0  0  0  0  0  0  0  0  0  0  0
   38.6280   31.3180   47.6400 H   0  0  0  0  0  0  0  0  0  0  0  0
   39.0550   30.9350   50.3700 H   0  0  0  0  0  0  0  0  0  0  0  0
   37.8820   30.0340   52.4110 H   0  0  0  0  0  0  0  0  0  0  0  0
   35.6540   29.1490   52.2430 H   0  0  0  0  0  0  0  0  0  0  0  0
   34.4210   29.0750   50.1220 H   0  0  0  0  0  0  0  0  0  0  0  0
   32.5510   26.4320   46.7580 C   0  0  0  0  0  0  0  0  0  0  0  0
   33.4520   25.5600   47.3360 C   0  0  0  0  0  0  0  0  0  0  0  0
   33.0880   24.2310   47.3530 C   0  0  0  0  0  0  0  0  0  0  0  0
   31.9170   23.8050   46.8330 N   0  0  0  0  0  0  0  0  0  0  0  0
   31.0540   24.6850   46.2730 C   0  0  0  0  0  0  0  0  0  0  0  0
   31.4010   25.9920   46.2510 N   0  0  0  0  0  0  0  0  0  0  0  0
   34.4010   25.8830   47.7590 H   0  0  0  0  0  0  0  0  0  0  0  0
   33.7270   23.4800   47.7810 H   0  0  0  0  0  0  0  0  0  0  0  0
   29.7390   24.3100   45.6750 C   0  0  0  0  0  0  0  0  0  0  0  0
   28.6840   25.3210   46.0300 C   0  0  0  0  0  0  0  0  0  0  0  0
   28.8750   25.6640   47.0780 H   0  0  0  0  0  0  0  0  0  0  0  0
  1  2  2  0  0  0  0
  1  6  1  0  0  0  0
  2  3  1  0  0  0  0
  3 24  1  0  0  0  0
  3  4  2  0  0  0  0
  5  4  1  0  0  0  0
  5  9  1  0  0  0  0
  6  5  2  0  0  0  0
  7  1  1  0  0  0  0
  8  2  1  0  0  0  0
  9 17  1  0  0  0  0
 10  9  2  0  0  0  0
 10 11  1  0  0  0  0
 11 12  1  0  0  0  0
 12 13  1  0  0  0  0
 13 20  1  0  0  0  0
 13 14  2  0  0  0  0
 14 21  1  0  0  0  0
 15 14  1  0  0  0  0
 15 22  1  0  0  0  0
 16 15  2  0  0  0  0
 17 12  2  0  0  0  0
 17 16  1  0  0  0  0
 18 10  1  0  0  0  0
 19 11  1  0  0  0  0
 23 16  1  0  0  0  0
 24 25  1  0  0  0  0
 25 26  2  0  0  0  0
 25 30  1  0  0  0  0
 26 31  1  0  0  0  0
 27 26  1  0  0  0  0
 28 27  2  0  0  0  0
 29 28  1  0  0  0  0
 29 24  2  0  0  0  0
 32 33  1  0  0  0  0
 32 28  1  0  0  0  0
 33 34  1  0  0  0  0
M  END
>  <minimizedAffinity>
-5.84732819

>  <minimizedRMSD>
0.539849401

$$$$
