
 OpenBabel03252513303D

 41 44  0  0  0  0  0  0  0  0999 V2000
   31.7040   26.2480   47.5880 C   0  0  0  0  0  0  0  0  0  0  0  0
   31.4210   25.1320   46.8860 C   0  0  0  0  0  0  0  0  0  0  0  0
   32.3850   24.3350   46.2970 C   0  0  0  0  0  0  0  0  0  0  0  0
   33.6910   24.7470   46.4660 C   0  0  0  0  0  0  0  0  0  0  0  0
   34.0010   25.8780   47.1750 C   0  0  0  0  0  0  0  0  0  0  0  0
   33.0130   26.6470   47.7480 C   0  0  0  0  0  0  0  0  0  0  0  0
   30.3930   24.7830   46.7380 H   0  0  0  0  0  0  0  0  0  0  0  0
   32.1410   23.4400   45.7350 H   0  0  0  0  0  0  0  0  0  0  0  0
   34.5190   24.1890   46.0410 H   0  0  0  0  0  0  0  0  0  0  0  0
   35.0050   26.2090   47.3130 H   0  0  0  0  0  0  0  0  0  0  0  0
   29.3110   27.6740   50.0050 C   0  0  0  0  0  0  0  0  0  0  0  0
   28.6480   28.6580   49.2240 C   0  0  0  0  0  0  0  0  0  0  0  0
   29.0470   28.7930   47.9060 C   0  0  0  0  0  0  0  0  0  0  0  0
   30.0490   27.9850   47.4170 N   0  0  0  0  0  0  0  0  0  0  0  0
   30.6490   27.0640   48.1970 C   0  0  0  0  0  0  0  0  0  0  0  0
   30.2750   26.9220   49.4690 N   0  0  0  0  0  0  0  0  0  0  0  0
   28.9980   27.5690   51.0390 H   0  0  0  0  0  0  0  0  0  0  0  0
   28.5760   29.5250   47.2710 H   0  0  0  0  0  0  0  0  0  0  0  0
   27.5730   29.5150   49.7730 C   0  0  0  0  0  0  0  0  0  0  0  0
   28.0370   30.6080   50.4440 F   0  0  0  0  0  0  0  0  0  0  0  0
   26.7650   28.8100   50.6640 F   0  0  0  0  0  0  0  0  0  0  0  0
   26.7560   29.9620   48.7290 F   0  0  0  0  0  0  0  0  0  0  0  0
   33.3010   27.8700   48.5190 C   0  0  0  0  0  0  0  0  0  0  0  0
   33.8990   27.5690   49.3840 H   0  0  0  0  0  0  0  0  0  0  0  0
   32.3380   28.2520   48.9760 H   0  0  0  0  0  0  0  0  0  0  0  0
   33.8160   29.0110   47.7140 C   0  0  0  0  0  0  0  0  0  0  0  0
   33.0660   29.8290   47.5890 H   0  0  0  0  0  0  0  0  0  0  0  0
   34.0470   28.6920   46.6590 H   0  0  0  0  0  0  0  0  0  0  0  0
   35.0760   29.5030   48.2720 C   0  0  0  0  0  0  0  0  0  0  0  0
   35.7340   28.9080   49.3340 C   0  0  0  0  0  0  0  0  0  0  0  0
   36.8820   29.6080   49.6150 C   0  0  0  0  0  0  0  0  0  0  0  0
   36.8930   30.6330   48.6980 N   0  0  0  0  0  0  0  0  0  0  0  0
   35.8190   30.5720   47.8980 N   0  0  0  0  0  0  0  0  0  0  0  0
   35.5350   28.0440   49.9550 H   0  0  0  0  0  0  0  0  0  0  0  0
   37.6750   29.5010   50.3450 H   0  0  0  0  0  0  0  0  0  0  0  0
   37.8270   31.6900   48.4850 C   0  0  0  0  0  0  0  0  0  0  0  0
   37.9600   32.6200   49.5030 C   0  0  0  0  0  0  0  0  0  0  0  0
   38.9170   33.5440   49.0700 C   0  0  0  0  0  0  0  0  0  0  0  0
   39.3030   33.1010   47.8010 C   0  0  0  0  0  0  0  0  0  0  0  0
   40.0390   33.5800   47.1580 H   0  0  0  0  0  0  0  0  0  0  0  0
   38.6370   32.0030   47.4900 O   0  0  0  0  0  0  0  0  0  0  0  0
  1  6  1  0  0  0  0
  1 15  1  0  0  0  0
  2  1  2  0  0  0  0
  3  4  2  0  0  0  0
  3  2  1  0  0  0  0
  4  5  1  0  0  0  0
  5 10  1  0  0  0  0
  5  6  2  0  0  0  0
  6 23  1  0  0  0  0
  7  2  1  0  0  0  0
  8  3  1  0  0  0  0
  9  4  1  0  0  0  0
 11 17  1  0  0  0  0
 12 19  1  0  0  0  0
 12 11  2  0  0  0  0
 13 12  1  0  0  0  0
 14 13  2  0  0  0  0
 14 15  1  0  0  0  0
 15 16  2  0  0  0  0
 16 11  1  0  0  0  0
 18 13  1  0  0  0  0
 19 20  1  0  0  0  0
 19 21  1  0  0  0  0
 22 19  1  0  0  0  0
 23 25  1  0  0  0  0
 23 24  1  0  0  0  0
 26 29  1  0  0  0  0
 26 23  1  0  0  0  0
 27 26  1  0  0  0  0
 28 26  1  0  0  0  0
 29 30  1  0  0  0  0
 30 31  2  0  0  0  0
 30 34  1  0  0  0  0
 31 35  1  0  0  0  0
 32 31  1  0  0  0  0
 33 29  2  0  0  0  0
 33 32  1  0  0  0  0
 36 32  1  0  0  0  0
 36 37  2  0  0  0  0
 38 37  1  0  0  0  0
 39 38  2  0  0  0  0
 40 39  1  0  0  0  0
 41 39  1  0  0  0  0
 41 36  1  0  0  0  0
M  END
>  <minimizedAffinity>
-6.92808914

>  <minimizedRMSD>
1.05367947

$$$$
