
 OpenBabel03252510053D

 30 31  0  0  0  0  0  0  0  0999 V2000
   39.2140   32.2760   46.0700 C   0  0  0  0  0  0  0  0  0  0  0  0
   37.7140   32.4230   49.5470 C   0  0  0  0  0  0  0  0  0  0  0  0
   38.5700   32.7220   48.4770 C   0  0  0  0  0  0  0  0  0  0  0  0
   38.3920   32.0590   47.2690 C   0  0  0  0  0  0  0  0  0  0  0  0
   37.3720   31.1320   47.1900 N   0  0  0  0  0  0  0  0  0  0  0  0
   36.5680   30.8640   48.2320 C   0  0  0  0  0  0  0  0  0  0  0  0
   36.7190   31.4910   49.4080 N   0  0  0  0  0  0  0  0  0  0  0  0
   37.8840   32.9580   50.4700 H   0  0  0  0  0  0  0  0  0  0  0  0
   39.3560   33.4420   48.5490 H   0  0  0  0  0  0  0  0  0  0  0  0
   35.7830   30.1290   48.1210 H   0  0  0  0  0  0  0  0  0  0  0  0
   40.0710   31.0230   45.8870 C   0  0  0  0  0  0  0  0  0  0  0  0
   40.4150   30.7450   46.9130 H   0  0  0  0  0  0  0  0  0  0  0  0
   39.4670   30.1740   45.5270 H   0  0  0  0  0  0  0  0  0  0  0  0
   40.9560   31.2500   45.2960 H   0  0  0  0  0  0  0  0  0  0  0  0
   40.1080   33.4640   46.1470 C   0  0  0  0  0  0  0  0  0  0  0  0
   39.4700   34.3710   46.0630 H   0  0  0  0  0  0  0  0  0  0  0  0
   40.8340   33.4010   45.3210 H   0  0  0  0  0  0  0  0  0  0  0  0
   40.6860   33.5640   47.0690 H   0  0  0  0  0  0  0  0  0  0  0  0
   38.2940   32.4060   44.8880 C   0  0  0  0  0  0  0  0  0  0  0  0
   37.2420   32.1390   45.1190 H   0  0  0  0  0  0  0  0  0  0  0  0
   38.2350   33.5140   44.6730 H   0  0  0  0  0  0  0  0  0  0  0  0
   38.7820   31.6710   43.6860 C   0  0  0  0  0  0  0  0  0  0  0  0
   39.6350   32.3340   42.7400 C   0  0  0  0  0  0  0  0  0  0  0  0
   39.9170   31.0040   41.5080 S   0  0  0  0  0  0  0  0  0  0  0  0
   38.8360   29.7960   42.4890 C   0  0  0  0  0  0  0  0  0  0  0  0
   38.5140   30.4250   43.3670 N   0  0  0  0  0  0  0  0  0  0  0  0
   39.9800   33.3370   42.7920 H   0  0  0  0  0  0  0  0  0  0  0  0
   38.6040   28.3910   42.0210 C   0  0  0  0  0  0  0  0  0  0  0  0
   39.8090   27.5990   42.5040 C   0  0  0  0  0  0  0  0  0  0  0  0
   40.7080   28.0320   42.0190 H   0  0  0  0  0  0  0  0  0  0  0  0
  1 15  1  0  0  0  0
  1  4  1  0  0  0  0
  2  8  1  0  0  0  0
  3  9  1  0  0  0  0
  3  2  2  0  0  0  0
  4  3  1  0  0  0  0
  5  4  2  0  0  0  0
  5  6  1  0  0  0  0
  6  7  2  0  0  0  0
  7  2  1  0  0  0  0
 10  6  1  0  0  0  0
 11  1  1  0  0  0  0
 11 12  1  0  0  0  0
 13 11  1  0  0  0  0
 14 11  1  0  0  0  0
 15 18  1  0  0  0  0
 16 15  1  0  0  0  0
 17 15  1  0  0  0  0
 19 20  1  0  0  0  0
 19  1  1  0  0  0  0
 21 19  1  0  0  0  0
 22 19  1  0  0  0  0
 23 27  1  0  0  0  0
 23 22  2  0  0  0  0
 24 25  1  0  0  0  0
 24 23  1  0  0  0  0
 25 26  2  0  0  0  0
 26 22  1  0  0  0  0
 28 25  1  0  0  0  0
 28 29  1  0  0  0  0
 30 29  1  0  0  0  0
M  END
>  <minimizedAffinity>
-4.64881134

>  <minimizedRMSD>
0.345736057

$$$$
