
 OpenBabel03252513263D

 38 40  0  0  0  0  0  0  0  0999 V2000
   32.8170   27.8110   48.5800 C   0  0  0  0  0  0  0  0  0  0  0  0
   31.6900   28.2130   49.2350 C   0  0  0  0  0  0  0  0  0  0  0  0
   30.4680   27.5680   49.1620 C   0  0  0  0  0  0  0  0  0  0  0  0
   30.4320   26.4410   48.3610 C   0  0  0  0  0  0  0  0  0  0  0  0
   31.5520   25.9970   47.6790 C   0  0  0  0  0  0  0  0  0  0  0  0
   32.7440   26.6830   47.7900 C   0  0  0  0  0  0  0  0  0  0  0  0
   31.7530   29.1060   49.8580 H   0  0  0  0  0  0  0  0  0  0  0  0
   29.6190   27.9480   49.7110 H   0  0  0  0  0  0  0  0  0  0  0  0
   29.4860   25.9230   48.2930 H   0  0  0  0  0  0  0  0  0  0  0  0
   31.4390   25.1120   47.0790 H   0  0  0  0  0  0  0  0  0  0  0  0
   36.1180   28.9390   49.7210 C   0  0  0  0  0  0  0  0  0  0  0  0
   36.4290   29.9520   48.7770 C   0  0  0  0  0  0  0  0  0  0  0  0
   35.4830   30.2060   47.7800 C   0  0  0  0  0  0  0  0  0  0  0  0
   34.3190   29.4760   47.7630 N   0  0  0  0  0  0  0  0  0  0  0  0
   34.0730   28.5220   48.6880 C   0  0  0  0  0  0  0  0  0  0  0  0
   34.9650   28.2700   49.6410 N   0  0  0  0  0  0  0  0  0  0  0  0
   36.8700   28.7640   50.4810 H   0  0  0  0  0  0  0  0  0  0  0  0
   35.6240   30.9540   47.0170 H   0  0  0  0  0  0  0  0  0  0  0  0
   37.6870   30.7250   48.8130 C   0  0  0  0  0  0  0  0  0  0  0  0
   38.5020   30.5090   47.7510 F   0  0  0  0  0  0  0  0  0  0  0  0
   38.4240   30.4410   49.9500 F   0  0  0  0  0  0  0  0  0  0  0  0
   37.3880   32.1030   48.8340 F   0  0  0  0  0  0  0  0  0  0  0  0
   33.9400   26.2440   47.0890 C   0  0  0  0  0  0  0  0  0  0  0  0
   34.1710   26.9210   46.2420 H   0  0  0  0  0  0  0  0  0  0  0  0
   34.8290   26.3640   47.7740 H   0  0  0  0  0  0  0  0  0  0  0  0
   33.9800   24.7990   46.6640 C   0  0  0  0  0  0  0  0  0  0  0  0
   32.9620   24.5130   46.3300 H   0  0  0  0  0  0  0  0  0  0  0  0
   34.2600   24.1280   47.4940 H   0  0  0  0  0  0  0  0  0  0  0  0
   34.9580   24.5640   45.6180 N   0  0  0  0  0  0  0  0  0  0  0  0
   34.8440   25.3420   44.5040 C   0  0  0  0  0  0  0  0  0  0  0  0
   35.6930   25.2490   43.4130 C   0  0  0  0  0  0  0  0  0  0  0  0
   36.6900   24.2930   43.5290 C   0  0  0  0  0  0  0  0  0  0  0  0
   37.5830   24.1640   42.4300 N   0  0  0  0  0  0  0  0  0  0  0  0
   36.8160   23.5080   44.6370 N   0  0  0  0  0  0  0  0  0  0  0  0
   35.9460   23.6680   45.6480 C   0  0  0  0  0  0  0  0  0  0  0  0
   36.0330   22.9530   46.6970 O   0  0  0  0  0  0  0  0  0  0  0  0
   38.1290   23.3400   42.0980 H   0  0  0  0  0  0  0  0  0  0  0  0
   37.7900   24.9650   41.8010 H   0  0  0  0  0  0  0  0  0  0  0  0
  1 15  1  0  0  0  0
  1  2  1  0  0  0  0
  2  7  1  0  0  0  0
  3  2  2  0  0  0  0
  3  8  1  0  0  0  0
  4  3  1  0  0  0  0
  5  6  1  0  0  0  0
  5  4  2  0  0  0  0
  6  1  2  0  0  0  0
  9  4  1  0  0  0  0
 10  5  1  0  0  0  0
 11 17  1  0  0  0  0
 12 19  1  0  0  0  0
 12 11  2  0  0  0  0
 13 12  1  0  0  0  0
 14 13  2  0  0  0  0
 14 15  1  0  0  0  0
 15 16  2  0  0  0  0
 16 11  1  0  0  0  0
 18 13  1  0  0  0  0
 19 22  1  0  0  0  0
 19 21  1  0  0  0  0
 20 19  1  0  0  0  0
 23 25  1  0  0  0  0
 23  6  1  0  0  0  0
 24 23  1  0  0  0  0
 26 23  1  0  0  0  0
 26 28  1  0  0  0  0
 27 26  1  0  0  0  0
 29 35  1  0  0  0  0
 29 26  1  0  0  0  0
 30 29  1  0  0  0  0
 31 32  1  0  0  0  0
 31 30  2  0  0  0  0
 32 34  2  0  0  0  0
 33 32  1  0  0  0  0
 34 35  1  0  0  0  0
 35 36  2  0  0  0  0
 37 33  1  0  0  0  0
 38 33  1  0  0  0  0
M  END
>  <minimizedAffinity>
-5.21876287

>  <minimizedRMSD>
0.570162773

$$$$
