
 OpenBabel03252513333D

 15 15  0  0  0  0  0  0  0  0999 V2000
   37.0930   30.1500   49.9070 C   0  0  0  0  0  0  0  0  0  0  0  0
   38.0060   31.1930   49.7510 C   0  0  0  0  0  0  0  0  0  0  0  0
   38.0690   31.8260   48.5090 C   0  0  0  0  0  0  0  0  0  0  0  0
   37.2420   31.3960   47.5210 N   0  0  0  0  0  0  0  0  0  0  0  0
   36.3670   30.3780   47.7150 C   0  0  0  0  0  0  0  0  0  0  0  0
   36.2990   29.7640   48.9040 N   0  0  0  0  0  0  0  0  0  0  0  0
   38.6640   31.5300   50.5430 H   0  0  0  0  0  0  0  0  0  0  0  0
   35.7470   30.1080   46.8620 H   0  0  0  0  0  0  0  0  0  0  0  0
   37.0150   29.4600   51.2410 C   0  0  0  0  0  0  0  0  0  0  0  0
   35.6930   29.1410   51.5250 F   0  0  0  0  0  0  0  0  0  0  0  0
   37.8510   28.3770   51.2070 F   0  0  0  0  0  0  0  0  0  0  0  0
   37.4490   30.3640   52.1950 F   0  0  0  0  0  0  0  0  0  0  0  0
   38.9980   32.9430   48.2240 C   0  0  0  0  0  0  0  0  0  0  0  0
   39.1620   33.8090   49.4760 C   0  0  0  0  0  0  0  0  0  0  0  0
   40.1920   34.2440   49.4480 H   0  0  0  0  0  0  0  0  0  0  0  0
  1  9  1  0  0  0  0
  2  1  1  0  0  0  0
  2  7  1  0  0  0  0
  3  2  2  0  0  0  0
  4  5  2  0  0  0  0
  4  3  1  0  0  0  0
  5  6  1  0  0  0  0
  6  1  2  0  0  0  0
  8  5  1  0  0  0  0
  9 10  1  0  0  0  0
  9 12  1  0  0  0  0
 11  9  1  0  0  0  0
 13  3  1  0  0  0  0
 13 14  1  0  0  0  0
 15 14  1  0  0  0  0
M  END
>  <minimizedAffinity>
-5.03541231

>  <minimizedRMSD>
0.511900902

$$$$
