
 OpenBabel03252514063D

 25 27  0  0  0  0  0  0  0  0999 V2000
   36.7420   31.2390   48.7660 N   0  0  0  0  0  0  0  0  0  0  0  0
   36.8460   32.0850   49.7950 C   0  0  0  0  0  0  0  0  0  0  0  0
   37.8400   32.9720   49.5240 N   0  0  0  0  0  0  0  0  0  0  0  0
   38.3360   32.6530   48.3200 C   0  0  0  0  0  0  0  0  0  0  0  0
   39.3380   33.1910   47.5460 C   0  0  0  0  0  0  0  0  0  0  0  0
   39.6400   32.6570   46.3370 N   0  0  0  0  0  0  0  0  0  0  0  0
   38.9730   31.5800   45.8440 C   0  0  0  0  0  0  0  0  0  0  0  0
   38.0000   31.0810   46.6280 N   0  0  0  0  0  0  0  0  0  0  0  0
   37.6620   31.5690   47.8260 C   0  0  0  0  0  0  0  0  0  0  0  0
   40.0750   34.2990   47.9770 N   0  0  0  0  0  0  0  0  0  0  0  0
   36.2360   32.0680   50.6990 H   0  0  0  0  0  0  0  0  0  0  0  0
   39.1940   31.1330   44.8820 H   0  0  0  0  0  0  0  0  0  0  0  0
   41.0050   34.0150   48.4010 H   0  0  0  0  0  0  0  0  0  0  0  0
   39.5190   35.1740   47.7740 H   0  0  0  0  0  0  0  0  0  0  0  0
   34.7620   30.2520   47.7400 C   0  0  0  0  0  0  0  0  0  0  0  0
   35.8060   30.1660   48.6880 C   0  0  0  0  0  0  0  0  0  0  0  0
   35.8380   29.0260   49.4810 C   0  0  0  0  0  0  0  0  0  0  0  0
   34.8870   28.0600   49.3190 N   0  0  0  0  0  0  0  0  0  0  0  0
   33.9050   28.1900   48.3930 C   0  0  0  0  0  0  0  0  0  0  0  0
   33.8470   29.2760   47.6140 N   0  0  0  0  0  0  0  0  0  0  0  0
   34.6390   31.0920   47.0690 H   0  0  0  0  0  0  0  0  0  0  0  0
   36.6330   28.9640   50.2030 H   0  0  0  0  0  0  0  0  0  0  0  0
   32.8690   27.1250   48.2240 C   0  0  0  0  0  2  0  0  0  0  0  0
   33.4010   25.9550   47.4550 C   0  0  0  0  0  2  0  0  0  0  0  0
   33.4150   25.0620   48.1100 H   0  0  0  0  0  0  0  0  0  0  0  0
  1  2  1  0  0  0  0
  2 11  1  0  0  0  0
  3  2  2  0  0  0  0
  4  3  1  0  0  0  0
  5 10  1  0  0  0  0
  5  4  2  0  0  0  0
  6  5  1  0  0  0  0
  7  6  2  0  0  0  0
  7  8  1  0  0  0  0
  8  9  2  0  0  0  0
  9  4  1  0  0  0  0
  9  1  1  0  0  0  0
 10 13  1  0  0  0  0
 12  7  1  0  0  0  0
 14 10  1  0  0  0  0
 15 16  1  0  0  0  0
 16  1  1  0  0  0  0
 16 17  2  0  0  0  0
 17 22  1  0  0  0  0
 18 17  1  0  0  0  0
 19 18  2  0  0  0  0
 20 15  2  0  0  0  0
 20 19  1  0  0  0  0
 21 15  1  0  0  0  0
 23 19  1  0  0  0  0
 24 25  1  0  0  0  0
 24 23  1  0  0  0  0
M  END
>  <minimizedAffinity>
-5.38591528

>  <minimizedRMSD>
2.2870543

$$$$
