
 OpenBabel03252514003D

 29 31  0  0  1  0  0  0  0  0999 V2000
   36.0230   30.1020   50.1410 C   0  0  2  0  0  0  0  0  0  0  0  0
   35.2860   29.1980   51.0350 C   0  0  0  0  0  0  0  0  0  0  0  0
   35.5490   28.7110   49.6840 C   0  0  1  0  0  0  0  0  0  0  0  0
   35.5180   30.9190   49.6400 H   0  0  0  0  0  0  0  0  0  0  0  0
   35.8220   28.6560   51.8690 H   0  0  0  0  0  0  0  0  0  0  0  0
   34.2380   29.4280   51.3740 H   0  0  0  0  0  0  0  0  0  0  0  0
   36.3790   28.1150   49.2960 H   0  0  0  0  0  0  0  0  0  0  0  0
   37.5440   30.1570   50.2880 C   0  0  0  0  0  0  0  0  0  0  0  0
   37.7760   30.5860   51.2750 H   0  0  0  0  0  0  0  0  0  0  0  0
   37.9550   29.1230   50.2710 H   0  0  0  0  0  0  0  0  0  0  0  0
   38.9220   33.0870   48.5700 C   0  0  0  0  0  0  0  0  0  0  0  0
   39.0200   32.6520   47.2390 C   0  0  0  0  0  0  0  0  0  0  0  0
   38.6070   31.3420   46.9460 C   0  0  0  0  0  0  0  0  0  0  0  0
   38.1320   30.5640   47.9740 N   0  0  0  0  0  0  0  0  0  0  0  0
   38.0600   31.0320   49.2330 C   0  0  0  0  0  0  0  0  0  0  0  0
   38.4590   32.2950   49.5160 N   0  0  0  0  0  0  0  0  0  0  0  0
   39.2660   34.1060   48.6790 H   0  0  0  0  0  0  0  0  0  0  0  0
   39.3760   33.1820   46.3680 H   0  0  0  0  0  0  0  0  0  0  0  0
   38.6210   30.8660   45.9770 H   0  0  0  0  0  0  0  0  0  0  0  0
   34.3390   28.6610   48.7890 C   0  0  0  0  0  0  0  0  0  0  0  0
   34.5780   28.9690   47.5540 O   0  0  0  0  0  0  0  0  0  0  0  0
   33.0510   28.3170   49.1610 O   0  0  0  0  0  0  0  0  0  0  0  0
   32.3080   27.4260   48.4030 C   0  0  0  0  0  0  0  0  0  0  0  0
   30.9650   27.7390   48.2170 C   0  0  0  0  0  0  0  0  0  0  0  0
   30.1900   26.8780   47.4670 C   0  0  0  0  0  0  0  0  0  0  0  0
   30.6780   25.7370   46.9000 N   0  0  0  0  0  0  0  0  0  0  0  0
   31.9830   25.4840   47.1130 C   0  0  0  0  0  0  0  0  0  0  0  0
   32.4940   24.5970   46.7090 H   0  0  0  0  0  0  0  0  0  0  0  0
   32.7760   26.2960   47.8370 N   0  0  0  0  0  0  0  0  0  0  0  0
  1  4  1  6  0  0  0
  1  8  1  0  0  0  0
  1  2  1  0  0  0  0
  2  6  1  0  0  0  0
  2  5  1  0  0  0  0
  3  7  1  6  0  0  0
  3  1  1  0  0  0  0
  3  2  1  0  0  0  0
  8  9  1  0  0  0  0
 10  8  1  0  0  0  0
 11 17  1  0  0  0  0
 11 16  1  0  0  0  0
 12 11  2  0  0  0  0
 13 12  1  0  0  0  0
 13 14  2  0  0  0  0
 14 15  1  0  0  0  0
 15 16  2  0  0  0  0
 15  8  1  0  0  0  0
 18 12  1  0  0  0  0
 19 13  1  0  0  0  0
 20 22  1  0  0  0  0
 20  3  1  0  0  0  0
 21 20  2  0  0  0  0
 23 22  1  0  0  0  0
 24 23  1  0  0  0  0
 25 24  2  0  0  0  0
 26 27  2  0  0  0  0
 26 25  1  0  0  0  0
 27 29  1  0  0  0  0
 28 27  1  0  0  0  0
 29 23  2  0  0  0  0
M  END
>  <minimizedAffinity>
-5.11373758

>  <minimizedRMSD>
1.38915133

$$$$
