
 OpenBabel03252512063D

 39 41  0  0  0  0  0  0  0  0999 V2000
   37.3440   30.7080   50.1990 C   0  0  0  0  0  0  0  0  0  0  0  0
   38.2890   30.1210   50.1710 H   0  0  0  0  0  0  0  0  0  0  0  0
   37.2910   30.9750   51.3020 H   0  0  0  0  0  0  0  0  0  0  0  0
   36.0850   28.6450   49.7920 C   0  0  0  0  0  0  0  0  0  0  0  0
   36.1470   30.0390   49.8950 C   0  0  0  0  0  0  0  0  0  0  0  0
   34.9740   30.6960   49.7000 C   0  0  0  0  0  0  0  0  0  0  0  0
   33.8040   30.0410   49.4190 N   0  0  0  0  0  0  0  0  0  0  0  0
   33.7910   28.7060   49.3280 C   0  0  0  0  0  0  0  0  0  0  0  0
   34.9110   28.0550   49.5140 N   0  0  0  0  0  0  0  0  0  0  0  0
   36.9960   28.0540   49.9390 H   0  0  0  0  0  0  0  0  0  0  0  0
   34.8170   31.7620   49.7400 H   0  0  0  0  0  0  0  0  0  0  0  0
   32.5540   27.9770   49.0320 C   0  0  0  0  0  0  0  0  0  0  0  0
   32.5160   27.0900   48.1560 O   0  0  0  0  0  0  0  0  0  0  0  0
   31.3820   28.2450   49.7100 O   0  0  0  0  0  0  0  0  0  0  0  0
   30.1560   27.7880   49.2740 C   0  0  0  0  0  0  0  0  0  0  0  0
   29.2980   27.2510   50.2270 C   0  0  0  0  0  0  0  0  0  0  0  0
   28.0450   26.7610   49.9120 C   0  0  0  0  0  0  0  0  0  0  0  0
   27.6020   26.7950   48.6020 C   0  0  0  0  0  0  0  0  0  0  0  0
   26.6150   26.4000   48.4050 H   0  0  0  0  0  0  0  0  0  0  0  0
   28.4810   27.3370   47.6720 C   0  0  0  0  0  0  0  0  0  0  0  0
   29.6820   27.8020   47.9940 N   0  0  0  0  0  0  0  0  0  0  0  0
   37.4960   32.0070   49.5210 C   0  0  0  0  0  0  0  0  0  0  0  0
   38.2360   32.6390   50.1140 H   0  0  0  0  0  0  0  0  0  0  0  0
   36.5750   32.5830   49.4520 H   0  0  0  0  0  0  0  0  0  0  0  0
   38.1600   31.7800   48.2240 C   0  0  0  0  0  0  0  0  0  0  0  0
   38.0160   30.6140   47.5670 C   0  0  0  0  0  0  0  0  0  0  0  0
   38.6320   30.3830   46.3460 C   0  0  0  0  0  0  0  0  0  0  0  0
   39.3960   31.4030   45.8410 N   0  0  0  0  0  0  0  0  0  0  0  0
   39.5350   32.5510   46.4920 C   0  0  0  0  0  0  0  0  0  0  0  0
   38.9350   32.7550   47.6650 N   0  0  0  0  0  0  0  0  0  0  0  0
   37.5110   29.6930   47.7250 H   0  0  0  0  0  0  0  0  0  0  0  0
   38.6510   29.5410   45.6640 H   0  0  0  0  0  0  0  0  0  0  0  0
   40.3840   33.6410   45.9300 C   0  0  0  0  0  0  0  0  0  0  0  0
   41.4540   33.4220   46.1150 H   0  0  0  0  0  0  0  0  0  0  0  0
   40.1730   34.5990   46.4460 H   0  0  0  0  0  0  0  0  0  0  0  0
   40.0970   33.8280   44.4470 C   0  0  0  0  0  0  0  0  0  0  0  0
   39.6150   34.8260   44.2650 H   0  0  0  0  0  0  0  0  0  0  0  0
   41.0970   33.8500   43.9250 H   0  0  0  0  0  0  0  0  0  0  0  0
   39.5210   32.9790   44.0820 H   0  0  0  0  0  0  0  0  0  0  0  0
  1  3  1  0  0  0  0
  2  1  1  0  0  0  0
  4  5  1  0  0  0  0
  4 10  1  0  0  0  0
  5  1  1  0  0  0  0
  6 11  1  0  0  0  0
  6  5  2  0  0  0  0
  7  6  1  0  0  0  0
  8  7  2  0  0  0  0
  8  9  1  0  0  0  0
  9  4  2  0  0  0  0
 12  8  1  0  0  0  0
 12 14  1  0  0  0  0
 13 12  2  0  0  0  0
 15 14  1  0  0  0  0
 15 16  1  0  0  0  0
 17 16  2  0  0  0  0
 18 17  1  0  0  0  0
 19 18  1  0  0  0  0
 20 21  1  0  0  0  0
 20 18  2  0  0  0  0
 21 15  2  0  0  0  0
 22 23  1  0  0  0  0
 22  1  1  0  0  0  0
 24 22  1  0  0  0  0
 25 22  1  0  0  0  0
 26 31  1  0  0  0  0
 26 25  2  0  0  0  0
 27 26  1  0  0  0  0
 28 27  2  0  0  0  0
 28 29  1  0  0  0  0
 29 30  2  0  0  0  0
 30 25  1  0  0  0  0
 32 27  1  0  0  0  0
 33 34  1  0  0  0  0
 33 35  1  0  0  0  0
 33 29  1  0  0  0  0
 36 33  1  0  0  0  0
 37 36  1  0  0  0  0
 38 36  1  0  0  0  0
 39 36  1  0  0  0  0
M  END
>  <minimizedAffinity>
-5.66725588

>  <minimizedRMSD>
0.851891816

$$$$
