
 OpenBabel03252513433D

 17 17  0  0  0  0  0  0  0  0999 V2000
   37.4950   30.3220   49.1650 C   0  0  0  0  0  0  0  0  0  0  0  0
   37.7730   31.3970   50.0650 C   0  0  0  0  0  0  0  0  0  0  0  0
   38.4680   32.4950   49.5630 C   0  0  0  0  0  0  0  0  0  0  0  0
   38.8350   32.4770   48.2580 N   0  0  0  0  0  0  0  0  0  0  0  0
   38.5550   31.4480   47.4400 C   0  0  0  0  0  0  0  0  0  0  0  0
   37.8950   30.3890   47.8920 N   0  0  0  0  0  0  0  0  0  0  0  0
   37.4460   31.3210   51.0730 H   0  0  0  0  0  0  0  0  0  0  0  0
   38.6460   33.2630   50.2780 H   0  0  0  0  0  0  0  0  0  0  0  0
   39.0300   31.5890   46.0350 C   0  0  0  0  0  0  0  0  0  0  0  0
   38.3140   32.6010   45.3890 F   0  0  0  0  0  0  0  0  0  0  0  0
   40.3440   32.0030   46.0320 F   0  0  0  0  0  0  0  0  0  0  0  0
   38.9590   30.4040   45.3290 F   0  0  0  0  0  0  0  0  0  0  0  0
   36.8080   29.2360   49.6650 O   0  0  0  0  0  0  0  0  0  0  0  0
   35.5360   29.2840   50.2240 C   0  0  0  0  0  0  0  0  0  0  0  0
   35.5410   29.2330   51.6100 F   0  0  0  0  0  0  0  0  0  0  0  0
   34.7640   30.3370   49.7920 F   0  0  0  0  0  0  0  0  0  0  0  0
   34.8950   28.1180   49.7930 F   0  0  0  0  0  0  0  0  0  0  0  0
  1 13  1  0  0  0  0
  1  2  1  0  0  0  0
  2  7  1  0  0  0  0
  3  2  2  0  0  0  0
  3  8  1  0  0  0  0
  4  3  1  0  0  0  0
  5  6  1  0  0  0  0
  5  4  2  0  0  0  0
  6  1  2  0  0  0  0
  9  5  1  0  0  0  0
 10  9  1  0  0  0  0
 11  9  1  0  0  0  0
 12  9  1  0  0  0  0
 13 14  1  0  0  0  0
 14 15  1  0  0  0  0
 16 14  1  0  0  0  0
 17 14  1  0  0  0  0
M  END
>  <minimizedAffinity>
-5.24290228

>  <minimizedRMSD>
1.0527581

$$$$
