
 OpenBabel03252511433D

 29 31  0  0  0  0  0  0  0  0999 V2000
   38.5390   32.3330   47.9570 C   0  0  0  0  0  0  0  0  0  0  0  0
   38.7900   33.4310   48.7580 C   0  0  0  0  0  0  0  0  0  0  0  0
   39.7710   34.3690   48.4130 C   0  0  0  0  0  0  0  0  0  0  0  0
   40.5000   34.1900   47.2470 C   0  0  0  0  0  0  0  0  0  0  0  0
   40.2350   33.0810   46.4550 C   0  0  0  0  0  0  0  0  0  0  0  0
   40.9180   32.8240   45.2720 C   0  0  0  0  0  0  0  0  0  0  0  0
   40.6030   31.6960   44.5260 C   0  0  0  0  0  0  0  0  0  0  0  0
   39.6260   30.8060   44.9160 C   0  0  0  0  0  0  0  0  0  0  0  0
   38.9480   31.0620   46.0920 C   0  0  0  0  0  0  0  0  0  0  0  0
   39.2730   32.1780   46.8110 C   0  0  0  0  0  0  0  0  0  0  0  0
   38.3030   33.6880   49.6770 H   0  0  0  0  0  0  0  0  0  0  0  0
   40.0020   35.2370   49.0020 H   0  0  0  0  0  0  0  0  0  0  0  0
   41.2720   34.8920   46.9370 H   0  0  0  0  0  0  0  0  0  0  0  0
   41.6770   33.5270   44.9790 H   0  0  0  0  0  0  0  0  0  0  0  0
   41.1990   31.5950   43.6200 H   0  0  0  0  0  0  0  0  0  0  0  0
   39.4320   29.9550   44.2930 H   0  0  0  0  0  0  0  0  0  0  0  0
   38.1660   30.3470   46.4000 H   0  0  0  0  0  0  0  0  0  0  0  0
   36.4120   30.8920   47.8810 C   0  0  0  0  0  0  0  0  0  0  0  0
   37.4860   31.5090   48.5160 C   0  0  0  0  0  0  0  0  0  0  0  0
   37.5560   31.3010   49.9260 C   0  0  0  0  0  0  0  0  0  0  0  0
   36.6140   30.5450   50.5570 N   0  0  0  0  0  0  0  0  0  0  0  0
   35.6030   29.9820   49.8660 C   0  0  0  0  0  0  0  0  0  0  0  0
   35.5130   30.1590   48.5520 N   0  0  0  0  0  0  0  0  0  0  0  0
   36.4190   31.0900   46.8180 H   0  0  0  0  0  0  0  0  0  0  0  0
   38.3550   31.7400   50.5010 H   0  0  0  0  0  0  0  0  0  0  0  0
   34.6230   29.1740   50.6390 C   0  0  0  0  0  0  0  0  0  0  0  0
   34.4170   27.9330   50.0220 F   0  0  0  0  0  0  0  0  0  0  0  0
   35.1300   28.8630   51.9070 F   0  0  0  0  0  0  0  0  0  0  0  0
   33.3980   29.7790   50.7690 F   0  0  0  0  0  0  0  0  0  0  0  0
  1 19  1  0  0  0  0
  1  2  1  0  0  0  0
  2 11  1  0  0  0  0
  3  2  2  0  0  0  0
  3 12  1  0  0  0  0
  4  3  1  0  0  0  0
  5 10  1  0  0  0  0
  5  4  2  0  0  0  0
  6  5  1  0  0  0  0
  7  8  1  0  0  0  0
  7  6  2  0  0  0  0
  8  9  2  0  0  0  0
  9 17  1  0  0  0  0
  9 10  1  0  0  0  0
 10  1  2  0  0  0  0
 13  4  1  0  0  0  0
 14  6  1  0  0  0  0
 15  7  1  0  0  0  0
 16  8  1  0  0  0  0
 18 19  2  0  0  0  0
 18 23  1  0  0  0  0
 19 20  1  0  0  0  0
 20 25  1  0  0  0  0
 20 21  2  0  0  0  0
 22 21  1  0  0  0  0
 22 26  1  0  0  0  0
 23 22  2  0  0  0  0
 24 18  1  0  0  0  0
 26 29  1  0  0  0  0
 26 28  1  0  0  0  0
 27 26  1  0  0  0  0
M  END
>  <minimizedAffinity>
-6.77895021

>  <minimizedRMSD>
1.14053988

$$$$
