
 OpenBabel03252513183D

 40 42  0  0  1  0  0  0  0  0999 V2000
   38.2240   30.9580   45.5930 N   0  0  0  0  0  0  0  0  0  0  0  0
   39.6430   30.7600   45.8010 C   0  0  0  0  0  0  0  0  0  0  0  0
   40.0860   32.1550   46.1510 C   0  0  0  0  0  0  0  0  0  0  0  0
   38.9970   32.5530   47.1460 C   0  0  0  0  0  0  0  0  0  0  0  0
   37.8990   31.6500   46.7900 C   0  0  2  0  0  0  0  0  0  0  0  0
   39.8500   30.1160   46.6810 H   0  0  0  0  0  0  0  0  0  0  0  0
   40.1100   30.3730   44.8740 H   0  0  0  0  0  0  0  0  0  0  0  0
   41.0680   32.0570   46.6510 H   0  0  0  0  0  0  0  0  0  0  0  0
   40.1160   32.7970   45.2580 H   0  0  0  0  0  0  0  0  0  0  0  0
   38.7290   33.6080   46.8240 H   0  0  0  0  0  0  0  0  0  0  0  0
   39.4460   32.6680   48.0820 H   0  0  0  0  0  0  0  0  0  0  0  0
   36.9800   32.2390   46.5160 H   0  0  0  0  0  0  0  0  0  0  0  0
   37.4380   30.8510   47.8910 N   0  0  1  0  0  0  0  0  0  0  0  0
   38.4600   30.7890   48.8580 C   0  0  0  0  0  0  0  0  0  0  0  0
   37.9730   30.0090   50.0440 C   0  0  0  0  0  0  0  0  0  0  0  0
   36.8510   30.7520   50.6680 C   0  0  0  0  0  0  0  0  0  0  0  0
   35.8170   31.2440   49.7180 C   0  0  0  0  0  0  0  0  0  0  0  0
   36.1100   30.9130   48.2700 C   0  0  2  0  0  0  0  0  0  0  0  0
   39.2380   30.0540   48.5020 H   0  0  0  0  0  0  0  0  0  0  0  0
   38.8380   31.7310   49.2410 H   0  0  0  0  0  0  0  0  0  0  0  0
   38.8440   30.1330   50.8060 H   0  0  0  0  0  0  0  0  0  0  0  0
   37.8590   28.9360   49.9010 H   0  0  0  0  0  0  0  0  0  0  0  0
   37.2160   31.5300   51.3690 H   0  0  0  0  0  0  0  0  0  0  0  0
   36.3240   30.0110   51.3440 H   0  0  0  0  0  0  0  0  0  0  0  0
   34.7850   30.9070   49.9320 H   0  0  0  0  0  0  0  0  0  0  0  0
   35.7820   32.3570   49.8420 H   0  0  0  0  0  0  0  0  0  0  0  0
   35.6110   31.7540   47.7000 H   0  0  0  0  0  0  0  0  0  0  0  0
   35.3170   29.6810   47.9310 C   0  0  0  0  0  0  0  0  0  0  0  0
   35.6920   28.5500   48.6290 F   0  0  0  0  0  0  0  0  0  0  0  0
   35.2460   29.3870   46.5870 F   0  0  0  0  0  0  0  0  0  0  0  0
   33.9670   29.8690   48.3130 F   0  0  0  0  0  0  0  0  0  0  0  0
   37.4270   30.5560   44.4940 C   0  0  0  0  0  0  0  0  0  0  0  0
   37.7990   29.4410   43.6970 C   0  0  0  0  0  0  0  0  0  0  0  0
   36.9440   29.0750   42.6300 C   0  0  0  0  0  0  0  0  0  0  0  0
   35.8160   29.8130   42.4330 N   0  0  0  0  0  0  0  0  0  0  0  0
   35.4970   30.8760   43.2210 C   0  0  0  0  0  0  0  0  0  0  0  0
   36.3140   31.2320   44.2460 N   0  0  0  0  0  0  0  0  0  0  0  0
   38.6950   28.9010   43.8980 H   0  0  0  0  0  0  0  0  0  0  0  0
   37.1790   28.2380   41.9970 H   0  0  0  0  0  0  0  0  0  0  0  0
   34.5930   31.3790   42.9750 H   0  0  0  0  0  0  0  0  0  0  0  0
  1  2  1  0  0  0  0
  1  5  1  0  0  0  0
  2  3  1  0  0  0  0
  2  6  1  0  0  0  0
  3  8  1  0  0  0  0
  3  4  1  0  0  0  0
  4 11  1  0  0  0  0
  5 12  1  6  0  0  0
  5  4  1  0  0  0  0
  5 13  1  0  0  0  0
  7  2  1  0  0  0  0
  9  3  1  0  0  0  0
 10  4  1  0  0  0  0
 13 18  1  0  0  0  0
 13 14  1  1  0  0  0
 14 20  1  0  0  0  0
 14 15  1  0  0  0  0
 15 16  1  0  0  0  0
 15 21  1  0  0  0  0
 16 24  1  0  0  0  0
 16 23  1  0  0  0  0
 17 26  1  0  0  0  0
 17 25  1  0  0  0  0
 17 16  1  0  0  0  0
 18 27  1  6  0  0  0
 18 17  1  0  0  0  0
 19 14  1  0  0  0  0
 22 15  1  0  0  0  0
 28 18  1  0  0  0  0
 28 31  1  0  0  0  0
 28 29  1  0  0  0  0
 30 28  1  0  0  0  0
 32  1  1  0  0  0  0
 33 38  1  0  0  0  0
 33 32  2  0  0  0  0
 34 33  1  0  0  0  0
 35 34  2  0  0  0  0
 35 36  1  0  0  0  0
 36 37  2  0  0  0  0
 37 32  1  0  0  0  0
 39 34  1  0  0  0  0
 40 36  1  0  0  0  0
M  END
>  <minimizedAffinity>
-5.19189119

>  <minimizedRMSD>
1.599792

$$$$
