
 OpenBabel03252514083D

 39 42  0  0  0  0  0  0  0  0999 V2000
   33.9660   29.8710   47.3490 C   0  0  0  0  0  0  0  0  0  0  0  0
   34.9300   29.6980   48.3590 C   0  0  0  0  0  0  0  0  0  0  0  0
   34.7260   28.6320   49.2290 C   0  0  0  0  0  0  0  0  0  0  0  0
   33.6450   27.8330   49.0710 N   0  0  0  0  0  0  0  0  0  0  0  0
   32.7430   28.0140   48.1070 C   0  0  0  0  0  0  0  0  0  0  0  0
   32.9140   29.0410   47.2480 N   0  0  0  0  0  0  0  0  0  0  0  0
   34.0910   30.6940   46.6500 H   0  0  0  0  0  0  0  0  0  0  0  0
   35.4600   28.4900   50.0070 H   0  0  0  0  0  0  0  0  0  0  0  0
   36.0140   30.6040   48.4130 N   0  0  0  0  0  0  0  0  0  0  0  0
   36.4060   31.2480   49.5500 C   0  0  0  0  0  0  0  0  0  0  0  0
   37.4650   32.0390   49.2640 N   0  0  0  0  0  0  0  0  0  0  0  0
   37.7150   31.8770   47.9580 C   0  0  0  0  0  0  0  0  0  0  0  0
   38.6560   32.4060   47.0950 C   0  0  0  0  0  0  0  0  0  0  0  0
   38.6880   32.0670   45.8010 N   0  0  0  0  0  0  0  0  0  0  0  0
   37.7960   31.1810   45.2640 C   0  0  0  0  0  0  0  0  0  0  0  0
   36.8840   30.6710   46.1120 N   0  0  0  0  0  0  0  0  0  0  0  0
   36.8140   30.9800   47.4110 C   0  0  0  0  0  0  0  0  0  0  0  0
   36.0190   31.2160   50.5610 H   0  0  0  0  0  0  0  0  0  0  0  0
   37.8960   30.9690   44.2230 H   0  0  0  0  0  0  0  0  0  0  0  0
   39.6060   33.3280   47.5930 N   0  0  0  0  0  0  0  0  0  0  0  0
   39.4180   34.0890   48.2850 H   0  0  0  0  0  0  0  0  0  0  0  0
   40.6140   33.3250   47.2980 H   0  0  0  0  0  0  0  0  0  0  0  0
   31.5550   27.1590   47.9130 C   0  0  0  0  0  0  0  0  0  0  0  0
   30.6110   27.3090   49.0930 C   0  0  0  0  0  0  0  0  0  0  0  0
   29.7490   27.9660   48.8830 H   0  0  0  0  0  0  0  0  0  0  0  0
   31.2180   27.6670   49.9530 H   0  0  0  0  0  0  0  0  0  0  0  0
   30.2580   26.2820   49.3810 H   0  0  0  0  0  0  0  0  0  0  0  0
   30.7480   27.5740   46.6930 C   0  0  0  0  0  0  0  0  0  0  0  0
   31.3480   27.5860   45.7620 H   0  0  0  0  0  0  0  0  0  0  0  0
   30.4030   28.6330   46.8240 H   0  0  0  0  0  0  0  0  0  0  0  0
   29.8690   26.9280   46.6390 H   0  0  0  0  0  0  0  0  0  0  0  0
   31.9230   25.7050   47.7150 C   0  0  0  0  0  0  0  0  0  0  0  0
   31.0450   25.0540   47.6280 H   0  0  0  0  0  0  0  0  0  0  0  0
   32.4910   25.4040   48.6320 H   0  0  0  0  0  0  0  0  0  0  0  0
   32.8500   25.5430   46.6150 N   0  0  0  0  0  0  0  0  0  0  0  0
   32.8210   25.8360   45.3080 C   0  0  0  0  0  3  0  0  0  0  0  0
   34.0160   25.4510   44.7110 C   0  0  0  0  0  3  0  0  0  0  0  0
   34.7760   24.9110   45.7030 N   0  0  0  0  0  0  0  0  0  0  0  0
   34.0650   24.9750   46.8270 C   0  0  0  0  0  3  0  0  0  0  0  0
  1  2  1  0  0  0  0
  2  9  1  0  0  0  0
  2  3  2  0  0  0  0
  3  8  1  0  0  0  0
  4  3  1  0  0  0  0
  5  4  2  0  0  0  0
  6  1  2  0  0  0  0
  6  5  1  0  0  0  0
  7  1  1  0  0  0  0
  9 10  1  0  0  0  0
 10 18  1  0  0  0  0
 11 10  2  0  0  0  0
 12 11  1  0  0  0  0
 13 20  1  0  0  0  0
 13 12  2  0  0  0  0
 14 13  1  0  0  0  0
 15 14  2  0  0  0  0
 15 16  1  0  0  0  0
 16 17  2  0  0  0  0
 17 12  1  0  0  0  0
 17  9  1  0  0  0  0
 19 15  1  0  0  0  0
 20 21  1  0  0  0  0
 22 20  1  0  0  0  0
 23  5  1  0  0  0  0
 23 24  1  0  0  0  0
 24 27  1  0  0  0  0
 24 26  1  0  0  0  0
 25 24  1  0  0  0  0
 28 30  1  0  0  0  0
 28 23  1  0  0  0  0
 29 28  1  0  0  0  0
 31 28  1  0  0  0  0
 32 23  1  0  0  0  0
 32 34  1  0  0  0  0
 33 32  1  0  0  0  0
 35 39  1  0  0  0  0
 35 32  1  0  0  0  0
 36 35  1  0  0  0  0
 37 36  2  0  0  0  0
 37 38  1  0  0  0  0
 38 39  2  0  0  0  0
M  END
>  <minimizedAffinity>
-5.15319729

>  <minimizedRMSD>
1.27692139

$$$$
