
 OpenBabel03252514063D

 26 28  0  0  0  0  0  0  0  0999 V2000
   38.5140   32.1500   47.6490 N   0  0  0  0  0  0  0  0  0  0  0  0
   39.1150   33.2980   48.0460 C   0  0  0  0  0  0  0  0  0  0  0  0
   39.9250   33.7350   47.0540 N   0  0  0  0  0  0  0  0  0  0  0  0
   39.8180   32.8530   46.0510 C   0  0  0  0  0  0  0  0  0  0  0  0
   40.3840   32.7500   44.7980 C   0  0  0  0  0  0  0  0  0  0  0  0
   40.0880   31.7250   43.9720 N   0  0  0  0  0  0  0  0  0  0  0  0
   39.2250   30.7510   44.3270 C   0  0  0  0  0  0  0  0  0  0  0  0
   38.6790   30.8620   45.5530 N   0  0  0  0  0  0  0  0  0  0  0  0
   38.9360   31.8510   46.4080 C   0  0  0  0  0  0  0  0  0  0  0  0
   41.2980   33.7370   44.3580 N   0  0  0  0  0  0  0  0  0  0  0  0
   38.9680   33.7800   48.9970 H   0  0  0  0  0  0  0  0  0  0  0  0
   39.0070   29.9410   43.6420 H   0  0  0  0  0  0  0  0  0  0  0  0
   41.1940   34.2890   43.4680 H   0  0  0  0  0  0  0  0  0  0  0  0
   42.1410   33.9460   44.9470 H   0  0  0  0  0  0  0  0  0  0  0  0
   36.4620   30.8650   47.8100 C   0  0  0  0  0  0  0  0  0  0  0  0
   37.5960   31.4180   48.4470 C   0  0  0  0  0  0  0  0  0  0  0  0
   37.7150   31.1980   49.8130 C   0  0  0  0  0  0  0  0  0  0  0  0
   36.7550   30.4760   50.4490 N   0  0  0  0  0  0  0  0  0  0  0  0
   35.6930   29.9630   49.8220 C   0  0  0  0  0  0  0  0  0  0  0  0
   35.5450   30.1590   48.4910 N   0  0  0  0  0  0  0  0  0  0  0  0
   36.2900   30.9890   46.7370 H   0  0  0  0  0  0  0  0  0  0  0  0
   38.5850   31.6240   50.3010 H   0  0  0  0  0  0  0  0  0  0  0  0
   34.7060   29.1890   50.6240 C   0  0  0  0  0  0  0  0  0  0  0  0
   34.4790   27.9230   50.1010 F   0  0  0  0  0  0  0  0  0  0  0  0
   33.5090   29.8370   50.7890 F   0  0  0  0  0  0  0  0  0  0  0  0
   35.1920   28.9570   51.9150 F   0  0  0  0  0  0  0  0  0  0  0  0
  1  2  1  0  0  0  0
  1 16  1  0  0  0  0
  2 11  1  0  0  0  0
  3  2  2  0  0  0  0
  4  9  1  0  0  0  0
  4  3  1  0  0  0  0
  5  4  2  0  0  0  0
  6  7  2  0  0  0  0
  6  5  1  0  0  0  0
  7  8  1  0  0  0  0
  8  9  2  0  0  0  0
  9  1  1  0  0  0  0
 10  5  1  0  0  0  0
 10 14  1  0  0  0  0
 12  7  1  0  0  0  0
 13 10  1  0  0  0  0
 15 16  2  0  0  0  0
 15 20  1  0  0  0  0
 16 17  1  0  0  0  0
 17 22  1  0  0  0  0
 17 18  2  0  0  0  0
 19 18  1  0  0  0  0
 19 23  1  0  0  0  0
 20 19  2  0  0  0  0
 21 15  1  0  0  0  0
 23 25  1  0  0  0  0
 23 26  1  0  0  0  0
 24 23  1  0  0  0  0
M  END
>  <minimizedAffinity>
-4.50051212

>  <minimizedRMSD>
1.64016473

$$$$
