
 OpenBabel03252513493D

 28 30  0  0  0  0  0  0  0  0999 V2000
   36.7750   29.6020   49.0750 C   0  0  0  0  0  0  0  0  0  0  0  0
   37.6880   30.3650   48.2560 C   0  0  0  0  0  0  0  0  0  0  0  0
   37.2150   30.8290   47.0220 C   0  0  0  0  0  0  0  0  0  0  0  0
   35.9420   30.5290   46.6880 N   0  0  0  0  0  0  0  0  0  0  0  0
   35.1260   29.8210   47.4690 C   0  0  0  0  0  0  0  0  0  0  0  0
   35.5310   29.3630   48.6430 N   0  0  0  0  0  0  0  0  0  0  0  0
   38.6900   30.5730   48.5720 H   0  0  0  0  0  0  0  0  0  0  0  0
   33.7610   29.5990   46.9190 C   0  0  0  0  0  0  0  0  0  0  0  0
   33.1250   30.8140   46.6790 F   0  0  0  0  0  0  0  0  0  0  0  0
   33.8520   28.9560   45.7010 F   0  0  0  0  0  0  0  0  0  0  0  0
   32.9800   28.7920   47.7490 F   0  0  0  0  0  0  0  0  0  0  0  0
   38.0990   31.6020   46.1650 C   0  0  0  0  0  0  0  0  0  0  0  0
   39.0280   32.2750   46.6610 O   0  0  0  0  0  0  0  0  0  0  0  0
   38.8460   29.1930   41.1160 H   0  0  0  0  0  0  0  0  0  0  0  0
   38.8230   29.4330   42.1430 N   0  0  0  0  0  0  0  0  0  0  0  0
   39.2920   28.7180   43.2070 C   0  0  0  0  0  0  0  0  0  0  0  0
   39.0390   29.4190   44.3160 N   0  0  0  0  0  0  0  0  0  0  0  0
   38.4200   30.5640   43.9810 C   0  0  0  0  0  0  0  0  0  0  0  0
   37.9460   31.6280   44.7130 C   0  0  0  0  0  0  0  0  0  0  0  0
   37.3620   32.6430   44.0500 N   0  0  0  0  0  0  0  0  0  0  0  0
   37.2270   32.6550   42.7110 C   0  0  0  0  0  0  0  0  0  0  0  0
   37.6950   31.6090   42.0070 N   0  0  0  0  0  0  0  0  0  0  0  0
   38.2780   30.5840   42.6100 C   0  0  0  0  0  0  0  0  0  0  0  0
   37.2430   29.1460   50.2870 O   0  0  0  0  0  0  0  0  0  0  0  0
   37.0580   29.8100   51.4930 C   0  0  0  0  0  0  0  0  0  0  0  0
   37.9380   29.3820   52.4920 F   0  0  0  0  0  0  0  0  0  0  0  0
   37.0700   31.1810   51.4140 F   0  0  0  0  0  0  0  0  0  0  0  0
   35.7820   29.4310   51.9230 F   0  0  0  0  0  0  0  0  0  0  0  0
  1 24  1  0  0  0  0
  2  7  1  0  0  0  0
  2  1  2  0  0  0  0
  3  2  1  0  0  0  0
  4  3  2  0  0  0  0
  4  5  1  0  0  0  0
  5  6  2  0  0  0  0
  6  1  1  0  0  0  0
  8  5  1  0  0  0  0
  8 11  1  0  0  0  0
  9  8  1  0  0  0  0
 10  8  1  0  0  0  0
 12 13  2  0  0  0  0
 12  3  1  0  0  0  0
 14 15  1  0  0  0  0
 15 23  1  0  0  0  0
 15 16  1  0  0  0  0
 16 17  2  0  0  0  0
 18 17  1  0  0  0  0
 18 19  1  0  0  0  0
 19 12  1  0  0  0  0
 20 19  2  0  0  0  0
 21 20  1  0  0  0  0
 22 23  1  0  0  0  0
 22 21  2  0  0  0  0
 23 18  2  0  0  0  0
 24 25  1  0  0  0  0
 25 28  1  0  0  0  0
 25 26  1  0  0  0  0
 27 25  1  0  0  0  0
M  END
>  <minimizedAffinity>
-6.09332037

>  <minimizedRMSD>
4.70317364

$$$$
