
 OpenBabel03252514003D

 29 31  0  0  1  0  0  0  0  0999 V2000
   35.8250   29.8510   49.8110 C   0  0  2  0  0  0  0  0  0  0  0  0
   35.0670   29.1550   50.8600 C   0  0  0  0  0  0  0  0  0  0  0  0
   35.0970   28.5190   49.5450 C   0  0  1  0  0  0  0  0  0  0  0  0
   35.4270   30.7480   49.3660 H   0  0  0  0  0  0  0  0  0  0  0  0
   35.6260   28.5810   51.6590 H   0  0  0  0  0  0  0  0  0  0  0  0
   34.1000   29.5630   51.2590 H   0  0  0  0  0  0  0  0  0  0  0  0
   35.7650   27.7610   49.1240 H   0  0  0  0  0  0  0  0  0  0  0  0
   37.3420   29.6710   49.8030 C   0  0  0  0  0  0  0  0  0  0  0  0
   37.6300   28.7690   49.2310 H   0  0  0  0  0  0  0  0  0  0  0  0
   37.6640   29.6210   50.8570 H   0  0  0  0  0  0  0  0  0  0  0  0
   38.6340   33.0630   49.3020 C   0  0  0  0  0  0  0  0  0  0  0  0
   39.0300   33.0520   47.9560 C   0  0  0  0  0  0  0  0  0  0  0  0
   38.8450   31.8620   47.2300 C   0  0  0  0  0  0  0  0  0  0  0  0
   38.2890   30.7850   47.8770 N   0  0  0  0  0  0  0  0  0  0  0  0
   37.9290   30.8490   49.1620 C   0  0  0  0  0  0  0  0  0  0  0  0
   38.1060   31.9930   49.8620 N   0  0  0  0  0  0  0  0  0  0  0  0
   38.8200   34.0210   49.7650 H   0  0  0  0  0  0  0  0  0  0  0  0
   39.4720   33.8630   47.3910 H   0  0  0  0  0  0  0  0  0  0  0  0
   39.1220   31.7670   46.1900 H   0  0  0  0  0  0  0  0  0  0  0  0
   33.8020   28.5920   48.7800 C   0  0  0  0  0  0  0  0  0  0  0  0
   33.9190   29.0740   47.5840 O   0  0  0  0  0  0  0  0  0  0  0  0
   32.5520   28.1940   49.2270 O   0  0  0  0  0  0  0  0  0  0  0  0
   31.7380   27.4820   48.3580 C   0  0  0  0  0  0  0  0  0  0  0  0
   32.0770   26.2070   47.8960 C   0  0  0  0  0  0  0  0  0  0  0  0
   31.2450   25.5180   47.0270 C   0  0  0  0  0  0  0  0  0  0  0  0
   30.0520   26.1060   46.6080 C   0  0  0  0  0  0  0  0  0  0  0  0
   29.4420   25.5240   45.9300 H   0  0  0  0  0  0  0  0  0  0  0  0
   29.7530   27.3650   47.0860 C   0  0  0  0  0  0  0  0  0  0  0  0
   30.5770   28.0140   47.9290 N   0  0  0  0  0  0  0  0  0  0  0  0
  1  4  1  6  0  0  0
  1  2  1  0  0  0  0
  2  6  1  0  0  0  0
  2  5  1  0  0  0  0
  3  7  1  6  0  0  0
  3  1  1  0  0  0  0
  3  2  1  0  0  0  0
  8  1  1  0  0  0  0
  8 10  1  0  0  0  0
  9  8  1  0  0  0  0
 11 17  1  0  0  0  0
 11 16  1  0  0  0  0
 12 11  2  0  0  0  0
 13 14  2  0  0  0  0
 13 12  1  0  0  0  0
 14 15  1  0  0  0  0
 15  8  1  0  0  0  0
 15 16  2  0  0  0  0
 18 12  1  0  0  0  0
 19 13  1  0  0  0  0
 20 22  1  0  0  0  0
 20  3  1  0  0  0  0
 21 20  2  0  0  0  0
 23 22  1  0  0  0  0
 24 23  2  0  0  0  0
 25 24  1  0  0  0  0
 26 25  2  0  0  0  0
 26 28  1  0  0  0  0
 27 26  1  0  0  0  0
 28 29  2  0  0  0  0
 29 23  1  0  0  0  0
M  END
>  <minimizedAffinity>
-5.02121401

>  <minimizedRMSD>
0.998653591

$$$$
