
 OpenBabel03252514083D

 39 42  0  0  0  0  0  0  0  0999 V2000
   34.0560   29.8970   47.5100 C   0  0  0  0  0  0  0  0  0  0  0  0
   35.0490   29.6550   48.4790 C   0  0  0  0  0  0  0  0  0  0  0  0
   34.9540   28.4520   49.1710 C   0  0  0  0  0  0  0  0  0  0  0  0
   33.9440   27.5940   48.8910 N   0  0  0  0  0  0  0  0  0  0  0  0
   33.0150   27.8420   47.9690 C   0  0  0  0  0  0  0  0  0  0  0  0
   33.0810   29.0020   47.2830 N   0  0  0  0  0  0  0  0  0  0  0  0
   34.0980   30.8270   46.9500 H   0  0  0  0  0  0  0  0  0  0  0  0
   35.7090   28.2570   49.9150 H   0  0  0  0  0  0  0  0  0  0  0  0
   36.0480   30.6360   48.6740 N   0  0  0  0  0  0  0  0  0  0  0  0
   36.2760   31.2590   49.8660 C   0  0  0  0  0  0  0  0  0  0  0  0
   37.2930   32.1370   49.7160 N   0  0  0  0  0  0  0  0  0  0  0  0
   37.6830   32.0470   48.4370 C   0  0  0  0  0  0  0  0  0  0  0  0
   38.6610   32.6800   47.6920 C   0  0  0  0  0  0  0  0  0  0  0  0
   38.8460   32.3980   46.3980 N   0  0  0  0  0  0  0  0  0  0  0  0
   38.0830   31.4710   45.7430 C   0  0  0  0  0  0  0  0  0  0  0  0
   37.1330   30.8610   46.4770 N   0  0  0  0  0  0  0  0  0  0  0  0
   36.9120   31.1100   47.7720 C   0  0  0  0  0  0  0  0  0  0  0  0
   35.7940   31.1560   50.8310 H   0  0  0  0  0  0  0  0  0  0  0  0
   38.3010   31.3110   44.7110 H   0  0  0  0  0  0  0  0  0  0  0  0
   39.4830   33.6470   48.3150 N   0  0  0  0  0  0  0  0  0  0  0  0
   39.1690   34.3630   49.0100 H   0  0  0  0  0  0  0  0  0  0  0  0
   40.5130   33.7300   48.1240 H   0  0  0  0  0  0  0  0  0  0  0  0
   31.9040   26.9240   47.6440 C   0  0  0  0  0  0  0  0  0  0  0  0
   30.8280   27.0180   48.7120 C   0  0  0  0  0  0  0  0  0  0  0  0
   29.9610   27.6270   48.4060 H   0  0  0  0  0  0  0  0  0  0  0  0
   31.3160   27.4030   49.6340 H   0  0  0  0  0  0  0  0  0  0  0  0
   30.5020   25.9710   48.9590 H   0  0  0  0  0  0  0  0  0  0  0  0
   31.2170   27.3020   46.3420 C   0  0  0  0  0  0  0  0  0  0  0  0
   31.9150   27.3510   45.4830 H   0  0  0  0  0  0  0  0  0  0  0  0
   30.8020   28.3390   46.4330 H   0  0  0  0  0  0  0  0  0  0  0  0
   30.3860   26.6090   46.1900 H   0  0  0  0  0  0  0  0  0  0  0  0
   32.3710   25.4940   47.4890 C   0  0  0  0  0  0  0  0  0  0  0  0
   31.5390   24.7840   47.4120 H   0  0  0  0  0  0  0  0  0  0  0  0
   32.9480   25.2560   48.4200 H   0  0  0  0  0  0  0  0  0  0  0  0
   33.3190   25.3660   46.4030 N   0  0  0  0  0  0  0  0  0  0  0  0
   33.4100   25.8730   45.1670 C   0  0  0  0  0  3  0  0  0  0  0  0
   34.5580   25.3980   44.5440 C   0  0  0  0  0  3  0  0  0  0  0  0
   35.1650   24.5800   45.4480 N   0  0  0  0  0  0  0  0  0  0  0  0
   34.4140   24.5740   46.5470 C   0  0  0  0  0  3  0  0  0  0  0  0
  1  2  1  0  0  0  0
  2  9  1  0  0  0  0
  2  3  2  0  0  0  0
  3  8  1  0  0  0  0
  4  3  1  0  0  0  0
  5  4  2  0  0  0  0
  6  1  2  0  0  0  0
  6  5  1  0  0  0  0
  7  1  1  0  0  0  0
  9 10  1  0  0  0  0
 10 18  1  0  0  0  0
 11 10  2  0  0  0  0
 12 11  1  0  0  0  0
 13 20  1  0  0  0  0
 13 12  2  0  0  0  0
 14 13  1  0  0  0  0
 15 14  2  0  0  0  0
 15 16  1  0  0  0  0
 16 17  2  0  0  0  0
 17 12  1  0  0  0  0
 17  9  1  0  0  0  0
 19 15  1  0  0  0  0
 20 21  1  0  0  0  0
 22 20  1  0  0  0  0
 23  5  1  0  0  0  0
 23 24  1  0  0  0  0
 24 27  1  0  0  0  0
 24 26  1  0  0  0  0
 25 24  1  0  0  0  0
 28 30  1  0  0  0  0
 28 23  1  0  0  0  0
 29 28  1  0  0  0  0
 31 28  1  0  0  0  0
 32 23  1  0  0  0  0
 32 34  1  0  0  0  0
 33 32  1  0  0  0  0
 35 39  1  0  0  0  0
 35 32  1  0  0  0  0
 36 35  1  0  0  0  0
 37 36  2  0  0  0  0
 37 38  1  0  0  0  0
 38 39  2  0  0  0  0
M  END
>  <minimizedAffinity>
-5.25046682

>  <minimizedRMSD>
0.83882004

$$$$
