
 OpenBabel03252514083D

 39 42  0  0  0  0  0  0  0  0999 V2000
   34.4370   30.1150   47.5160 C   0  0  0  0  0  0  0  0  0  0  0  0
   35.4210   29.9280   48.5050 C   0  0  0  0  0  0  0  0  0  0  0  0
   35.3930   28.7110   49.1780 C   0  0  0  0  0  0  0  0  0  0  0  0
   34.4520   27.7900   48.8630 N   0  0  0  0  0  0  0  0  0  0  0  0
   33.5290   27.9870   47.9230 C   0  0  0  0  0  0  0  0  0  0  0  0
   33.5300   29.1590   47.2530 N   0  0  0  0  0  0  0  0  0  0  0  0
   34.4260   31.0540   46.9690 H   0  0  0  0  0  0  0  0  0  0  0  0
   36.1420   28.5570   49.9380 H   0  0  0  0  0  0  0  0  0  0  0  0
   36.3460   30.9720   48.7350 N   0  0  0  0  0  0  0  0  0  0  0  0
   36.3600   31.7350   49.8660 C   0  0  0  0  0  0  0  0  0  0  0  0
   37.3610   32.6390   49.7740 N   0  0  0  0  0  0  0  0  0  0  0  0
   37.9540   32.4260   48.5910 C   0  0  0  0  0  0  0  0  0  0  0  0
   39.0180   33.0190   47.9380 C   0  0  0  0  0  0  0  0  0  0  0  0
   39.4170   32.6040   46.7310 N   0  0  0  0  0  0  0  0  0  0  0  0
   38.7970   31.5740   46.0790 C   0  0  0  0  0  0  0  0  0  0  0  0
   37.7610   31.0030   46.7230 N   0  0  0  0  0  0  0  0  0  0  0  0
   37.3280   31.3850   47.9290 C   0  0  0  0  0  0  0  0  0  0  0  0
   35.7340   31.7170   50.7500 H   0  0  0  0  0  0  0  0  0  0  0  0
   39.1820   31.3100   45.1200 H   0  0  0  0  0  0  0  0  0  0  0  0
   39.7000   34.0890   48.5630 N   0  0  0  0  0  0  0  0  0  0  0  0
   39.2570   34.8620   49.1110 H   0  0  0  0  0  0  0  0  0  0  0  0
   40.7440   34.2000   48.5260 H   0  0  0  0  0  0  0  0  0  0  0  0
   32.4910   27.0000   47.5600 C   0  0  0  0  0  0  0  0  0  0  0  0
   31.3740   27.0250   48.5880 C   0  0  0  0  0  0  0  0  0  0  0  0
   30.4810   27.5780   48.2490 H   0  0  0  0  0  0  0  0  0  0  0  0
   31.8010   27.4410   49.5260 H   0  0  0  0  0  0  0  0  0  0  0  0
   31.1050   25.9600   48.8260 H   0  0  0  0  0  0  0  0  0  0  0  0
   31.8300   27.3330   46.2330 C   0  0  0  0  0  0  0  0  0  0  0  0
   32.5550   27.4260   45.4000 H   0  0  0  0  0  0  0  0  0  0  0  0
   31.3470   28.3420   46.3060 H   0  0  0  0  0  0  0  0  0  0  0  0
   31.0510   26.5880   46.0530 H   0  0  0  0  0  0  0  0  0  0  0  0
   33.0540   25.6030   47.4270 C   0  0  0  0  0  0  0  0  0  0  0  0
   32.2850   24.8270   47.5190 H   0  0  0  0  0  0  0  0  0  0  0  0
   33.7770   25.4800   48.2740 H   0  0  0  0  0  0  0  0  0  0  0  0
   33.8440   25.4670   46.2220 N   0  0  0  0  0  0  0  0  0  0  0  0
   33.9200   26.1380   45.0650 C   0  0  0  0  0  3  0  0  0  0  0  0
   34.8760   25.5540   44.2420 C   0  0  0  0  0  3  0  0  0  0  0  0
   35.3820   24.5010   44.9410 N   0  0  0  0  0  0  0  0  0  0  0  0
   34.7550   24.4660   46.1160 C   0  0  0  0  0  3  0  0  0  0  0  0
  1  2  1  0  0  0  0
  2  9  1  0  0  0  0
  2  3  2  0  0  0  0
  3  8  1  0  0  0  0
  4  3  1  0  0  0  0
  5  4  2  0  0  0  0
  6  1  2  0  0  0  0
  6  5  1  0  0  0  0
  7  1  1  0  0  0  0
  9 10  1  0  0  0  0
 10 18  1  0  0  0  0
 11 10  2  0  0  0  0
 12 11  1  0  0  0  0
 13 20  1  0  0  0  0
 13 12  1  0  0  0  0
 14 13  2  0  0  0  0
 15 16  2  0  0  0  0
 15 14  1  0  0  0  0
 16 17  1  0  0  0  0
 17 12  2  0  0  0  0
 17  9  1  0  0  0  0
 19 15  1  0  0  0  0
 20 21  1  0  0  0  0
 22 20  1  0  0  0  0
 23  5  1  0  0  0  0
 23 24  1  0  0  0  0
 24 27  1  0  0  0  0
 24 26  1  0  0  0  0
 25 24  1  0  0  0  0
 28 30  1  0  0  0  0
 28 23  1  0  0  0  0
 29 28  1  0  0  0  0
 31 28  1  0  0  0  0
 32 33  1  0  0  0  0
 32 23  1  0  0  0  0
 32 34  1  0  0  0  0
 35 32  1  0  0  0  0
 36 35  1  0  0  0  0
 37 38  1  0  0  0  0
 37 36  2  0  0  0  0
 38 39  2  0  0  0  0
 39 35  1  0  0  0  0
M  END
>  <minimizedAffinity>
-5.36073017

>  <minimizedRMSD>
0.47816503

$$$$
