
 OpenBabel03252513383D

 23 23  0  0  0  0  0  0  0  0999 V2000
   36.9060   29.9520   49.8940 C   0  0  0  0  0  0  0  0  0  0  0  0
   37.9970   30.6890   49.4540 C   0  0  0  0  0  0  0  0  0  0  0  0
   37.9960   31.1550   48.1370 C   0  0  0  0  0  0  0  0  0  0  0  0
   36.9310   30.8650   47.3590 N   0  0  0  0  0  0  0  0  0  0  0  0
   35.8870   30.1430   47.8260 C   0  0  0  0  0  0  0  0  0  0  0  0
   35.8900   29.6990   49.0850 N   0  0  0  0  0  0  0  0  0  0  0  0
   39.0780   31.9040   47.6480 N   0  0  0  0  0  0  0  0  0  0  0  0
   39.0080   32.5870   46.4180 C   0  0  0  0  0  0  0  0  0  0  0  0
   37.9220   32.5310   45.7450 N   0  0  0  0  0  0  0  0  0  0  0  0
   40.1270   33.3170   45.9500 N   0  0  0  0  0  0  0  0  0  0  0  0
   37.8490   33.0650   44.8390 H   0  0  0  0  0  0  0  0  0  0  0  0
   38.8320   30.9030   50.1000 H   0  0  0  0  0  0  0  0  0  0  0  0
   39.9540   31.9680   48.1900 H   0  0  0  0  0  0  0  0  0  0  0  0
   40.0640   33.9070   45.0880 H   0  0  0  0  0  0  0  0  0  0  0  0
   41.0390   33.2810   46.4570 H   0  0  0  0  0  0  0  0  0  0  0  0
   36.9080   29.4480   51.3180 C   0  0  0  0  0  0  0  0  0  0  0  0
   35.6090   29.1430   51.6870 F   0  0  0  0  0  0  0  0  0  0  0  0
   37.7710   28.4000   51.4020 F   0  0  0  0  0  0  0  0  0  0  0  0
   37.3480   30.4970   52.1160 F   0  0  0  0  0  0  0  0  0  0  0  0
   34.7280   29.8440   46.9330 C   0  0  0  0  0  0  0  0  0  0  0  0
   34.3970   28.5060   47.0620 F   0  0  0  0  0  0  0  0  0  0  0  0
   33.6470   30.6480   47.2250 F   0  0  0  0  0  0  0  0  0  0  0  0
   35.0870   30.1070   45.6140 F   0  0  0  0  0  0  0  0  0  0  0  0
  1 16  1  0  0  0  0
  2  1  1  0  0  0  0
  2 12  1  0  0  0  0
  3  2  2  0  0  0  0
  4  5  2  0  0  0  0
  4  3  1  0  0  0  0
  5  6  1  0  0  0  0
  6  1  2  0  0  0  0
  7  3  1  0  0  0  0
  7 13  1  0  0  0  0
  8  7  1  0  0  0  0
  9  8  2  0  0  0  0
 10  8  1  0  0  0  0
 10 15  1  0  0  0  0
 11  9  1  0  0  0  0
 14 10  1  0  0  0  0
 16 18  1  0  0  0  0
 16 17  1  0  0  0  0
 16 19  1  0  0  0  0
 20 21  1  0  0  0  0
 20 22  1  0  0  0  0
 20  5  1  0  0  0  0
 23 20  1  0  0  0  0
M  END
>  <minimizedAffinity>
-6.49577808

>  <minimizedRMSD>
0.363873243

$$$$
