
 OpenBabel03252514063D

 26 28  0  0  0  0  0  0  0  0999 V2000
   38.5610   32.1410   47.6400 N   0  0  0  0  0  0  0  0  0  0  0  0
   39.1490   33.2970   48.0330 C   0  0  0  0  0  0  0  0  0  0  0  0
   39.9460   33.7450   47.0350 N   0  0  0  0  0  0  0  0  0  0  0  0
   39.8430   32.8630   46.0320 C   0  0  0  0  0  0  0  0  0  0  0  0
   40.4010   32.7670   44.7750 C   0  0  0  0  0  0  0  0  0  0  0  0
   40.1120   31.7390   43.9500 N   0  0  0  0  0  0  0  0  0  0  0  0
   39.2660   30.7530   44.3120 C   0  0  0  0  0  0  0  0  0  0  0  0
   38.7270   30.8570   45.5420 N   0  0  0  0  0  0  0  0  0  0  0  0
   38.9770   31.8480   46.3960 C   0  0  0  0  0  0  0  0  0  0  0  0
   41.2980   33.7670   44.3280 N   0  0  0  0  0  0  0  0  0  0  0  0
   39.0030   33.7770   48.9850 H   0  0  0  0  0  0  0  0  0  0  0  0
   39.0520   29.9400   43.6290 H   0  0  0  0  0  0  0  0  0  0  0  0
   41.1790   34.3170   43.4390 H   0  0  0  0  0  0  0  0  0  0  0  0
   42.1430   33.9870   44.9110 H   0  0  0  0  0  0  0  0  0  0  0  0
   36.4840   30.9020   47.8350 C   0  0  0  0  0  0  0  0  0  0  0  0
   37.6590   31.3970   48.4440 C   0  0  0  0  0  0  0  0  0  0  0  0
   37.8310   31.1130   49.7930 C   0  0  0  0  0  0  0  0  0  0  0  0
   36.8800   30.3860   50.4380 N   0  0  0  0  0  0  0  0  0  0  0  0
   35.7790   29.9290   49.8370 C   0  0  0  0  0  0  0  0  0  0  0  0
   35.5790   30.1890   48.5240 N   0  0  0  0  0  0  0  0  0  0  0  0
   36.2690   31.0790   46.7770 H   0  0  0  0  0  0  0  0  0  0  0  0
   38.7320   31.4950   50.2600 H   0  0  0  0  0  0  0  0  0  0  0  0
   34.8070   29.1450   50.6470 C   0  0  0  0  0  0  0  0  0  0  0  0
   35.2260   28.9790   51.9600 F   0  0  0  0  0  0  0  0  0  0  0  0
   34.5050   27.9230   50.1050 F   0  0  0  0  0  0  0  0  0  0  0  0
   33.5880   29.8240   50.7490 F   0  0  0  0  0  0  0  0  0  0  0  0
  1  2  1  0  0  0  0
  1 16  1  0  0  0  0
  2 11  1  0  0  0  0
  3  2  2  0  0  0  0
  4  9  1  0  0  0  0
  4  3  1  0  0  0  0
  5  4  2  0  0  0  0
  6  7  2  0  0  0  0
  6  5  1  0  0  0  0
  7  8  1  0  0  0  0
  8  9  2  0  0  0  0
  9  1  1  0  0  0  0
 10  5  1  0  0  0  0
 10 14  1  0  0  0  0
 12  7  1  0  0  0  0
 13 10  1  0  0  0  0
 15 16  2  0  0  0  0
 15 20  1  0  0  0  0
 16 17  1  0  0  0  0
 17 22  1  0  0  0  0
 17 18  2  0  0  0  0
 19 18  1  0  0  0  0
 19 23  1  0  0  0  0
 20 19  2  0  0  0  0
 21 15  1  0  0  0  0
 23 26  1  0  0  0  0
 23 24  1  0  0  0  0
 25 23  1  0  0  0  0
M  END
>  <minimizedAffinity>
-4.47566938

>  <minimizedRMSD>
1.64918375

$$$$
