
 OpenBabel03252513003D

 20 21  0  0  0  0  0  0  0  0999 V2000
   36.8050   30.9320   47.6850 C   0  0  0  0  0  0  0  0  0  0  0  0
   36.3290   30.4260   46.8210 H   0  0  0  0  0  0  0  0  0  0  0  0
   36.4410   31.9950   47.6300 H   0  0  0  0  0  0  0  0  0  0  0  0
   36.5980   29.3870   51.1310 C   0  0  0  0  0  0  0  0  0  0  0  0
   37.1810   29.9700   49.9830 C   0  0  0  0  0  0  0  0  0  0  0  0
   36.3460   30.3320   48.9430 C   0  0  0  0  0  0  0  0  0  0  0  0
   34.9990   30.1080   49.0780 N   0  0  0  0  0  0  0  0  0  0  0  0
   34.4670   29.5560   50.1690 C   0  0  0  0  0  0  0  0  0  0  0  0
   35.2520   29.1960   51.1900 N   0  0  0  0  0  0  0  0  0  0  0  0
   37.2760   29.1140   51.9280 H   0  0  0  0  0  0  0  0  0  0  0  0
   38.2280   30.1440   49.8770 H   0  0  0  0  0  0  0  0  0  0  0  0
   33.4060   29.3770   50.2800 H   0  0  0  0  0  0  0  0  0  0  0  0
   38.3000   30.9730   47.5590 C   0  0  0  0  0  0  0  0  0  0  0  0
   38.5010   30.7710   46.4730 H   0  0  0  0  0  0  0  0  0  0  0  0
   38.8020   30.1380   48.0870 H   0  0  0  0  0  0  0  0  0  0  0  0
   38.8570   32.2550   47.8800 N   0  0  0  0  0  0  0  0  0  0  0  0
   38.7810   33.0670   48.9260 C   0  0  0  0  0  0  0  0  0  0  0  0
   39.4980   34.2320   48.7800 C   0  0  0  0  0  0  0  0  0  0  0  0
   40.0640   34.1350   47.5470 N   0  0  0  0  0  0  0  0  0  0  0  0
   39.6680   32.9500   47.0320 C   0  0  0  0  0  0  0  0  0  0  0  0
  1  6  1  0  0  0  0
  2  1  1  0  0  0  0
  3  1  1  0  0  0  0
  4  9  1  0  0  0  0
  4 10  1  0  0  0  0
  5  4  2  0  0  0  0
  6  7  2  0  0  0  0
  6  5  1  0  0  0  0
  7  8  1  0  0  0  0
  8 12  1  0  0  0  0
  8  9  2  0  0  0  0
 11  5  1  0  0  0  0
 13  1  1  0  0  0  0
 13 16  1  0  0  0  0
 13 15  1  0  0  0  0
 14 13  1  0  0  0  0
 16 17  1  0  0  0  0
 18 17  2  0  0  0  0
 19 18  1  0  0  0  0
 20 19  2  0  0  0  0
 20 16  1  0  0  0  0
M  END
>  <minimizedAffinity>
-3.91227198

>  <minimizedRMSD>
2.1255877

$$$$
