
 OpenBabel03252514063D

 26 28  0  0  0  0  0  0  0  0999 V2000
   38.0360   31.8870   46.4760 N   0  0  0  0  0  0  0  0  0  0  0  0
   39.2210   32.5210   46.6540 C   0  0  0  0  0  0  0  0  0  0  0  0
   39.6500   32.9920   45.4600 N   0  0  0  0  0  0  0  0  0  0  0  0
   38.7260   32.6450   44.5530 C   0  0  0  0  0  0  0  0  0  0  0  0
   38.5970   32.8320   43.1930 C   0  0  0  0  0  0  0  0  0  0  0  0
   37.5310   32.3610   42.5140 N   0  0  0  0  0  0  0  0  0  0  0  0
   36.5390   31.6840   43.1280 C   0  0  0  0  0  0  0  0  0  0  0  0
   36.6760   31.5070   44.4550 N   0  0  0  0  0  0  0  0  0  0  0  0
   37.7060   31.9500   45.1750 C   0  0  0  0  0  0  0  0  0  0  0  0
   39.6010   33.5350   42.4840 N   0  0  0  0  0  0  0  0  0  0  0  0
   39.7330   32.6300   47.5940 H   0  0  0  0  0  0  0  0  0  0  0  0
   35.6950   31.3180   42.5560 H   0  0  0  0  0  0  0  0  0  0  0  0
   39.4220   34.3800   41.8820 H   0  0  0  0  0  0  0  0  0  0  0  0
   40.5950   33.2050   42.5520 H   0  0  0  0  0  0  0  0  0  0  0  0
   36.2670   30.3760   47.1670 C   0  0  0  0  0  0  0  0  0  0  0  0
   37.3010   31.2720   47.5230 C   0  0  0  0  0  0  0  0  0  0  0  0
   37.5100   31.4780   48.8810 C   0  0  0  0  0  0  0  0  0  0  0  0
   36.7250   30.8180   49.7740 N   0  0  0  0  0  0  0  0  0  0  0  0
   35.7550   29.9750   49.4090 C   0  0  0  0  0  0  0  0  0  0  0  0
   35.5240   29.7520   48.0950 N   0  0  0  0  0  0  0  0  0  0  0  0
   36.0360   30.1550   46.1200 H   0  0  0  0  0  0  0  0  0  0  0  0
   38.3020   32.1660   49.1530 H   0  0  0  0  0  0  0  0  0  0  0  0
   34.9600   29.3100   50.4780 C   0  0  0  0  0  0  0  0  0  0  0  0
   33.7260   29.9160   50.6720 F   0  0  0  0  0  0  0  0  0  0  0  0
   35.6190   29.2220   51.6760 F   0  0  0  0  0  0  0  0  0  0  0  0
   34.6530   27.9950   50.1170 F   0  0  0  0  0  0  0  0  0  0  0  0
  1  2  1  0  0  0  0
  1 16  1  0  0  0  0
  2 11  1  0  0  0  0
  3  2  2  0  0  0  0
  4  9  1  0  0  0  0
  4  3  1  0  0  0  0
  5  4  2  0  0  0  0
  6  7  2  0  0  0  0
  6  5  1  0  0  0  0
  7  8  1  0  0  0  0
  8  9  2  0  0  0  0
  9  1  1  0  0  0  0
 10 14  1  0  0  0  0
 10  5  1  0  0  0  0
 12  7  1  0  0  0  0
 13 10  1  0  0  0  0
 15 16  2  0  0  0  0
 15 20  1  0  0  0  0
 16 17  1  0  0  0  0
 17 22  1  0  0  0  0
 17 18  2  0  0  0  0
 19 18  1  0  0  0  0
 19 23  1  0  0  0  0
 20 19  2  0  0  0  0
 21 15  1  0  0  0  0
 23 24  1  0  0  0  0
 23 25  1  0  0  0  0
 26 23  1  0  0  0  0
M  END
>  <minimizedAffinity>
-5.56035137

>  <minimizedRMSD>
2.70884967

$$$$
