
 OpenBabel03252512593D

 38 41  0  0  0  0  0  0  0  0999 V2000
   38.2150   32.6900   49.7210 C   0  0  0  0  0  0  0  0  0  0  0  0
   38.8740   33.1010   48.5340 C   0  0  0  0  0  0  0  0  0  0  0  0
   38.5590   32.4110   47.3510 C   0  0  0  0  0  0  0  0  0  0  0  0
   37.6420   31.3800   47.3720 N   0  0  0  0  0  0  0  0  0  0  0  0
   37.0520   31.0430   48.5450 C   0  0  0  0  0  0  0  0  0  0  0  0
   37.3200   31.6720   49.7010 N   0  0  0  0  0  0  0  0  0  0  0  0
   36.1200   29.9790   48.5110 N   0  0  0  0  0  0  0  0  0  0  0  0
   35.1260   29.9280   47.4560 C   0  0  0  0  0  0  0  0  0  0  0  0
   33.7800   29.8300   48.1720 C   0  0  0  0  0  0  0  0  0  0  0  0
   33.7950   28.9190   49.2170 O   0  0  0  0  0  0  0  0  0  0  0  0
   34.8940   28.0760   49.2020 C   0  0  0  0  0  0  0  0  0  0  0  0
   36.1310   28.9300   49.5120 C   0  0  0  0  0  0  0  0  0  0  0  0
   38.4450   33.2110   50.6410 H   0  0  0  0  0  0  0  0  0  0  0  0
   39.5830   33.8990   48.5180 H   0  0  0  0  0  0  0  0  0  0  0  0
   35.1360   30.8290   46.8420 H   0  0  0  0  0  0  0  0  0  0  0  0
   35.2310   28.9890   46.8920 H   0  0  0  0  0  0  0  0  0  0  0  0
   33.4340   30.8390   48.5010 H   0  0  0  0  0  0  0  0  0  0  0  0
   33.0350   29.4680   47.4290 H   0  0  0  0  0  0  0  0  0  0  0  0
   34.7410   27.3420   50.0230 H   0  0  0  0  0  0  0  0  0  0  0  0
   35.0370   27.5060   48.2800 H   0  0  0  0  0  0  0  0  0  0  0  0
   36.1040   29.2730   50.5430 H   0  0  0  0  0  0  0  0  0  0  0  0
   36.9910   28.2610   49.2810 H   0  0  0  0  0  0  0  0  0  0  0  0
   39.1930   32.7710   46.0850 C   0  0  0  0  0  0  0  0  0  0  0  0
   40.1810   33.6230   45.7620 N   0  0  0  0  0  0  0  0  0  0  0  0
   40.3820   33.5830   44.4810 O   0  0  0  0  0  0  0  0  0  0  0  0
   39.5580   32.7310   43.9520 C   0  0  0  0  0  0  0  0  0  0  0  0
   38.7720   32.1790   44.9270 N   0  0  0  0  0  0  0  0  0  0  0  0
   39.4160   32.3560   42.5770 N   0  0  0  0  0  0  0  0  0  0  0  0
   38.9900   33.2220   41.6620 N   0  0  0  0  0  0  0  0  0  0  0  0
   38.9510   32.6060   40.4650 C   0  0  0  0  0  0  0  0  0  0  0  0
   39.3790   31.2920   40.6720 C   0  0  0  0  0  0  0  0  0  0  0  0
   39.6600   31.1800   42.0060 C   0  0  0  0  0  0  0  0  0  0  0  0
   38.6550   32.9880   39.4770 H   0  0  0  0  0  0  0  0  0  0  0  0
   39.4840   30.4850   39.9430 H   0  0  0  0  0  0  0  0  0  0  0  0
   40.1480   29.9510   42.6780 C   0  0  0  0  0  0  0  0  0  0  0  0
   39.1960   29.4370   43.5410 F   0  0  0  0  0  0  0  0  0  0  0  0
   41.2680   30.2760   43.4150 F   0  0  0  0  0  0  0  0  0  0  0  0
   40.4260   28.9440   41.7650 F   0  0  0  0  0  0  0  0  0  0  0  0
  1 13  1  0  0  0  0
  2  1  2  0  0  0  0
  3  4  2  0  0  0  0
  3  2  1  0  0  0  0
  4  5  1  0  0  0  0
  5  6  2  0  0  0  0
  6  1  1  0  0  0  0
  7  5  1  0  0  0  0
  7 12  1  0  0  0  0
  8  9  1  0  0  0  0
  8  7  1  0  0  0  0
  9 17  1  0  0  0  0
  9 10  1  0  0  0  0
 11 10  1  0  0  0  0
 11 12  1  0  0  0  0
 11 19  1  0  0  0  0
 12 21  1  0  0  0  0
 14  2  1  0  0  0  0
 15  8  1  0  0  0  0
 16  8  1  0  0  0  0
 18  9  1  0  0  0  0
 20 11  1  0  0  0  0
 22 12  1  0  0  0  0
 23  3  1  0  0  0  0
 24 23  2  0  0  0  0
 25 24  1  0  0  0  0
 26 25  1  0  0  0  0
 26 27  2  0  0  0  0
 27 23  1  0  0  0  0
 28 26  1  0  0  0  0
 29 28  1  0  0  0  0
 30 31  1  0  0  0  0
 30 29  2  0  0  0  0
 31 32  2  0  0  0  0
 32 28  1  0  0  0  0
 32 35  1  0  0  0  0
 33 30  1  0  0  0  0
 34 31  1  0  0  0  0
 35 37  1  0  0  0  0
 35 36  1  0  0  0  0
 38 35  1  0  0  0  0
M  END
>  <minimizedAffinity>
-6.61043692

>  <minimizedRMSD>
1.23861217

$$$$
