
 OpenBabel03252514073D

 44 47  0  0  0  0  0  0  0  0999 V2000
   34.0560   30.0570   47.3300 C   0  0  0  0  0  0  0  0  0  0  0  0
   35.0190   29.7300   48.2960 C   0  0  0  0  0  0  0  0  0  0  0  0
   34.9370   28.4600   48.8310 C   0  0  0  0  0  0  0  0  0  0  0  0
   33.9710   27.6090   48.4250 N   0  0  0  0  0  0  0  0  0  0  0  0
   33.0590   27.9580   47.4920 C   0  0  0  0  0  0  0  0  0  0  0  0
   33.1110   29.1750   46.9560 N   0  0  0  0  0  0  0  0  0  0  0  0
   34.0170   31.0240   46.8370 H   0  0  0  0  0  0  0  0  0  0  0  0
   35.6720   28.1900   49.5780 H   0  0  0  0  0  0  0  0  0  0  0  0
   35.9830   30.7120   48.6390 N   0  0  0  0  0  0  0  0  0  0  0  0
   36.0660   31.3070   49.8590 C   0  0  0  0  0  0  0  0  0  0  0  0
   37.0960   32.1870   49.8320 N   0  0  0  0  0  0  0  0  0  0  0  0
   37.6330   32.1290   48.6110 C   0  0  0  0  0  0  0  0  0  0  0  0
   38.6870   32.7810   48.0040 C   0  0  0  0  0  0  0  0  0  0  0  0
   39.0290   32.5340   46.7380 N   0  0  0  0  0  0  0  0  0  0  0  0
   38.3520   31.6220   45.9760 C   0  0  0  0  0  0  0  0  0  0  0  0
   37.3270   30.9940   46.5830 N   0  0  0  0  0  0  0  0  0  0  0  0
   36.9490   31.2080   47.8450 C   0  0  0  0  0  0  0  0  0  0  0  0
   35.4520   31.1530   50.7400 H   0  0  0  0  0  0  0  0  0  0  0  0
   38.6340   31.4230   44.9420 H   0  0  0  0  0  0  0  0  0  0  0  0
   39.4270   33.7380   48.7430 N   0  0  0  0  0  0  0  0  0  0  0  0
   39.2550   33.9310   49.7540 H   0  0  0  0  0  0  0  0  0  0  0  0
   40.1880   34.3020   48.3020 H   0  0  0  0  0  0  0  0  0  0  0  0
   31.9830   27.0300   47.0290 C   0  0  0  0  0  0  0  0  0  0  0  0
   31.4200   26.2870   48.2550 C   0  0  0  0  0  0  0  0  0  0  0  0
   31.1800   26.9980   49.0580 H   0  0  0  0  0  0  0  0  0  0  0  0
   32.1920   25.5970   48.6660 H   0  0  0  0  0  0  0  0  0  0  0  0
   30.5050   25.7520   48.0020 H   0  0  0  0  0  0  0  0  0  0  0  0
   30.8130   27.8070   46.4730 C   0  0  0  0  0  0  0  0  0  0  0  0
   30.4840   28.5790   47.2250 H   0  0  0  0  0  0  0  0  0  0  0  0
   29.9660   27.1340   46.2980 H   0  0  0  0  0  0  0  0  0  0  0  0
   31.0560   28.3920   45.5620 H   0  0  0  0  0  0  0  0  0  0  0  0
   32.4570   26.0620   46.0040 C   0  0  0  0  0  0  0  0  0  0  0  0
   32.2120   26.3950   44.9630 H   0  0  0  0  0  0  0  0  0  0  0  0
   33.5830   26.0550   46.0270 H   0  0  0  0  0  0  0  0  0  0  0  0
   32.0050   24.7040   46.2020 N   0  0  0  0  0  0  0  0  0  0  0  0
   30.7830   24.3820   45.6940 C   0  0  0  0  0  3  0  0  0  0  0  0
   30.2040   23.1340   45.7840 C   0  0  0  0  0  0  0  0  0  0  0  0
   28.8580   22.8690   45.1990 C   0  0  0  0  0  1  0  0  0  0  0  0
   30.8960   22.1380   46.4290 C   0  0  0  0  0  0  0  0  0  0  0  0
   30.3930   20.9880   46.5270 O   0  0  0  0  0  0  0  0  0  0  0  0
   32.0890   22.4770   46.9170 N   0  0  0  0  0  0  0  0  0  0  0  0
   32.6420   23.6950   46.8230 C   0  0  0  0  0  0  0  0  0  0  0  0
   33.7540   23.9520   47.2970 O   0  0  0  0  0  0  0  0  0  0  0  0
   32.6630   21.7660   47.4160 H   0  0  0  0  0  0  0  0  0  0  0  0
  1  2  1  0  0  0  0
  2  9  1  0  0  0  0
  2  3  2  0  0  0  0
  3  8  1  0  0  0  0
  4  3  1  0  0  0  0
  5  4  2  0  0  0  0
  6  1  2  0  0  0  0
  6  5  1  0  0  0  0
  7  1  1  0  0  0  0
  9 10  1  0  0  0  0
 10 18  1  0  0  0  0
 11 10  2  0  0  0  0
 12 11  1  0  0  0  0
 13 12  1  0  0  0  0
 13 20  1  0  0  0  0
 14 13  2  0  0  0  0
 15 16  2  0  0  0  0
 15 14  1  0  0  0  0
 16 17  1  0  0  0  0
 17 12  2  0  0  0  0
 17  9  1  0  0  0  0
 19 15  1  0  0  0  0
 20 21  1  0  0  0  0
 22 20  1  0  0  0  0
 23  5  1  0  0  0  0
 23 24  1  0  0  0  0
 24 26  1  0  0  0  0
 24 25  1  0  0  0  0
 27 24  1  0  0  0  0
 28 23  1  0  0  0  0
 28 29  1  0  0  0  0
 30 28  1  0  0  0  0
 31 28  1  0  0  0  0
 32 34  1  0  0  0  0
 32 35  1  0  0  0  0
 32 23  1  0  0  0  0
 33 32  1  0  0  0  0
 35 42  1  0  0  0  0
 36 37  2  0  0  0  0
 36 35  1  0  0  0  0
 37 39  1  0  0  0  0
 38 37  1  0  0  0  0
 39 40  2  0  0  0  0
 39 41  1  0  0  0  0
 41 44  1  0  0  0  0
 42 41  1  0  0  0  0
 42 43  2  0  0  0  0
M  END
>  <minimizedAffinity>
-5.62355042

>  <minimizedRMSD>
0.901845813

$$$$
