
 OpenBabel03252514083D

 44 47  0  0  0  0  0  0  0  0999 V2000
   34.5980   29.8450   47.2310 C   0  0  0  0  0  0  0  0  0  0  0  0
   35.3680   29.7320   48.3980 C   0  0  0  0  0  0  0  0  0  0  0  0
   35.2050   28.5680   49.1250 C   0  0  0  0  0  0  0  0  0  0  0  0
   34.3450   27.6170   48.7050 N   0  0  0  0  0  0  0  0  0  0  0  0
   33.6180   27.7600   47.5750 C   0  0  0  0  0  0  0  0  0  0  0  0
   33.7530   28.8690   46.8530 N   0  0  0  0  0  0  0  0  0  0  0  0
   34.6380   30.7110   46.5780 H   0  0  0  0  0  0  0  0  0  0  0  0
   35.7910   28.4640   50.0270 H   0  0  0  0  0  0  0  0  0  0  0  0
   36.2360   30.8020   48.7330 N   0  0  0  0  0  0  0  0  0  0  0  0
   36.1560   31.5180   49.8860 C   0  0  0  0  0  0  0  0  0  0  0  0
   37.1350   32.4550   49.8730 N   0  0  0  0  0  0  0  0  0  0  0  0
   37.8040   32.3100   48.7250 C   0  0  0  0  0  0  0  0  0  0  0  0
   38.8820   32.9640   48.1650 C   0  0  0  0  0  0  0  0  0  0  0  0
   39.3710   32.6140   46.9740 N   0  0  0  0  0  0  0  0  0  0  0  0
   38.8300   31.5910   46.2460 C   0  0  0  0  0  0  0  0  0  0  0  0
   37.7780   30.9630   46.8070 N   0  0  0  0  0  0  0  0  0  0  0  0
   37.2560   31.2770   47.9950 C   0  0  0  0  0  0  0  0  0  0  0  0
   35.4590   31.4140   50.7110 H   0  0  0  0  0  0  0  0  0  0  0  0
   39.2320   31.3090   45.2730 H   0  0  0  0  0  0  0  0  0  0  0  0
   39.4870   34.0340   48.8710 N   0  0  0  0  0  0  0  0  0  0  0  0
   39.1970   34.3150   49.8330 H   0  0  0  0  0  0  0  0  0  0  0  0
   40.2600   34.5990   48.4540 H   0  0  0  0  0  0  0  0  0  0  0  0
   32.6610   26.7170   47.0940 C   0  0  0  0  0  0  0  0  0  0  0  0
   31.6320   26.4490   48.2090 C   0  0  0  0  0  0  0  0  0  0  0  0
   31.2210   27.3960   48.5860 H   0  0  0  0  0  0  0  0  0  0  0  0
   32.1330   25.9570   49.0740 H   0  0  0  0  0  0  0  0  0  0  0  0
   30.8010   25.8500   47.8390 H   0  0  0  0  0  0  0  0  0  0  0  0
   31.8490   27.2370   45.9320 C   0  0  0  0  0  0  0  0  0  0  0  0
   31.3780   28.2210   46.2120 H   0  0  0  0  0  0  0  0  0  0  0  0
   31.0390   26.5370   45.6990 H   0  0  0  0  0  0  0  0  0  0  0  0
   32.4540   27.4650   45.0290 H   0  0  0  0  0  0  0  0  0  0  0  0
   33.3370   25.4550   46.6920 C   0  0  0  0  0  0  0  0  0  0  0  0
   34.0480   25.6090   45.8410 H   0  0  0  0  0  0  0  0  0  0  0  0
   33.9990   25.1290   47.5420 H   0  0  0  0  0  0  0  0  0  0  0  0
   32.4410   24.3620   46.3890 N   0  0  0  0  0  0  0  0  0  0  0  0
   31.7510   24.4390   45.2180 C   0  0  0  0  0  3  0  0  0  0  0  0
   30.8640   23.4830   44.7700 C   0  0  0  0  0  0  0  0  0  0  0  0
   30.1490   23.6490   43.4720 C   0  0  0  0  0  1  0  0  0  0  0  0
   30.6530   22.3710   45.5490 C   0  0  0  0  0  0  0  0  0  0  0  0
   29.8490   21.4820   45.1650 O   0  0  0  0  0  0  0  0  0  0  0  0
   31.3410   22.3190   46.6900 N   0  0  0  0  0  0  0  0  0  0  0  0
   32.2000   23.2550   47.1150 C   0  0  0  0  0  0  0  0  0  0  0  0
   32.8100   23.1530   48.1860 O   0  0  0  0  0  0  0  0  0  0  0  0
   31.2240   21.5010   47.3240 H   0  0  0  0  0  0  0  0  0  0  0  0
  1  2  1  0  0  0  0
  2  9  1  0  0  0  0
  2  3  2  0  0  0  0
  3  8  1  0  0  0  0
  4  3  1  0  0  0  0
  5  4  2  0  0  0  0
  6  1  2  0  0  0  0
  6  5  1  0  0  0  0
  7  1  1  0  0  0  0
  9 10  1  0  0  0  0
 10 18  1  0  0  0  0
 11 10  2  0  0  0  0
 12 11  1  0  0  0  0
 13 12  1  0  0  0  0
 13 20  1  0  0  0  0
 14 13  2  0  0  0  0
 15 16  2  0  0  0  0
 15 14  1  0  0  0  0
 16 17  1  0  0  0  0
 17 12  2  0  0  0  0
 17  9  1  0  0  0  0
 19 15  1  0  0  0  0
 20 21  1  0  0  0  0
 22 20  1  0  0  0  0
 23  5  1  0  0  0  0
 23 24  1  0  0  0  0
 24 25  1  0  0  0  0
 24 26  1  0  0  0  0
 27 24  1  0  0  0  0
 28 29  1  0  0  0  0
 28 23  1  0  0  0  0
 30 28  1  0  0  0  0
 31 28  1  0  0  0  0
 32 23  1  0  0  0  0
 32 34  1  0  0  0  0
 33 32  1  0  0  0  0
 35 32  1  0  0  0  0
 35 42  1  0  0  0  0
 36 35  1  0  0  0  0
 37 36  2  0  0  0  0
 37 39  1  0  0  0  0
 38 37  1  0  0  0  0
 39 41  1  0  0  0  0
 40 39  2  0  0  0  0
 41 42  1  0  0  0  0
 41 44  1  0  0  0  0
 42 43  2  0  0  0  0
M  END
>  <minimizedAffinity>
-5.54917002

>  <minimizedRMSD>
0.475600749

$$$$
