
 OpenBabel03252512043D

 32 33  0  0  0  0  0  0  0  0999 V2000
   37.1440   32.1040   49.6330 C   0  0  0  0  0  0  0  0  0  0  0  0
   37.8730   32.7170   50.2600 H   0  0  0  0  0  0  0  0  0  0  0  0
   36.2680   32.7230   49.5060 H   0  0  0  0  0  0  0  0  0  0  0  0
   37.9270   31.8330   48.3910 C   0  0  0  0  0  0  0  0  0  0  0  0
   37.9060   30.6120   47.7820 C   0  0  0  0  0  0  0  0  0  0  0  0
   38.6530   30.3620   46.6490 C   0  0  0  0  0  0  0  0  0  0  0  0
   39.4100   31.3850   46.1620 N   0  0  0  0  0  0  0  0  0  0  0  0
   39.4360   32.5740   46.7460 C   0  0  0  0  0  0  0  0  0  0  0  0
   38.7080   32.8040   47.8440 N   0  0  0  0  0  0  0  0  0  0  0  0
   37.3300   29.7910   48.1230 H   0  0  0  0  0  0  0  0  0  0  0  0
   38.6430   29.3850   46.1530 H   0  0  0  0  0  0  0  0  0  0  0  0
   40.2710   33.6800   46.1970 C   0  0  0  0  0  0  0  0  0  0  0  0
   39.8460   34.6560   46.5610 H   0  0  0  0  0  0  0  0  0  0  0  0
   41.3110   33.6610   46.5350 H   0  0  0  0  0  0  0  0  0  0  0  0
   40.1360   33.7290   44.6700 C   0  0  0  0  0  0  0  0  0  0  0  0
   39.8800   34.7250   44.3030 H   0  0  0  0  0  0  0  0  0  0  0  0
   39.4330   32.9210   44.3240 H   0  0  0  0  0  0  0  0  0  0  0  0
   41.1310   33.4390   44.2730 H   0  0  0  0  0  0  0  0  0  0  0  0
   36.9280   30.7660   50.2810 C   0  0  0  0  0  0  0  0  0  0  0  0
   37.9060   30.2580   50.4430 H   0  0  0  0  0  0  0  0  0  0  0  0
   36.6170   31.0220   51.3460 H   0  0  0  0  0  0  0  0  0  0  0  0
   35.8010   28.6470   49.8180 C   0  0  0  0  0  0  0  0  0  0  0  0
   35.8670   30.0280   49.6970 C   0  0  0  0  0  0  0  0  0  0  0  0
   34.8660   30.6460   49.0090 C   0  0  0  0  0  0  0  0  0  0  0  0
   33.8310   29.9310   48.4580 N   0  0  0  0  0  0  0  0  0  0  0  0
   33.7900   28.5920   48.5910 C   0  0  0  0  0  0  0  0  0  0  0  0
   34.7630   27.9750   49.2610 N   0  0  0  0  0  0  0  0  0  0  0  0
   36.5880   28.1400   50.3600 H   0  0  0  0  0  0  0  0  0  0  0  0
   34.7290   31.6900   48.7950 H   0  0  0  0  0  0  0  0  0  0  0  0
   32.6740   27.7920   48.0000 C   0  0  0  0  0  0  0  0  0  0  0  0
   33.1140   26.4050   47.6230 C   0  0  0  0  0  0  0  0  0  0  0  0
   31.5800   27.7580   49.0620 C   0  0  0  0  0  0  0  0  0  0  0  0
  1  2  1  0  0  0  0
  1 19  1  0  0  0  0
  3  1  1  0  0  0  0
  4  1  1  0  0  0  0
  5 10  1  0  0  0  0
  5  4  2  0  0  0  0
  6  5  1  0  0  0  0
  7  6  2  0  0  0  0
  7  8  1  0  0  0  0
  8  9  2  0  0  0  0
  9  4  1  0  0  0  0
 11  6  1  0  0  0  0
 12 14  1  0  0  0  0
 12 13  1  0  0  0  0
 12  8  1  0  0  0  0
 15 12  1  0  0  0  0
 16 15  1  0  0  0  0
 17 15  1  0  0  0  0
 18 15  1  0  0  0  0
 19 20  1  0  0  0  0
 19 21  1  0  0  0  0
 22 28  1  0  0  0  0
 23 22  1  0  0  0  0
 23 19  1  0  0  0  0
 24 23  2  0  0  0  0
 25 26  2  0  0  0  0
 25 24  1  0  0  0  0
 26 27  1  0  0  0  0
 27 22  2  0  0  0  0
 29 24  1  0  0  0  0
 30 26  1  0  0  0  0
 30 32  1  0  0  0  0
 31 30  1  0  0  0  0
M  END
>  <minimizedAffinity>
-4.98498058

>  <minimizedRMSD>
1.79749727

$$$$
