
 OpenBabel03252510383D

 24 25  0  0  0  0  0  0  0  0999 V2000
   36.9520   29.0680   50.0730 C   0  0  0  0  0  0  0  0  0  0  0  0
   37.8320   30.1530   49.8630 C   0  0  0  0  0  0  0  0  0  0  0  0
   37.4520   31.1220   48.8990 C   0  0  0  0  0  0  0  0  0  0  0  0
   36.2670   30.9080   48.2670 N   0  0  0  0  0  0  0  0  0  0  0  0
   35.4540   29.8810   48.4800 C   0  0  0  0  0  0  0  0  0  0  0  0
   35.7900   28.9540   49.3840 N   0  0  0  0  0  0  0  0  0  0  0  0
   38.2400   32.2510   48.5700 N   0  0  0  0  0  0  0  0  0  0  0  0
   38.2580   33.3820   49.4950 C   0  0  0  0  0  0  0  0  0  0  0  0
   39.5270   34.1630   49.3320 C   0  0  0  0  0  0  0  0  0  0  0  0
   39.8030   34.4730   47.9580 N   0  0  0  0  0  0  0  0  0  0  0  0
   39.8070   33.3970   47.0500 C   0  0  0  0  0  0  0  0  0  0  0  0
   38.9790   32.1990   47.3420 C   0  0  0  0  0  0  0  0  0  0  0  0
   37.2640   28.3360   50.8180 H   0  0  0  0  0  0  0  0  0  0  0  0
   38.7620   30.2970   50.3760 H   0  0  0  0  0  0  0  0  0  0  0  0
   34.5470   29.8630   47.8890 H   0  0  0  0  0  0  0  0  0  0  0  0
   38.2240   33.0480   50.5500 H   0  0  0  0  0  0  0  0  0  0  0  0
   37.3970   34.0480   49.2420 H   0  0  0  0  0  0  0  0  0  0  0  0
   39.4590   35.0760   49.9680 H   0  0  0  0  0  0  0  0  0  0  0  0
   40.3490   33.5060   49.7410 H   0  0  0  0  0  0  0  0  0  0  0  0
   40.0060   35.3820   47.4920 H   0  0  0  0  0  0  0  0  0  0  0  0
   40.3530   33.3300   46.1220 H   0  0  0  0  0  0  0  0  0  0  0  0
   38.9830   31.1000   46.3930 C   0  0  0  0  0  0  0  0  0  0  0  0
   40.2890   30.8200   45.7040 C   0  0  0  0  0  0  0  0  0  0  0  0
   37.8780   31.1390   45.3510 C   0  0  0  0  0  0  0  0  0  0  0  0
  1 13  1  0  0  0  0
  2  1  1  0  0  0  0
  2 14  1  0  0  0  0
  3  2  2  0  0  0  0
  4  5  2  0  0  0  0
  4  3  1  0  0  0  0
  5  6  1  0  0  0  0
  6  1  2  0  0  0  0
  7  3  1  0  0  0  0
  7  8  1  0  0  0  0
  8 16  1  0  0  0  0
  9  8  1  0  0  0  0
  9 19  1  0  0  0  0
  9 18  1  0  0  0  0
 10  9  1  0  0  0  0
 11 12  2  0  0  0  0
 11 10  1  0  0  0  0
 12  7  1  0  0  0  0
 15  5  1  0  0  0  0
 17  8  1  0  0  0  0
 20 10  1  0  0  0  0
 21 11  1  0  0  0  0
 22 12  1  0  0  0  0
 23 22  1  0  0  0  0
 24 22  1  0  0  0  0
M  END
>  <minimizedAffinity>
-5.43029642

>  <minimizedRMSD>
1.25022542

$$$$
