
 OpenBabel03252514083D

 44 47  0  0  0  0  0  0  0  0999 V2000
   34.4660   30.1200   47.5740 C   0  0  0  0  0  0  0  0  0  0  0  0
   35.4520   29.9420   48.5570 C   0  0  0  0  0  0  0  0  0  0  0  0
   35.4340   28.7320   49.2240 C   0  0  0  0  0  0  0  0  0  0  0  0
   34.5070   27.8000   48.9210 N   0  0  0  0  0  0  0  0  0  0  0  0
   33.5720   28.0060   47.9670 C   0  0  0  0  0  0  0  0  0  0  0  0
   33.5630   29.1600   47.3070 N   0  0  0  0  0  0  0  0  0  0  0  0
   34.3790   31.0270   46.9840 H   0  0  0  0  0  0  0  0  0  0  0  0
   36.1860   28.5770   49.9850 H   0  0  0  0  0  0  0  0  0  0  0  0
   36.3700   30.9980   48.7830 N   0  0  0  0  0  0  0  0  0  0  0  0
   36.3840   31.7710   49.9020 C   0  0  0  0  0  0  0  0  0  0  0  0
   37.3870   32.6740   49.7810 N   0  0  0  0  0  0  0  0  0  0  0  0
   37.9770   32.4540   48.6030 C   0  0  0  0  0  0  0  0  0  0  0  0
   39.0350   33.0450   47.9440 C   0  0  0  0  0  0  0  0  0  0  0  0
   39.4360   32.6240   46.7440 N   0  0  0  0  0  0  0  0  0  0  0  0
   38.8200   31.5850   46.1030 C   0  0  0  0  0  0  0  0  0  0  0  0
   37.7900   31.0170   46.7590 N   0  0  0  0  0  0  0  0  0  0  0  0
   37.3530   31.4050   47.9600 C   0  0  0  0  0  0  0  0  0  0  0  0
   35.7390   31.7290   50.7730 H   0  0  0  0  0  0  0  0  0  0  0  0
   39.1510   31.2430   45.1220 H   0  0  0  0  0  0  0  0  0  0  0  0
   39.7140   34.1280   48.5570 N   0  0  0  0  0  0  0  0  0  0  0  0
   39.4940   34.4630   49.5200 H   0  0  0  0  0  0  0  0  0  0  0  0
   40.4750   34.6470   48.0650 H   0  0  0  0  0  0  0  0  0  0  0  0
   32.5380   26.9850   47.6180 C   0  0  0  0  0  0  0  0  0  0  0  0
   31.3290   27.1750   48.5530 C   0  0  0  0  0  0  0  0  0  0  0  0
   31.0270   28.2310   48.5780 H   0  0  0  0  0  0  0  0  0  0  0  0
   31.6130   26.9040   49.5970 H   0  0  0  0  0  0  0  0  0  0  0  0
   30.4740   26.5930   48.2110 H   0  0  0  0  0  0  0  0  0  0  0  0
   31.9980   27.2290   46.2290 C   0  0  0  0  0  0  0  0  0  0  0  0
   31.6570   28.3000   46.1410 H   0  0  0  0  0  0  0  0  0  0  0  0
   31.1270   26.5900   46.0480 H   0  0  0  0  0  0  0  0  0  0  0  0
   32.7560   27.1120   45.4260 H   0  0  0  0  0  0  0  0  0  0  0  0
   33.0510   25.5910   47.7030 C   0  0  0  0  0  0  0  0  0  0  0  0
   34.0110   25.5290   48.2770 H   0  0  0  0  0  0  0  0  0  0  0  0
   32.3270   24.9910   48.3210 H   0  0  0  0  0  0  0  0  0  0  0  0
   33.1990   24.9240   46.4290 N   0  0  0  0  0  0  0  0  0  0  0  0
   34.3460   25.1690   45.7360 C   0  0  0  0  0  3  0  0  0  0  0  0
   34.6530   24.6120   44.5130 C   0  0  0  0  0  0  0  0  0  0  0  0
   35.9350   24.9370   43.8230 C   0  0  0  0  0  1  0  0  0  0  0  0
   33.7490   23.7480   43.9430 C   0  0  0  0  0  0  0  0  0  0  0  0
   34.0040   23.2250   42.8270 O   0  0  0  0  0  0  0  0  0  0  0  0
   32.6350   23.5250   44.6400 N   0  0  0  0  0  0  0  0  0  0  0  0
   32.3480   24.0740   45.8280 C   0  0  0  0  0  0  0  0  0  0  0  0
   31.2950   23.8290   46.4290 O   0  0  0  0  0  0  0  0  0  0  0  0
   31.9120   22.8800   44.2610 H   0  0  0  0  0  0  0  0  0  0  0  0
  1  2  1  0  0  0  0
  2  9  1  0  0  0  0
  2  3  2  0  0  0  0
  3  8  1  0  0  0  0
  4  3  1  0  0  0  0
  5  4  2  0  0  0  0
  6  1  2  0  0  0  0
  6  5  1  0  0  0  0
  7  1  1  0  0  0  0
  9 10  1  0  0  0  0
 10 18  1  0  0  0  0
 11 10  2  0  0  0  0
 12 11  1  0  0  0  0
 13 20  1  0  0  0  0
 13 12  2  0  0  0  0
 14 13  1  0  0  0  0
 15 14  2  0  0  0  0
 15 16  1  0  0  0  0
 16 17  2  0  0  0  0
 17 12  1  0  0  0  0
 17  9  1  0  0  0  0
 19 15  1  0  0  0  0
 20 21  1  0  0  0  0
 22 20  1  0  0  0  0
 23 32  1  0  0  0  0
 23  5  1  0  0  0  0
 23 24  1  0  0  0  0
 24 25  1  0  0  0  0
 24 26  1  0  0  0  0
 27 24  1  0  0  0  0
 28 23  1  0  0  0  0
 29 28  1  0  0  0  0
 30 28  1  0  0  0  0
 31 28  1  0  0  0  0
 32 33  1  0  0  0  0
 32 34  1  0  0  0  0
 35 32  1  0  0  0  0
 36 35  1  0  0  0  0
 37 36  2  0  0  0  0
 38 37  1  0  0  0  0
 39 37  1  0  0  0  0
 39 41  1  0  0  0  0
 40 39  2  0  0  0  0
 41 42  1  0  0  0  0
 42 35  1  0  0  0  0
 42 43  2  0  0  0  0
 44 41  1  0  0  0  0
M  END
>  <minimizedAffinity>
-5.51933289

>  <minimizedRMSD>
1.94313645

$$$$
