
 OpenBabel03252512163D

 34 37  0  0  0  0  0  0  0  0999 V2000
   32.2810   30.1750   46.0890 C   0  0  0  0  0  0  0  0  0  0  0  0
   31.9010   28.8280   46.1040 C   0  0  0  0  0  0  0  0  0  0  0  0
   32.7870   27.9020   46.6830 C   0  0  0  0  0  0  0  0  0  0  0  0
   33.9600   28.3460   47.1960 N   0  0  0  0  0  0  0  0  0  0  0  0
   34.3020   29.6600   47.1680 C   0  0  0  0  0  0  0  0  0  0  0  0
   33.4630   30.5660   46.6160 N   0  0  0  0  0  0  0  0  0  0  0  0
   31.6340   30.9220   45.6570 H   0  0  0  0  0  0  0  0  0  0  0  0
   30.9740   28.4960   45.6940 H   0  0  0  0  0  0  0  0  0  0  0  0
   35.5820   30.0380   47.7450 C   0  0  0  0  0  0  0  0  0  0  0  0
   36.6270   30.5880   47.0130 C   0  0  0  0  0  0  0  0  0  0  0  0
   37.6650   30.8260   47.8240 N   0  0  0  0  0  0  0  0  0  0  0  0
   37.3260   30.4450   49.0670 C   0  0  0  0  0  0  0  0  0  0  0  0
   38.0260   30.4730   50.2760 C   0  0  0  0  0  0  0  0  0  0  0  0
   37.3920   29.9980   51.4250 C   0  0  0  0  0  0  0  0  0  0  0  0
   36.1100   29.5200   51.3460 C   0  0  0  0  0  0  0  0  0  0  0  0
   35.3760   29.4740   50.1600 C   0  0  0  0  0  0  0  0  0  0  0  0
   36.0330   29.9540   49.0310 C   0  0  0  0  0  0  0  0  0  0  0  0
   36.6530   30.8130   45.9410 H   0  0  0  0  0  0  0  0  0  0  0  0
   38.5930   31.2440   47.5180 H   0  0  0  0  0  0  0  0  0  0  0  0
   39.0370   30.8680   50.2550 H   0  0  0  0  0  0  0  0  0  0  0  0
   37.9510   30.0300   52.3500 H   0  0  0  0  0  0  0  0  0  0  0  0
   35.6680   29.1640   52.2690 H   0  0  0  0  0  0  0  0  0  0  0  0
   34.3700   29.0930   50.1310 H   0  0  0  0  0  0  0  0  0  0  0  0
   32.4390   26.4890   46.7220 C   0  0  0  0  0  0  0  0  0  0  0  0
   33.2540   25.6200   47.3970 C   0  0  0  0  0  0  0  0  0  0  0  0
   32.8560   24.2960   47.3890 C   0  0  0  0  0  0  0  0  0  0  0  0
   31.7330   23.8790   46.7580 N   0  0  0  0  0  0  0  0  0  0  0  0
   30.9420   24.7740   46.0940 C   0  0  0  0  0  0  0  0  0  0  0  0
   31.3250   26.0790   46.0950 N   0  0  0  0  0  0  0  0  0  0  0  0
   34.1610   25.9080   47.9150 H   0  0  0  0  0  0  0  0  0  0  0  0
   33.4450   23.5430   47.8990 H   0  0  0  0  0  0  0  0  0  0  0  0
   29.7070   24.3250   45.3970 C   0  0  0  0  0  0  0  0  0  0  0  0
   28.5270   25.0720   45.9280 C   0  0  0  0  0  0  0  0  0  0  0  0
   29.6080   22.8360   45.6470 C   0  0  0  0  0  0  0  0  0  0  0  0
  1  2  2  0  0  0  0
  1  6  1  0  0  0  0
  2  3  1  0  0  0  0
  3 24  1  0  0  0  0
  3  4  2  0  0  0  0
  5  4  1  0  0  0  0
  5  9  1  0  0  0  0
  6  5  2  0  0  0  0
  7  1  1  0  0  0  0
  8  2  1  0  0  0  0
  9 17  1  0  0  0  0
 10  9  2  0  0  0  0
 10 11  1  0  0  0  0
 11 12  1  0  0  0  0
 12 13  1  0  0  0  0
 13 14  2  0  0  0  0
 14 21  1  0  0  0  0
 15 14  1  0  0  0  0
 15 22  1  0  0  0  0
 16 15  2  0  0  0  0
 17 12  2  0  0  0  0
 17 16  1  0  0  0  0
 18 10  1  0  0  0  0
 19 11  1  0  0  0  0
 20 13  1  0  0  0  0
 23 16  1  0  0  0  0
 24 25  1  0  0  0  0
 25 30  1  0  0  0  0
 26 25  2  0  0  0  0
 26 31  1  0  0  0  0
 27 26  1  0  0  0  0
 28 29  1  0  0  0  0
 28 27  2  0  0  0  0
 29 24  2  0  0  0  0
 32 34  1  0  0  0  0
 32 33  1  0  0  0  0
 32 28  1  0  0  0  0
M  END
>  <minimizedAffinity>
-5.96453524

>  <minimizedRMSD>
0.443926811

$$$$
