
 OpenBabel03252513513D

 34 35  0  0  1  0  0  0  0  0999 V2000
   37.5200   30.8100   45.9190 C   0  0  0  0  0  0  0  0  0  0  0  0
   38.4460   30.5130   46.6840 O   0  0  0  0  0  0  0  0  0  0  0  0
   37.9080   31.6000   44.7900 N   0  0  0  0  0  0  0  0  0  0  0  0
   37.3500   31.1490   43.5180 C   0  0  0  0  0  0  0  0  0  0  0  0
   38.1040   31.7400   42.3550 C   0  0  0  0  0  0  0  0  0  0  0  0
   39.4430   31.8310   42.7380 O   0  0  0  0  0  0  0  0  0  0  0  0
   39.5010   32.9780   43.5560 C   0  0  0  0  0  0  0  0  0  0  0  0
   38.7710   32.7510   44.8750 C   0  0  2  0  0  0  0  0  0  0  0  0
   37.4360   30.0540   43.4320 H   0  0  0  0  0  0  0  0  0  0  0  0
   36.2890   31.4660   43.5260 H   0  0  0  0  0  0  0  0  0  0  0  0
   38.0780   31.0350   41.4840 H   0  0  0  0  0  0  0  0  0  0  0  0
   37.7170   32.6920   41.9940 H   0  0  0  0  0  0  0  0  0  0  0  0
   40.5470   33.2500   43.6860 H   0  0  0  0  0  0  0  0  0  0  0  0
   39.0080   33.7810   42.9660 H   0  0  0  0  0  0  0  0  0  0  0  0
   38.1390   33.6410   45.0450 H   0  0  0  0  0  0  0  0  0  0  0  0
   34.5020   29.4940   47.7570 C   0  0  0  0  0  0  0  0  0  0  0  0
   35.8420   29.9370   47.5030 C   0  0  0  0  0  0  0  0  0  0  0  0
   36.1730   30.3520   46.2220 C   0  0  0  0  0  0  0  0  0  0  0  0
   35.1850   30.3070   45.2840 N   0  0  0  0  0  0  0  0  0  0  0  0
   33.9440   29.8890   45.5480 C   0  0  0  0  0  0  0  0  0  0  0  0
   33.6130   29.4920   46.7610 N   0  0  0  0  0  0  0  0  0  0  0  0
   36.5690   29.9400   48.3130 H   0  0  0  0  0  0  0  0  0  0  0  0
   33.0040   29.9090   44.4060 C   0  0  0  0  0  0  0  0  0  0  0  0
   32.7280   31.2170   44.0280 F   0  0  0  0  0  0  0  0  0  0  0  0
   33.6060   29.3240   43.3090 F   0  0  0  0  0  0  0  0  0  0  0  0
   31.8500   29.1790   44.6470 F   0  0  0  0  0  0  0  0  0  0  0  0
   34.2010   29.0860   49.0440 O   0  0  0  0  0  0  0  0  0  0  0  0
   34.4000   29.8490   50.1820 C   0  0  0  0  0  0  0  0  0  0  0  0
   35.4650   29.4110   50.9740 F   0  0  0  0  0  0  0  0  0  0  0  0
   34.5010   31.1830   49.9570 F   0  0  0  0  0  0  0  0  0  0  0  0
   33.2350   29.6530   50.9500 F   0  0  0  0  0  0  0  0  0  0  0  0
   39.8390   32.7060   45.9240 C   0  0  0  0  0  0  0  0  0  0  0  0
   39.2850   32.7270   47.3250 C   0  0  0  0  0  0  0  0  0  0  0  0
   40.5860   31.4010   45.7490 C   0  0  0  0  0  0  0  0  0  0  0  0
  1 18  1  0  0  0  0
  1  2  2  0  0  0  0
  3  8  1  0  0  0  0
  3  1  1  0  0  0  0
  4 10  1  0  0  0  0
  4  3  1  0  0  0  0
  5  6  1  0  0  0  0
  5  4  1  0  0  0  0
  6  7  1  0  0  0  0
  7 13  1  0  0  0  0
  7  8  1  0  0  0  0
  8 15  1  1  0  0  0
  8 32  1  0  0  0  0
  9  4  1  0  0  0  0
 11  5  1  0  0  0  0
 12  5  1  0  0  0  0
 14  7  1  0  0  0  0
 16 27  1  0  0  0  0
 17 16  1  0  0  0  0
 17 22  1  0  0  0  0
 18 17  2  0  0  0  0
 19 20  2  0  0  0  0
 19 18  1  0  0  0  0
 20 21  1  0  0  0  0
 21 16  2  0  0  0  0
 23 26  1  0  0  0  0
 23 20  1  0  0  0  0
 24 23  1  0  0  0  0
 25 23  1  0  0  0  0
 27 28  1  0  0  0  0
 28 31  1  0  0  0  0
 28 29  1  0  0  0  0
 30 28  1  0  0  0  0
 32 33  1  0  0  0  0
 34 32  1  0  0  0  0
M  END
>  <minimizedAffinity>
-5.54627275

>  <minimizedRMSD>
1.57252586

$$$$
