
 OpenBabel03252514083D

 44 47  0  0  0  0  0  0  0  0999 V2000
   34.5210   30.0310   47.5060 C   0  0  0  0  0  0  0  0  0  0  0  0
   35.4620   29.8900   48.5370 C   0  0  0  0  0  0  0  0  0  0  0  0
   35.4180   28.7020   49.2430 C   0  0  0  0  0  0  0  0  0  0  0  0
   34.5070   27.7570   48.9300 N   0  0  0  0  0  0  0  0  0  0  0  0
   33.6160   27.9280   47.9290 C   0  0  0  0  0  0  0  0  0  0  0  0
   33.6330   29.0600   47.2310 N   0  0  0  0  0  0  0  0  0  0  0  0
   34.4580   30.9170   46.8830 H   0  0  0  0  0  0  0  0  0  0  0  0
   36.1360   28.5750   50.0410 H   0  0  0  0  0  0  0  0  0  0  0  0
   36.3670   30.9560   48.7690 N   0  0  0  0  0  0  0  0  0  0  0  0
   36.3600   31.7340   49.8850 C   0  0  0  0  0  0  0  0  0  0  0  0
   37.3550   32.6470   49.7710 N   0  0  0  0  0  0  0  0  0  0  0  0
   37.9600   32.4280   48.6000 C   0  0  0  0  0  0  0  0  0  0  0  0
   39.0200   33.0280   47.9510 C   0  0  0  0  0  0  0  0  0  0  0  0
   39.4390   32.6050   46.7570 N   0  0  0  0  0  0  0  0  0  0  0  0
   38.8410   31.5570   46.1140 C   0  0  0  0  0  0  0  0  0  0  0  0
   37.8090   30.9820   46.7610 N   0  0  0  0  0  0  0  0  0  0  0  0
   37.3550   31.3700   47.9560 C   0  0  0  0  0  0  0  0  0  0  0  0
   35.7060   31.6890   50.7490 H   0  0  0  0  0  0  0  0  0  0  0  0
   39.1860   31.2150   45.1380 H   0  0  0  0  0  0  0  0  0  0  0  0
   39.6810   34.1200   48.5670 N   0  0  0  0  0  0  0  0  0  0  0  0
   39.4460   34.4580   49.5260 H   0  0  0  0  0  0  0  0  0  0  0  0
   40.4410   34.6450   48.0800 H   0  0  0  0  0  0  0  0  0  0  0  0
   32.6010   26.8910   47.5680 C   0  0  0  0  0  0  0  0  0  0  0  0
   31.3660   27.0840   48.4680 C   0  0  0  0  0  0  0  0  0  0  0  0
   31.0530   28.1380   48.4690 H   0  0  0  0  0  0  0  0  0  0  0  0
   31.6240   26.8320   49.5230 H   0  0  0  0  0  0  0  0  0  0  0  0
   30.5250   26.4890   48.1120 H   0  0  0  0  0  0  0  0  0  0  0  0
   32.0960   27.1100   46.1620 C   0  0  0  0  0  0  0  0  0  0  0  0
   31.7480   28.1750   46.0490 H   0  0  0  0  0  0  0  0  0  0  0  0
   31.2360   26.4590   45.9680 H   0  0  0  0  0  0  0  0  0  0  0  0
   32.8760   26.9870   45.3820 H   0  0  0  0  0  0  0  0  0  0  0  0
   33.1240   25.5040   47.6890 C   0  0  0  0  0  0  0  0  0  0  0  0
   34.0760   25.4620   48.2760 H   0  0  0  0  0  0  0  0  0  0  0  0
   32.3960   24.9110   48.3090 H   0  0  0  0  0  0  0  0  0  0  0  0
   33.2950   24.8130   46.4310 N   0  0  0  0  0  0  0  0  0  0  0  0
   34.4550   25.0450   45.7540 C   0  0  0  0  0  3  0  0  0  0  0  0
   34.7830   24.4640   44.5480 C   0  0  0  0  0  0  0  0  0  0  0  0
   36.0770   24.7750   43.8750 C   0  0  0  0  0  1  0  0  0  0  0  0
   33.8900   23.5900   43.9790 C   0  0  0  0  0  0  0  0  0  0  0  0
   34.1640   23.0440   42.8780 O   0  0  0  0  0  0  0  0  0  0  0  0
   32.7620   23.3800   44.6590 N   0  0  0  0  0  0  0  0  0  0  0  0
   32.4550   23.9520   45.8310 C   0  0  0  0  0  0  0  0  0  0  0  0
   31.3910   23.7180   46.4180 O   0  0  0  0  0  0  0  0  0  0  0  0
   32.0460   22.7280   44.2790 H   0  0  0  0  0  0  0  0  0  0  0  0
  1  2  1  0  0  0  0
  2  9  1  0  0  0  0
  2  3  2  0  0  0  0
  3  8  1  0  0  0  0
  4  3  1  0  0  0  0
  5  4  2  0  0  0  0
  6  1  2  0  0  0  0
  6  5  1  0  0  0  0
  7  1  1  0  0  0  0
  9 10  1  0  0  0  0
 10 18  1  0  0  0  0
 11 10  2  0  0  0  0
 12 11  1  0  0  0  0
 13 20  1  0  0  0  0
 13 12  2  0  0  0  0
 14 13  1  0  0  0  0
 15 14  2  0  0  0  0
 15 16  1  0  0  0  0
 16 17  2  0  0  0  0
 17 12  1  0  0  0  0
 17  9  1  0  0  0  0
 19 15  1  0  0  0  0
 20 21  1  0  0  0  0
 22 20  1  0  0  0  0
 23 32  1  0  0  0  0
 23  5  1  0  0  0  0
 23 24  1  0  0  0  0
 24 25  1  0  0  0  0
 24 26  1  0  0  0  0
 27 24  1  0  0  0  0
 28 23  1  0  0  0  0
 29 28  1  0  0  0  0
 30 28  1  0  0  0  0
 31 28  1  0  0  0  0
 32 33  1  0  0  0  0
 32 34  1  0  0  0  0
 35 32  1  0  0  0  0
 36 35  1  0  0  0  0
 37 36  2  0  0  0  0
 38 37  1  0  0  0  0
 39 37  1  0  0  0  0
 39 41  1  0  0  0  0
 40 39  2  0  0  0  0
 41 42  1  0  0  0  0
 42 43  2  0  0  0  0
 42 35  1  0  0  0  0
 44 41  1  0  0  0  0
M  END
>  <minimizedAffinity>
-5.51651764

>  <minimizedRMSD>
1.98902011

$$$$
