
 OpenBabel03252514003D

 28 30  0  0  1  0  0  0  0  0999 V2000
   35.3550   29.3910   48.9990 C   0  0  2  0  0  0  0  0  0  0  0  0
   34.2250   29.4420   49.9380 C   0  0  0  0  0  0  0  0  0  0  0  0
   34.5440   28.1350   49.3790 C   0  0  1  0  0  0  0  0  0  0  0  0
   35.3160   29.6680   47.9560 H   0  0  0  0  0  0  0  0  0  0  0  0
   33.3110   29.9880   49.5650 H   0  0  0  0  0  0  0  0  0  0  0  0
   34.4220   29.6860   51.0220 H   0  0  0  0  0  0  0  0  0  0  0  0
   35.1920   27.3620   49.8140 H   0  0  0  0  0  0  0  0  0  0  0  0
   36.7630   29.3560   49.5970 C   0  0  0  0  0  0  0  0  0  0  0  0
   36.7440   29.3450   50.6980 H   0  0  0  0  0  0  0  0  0  0  0  0
   37.3230   28.4640   49.2620 H   0  0  0  0  0  0  0  0  0  0  0  0
   38.2110   32.7210   49.4670 C   0  0  0  0  0  0  0  0  0  0  0  0
   38.8150   32.7540   48.2000 C   0  0  0  0  0  0  0  0  0  0  0  0
   38.7140   31.6040   47.3980 C   0  0  0  0  0  0  0  0  0  0  0  0
   38.0380   30.5220   47.8940 N   0  0  0  0  0  0  0  0  0  0  0  0
   37.4770   30.5390   49.1130 C   0  0  0  0  0  0  0  0  0  0  0  0
   37.5730   31.6440   49.8860 N   0  0  0  0  0  0  0  0  0  0  0  0
   38.3450   33.6510   50.0000 H   0  0  0  0  0  0  0  0  0  0  0  0
   39.3600   33.5490   47.7310 H   0  0  0  0  0  0  0  0  0  0  0  0
   39.1420   31.5160   46.4010 H   0  0  0  0  0  0  0  0  0  0  0  0
   33.5690   27.6180   48.3590 C   0  0  0  0  0  0  0  0  0  0  0  0
   33.9010   26.4860   47.8220 O   0  0  0  0  0  0  0  0  0  0  0  0
   32.3890   28.2310   47.9790 O   0  0  0  0  0  0  0  0  0  0  0  0
   31.1360   27.7980   48.3610 C   0  0  0  0  0  0  0  0  0  0  0  0
   30.6720   27.9340   49.6510 C   0  0  0  0  0  0  0  0  0  0  0  0
   28.9800   27.1930   49.5580 S   0  0  0  0  0  0  0  0  0  0  0  0
   29.2420   26.8220   47.6950 C   0  0  0  0  0  0  0  0  0  0  0  0
   28.4800   26.3370   47.0650 H   0  0  0  0  0  0  0  0  0  0  0  0
   30.3070   27.2260   47.5050 N   0  0  0  0  0  0  0  0  0  0  0  0
  1  4  1  6  0  0  0
  1  3  1  0  0  0  0
  1  8  1  0  0  0  0
  1  2  1  0  0  0  0
  2  6  1  0  0  0  0
  3  7  1  1  0  0  0
  3  2  1  0  0  0  0
  5  2  1  0  0  0  0
  8  9  1  0  0  0  0
 10  8  1  0  0  0  0
 11 16  1  0  0  0  0
 11 17  1  0  0  0  0
 12 11  2  0  0  0  0
 13 14  2  0  0  0  0
 13 12  1  0  0  0  0
 14 15  1  0  0  0  0
 15  8  1  0  0  0  0
 15 16  2  0  0  0  0
 18 12  1  0  0  0  0
 19 13  1  0  0  0  0
 20  3  1  0  0  0  0
 21 20  2  0  0  0  0
 22 20  1  0  0  0  0
 22 23  1  0  0  0  0
 23 24  2  0  0  0  0
 25 24  1  0  0  0  0
 26 25  1  0  0  0  0
 27 26  1  0  0  0  0
 28 26  2  0  0  0  0
 28 23  1  0  0  0  0
M  END
>  <minimizedAffinity>
-4.97171307

>  <minimizedRMSD>
1.36226845

$$$$
