
 OpenBabel03252513373D

 22 22  0  0  0  0  0  0  0  0999 V2000
   36.8900   29.9490   49.8730 C   0  0  0  0  0  0  0  0  0  0  0  0
   37.9880   30.6360   49.3920 C   0  0  0  0  0  0  0  0  0  0  0  0
   37.9700   31.1150   48.0830 C   0  0  0  0  0  0  0  0  0  0  0  0
   36.8550   30.8730   47.3490 N   0  0  0  0  0  0  0  0  0  0  0  0
   35.7990   30.2000   47.8460 C   0  0  0  0  0  0  0  0  0  0  0  0
   35.8200   29.7450   49.0960 N   0  0  0  0  0  0  0  0  0  0  0  0
   39.0740   31.8230   47.5600 N   0  0  0  0  0  0  0  0  0  0  0  0
   38.9530   32.5660   46.3550 C   0  0  0  0  0  0  0  0  0  0  0  0
   37.8630   32.4430   45.6630 N   0  0  0  0  0  0  0  0  0  0  0  0
   40.0070   33.4100   45.9380 N   0  0  0  0  0  0  0  0  0  0  0  0
   37.8240   32.9100   44.7270 H   0  0  0  0  0  0  0  0  0  0  0  0
   38.8520   30.8080   50.0030 H   0  0  0  0  0  0  0  0  0  0  0  0
   39.9790   31.7890   48.0780 H   0  0  0  0  0  0  0  0  0  0  0  0
   40.9270   33.1690   45.5050 H   0  0  0  0  0  0  0  0  0  0  0  0
   39.6350   34.3720   46.1750 H   0  0  0  0  0  0  0  0  0  0  0  0
   36.9130   29.4350   51.2860 C   0  0  0  0  0  0  0  0  0  0  0  0
   35.6090   29.1490   51.6900 F   0  0  0  0  0  0  0  0  0  0  0  0
   37.7820   28.4170   51.3720 F   0  0  0  0  0  0  0  0  0  0  0  0
   37.3500   30.5060   52.0880 F   0  0  0  0  0  0  0  0  0  0  0  0
   34.6310   29.9980   46.9430 C   0  0  0  0  0  0  0  0  0  0  0  0
   35.0620   29.8530   45.5170 C   0  0  0  0  0  0  0  0  0  0  0  0
   33.8210   28.8040   47.4290 C   0  0  0  0  0  0  0  0  0  0  0  0
  1 16  1  0  0  0  0
  2  1  1  0  0  0  0
  2 12  1  0  0  0  0
  3  2  2  0  0  0  0
  4  5  2  0  0  0  0
  4  3  1  0  0  0  0
  5  6  1  0  0  0  0
  6  1  2  0  0  0  0
  7 13  1  0  0  0  0
  7  3  1  0  0  0  0
  8  7  1  0  0  0  0
  9  8  2  0  0  0  0
 10 15  1  0  0  0  0
 10  8  1  0  0  0  0
 11  9  1  0  0  0  0
 14 10  1  0  0  0  0
 16 18  1  0  0  0  0
 16 17  1  0  0  0  0
 16 19  1  0  0  0  0
 20 22  1  0  0  0  0
 20  5  1  0  0  0  0
 21 20  1  0  0  0  0
M  END
>  <minimizedAffinity>
-6.39199924

>  <minimizedRMSD>
0.295049518

$$$$
