
 OpenBabel03252512453D

 34 36  0  0  1  0  0  0  0  0999 V2000
   40.0620   31.3140   45.5320 C   0  0  2  0  0  0  0  0  0  0  0  0
   40.5720   30.3650   45.7610 H   0  0  0  0  0  0  0  0  0  0  0  0
   38.0720   31.5360   48.6160 C   0  0  0  0  0  0  0  0  0  0  0  0
   38.3430   32.8900   48.9350 C   0  0  0  0  0  0  0  0  0  0  0  0
   39.4550   33.4440   47.5770 S   0  0  0  0  0  0  0  0  0  0  0  0
   39.3500   31.6970   46.8040 C   0  0  0  0  0  0  0  0  0  0  0  0
   38.6790   31.1390   47.5050 N   0  0  0  0  0  0  0  0  0  0  0  0
   37.9630   33.4410   49.7940 H   0  0  0  0  0  0  0  0  0  0  0  0
   37.5940   30.4750   50.7920 C   0  0  0  0  0  0  0  0  0  0  0  0
   37.1950   30.7430   49.4790 C   0  0  0  0  0  0  0  0  0  0  0  0
   35.9640   30.2260   49.0860 C   0  0  0  0  0  0  0  0  0  0  0  0
   35.2280   29.5150   49.9510 N   0  0  0  0  0  0  0  0  0  0  0  0
   35.6410   29.2750   51.2100 C   0  0  0  0  0  0  0  0  0  0  0  0
   36.8390   29.7620   51.6350 N   0  0  0  0  0  0  0  0  0  0  0  0
   38.5280   30.8240   51.2050 H   0  0  0  0  0  0  0  0  0  0  0  0
   35.6850   30.4500   48.0660 H   0  0  0  0  0  0  0  0  0  0  0  0
   35.0220   28.6960   51.8890 H   0  0  0  0  0  0  0  0  0  0  0  0
   40.9870   32.4470   45.1990 C   0  0  0  0  0  0  0  0  0  0  0  0
   41.6950   32.6550   46.0500 H   0  0  0  0  0  0  0  0  0  0  0  0
   40.4550   33.4080   45.0600 H   0  0  0  0  0  0  0  0  0  0  0  0
   41.6770   32.1960   44.3530 H   0  0  0  0  0  0  0  0  0  0  0  0
   39.0230   31.1310   44.4400 C   0  0  0  0  0  0  0  0  0  0  0  0
   38.8610   32.1340   43.9940 H   0  0  0  0  0  0  0  0  0  0  0  0
   38.0530   30.8800   44.9360 H   0  0  0  0  0  0  0  0  0  0  0  0
   39.3540   30.1210   43.4810 N   0  0  0  0  0  0  0  0  0  0  0  0
   39.0940   28.8180   43.7610 C   0  0  0  0  0  0  0  0  0  0  0  0
   39.3990   27.7950   42.8620 C   0  0  0  0  0  0  0  0  0  0  0  0
   39.1270   26.3670   43.1390 C   0  0  0  0  0  0  0  0  0  0  0  0
   39.9840   28.0980   41.6420 C   0  0  0  0  0  0  0  0  0  0  0  0
   40.2830   27.2280   40.7890 O   0  0  0  0  0  0  0  0  0  0  0  0
   40.2240   29.3970   41.4080 N   0  0  0  0  0  0  0  0  0  0  0  0
   39.9220   30.3670   42.2870 C   0  0  0  0  0  0  0  0  0  0  0  0
   40.1900   31.5520   41.9640 O   0  0  0  0  0  0  0  0  0  0  0  0
   40.6620   29.6500   40.5000 H   0  0  0  0  0  0  0  0  0  0  0  0
  1  2  1  1  0  0  0
  1  6  1  0  0  0  0
  3  4  2  0  0  0  0
  3 10  1  0  0  0  0
  4  8  1  0  0  0  0
  5  4  1  0  0  0  0
  6  7  2  0  0  0  0
  6  5  1  0  0  0  0
  7  3  1  0  0  0  0
  9 15  1  0  0  0  0
  9 14  1  0  0  0  0
 10  9  2  0  0  0  0
 11 10  1  0  0  0  0
 11 12  2  0  0  0  0
 12 13  1  0  0  0  0
 13 14  2  0  0  0  0
 13 17  1  0  0  0  0
 16 11  1  0  0  0  0
 18  1  1  0  0  0  0
 18 19  1  0  0  0  0
 20 18  1  0  0  0  0
 21 18  1  0  0  0  0
 22 24  1  0  0  0  0
 22  1  1  0  0  0  0
 23 22  1  0  0  0  0
 25 26  1  0  0  0  0
 25 22  1  0  0  0  0
 27 28  1  0  0  0  0
 27 26  2  0  0  0  0
 29 27  1  0  0  0  0
 30 29  2  0  0  0  0
 31 29  1  0  0  0  0
 31 32  1  0  0  0  0
 32 25  1  0  0  0  0
 33 32  2  0  0  0  0
 34 31  1  0  0  0  0
M  END
>  <minimizedAffinity>
-5.74780989

>  <minimizedRMSD>
1.82946813

$$$$
