
 OpenBabel03252514063D

 25 27  0  0  0  0  0  0  0  0999 V2000
   38.6310   32.5100   47.3400 N   0  0  0  0  0  0  0  0  0  0  0  0
   39.5040   33.4420   47.7910 C   0  0  0  0  0  0  0  0  0  0  0  0
   40.1560   33.9630   46.7200 N   0  0  0  0  0  0  0  0  0  0  0  0
   39.6760   33.3470   45.6340 C   0  0  0  0  0  0  0  0  0  0  0  0
   39.9450   33.4500   44.2790 C   0  0  0  0  0  0  0  0  0  0  0  0
   39.2950   32.6870   43.3780 N   0  0  0  0  0  0  0  0  0  0  0  0
   38.3490   31.7850   43.7460 C   0  0  0  0  0  0  0  0  0  0  0  0
   38.1020   31.7000   45.0660 N   0  0  0  0  0  0  0  0  0  0  0  0
   38.7140   32.4280   45.9990 C   0  0  0  0  0  0  0  0  0  0  0  0
   40.9060   34.3560   43.8180 N   0  0  0  0  0  0  0  0  0  0  0  0
   39.6590   33.7270   48.8370 H   0  0  0  0  0  0  0  0  0  0  0  0
   37.8560   31.1960   42.9830 H   0  0  0  0  0  0  0  0  0  0  0  0
   41.9270   34.2950   44.0870 H   0  0  0  0  0  0  0  0  0  0  0  0
   40.8910   35.1930   43.1940 H   0  0  0  0  0  0  0  0  0  0  0  0
   36.6270   31.1740   47.6310 C   0  0  0  0  0  0  0  0  0  0  0  0
   37.7720   31.7550   48.1910 C   0  0  0  0  0  0  0  0  0  0  0  0
   37.9660   31.5360   49.5480 C   0  0  0  0  0  0  0  0  0  0  0  0
   37.0710   30.7960   50.2490 N   0  0  0  0  0  0  0  0  0  0  0  0
   35.9880   30.2560   49.6810 C   0  0  0  0  0  0  0  0  0  0  0  0
   35.7690   30.4490   48.3660 N   0  0  0  0  0  0  0  0  0  0  0  0
   36.4160   31.3050   46.5780 H   0  0  0  0  0  0  0  0  0  0  0  0
   38.8350   31.9770   49.9730 H   0  0  0  0  0  0  0  0  0  0  0  0
   35.0050   29.4500   50.4260 C   0  0  0  0  0  3  0  0  0  0  0  0
   34.4380   28.3050   49.6160 C   0  0  0  0  0  1  0  0  0  0  0  0
   35.7140   28.8340   51.6390 C   0  0  0  0  0  1  0  0  0  0  0  0
  1  2  1  0  0  0  0
  1 16  1  0  0  0  0
  2 11  1  0  0  0  0
  3  2  2  0  0  0  0
  4  9  1  0  0  0  0
  4  3  1  0  0  0  0
  5  4  2  0  0  0  0
  6  7  2  0  0  0  0
  6  5  1  0  0  0  0
  7  8  1  0  0  0  0
  8  9  2  0  0  0  0
  9  1  1  0  0  0  0
 10 13  1  0  0  0  0
 10  5  1  0  0  0  0
 12  7  1  0  0  0  0
 14 10  1  0  0  0  0
 15 16  2  0  0  0  0
 15 20  1  0  0  0  0
 16 17  1  0  0  0  0
 17 22  1  0  0  0  0
 17 18  2  0  0  0  0
 19 18  1  0  0  0  0
 19 23  1  0  0  0  0
 20 19  2  0  0  0  0
 21 15  1  0  0  0  0
 23 25  1  0  0  0  0
 24 23  1  0  0  0  0
M  END
>  <minimizedAffinity>
-3.38156462

>  <minimizedRMSD>
2.13989878

$$$$
