
 OpenBabel03252514043D

 33 35  0  0  1  0  0  0  0  0999 V2000
   35.2710   29.2630   48.6670 C   0  0  2  0  0  0  0  0  0  0  0  0
   34.0870   29.3890   49.5090 C   0  0  0  0  0  0  0  0  0  0  0  0
   34.4180   28.0430   49.1420 C   0  0  1  0  0  0  0  0  0  0  0  0
   35.3150   29.3210   47.5810 H   0  0  0  0  0  0  0  0  0  0  0  0
   33.1990   29.9040   49.0470 H   0  0  0  0  0  0  0  0  0  0  0  0
   34.2570   29.8120   50.5340 H   0  0  0  0  0  0  0  0  0  0  0  0
   34.9970   27.3150   49.7080 H   0  0  0  0  0  0  0  0  0  0  0  0
   36.6280   29.2780   49.3890 C   0  0  0  0  0  0  0  0  0  0  0  0
   37.2370   28.4380   48.9970 H   0  0  0  0  0  0  0  0  0  0  0  0
   36.4630   29.1050   50.4560 H   0  0  0  0  0  0  0  0  0  0  0  0
   37.7170   32.7600   49.5450 C   0  0  0  0  0  0  0  0  0  0  0  0
   38.5600   32.8710   48.4220 C   0  0  0  0  0  0  0  0  0  0  0  0
   38.7390   31.7220   47.6180 C   0  0  0  0  0  0  0  0  0  0  0  0
   38.0870   30.5720   47.9760 N   0  0  0  0  0  0  0  0  0  0  0  0
   37.2940   30.5270   49.0630 C   0  0  0  0  0  0  0  0  0  0  0  0
   37.1200   31.6260   49.8340 N   0  0  0  0  0  0  0  0  0  0  0  0
   37.6580   33.6980   50.0800 H   0  0  0  0  0  0  0  0  0  0  0  0
   39.1150   33.6970   48.0440 H   0  0  0  0  0  0  0  0  0  0  0  0
   39.3640   31.6990   46.7350 H   0  0  0  0  0  0  0  0  0  0  0  0
   33.5220   27.4170   48.0910 C   0  0  0  0  0  0  0  0  0  0  0  0
   33.8640   26.2180   47.7670 O   0  0  0  0  0  0  0  0  0  0  0  0
   32.4150   28.0040   47.4900 O   0  0  0  0  0  0  0  0  0  0  0  0
   31.1780   28.0770   48.0690 C   0  0  0  0  0  0  0  0  0  0  0  0
   30.8500   27.6210   49.4420 C   0  0  0  0  0  0  0  0  0  0  0  0
   29.5770   27.7650   49.8700 C   0  0  0  0  0  0  0  0  0  0  0  0
   28.5820   28.3290   49.0510 C   0  0  0  0  0  0  0  0  0  0  0  0
   29.4920   28.7170   47.4820 S   0  0  0  0  0  0  0  0  0  0  0  0
   31.6500   27.1990   50.0210 H   0  0  0  0  0  0  0  0  0  0  0  0
   29.2450   27.4630   50.8480 H   0  0  0  0  0  0  0  0  0  0  0  0
   27.2470   28.6350   49.1050 C   0  0  0  0  0  0  0  0  0  0  0  0
   26.6300   28.1810   50.4080 C   0  0  0  0  0  0  0  0  0  0  0  0
   26.9950   30.1430   49.0270 C   0  0  0  0  0  0  0  0  0  0  0  0
   26.4490   28.0020   47.9830 C   0  0  0  0  0  0  0  0  0  0  0  0
  1  4  1  6  0  0  0
  1  3  1  0  0  0  0
  1  8  1  0  0  0  0
  1  2  1  0  0  0  0
  2  6  1  0  0  0  0
  3  2  1  0  0  0  0
  3  7  1  1  0  0  0
  5  2  1  0  0  0  0
  8 10  1  0  0  0  0
  9  8  1  0  0  0  0
 11 16  1  0  0  0  0
 11 17  1  0  0  0  0
 12 11  2  0  0  0  0
 13 14  2  0  0  0  0
 13 12  1  0  0  0  0
 14 15  1  0  0  0  0
 15  8  1  0  0  0  0
 15 16  2  0  0  0  0
 18 12  1  0  0  0  0
 19 13  1  0  0  0  0
 20  3  1  0  0  0  0
 21 20  2  0  0  0  0
 22 23  1  0  0  0  0
 22 20  1  0  0  0  0
 23 24  2  0  0  0  0
 24 25  1  0  0  0  0
 24 28  1  0  0  0  0
 25 29  1  0  0  0  0
 26 30  1  0  0  0  0
 26 25  2  0  0  0  0
 27 23  1  0  0  0  0
 27 26  1  0  0  0  0
 30 31  1  0  0  0  0
 32 30  1  0  0  0  0
 33 30  1  0  0  0  0
M  END
>  <minimizedAffinity>
-6.04543161

>  <minimizedRMSD>
1.19477487

$$$$
