
 OpenBabel03252512023D

 27 28  0  0  0  0  0  0  0  0999 V2000
   37.6770   31.8560   47.6550 C   0  0  0  0  0  0  0  0  0  0  0  0
   36.7910   32.2830   48.0740 H   0  0  0  0  0  0  0  0  0  0  0  0
   38.4530   32.6930   47.7010 H   0  0  0  0  0  0  0  0  0  0  0  0
   37.5960   31.5150   46.1890 C   0  0  0  0  0  0  0  0  0  0  0  0
   36.6900   30.5950   45.7170 C   0  0  0  0  0  0  0  0  0  0  0  0
   36.6130   30.2590   44.3870 C   0  0  0  0  0  0  0  0  0  0  0  0
   37.4700   30.8750   43.5450 N   0  0  0  0  0  0  0  0  0  0  0  0
   38.3590   31.7740   43.9750 C   0  0  0  0  0  0  0  0  0  0  0  0
   38.4190   32.0890   45.2850 N   0  0  0  0  0  0  0  0  0  0  0  0
   36.0240   30.1260   46.4290 H   0  0  0  0  0  0  0  0  0  0  0  0
   35.8810   29.5220   44.0460 H   0  0  0  0  0  0  0  0  0  0  0  0
   39.3030   32.4540   43.0500 C   0  0  0  0  0  0  0  0  0  0  0  0
   40.2640   31.3930   42.5500 C   0  0  0  0  0  0  0  0  0  0  0  0
   38.6220   33.2140   41.9610 C   0  0  0  0  0  0  0  0  0  0  0  0
   40.1210   33.4770   43.8500 C   0  0  0  0  0  0  0  0  0  0  0  0
   38.2610   30.6340   48.3190 C   0  0  0  0  0  0  0  0  0  0  0  0
   39.2650   30.9070   48.7690 H   0  0  0  0  0  0  0  0  0  0  0  0
   38.5260   29.8250   47.5950 H   0  0  0  0  0  0  0  0  0  0  0  0
   37.7510   30.4230   50.7080 C   0  0  0  0  0  0  0  0  0  0  0  0
   37.4270   30.1600   49.3760 C   0  0  0  0  0  0  0  0  0  0  0  0
   36.2760   29.4450   49.1300 C   0  0  0  0  0  0  0  0  0  0  0  0
   35.4950   29.0210   50.1720 N   0  0  0  0  0  0  0  0  0  0  0  0
   35.8330   29.2880   51.4480 C   0  0  0  0  0  0  0  0  0  0  0  0
   36.9490   29.9810   51.6970 N   0  0  0  0  0  0  0  0  0  0  0  0
   38.6460   30.9800   50.9340 H   0  0  0  0  0  0  0  0  0  0  0  0
   35.8370   29.1200   48.2040 H   0  0  0  0  0  0  0  0  0  0  0  0
   35.2110   28.9490   52.2810 H   0  0  0  0  0  0  0  0  0  0  0  0
  1  3  1  0  0  0  0
  1  2  1  0  0  0  0
  1 16  1  0  0  0  0
  4  1  1  0  0  0  0
  5  4  1  0  0  0  0
  5 10  1  0  0  0  0
  6  5  2  0  0  0  0
  7  8  2  0  0  0  0
  7  6  1  0  0  0  0
  8  9  1  0  0  0  0
  9  4  2  0  0  0  0
 11  6  1  0  0  0  0
 12 15  1  0  0  0  0
 12  8  1  0  0  0  0
 13 12  1  0  0  0  0
 14 12  1  0  0  0  0
 16 17  1  0  0  0  0
 16 20  1  0  0  0  0
 18 16  1  0  0  0  0
 19 25  1  0  0  0  0
 19 24  1  0  0  0  0
 20 19  2  0  0  0  0
 21 20  1  0  0  0  0
 21 22  2  0  0  0  0
 22 23  1  0  0  0  0
 23 24  2  0  0  0  0
 23 27  1  0  0  0  0
 26 21  1  0  0  0  0
M  END
>  <minimizedAffinity>
-4.50946617

>  <minimizedRMSD>
2.44380546

$$$$
