
 OpenBabel03252512513D

 18 19  0  0  0  0  0  0  0  0999 V2000
   37.0600   29.7780   51.6480 C   0  0  0  0  0  0  0  0  0  0  0  0
   37.9010   30.5530   50.8290 C   0  0  0  0  0  0  0  0  0  0  0  0
   37.4150   30.9260   49.5860 C   0  0  0  0  0  0  0  0  0  0  0  0
   36.1570   30.5270   49.2220 N   0  0  0  0  0  0  0  0  0  0  0  0
   35.3780   29.7830   50.0340 C   0  0  0  0  0  0  0  0  0  0  0  0
   35.8200   29.4080   51.2400 N   0  0  0  0  0  0  0  0  0  0  0  0
   37.5130   29.5310   52.5930 H   0  0  0  0  0  0  0  0  0  0  0  0
   38.8910   30.8540   51.1400 H   0  0  0  0  0  0  0  0  0  0  0  0
   34.4130   29.5290   49.6480 H   0  0  0  0  0  0  0  0  0  0  0  0
   38.2010   31.7280   48.6560 C   0  0  0  0  0  0  0  0  0  0  0  0
   38.7510   32.9450   48.7350 N   0  0  0  0  0  0  0  0  0  0  0  0
   39.3670   33.2350   47.6320 O   0  0  0  0  0  0  0  0  0  0  0  0
   39.2390   32.2310   46.8090 C   0  0  0  0  0  0  0  0  0  0  0  0
   38.5100   31.2530   47.4110 N   0  0  0  0  0  0  0  0  0  0  0  0
   39.8070   32.1760   45.4320 C   0  0  0  0  0  0  0  0  0  0  0  0
   38.7360   31.5970   44.4990 C   0  0  0  0  0  0  0  0  0  0  0  0
   41.0750   31.3870   45.3760 C   0  0  0  0  0  0  0  0  0  0  0  0
   40.0330   33.5990   44.9290 C   0  0  0  0  0  0  0  0  0  0  0  0
  1  7  1  0  0  0  0
  2  8  1  0  0  0  0
  2  1  2  0  0  0  0
  3  2  1  0  0  0  0
  4  3  2  0  0  0  0
  4  5  1  0  0  0  0
  5  6  2  0  0  0  0
  6  1  1  0  0  0  0
  9  5  1  0  0  0  0
 10 11  2  0  0  0  0
 10  3  1  0  0  0  0
 12 11  1  0  0  0  0
 13 14  2  0  0  0  0
 13 12  1  0  0  0  0
 14 10  1  0  0  0  0
 15 13  1  0  0  0  0
 16 15  1  0  0  0  0
 17 15  1  0  0  0  0
 18 15  1  0  0  0  0
M  END
>  <minimizedAffinity>
-5.40528297

>  <minimizedRMSD>
0.923071325

$$$$
