
 OpenBabel03252513263D

 42 45  0  0  0  0  0  0  0  0999 V2000
   32.8110   27.7670   48.5420 C   0  0  0  0  0  0  0  0  0  0  0  0
   31.6860   28.1950   49.1840 C   0  0  0  0  0  0  0  0  0  0  0  0
   30.4590   27.5560   49.1260 C   0  0  0  0  0  0  0  0  0  0  0  0
   30.4150   26.4080   48.3530 C   0  0  0  0  0  0  0  0  0  0  0  0
   31.5320   25.9390   47.6860 C   0  0  0  0  0  0  0  0  0  0  0  0
   32.7280   26.6180   47.7800 C   0  0  0  0  0  0  0  0  0  0  0  0
   31.7390   29.0990   49.7860 H   0  0  0  0  0  0  0  0  0  0  0  0
   29.5770   27.9110   49.6430 H   0  0  0  0  0  0  0  0  0  0  0  0
   29.5050   25.8290   48.2380 H   0  0  0  0  0  0  0  0  0  0  0  0
   31.5200   25.0360   47.0700 H   0  0  0  0  0  0  0  0  0  0  0  0
   36.1060   28.9070   49.6660 C   0  0  0  0  0  0  0  0  0  0  0  0
   36.4290   29.8950   48.7050 C   0  0  0  0  0  0  0  0  0  0  0  0
   35.4960   30.1320   47.7020 C   0  0  0  0  0  0  0  0  0  0  0  0
   34.3190   29.4110   47.6860 N   0  0  0  0  0  0  0  0  0  0  0  0
   34.0690   28.4750   48.6370 C   0  0  0  0  0  0  0  0  0  0  0  0
   34.9580   28.2440   49.6000 N   0  0  0  0  0  0  0  0  0  0  0  0
   36.8510   28.7440   50.4350 H   0  0  0  0  0  0  0  0  0  0  0  0
   35.6930   30.8820   46.9350 H   0  0  0  0  0  0  0  0  0  0  0  0
   37.6890   30.6700   48.7200 C   0  0  0  0  0  0  0  0  0  0  0  0
   38.4760   30.4610   47.6250 F   0  0  0  0  0  0  0  0  0  0  0  0
   38.4570   30.3560   49.8240 F   0  0  0  0  0  0  0  0  0  0  0  0
   37.4090   32.0370   48.7750 F   0  0  0  0  0  0  0  0  0  0  0  0
   33.9210   26.1570   47.0950 C   0  0  0  0  0  0  0  0  0  0  0  0
   34.0980   26.7460   46.1540 H   0  0  0  0  0  0  0  0  0  0  0  0
   34.8250   26.3430   47.7130 H   0  0  0  0  0  0  0  0  0  0  0  0
   33.9640   24.7040   46.7070 C   0  0  0  0  0  0  0  0  0  0  0  0
   32.9840   24.3530   46.3840 H   0  0  0  0  0  0  0  0  0  0  0  0
   34.4000   24.0560   47.4850 H   0  0  0  0  0  0  0  0  0  0  0  0
   34.8830   24.6410   45.5600 N   0  0  0  0  0  0  0  0  0  0  0  0
   34.8700   25.2910   44.3740 C   0  0  0  0  0  0  0  0  0  0  0  0
   35.9090   24.9180   43.6360 N   0  0  0  0  0  0  0  0  0  0  0  0
   36.6150   24.0150   44.3350 C   0  0  0  0  0  0  0  0  0  0  0  0
   37.7620   23.3140   44.0580 C   0  0  0  0  0  0  0  0  0  0  0  0
   38.3770   23.4560   42.9500 O   0  0  0  0  0  0  0  0  0  0  0  0
   38.3090   22.4340   44.9380 N   0  0  0  0  0  0  0  0  0  0  0  0
   37.6150   22.3290   46.0870 C   0  0  0  0  0  0  0  0  0  0  0  0
   38.0850   21.4380   47.0920 N   0  0  0  0  0  0  0  0  0  0  0  0
   36.4900   22.9890   46.4120 N   0  0  0  0  0  0  0  0  0  0  0  0
   35.9680   23.8550   45.5250 C   0  0  0  0  0  0  0  0  0  0  0  0
   39.1670   21.8950   44.7550 H   0  0  0  0  0  0  0  0  0  0  0  0
   38.8570   21.9380   47.5730 H   0  0  0  0  0  0  0  0  0  0  0  0
   37.9840   20.5050   47.5480 H   0  0  0  0  0  0  0  0  0  0  0  0
  1 15  1  0  0  0  0
  1  2  1  0  0  0  0
  2  7  1  0  0  0  0
  3  2  2  0  0  0  0
  3  8  1  0  0  0  0
  4  3  1  0  0  0  0
  5  6  1  0  0  0  0
  5  4  2  0  0  0  0
  6  1  2  0  0  0  0
  9  4  1  0  0  0  0
 10  5  1  0  0  0  0
 11 17  1  0  0  0  0
 12 19  1  0  0  0  0
 12 11  2  0  0  0  0
 13 12  1  0  0  0  0
 14 13  2  0  0  0  0
 14 15  1  0  0  0  0
 15 16  2  0  0  0  0
 16 11  1  0  0  0  0
 18 13  1  0  0  0  0
 19 22  1  0  0  0  0
 19 21  1  0  0  0  0
 20 19  1  0  0  0  0
 23 25  1  0  0  0  0
 23  6  1  0  0  0  0
 24 23  1  0  0  0  0
 26 23  1  0  0  0  0
 26 28  1  0  0  0  0
 27 26  1  0  0  0  0
 29 26  1  0  0  0  0
 30 29  1  0  0  0  0
 31 32  1  0  0  0  0
 31 30  2  0  0  0  0
 32 39  2  0  0  0  0
 33 32  1  0  0  0  0
 33 35  1  0  0  0  0
 34 33  2  0  0  0  0
 35 36  1  0  0  0  0
 36 38  2  0  0  0  0
 36 37  1  0  0  0  0
 37 42  1  0  0  0  0
 37 41  1  0  0  0  0
 39 29  1  0  0  0  0
 39 38  1  0  0  0  0
 40 35  1  0  0  0  0
M  END
>  <minimizedAffinity>
-5.40764046

>  <minimizedRMSD>
0.953209758

$$$$
