
 OpenBabel03252514083D

 48 52  0  0  0  0  0  0  0  0999 V2000
   32.2590   26.9950   47.7210 C   0  0  0  0  0  0  0  0  0  0  0  0
   34.2780   30.0620   47.6180 C   0  0  0  0  0  0  0  0  0  0  0  0
   35.2970   29.8420   48.5520 C   0  0  0  0  0  0  0  0  0  0  0  0
   35.2670   28.6260   49.2070 C   0  0  0  0  0  0  0  0  0  0  0  0
   34.2890   27.7410   48.9210 N   0  0  0  0  0  0  0  0  0  0  0  0
   33.3270   27.9740   48.0250 C   0  0  0  0  0  0  0  0  0  0  0  0
   33.3330   29.1370   47.3820 N   0  0  0  0  0  0  0  0  0  0  0  0
   34.2570   31.0030   47.0770 H   0  0  0  0  0  0  0  0  0  0  0  0
   36.0500   28.4420   49.9320 H   0  0  0  0  0  0  0  0  0  0  0  0
   36.2660   30.8690   48.7520 N   0  0  0  0  0  0  0  0  0  0  0  0
   36.3980   31.5790   49.8890 C   0  0  0  0  0  0  0  0  0  0  0  0
   37.4080   32.4610   49.7320 N   0  0  0  0  0  0  0  0  0  0  0  0
   37.8940   32.2870   48.4940 C   0  0  0  0  0  0  0  0  0  0  0  0
   38.9080   32.8860   47.7800 C   0  0  0  0  0  0  0  0  0  0  0  0
   39.1940   32.5090   46.5180 N   0  0  0  0  0  0  0  0  0  0  0  0
   38.4930   31.5250   45.9000 C   0  0  0  0  0  0  0  0  0  0  0  0
   37.5080   30.9520   46.6110 N   0  0  0  0  0  0  0  0  0  0  0  0
   37.1840   31.2890   47.8670 C   0  0  0  0  0  0  0  0  0  0  0  0
   35.7830   31.4520   50.7830 H   0  0  0  0  0  0  0  0  0  0  0  0
   38.6990   31.2010   44.8880 H   0  0  0  0  0  0  0  0  0  0  0  0
   39.6700   33.9140   48.3700 N   0  0  0  0  0  0  0  0  0  0  0  0
   40.5730   33.4520   48.5860 H   0  0  0  0  0  0  0  0  0  0  0  0
   39.2670   34.8610   48.4870 H   0  0  0  0  0  0  0  0  0  0  0  0
   31.0710   27.2210   48.6730 C   0  0  0  0  0  0  0  0  0  0  0  0
   30.3070   26.4850   48.3920 H   0  0  0  0  0  0  0  0  0  0  0  0
   31.3940   27.1650   49.7300 H   0  0  0  0  0  0  0  0  0  0  0  0
   30.6690   28.2270   48.4590 H   0  0  0  0  0  0  0  0  0  0  0  0
   31.6850   27.2470   46.3340 C   0  0  0  0  0  0  0  0  0  0  0  0
   31.0120   26.4440   46.0330 H   0  0  0  0  0  0  0  0  0  0  0  0
   31.2280   28.2570   46.2690 H   0  0  0  0  0  0  0  0  0  0  0  0
   32.5460   27.2760   45.6350 H   0  0  0  0  0  0  0  0  0  0  0  0
   32.7070   25.5750   47.7790 C   0  0  0  0  0  0  0  0  0  0  0  0
   31.8970   24.9940   48.2600 H   0  0  0  0  0  0  0  0  0  0  0  0
   33.6090   25.5230   48.4310 H   0  0  0  0  0  0  0  0  0  0  0  0
   33.0120   25.0730   46.4790 N   0  0  0  0  0  0  0  0  0  0  0  0
   34.1500   25.3460   45.8200 C   0  0  0  0  0  3  0  0  0  0  0  0
   34.1630   24.7310   44.6050 N   0  0  0  0  0  0  0  0  0  0  0  0
   33.0120   24.0370   44.4570 C   0  0  0  0  0  0  0  0  0  0  0  0
   32.4730   23.2400   43.4680 C   0  0  0  0  0  0  0  0  0  0  0  0
   33.1890   23.1080   42.4590 O   0  0  0  0  0  0  0  0  0  0  0  0
   31.2600   22.6850   43.6550 N   0  0  0  0  0  0  0  0  0  0  0  0
   30.6380   22.9380   44.8030 C   0  0  0  0  0  0  0  0  0  0  0  0
   29.3590   22.3320   44.9630 N   0  0  0  0  0  0  0  0  0  0  0  0
   31.1280   23.6990   45.7740 N   0  0  0  0  0  0  0  0  0  0  0  0
   32.3380   24.2750   45.6270 C   0  0  0  0  0  0  0  0  0  0  0  0
   30.9280   22.0980   42.8600 H   0  0  0  0  0  0  0  0  0  0  0  0
   28.8040   21.9080   44.1860 H   0  0  0  0  0  0  0  0  0  0  0  0
   28.7550   22.1930   45.8020 H   0  0  0  0  0  0  0  0  0  0  0  0
  1 32  1  0  0  0  0
  1  6  1  0  0  0  0
  1 24  1  0  0  0  0
  2  3  1  0  0  0  0
  3 10  1  0  0  0  0
  3  4  2  0  0  0  0
  4  9  1  0  0  0  0
  5  4  1  0  0  0  0
  6  5  2  0  0  0  0
  7  2  2  0  0  0  0
  7  6  1  0  0  0  0
  8  2  1  0  0  0  0
 10 11  1  0  0  0  0
 11 19  1  0  0  0  0
 12 11  2  0  0  0  0
 13 12  1  0  0  0  0
 14 21  1  0  0  0  0
 14 13  2  0  0  0  0
 15 14  1  0  0  0  0
 16 15  2  0  0  0  0
 16 17  1  0  0  0  0
 17 18  2  0  0  0  0
 18 13  1  0  0  0  0
 18 10  1  0  0  0  0
 20 16  1  0  0  0  0
 21 23  1  0  0  0  0
 21 22  1  0  0  0  0
 24 26  1  0  0  0  0
 25 24  1  0  0  0  0
 27 24  1  0  0  0  0
 28  1  1  0  0  0  0
 29 28  1  0  0  0  0
 30 28  1  0  0  0  0
 31 28  1  0  0  0  0
 32 33  1  0  0  0  0
 32 34  1  0  0  0  0
 35 32  1  0  0  0  0
 36 35  1  0  0  0  0
 37 36  2  0  0  0  0
 38 37  1  0  0  0  0
 38 45  2  0  0  0  0
 39 41  1  0  0  0  0
 39 38  1  0  0  0  0
 40 39  2  0  0  0  0
 41 42  1  0  0  0  0
 42 43  1  0  0  0  0
 42 44  2  0  0  0  0
 43 48  1  0  0  0  0
 45 44  1  0  0  0  0
 45 35  1  0  0  0  0
 46 41  1  0  0  0  0
 47 43  1  0  0  0  0
M  END
>  <minimizedAffinity>
-5.45463371

>  <minimizedRMSD>
1.92947292

$$$$
