
 OpenBabel03252512333D

 37 39  0  0  1  0  0  0  0  0999 V2000
   31.7060   27.9370   46.7280 C   0  0  2  0  0  0  0  0  0  0  0  0
   31.8650   26.8550   46.4660 H   0  0  0  0  0  0  0  0  0  0  0  0
   35.0120   29.4190   48.6060 C   0  0  0  0  0  0  0  0  0  0  0  0
   34.5210   28.2430   49.1580 C   0  0  0  0  0  0  0  0  0  0  0  0
   33.4230   27.6960   48.5990 C   0  0  0  0  0  0  0  0  0  0  0  0
   32.8820   28.3020   47.5700 C   0  0  0  0  0  0  0  0  0  0  0  0
   33.8790   29.7920   47.2260 S   0  0  0  0  0  0  0  0  0  0  0  0
   35.0630   27.8270   50.0250 H   0  0  0  0  0  0  0  0  0  0  0  0
   32.9760   26.7740   48.9730 H   0  0  0  0  0  0  0  0  0  0  0  0
   37.8070   30.6630   50.6260 C   0  0  0  0  0  0  0  0  0  0  0  0
   38.4080   31.6120   49.7850 C   0  0  0  0  0  0  0  0  0  0  0  0
   37.8490   31.8220   48.5330 C   0  0  0  0  0  0  0  0  0  0  0  0
   36.7500   31.1000   48.1820 N   0  0  0  0  0  0  0  0  0  0  0  0
   36.2200   30.2060   49.0320 C   0  0  0  0  0  0  0  0  0  0  0  0
   36.7040   29.9310   50.2890 N   0  0  0  0  0  0  0  0  0  0  0  0
   38.2720   30.5250   51.6000 H   0  0  0  0  0  0  0  0  0  0  0  0
   39.2690   32.1520   50.1040 H   0  0  0  0  0  0  0  0  0  0  0  0
   38.2540   32.5350   47.8280 H   0  0  0  0  0  0  0  0  0  0  0  0
   31.6250   28.7990   45.5700 C   0  0  0  0  0  0  0  0  0  0  0  0
   31.7000   28.2160   44.6150 H   0  0  0  0  0  0  0  0  0  0  0  0
   30.6470   29.3450   45.5250 H   0  0  0  0  0  0  0  0  0  0  0  0
   32.4230   29.5860   45.4890 H   0  0  0  0  0  0  0  0  0  0  0  0
   30.4810   27.9210   47.6360 C   0  0  0  0  0  0  0  0  0  0  0  0
   30.7360   28.2850   48.6530 H   0  0  0  0  0  0  0  0  0  0  0  0
   29.8020   28.6980   47.2140 H   0  0  0  0  0  0  0  0  0  0  0  0
   29.8540   26.7250   47.6660 O   0  0  0  0  0  0  0  0  0  0  0  0
   29.2150   26.2020   46.5560 C   0  0  0  0  0  0  0  0  0  0  0  0
   29.1170   25.0190   45.8600 C   0  0  0  0  0  0  0  0  0  0  0  0
   28.2530   25.2720   44.8120 C   0  0  0  0  0  0  0  0  0  0  0  0
   27.8600   26.5810   44.9040 C   0  0  0  0  0  0  0  0  0  0  0  0
   28.4650   27.0810   45.9580 O   0  0  0  0  0  0  0  0  0  0  0  0
   29.6990   24.1910   46.2550 H   0  0  0  0  0  0  0  0  0  0  0  0
   28.0330   24.4590   44.1300 H   0  0  0  0  0  0  0  0  0  0  0  0
   26.9210   27.2030   43.9290 C   0  0  0  0  0  0  0  0  0  0  0  0
   27.7330   28.1000   43.0270 C   0  0  0  0  0  0  0  0  0  0  0  0
   25.8670   28.0310   44.6360 C   0  0  0  0  0  0  0  0  0  0  0  0
   26.1880   26.1530   43.1290 C   0  0  0  0  0  0  0  0  0  0  0  0
  1  2  1  6  0  0  0
  1  6  1  0  0  0  0
  1 23  1  0  0  0  0
  3 14  1  0  0  0  0
  3  4  2  0  0  0  0
  4  8  1  0  0  0  0
  5  9  1  0  0  0  0
  5  4  1  0  0  0  0
  6  5  2  0  0  0  0
  7  6  1  0  0  0  0
  7  3  1  0  0  0  0
 10 16  1  0  0  0  0
 11 17  1  0  0  0  0
 11 10  2  0  0  0  0
 12 11  1  0  0  0  0
 13 12  2  0  0  0  0
 13 14  1  0  0  0  0
 14 15  2  0  0  0  0
 15 10  1  0  0  0  0
 18 12  1  0  0  0  0
 19  1  1  0  0  0  0
 20 19  1  0  0  0  0
 21 19  1  0  0  0  0
 22 19  1  0  0  0  0
 23 26  1  0  0  0  0
 23 24  1  0  0  0  0
 25 23  1  0  0  0  0
 27 26  1  0  0  0  0
 28 32  1  0  0  0  0
 28 27  2  0  0  0  0
 29 30  2  0  0  0  0
 29 28  1  0  0  0  0
 30 31  1  0  0  0  0
 31 27  1  0  0  0  0
 33 29  1  0  0  0  0
 34 36  1  0  0  0  0
 34 30  1  0  0  0  0
 35 34  1  0  0  0  0
 37 34  1  0  0  0  0
M  END
>  <minimizedAffinity>
-4.9271946

>  <minimizedRMSD>
0.575960636

$$$$
