
 OpenBabel03252513373D

 23 23  0  0  0  0  0  0  0  0999 V2000
   36.8960   29.9170   49.8660 C   0  0  0  0  0  0  0  0  0  0  0  0
   37.9800   30.6650   49.4160 C   0  0  0  0  0  0  0  0  0  0  0  0
   37.9690   31.0900   48.0810 C   0  0  0  0  0  0  0  0  0  0  0  0
   36.9240   30.7600   47.3070 N   0  0  0  0  0  0  0  0  0  0  0  0
   35.8810   30.0260   47.7870 C   0  0  0  0  0  0  0  0  0  0  0  0
   35.8820   29.6150   49.0570 N   0  0  0  0  0  0  0  0  0  0  0  0
   39.0340   31.8470   47.5670 N   0  0  0  0  0  0  0  0  0  0  0  0
   38.9260   32.5640   46.3620 C   0  0  0  0  0  0  0  0  0  0  0  0
   37.8580   32.4040   45.6480 N   0  0  0  0  0  0  0  0  0  0  0  0
   39.9630   33.4360   45.9420 N   0  0  0  0  0  0  0  0  0  0  0  0
   37.8470   32.8040   44.6750 H   0  0  0  0  0  0  0  0  0  0  0  0
   38.8170   30.9210   50.0580 H   0  0  0  0  0  0  0  0  0  0  0  0
   39.9340   31.8890   48.0820 H   0  0  0  0  0  0  0  0  0  0  0  0
   39.5080   34.3600   46.1450 H   0  0  0  0  0  0  0  0  0  0  0  0
   40.9170   33.2320   45.5410 H   0  0  0  0  0  0  0  0  0  0  0  0
   36.8900   29.4490   51.3010 C   0  0  0  0  0  0  0  0  0  0  0  0
   35.5960   29.1540   51.6880 F   0  0  0  0  0  0  0  0  0  0  0  0
   37.7610   28.4180   51.4210 F   0  0  0  0  0  0  0  0  0  0  0  0
   37.3210   30.5280   52.0730 F   0  0  0  0  0  0  0  0  0  0  0  0
   34.7040   29.6400   46.9560 C   0  0  0  0  0  0  0  0  0  0  0  0
   33.5440   30.5920   47.1740 C   0  0  0  0  0  0  0  0  0  0  0  0
   34.2820   28.2240   47.2800 C   0  0  0  0  0  0  0  0  0  0  0  0
   35.1230   29.7600   45.5050 C   0  0  0  0  0  0  0  0  0  0  0  0
  1 16  1  0  0  0  0
  2  1  1  0  0  0  0
  2 12  1  0  0  0  0
  3  2  2  0  0  0  0
  4  5  2  0  0  0  0
  4  3  1  0  0  0  0
  5  6  1  0  0  0  0
  6  1  2  0  0  0  0
  7  3  1  0  0  0  0
  7 13  1  0  0  0  0
  8  7  1  0  0  0  0
  9  8  2  0  0  0  0
 10 14  1  0  0  0  0
 10  8  1  0  0  0  0
 11  9  1  0  0  0  0
 15 10  1  0  0  0  0
 16 18  1  0  0  0  0
 16 17  1  0  0  0  0
 16 19  1  0  0  0  0
 20 21  1  0  0  0  0
 20 22  1  0  0  0  0
 20  5  1  0  0  0  0
 23 20  1  0  0  0  0
M  END
>  <minimizedAffinity>
-6.29988146

>  <minimizedRMSD>
0.173885316

$$$$
