
 OpenBabel03252512163D

 35 38  0  0  0  0  0  0  0  0999 V2000
   32.2600   30.1080   46.0950 C   0  0  0  0  0  0  0  0  0  0  0  0
   31.8880   28.7620   46.1070 C   0  0  0  0  0  0  0  0  0  0  0  0
   32.7930   27.8480   46.6860 C   0  0  0  0  0  0  0  0  0  0  0  0
   33.9560   28.3160   47.1920 N   0  0  0  0  0  0  0  0  0  0  0  0
   34.2810   29.6330   47.1620 C   0  0  0  0  0  0  0  0  0  0  0  0
   33.4380   30.5230   46.6160 N   0  0  0  0  0  0  0  0  0  0  0  0
   31.5580   30.7900   45.6500 H   0  0  0  0  0  0  0  0  0  0  0  0
   30.9510   28.3990   45.6980 H   0  0  0  0  0  0  0  0  0  0  0  0
   35.5600   30.0150   47.7370 C   0  0  0  0  0  0  0  0  0  0  0  0
   36.6050   30.5630   46.9910 C   0  0  0  0  0  0  0  0  0  0  0  0
   37.6470   30.8100   47.7940 N   0  0  0  0  0  0  0  0  0  0  0  0
   37.3060   30.4320   49.0560 C   0  0  0  0  0  0  0  0  0  0  0  0
   38.0170   30.4740   50.2470 C   0  0  0  0  0  0  0  0  0  0  0  0
   37.3850   30.0040   51.4070 C   0  0  0  0  0  0  0  0  0  0  0  0
   36.0880   29.5170   51.3340 C   0  0  0  0  0  0  0  0  0  0  0  0
   35.3760   29.4760   50.1330 C   0  0  0  0  0  0  0  0  0  0  0  0
   36.0240   29.9450   49.0140 C   0  0  0  0  0  0  0  0  0  0  0  0
   36.5600   30.7570   45.9180 H   0  0  0  0  0  0  0  0  0  0  0  0
   38.5270   31.2170   47.4510 H   0  0  0  0  0  0  0  0  0  0  0  0
   39.0160   30.8660   50.2160 H   0  0  0  0  0  0  0  0  0  0  0  0
   37.9420   30.0380   52.3340 H   0  0  0  0  0  0  0  0  0  0  0  0
   35.6900   29.1780   52.2820 H   0  0  0  0  0  0  0  0  0  0  0  0
   34.3660   29.0840   50.1460 H   0  0  0  0  0  0  0  0  0  0  0  0
   32.4620   26.4290   46.7280 C   0  0  0  0  0  0  0  0  0  0  0  0
   33.3190   25.5620   47.3550 C   0  0  0  0  0  0  0  0  0  0  0  0
   32.9200   24.2470   47.3400 C   0  0  0  0  0  0  0  0  0  0  0  0
   31.7630   23.8240   46.7510 N   0  0  0  0  0  0  0  0  0  0  0  0
   30.9450   24.7110   46.1430 C   0  0  0  0  0  0  0  0  0  0  0  0
   31.3370   26.0040   46.1570 N   0  0  0  0  0  0  0  0  0  0  0  0
   34.2360   25.8470   47.8310 H   0  0  0  0  0  0  0  0  0  0  0  0
   33.5400   23.4850   47.8160 H   0  0  0  0  0  0  0  0  0  0  0  0
   29.6730   24.3640   45.4760 C   0  0  0  0  0  0  0  0  0  0  0  0
   28.5190   25.1960   45.9910 C   0  0  0  0  0  0  0  0  0  0  0  0
   29.8040   24.6750   43.9840 C   0  0  0  0  0  0  0  0  0  0  0  0
   29.3350   22.9040   45.5940 C   0  0  0  0  0  0  0  0  0  0  0  0
  1  2  2  0  0  0  0
  1  6  1  0  0  0  0
  2  3  1  0  0  0  0
  3 24  1  0  0  0  0
  3  4  2  0  0  0  0
  5  4  1  0  0  0  0
  5  9  1  0  0  0  0
  6  5  2  0  0  0  0
  7  1  1  0  0  0  0
  8  2  1  0  0  0  0
  9 17  1  0  0  0  0
 10  9  2  0  0  0  0
 10 11  1  0  0  0  0
 11 12  1  0  0  0  0
 12 13  1  0  0  0  0
 13 14  2  0  0  0  0
 14 21  1  0  0  0  0
 15 14  1  0  0  0  0
 15 22  1  0  0  0  0
 16 23  1  0  0  0  0
 16 15  2  0  0  0  0
 17 12  2  0  0  0  0
 17 16  1  0  0  0  0
 18 10  1  0  0  0  0
 19 11  1  0  0  0  0
 20 13  1  0  0  0  0
 24 25  1  0  0  0  0
 25 30  1  0  0  0  0
 26 25  2  0  0  0  0
 26 31  1  0  0  0  0
 27 26  1  0  0  0  0
 28 29  1  0  0  0  0
 28 27  2  0  0  0  0
 29 24  2  0  0  0  0
 32 35  1  0  0  0  0
 32 33  1  0  0  0  0
 32 28  1  0  0  0  0
 34 32  1  0  0  0  0
M  END
>  <minimizedAffinity>
-6.047791

>  <minimizedRMSD>
0.387750477

$$$$
