
 OpenBabel03252514073D

 48 52  0  0  0  0  0  0  0  0999 V2000
   31.8780   27.2200   47.9060 C   0  0  0  0  0  0  0  0  0  0  0  0
   34.1610   30.0770   47.5590 C   0  0  0  0  0  0  0  0  0  0  0  0
   35.1350   29.8680   48.5430 C   0  0  0  0  0  0  0  0  0  0  0  0
   34.9830   28.7330   49.3160 C   0  0  0  0  0  0  0  0  0  0  0  0
   33.9370   27.9100   49.0890 N   0  0  0  0  0  0  0  0  0  0  0  0
   33.0210   28.1310   48.1440 C   0  0  0  0  0  0  0  0  0  0  0  0
   33.1440   29.2160   47.3870 N   0  0  0  0  0  0  0  0  0  0  0  0
   34.2360   30.9550   46.9260 H   0  0  0  0  0  0  0  0  0  0  0  0
   35.7290   28.5590   50.0810 H   0  0  0  0  0  0  0  0  0  0  0  0
   36.1850   30.8230   48.6700 N   0  0  0  0  0  0  0  0  0  0  0  0
   36.4900   31.4730   49.8110 C   0  0  0  0  0  0  0  0  0  0  0  0
   37.5320   32.2970   49.5720 N   0  0  0  0  0  0  0  0  0  0  0  0
   37.8650   32.1490   48.2810 C   0  0  0  0  0  0  0  0  0  0  0  0
   38.8310   32.7160   47.4800 C   0  0  0  0  0  0  0  0  0  0  0  0
   38.9480   32.3800   46.1800 N   0  0  0  0  0  0  0  0  0  0  0  0
   38.1200   31.4690   45.6090 C   0  0  0  0  0  0  0  0  0  0  0  0
   37.1850   30.9260   46.4060 N   0  0  0  0  0  0  0  0  0  0  0  0
   37.0250   31.2260   47.7020 C   0  0  0  0  0  0  0  0  0  0  0  0
   35.9710   31.3440   50.7630 H   0  0  0  0  0  0  0  0  0  0  0  0
   38.1900   31.1790   44.5690 H   0  0  0  0  0  0  0  0  0  0  0  0
   39.7190   33.6680   48.0170 N   0  0  0  0  0  0  0  0  0  0  0  0
   40.6080   33.1430   48.1110 H   0  0  0  0  0  0  0  0  0  0  0  0
   39.3950   34.6320   48.2150 H   0  0  0  0  0  0  0  0  0  0  0  0
   30.8240   27.4210   49.0100 C   0  0  0  0  0  0  0  0  0  0  0  0
   29.9980   26.7380   48.7740 H   0  0  0  0  0  0  0  0  0  0  0  0
   31.2690   27.2730   50.0130 H   0  0  0  0  0  0  0  0  0  0  0  0
   30.4490   28.4550   48.9170 H   0  0  0  0  0  0  0  0  0  0  0  0
   31.1550   27.5970   46.6200 C   0  0  0  0  0  0  0  0  0  0  0  0
   30.4130   26.8460   46.3500 H   0  0  0  0  0  0  0  0  0  0  0  0
   30.7430   28.6270   46.6820 H   0  0  0  0  0  0  0  0  0  0  0  0
   31.9270   27.6440   45.8250 H   0  0  0  0  0  0  0  0  0  0  0  0
   32.2600   25.7830   47.8100 C   0  0  0  0  0  0  0  0  0  0  0  0
   31.3580   25.1860   48.0400 H   0  0  0  0  0  0  0  0  0  0  0  0
   33.0260   25.5760   48.5920 H   0  0  0  0  0  0  0  0  0  0  0  0
   32.7820   25.4700   46.5190 N   0  0  0  0  0  0  0  0  0  0  0  0
   34.0150   25.8040   46.1100 C   0  0  0  0  0  3  0  0  0  0  0  0
   34.2340   25.3740   44.8360 N   0  0  0  0  0  0  0  0  0  0  0  0
   33.1240   24.7420   44.3930 C   0  0  0  0  0  0  0  0  0  0  0  0
   32.7600   24.1160   43.2200 C   0  0  0  0  0  0  0  0  0  0  0  0
   33.6370   24.1130   42.3380 O   0  0  0  0  0  0  0  0  0  0  0  0
   31.5310   23.5730   43.1150 N   0  0  0  0  0  0  0  0  0  0  0  0
   30.7220   23.6730   44.1650 C   0  0  0  0  0  0  0  0  0  0  0  0
   29.4330   23.0870   44.0150 N   0  0  0  0  0  0  0  0  0  0  0  0
   31.0420   24.2690   45.3090 N   0  0  0  0  0  0  0  0  0  0  0  0
   32.2610   24.8250   45.4560 C   0  0  0  0  0  0  0  0  0  0  0  0
   31.3380   23.1200   42.1960 H   0  0  0  0  0  0  0  0  0  0  0  0
   29.0190   22.7980   43.1020 H   0  0  0  0  0  0  0  0  0  0  0  0
   28.6940   22.8430   44.7110 H   0  0  0  0  0  0  0  0  0  0  0  0
  1  6  1  0  0  0  0
  1 24  1  0  0  0  0
  2  3  1  0  0  0  0
  3 10  1  0  0  0  0
  3  4  2  0  0  0  0
  4  9  1  0  0  0  0
  5  4  1  0  0  0  0
  6  5  2  0  0  0  0
  7  2  2  0  0  0  0
  7  6  1  0  0  0  0
  8  2  1  0  0  0  0
 10 11  1  0  0  0  0
 11 19  1  0  0  0  0
 12 11  2  0  0  0  0
 13 12  1  0  0  0  0
 14 21  1  0  0  0  0
 14 13  2  0  0  0  0
 15 14  1  0  0  0  0
 16 15  2  0  0  0  0
 16 17  1  0  0  0  0
 17 18  2  0  0  0  0
 18 13  1  0  0  0  0
 18 10  1  0  0  0  0
 20 16  1  0  0  0  0
 21 22  1  0  0  0  0
 21 23  1  0  0  0  0
 24 26  1  0  0  0  0
 25 24  1  0  0  0  0
 27 24  1  0  0  0  0
 28 30  1  0  0  0  0
 28  1  1  0  0  0  0
 29 28  1  0  0  0  0
 31 28  1  0  0  0  0
 32  1  1  0  0  0  0
 32 33  1  0  0  0  0
 32 34  1  0  0  0  0
 35 32  1  0  0  0  0
 36 35  1  0  0  0  0
 37 36  2  0  0  0  0
 38 37  1  0  0  0  0
 38 45  2  0  0  0  0
 39 38  1  0  0  0  0
 40 39  2  0  0  0  0
 41 39  1  0  0  0  0
 41 42  1  0  0  0  0
 42 44  2  0  0  0  0
 43 42  1  0  0  0  0
 43 48  1  0  0  0  0
 44 45  1  0  0  0  0
 45 35  1  0  0  0  0
 46 41  1  0  0  0  0
 47 43  1  0  0  0  0
M  END
>  <minimizedAffinity>
-5.38152742

>  <minimizedRMSD>
2.70281959

$$$$
