
 OpenBabel03252511203D

 48 52  0  0  1  0  0  0  0  0999 V2000
   39.1260   31.5260   46.8330 C   0  0  0  0  0  0  0  0  0  0  0  0
   40.1180   32.4600   46.4400 C   0  0  0  0  0  0  0  0  0  0  0  0
   40.7410   32.3200   45.1560 C   0  0  0  0  0  0  0  0  0  0  0  0
   40.3330   31.3060   44.4190 N   0  0  0  0  0  0  0  0  0  0  0  0
   39.3600   30.4080   44.8240 C   0  0  0  0  0  0  0  0  0  0  0  0
   38.7960   30.5470   46.0020 N   0  0  0  0  0  0  0  0  0  0  0  0
   40.6020   33.3220   46.8570 H   0  0  0  0  0  0  0  0  0  0  0  0
   41.4840   32.9180   44.7170 H   0  0  0  0  0  0  0  0  0  0  0  0
   38.9330   29.2970   43.9540 C   0  0  0  0  0  0  0  0  0  0  0  0
   39.8420   28.6600   43.7390 H   0  0  0  0  0  0  0  0  0  0  0  0
   38.2740   28.6150   44.5300 H   0  0  0  0  0  0  0  0  0  0  0  0
   38.3110   29.7690   42.7470 N   0  0  0  0  0  0  0  0  0  0  0  0
   38.6650   29.1360   41.5850 C   0  0  0  0  0  0  0  0  0  0  0  0
   38.0340   29.6750   40.5280 N   0  0  0  0  0  0  0  0  0  0  0  0
   37.2460   30.6820   40.9820 C   0  0  0  0  0  0  0  0  0  0  0  0
   36.3670   31.5890   40.4270 C   0  0  0  0  0  0  0  0  0  0  0  0
   36.1940   31.5560   39.1820 O   0  0  0  0  0  0  0  0  0  0  0  0
   35.7480   32.4530   41.2680 N   0  0  0  0  0  0  0  0  0  0  0  0
   35.9680   32.4470   42.5950 C   0  0  0  0  0  0  0  0  0  0  0  0
   35.1900   33.4420   43.2440 N   0  0  0  0  0  0  0  0  0  0  0  0
   36.8320   31.5630   43.1740 N   0  0  0  0  0  0  0  0  0  0  0  0
   37.4450   30.7060   42.3450 C   0  0  0  0  0  0  0  0  0  0  0  0
   35.1040   33.0940   40.7420 H   0  0  0  0  0  0  0  0  0  0  0  0
   35.3160   34.4470   43.4970 H   0  0  0  0  0  0  0  0  0  0  0  0
   34.2530   33.0710   43.5440 H   0  0  0  0  0  0  0  0  0  0  0  0
   38.7310   31.7700   48.1870 C   0  0  2  0  0  0  0  0  0  0  0  0
   39.7870   31.6790   48.6730 H   0  0  0  0  0  0  0  0  0  0  0  0
   37.8970   31.0350   49.1270 C   0  0  0  0  0  0  0  0  0  0  0  0
   38.3140   30.8570   50.3740 N   0  0  0  0  0  0  0  0  0  0  0  0
   37.6030   30.1740   51.2880 C   0  0  0  0  0  0  0  0  0  0  0  0
   36.4310   29.6220   51.0260 N   0  0  0  0  0  0  0  0  0  0  0  0
   35.8830   29.7280   49.7930 C   0  0  0  0  0  0  0  0  0  0  0  0
   34.6820   29.1700   49.4830 C   0  0  0  0  0  0  0  0  0  0  0  0
   34.1440   29.2810   48.2440 C   0  0  0  0  0  0  0  0  0  0  0  0
   34.8840   29.9920   47.3240 C   0  0  0  0  0  0  0  0  0  0  0  0
   36.0950   30.5440   47.6690 C   0  0  0  0  0  0  0  0  0  0  0  0
   36.6490   30.4400   48.8930 C   0  0  0  0  0  0  0  0  0  0  0  0
   37.9540   30.0250   52.3340 H   0  0  0  0  0  0  0  0  0  0  0  0
   34.1440   28.6210   50.2520 H   0  0  0  0  0  0  0  0  0  0  0  0
   33.2000   28.8630   47.9280 H   0  0  0  0  0  0  0  0  0  0  0  0
   34.5160   30.1260   46.3190 H   0  0  0  0  0  0  0  0  0  0  0  0
   36.5970   31.1270   46.9090 H   0  0  0  0  0  0  0  0  0  0  0  0
   38.4350   33.0700   48.5510 O   0  0  0  0  0  0  0  0  0  0  0  0
   39.2430   34.0270   49.1280 C   0  0  0  0  0  0  0  0  0  0  0  0
   39.7270   35.1820   48.3780 N   0  0  0  0  0  0  0  0  0  0  0  0
   39.5980   33.9480   50.3330 O   0  0  0  0  0  0  0  0  0  0  0  0
   40.7300   35.3080   48.1580 H   0  0  0  0  0  0  0  0  0  0  0  0
   38.8780   35.7510   48.1680 H   0  0  0  0  0  0  0  0  0  0  0  0
  1 26  1  0  0  0  0
  2  1  1  0  0  0  0
  2  7  1  0  0  0  0
  3  2  2  0  0  0  0
  4  5  2  0  0  0  0
  4  3  1  0  0  0  0
  5  6  1  0  0  0  0
  6  1  2  0  0  0  0
  8  3  1  0  0  0  0
  9 11  1  0  0  0  0
  9  5  1  0  0  0  0
 10  9  1  0  0  0  0
 12  9  1  0  0  0  0
 13 12  1  0  0  0  0
 14 15  1  0  0  0  0
 14 13  2  0  0  0  0
 15 22  2  0  0  0  0
 16 15  1  0  0  0  0
 16 18  1  0  0  0  0
 17 16  2  0  0  0  0
 18 19  1  0  0  0  0
 19 21  2  0  0  0  0
 19 20  1  0  0  0  0
 20 24  1  0  0  0  0
 20 25  1  0  0  0  0
 22 12  1  0  0  0  0
 22 21  1  0  0  0  0
 23 18  1  0  0  0  0
 26 43  1  0  0  0  0
 26 27  1  1  0  0  0
 26 28  1  0  0  0  0
 28 29  1  0  0  0  0
 29 30  2  0  0  0  0
 30 38  1  0  0  0  0
 31 30  1  0  0  0  0
 32 31  2  0  0  0  0
 33 32  1  0  0  0  0
 33 39  1  0  0  0  0
 34 33  2  0  0  0  0
 35 36  2  0  0  0  0
 35 34  1  0  0  0  0
 36 37  1  0  0  0  0
 37 28  2  0  0  0  0
 37 32  1  0  0  0  0
 40 34  1  0  0  0  0
 41 35  1  0  0  0  0
 42 36  1  0  0  0  0
 43 44  1  0  0  0  0
 44 46  2  0  0  0  0
 45 44  1  0  0  0  0
 47 45  1  0  0  0  0
 48 45  1  0  0  0  0
M  END
>  <minimizedAffinity>
-7.64143181

>  <minimizedRMSD>
0.603984475

$$$$
