
 OpenBabel03252513433D

 25 27  0  0  0  0  0  0  0  0999 V2000
   37.5230   30.5610   48.9980 C   0  0  0  0  0  0  0  0  0  0  0  0
   37.4660   31.7230   49.7930 C   0  0  0  0  0  0  0  0  0  0  0  0
   38.0820   32.8720   49.3160 C   0  0  0  0  0  0  0  0  0  0  0  0
   38.7110   32.8380   48.1140 N   0  0  0  0  0  0  0  0  0  0  0  0
   38.7440   31.7080   47.3840 C   0  0  0  0  0  0  0  0  0  0  0  0
   38.1570   30.5810   47.8200 N   0  0  0  0  0  0  0  0  0  0  0  0
   36.9630   31.7550   50.7560 H   0  0  0  0  0  0  0  0  0  0  0  0
   38.0730   33.8030   49.8840 H   0  0  0  0  0  0  0  0  0  0  0  0
   39.3780   31.5720   46.1130 N   0  0  0  0  0  0  0  0  0  0  0  0
   40.6450   31.1570   45.8200 C   0  0  0  0  0  0  0  0  0  0  0  0
   40.7850   31.1950   44.4700 N   0  0  0  0  0  0  0  0  0  0  0  0
   39.6380   31.6220   43.9280 C   0  0  0  0  0  0  0  0  0  0  0  0
   39.1630   31.8660   42.6550 C   0  0  0  0  0  0  0  0  0  0  0  0
   37.9080   32.3110   42.4170 N   0  0  0  0  0  0  0  0  0  0  0  0
   37.0710   32.5310   43.4620 C   0  0  0  0  0  0  0  0  0  0  0  0
   37.4810   32.3110   44.7030 N   0  0  0  0  0  0  0  0  0  0  0  0
   38.7290   31.8680   44.9490 C   0  0  0  0  0  0  0  0  0  0  0  0
   39.9970   31.6510   41.5500 N   0  0  0  0  0  0  0  0  0  0  0  0
   40.5880   32.5300   41.5330 H   0  0  0  0  0  0  0  0  0  0  0  0
   40.2330   30.9690   40.7800 H   0  0  0  0  0  0  0  0  0  0  0  0
   36.9150   29.4230   49.4670 O   0  0  0  0  0  0  0  0  0  0  0  0
   35.6370   29.3650   50.0460 C   0  0  0  0  0  0  0  0  0  0  0  0
   35.6660   29.3780   51.4240 F   0  0  0  0  0  0  0  0  0  0  0  0
   34.7740   30.3040   49.5740 F   0  0  0  0  0  0  0  0  0  0  0  0
   35.1080   28.1200   49.6610 F   0  0  0  0  0  0  0  0  0  0  0  0
  1 21  1  0  0  0  0
  1  2  1  0  0  0  0
  2  7  1  0  0  0  0
  3  2  2  0  0  0  0
  3  8  1  0  0  0  0
  4  3  1  0  0  0  0
  5  6  1  0  0  0  0
  5  4  2  0  0  0  0
  6  1  2  0  0  0  0
  9  5  1  0  0  0  0
 10  9  1  0  0  0  0
 11 10  2  0  0  0  0
 12 11  1  0  0  0  0
 12 17  1  0  0  0  0
 13 12  2  0  0  0  0
 14 13  1  0  0  0  0
 14 15  2  0  0  0  0
 15 16  1  0  0  0  0
 16 17  2  0  0  0  0
 17  9  1  0  0  0  0
 18 13  1  0  0  0  0
 19 18  1  0  0  0  0
 20 18  1  0  0  0  0
 21 22  1  0  0  0  0
 22 23  1  0  0  0  0
 24 22  1  0  0  0  0
 25 22  1  0  0  0  0
M  END
>  <minimizedAffinity>
-6.70298815

>  <minimizedRMSD>
1.75059879

$$$$
