
 OpenBabel03252513373D

 31 33  0  0  0  0  0  0  0  0999 V2000
   36.9150   29.9280   49.8900 C   0  0  0  0  0  0  0  0  0  0  0  0
   37.9940   30.6530   49.4130 C   0  0  0  0  0  0  0  0  0  0  0  0
   37.9660   31.0890   48.0900 C   0  0  0  0  0  0  0  0  0  0  0  0
   36.8750   30.7770   47.3340 N   0  0  0  0  0  0  0  0  0  0  0  0
   35.8450   30.0670   47.8380 C   0  0  0  0  0  0  0  0  0  0  0  0
   35.8830   29.6550   49.1090 N   0  0  0  0  0  0  0  0  0  0  0  0
   39.0360   31.8310   47.5520 N   0  0  0  0  0  0  0  0  0  0  0  0
   38.9030   32.5530   46.3480 C   0  0  0  0  0  0  0  0  0  0  0  0
   37.8580   32.3580   45.6370 N   0  0  0  0  0  0  0  0  0  0  0  0
   39.9250   33.4660   45.9640 N   0  0  0  0  0  0  0  0  0  0  0  0
   37.7620   32.9010   44.7410 H   0  0  0  0  0  0  0  0  0  0  0  0
   38.8360   30.8710   50.0640 H   0  0  0  0  0  0  0  0  0  0  0  0
   39.9420   31.8440   48.0560 H   0  0  0  0  0  0  0  0  0  0  0  0
   39.7730   34.0880   45.1400 H   0  0  0  0  0  0  0  0  0  0  0  0
   40.8080   33.5250   46.4810 H   0  0  0  0  0  0  0  0  0  0  0  0
   34.7110   29.7470   47.0400 N   0  0  0  0  0  0  0  0  0  0  0  0
   34.5040   30.1490   45.7680 C   0  0  0  0  0  0  0  0  0  0  0  0
   33.3570   29.6920   45.2870 N   0  0  0  0  0  0  0  0  0  0  0  0
   32.7650   28.9710   46.2250 C   0  0  0  0  0  0  0  0  0  0  0  0
   31.5720   28.2550   46.3160 C   0  0  0  0  0  0  0  0  0  0  0  0
   31.2760   27.6190   47.4600 N   0  0  0  0  0  0  0  0  0  0  0  0
   32.1040   27.6620   48.5110 C   0  0  0  0  0  0  0  0  0  0  0  0
   33.2760   28.3580   48.4410 N   0  0  0  0  0  0  0  0  0  0  0  0
   33.6180   29.0120   47.3160 C   0  0  0  0  0  0  0  0  0  0  0  0
   36.9420   29.4530   51.3240 C   0  0  0  0  0  0  0  0  0  0  0  0
   35.6440   29.1520   51.7270 F   0  0  0  0  0  0  0  0  0  0  0  0
   37.8090   28.4050   51.4120 F   0  0  0  0  0  0  0  0  0  0  0  0
   37.3880   30.5190   52.0960 F   0  0  0  0  0  0  0  0  0  0  0  0
   30.7790   28.2880   45.1250 N   0  0  0  0  0  0  0  0  0  0  0  0
   31.0800   27.4850   44.5320 H   0  0  0  0  0  0  0  0  0  0  0  0
   30.0260   28.9800   44.8690 H   0  0  0  0  0  0  0  0  0  0  0  0
  1 25  1  0  0  0  0
  2  1  1  0  0  0  0
  2 12  1  0  0  0  0
  3  2  2  0  0  0  0
  4  5  2  0  0  0  0
  4  3  1  0  0  0  0
  5  6  1  0  0  0  0
  6  1  2  0  0  0  0
  7 13  1  0  0  0  0
  7  3  1  0  0  0  0
  8  7  1  0  0  0  0
  9  8  2  0  0  0  0
 10  8  1  0  0  0  0
 10 15  1  0  0  0  0
 11  9  1  0  0  0  0
 14 10  1  0  0  0  0
 16 24  1  0  0  0  0
 16  5  1  0  0  0  0
 17 16  1  0  0  0  0
 18 17  2  0  0  0  0
 18 19  1  0  0  0  0
 19 20  2  0  0  0  0
 19 24  1  0  0  0  0
 20 21  1  0  0  0  0
 21 22  2  0  0  0  0
 23 22  1  0  0  0  0
 24 23  2  0  0  0  0
 25 27  1  0  0  0  0
 25 26  1  0  0  0  0
 25 28  1  0  0  0  0
 29 20  1  0  0  0  0
 30 29  1  0  0  0  0
 31 29  1  0  0  0  0
M  END
>  <minimizedAffinity>
-7.58934069

>  <minimizedRMSD>
0.189263001

$$$$
