
 OpenBabel03252513563D

 31 34  0  0  1  0  0  0  0  0999 V2000
   35.2040   29.3650   49.0310 C   0  0  2  0  0  0  0  0  0  0  0  0
   34.0930   29.5800   50.0060 C   0  0  0  0  0  0  0  0  0  0  0  0
   34.3240   28.2200   49.4620 C   0  0  1  0  0  0  0  0  0  0  0  0
   35.0930   29.7090   47.9740 H   0  0  0  0  0  0  0  0  0  0  0  0
   34.4340   29.8150   51.0440 H   0  0  0  0  0  0  0  0  0  0  0  0
   33.3110   30.2610   49.6740 H   0  0  0  0  0  0  0  0  0  0  0  0
   34.7510   27.4930   50.2120 H   0  0  0  0  0  0  0  0  0  0  0  0
   33.3920   27.6640   48.4900 N   0  0  0  0  0  0  0  0  0  0  0  0
   33.8150   27.1600   47.3010 C   0  0  0  0  0  0  0  0  0  0  0  0
   32.7290   26.7190   46.6160 N   0  0  0  0  0  0  0  0  0  0  0  0
   31.6610   26.9510   47.3770 C   0  0  0  0  0  0  0  0  0  0  0  0
   30.3030   26.7450   47.2620 C   0  0  0  0  0  0  0  0  0  0  0  0
   29.4060   27.0920   48.2280 N   0  0  0  0  0  0  0  0  0  0  0  0
   29.8610   27.6750   49.3750 C   0  0  0  0  0  0  0  0  0  0  0  0
   31.1850   27.8870   49.5080 N   0  0  0  0  0  0  0  0  0  0  0  0
   32.0460   27.5440   48.5590 C   0  0  0  0  0  0  0  0  0  0  0  0
   29.7760   26.1390   46.0870 N   0  0  0  0  0  0  0  0  0  0  0  0
   29.9190   25.0950   46.2250 H   0  0  0  0  0  0  0  0  0  0  0  0
   29.3230   26.2740   45.1740 H   0  0  0  0  0  0  0  0  0  0  0  0
   36.6290   29.2970   49.5450 C   0  0  0  0  0  0  0  0  0  0  0  0
   36.6210   29.1380   50.6400 H   0  0  0  0  0  0  0  0  0  0  0  0
   37.1390   28.4650   49.0140 H   0  0  0  0  0  0  0  0  0  0  0  0
   37.7590   32.7980   49.5010 C   0  0  0  0  0  0  0  0  0  0  0  0
   38.5690   32.8620   48.3490 C   0  0  0  0  0  0  0  0  0  0  0  0
   38.7090   31.6830   47.6060 C   0  0  0  0  0  0  0  0  0  0  0  0
   38.0640   30.5570   48.0310 N   0  0  0  0  0  0  0  0  0  0  0  0
   37.2920   30.5510   49.1520 C   0  0  0  0  0  0  0  0  0  0  0  0
   37.1420   31.6740   49.8850 N   0  0  0  0  0  0  0  0  0  0  0  0
   37.6240   33.6820   50.1020 H   0  0  0  0  0  0  0  0  0  0  0  0
   39.0580   33.7770   48.0560 H   0  0  0  0  0  0  0  0  0  0  0  0
   39.3210   31.6670   46.7080 H   0  0  0  0  0  0  0  0  0  0  0  0
  1  4  1  6  0  0  0
  1  3  1  0  0  0  0
  1 20  1  0  0  0  0
  1  2  1  0  0  0  0
  2  5  1  0  0  0  0
  3  2  1  0  0  0  0
  3  7  1  1  0  0  0
  6  2  1  0  0  0  0
  8 16  1  0  0  0  0
  8  3  1  0  0  0  0
  9  8  1  0  0  0  0
 10  9  2  0  0  0  0
 10 11  1  0  0  0  0
 11 16  1  0  0  0  0
 12 11  2  0  0  0  0
 12 13  1  0  0  0  0
 13 14  2  0  0  0  0
 14 15  1  0  0  0  0
 16 15  2  0  0  0  0
 17 18  1  0  0  0  0
 17 12  1  0  0  0  0
 19 17  1  0  0  0  0
 20 21  1  0  0  0  0
 22 20  1  0  0  0  0
 23 28  1  0  0  0  0
 23 29  1  0  0  0  0
 24 23  2  0  0  0  0
 25 26  2  0  0  0  0
 25 24  1  0  0  0  0
 26 27  1  0  0  0  0
 27 20  1  0  0  0  0
 27 28  2  0  0  0  0
 30 24  1  0  0  0  0
 31 25  1  0  0  0  0
M  END
>  <minimizedAffinity>
-5.42916822

>  <minimizedRMSD>
0.94360745

$$$$
