
 OpenBabel03252514003D

 34 37  0  0  1  0  0  0  0  0999 V2000
   35.4720   29.4160   48.9940 C   0  0  2  0  0  0  0  0  0  0  0  0
   34.3920   29.6050   49.9710 C   0  0  0  0  0  0  0  0  0  0  0  0
   34.6310   28.2390   49.5260 C   0  0  1  0  0  0  0  0  0  0  0  0
   35.3330   29.6860   47.9420 H   0  0  0  0  0  0  0  0  0  0  0  0
   33.4580   30.1360   49.6400 H   0  0  0  0  0  0  0  0  0  0  0  0
   34.6650   29.9400   51.0010 H   0  0  0  0  0  0  0  0  0  0  0  0
   35.2530   27.4650   49.9920 H   0  0  0  0  0  0  0  0  0  0  0  0
   36.9060   29.3570   49.5190 C   0  0  0  0  0  0  0  0  0  0  0  0
   36.8480   29.3670   50.6160 H   0  0  0  0  0  0  0  0  0  0  0  0
   37.3320   28.4130   49.1540 H   0  0  0  0  0  0  0  0  0  0  0  0
   38.3980   32.7030   49.3800 C   0  0  0  0  0  0  0  0  0  0  0  0
   38.9170   32.7640   48.0770 C   0  0  0  0  0  0  0  0  0  0  0  0
   38.7450   31.6350   47.2570 C   0  0  0  0  0  0  0  0  0  0  0  0
   38.0880   30.5510   47.7650 N   0  0  0  0  0  0  0  0  0  0  0  0
   37.6070   30.5450   49.0240 C   0  0  0  0  0  0  0  0  0  0  0  0
   37.7700   31.6240   49.8150 N   0  0  0  0  0  0  0  0  0  0  0  0
   38.5840   33.6180   49.9240 H   0  0  0  0  0  0  0  0  0  0  0  0
   39.4440   33.5540   47.5830 H   0  0  0  0  0  0  0  0  0  0  0  0
   39.0970   31.5500   46.2310 H   0  0  0  0  0  0  0  0  0  0  0  0
   33.5860   27.6830   48.6010 C   0  0  0  0  0  0  0  0  0  0  0  0
   33.9810   26.7130   47.8380 O   0  0  0  0  0  0  0  0  0  0  0  0
   32.2650   28.0950   48.4990 O   0  0  0  0  0  0  0  0  0  0  0  0
   31.5630   27.8740   47.3290 C   0  0  0  0  0  0  0  0  0  0  0  0
   30.7800   26.7660   47.2040 N   0  0  0  0  0  0  0  0  0  0  0  0
   30.0960   26.5380   46.0800 C   0  0  0  0  0  3  0  0  0  0  0  0
   30.1680   27.4110   45.0370 N   0  0  0  0  0  0  0  0  0  0  0  0
   30.9380   28.5000   45.1610 C   0  0  0  0  0  0  0  0  0  0  0  0
   31.0150   29.3880   44.1030 C   0  0  0  0  0  3  0  0  0  0  0  0
   31.7860   30.5470   44.1360 C   0  0  0  0  0  0  0  0  0  0  0  0
   31.8350   31.2330   43.2990 H   0  0  0  0  0  0  0  0  0  0  0  0
   32.5000   30.8000   45.2880 C   0  0  0  0  0  0  0  0  0  0  0  0
   33.1110   31.6940   45.3460 H   0  0  0  0  0  0  0  0  0  0  0  0
   32.4210   29.9070   46.3450 C   0  0  0  0  0  3  0  0  0  0  0  0
   31.6560   28.7710   46.2960 C   0  0  0  0  0  0  0  0  0  0  0  0
  1  4  1  6  0  0  0
  1  8  1  0  0  0  0
  1  3  1  0  0  0  0
  1  2  1  0  0  0  0
  2  6  1  0  0  0  0
  3  2  1  0  0  0  0
  3  7  1  1  0  0  0
  5  2  1  0  0  0  0
  8  9  1  0  0  0  0
 10  8  1  0  0  0  0
 11 16  1  0  0  0  0
 11 17  1  0  0  0  0
 12 11  2  0  0  0  0
 13 14  2  0  0  0  0
 13 12  1  0  0  0  0
 14 15  1  0  0  0  0
 15  8  1  0  0  0  0
 15 16  2  0  0  0  0
 18 12  1  0  0  0  0
 19 13  1  0  0  0  0
 20  3  1  0  0  0  0
 21 20  2  0  0  0  0
 22 20  1  0  0  0  0
 23 22  1  0  0  0  0
 24 23  1  0  0  0  0
 25 24  2  0  0  0  0
 26 27  2  0  0  0  0
 26 25  1  0  0  0  0
 27 34  1  0  0  0  0
 28 29  2  0  0  0  0
 28 27  1  0  0  0  0
 29 31  1  0  0  0  0
 30 29  1  0  0  0  0
 31 32  1  0  0  0  0
 31 33  2  0  0  0  0
 34 33  1  0  0  0  0
 34 23  2  0  0  0  0
M  END
>  <minimizedAffinity>
-5.17616558

>  <minimizedRMSD>
1.40046108

$$$$
