
 OpenBabel03252514003D

 34 37  0  0  1  0  0  0  0  0999 V2000
   35.2800   29.4140   49.0440 C   0  0  2  0  0  0  0  0  0  0  0  0
   34.2320   29.3850   50.0730 C   0  0  0  0  0  0  0  0  0  0  0  0
   34.4800   28.1370   49.3650 C   0  0  1  0  0  0  0  0  0  0  0  0
   35.1000   29.8790   48.0700 H   0  0  0  0  0  0  0  0  0  0  0  0
   33.2780   29.9470   49.8800 H   0  0  0  0  0  0  0  0  0  0  0  0
   34.5350   29.5210   51.1390 H   0  0  0  0  0  0  0  0  0  0  0  0
   35.1310   27.3030   49.6530 H   0  0  0  0  0  0  0  0  0  0  0  0
   36.7330   29.2900   49.5040 C   0  0  0  0  0  0  0  0  0  0  0  0
   36.7190   29.2270   50.6010 H   0  0  0  0  0  0  0  0  0  0  0  0
   37.1200   28.3640   49.0600 H   0  0  0  0  0  0  0  0  0  0  0  0
   38.1230   32.6810   49.4520 C   0  0  0  0  0  0  0  0  0  0  0  0
   38.7680   32.7400   48.2060 C   0  0  0  0  0  0  0  0  0  0  0  0
   38.7150   31.5930   47.3940 C   0  0  0  0  0  0  0  0  0  0  0  0
   38.0450   30.4960   47.8540 N   0  0  0  0  0  0  0  0  0  0  0  0
   37.4420   30.4930   49.0590 C   0  0  0  0  0  0  0  0  0  0  0  0
   37.4900   31.5890   49.8430 N   0  0  0  0  0  0  0  0  0  0  0  0
   38.2250   33.6100   49.9950 H   0  0  0  0  0  0  0  0  0  0  0  0
   39.3170   33.5400   47.7520 H   0  0  0  0  0  0  0  0  0  0  0  0
   39.1700   31.5050   46.4100 H   0  0  0  0  0  0  0  0  0  0  0  0
   33.4130   27.7440   48.3820 C   0  0  0  0  0  0  0  0  0  0  0  0
   33.5460   26.5660   47.8610 O   0  0  0  0  0  0  0  0  0  0  0  0
   32.3170   28.5060   48.0000 O   0  0  0  0  0  0  0  0  0  0  0  0
   31.1890   27.8850   47.4970 C   0  0  0  0  0  0  0  0  0  0  0  0
   31.1130   27.5830   46.1690 N   0  0  0  0  0  0  0  0  0  0  0  0
   30.0310   26.9850   45.6680 C   0  0  0  0  0  3  0  0  0  0  0  0
   28.9820   26.6620   46.4740 N   0  0  0  0  0  0  0  0  0  0  0  0
   29.0570   26.9600   47.7780 C   0  0  0  0  0  0  0  0  0  0  0  0
   27.9940   26.6340   48.6000 C   0  0  0  0  0  3  0  0  0  0  0  0
   27.9780   26.9000   49.9670 C   0  0  0  0  0  0  0  0  0  0  0  0
   27.1360   26.6390   50.5970 H   0  0  0  0  0  0  0  0  0  0  0  0
   29.0860   27.5190   50.5040 C   0  0  0  0  0  0  0  0  0  0  0  0
   29.1070   27.7410   51.5660 H   0  0  0  0  0  0  0  0  0  0  0  0
   30.1500   27.8430   49.6760 C   0  0  0  0  0  3  0  0  0  0  0  0
   30.1490   27.5740   48.3330 C   0  0  0  0  0  0  0  0  0  0  0  0
  1  4  1  6  0  0  0
  1  3  1  0  0  0  0
  1  8  1  0  0  0  0
  1  2  1  0  0  0  0
  2  6  1  0  0  0  0
  3  7  1  1  0  0  0
  3  2  1  0  0  0  0
  5  2  1  0  0  0  0
  8  9  1  0  0  0  0
 10  8  1  0  0  0  0
 11 16  1  0  0  0  0
 11 17  1  0  0  0  0
 12 11  2  0  0  0  0
 13 14  2  0  0  0  0
 13 12  1  0  0  0  0
 14 15  1  0  0  0  0
 15  8  1  0  0  0  0
 15 16  2  0  0  0  0
 18 12  1  0  0  0  0
 19 13  1  0  0  0  0
 20  3  1  0  0  0  0
 21 20  2  0  0  0  0
 22 20  1  0  0  0  0
 23 22  1  0  0  0  0
 23 34  1  0  0  0  0
 24 23  2  0  0  0  0
 25 24  1  0  0  0  0
 25 26  2  0  0  0  0
 26 27  1  0  0  0  0
 27 34  2  0  0  0  0
 27 28  1  0  0  0  0
 28 29  2  0  0  0  0
 29 31  1  0  0  0  0
 29 30  1  0  0  0  0
 31 32  1  0  0  0  0
 33 31  2  0  0  0  0
 34 33  1  0  0  0  0
M  END
>  <minimizedAffinity>
-6.02750826

>  <minimizedRMSD>
0.777498007

$$$$
