
 OpenBabel03252511033D

 37 40  0  0  0  0  0  0  0  0999 V2000
   39.3240   31.8590   45.6910 C   0  0  0  0  0  0  0  0  0  0  0  0
   40.6090   31.3560   45.5210 C   0  0  0  0  0  0  0  0  0  0  0  0
   40.8740   31.3110   44.1550 C   0  0  0  0  0  0  0  0  0  0  0  0
   39.6980   31.8030   43.5650 C   0  0  0  0  0  0  0  0  0  0  0  0
   38.8410   32.1020   44.5030 O   0  0  0  0  0  0  0  0  0  0  0  0
   41.3540   31.0290   46.2570 H   0  0  0  0  0  0  0  0  0  0  0  0
   41.7410   30.9910   43.6320 H   0  0  0  0  0  0  0  0  0  0  0  0
   39.4770   31.9540   42.1380 C   0  0  0  0  0  0  0  0  0  0  0  0
   40.0660   31.2030   41.1550 C   0  0  0  0  0  0  0  0  0  0  0  0
   39.5620   31.6990   39.9780 C   0  0  0  0  0  0  0  0  0  0  0  0
   38.7030   32.7070   40.2290 N   0  0  0  0  0  0  0  0  0  0  0  0
   38.6670   32.8450   41.5480 N   0  0  0  0  0  0  0  0  0  0  0  0
   40.7670   30.3980   41.2150 H   0  0  0  0  0  0  0  0  0  0  0  0
   39.7240   31.4350   38.9430 H   0  0  0  0  0  0  0  0  0  0  0  0
   35.4760   35.3520   38.3400 H   0  0  0  0  0  0  0  0  0  0  0  0
   36.3810   34.8710   38.5460 N   0  0  0  0  0  0  0  0  0  0  0  0
   36.6050   34.0100   39.5170 N   0  0  0  0  0  0  0  0  0  0  0  0
   37.8850   33.5960   39.4780 C   0  0  0  0  0  0  0  0  0  0  0  0
   38.4470   34.2740   38.3930 C   0  0  0  0  0  0  0  0  0  0  0  0
   37.4780   35.0910   37.7990 C   0  0  0  0  0  0  0  0  0  0  0  0
   37.6110   35.7360   36.9400 H   0  0  0  0  0  0  0  0  0  0  0  0
   37.1700   31.3680   48.5840 C   0  0  0  0  0  0  0  0  0  0  0  0
   37.5520   32.4200   49.4640 C   0  0  0  0  0  0  0  0  0  0  0  0
   38.5570   33.2800   49.0250 C   0  0  0  0  0  0  0  0  0  0  0  0
   39.1090   33.0600   47.7840 N   0  0  0  0  0  0  0  0  0  0  0  0
   38.7090   32.0460   46.9900 C   0  0  0  0  0  0  0  0  0  0  0  0
   37.7380   31.1970   47.3880 N   0  0  0  0  0  0  0  0  0  0  0  0
   37.0880   32.5530   50.4340 H   0  0  0  0  0  0  0  0  0  0  0  0
   38.9050   34.1070   49.6360 H   0  0  0  0  0  0  0  0  0  0  0  0
   36.1280   30.4810   49.0500 C   0  0  0  0  0  0  0  0  0  0  0  0
   34.9270   30.7160   48.7370 O   0  0  0  0  0  0  0  0  0  0  0  0
   36.4740   29.3740   49.8420 O   0  0  0  0  0  0  0  0  0  0  0  0
   36.5100   29.4410   51.2330 C   0  0  0  0  0  0  0  0  0  0  0  0
   37.6820   29.7360   51.9630 N   0  0  0  0  0  0  0  0  0  0  0  0
   35.3990   29.2140   51.7650 O   0  0  0  0  0  0  0  0  0  0  0  0
   37.8000   30.4450   52.7430 H   0  0  0  0  0  0  0  0  0  0  0  0
   38.6460   29.3170   51.8780 H   0  0  0  0  0  0  0  0  0  0  0  0
  1 26  1  0  0  0  0
  2  1  2  0  0  0  0
  2  6  1  0  0  0  0
  3  2  1  0  0  0  0
  4  3  2  0  0  0  0
  4  5  1  0  0  0  0
  5  1  1  0  0  0  0
  7  3  1  0  0  0  0
  8  4  1  0  0  0  0
  9 13  1  0  0  0  0
  9  8  1  0  0  0  0
 10 11  1  0  0  0  0
 10  9  2  0  0  0  0
 11 12  1  0  0  0  0
 12  8  2  0  0  0  0
 14 10  1  0  0  0  0
 15 16  1  0  0  0  0
 16 17  1  0  0  0  0
 18 17  2  0  0  0  0
 18 11  1  0  0  0  0
 19 18  1  0  0  0  0
 20 19  2  0  0  0  0
 20 16  1  0  0  0  0
 21 20  1  0  0  0  0
 22 30  1  0  0  0  0
 22 23  1  0  0  0  0
 23 28  1  0  0  0  0
 24 23  2  0  0  0  0
 24 29  1  0  0  0  0
 25 24  1  0  0  0  0
 26 27  1  0  0  0  0
 26 25  2  0  0  0  0
 27 22  2  0  0  0  0
 30 32  1  0  0  0  0
 31 30  2  0  0  0  0
 32 33  1  0  0  0  0
 33 35  2  0  0  0  0
 33 34  1  0  0  0  0
 34 36  1  0  0  0  0
 37 34  1  0  0  0  0
M  END
>  <minimizedAffinity>
-6.16327047

>  <minimizedRMSD>
0.926677525

$$$$
