
 OpenBabel03252514013D

 28 30  0  0  1  0  0  0  0  0999 V2000
   35.7960   29.7010   49.5800 C   0  0  2  0  0  0  0  0  0  0  0  0
   35.0220   29.2490   50.7460 C   0  0  0  0  0  0  0  0  0  0  0  0
   35.1010   28.3270   49.6210 C   0  0  1  0  0  0  0  0  0  0  0  0
   35.4290   30.4280   48.8450 H   0  0  0  0  0  0  0  0  0  0  0  0
   35.6070   29.0950   51.6790 H   0  0  0  0  0  0  0  0  0  0  0  0
   34.0900   29.8390   50.9630 H   0  0  0  0  0  0  0  0  0  0  0  0
   35.8200   27.5170   49.4680 H   0  0  0  0  0  0  0  0  0  0  0  0
   37.3180   29.5660   49.6530 C   0  0  0  0  0  0  0  0  0  0  0  0
   37.6040   29.4220   50.6980 H   0  0  0  0  0  0  0  0  0  0  0  0
   37.6080   28.6410   49.1170 H   0  0  0  0  0  0  0  0  0  0  0  0
   38.5680   32.9910   49.3370 C   0  0  0  0  0  0  0  0  0  0  0  0
   38.9960   33.0530   48.0000 C   0  0  0  0  0  0  0  0  0  0  0  0
   38.8460   31.8960   47.2180 C   0  0  0  0  0  0  0  0  0  0  0  0
   38.2930   30.7820   47.7990 N   0  0  0  0  0  0  0  0  0  0  0  0
   37.9010   30.7780   49.0780 C   0  0  0  0  0  0  0  0  0  0  0  0
   38.0430   31.8850   49.8350 N   0  0  0  0  0  0  0  0  0  0  0  0
   38.6880   33.8830   49.9230 H   0  0  0  0  0  0  0  0  0  0  0  0
   39.4250   33.9660   47.6040 H   0  0  0  0  0  0  0  0  0  0  0  0
   39.1650   31.9190   46.1950 H   0  0  0  0  0  0  0  0  0  0  0  0
   33.8370   28.1770   48.8200 C   0  0  0  0  0  0  0  0  0  0  0  0
   34.0330   27.9360   47.5610 O   0  0  0  0  0  0  0  0  0  0  0  0
   32.5440   28.2640   49.3080 O   0  0  0  0  0  0  0  0  0  0  0  0
   31.4970   27.7910   48.5350 C   0  0  0  0  0  0  0  0  0  0  0  0
   30.7870   26.6130   48.5770 C   0  0  0  0  0  0  0  0  0  0  0  0
   29.8780   26.6960   47.5790 N   0  0  0  0  0  0  0  0  0  0  0  0
   30.0030   27.8740   46.9310 C   0  0  0  0  0  0  0  0  0  0  0  0
   31.0140   28.5630   47.5240 N   0  0  0  0  0  0  0  0  0  0  0  0
   31.3010   29.5230   47.1860 H   0  0  0  0  0  0  0  0  0  0  0  0
  1  4  1  6  0  0  0
  1  3  1  0  0  0  0
  1  8  1  0  0  0  0
  1  2  1  0  0  0  0
  2  6  1  0  0  0  0
  2  5  1  0  0  0  0
  3  7  1  1  0  0  0
  3  2  1  0  0  0  0
  8  9  1  0  0  0  0
 10  8  1  0  0  0  0
 11 16  1  0  0  0  0
 11 17  1  0  0  0  0
 12 11  2  0  0  0  0
 13 14  2  0  0  0  0
 13 12  1  0  0  0  0
 14 15  1  0  0  0  0
 15  8  1  0  0  0  0
 15 16  2  0  0  0  0
 18 12  1  0  0  0  0
 19 13  1  0  0  0  0
 20 22  1  0  0  0  0
 20  3  1  0  0  0  0
 21 20  2  0  0  0  0
 23 24  2  0  0  0  0
 23 22  1  0  0  0  0
 25 24  1  0  0  0  0
 26 27  1  0  0  0  0
 26 25  2  0  0  0  0
 27 23  1  0  0  0  0
 28 27  1  0  0  0  0
M  END
>  <minimizedAffinity>
-5.04011106

>  <minimizedRMSD>
0.807363391

$$$$
