
 OpenBabel03252514033D

 38 41  0  0  1  0  0  0  0  0999 V2000
   35.4590   29.2870   48.6900 C   0  0  2  0  0  0  0  0  0  0  0  0
   34.2360   29.2880   49.4910 C   0  0  0  0  0  0  0  0  0  0  0  0
   34.6910   27.9860   49.1040 C   0  0  1  0  0  0  0  0  0  0  0  0
   35.5080   29.4010   47.6070 H   0  0  0  0  0  0  0  0  0  0  0  0
   33.3360   29.7880   49.0280 H   0  0  0  0  0  0  0  0  0  0  0  0
   34.3320   29.6280   50.5630 H   0  0  0  0  0  0  0  0  0  0  0  0
   35.2960   27.3170   49.7110 H   0  0  0  0  0  0  0  0  0  0  0  0
   36.7760   29.3920   49.4790 C   0  0  0  0  0  0  0  0  0  0  0  0
   36.5630   29.4280   50.5620 H   0  0  0  0  0  0  0  0  0  0  0  0
   37.3860   28.4880   49.2790 H   0  0  0  0  0  0  0  0  0  0  0  0
   37.9310   32.8560   49.4210 C   0  0  0  0  0  0  0  0  0  0  0  0
   38.7070   32.9040   48.2400 C   0  0  0  0  0  0  0  0  0  0  0  0
   38.8130   31.7140   47.4830 C   0  0  0  0  0  0  0  0  0  0  0  0
   38.1610   30.5950   47.9380 N   0  0  0  0  0  0  0  0  0  0  0  0
   37.4370   30.6200   49.0750 C   0  0  0  0  0  0  0  0  0  0  0  0
   37.3310   31.7620   49.8080 N   0  0  0  0  0  0  0  0  0  0  0  0
   37.8010   33.7290   50.0610 H   0  0  0  0  0  0  0  0  0  0  0  0
   39.1870   33.8310   47.9580 H   0  0  0  0  0  0  0  0  0  0  0  0
   39.3970   31.7330   46.5850 H   0  0  0  0  0  0  0  0  0  0  0  0
   33.8960   27.3140   48.0050 C   0  0  0  0  0  0  0  0  0  0  0  0
   34.2560   26.0950   47.7810 O   0  0  0  0  0  0  0  0  0  0  0  0
   32.8640   27.8750   47.2710 O   0  0  0  0  0  0  0  0  0  0  0  0
   31.5920   28.0370   47.7270 C   0  0  0  0  0  0  0  0  0  0  0  0
   31.1140   27.5990   49.0470 C   0  0  0  0  0  0  0  0  0  0  0  0
   29.8270   27.8090   49.4110 C   0  0  0  0  0  0  0  0  0  0  0  0
   28.9390   28.4550   48.5110 C   0  0  0  0  0  0  0  0  0  0  0  0
   30.0150   28.7920   47.0240 S   0  0  0  0  0  0  0  0  0  0  0  0
   31.8320   27.1120   49.6910 H   0  0  0  0  0  0  0  0  0  0  0  0
   29.4310   27.5090   50.3650 H   0  0  0  0  0  0  0  0  0  0  0  0
   27.5950   28.7610   48.6950 N   0  0  0  0  0  0  0  0  0  0  0  0
   27.3010   30.0400   48.8930 C   0  0  0  0  0  3  0  0  0  0  0  0
   25.9670   30.4140   49.0850 C   0  0  0  0  0  3  0  0  0  0  0  0
   25.0160   29.4150   49.0570 C   0  0  0  0  0  0  0  0  0  0  0  0
   23.8010   29.6840   49.2230 O   0  0  0  0  0  0  0  0  0  0  0  0
   25.3920   28.1380   48.8500 N   0  0  0  0  0  0  0  0  0  0  0  0
   26.6940   27.7680   48.6620 C   0  0  0  0  0  0  0  0  0  0  0  0
   26.9610   26.5520   48.4750 O   0  0  0  0  0  0  0  0  0  0  0  0
   24.6840   27.3670   48.8260 H   0  0  0  0  0  0  0  0  0  0  0  0
  1  4  1  6  0  0  0
  1  3  1  0  0  0  0
  1  8  1  0  0  0  0
  1  2  1  0  0  0  0
  2  6  1  0  0  0  0
  3  2  1  0  0  0  0
  3  7  1  1  0  0  0
  5  2  1  0  0  0  0
  8  9  1  0  0  0  0
 10  8  1  0  0  0  0
 11 16  1  0  0  0  0
 11 17  1  0  0  0  0
 12 11  2  0  0  0  0
 13 14  2  0  0  0  0
 13 12  1  0  0  0  0
 14 15  1  0  0  0  0
 15  8  1  0  0  0  0
 15 16  2  0  0  0  0
 18 12  1  0  0  0  0
 19 13  1  0  0  0  0
 20  3  1  0  0  0  0
 21 20  2  0  0  0  0
 22 23  1  0  0  0  0
 22 20  1  0  0  0  0
 23 24  2  0  0  0  0
 24 25  1  0  0  0  0
 24 28  1  0  0  0  0
 25 29  1  0  0  0  0
 26 30  1  0  0  0  0
 26 25  2  0  0  0  0
 27 23  1  0  0  0  0
 27 26  1  0  0  0  0
 30 31  1  0  0  0  0
 31 32  2  0  0  0  0
 33 32  1  0  0  0  0
 33 34  2  0  0  0  0
 35 33  1  0  0  0  0
 36 30  1  0  0  0  0
 36 35  1  0  0  0  0
 37 36  2  0  0  0  0
 38 35  1  0  0  0  0
M  END
>  <minimizedAffinity>
-6.95897961

>  <minimizedRMSD>
1.8414644

$$$$
