
 OpenBabel03252514043D

 38 41  0  0  1  0  0  0  0  0999 V2000
   35.4600   29.2870   48.6900 C   0  0  2  0  0  0  0  0  0  0  0  0
   34.2370   29.2890   49.4910 C   0  0  0  0  0  0  0  0  0  0  0  0
   34.6910   27.9870   49.1040 C   0  0  1  0  0  0  0  0  0  0  0  0
   35.5090   29.4020   47.6070 H   0  0  0  0  0  0  0  0  0  0  0  0
   33.3380   29.7900   49.0280 H   0  0  0  0  0  0  0  0  0  0  0  0
   34.3330   29.6300   50.5630 H   0  0  0  0  0  0  0  0  0  0  0  0
   35.2960   27.3180   49.7120 H   0  0  0  0  0  0  0  0  0  0  0  0
   36.7770   29.3920   49.4790 C   0  0  0  0  0  0  0  0  0  0  0  0
   36.5640   29.4270   50.5630 H   0  0  0  0  0  0  0  0  0  0  0  0
   37.3870   28.4880   49.2780 H   0  0  0  0  0  0  0  0  0  0  0  0
   37.9300   32.8570   49.4230 C   0  0  0  0  0  0  0  0  0  0  0  0
   38.7080   32.9050   48.2430 C   0  0  0  0  0  0  0  0  0  0  0  0
   38.8160   31.7150   47.4860 C   0  0  0  0  0  0  0  0  0  0  0  0
   38.1640   30.5960   47.9400 N   0  0  0  0  0  0  0  0  0  0  0  0
   37.4380   30.6200   49.0760 C   0  0  0  0  0  0  0  0  0  0  0  0
   37.3300   31.7620   49.8090 N   0  0  0  0  0  0  0  0  0  0  0  0
   37.7980   33.7300   50.0620 H   0  0  0  0  0  0  0  0  0  0  0  0
   39.1880   33.8320   47.9610 H   0  0  0  0  0  0  0  0  0  0  0  0
   39.4010   31.7340   46.5890 H   0  0  0  0  0  0  0  0  0  0  0  0
   33.8960   27.3160   48.0050 C   0  0  0  0  0  0  0  0  0  0  0  0
   34.2570   26.0960   47.7820 O   0  0  0  0  0  0  0  0  0  0  0  0
   32.8650   27.8760   47.2720 O   0  0  0  0  0  0  0  0  0  0  0  0
   31.5930   28.0380   47.7280 C   0  0  0  0  0  0  0  0  0  0  0  0
   31.1140   27.5990   49.0470 C   0  0  0  0  0  0  0  0  0  0  0  0
   29.8270   27.8090   49.4100 C   0  0  0  0  0  0  0  0  0  0  0  0
   28.9390   28.4560   48.5110 C   0  0  0  0  0  0  0  0  0  0  0  0
   30.0150   28.7940   47.0240 S   0  0  0  0  0  0  0  0  0  0  0  0
   31.8310   27.1110   49.6900 H   0  0  0  0  0  0  0  0  0  0  0  0
   29.4310   27.5080   50.3640 H   0  0  0  0  0  0  0  0  0  0  0  0
   27.5950   28.7620   48.6950 N   0  0  0  0  0  0  0  0  0  0  0  0
   27.3010   30.0400   48.8930 C   0  0  0  0  0  3  0  0  0  0  0  0
   25.9670   30.4140   49.0840 C   0  0  0  0  0  3  0  0  0  0  0  0
   25.0160   29.4140   49.0570 C   0  0  0  0  0  0  0  0  0  0  0  0
   23.8010   29.6830   49.2220 O   0  0  0  0  0  0  0  0  0  0  0  0
   25.3930   28.1370   48.8500 N   0  0  0  0  0  0  0  0  0  0  0  0
   26.6940   27.7680   48.6620 C   0  0  0  0  0  0  0  0  0  0  0  0
   26.9620   26.5530   48.4750 O   0  0  0  0  0  0  0  0  0  0  0  0
   24.6850   27.3670   48.8260 H   0  0  0  0  0  0  0  0  0  0  0  0
  1  4  1  6  0  0  0
  1  3  1  0  0  0  0
  1  8  1  0  0  0  0
  1  2  1  0  0  0  0
  2  6  1  0  0  0  0
  3  2  1  0  0  0  0
  3  7  1  1  0  0  0
  5  2  1  0  0  0  0
  8  9  1  0  0  0  0
 10  8  1  0  0  0  0
 11 16  1  0  0  0  0
 11 17  1  0  0  0  0
 12 11  2  0  0  0  0
 13 14  2  0  0  0  0
 13 12  1  0  0  0  0
 14 15  1  0  0  0  0
 15  8  1  0  0  0  0
 15 16  2  0  0  0  0
 18 12  1  0  0  0  0
 19 13  1  0  0  0  0
 20  3  1  0  0  0  0
 21 20  2  0  0  0  0
 22 23  1  0  0  0  0
 22 20  1  0  0  0  0
 23 24  2  0  0  0  0
 24 25  1  0  0  0  0
 24 28  1  0  0  0  0
 25 29  1  0  0  0  0
 26 30  1  0  0  0  0
 26 25  2  0  0  0  0
 27 23  1  0  0  0  0
 27 26  1  0  0  0  0
 30 31  1  0  0  0  0
 31 32  2  0  0  0  0
 33 32  1  0  0  0  0
 33 34  2  0  0  0  0
 35 33  1  0  0  0  0
 36 30  1  0  0  0  0
 36 35  1  0  0  0  0
 37 36  2  0  0  0  0
 38 35  1  0  0  0  0
M  END
>  <minimizedAffinity>
-6.95706701

>  <minimizedRMSD>
1.88031459

$$$$
