
 OpenBabel03252511543D

 26 28  0  0  0  0  0  0  0  0999 V2000
   36.3660   30.2040   47.6550 N   0  0  0  0  0  0  0  0  0  0  0  0
   35.1140   29.9180   47.2260 C   0  0  0  0  0  0  0  0  0  0  0  0
   34.7970   30.0310   45.8900 C   0  0  0  0  0  0  0  0  0  0  0  0
   35.8220   30.4400   45.0800 C   0  0  0  0  0  0  0  0  0  0  0  0
   35.5640   30.5560   43.8330 O   0  0  0  0  0  0  0  0  0  0  0  0
   37.0680   30.7330   45.4550 N   0  0  0  0  0  0  0  0  0  0  0  0
   37.3070   30.5970   46.7920 C   0  0  0  0  0  0  0  0  0  0  0  0
   38.4600   30.8540   47.2250 O   0  0  0  0  0  0  0  0  0  0  0  0
   34.3370   29.5950   47.9240 H   0  0  0  0  0  0  0  0  0  0  0  0
   33.8300   29.8180   45.5130 H   0  0  0  0  0  0  0  0  0  0  0  0
   37.5430   31.0130   49.5470 C   0  0  0  0  0  0  0  0  0  0  0  0
   36.6330   30.0690   49.0410 C   0  0  0  0  0  0  0  0  0  0  0  0
   36.0950   29.1270   49.9030 C   0  0  0  0  0  0  0  0  0  0  0  0
   36.4700   29.1510   51.2080 N   0  0  0  0  0  0  0  0  0  0  0  0
   37.3510   30.0690   51.6860 C   0  0  0  0  0  0  0  0  0  0  0  0
   37.8790   30.9920   50.8440 N   0  0  0  0  0  0  0  0  0  0  0  0
   37.9950   31.7730   48.9160 H   0  0  0  0  0  0  0  0  0  0  0  0
   35.4160   28.4480   49.4540 H   0  0  0  0  0  0  0  0  0  0  0  0
   37.6370   30.0710   52.7290 H   0  0  0  0  0  0  0  0  0  0  0  0
   38.1130   31.1510   44.6170 C   0  0  0  0  0  0  0  0  0  0  0  0
   38.4520   32.4350   44.2420 C   0  0  0  0  0  0  0  0  0  0  0  0
   39.5330   32.5980   43.4000 C   0  0  0  0  0  0  0  0  0  0  0  0
   39.7860   33.6050   43.1160 H   0  0  0  0  0  0  0  0  0  0  0  0
   40.2660   31.5690   42.9340 N   0  0  0  0  0  0  0  0  0  0  0  0
   39.9070   30.3290   43.3200 C   0  0  0  0  0  0  0  0  0  0  0  0
   38.8550   30.1190   44.1440 N   0  0  0  0  0  0  0  0  0  0  0  0
  1 12  1  0  0  0  0
  2  1  1  0  0  0  0
  2  9  1  0  0  0  0
  3  2  2  0  0  0  0
  4  6  1  0  0  0  0
  4  3  1  0  0  0  0
  5  4  2  0  0  0  0
  6  7  1  0  0  0  0
  7  8  2  0  0  0  0
  7  1  1  0  0  0  0
 10  3  1  0  0  0  0
 11 16  1  0  0  0  0
 12 11  2  0  0  0  0
 12 13  1  0  0  0  0
 13 14  2  0  0  0  0
 14 15  1  0  0  0  0
 15 19  1  0  0  0  0
 16 15  2  0  0  0  0
 17 11  1  0  0  0  0
 18 13  1  0  0  0  0
 20  6  1  0  0  0  0
 21 20  1  0  0  0  0
 22 21  2  0  0  0  0
 23 22  1  0  0  0  0
 24 25  2  0  0  0  0
 24 22  1  0  0  0  0
 25 26  1  0  0  0  0
 26 20  2  0  0  0  0
M  END
>  <minimizedAffinity>
-5.11878252

>  <minimizedRMSD>
4.46827221

$$$$
