
 OpenBabel03252513563D

 28 30  0  0  1  0  0  0  0  0999 V2000
   36.3200   30.2490   50.2120 C   0  0  2  0  0  0  0  0  0  0  0  0
   35.5530   29.2880   51.0440 C   0  0  0  0  0  0  0  0  0  0  0  0
   35.8590   28.9350   49.6250 C   0  0  1  0  0  0  0  0  0  0  0  0
   35.8080   31.1680   49.8930 H   0  0  0  0  0  0  0  0  0  0  0  0
   34.5560   29.6040   51.3680 H   0  0  0  0  0  0  0  0  0  0  0  0
   36.1550   28.8150   51.8580 H   0  0  0  0  0  0  0  0  0  0  0  0
   36.6140   28.1070   49.5160 H   0  0  0  0  0  0  0  0  0  0  0  0
   34.7790   28.8960   48.6680 N   0  0  0  0  0  0  0  0  0  0  0  0
   33.7400   28.1450   49.1140 C   0  0  0  0  0  0  0  0  0  0  0  0
   32.5940   27.9640   48.3650 C   0  0  0  0  0  0  0  0  0  0  0  0
   32.5170   28.5810   47.1110 C   0  0  0  0  0  0  0  0  0  0  0  0
   31.5120   28.4880   46.3270 O   0  0  0  0  0  0  0  0  0  0  0  0
   33.5750   29.3150   46.7170 N   0  0  0  0  0  0  0  0  0  0  0  0
   34.6820   29.4760   47.4650 C   0  0  0  0  0  0  0  0  0  0  0  0
   35.6880   30.1450   47.1460 O   0  0  0  0  0  0  0  0  0  0  0  0
   33.5740   29.8010   45.7870 H   0  0  0  0  0  0  0  0  0  0  0  0
   37.8230   30.3470   50.3830 C   0  0  0  0  0  0  0  0  0  0  0  0
   38.3280   29.3760   50.2950 H   0  0  0  0  0  0  0  0  0  0  0  0
   37.9890   30.7460   51.4200 H   0  0  0  0  0  0  0  0  0  0  0  0
   38.9490   33.5420   48.9180 C   0  0  0  0  0  0  0  0  0  0  0  0
   39.2150   33.1920   47.5960 C   0  0  0  0  0  0  0  0  0  0  0  0
   39.0100   31.8680   47.2090 C   0  0  0  0  0  0  0  0  0  0  0  0
   38.5590   30.9970   48.1560 N   0  0  0  0  0  0  0  0  0  0  0  0
   38.3090   31.3570   49.4250 C   0  0  0  0  0  0  0  0  0  0  0  0
   38.5080   32.6330   49.7920 N   0  0  0  0  0  0  0  0  0  0  0  0
   39.1170   34.5820   49.1930 H   0  0  0  0  0  0  0  0  0  0  0  0
   39.5700   33.8450   46.8250 H   0  0  0  0  0  0  0  0  0  0  0  0
   39.1870   31.4900   46.2080 H   0  0  0  0  0  0  0  0  0  0  0  0
  1  4  1  6  0  0  0
  1 17  1  0  0  0  0
  1  2  1  0  0  0  0
  2  5  1  0  0  0  0
  2  6  1  0  0  0  0
  3  7  1  6  0  0  0
  3  1  1  0  0  0  0
  3  2  1  0  0  0  0
  8  9  1  0  0  0  0
  8  3  1  0  0  0  0
 10  9  2  0  0  0  0
 11 10  1  0  0  0  0
 12 11  2  0  0  0  0
 13 11  1  0  0  0  0
 13 14  1  0  0  0  0
 14  8  1  0  0  0  0
 15 14  2  0  0  0  0
 16 13  1  0  0  0  0
 17 19  1  0  0  0  0
 18 17  1  0  0  0  0
 20 26  1  0  0  0  0
 20 25  1  0  0  0  0
 21 20  2  0  0  0  0
 22 21  1  0  0  0  0
 22 23  2  0  0  0  0
 23 24  1  0  0  0  0
 24 25  2  0  0  0  0
 24 17  1  0  0  0  0
 27 21  1  0  0  0  0
 28 22  1  0  0  0  0
M  END
>  <minimizedAffinity>
-5.33730364

>  <minimizedRMSD>
1.86789787

$$$$
