
 OpenBabel03252514013D

 28 30  0  0  1  0  0  0  0  0999 V2000
   35.6290   29.5900   49.3040 C   0  0  2  0  0  0  0  0  0  0  0  0
   34.7250   29.4830   50.4600 C   0  0  0  0  0  0  0  0  0  0  0  0
   34.9090   28.2770   49.6640 C   0  0  1  0  0  0  0  0  0  0  0  0
   35.3560   30.0680   48.3550 H   0  0  0  0  0  0  0  0  0  0  0  0
   35.2030   29.6130   51.4540 H   0  0  0  0  0  0  0  0  0  0  0  0
   33.7860   30.0970   50.3950 H   0  0  0  0  0  0  0  0  0  0  0  0
   35.6240   27.4670   49.8300 H   0  0  0  0  0  0  0  0  0  0  0  0
   37.1320   29.5020   49.5770 C   0  0  0  0  0  0  0  0  0  0  0  0
   37.2820   29.3890   50.6540 H   0  0  0  0  0  0  0  0  0  0  0  0
   37.5140   28.5760   49.1070 H   0  0  0  0  0  0  0  0  0  0  0  0
   38.3530   32.9460   49.3590 C   0  0  0  0  0  0  0  0  0  0  0  0
   38.9140   33.0040   48.0730 C   0  0  0  0  0  0  0  0  0  0  0  0
   38.8630   31.8390   47.2900 C   0  0  0  0  0  0  0  0  0  0  0  0
   38.2720   30.7200   47.8220 N   0  0  0  0  0  0  0  0  0  0  0  0
   37.7510   30.7200   49.0540 C   0  0  0  0  0  0  0  0  0  0  0  0
   37.7970   31.8340   49.8110 N   0  0  0  0  0  0  0  0  0  0  0  0
   38.3980   33.8440   49.9470 H   0  0  0  0  0  0  0  0  0  0  0  0
   39.3670   33.9210   47.7150 H   0  0  0  0  0  0  0  0  0  0  0  0
   39.2860   31.8590   46.3050 H   0  0  0  0  0  0  0  0  0  0  0  0
   33.7360   27.8840   48.8080 C   0  0  0  0  0  0  0  0  0  0  0  0
   34.0580   27.2420   47.7290 O   0  0  0  0  0  0  0  0  0  0  0  0
   32.4020   28.1380   49.0820 O   0  0  0  0  0  0  0  0  0  0  0  0
   31.4320   27.6640   48.2130 C   0  0  0  0  0  0  0  0  0  0  0  0
   30.4980   26.6620   48.3430 C   0  0  0  0  0  3  0  0  0  0  0  0
   29.8160   26.6430   47.1750 N   0  0  0  0  0  0  0  0  0  0  0  0
   30.2940   27.5890   46.3400 C   0  0  0  0  0  3  0  0  0  0  0  0
   31.3060   28.2320   46.9830 N   0  0  0  0  0  0  0  0  0  0  0  0
   31.8400   29.0200   46.5250 H   0  0  0  0  0  0  0  0  0  0  0  0
  1  4  1  6  0  0  0
  1  8  1  0  0  0  0
  1  3  1  0  0  0  0
  1  2  1  0  0  0  0
  2  5  1  0  0  0  0
  3  7  1  1  0  0  0
  3  2  1  0  0  0  0
  6  2  1  0  0  0  0
  8  9  1  0  0  0  0
 10  8  1  0  0  0  0
 11 16  1  0  0  0  0
 11 17  1  0  0  0  0
 12 11  2  0  0  0  0
 13 14  2  0  0  0  0
 13 12  1  0  0  0  0
 14 15  1  0  0  0  0
 15  8  1  0  0  0  0
 15 16  2  0  0  0  0
 18 12  1  0  0  0  0
 19 13  1  0  0  0  0
 20 22  1  0  0  0  0
 20  3  1  0  0  0  0
 21 20  2  0  0  0  0
 23 24  2  0  0  0  0
 23 22  1  0  0  0  0
 25 24  1  0  0  0  0
 26 27  1  0  0  0  0
 26 25  2  0  0  0  0
 27 23  1  0  0  0  0
 28 27  1  0  0  0  0
M  END
>  <minimizedAffinity>
-4.82365179

>  <minimizedRMSD>
0.696697772

$$$$
