
 OpenBabel03252514003D

 28 30  0  0  1  0  0  0  0  0999 V2000
   35.7970   29.6570   49.4800 C   0  0  2  0  0  0  0  0  0  0  0  0
   34.9510   29.4130   50.6590 C   0  0  0  0  0  0  0  0  0  0  0  0
   35.1200   28.2970   49.7380 C   0  0  1  0  0  0  0  0  0  0  0  0
   35.4690   30.2210   48.5980 H   0  0  0  0  0  0  0  0  0  0  0  0
   35.4730   29.4550   51.6390 H   0  0  0  0  0  0  0  0  0  0  0  0
   33.9980   30.0080   50.6990 H   0  0  0  0  0  0  0  0  0  0  0  0
   35.8590   27.4920   49.7890 H   0  0  0  0  0  0  0  0  0  0  0  0
   37.3120   29.5790   49.6750 C   0  0  0  0  0  0  0  0  0  0  0  0
   37.5200   29.4930   50.7450 H   0  0  0  0  0  0  0  0  0  0  0  0
   37.6720   28.6420   49.2080 H   0  0  0  0  0  0  0  0  0  0  0  0
   38.5750   32.9970   49.3290 C   0  0  0  0  0  0  0  0  0  0  0  0
   39.0000   33.0460   47.9920 C   0  0  0  0  0  0  0  0  0  0  0  0
   38.8440   31.8830   47.2190 C   0  0  0  0  0  0  0  0  0  0  0  0
   38.2880   30.7760   47.8100 N   0  0  0  0  0  0  0  0  0  0  0  0
   37.8990   30.7850   49.0900 C   0  0  0  0  0  0  0  0  0  0  0  0
   38.0460   31.8970   49.8370 N   0  0  0  0  0  0  0  0  0  0  0  0
   38.6990   33.8930   49.9080 H   0  0  0  0  0  0  0  0  0  0  0  0
   39.4320   33.9540   47.5870 H   0  0  0  0  0  0  0  0  0  0  0  0
   39.1620   31.8970   46.1950 H   0  0  0  0  0  0  0  0  0  0  0  0
   33.9160   27.9640   48.9010 C   0  0  0  0  0  0  0  0  0  0  0  0
   34.1930   27.3330   47.8020 O   0  0  0  0  0  0  0  0  0  0  0  0
   32.5990   28.2580   49.2090 O   0  0  0  0  0  0  0  0  0  0  0  0
   31.5860   27.7030   48.4450 C   0  0  0  0  0  0  0  0  0  0  0  0
   30.5670   26.8350   48.7650 C   0  0  0  0  0  3  0  0  0  0  0  0
   29.8790   26.6360   47.6190 N   0  0  0  0  0  0  0  0  0  0  0  0
   30.4350   27.3440   46.6130 C   0  0  0  0  0  3  0  0  0  0  0  0
   31.5030   28.0140   47.1230 N   0  0  0  0  0  0  0  0  0  0  0  0
   32.1020   28.6420   46.5180 H   0  0  0  0  0  0  0  0  0  0  0  0
  1  4  1  6  0  0  0
  1  8  1  0  0  0  0
  1  3  1  0  0  0  0
  1  2  1  0  0  0  0
  2  6  1  0  0  0  0
  2  5  1  0  0  0  0
  3  7  1  1  0  0  0
  3  2  1  0  0  0  0
  8  9  1  0  0  0  0
 10  8  1  0  0  0  0
 11 16  1  0  0  0  0
 11 17  1  0  0  0  0
 12 11  2  0  0  0  0
 13 14  2  0  0  0  0
 13 12  1  0  0  0  0
 14 15  1  0  0  0  0
 15  8  1  0  0  0  0
 15 16  2  0  0  0  0
 18 12  1  0  0  0  0
 19 13  1  0  0  0  0
 20 22  1  0  0  0  0
 20  3  1  0  0  0  0
 21 20  2  0  0  0  0
 23 24  2  0  0  0  0
 23 22  1  0  0  0  0
 25 24  1  0  0  0  0
 26 27  1  0  0  0  0
 26 25  2  0  0  0  0
 27 23  1  0  0  0  0
 28 27  1  0  0  0  0
M  END
>  <minimizedAffinity>
-4.85536623

>  <minimizedRMSD>
0.863023758

$$$$
