
 OpenBabel03252512383D

 42 45  0  0  1  0  0  0  0  0999 V2000
   39.2760   30.8510   46.3460 C   0  0  2  0  0  0  0  0  0  0  0  0
   40.1700   31.8480   45.8020 C   0  0  0  0  0  0  0  0  0  0  0  0
   41.0010   31.3780   44.6520 C   0  0  0  0  0  0  0  0  0  0  0  0
   40.2460   30.6180   43.6420 C   0  0  0  0  0  0  0  0  0  0  0  0
   39.2420   29.7000   44.1730 C   0  0  0  0  0  0  0  0  0  0  0  0
   38.3580   30.3410   45.3040 C   0  0  2  0  0  0  0  0  0  0  0  0
   39.8760   29.9530   46.6720 H   0  0  0  0  0  0  0  0  0  0  0  0
   40.9540   31.9960   46.6150 H   0  0  0  0  0  0  0  0  0  0  0  0
   39.8330   32.8650   45.6400 H   0  0  0  0  0  0  0  0  0  0  0  0
   41.8920   30.7800   44.9620 H   0  0  0  0  0  0  0  0  0  0  0  0
   41.4310   32.2870   44.1520 H   0  0  0  0  0  0  0  0  0  0  0  0
   40.9540   30.0460   43.0300 H   0  0  0  0  0  0  0  0  0  0  0  0
   39.7480   31.3520   42.9550 H   0  0  0  0  0  0  0  0  0  0  0  0
   39.7330   28.8240   44.6290 H   0  0  0  0  0  0  0  0  0  0  0  0
   38.5490   29.3820   43.3660 H   0  0  0  0  0  0  0  0  0  0  0  0
   37.7110   29.4740   45.5720 H   0  0  0  0  0  0  0  0  0  0  0  0
   38.6710   32.5800   48.1500 C   0  0  0  0  0  0  0  0  0  0  0  0
   38.5250   31.2970   47.5170 C   0  0  0  0  0  0  0  0  0  0  0  0
   37.6230   30.4190   48.0060 C   0  0  0  0  0  0  0  0  0  0  0  0
   36.8840   30.8080   49.1000 N   0  0  0  0  0  0  0  0  0  0  0  0
   37.0440   32.0440   49.6880 C   0  0  0  0  0  0  0  0  0  0  0  0
   37.9510   32.9310   49.1980 N   0  0  0  0  0  0  0  0  0  0  0  0
   39.4190   33.2220   47.6900 H   0  0  0  0  0  0  0  0  0  0  0  0
   37.4140   29.4350   47.6320 H   0  0  0  0  0  0  0  0  0  0  0  0
   36.4050   32.2210   50.5330 H   0  0  0  0  0  0  0  0  0  0  0  0
   37.5880   31.3870   44.6360 C   0  0  0  0  0  0  0  0  0  0  0  0
   37.5620   32.6290   44.9520 O   0  0  0  0  0  0  0  0  0  0  0  0
   36.8430   30.9520   43.5930 O   0  0  0  0  0  0  0  0  0  0  0  0
   35.8510   31.8070   43.0570 C   0  0  0  0  0  0  0  0  0  0  0  0
   34.4780   31.5890   43.2630 C   0  0  0  0  0  0  0  0  0  0  0  0
   33.8660   32.6170   42.5930 C   0  0  0  0  0  0  0  0  0  0  0  0
   34.8000   33.4210   42.0080 N   0  0  0  0  0  0  0  0  0  0  0  0
   35.9810   32.9020   42.3100 N   0  0  0  0  0  0  0  0  0  0  0  0
   34.0490   30.7690   43.8350 H   0  0  0  0  0  0  0  0  0  0  0  0
   32.7750   32.7590   42.5430 H   0  0  0  0  0  0  0  0  0  0  0  0
   34.5460   34.5850   41.2300 C   0  0  0  0  0  0  0  0  0  0  0  0
   34.1410   35.7320   41.8810 C   0  0  0  0  0  0  0  0  0  0  0  0
   33.9090   36.8310   41.0690 C   0  0  0  0  0  0  0  0  0  0  0  0
   33.5850   37.7490   41.5820 H   0  0  0  0  0  0  0  0  0  0  0  0
   34.0650   36.7970   39.7260 N   0  0  0  0  0  0  0  0  0  0  0  0
   34.4680   35.6420   39.1230 C   0  0  0  0  0  0  0  0  0  0  0  0
   34.7050   34.5410   39.8950 N   0  0  0  0  0  0  0  0  0  0  0  0
  1  7  1  1  0  0  0
  1 18  1  0  0  0  0
  2  1  1  0  0  0  0
  2  8  1  0  0  0  0
  3 10  1  0  0  0  0
  3  2  1  0  0  0  0
  4  5  1  0  0  0  0
  4  3  1  0  0  0  0
  5 14  1  0  0  0  0
  5  6  1  0  0  0  0
  6 16  1  1  0  0  0
  6  1  1  0  0  0  0
  9  2  1  0  0  0  0
 11  3  1  0  0  0  0
 12  4  1  0  0  0  0
 13  4  1  0  0  0  0
 15  5  1  0  0  0  0
 17 22  1  0  0  0  0
 18 19  1  0  0  0  0
 18 17  2  0  0  0  0
 19 20  2  0  0  0  0
 20 21  1  0  0  0  0
 21 25  1  0  0  0  0
 22 21  2  0  0  0  0
 23 17  1  0  0  0  0
 24 19  1  0  0  0  0
 26 27  2  0  0  0  0
 26  6  1  0  0  0  0
 28 26  1  0  0  0  0
 29 30  1  0  0  0  0
 29 28  1  0  0  0  0
 30 34  1  0  0  0  0
 31 30  2  0  0  0  0
 32 33  1  0  0  0  0
 32 31  1  0  0  0  0
 33 29  2  0  0  0  0
 35 31  1  0  0  0  0
 36 37  1  0  0  0  0
 36 32  1  0  0  0  0
 38 39  1  0  0  0  0
 38 37  2  0  0  0  0
 40 38  1  0  0  0  0
 41 40  2  0  0  0  0
 41 42  1  0  0  0  0
 42 36  2  0  0  0  0
M  END
>  <minimizedAffinity>
-5.54457283

>  <minimizedRMSD>
1.25893688

$$$$
