
 OpenBabel03252512373D

 34 36  0  0  1  0  0  0  0  0999 V2000
   39.3970   31.4920   46.7650 C   0  0  2  0  0  0  0  0  0  0  0  0
   39.6880   32.7800   46.1800 C   0  0  0  0  0  0  0  0  0  0  0  0
   40.6980   32.7220   45.0800 C   0  0  0  0  0  0  0  0  0  0  0  0
   40.3890   31.6810   44.0670 C   0  0  0  0  0  0  0  0  0  0  0  0
   39.9620   30.3900   44.6350 C   0  0  0  0  0  0  0  0  0  0  0  0
   38.8680   30.5530   45.7220 C   0  0  2  0  0  0  0  0  0  0  0  0
   40.3460   30.9890   47.1060 H   0  0  0  0  0  0  0  0  0  0  0  0
   39.0490   33.6600   46.2230 H   0  0  0  0  0  0  0  0  0  0  0  0
   40.3820   33.1910   47.0120 H   0  0  0  0  0  0  0  0  0  0  0  0
   41.7420   32.5180   45.3970 H   0  0  0  0  0  0  0  0  0  0  0  0
   40.7630   33.7070   44.5330 H   0  0  0  0  0  0  0  0  0  0  0  0
   41.2860   31.5050   43.4430 H   0  0  0  0  0  0  0  0  0  0  0  0
   39.6190   32.0870   43.3650 H   0  0  0  0  0  0  0  0  0  0  0  0
   40.8060   29.8460   45.1000 H   0  0  0  0  0  0  0  0  0  0  0  0
   39.5300   29.7310   43.8590 H   0  0  0  0  0  0  0  0  0  0  0  0
   38.6980   29.5050   46.0690 H   0  0  0  0  0  0  0  0  0  0  0  0
   38.1610   32.7140   48.6360 C   0  0  0  0  0  0  0  0  0  0  0  0
   38.5040   31.5320   47.9110 C   0  0  0  0  0  0  0  0  0  0  0  0
   37.9480   30.3490   48.3000 C   0  0  0  0  0  0  0  0  0  0  0  0
   37.0870   30.3530   49.3680 N   0  0  0  0  0  0  0  0  0  0  0  0
   36.7790   31.5090   50.0440 C   0  0  0  0  0  0  0  0  0  0  0  0
   37.3290   32.7000   49.6630 N   0  0  0  0  0  0  0  0  0  0  0  0
   38.6250   33.6280   48.2930 H   0  0  0  0  0  0  0  0  0  0  0  0
   38.0530   29.3460   47.9210 H   0  0  0  0  0  0  0  0  0  0  0  0
   36.0950   31.4730   50.8820 H   0  0  0  0  0  0  0  0  0  0  0  0
   37.6910   31.1090   45.0270 C   0  0  0  0  0  0  0  0  0  0  0  0
   36.5500   31.3760   45.5310 O   0  0  0  0  0  0  0  0  0  0  0  0
   37.9010   31.3460   43.6980 O   0  0  0  0  0  0  0  0  0  0  0  0
   36.9580   32.1000   42.9660 C   0  0  0  0  0  0  0  0  0  0  0  0
   36.8640   31.8370   41.5940 C   0  0  0  0  0  0  0  0  0  0  0  0
   35.9050   32.6770   41.1320 N   0  0  0  0  0  0  0  0  0  0  0  0
   35.4560   33.3960   42.1750 C   0  0  0  0  0  0  0  0  0  0  0  0
   36.0920   33.0540   43.3090 N   0  0  0  0  0  0  0  0  0  0  0  0
   36.0200   33.3810   44.2860 H   0  0  0  0  0  0  0  0  0  0  0  0
  1  7  1  1  0  0  0
  1 18  1  0  0  0  0
  2  8  1  0  0  0  0
  2  1  1  0  0  0  0
  2  9  1  0  0  0  0
  3 10  1  0  0  0  0
  3  2  1  0  0  0  0
  4  5  1  0  0  0  0
  4  3  1  0  0  0  0
  5 14  1  0  0  0  0
  5  6  1  0  0  0  0
  6 16  1  1  0  0  0
  6  1  1  0  0  0  0
 11  3  1  0  0  0  0
 12  4  1  0  0  0  0
 13  4  1  0  0  0  0
 15  5  1  0  0  0  0
 17 22  1  0  0  0  0
 18 19  1  0  0  0  0
 18 17  2  0  0  0  0
 19 20  2  0  0  0  0
 20 21  1  0  0  0  0
 21 25  1  0  0  0  0
 22 21  2  0  0  0  0
 23 17  1  0  0  0  0
 24 19  1  0  0  0  0
 26 27  2  0  0  0  0
 26  6  1  0  0  0  0
 28 26  1  0  0  0  0
 29 33  1  0  0  0  0
 29 28  1  0  0  0  0
 30 29  2  0  0  0  0
 31 30  1  0  0  0  0
 31 32  2  0  0  0  0
 32 33  1  0  0  0  0
 33 34  1  0  0  0  0
M  END
>  <minimizedAffinity>
-5.19964838

>  <minimizedRMSD>
1.45350325

$$$$
