
 OpenBabel03252513263D

 33 35  0  0  0  0  0  0  0  0999 V2000
   32.8020   27.7810   48.5560 C   0  0  0  0  0  0  0  0  0  0  0  0
   31.6800   28.1910   49.2060 C   0  0  0  0  0  0  0  0  0  0  0  0
   30.4580   27.5520   49.1360 C   0  0  0  0  0  0  0  0  0  0  0  0
   30.4150   26.4290   48.3450 C   0  0  0  0  0  0  0  0  0  0  0  0
   31.5210   25.9670   47.6650 C   0  0  0  0  0  0  0  0  0  0  0  0
   32.7250   26.6440   47.7670 C   0  0  0  0  0  0  0  0  0  0  0  0
   31.7410   29.0880   49.8270 H   0  0  0  0  0  0  0  0  0  0  0  0
   29.5750   27.8740   49.6450 H   0  0  0  0  0  0  0  0  0  0  0  0
   29.5000   25.8610   48.2280 H   0  0  0  0  0  0  0  0  0  0  0  0
   31.4600   25.0730   47.0440 H   0  0  0  0  0  0  0  0  0  0  0  0
   36.0970   28.9210   49.6700 C   0  0  0  0  0  0  0  0  0  0  0  0
   36.4220   29.9110   48.7200 C   0  0  0  0  0  0  0  0  0  0  0  0
   35.4920   30.1500   47.7280 C   0  0  0  0  0  0  0  0  0  0  0  0
   34.3210   29.4290   47.7150 N   0  0  0  0  0  0  0  0  0  0  0  0
   34.0630   28.4840   48.6600 C   0  0  0  0  0  0  0  0  0  0  0  0
   34.9490   28.2550   49.6070 N   0  0  0  0  0  0  0  0  0  0  0  0
   36.8610   28.7770   50.4240 H   0  0  0  0  0  0  0  0  0  0  0  0
   35.6840   30.8840   46.9870 H   0  0  0  0  0  0  0  0  0  0  0  0
   37.6900   30.6740   48.7590 C   0  0  0  0  0  0  0  0  0  0  0  0
   38.4820   30.4810   47.6580 F   0  0  0  0  0  0  0  0  0  0  0  0
   38.4630   30.3360   49.8520 F   0  0  0  0  0  0  0  0  0  0  0  0
   37.4050   32.0410   48.8260 F   0  0  0  0  0  0  0  0  0  0  0  0
   33.9320   26.1930   47.0620 C   0  0  0  0  0  0  0  0  0  0  0  0
   34.0770   26.6960   46.0820 H   0  0  0  0  0  0  0  0  0  0  0  0
   34.8200   26.4650   47.6720 H   0  0  0  0  0  0  0  0  0  0  0  0
   34.0170   24.7090   46.8250 C   0  0  0  0  0  0  0  0  0  0  0  0
   33.0450   24.3520   46.4520 H   0  0  0  0  0  0  0  0  0  0  0  0
   34.3210   24.1670   47.7560 H   0  0  0  0  0  0  0  0  0  0  0  0
   34.9970   24.4550   45.7980 N   0  0  0  0  0  0  0  0  0  0  0  0
   34.9960   25.0170   44.5580 C   0  0  0  0  0  0  0  0  0  0  0  0
   36.0660   24.5550   43.8470 N   0  0  0  0  0  0  0  0  0  0  0  0
   36.7120   23.7000   44.6890 C   0  0  0  0  0  0  0  0  0  0  0  0
   36.0530   23.6590   45.8450 N   0  0  0  0  0  0  0  0  0  0  0  0
  1 15  1  0  0  0  0
  1  2  1  0  0  0  0
  2  7  1  0  0  0  0
  3  2  2  0  0  0  0
  3  8  1  0  0  0  0
  4  3  1  0  0  0  0
  5  6  1  0  0  0  0
  5  4  2  0  0  0  0
  6  1  2  0  0  0  0
  9  4  1  0  0  0  0
 10  5  1  0  0  0  0
 11 17  1  0  0  0  0
 12 19  1  0  0  0  0
 12 11  2  0  0  0  0
 13 12  1  0  0  0  0
 14 13  2  0  0  0  0
 14 15  1  0  0  0  0
 15 16  2  0  0  0  0
 16 11  1  0  0  0  0
 18 13  1  0  0  0  0
 19 22  1  0  0  0  0
 19 21  1  0  0  0  0
 20 19  1  0  0  0  0
 23 25  1  0  0  0  0
 23  6  1  0  0  0  0
 24 23  1  0  0  0  0
 26 23  1  0  0  0  0
 26 28  1  0  0  0  0
 27 26  1  0  0  0  0
 29 33  1  0  0  0  0
 29 26  1  0  0  0  0
 30 29  1  0  0  0  0
 31 30  2  0  0  0  0
 31 32  1  0  0  0  0
 32 33  2  0  0  0  0
M  END
>  <minimizedAffinity>
-4.99836302

>  <minimizedRMSD>
0.463365912

$$$$
