
 OpenBabel03252514003D

 28 30  0  0  1  0  0  0  0  0999 V2000
   35.5770   29.5640   49.2460 C   0  0  2  0  0  0  0  0  0  0  0  0
   34.6160   29.4840   50.3570 C   0  0  0  0  0  0  0  0  0  0  0  0
   34.8480   28.2560   49.6070 C   0  0  1  0  0  0  0  0  0  0  0  0
   35.3500   30.0130   48.2710 H   0  0  0  0  0  0  0  0  0  0  0  0
   35.0420   29.6450   51.3710 H   0  0  0  0  0  0  0  0  0  0  0  0
   33.6780   30.0880   50.2270 H   0  0  0  0  0  0  0  0  0  0  0  0
   35.5590   27.4570   49.8320 H   0  0  0  0  0  0  0  0  0  0  0  0
   37.0650   29.4960   49.5980 C   0  0  0  0  0  0  0  0  0  0  0  0
   37.1610   29.4170   50.6840 H   0  0  0  0  0  0  0  0  0  0  0  0
   37.4760   28.5580   49.1770 H   0  0  0  0  0  0  0  0  0  0  0  0
   38.3200   32.9260   49.3550 C   0  0  0  0  0  0  0  0  0  0  0  0
   38.9020   32.9620   48.0780 C   0  0  0  0  0  0  0  0  0  0  0  0
   38.8530   31.7880   47.3090 C   0  0  0  0  0  0  0  0  0  0  0  0
   38.2430   30.6810   47.8450 N   0  0  0  0  0  0  0  0  0  0  0  0
   37.7030   30.7020   49.0700 C   0  0  0  0  0  0  0  0  0  0  0  0
   37.7470   31.8250   49.8130 N   0  0  0  0  0  0  0  0  0  0  0  0
   38.3640   33.8310   49.9320 H   0  0  0  0  0  0  0  0  0  0  0  0
   39.3690   33.8710   47.7150 H   0  0  0  0  0  0  0  0  0  0  0  0
   39.2910   31.7920   46.3310 H   0  0  0  0  0  0  0  0  0  0  0  0
   33.7230   27.8310   48.7040 C   0  0  0  0  0  0  0  0  0  0  0  0
   34.1080   27.2080   47.6340 O   0  0  0  0  0  0  0  0  0  0  0  0
   32.3720   28.0380   48.9270 O   0  0  0  0  0  0  0  0  0  0  0  0
   31.4550   27.5780   47.9950 C   0  0  0  0  0  0  0  0  0  0  0  0
   30.6190   28.2450   47.1280 C   0  0  0  0  0  3  0  0  0  0  0  0
   29.9470   27.2830   46.4560 N   0  0  0  0  0  0  0  0  0  0  0  0
   30.3370   26.0600   46.8750 C   0  0  0  0  0  3  0  0  0  0  0  0
   31.2810   26.2380   47.8390 N   0  0  0  0  0  0  0  0  0  0  0  0
   31.7390   25.4180   48.3210 H   0  0  0  0  0  0  0  0  0  0  0  0
  1  4  1  6  0  0  0
  1  8  1  0  0  0  0
  1  3  1  0  0  0  0
  1  2  1  0  0  0  0
  2  5  1  0  0  0  0
  3  7  1  1  0  0  0
  3  2  1  0  0  0  0
  6  2  1  0  0  0  0
  8  9  1  0  0  0  0
 10  8  1  0  0  0  0
 11 16  1  0  0  0  0
 11 17  1  0  0  0  0
 12 11  2  0  0  0  0
 13 14  2  0  0  0  0
 13 12  1  0  0  0  0
 14 15  1  0  0  0  0
 15  8  1  0  0  0  0
 15 16  2  0  0  0  0
 18 12  1  0  0  0  0
 19 13  1  0  0  0  0
 20 22  1  0  0  0  0
 20  3  1  0  0  0  0
 21 20  2  0  0  0  0
 23 22  1  0  0  0  0
 24 23  2  0  0  0  0
 25 26  2  0  0  0  0
 25 24  1  0  0  0  0
 26 27  1  0  0  0  0
 27 23  1  0  0  0  0
 27 28  1  0  0  0  0
M  END
>  <minimizedAffinity>
-4.8355155

>  <minimizedRMSD>
0.762482047

$$$$
