
 OpenBabel03252511333D

 31 33  0  0  0  0  0  0  0  0999 V2000
   36.0110   30.2630   46.5780 C   0  0  0  0  0  0  0  0  0  0  0  0
   34.7730   29.6490   46.5760 C   0  0  0  0  0  0  0  0  0  0  0  0
   34.1260   29.1990   45.4470 C   0  0  0  0  0  0  0  0  0  0  0  0
   34.7460   29.3660   44.2260 C   0  0  0  0  0  0  0  0  0  0  0  0
   36.0020   29.9840   44.1820 C   0  0  0  0  0  0  0  0  0  0  0  0
   36.6080   30.4190   45.3570 C   0  0  0  0  0  0  0  0  0  0  0  0
   34.2770   29.5120   47.5240 H   0  0  0  0  0  0  0  0  0  0  0  0
   33.1430   28.7230   45.5600 H   0  0  0  0  0  0  0  0  0  0  0  0
   34.2310   29.0100   43.3460 H   0  0  0  0  0  0  0  0  0  0  0  0
   36.4640   30.1010   43.2110 H   0  0  0  0  0  0  0  0  0  0  0  0
   37.8850   31.0420   45.2690 N   0  0  0  0  0  0  0  0  0  0  0  0
   38.9400   30.4030   45.8510 C   0  0  0  0  0  0  0  0  0  0  0  0
   40.2170   30.9270   45.8190 C   0  0  0  0  0  0  0  0  0  0  0  0
   40.4520   32.1460   45.1760 C   0  0  0  0  0  0  0  0  0  0  0  0
   41.5950   32.6620   45.1200 O   0  0  0  0  0  0  0  0  0  0  0  0
   39.3780   32.7400   44.6140 N   0  0  0  0  0  0  0  0  0  0  0  0
   38.1190   32.2210   44.6480 C   0  0  0  0  0  0  0  0  0  0  0  0
   37.1430   32.8010   44.1160 O   0  0  0  0  0  0  0  0  0  0  0  0
   39.5460   33.6640   44.1250 H   0  0  0  0  0  0  0  0  0  0  0  0
   37.1050   30.3290   50.0570 C   0  0  0  0  0  0  0  0  0  0  0  0
   37.7380   31.5640   50.1630 C   0  0  0  0  0  0  0  0  0  0  0  0
   37.7880   32.3790   49.0260 C   0  0  0  0  0  0  0  0  0  0  0  0
   37.2170   31.9200   47.8890 N   0  0  0  0  0  0  0  0  0  0  0  0
   36.6040   30.7010   47.8250 C   0  0  0  0  0  0  0  0  0  0  0  0
   36.5570   29.9260   48.9040 N   0  0  0  0  0  0  0  0  0  0  0  0
   38.1830   31.8940   51.0910 H   0  0  0  0  0  0  0  0  0  0  0  0
   38.2720   33.3480   49.0630 H   0  0  0  0  0  0  0  0  0  0  0  0
   37.0490   29.4460   51.2820 C   0  0  0  0  0  0  0  0  0  0  0  0
   35.7440   29.1020   51.5400 F   0  0  0  0  0  0  0  0  0  0  0  0
   37.8610   28.3740   51.0600 F   0  0  0  0  0  0  0  0  0  0  0  0
   37.5240   30.2010   52.3560 F   0  0  0  0  0  0  0  0  0  0  0  0
  1 24  1  0  0  0  0
  2  1  1  0  0  0  0
  2  7  1  0  0  0  0
  3  8  1  0  0  0  0
  3  2  2  0  0  0  0
  4  3  1  0  0  0  0
  5  4  2  0  0  0  0
  5  6  1  0  0  0  0
  6  1  2  0  0  0  0
  9  4  1  0  0  0  0
 10  5  1  0  0  0  0
 11  6  1  0  0  0  0
 11 12  1  0  0  0  0
 13 12  2  0  0  0  0
 14 13  1  0  0  0  0
 15 14  2  0  0  0  0
 16 17  1  0  0  0  0
 16 14  1  0  0  0  0
 17 11  1  0  0  0  0
 18 17  2  0  0  0  0
 19 16  1  0  0  0  0
 20 21  1  0  0  0  0
 20 28  1  0  0  0  0
 21 26  1  0  0  0  0
 22 27  1  0  0  0  0
 22 21  2  0  0  0  0
 23 22  1  0  0  0  0
 24 23  2  0  0  0  0
 24 25  1  0  0  0  0
 25 20  2  0  0  0  0
 28 29  1  0  0  0  0
 28 31  1  0  0  0  0
 30 28  1  0  0  0  0
M  END
>  <minimizedAffinity>
-6.42413568

>  <minimizedRMSD>
0.712208033

$$$$
