
 OpenBabel03252514003D

 28 30  0  0  1  0  0  0  0  0999 V2000
   35.5760   29.5630   49.2440 C   0  0  2  0  0  0  0  0  0  0  0  0
   34.6140   29.4840   50.3550 C   0  0  0  0  0  0  0  0  0  0  0  0
   34.8460   28.2560   49.6060 C   0  0  1  0  0  0  0  0  0  0  0  0
   35.3490   30.0110   48.2680 H   0  0  0  0  0  0  0  0  0  0  0  0
   35.0400   29.6460   51.3680 H   0  0  0  0  0  0  0  0  0  0  0  0
   33.6770   30.0890   50.2240 H   0  0  0  0  0  0  0  0  0  0  0  0
   35.5570   27.4560   49.8320 H   0  0  0  0  0  0  0  0  0  0  0  0
   37.0630   29.4940   49.5970 C   0  0  0  0  0  0  0  0  0  0  0  0
   37.1590   29.4150   50.6820 H   0  0  0  0  0  0  0  0  0  0  0  0
   37.4750   28.5570   49.1750 H   0  0  0  0  0  0  0  0  0  0  0  0
   38.3160   32.9250   49.3550 C   0  0  0  0  0  0  0  0  0  0  0  0
   38.9010   32.9620   48.0790 C   0  0  0  0  0  0  0  0  0  0  0  0
   38.8540   31.7870   47.3100 C   0  0  0  0  0  0  0  0  0  0  0  0
   38.2440   30.6800   47.8460 N   0  0  0  0  0  0  0  0  0  0  0  0
   37.7010   30.7000   49.0690 C   0  0  0  0  0  0  0  0  0  0  0  0
   37.7440   31.8240   49.8120 N   0  0  0  0  0  0  0  0  0  0  0  0
   38.3580   33.8300   49.9320 H   0  0  0  0  0  0  0  0  0  0  0  0
   39.3680   33.8710   47.7160 H   0  0  0  0  0  0  0  0  0  0  0  0
   39.2940   31.7910   46.3330 H   0  0  0  0  0  0  0  0  0  0  0  0
   33.7210   27.8300   48.7030 C   0  0  0  0  0  0  0  0  0  0  0  0
   34.1060   27.2070   47.6330 O   0  0  0  0  0  0  0  0  0  0  0  0
   32.3700   28.0360   48.9260 O   0  0  0  0  0  0  0  0  0  0  0  0
   31.4530   27.5770   47.9940 C   0  0  0  0  0  0  0  0  0  0  0  0
   30.6190   28.2440   47.1270 C   0  0  0  0  0  3  0  0  0  0  0  0
   29.9460   27.2830   46.4530 N   0  0  0  0  0  0  0  0  0  0  0  0
   30.3350   26.0600   46.8730 C   0  0  0  0  0  3  0  0  0  0  0  0
   31.2780   26.2370   47.8370 N   0  0  0  0  0  0  0  0  0  0  0  0
   31.7350   25.4160   48.3200 H   0  0  0  0  0  0  0  0  0  0  0  0
  1  4  1  6  0  0  0
  1  8  1  0  0  0  0
  1  3  1  0  0  0  0
  1  2  1  0  0  0  0
  2  5  1  0  0  0  0
  3  7  1  1  0  0  0
  3  2  1  0  0  0  0
  6  2  1  0  0  0  0
  8  9  1  0  0  0  0
 10  8  1  0  0  0  0
 11 16  1  0  0  0  0
 11 17  1  0  0  0  0
 12 11  2  0  0  0  0
 13 14  2  0  0  0  0
 13 12  1  0  0  0  0
 14 15  1  0  0  0  0
 15  8  1  0  0  0  0
 15 16  2  0  0  0  0
 18 12  1  0  0  0  0
 19 13  1  0  0  0  0
 20 22  1  0  0  0  0
 20  3  1  0  0  0  0
 21 20  2  0  0  0  0
 23 22  1  0  0  0  0
 24 23  2  0  0  0  0
 25 26  2  0  0  0  0
 25 24  1  0  0  0  0
 26 27  1  0  0  0  0
 27 23  1  0  0  0  0
 27 28  1  0  0  0  0
M  END
>  <minimizedAffinity>
-4.8360858

>  <minimizedRMSD>
0.830086648

$$$$
