
 OpenBabel03252514083D

 44 48  0  0  0  0  0  0  0  0999 V2000
   34.0230   29.9320   47.5100 C   0  0  0  0  0  0  0  0  0  0  0  0
   35.0520   29.6240   48.4340 C   0  0  0  0  0  0  0  0  0  0  0  0
   34.9880   28.3820   49.0340 C   0  0  0  0  0  0  0  0  0  0  0  0
   33.9720   27.5420   48.7160 N   0  0  0  0  0  0  0  0  0  0  0  0
   33.0070   27.8470   47.8400 C   0  0  0  0  0  0  0  0  0  0  0  0
   33.0480   29.0390   47.2500 N   0  0  0  0  0  0  0  0  0  0  0  0
   34.0570   30.9070   47.0280 H   0  0  0  0  0  0  0  0  0  0  0  0
   35.7660   28.1460   49.7340 H   0  0  0  0  0  0  0  0  0  0  0  0
   36.0460   30.6120   48.6580 N   0  0  0  0  0  0  0  0  0  0  0  0
   36.2390   31.2240   49.8620 C   0  0  0  0  0  0  0  0  0  0  0  0
   37.2510   32.1090   49.7430 N   0  0  0  0  0  0  0  0  0  0  0  0
   37.6670   32.0310   48.4640 C   0  0  0  0  0  0  0  0  0  0  0  0
   38.6600   32.6800   47.7380 C   0  0  0  0  0  0  0  0  0  0  0  0
   38.8770   32.4150   46.4540 N   0  0  0  0  0  0  0  0  0  0  0  0
   38.1370   31.4930   45.7830 C   0  0  0  0  0  0  0  0  0  0  0  0
   37.1740   30.8650   46.4920 N   0  0  0  0  0  0  0  0  0  0  0  0
   36.9180   31.0950   47.7750 C   0  0  0  0  0  0  0  0  0  0  0  0
   35.7350   31.1040   50.8130 H   0  0  0  0  0  0  0  0  0  0  0  0
   38.3290   31.2910   44.7340 H   0  0  0  0  0  0  0  0  0  0  0  0
   39.4600   33.6530   48.3840 N   0  0  0  0  0  0  0  0  0  0  0  0
   39.2600   34.6930   48.4200 H   0  0  0  0  0  0  0  0  0  0  0  0
   40.3650   33.5740   48.9320 H   0  0  0  0  0  0  0  0  0  0  0  0
   31.9090   26.9160   47.5090 C   0  0  0  0  0  0  0  0  0  0  0  0
   30.9330   26.8330   48.6710 C   0  0  0  0  0  0  0  0  0  0  0  0
   29.9900   26.3940   48.2800 H   0  0  0  0  0  0  0  0  0  0  0  0
   31.3590   26.2040   49.4720 H   0  0  0  0  0  0  0  0  0  0  0  0
   30.7530   27.8630   49.0500 H   0  0  0  0  0  0  0  0  0  0  0  0
   31.0820   27.4660   46.3430 C   0  0  0  0  0  0  0  0  0  0  0  0
   31.6860   27.8360   45.5180 H   0  0  0  0  0  0  0  0  0  0  0  0
   30.5740   28.3740   46.7720 H   0  0  0  0  0  0  0  0  0  0  0  0
   30.2960   26.7370   46.0860 H   0  0  0  0  0  0  0  0  0  0  0  0
   32.3880   25.5570   47.1020 C   0  0  0  0  0  0  0  0  0  0  0  0
   31.4790   24.9400   46.9280 H   0  0  0  0  0  0  0  0  0  0  0  0
   33.0640   25.1040   47.8640 H   0  0  0  0  0  0  0  0  0  0  0  0
   33.1840   25.6720   45.8970 N   0  0  0  0  0  0  0  0  0  0  0  0
   32.9660   26.4550   44.8230 C   0  0  0  0  0  3  0  0  0  0  0  0
   33.9100   26.3120   43.8780 N   0  0  0  0  0  0  0  0  0  0  0  0
   34.7900   25.4050   44.3270 C   0  0  0  0  0  0  0  0  0  0  0  0
   35.9560   24.8470   43.8170 C   0  0  0  0  0  0  0  0  0  0  0  0
   36.3170   25.1440   42.8480 H   0  0  0  0  0  0  0  0  0  0  0  0
   36.6590   23.9330   44.5030 N   0  0  0  0  0  0  0  0  0  0  0  0
   36.1930   23.5740   45.7120 C   0  0  0  0  0  3  0  0  0  0  0  0
   35.0610   24.1090   46.2210 N   0  0  0  0  0  0  0  0  0  0  0  0
   34.3260   25.0260   45.5690 C   0  0  0  0  0  0  0  0  0  0  0  0
  1  2  1  0  0  0  0
  2  9  1  0  0  0  0
  2  3  2  0  0  0  0
  3  8  1  0  0  0  0
  4  3  1  0  0  0  0
  5  4  2  0  0  0  0
  6  1  2  0  0  0  0
  6  5  1  0  0  0  0
  7  1  1  0  0  0  0
  9 10  1  0  0  0  0
 10 18  1  0  0  0  0
 11 10  2  0  0  0  0
 12 11  1  0  0  0  0
 13 20  1  0  0  0  0
 13 12  2  0  0  0  0
 14 13  1  0  0  0  0
 15 14  2  0  0  0  0
 15 16  1  0  0  0  0
 16 17  2  0  0  0  0
 17 12  1  0  0  0  0
 17  9  1  0  0  0  0
 19 15  1  0  0  0  0
 20 21  1  0  0  0  0
 20 22  1  0  0  0  0
 23  5  1  0  0  0  0
 23 24  1  0  0  0  0
 24 27  1  0  0  0  0
 24 26  1  0  0  0  0
 25 24  1  0  0  0  0
 28 30  1  0  0  0  0
 28 23  1  0  0  0  0
 29 28  1  0  0  0  0
 31 28  1  0  0  0  0
 32 23  1  0  0  0  0
 32 34  1  0  0  0  0
 33 32  1  0  0  0  0
 35 32  1  0  0  0  0
 36 35  1  0  0  0  0
 37 38  1  0  0  0  0
 37 36  2  0  0  0  0
 38 44  1  0  0  0  0
 39 38  2  0  0  0  0
 39 41  1  0  0  0  0
 40 39  1  0  0  0  0
 41 42  2  0  0  0  0
 42 43  1  0  0  0  0
 44 35  1  0  0  0  0
 44 43  2  0  0  0  0
M  END
>  <minimizedAffinity>
-5.56515694

>  <minimizedRMSD>
1.822294

$$$$
