
 OpenBabel03252514003D

 28 30  0  0  1  0  0  0  0  0999 V2000
   35.6260   29.5770   49.2870 C   0  0  2  0  0  0  0  0  0  0  0  0
   34.6930   29.4820   50.4180 C   0  0  0  0  0  0  0  0  0  0  0  0
   34.9080   28.2650   49.6420 C   0  0  1  0  0  0  0  0  0  0  0  0
   35.3320   30.1330   48.3940 H   0  0  0  0  0  0  0  0  0  0  0  0
   35.0760   29.4580   51.4800 H   0  0  0  0  0  0  0  0  0  0  0  0
   33.7220   30.0170   50.3820 H   0  0  0  0  0  0  0  0  0  0  0  0
   35.6020   27.4350   49.7570 H   0  0  0  0  0  0  0  0  0  0  0  0
   37.1210   29.4960   49.5830 C   0  0  0  0  0  0  0  0  0  0  0  0
   37.5600   28.5570   49.2020 H   0  0  0  0  0  0  0  0  0  0  0  0
   37.2200   29.4590   50.6860 H   0  0  0  0  0  0  0  0  0  0  0  0
   38.3680   32.9350   49.3590 C   0  0  0  0  0  0  0  0  0  0  0  0
   38.9160   32.9860   48.0690 C   0  0  0  0  0  0  0  0  0  0  0  0
   38.8500   31.8230   47.2820 C   0  0  0  0  0  0  0  0  0  0  0  0
   38.2500   30.7030   47.8270 N   0  0  0  0  0  0  0  0  0  0  0  0
   37.7420   30.7210   49.0790 C   0  0  0  0  0  0  0  0  0  0  0  0
   37.8070   31.8430   49.8350 N   0  0  0  0  0  0  0  0  0  0  0  0
   38.4740   33.8810   49.8720 H   0  0  0  0  0  0  0  0  0  0  0  0
   39.3980   33.8100   47.5680 H   0  0  0  0  0  0  0  0  0  0  0  0
   39.2180   31.6890   46.2780 H   0  0  0  0  0  0  0  0  0  0  0  0
   33.7430   27.8740   48.7720 C   0  0  0  0  0  0  0  0  0  0  0  0
   34.0550   27.1770   47.7280 O   0  0  0  0  0  0  0  0  0  0  0  0
   32.4050   28.1720   48.9750 O   0  0  0  0  0  0  0  0  0  0  0  0
   31.4470   27.5540   48.1850 C   0  0  0  0  0  0  0  0  0  0  0  0
   30.9190   28.2890   47.1740 N   0  0  0  0  0  0  0  0  0  0  0  0
   30.0350   27.5950   46.5130 O   0  0  0  0  0  0  0  0  0  0  0  0
   29.9810   26.4160   47.0780 C   0  0  0  0  0  0  0  0  0  0  0  0
   29.2990   25.6880   46.6700 H   0  0  0  0  0  0  0  0  0  0  0  0
   30.8450   26.3720   48.1140 N   0  0  0  0  0  0  0  0  0  0  0  0
  1  4  1  6  0  0  0
  1  8  1  0  0  0  0
  1  3  1  0  0  0  0
  1  2  1  0  0  0  0
  2  5  1  0  0  0  0
  3  7  1  1  0  0  0
  3  2  1  0  0  0  0
  6  2  1  0  0  0  0
  8 10  1  0  0  0  0
  9  8  1  0  0  0  0
 11 16  1  0  0  0  0
 11 17  1  0  0  0  0
 12 11  2  0  0  0  0
 13 14  2  0  0  0  0
 13 12  1  0  0  0  0
 14 15  1  0  0  0  0
 15  8  1  0  0  0  0
 15 16  2  0  0  0  0
 18 12  1  0  0  0  0
 19 13  1  0  0  0  0
 20 22  1  0  0  0  0
 20  3  1  0  0  0  0
 21 20  2  0  0  0  0
 23 22  1  0  0  0  0
 24 23  2  0  0  0  0
 25 26  1  0  0  0  0
 25 24  1  0  0  0  0
 26 28  2  0  0  0  0
 27 26  1  0  0  0  0
 28 23  1  0  0  0  0
M  END
>  <minimizedAffinity>
-4.82379103

>  <minimizedRMSD>
0.605059266

$$$$
