
 OpenBabel03252512373D

 34 36  0  0  1  0  0  0  0  0999 V2000
   39.3910   31.4850   46.6580 C   0  0  2  0  0  0  0  0  0  0  0  0
   39.6730   32.7160   45.9600 C   0  0  0  0  0  0  0  0  0  0  0  0
   40.6460   32.5710   44.8380 C   0  0  0  0  0  0  0  0  0  0  0  0
   40.3620   31.4280   43.9560 C   0  0  0  0  0  0  0  0  0  0  0  0
   39.9040   30.1980   44.6250 C   0  0  0  0  0  0  0  0  0  0  0  0
   38.8340   30.4620   45.7140 C   0  0  2  0  0  0  0  0  0  0  0  0
   40.3370   31.0030   47.0250 H   0  0  0  0  0  0  0  0  0  0  0  0
   39.0330   33.6020   45.9450 H   0  0  0  0  0  0  0  0  0  0  0  0
   40.3800   33.1950   46.7440 H   0  0  0  0  0  0  0  0  0  0  0  0
   41.7140   32.5340   45.1050 H   0  0  0  0  0  0  0  0  0  0  0  0
   40.5570   33.5150   44.2230 H   0  0  0  0  0  0  0  0  0  0  0  0
   41.2700   31.1740   43.3730 H   0  0  0  0  0  0  0  0  0  0  0  0
   39.6250   31.7560   43.1660 H   0  0  0  0  0  0  0  0  0  0  0  0
   39.3400   29.5920   43.8650 H   0  0  0  0  0  0  0  0  0  0  0  0
   40.6820   29.5540   45.0350 H   0  0  0  0  0  0  0  0  0  0  0  0
   38.6570   29.4480   46.1320 H   0  0  0  0  0  0  0  0  0  0  0  0
   38.3200   32.8520   48.5340 C   0  0  0  0  0  0  0  0  0  0  0  0
   38.5180   31.6290   47.8170 C   0  0  0  0  0  0  0  0  0  0  0  0
   37.8420   30.5180   48.2180 C   0  0  0  0  0  0  0  0  0  0  0  0
   36.9980   30.6260   49.2960 N   0  0  0  0  0  0  0  0  0  0  0  0
   36.8280   31.8160   49.9660 C   0  0  0  0  0  0  0  0  0  0  0  0
   37.5040   32.9350   49.5700 N   0  0  0  0  0  0  0  0  0  0  0  0
   38.8820   33.7110   48.1750 H   0  0  0  0  0  0  0  0  0  0  0  0
   37.8360   29.5180   47.8410 H   0  0  0  0  0  0  0  0  0  0  0  0
   36.1690   31.8800   50.8020 H   0  0  0  0  0  0  0  0  0  0  0  0
   37.6490   30.9600   44.9960 C   0  0  0  0  0  0  0  0  0  0  0  0
   36.5680   30.3310   44.7450 O   0  0  0  0  0  0  0  0  0  0  0  0
   37.7700   32.2480   44.5690 O   0  0  0  0  0  0  0  0  0  0  0  0
   37.0720   32.6610   43.4120 C   0  0  0  0  0  0  0  0  0  0  0  0
   37.8600   32.9750   42.3550 N   0  0  0  0  0  0  0  0  0  0  0  0
   37.1090   33.3420   41.3430 O   0  0  0  0  0  0  0  0  0  0  0  0
   35.8450   33.2670   41.7370 C   0  0  0  0  0  0  0  0  0  0  0  0
   34.9930   33.5050   41.1250 H   0  0  0  0  0  0  0  0  0  0  0  0
   35.8110   32.8440   43.0210 N   0  0  0  0  0  0  0  0  0  0  0  0
  1  7  1  1  0  0  0
  1 18  1  0  0  0  0
  2  1  1  0  0  0  0
  2  9  1  0  0  0  0
  3 10  1  0  0  0  0
  3  2  1  0  0  0  0
  4  5  1  0  0  0  0
  4  3  1  0  0  0  0
  5 15  1  0  0  0  0
  5  6  1  0  0  0  0
  6 16  1  1  0  0  0
  6  1  1  0  0  0  0
  8  2  1  0  0  0  0
 11  3  1  0  0  0  0
 12  4  1  0  0  0  0
 13  4  1  0  0  0  0
 14  5  1  0  0  0  0
 17 22  1  0  0  0  0
 18 19  1  0  0  0  0
 18 17  2  0  0  0  0
 19 20  2  0  0  0  0
 20 21  1  0  0  0  0
 21 25  1  0  0  0  0
 22 21  2  0  0  0  0
 23 17  1  0  0  0  0
 24 19  1  0  0  0  0
 26  6  1  0  0  0  0
 27 26  2  0  0  0  0
 28 26  1  0  0  0  0
 29 28  1  0  0  0  0
 30 29  2  0  0  0  0
 31 32  1  0  0  0  0
 31 30  1  0  0  0  0
 32 34  2  0  0  0  0
 33 32  1  0  0  0  0
 34 29  1  0  0  0  0
M  END
>  <minimizedAffinity>
-5.28151655

>  <minimizedRMSD>
1.24545372

$$$$
