
 OpenBabel03252514083D

 44 48  0  0  0  0  0  0  0  0999 V2000
   34.1160   29.9920   47.5310 C   0  0  0  0  0  0  0  0  0  0  0  0
   35.1470   29.7010   48.4580 C   0  0  0  0  0  0  0  0  0  0  0  0
   35.0920   28.4640   49.0700 C   0  0  0  0  0  0  0  0  0  0  0  0
   34.0830   27.6140   48.7600 N   0  0  0  0  0  0  0  0  0  0  0  0
   33.1160   27.9040   47.8810 C   0  0  0  0  0  0  0  0  0  0  0  0
   33.1480   29.0900   47.2800 N   0  0  0  0  0  0  0  0  0  0  0  0
   34.1440   30.9640   47.0400 H   0  0  0  0  0  0  0  0  0  0  0  0
   35.8710   28.2410   49.7730 H   0  0  0  0  0  0  0  0  0  0  0  0
   36.1340   30.6990   48.6730 N   0  0  0  0  0  0  0  0  0  0  0  0
   36.3090   31.3380   49.8650 C   0  0  0  0  0  0  0  0  0  0  0  0
   37.3180   32.2250   49.7400 N   0  0  0  0  0  0  0  0  0  0  0  0
   37.7520   32.1200   48.4690 C   0  0  0  0  0  0  0  0  0  0  0  0
   38.7510   32.7570   47.7420 C   0  0  0  0  0  0  0  0  0  0  0  0
   38.9860   32.4640   46.4670 N   0  0  0  0  0  0  0  0  0  0  0  0
   38.2590   31.5240   45.8070 C   0  0  0  0  0  0  0  0  0  0  0  0
   37.2900   30.9080   46.5170 N   0  0  0  0  0  0  0  0  0  0  0  0
   37.0160   31.1660   47.7910 C   0  0  0  0  0  0  0  0  0  0  0  0
   35.7930   31.2370   50.8130 H   0  0  0  0  0  0  0  0  0  0  0  0
   38.4670   31.3000   44.7660 H   0  0  0  0  0  0  0  0  0  0  0  0
   39.5390   33.7480   48.3760 N   0  0  0  0  0  0  0  0  0  0  0  0
   39.3340   34.7870   48.3860 H   0  0  0  0  0  0  0  0  0  0  0  0
   40.4360   33.6850   48.9380 H   0  0  0  0  0  0  0  0  0  0  0  0
   32.0250   26.9610   47.5590 C   0  0  0  0  0  0  0  0  0  0  0  0
   31.0100   26.9400   48.6890 C   0  0  0  0  0  0  0  0  0  0  0  0
   30.0780   26.4850   48.2880 H   0  0  0  0  0  0  0  0  0  0  0  0
   31.4040   26.3490   49.5340 H   0  0  0  0  0  0  0  0  0  0  0  0
   30.8220   27.9870   49.0110 H   0  0  0  0  0  0  0  0  0  0  0  0
   31.2400   27.4570   46.3400 C   0  0  0  0  0  0  0  0  0  0  0  0
   31.8740   27.7840   45.5180 H   0  0  0  0  0  0  0  0  0  0  0  0
   30.7230   28.3870   46.7060 H   0  0  0  0  0  0  0  0  0  0  0  0
   30.4600   26.7190   46.0920 H   0  0  0  0  0  0  0  0  0  0  0  0
   32.5100   25.5820   47.2350 C   0  0  0  0  0  0  0  0  0  0  0  0
   31.6030   24.9540   47.0920 H   0  0  0  0  0  0  0  0  0  0  0  0
   33.1820   25.1780   48.0260 H   0  0  0  0  0  0  0  0  0  0  0  0
   33.3130   25.6290   46.0300 N   0  0  0  0  0  0  0  0  0  0  0  0
   33.1400   26.4020   44.9410 C   0  0  0  0  0  3  0  0  0  0  0  0
   34.0750   26.1860   44.0010 N   0  0  0  0  0  0  0  0  0  0  0  0
   34.9020   25.2410   44.4690 C   0  0  0  0  0  0  0  0  0  0  0  0
   36.0340   24.6080   43.9710 C   0  0  0  0  0  0  0  0  0  0  0  0
   36.4130   24.8650   42.9980 H   0  0  0  0  0  0  0  0  0  0  0  0
   36.6840   23.6680   44.6760 N   0  0  0  0  0  0  0  0  0  0  0  0
   36.1970   23.3590   45.8920 C   0  0  0  0  0  3  0  0  0  0  0  0
   35.0970   23.9670   46.3880 N   0  0  0  0  0  0  0  0  0  0  0  0
   34.4160   24.9120   45.7170 C   0  0  0  0  0  0  0  0  0  0  0  0
  1  2  1  0  0  0  0
  2  9  1  0  0  0  0
  2  3  2  0  0  0  0
  3  8  1  0  0  0  0
  4  3  1  0  0  0  0
  5  4  2  0  0  0  0
  6  1  2  0  0  0  0
  6  5  1  0  0  0  0
  7  1  1  0  0  0  0
  9 10  1  0  0  0  0
 10 18  1  0  0  0  0
 11 10  2  0  0  0  0
 12 11  1  0  0  0  0
 13 20  1  0  0  0  0
 13 12  2  0  0  0  0
 14 13  1  0  0  0  0
 15 14  2  0  0  0  0
 15 16  1  0  0  0  0
 16 17  2  0  0  0  0
 17 12  1  0  0  0  0
 17  9  1  0  0  0  0
 19 15  1  0  0  0  0
 20 21  1  0  0  0  0
 20 22  1  0  0  0  0
 23  5  1  0  0  0  0
 23 24  1  0  0  0  0
 24 27  1  0  0  0  0
 24 26  1  0  0  0  0
 25 24  1  0  0  0  0
 28 30  1  0  0  0  0
 28 23  1  0  0  0  0
 29 28  1  0  0  0  0
 31 28  1  0  0  0  0
 32 23  1  0  0  0  0
 32 34  1  0  0  0  0
 33 32  1  0  0  0  0
 35 32  1  0  0  0  0
 36 35  1  0  0  0  0
 37 38  1  0  0  0  0
 37 36  2  0  0  0  0
 38 44  1  0  0  0  0
 39 38  2  0  0  0  0
 39 41  1  0  0  0  0
 40 39  1  0  0  0  0
 41 42  2  0  0  0  0
 42 43  1  0  0  0  0
 44 35  1  0  0  0  0
 44 43  2  0  0  0  0
M  END
>  <minimizedAffinity>
-5.61943913

>  <minimizedRMSD>
1.09875584

$$$$
