
 OpenBabel03252514003D

 28 30  0  0  1  0  0  0  0  0999 V2000
   35.4740   29.4250   49.0140 C   0  0  2  0  0  0  0  0  0  0  0  0
   34.3590   29.5710   49.9600 C   0  0  0  0  0  0  0  0  0  0  0  0
   34.6490   28.2180   49.4920 C   0  0  1  0  0  0  0  0  0  0  0  0
   35.3600   29.7880   47.9900 H   0  0  0  0  0  0  0  0  0  0  0  0
   34.5540   29.7600   51.0550 H   0  0  0  0  0  0  0  0  0  0  0  0
   33.4320   30.0940   49.6470 H   0  0  0  0  0  0  0  0  0  0  0  0
   35.2760   27.4240   49.8910 H   0  0  0  0  0  0  0  0  0  0  0  0
   36.8910   29.3940   49.5780 C   0  0  0  0  0  0  0  0  0  0  0  0
   37.3880   28.4290   49.3740 H   0  0  0  0  0  0  0  0  0  0  0  0
   36.7910   29.4660   50.6790 H   0  0  0  0  0  0  0  0  0  0  0  0
   38.4080   32.7240   49.3690 C   0  0  0  0  0  0  0  0  0  0  0  0
   38.9240   32.7520   48.0650 C   0  0  0  0  0  0  0  0  0  0  0  0
   38.7440   31.6110   47.2640 C   0  0  0  0  0  0  0  0  0  0  0  0
   38.0690   30.5340   47.8090 N   0  0  0  0  0  0  0  0  0  0  0  0
   37.5960   30.5730   49.0740 C   0  0  0  0  0  0  0  0  0  0  0  0
   37.7720   31.6730   49.8450 N   0  0  0  0  0  0  0  0  0  0  0  0
   38.6030   33.6500   49.8930 H   0  0  0  0  0  0  0  0  0  0  0  0
   39.4580   33.5430   47.5640 H   0  0  0  0  0  0  0  0  0  0  0  0
   39.0730   31.4640   46.2480 H   0  0  0  0  0  0  0  0  0  0  0  0
   33.6330   27.6680   48.5270 C   0  0  0  0  0  0  0  0  0  0  0  0
   34.0730   26.7280   47.7540 O   0  0  0  0  0  0  0  0  0  0  0  0
   32.3080   28.0500   48.3920 O   0  0  0  0  0  0  0  0  0  0  0  0
   31.8190   28.3600   47.1310 C   0  0  0  0  0  0  0  0  0  0  0  0
   32.4010   29.4020   46.4880 N   0  0  0  0  0  0  0  0  0  0  0  0
   31.8510   29.5870   45.3190 O   0  0  0  0  0  0  0  0  0  0  0  0
   30.9170   28.6790   45.1930 C   0  0  0  0  0  0  0  0  0  0  0  0
   30.3410   28.6660   44.2840 H   0  0  0  0  0  0  0  0  0  0  0  0
   30.8820   27.9120   46.3030 N   0  0  0  0  0  0  0  0  0  0  0  0
  1  4  1  6  0  0  0
  1  3  1  0  0  0  0
  1  8  1  0  0  0  0
  1  2  1  0  0  0  0
  2  5  1  0  0  0  0
  3  7  1  1  0  0  0
  3  2  1  0  0  0  0
  6  2  1  0  0  0  0
  8 10  1  0  0  0  0
  9  8  1  0  0  0  0
 11 16  1  0  0  0  0
 11 17  1  0  0  0  0
 12 11  2  0  0  0  0
 13 14  2  0  0  0  0
 13 12  1  0  0  0  0
 14 15  1  0  0  0  0
 15  8  1  0  0  0  0
 15 16  2  0  0  0  0
 18 12  1  0  0  0  0
 19 13  1  0  0  0  0
 20  3  1  0  0  0  0
 21 20  2  0  0  0  0
 22 20  1  0  0  0  0
 23 22  1  0  0  0  0
 24 23  2  0  0  0  0
 25 24  1  0  0  0  0
 26 25  1  0  0  0  0
 26 28  2  0  0  0  0
 27 26  1  0  0  0  0
 28 23  1  0  0  0  0
M  END
>  <minimizedAffinity>
-4.68300676

>  <minimizedRMSD>
1.05404675

$$$$
