
 OpenBabel03252513533D

 38 40  0  0  1  0  0  0  0  0999 V2000
   37.1230   30.6050   46.1180 C   0  0  0  0  0  0  0  0  0  0  0  0
   38.0160   30.4370   46.9770 O   0  0  0  0  0  0  0  0  0  0  0  0
   37.5240   31.3480   44.9660 N   0  0  0  0  0  0  0  0  0  0  0  0
   37.1020   30.7990   43.6780 C   0  0  0  0  0  0  0  0  0  0  0  0
   37.9060   31.3910   42.5500 C   0  0  0  0  0  0  0  0  0  0  0  0
   39.1770   31.6240   43.0230 O   0  0  0  0  0  0  0  0  0  0  0  0
   39.1010   32.8040   43.8070 C   0  0  0  0  0  0  0  0  0  0  0  0
   38.3080   32.5810   45.0530 C   0  0  2  0  0  0  0  0  0  0  0  0
   37.2290   29.7160   43.7100 H   0  0  0  0  0  0  0  0  0  0  0  0
   36.0390   31.0030   43.4870 H   0  0  0  0  0  0  0  0  0  0  0  0
   37.4380   32.2760   42.0860 H   0  0  0  0  0  0  0  0  0  0  0  0
   37.9660   30.6050   41.7430 H   0  0  0  0  0  0  0  0  0  0  0  0
   40.1590   33.1050   43.9770 H   0  0  0  0  0  0  0  0  0  0  0  0
   38.6760   33.6320   43.1770 H   0  0  0  0  0  0  0  0  0  0  0  0
   37.6620   33.4540   45.2400 H   0  0  0  0  0  0  0  0  0  0  0  0
   34.0610   29.2160   47.8150 C   0  0  0  0  0  0  0  0  0  0  0  0
   35.3820   29.7610   47.6450 C   0  0  0  0  0  0  0  0  0  0  0  0
   35.7990   30.0530   46.3470 C   0  0  0  0  0  0  0  0  0  0  0  0
   34.9150   29.7970   45.3350 N   0  0  0  0  0  0  0  0  0  0  0  0
   33.7050   29.2920   45.5490 C   0  0  0  0  0  0  0  0  0  0  0  0
   33.2870   29.0080   46.7640 N   0  0  0  0  0  0  0  0  0  0  0  0
   36.0370   29.9430   48.4740 H   0  0  0  0  0  0  0  0  0  0  0  0
   32.8900   29.0850   44.3170 C   0  0  0  0  0  0  0  0  0  0  0  0
   32.7120   30.2800   43.6400 F   0  0  0  0  0  0  0  0  0  0  0  0
   33.5760   28.2650   43.4320 F   0  0  0  0  0  0  0  0  0  0  0  0
   31.6800   28.4590   44.5730 F   0  0  0  0  0  0  0  0  0  0  0  0
   33.6540   28.9280   49.1150 O   0  0  0  0  0  0  0  0  0  0  0  0
   34.0530   29.6430   50.2410 C   0  0  0  0  0  0  0  0  0  0  0  0
   35.0680   29.0120   50.9570 F   0  0  0  0  0  0  0  0  0  0  0  0
   34.3840   30.9470   50.0010 F   0  0  0  0  0  0  0  0  0  0  0  0
   32.9190   29.6740   51.0750 F   0  0  0  0  0  0  0  0  0  0  0  0
   39.2530   32.3170   46.0590 O   0  0  0  0  0  0  0  0  0  0  0  0
   39.5330   33.1750   47.1100 C   0  0  0  0  0  0  0  0  0  0  0  0
   40.3220   34.2310   47.3890 N   0  0  0  0  0  0  0  0  0  0  0  0
   40.1160   34.6130   48.6160 O   0  0  0  0  0  0  0  0  0  0  0  0
   39.2220   33.8560   49.1690 C   0  0  0  0  0  0  0  0  0  0  0  0
   38.8350   33.9220   50.1840 H   0  0  0  0  0  0  0  0  0  0  0  0
   38.8420   32.9510   48.2500 N   0  0  0  0  0  0  0  0  0  0  0  0
  1 18  1  0  0  0  0
  1  2  2  0  0  0  0
  3  8  1  0  0  0  0
  3  1  1  0  0  0  0
  4  9  1  0  0  0  0
  4  3  1  0  0  0  0
  5  6  1  0  0  0  0
  5  4  1  0  0  0  0
  6  7  1  0  0  0  0
  7 13  1  0  0  0  0
  7  8  1  0  0  0  0
  8 15  1  1  0  0  0
  8 32  1  0  0  0  0
 10  4  1  0  0  0  0
 11  5  1  0  0  0  0
 12  5  1  0  0  0  0
 14  7  1  0  0  0  0
 16 27  1  0  0  0  0
 17 16  1  0  0  0  0
 17 22  1  0  0  0  0
 18 17  2  0  0  0  0
 19 20  2  0  0  0  0
 19 18  1  0  0  0  0
 20 21  1  0  0  0  0
 21 16  2  0  0  0  0
 23 26  1  0  0  0  0
 23 20  1  0  0  0  0
 24 23  1  0  0  0  0
 25 23  1  0  0  0  0
 27 28  1  0  0  0  0
 28 29  1  0  0  0  0
 28 31  1  0  0  0  0
 30 28  1  0  0  0  0
 32 33  1  0  0  0  0
 33 34  2  0  0  0  0
 33 38  1  0  0  0  0
 34 35  1  0  0  0  0
 35 36  1  0  0  0  0
 36 37  1  0  0  0  0
 38 36  2  0  0  0  0
M  END
>  <minimizedAffinity>
-5.29839468

>  <minimizedRMSD>
1.68145216

$$$$
