
 OpenBabel03252514083D

 44 48  0  0  0  0  0  0  0  0999 V2000
   34.4520   30.2160   47.5770 C   0  0  0  0  0  0  0  0  0  0  0  0
   35.4980   29.9700   48.5000 C   0  0  0  0  0  0  0  0  0  0  0  0
   35.5330   28.7120   49.0690 C   0  0  0  0  0  0  0  0  0  0  0  0
   34.5900   27.8000   48.7240 N   0  0  0  0  0  0  0  0  0  0  0  0
   33.6070   28.0490   47.8500 C   0  0  0  0  0  0  0  0  0  0  0  0
   33.5540   29.2540   47.2890 N   0  0  0  0  0  0  0  0  0  0  0  0
   34.4090   31.2030   47.1200 H   0  0  0  0  0  0  0  0  0  0  0  0
   36.3240   28.5230   49.7680 H   0  0  0  0  0  0  0  0  0  0  0  0
   36.4070   31.0300   48.7550 N   0  0  0  0  0  0  0  0  0  0  0  0
   36.3850   31.7810   49.8930 C   0  0  0  0  0  0  0  0  0  0  0  0
   37.3700   32.7020   49.8270 N   0  0  0  0  0  0  0  0  0  0  0  0
   37.9860   32.5040   48.6450 C   0  0  0  0  0  0  0  0  0  0  0  0
   39.0570   33.1220   48.0080 C   0  0  0  0  0  0  0  0  0  0  0  0
   39.4840   32.7280   46.8130 N   0  0  0  0  0  0  0  0  0  0  0  0
   38.8940   31.6980   46.1510 C   0  0  0  0  0  0  0  0  0  0  0  0
   37.8540   31.1010   46.7730 N   0  0  0  0  0  0  0  0  0  0  0  0
   37.3910   31.4580   47.9660 C   0  0  0  0  0  0  0  0  0  0  0  0
   35.7420   31.7410   50.7640 H   0  0  0  0  0  0  0  0  0  0  0  0
   39.2570   31.3910   45.1750 H   0  0  0  0  0  0  0  0  0  0  0  0
   39.7090   34.2020   48.6490 N   0  0  0  0  0  0  0  0  0  0  0  0
   39.4680   35.2270   48.5310 H   0  0  0  0  0  0  0  0  0  0  0  0
   40.5170   34.2340   49.3350 H   0  0  0  0  0  0  0  0  0  0  0  0
   32.5900   27.0400   47.4890 C   0  0  0  0  0  0  0  0  0  0  0  0
   33.1010   25.6480   47.8230 C   0  0  0  0  0  0  0  0  0  0  0  0
   32.2220   24.9680   47.8390 H   0  0  0  0  0  0  0  0  0  0  0  0
   33.8340   25.3260   47.0620 H   0  0  0  0  0  0  0  0  0  0  0  0
   33.5820   25.6840   48.8240 H   0  0  0  0  0  0  0  0  0  0  0  0
   31.3400   27.2150   48.3560 C   0  0  0  0  0  0  0  0  0  0  0  0
   31.0080   28.2480   48.4380 H   0  0  0  0  0  0  0  0  0  0  0  0
   31.6800   26.9280   49.3900 H   0  0  0  0  0  0  0  0  0  0  0  0
   30.5800   26.4800   48.0420 H   0  0  0  0  0  0  0  0  0  0  0  0
   32.1480   27.1300   46.0610 C   0  0  0  0  0  0  0  0  0  0  0  0
   32.0840   28.2130   45.8180 H   0  0  0  0  0  0  0  0  0  0  0  0
   31.1830   26.6010   45.8860 H   0  0  0  0  0  0  0  0  0  0  0  0
   33.1160   26.4580   45.2180 N   0  0  0  0  0  0  0  0  0  0  0  0
   33.2230   25.1420   44.9510 C   0  0  0  0  0  3  0  0  0  0  0  0
   34.2430   24.8630   44.1220 N   0  0  0  0  0  0  0  0  0  0  0  0
   34.8410   26.0240   43.8210 C   0  0  0  0  0  0  0  0  0  0  0  0
   35.9270   26.3810   43.0300 C   0  0  0  0  0  0  0  0  0  0  0  0
   36.4780   25.6250   42.4980 H   0  0  0  0  0  0  0  0  0  0  0  0
   36.3190   27.6580   42.9050 N   0  0  0  0  0  0  0  0  0  0  0  0
   35.6190   28.5900   43.5780 C   0  0  0  0  0  3  0  0  0  0  0  0
   34.5600   28.2570   44.3510 N   0  0  0  0  0  0  0  0  0  0  0  0
   34.1340   26.9910   44.5040 C   0  0  0  0  0  0  0  0  0  0  0  0
  1  2  1  0  0  0  0
  2  9  1  0  0  0  0
  2  3  2  0  0  0  0
  3  8  1  0  0  0  0
  4  3  1  0  0  0  0
  5  4  2  0  0  0  0
  6  1  2  0  0  0  0
  6  5  1  0  0  0  0
  7  1  1  0  0  0  0
  9 10  1  0  0  0  0
 10 18  1  0  0  0  0
 11 10  2  0  0  0  0
 12 11  1  0  0  0  0
 13 12  1  0  0  0  0
 13 20  1  0  0  0  0
 14 13  2  0  0  0  0
 15 16  2  0  0  0  0
 15 14  1  0  0  0  0
 16 17  1  0  0  0  0
 17 12  2  0  0  0  0
 17  9  1  0  0  0  0
 19 15  1  0  0  0  0
 20 22  1  0  0  0  0
 21 20  1  0  0  0  0
 23 24  1  0  0  0  0
 23  5  1  0  0  0  0
 23 28  1  0  0  0  0
 24 25  1  0  0  0  0
 24 27  1  0  0  0  0
 26 24  1  0  0  0  0
 28 29  1  0  0  0  0
 28 30  1  0  0  0  0
 31 28  1  0  0  0  0
 32 23  1  0  0  0  0
 33 32  1  0  0  0  0
 34 32  1  0  0  0  0
 35 32  1  0  0  0  0
 36 35  1  0  0  0  0
 37 36  2  0  0  0  0
 38 37  1  0  0  0  0
 38 44  1  0  0  0  0
 39 38  2  0  0  0  0
 40 39  1  0  0  0  0
 41 39  1  0  0  0  0
 41 42  2  0  0  0  0
 42 43  1  0  0  0  0
 43 44  2  0  0  0  0
 44 35  1  0  0  0  0
M  END
>  <minimizedAffinity>
-5.42365217

>  <minimizedRMSD>
1.47145295

$$$$
