
 OpenBabel03252514083D

 44 48  0  0  0  0  0  0  0  0999 V2000
   34.2300   30.0680   47.5990 C   0  0  0  0  0  0  0  0  0  0  0  0
   35.2580   29.8120   48.5400 C   0  0  0  0  0  0  0  0  0  0  0  0
   35.2000   28.6010   49.2010 C   0  0  0  0  0  0  0  0  0  0  0  0
   34.1890   27.7410   48.9230 N   0  0  0  0  0  0  0  0  0  0  0  0
   33.2250   27.9970   48.0320 C   0  0  0  0  0  0  0  0  0  0  0  0
   33.2600   29.1580   47.3830 N   0  0  0  0  0  0  0  0  0  0  0  0
   34.2600   31.0180   47.0700 H   0  0  0  0  0  0  0  0  0  0  0  0
   35.9770   28.4050   49.9130 H   0  0  0  0  0  0  0  0  0  0  0  0
   36.2470   30.8160   48.7160 N   0  0  0  0  0  0  0  0  0  0  0  0
   36.4280   31.4950   49.8850 C   0  0  0  0  0  0  0  0  0  0  0  0
   37.4370   32.3760   49.7250 N   0  0  0  0  0  0  0  0  0  0  0  0
   37.8640   32.2280   48.4560 C   0  0  0  0  0  0  0  0  0  0  0  0
   38.8600   32.8400   47.7030 C   0  0  0  0  0  0  0  0  0  0  0  0
   39.0880   32.5050   46.4370 N   0  0  0  0  0  0  0  0  0  0  0  0
   38.3580   31.5430   45.8130 C   0  0  0  0  0  0  0  0  0  0  0  0
   37.3920   30.9520   46.5480 N   0  0  0  0  0  0  0  0  0  0  0  0
   37.1250   31.2520   47.8140 C   0  0  0  0  0  0  0  0  0  0  0  0
   35.9160   31.4260   50.8380 H   0  0  0  0  0  0  0  0  0  0  0  0
   38.5600   31.2840   44.7790 H   0  0  0  0  0  0  0  0  0  0  0  0
   39.6510   33.8510   48.2990 N   0  0  0  0  0  0  0  0  0  0  0  0
   39.4470   34.8900   48.2760 H   0  0  0  0  0  0  0  0  0  0  0  0
   40.5510   33.8070   48.8590 H   0  0  0  0  0  0  0  0  0  0  0  0
   32.1320   27.0440   47.7450 C   0  0  0  0  0  0  0  0  0  0  0  0
   30.9730   27.2860   48.6970 C   0  0  0  0  0  0  0  0  0  0  0  0
   30.0790   26.7890   48.2610 H   0  0  0  0  0  0  0  0  0  0  0  0
   31.2110   26.8680   49.6910 H   0  0  0  0  0  0  0  0  0  0  0  0
   30.8070   28.3820   48.7750 H   0  0  0  0  0  0  0  0  0  0  0  0
   31.5540   27.3050   46.3510 C   0  0  0  0  0  0  0  0  0  0  0  0
   32.3130   27.4370   45.5830 H   0  0  0  0  0  0  0  0  0  0  0  0
   31.0490   28.3070   46.4470 H   0  0  0  0  0  0  0  0  0  0  0  0
   30.7710   26.5580   46.1430 H   0  0  0  0  0  0  0  0  0  0  0  0
   32.5720   25.6130   47.7750 C   0  0  0  0  0  0  0  0  0  0  0  0
   31.6930   25.0190   48.1100 H   0  0  0  0  0  0  0  0  0  0  0  0
   33.4580   25.4600   48.4320 H   0  0  0  0  0  0  0  0  0  0  0  0
   32.9990   25.2170   46.4490 N   0  0  0  0  0  0  0  0  0  0  0  0
   34.1150   25.5770   45.7880 C   0  0  0  0  0  3  0  0  0  0  0  0
   34.1970   25.0210   44.5680 N   0  0  0  0  0  0  0  0  0  0  0  0
   33.1030   24.2650   44.4010 C   0  0  0  0  0  0  0  0  0  0  0  0
   32.6270   23.4600   43.3720 C   0  0  0  0  0  0  0  0  0  0  0  0
   33.1920   23.3570   42.4630 H   0  0  0  0  0  0  0  0  0  0  0  0
   31.4650   22.7960   43.4770 N   0  0  0  0  0  0  0  0  0  0  0  0
   30.7730   22.9370   44.6210 C   0  0  0  0  0  3  0  0  0  0  0  0
   31.2250   23.7170   45.6290 N   0  0  0  0  0  0  0  0  0  0  0  0
   32.3810   24.3990   45.5670 C   0  0  0  0  0  0  0  0  0  0  0  0
  1  2  1  0  0  0  0
  2  9  1  0  0  0  0
  2  3  2  0  0  0  0
  3  8  1  0  0  0  0
  4  3  1  0  0  0  0
  5  4  2  0  0  0  0
  6  1  2  0  0  0  0
  6  5  1  0  0  0  0
  7  1  1  0  0  0  0
  9 10  1  0  0  0  0
 10 18  1  0  0  0  0
 11 10  2  0  0  0  0
 12 11  1  0  0  0  0
 13 20  1  0  0  0  0
 13 12  2  0  0  0  0
 14 13  1  0  0  0  0
 15 14  2  0  0  0  0
 15 16  1  0  0  0  0
 16 17  2  0  0  0  0
 17 12  1  0  0  0  0
 17  9  1  0  0  0  0
 19 15  1  0  0  0  0
 20 22  1  0  0  0  0
 21 20  1  0  0  0  0
 23 32  1  0  0  0  0
 23  5  1  0  0  0  0
 23 24  1  0  0  0  0
 24 27  1  0  0  0  0
 24 26  1  0  0  0  0
 25 24  1  0  0  0  0
 28 30  1  0  0  0  0
 28 23  1  0  0  0  0
 29 28  1  0  0  0  0
 31 28  1  0  0  0  0
 32 33  1  0  0  0  0
 32 34  1  0  0  0  0
 35 32  1  0  0  0  0
 36 35  1  0  0  0  0
 37 36  2  0  0  0  0
 38 37  1  0  0  0  0
 38 44  1  0  0  0  0
 39 41  1  0  0  0  0
 39 38  2  0  0  0  0
 40 39  1  0  0  0  0
 41 42  2  0  0  0  0
 42 43  1  0  0  0  0
 44 43  2  0  0  0  0
 44 35  1  0  0  0  0
M  END
>  <minimizedAffinity>
-5.32216024

>  <minimizedRMSD>
1.78569174

$$$$
