
 OpenBabel03252512113D

 33 36  0  0  0  0  0  0  0  0999 V2000
   32.4340   30.1040   46.0960 C   0  0  0  0  0  0  0  0  0  0  0  0
   32.1570   28.7390   46.0520 C   0  0  0  0  0  0  0  0  0  0  0  0
   33.0900   27.8410   46.6000 C   0  0  0  0  0  0  0  0  0  0  0  0
   34.2340   28.3610   47.1520 N   0  0  0  0  0  0  0  0  0  0  0  0
   34.4710   29.6810   47.1780 C   0  0  0  0  0  0  0  0  0  0  0  0
   33.5810   30.5470   46.6550 N   0  0  0  0  0  0  0  0  0  0  0  0
   31.7930   30.8870   45.7080 H   0  0  0  0  0  0  0  0  0  0  0  0
   31.2480   28.4280   45.6060 H   0  0  0  0  0  0  0  0  0  0  0  0
   35.7090   30.1210   47.7850 C   0  0  0  0  0  0  0  0  0  0  0  0
   36.7380   30.7460   47.1050 C   0  0  0  0  0  0  0  0  0  0  0  0
   37.7490   31.0310   47.9410 N   0  0  0  0  0  0  0  0  0  0  0  0
   37.4080   30.6060   49.1650 C   0  0  0  0  0  0  0  0  0  0  0  0
   38.0680   30.6430   50.3930 C   0  0  0  0  0  0  0  0  0  0  0  0
   37.4420   30.1080   51.5150 C   0  0  0  0  0  0  0  0  0  0  0  0
   36.1950   29.5570   51.3960 C   0  0  0  0  0  0  0  0  0  0  0  0
   35.4960   29.4980   50.1850 C   0  0  0  0  0  0  0  0  0  0  0  0
   36.1380   30.0330   49.0980 C   0  0  0  0  0  0  0  0  0  0  0  0
   36.7700   30.9920   46.0470 H   0  0  0  0  0  0  0  0  0  0  0  0
   38.6550   31.5090   47.6720 H   0  0  0  0  0  0  0  0  0  0  0  0
   39.0550   31.0780   50.4910 H   0  0  0  0  0  0  0  0  0  0  0  0
   37.9210   30.1180   52.4850 H   0  0  0  0  0  0  0  0  0  0  0  0
   35.7030   29.1400   52.2650 H   0  0  0  0  0  0  0  0  0  0  0  0
   34.5120   29.0590   50.1090 H   0  0  0  0  0  0  0  0  0  0  0  0
   32.8220   26.4440   46.5640 N   0  0  0  0  0  0  0  0  0  0  0  0
   33.2950   25.7040   45.5180 C   0  0  0  0  0  0  0  0  0  0  0  0
   33.0530   24.3350   45.4470 C   0  0  0  0  0  0  0  0  0  0  0  0
   32.3220   23.7230   46.4540 C   0  0  0  0  0  0  0  0  0  0  0  0
   31.9890   22.3370   46.5270 N   0  0  0  0  0  0  0  0  0  0  0  0
   31.8780   24.4810   47.4560 N   0  0  0  0  0  0  0  0  0  0  0  0
   32.1070   25.8050   47.5330 C   0  0  0  0  0  0  0  0  0  0  0  0
   31.7130   26.5710   48.4550 O   0  0  0  0  0  0  0  0  0  0  0  0
   30.9700   22.0900   46.5000 H   0  0  0  0  0  0  0  0  0  0  0  0
   32.8600   21.7650   46.6010 H   0  0  0  0  0  0  0  0  0  0  0  0
  1  6  1  0  0  0  0
  2  1  2  0  0  0  0
  2  3  1  0  0  0  0
  3  4  2  0  0  0  0
  4  5  1  0  0  0  0
  5  9  1  0  0  0  0
  6  5  2  0  0  0  0
  7  1  1  0  0  0  0
  8  2  1  0  0  0  0
  9 17  1  0  0  0  0
 10  9  2  0  0  0  0
 10 11  1  0  0  0  0
 11 12  1  0  0  0  0
 12 13  1  0  0  0  0
 13 20  1  0  0  0  0
 13 14  2  0  0  0  0
 14 21  1  0  0  0  0
 15 14  1  0  0  0  0
 15 22  1  0  0  0  0
 16 15  2  0  0  0  0
 17 12  2  0  0  0  0
 17 16  1  0  0  0  0
 18 10  1  0  0  0  0
 19 11  1  0  0  0  0
 23 16  1  0  0  0  0
 24  3  1  0  0  0  0
 24 30  1  0  0  0  0
 25 24  1  0  0  0  0
 26 25  2  0  0  0  0
 26 27  1  0  0  0  0
 27 28  1  0  0  0  0
 27 29  2  0  0  0  0
 28 33  1  0  0  0  0
 29 30  1  0  0  0  0
 30 31  2  0  0  0  0
 32 28  1  0  0  0  0
M  END
>  <minimizedAffinity>
-5.86215496

>  <minimizedRMSD>
0.481457531

$$$$
