
 OpenBabel03252511293D

 22 23  0  0  0  0  0  0  0  0999 V2000
   36.9180   31.2280   49.0580 C   0  0  0  0  0  0  0  0  0  0  0  0
   37.2310   32.3250   49.8830 C   0  0  0  0  0  0  0  0  0  0  0  0
   38.2300   33.2090   49.4450 C   0  0  0  0  0  0  0  0  0  0  0  0
   38.8370   32.9530   48.2520 N   0  0  0  0  0  0  0  0  0  0  0  0
   38.5040   31.8870   47.4920 C   0  0  0  0  0  0  0  0  0  0  0  0
   37.5580   31.0350   47.8900 N   0  0  0  0  0  0  0  0  0  0  0  0
   36.7300   32.5080   50.8340 H   0  0  0  0  0  0  0  0  0  0  0  0
   38.5090   34.0730   50.0460 H   0  0  0  0  0  0  0  0  0  0  0  0
   39.1270   31.6040   46.2430 N   0  0  0  0  0  0  0  0  0  0  0  0
   38.8010   30.4100   45.7130 C   0  0  0  0  0  0  0  0  0  0  0  0
   39.3210   29.9710   44.4910 C   0  0  0  0  0  0  0  0  0  0  0  0
   40.1880   30.8150   43.8470 C   0  0  0  0  0  0  0  0  0  0  0  0
   40.7480   30.4330   42.6110 N   0  0  0  0  0  0  0  0  0  0  0  0
   40.4830   31.9820   44.4020 N   0  0  0  0  0  0  0  0  0  0  0  0
   39.9930   32.4170   45.5720 C   0  0  0  0  0  0  0  0  0  0  0  0
   40.2470   33.5100   46.1290 O   0  0  0  0  0  0  0  0  0  0  0  0
   40.3950   29.5960   42.0940 H   0  0  0  0  0  0  0  0  0  0  0  0
   41.5310   30.9680   42.1670 H   0  0  0  0  0  0  0  0  0  0  0  0
   35.8510   30.2710   49.5100 C   0  0  0  0  0  0  0  0  0  0  0  0
   34.6250   30.8810   49.4370 F   0  0  0  0  0  0  0  0  0  0  0  0
   35.9680   29.1360   48.7730 F   0  0  0  0  0  0  0  0  0  0  0  0
   36.1020   30.0020   50.8530 F   0  0  0  0  0  0  0  0  0  0  0  0
  1 19  1  0  0  0  0
  1  2  1  0  0  0  0
  2  7  1  0  0  0  0
  3  2  2  0  0  0  0
  3  8  1  0  0  0  0
  4  3  1  0  0  0  0
  5  6  1  0  0  0  0
  5  4  2  0  0  0  0
  6  1  2  0  0  0  0
  9  5  1  0  0  0  0
 10  9  1  0  0  0  0
 11 10  2  0  0  0  0
 12 14  2  0  0  0  0
 12 11  1  0  0  0  0
 13 12  1  0  0  0  0
 14 15  1  0  0  0  0
 15 16  2  0  0  0  0
 15  9  1  0  0  0  0
 17 13  1  0  0  0  0
 18 13  1  0  0  0  0
 19 22  1  0  0  0  0
 20 19  1  0  0  0  0
 21 19  1  0  0  0  0
M  END
>  <minimizedAffinity>
-6.42155361

>  <minimizedRMSD>
3.62764549

$$$$
