
 OpenBabel03252514013D

 28 30  0  0  1  0  0  0  0  0999 V2000
   35.2540   29.3100   48.9760 C   0  0  2  0  0  0  0  0  0  0  0  0
   34.1210   29.2470   49.9100 C   0  0  0  0  0  0  0  0  0  0  0  0
   34.5190   27.9930   49.2770 C   0  0  1  0  0  0  0  0  0  0  0  0
   35.1240   29.7950   48.0070 H   0  0  0  0  0  0  0  0  0  0  0  0
   34.2900   29.3050   51.0250 H   0  0  0  0  0  0  0  0  0  0  0  0
   33.1610   29.7360   49.6500 H   0  0  0  0  0  0  0  0  0  0  0  0
   35.2010   27.2020   49.5810 H   0  0  0  0  0  0  0  0  0  0  0  0
   36.6640   29.3100   49.5600 C   0  0  0  0  0  0  0  0  0  0  0  0
   37.2140   28.3910   49.2930 H   0  0  0  0  0  0  0  0  0  0  0  0
   36.5460   29.2920   50.6620 H   0  0  0  0  0  0  0  0  0  0  0  0
   37.7480   32.8100   49.4980 C   0  0  0  0  0  0  0  0  0  0  0  0
   38.5490   32.8700   48.3490 C   0  0  0  0  0  0  0  0  0  0  0  0
   38.7090   31.6920   47.5990 C   0  0  0  0  0  0  0  0  0  0  0  0
   38.0690   30.5490   48.0410 N   0  0  0  0  0  0  0  0  0  0  0  0
   37.3110   30.5600   49.1590 C   0  0  0  0  0  0  0  0  0  0  0  0
   37.1580   31.6970   49.8800 N   0  0  0  0  0  0  0  0  0  0  0  0
   37.6950   33.7700   49.9950 H   0  0  0  0  0  0  0  0  0  0  0  0
   39.0800   33.7120   47.9350 H   0  0  0  0  0  0  0  0  0  0  0  0
   39.2850   31.5620   46.6970 H   0  0  0  0  0  0  0  0  0  0  0  0
   33.5580   27.5000   48.2270 C   0  0  0  0  0  0  0  0  0  0  0  0
   34.0640   26.6690   47.3760 O   0  0  0  0  0  0  0  0  0  0  0  0
   32.2200   27.8320   48.0900 O   0  0  0  0  0  0  0  0  0  0  0  0
   31.8430   28.7320   47.1040 C   0  0  0  0  0  0  0  0  0  0  0  0
   30.5190   28.8180   46.8280 N   0  0  0  0  0  0  0  0  0  0  0  0
   30.3010   29.6950   45.8860 O   0  0  0  0  0  0  0  0  0  0  0  0
   31.4670   30.1820   45.5480 C   0  0  0  0  0  0  0  0  0  0  0  0
   31.4980   30.9320   44.7750 H   0  0  0  0  0  0  0  0  0  0  0  0
   32.4320   29.6010   46.2890 N   0  0  0  0  0  0  0  0  0  0  0  0
  1  4  1  6  0  0  0
  1  3  1  0  0  0  0
  1  8  1  0  0  0  0
  1  2  1  0  0  0  0
  2  5  1  0  0  0  0
  3  7  1  1  0  0  0
  3  2  1  0  0  0  0
  6  2  1  0  0  0  0
  8 10  1  0  0  0  0
  9  8  1  0  0  0  0
 11 16  1  0  0  0  0
 11 17  1  0  0  0  0
 12 11  2  0  0  0  0
 13 14  2  0  0  0  0
 13 12  1  0  0  0  0
 14 15  1  0  0  0  0
 15  8  1  0  0  0  0
 15 16  2  0  0  0  0
 18 12  1  0  0  0  0
 19 13  1  0  0  0  0
 20  3  1  0  0  0  0
 21 20  2  0  0  0  0
 22 20  1  0  0  0  0
 23 22  1  0  0  0  0
 24 23  2  0  0  0  0
 25 24  1  0  0  0  0
 26 25  1  0  0  0  0
 26 28  2  0  0  0  0
 27 26  1  0  0  0  0
 28 23  1  0  0  0  0
M  END
>  <minimizedAffinity>
-4.72873688

>  <minimizedRMSD>
1.23117173

$$$$
