
 OpenBabel03252514083D

 39 42  0  0  0  0  0  0  0  0999 V2000
   34.0330   29.9490   47.2910 C   0  0  0  0  0  0  0  0  0  0  0  0
   35.0590   29.7560   48.2200 C   0  0  0  0  0  0  0  0  0  0  0  0
   34.9160   28.6850   49.1110 C   0  0  0  0  0  0  0  0  0  0  0  0
   33.8080   27.9130   49.0200 N   0  0  0  0  0  0  0  0  0  0  0  0
   32.8370   28.1090   48.1290 C   0  0  0  0  0  0  0  0  0  0  0  0
   32.9630   29.1290   47.2710 N   0  0  0  0  0  0  0  0  0  0  0  0
   34.0970   30.7730   46.5710 H   0  0  0  0  0  0  0  0  0  0  0  0
   35.7010   28.5350   49.8250 H   0  0  0  0  0  0  0  0  0  0  0  0
   36.1600   30.6480   48.1960 N   0  0  0  0  0  0  0  0  0  0  0  0
   36.6330   31.3040   49.2980 C   0  0  0  0  0  0  0  0  0  0  0  0
   37.6810   32.0700   48.9310 N   0  0  0  0  0  0  0  0  0  0  0  0
   37.8490   31.8850   47.6210 C   0  0  0  0  0  0  0  0  0  0  0  0
   38.7420   32.3880   46.6920 C   0  0  0  0  0  0  0  0  0  0  0  0
   38.6930   32.0330   45.4090 N   0  0  0  0  0  0  0  0  0  0  0  0
   37.7530   31.1510   44.9370 C   0  0  0  0  0  0  0  0  0  0  0  0
   36.8890   30.6680   45.8430 N   0  0  0  0  0  0  0  0  0  0  0  0
   36.9020   30.9940   47.1360 C   0  0  0  0  0  0  0  0  0  0  0  0
   36.2720   31.2590   50.3190 H   0  0  0  0  0  0  0  0  0  0  0  0
   37.7270   30.8750   43.8940 H   0  0  0  0  0  0  0  0  0  0  0  0
   39.7370   33.2990   47.0960 N   0  0  0  0  0  0  0  0  0  0  0  0
   39.6780   34.3480   47.0390 H   0  0  0  0  0  0  0  0  0  0  0  0
   40.5980   32.8680   47.4820 H   0  0  0  0  0  0  0  0  0  0  0  0
   31.6260   27.2720   48.0290 C   0  0  0  0  0  0  0  0  0  0  0  0
   30.6930   27.5720   49.1920 C   0  0  0  0  0  0  0  0  0  0  0  0
   30.4330   28.6330   49.2060 H   0  0  0  0  0  0  0  0  0  0  0  0
   29.7580   26.9950   49.0470 H   0  0  0  0  0  0  0  0  0  0  0  0
   31.1340   27.2130   50.1480 H   0  0  0  0  0  0  0  0  0  0  0  0
   30.8270   27.5960   46.7770 C   0  0  0  0  0  0  0  0  0  0  0  0
   30.4960   26.7220   46.2180 H   0  0  0  0  0  0  0  0  0  0  0  0
   29.9240   28.2040   46.9840 H   0  0  0  0  0  0  0  0  0  0  0  0
   31.4600   28.2420   46.1260 H   0  0  0  0  0  0  0  0  0  0  0  0
   31.9470   25.8000   47.9800 C   0  0  0  0  0  0  0  0  0  0  0  0
   32.7340   25.6110   48.7520 H   0  0  0  0  0  0  0  0  0  0  0  0
   31.0900   25.1730   48.3000 H   0  0  0  0  0  0  0  0  0  0  0  0
   32.3480   25.3580   46.6270 C   0  0  0  0  0  0  0  0  0  0  0  0
   31.6840   24.7510   45.6320 C   0  0  0  0  0  3  0  0  0  0  0  0
   32.2710   24.4360   44.4550 C   0  0  0  0  0  3  0  0  0  0  0  0
   33.6360   24.8010   44.3690 C   0  0  0  0  0  3  0  0  0  0  0  0
   33.9600   25.5790   46.0160 S   0  0  0  0  0  0  0  0  0  0  0  0
  1  2  1  0  0  0  0
  2  3  2  0  0  0  0
  3  8  1  0  0  0  0
  4  3  1  0  0  0  0
  5  4  2  0  0  0  0
  6  1  2  0  0  0  0
  6  5  1  0  0  0  0
  7  1  1  0  0  0  0
  9  2  1  0  0  0  0
  9 10  1  0  0  0  0
 10 18  1  0  0  0  0
 11 10  2  0  0  0  0
 12 11  1  0  0  0  0
 13 20  1  0  0  0  0
 13 12  2  0  0  0  0
 14 13  1  0  0  0  0
 15 14  2  0  0  0  0
 15 16  1  0  0  0  0
 16 17  2  0  0  0  0
 17 12  1  0  0  0  0
 17  9  1  0  0  0  0
 19 15  1  0  0  0  0
 20 22  1  0  0  0  0
 21 20  1  0  0  0  0
 23  5  1  0  0  0  0
 23 24  1  0  0  0  0
 24 25  1  0  0  0  0
 24 27  1  0  0  0  0
 26 24  1  0  0  0  0
 28 30  1  0  0  0  0
 28 23  1  0  0  0  0
 29 28  1  0  0  0  0
 31 28  1  0  0  0  0
 32 23  1  0  0  0  0
 32 34  1  0  0  0  0
 32 33  1  0  0  0  0
 35 32  1  0  0  0  0
 36 35  2  0  0  0  0
 37 36  1  0  0  0  0
 38 37  2  0  0  0  0
 38 39  1  0  0  0  0
 39 35  1  0  0  0  0
M  END
>  <minimizedAffinity>
-5.11511421

>  <minimizedRMSD>
1.67409813

$$$$
