
 OpenBabel03252514033D

 34 37  0  0  1  0  0  0  0  0999 V2000
   35.2560   29.2030   48.6160 C   0  0  2  0  0  0  0  0  0  0  0  0
   34.0420   29.3180   49.4170 C   0  0  0  0  0  0  0  0  0  0  0  0
   34.4020   27.9730   49.0690 C   0  0  1  0  0  0  0  0  0  0  0  0
   35.3380   29.3590   47.5380 H   0  0  0  0  0  0  0  0  0  0  0  0
   33.1290   29.8270   49.0110 H   0  0  0  0  0  0  0  0  0  0  0  0
   34.1730   29.6150   50.4980 H   0  0  0  0  0  0  0  0  0  0  0  0
   34.9690   27.2560   49.6600 H   0  0  0  0  0  0  0  0  0  0  0  0
   36.5870   29.2400   49.3860 C   0  0  0  0  0  0  0  0  0  0  0  0
   37.1780   28.3290   49.1540 H   0  0  0  0  0  0  0  0  0  0  0  0
   36.3670   29.2240   50.4720 H   0  0  0  0  0  0  0  0  0  0  0  0
   37.6520   32.7320   49.5580 C   0  0  0  0  0  0  0  0  0  0  0  0
   38.5060   32.8510   48.4570 C   0  0  0  0  0  0  0  0  0  0  0  0
   38.7060   31.7020   47.6580 C   0  0  0  0  0  0  0  0  0  0  0  0
   38.0550   30.5440   48.0060 N   0  0  0  0  0  0  0  0  0  0  0  0
   37.2510   30.4930   49.0680 C   0  0  0  0  0  0  0  0  0  0  0  0
   37.0550   31.5960   49.8410 N   0  0  0  0  0  0  0  0  0  0  0  0
   37.4380   33.5560   50.2260 H   0  0  0  0  0  0  0  0  0  0  0  0
   38.9680   33.7960   48.2680 H   0  0  0  0  0  0  0  0  0  0  0  0
   39.3590   31.8000   46.8220 H   0  0  0  0  0  0  0  0  0  0  0  0
   33.5520   27.3290   47.9920 C   0  0  0  0  0  0  0  0  0  0  0  0
   33.8790   26.0980   47.7630 O   0  0  0  0  0  0  0  0  0  0  0  0
   32.5100   27.9300   47.2860 O   0  0  0  0  0  0  0  0  0  0  0  0
   31.2490   28.0830   47.7980 C   0  0  0  0  0  0  0  0  0  0  0  0
   30.8020   27.5990   49.1310 C   0  0  0  0  0  0  0  0  0  0  0  0
   29.5190   27.8370   49.4790 C   0  0  0  0  0  0  0  0  0  0  0  0
   28.6250   28.5160   48.6260 C   0  0  0  0  0  0  0  0  0  0  0  0
   29.6640   28.8880   47.1370 S   0  0  0  0  0  0  0  0  0  0  0  0
   31.5340   27.0900   49.7280 H   0  0  0  0  0  0  0  0  0  0  0  0
   29.1200   27.5160   50.4270 H   0  0  0  0  0  0  0  0  0  0  0  0
   27.3500   28.8660   48.7340 N   0  0  0  0  0  0  0  0  0  0  0  0
   26.8810   30.1240   48.8430 C   0  0  0  0  0  3  0  0  0  0  0  0
   25.4860   30.0920   48.9370 C   0  0  0  0  0  3  0  0  0  0  0  0
   25.1480   28.7720   48.8790 N   0  0  0  0  0  0  0  0  0  0  0  0
   26.2890   28.0380   48.7560 C   0  0  0  0  0  3  0  0  0  0  0  0
  1  4  1  6  0  0  0
  1  3  1  0  0  0  0
  1  8  1  0  0  0  0
  1  2  1  0  0  0  0
  2  6  1  0  0  0  0
  3  2  1  0  0  0  0
  3  7  1  1  0  0  0
  5  2  1  0  0  0  0
  8 10  1  0  0  0  0
  9  8  1  0  0  0  0
 11 16  1  0  0  0  0
 11 17  1  0  0  0  0
 12 11  2  0  0  0  0
 13 14  2  0  0  0  0
 13 12  1  0  0  0  0
 14 15  1  0  0  0  0
 15  8  1  0  0  0  0
 15 16  2  0  0  0  0
 18 12  1  0  0  0  0
 19 13  1  0  0  0  0
 20  3  1  0  0  0  0
 21 20  2  0  0  0  0
 22 23  1  0  0  0  0
 22 20  1  0  0  0  0
 23 24  2  0  0  0  0
 24 25  1  0  0  0  0
 24 28  1  0  0  0  0
 25 29  1  0  0  0  0
 26 30  1  0  0  0  0
 26 25  2  0  0  0  0
 27 23  1  0  0  0  0
 27 26  1  0  0  0  0
 30 34  1  0  0  0  0
 30 31  1  0  0  0  0
 31 32  2  0  0  0  0
 33 32  1  0  0  0  0
 34 33  2  0  0  0  0
M  END
>  <minimizedAffinity>
-6.16930676

>  <minimizedRMSD>
1.58788848

$$$$
