
 OpenBabel03252513303D

 42 45  0  0  0  0  0  0  0  0999 V2000
   31.7230   26.2760   47.6170 C   0  0  0  0  0  0  0  0  0  0  0  0
   31.4750   25.1380   46.9310 C   0  0  0  0  0  0  0  0  0  0  0  0
   32.4580   24.3730   46.3460 C   0  0  0  0  0  0  0  0  0  0  0  0
   33.7580   24.8280   46.4920 C   0  0  0  0  0  0  0  0  0  0  0  0
   34.0310   25.9820   47.1860 C   0  0  0  0  0  0  0  0  0  0  0  0
   33.0200   26.7210   47.7570 C   0  0  0  0  0  0  0  0  0  0  0  0
   30.4280   24.8370   46.8540 H   0  0  0  0  0  0  0  0  0  0  0  0
   32.1690   23.4700   45.8110 H   0  0  0  0  0  0  0  0  0  0  0  0
   34.5320   24.2280   46.0340 H   0  0  0  0  0  0  0  0  0  0  0  0
   35.0740   26.3040   47.2750 H   0  0  0  0  0  0  0  0  0  0  0  0
   29.2800   27.6280   50.0270 C   0  0  0  0  0  0  0  0  0  0  0  0
   28.6010   28.6030   49.2500 C   0  0  0  0  0  0  0  0  0  0  0  0
   29.0070   28.7630   47.9220 C   0  0  0  0  0  0  0  0  0  0  0  0
   30.0330   27.9750   47.4420 N   0  0  0  0  0  0  0  0  0  0  0  0
   30.6450   27.0610   48.2250 C   0  0  0  0  0  0  0  0  0  0  0  0
   30.2620   26.9060   49.4900 N   0  0  0  0  0  0  0  0  0  0  0  0
   28.9540   27.5160   51.0520 H   0  0  0  0  0  0  0  0  0  0  0  0
   28.5410   29.4810   47.2690 H   0  0  0  0  0  0  0  0  0  0  0  0
   27.5020   29.4340   49.7940 C   0  0  0  0  0  0  0  0  0  0  0  0
   27.9210   30.6410   50.2780 F   0  0  0  0  0  0  0  0  0  0  0  0
   26.8320   28.7820   50.8140 F   0  0  0  0  0  0  0  0  0  0  0  0
   26.5700   29.6950   48.7680 F   0  0  0  0  0  0  0  0  0  0  0  0
   33.2720   27.9650   48.5090 C   0  0  0  0  0  0  0  0  0  0  0  0
   33.8610   27.7010   49.4070 H   0  0  0  0  0  0  0  0  0  0  0  0
   32.2940   28.3420   48.9360 H   0  0  0  0  0  0  0  0  0  0  0  0
   33.8030   29.0890   47.6920 C   0  0  0  0  0  0  0  0  0  0  0  0
   33.9900   28.6730   46.6620 H   0  0  0  0  0  0  0  0  0  0  0  0
   33.0730   29.9100   47.5510 H   0  0  0  0  0  0  0  0  0  0  0  0
   35.0710   29.5700   48.2390 C   0  0  0  0  0  0  0  0  0  0  0  0
   35.7510   28.9300   49.2610 C   0  0  0  0  0  0  0  0  0  0  0  0
   36.9050   29.6280   49.5490 C   0  0  0  0  0  0  0  0  0  0  0  0
   36.8890   30.6900   48.6770 N   0  0  0  0  0  0  0  0  0  0  0  0
   35.8140   30.6520   47.9100 N   0  0  0  0  0  0  0  0  0  0  0  0
   35.5810   28.0420   49.8530 H   0  0  0  0  0  0  0  0  0  0  0  0
   37.7150   29.5150   50.2390 H   0  0  0  0  0  0  0  0  0  0  0  0
   37.7770   31.7790   48.4490 C   0  0  0  0  0  0  0  0  0  0  0  0
   38.0390   32.6130   49.5210 C   0  0  0  0  0  0  0  0  0  0  0  0
   38.9230   33.5910   49.0590 C   0  0  0  0  0  0  0  0  0  0  0  0
   39.3380   34.4100   49.6390 H   0  0  0  0  0  0  0  0  0  0  0  0
   39.1600   33.3180   47.7430 N   0  0  0  0  0  0  0  0  0  0  0  0
   38.4760   32.2400   47.3890 N   0  0  0  0  0  0  0  0  0  0  0  0
   39.7890   33.8830   47.1240 H   0  0  0  0  0  0  0  0  0  0  0  0
  1  6  1  0  0  0  0
  1 15  1  0  0  0  0
  2  1  2  0  0  0  0
  3  4  2  0  0  0  0
  3  2  1  0  0  0  0
  4  5  1  0  0  0  0
  5 10  1  0  0  0  0
  5  6  2  0  0  0  0
  6 23  1  0  0  0  0
  7  2  1  0  0  0  0
  8  3  1  0  0  0  0
  9  4  1  0  0  0  0
 11 17  1  0  0  0  0
 12 19  1  0  0  0  0
 12 11  2  0  0  0  0
 13 12  1  0  0  0  0
 14 13  2  0  0  0  0
 14 15  1  0  0  0  0
 15 16  2  0  0  0  0
 16 11  1  0  0  0  0
 18 13  1  0  0  0  0
 19 20  1  0  0  0  0
 19 21  1  0  0  0  0
 22 19  1  0  0  0  0
 23 25  1  0  0  0  0
 23 24  1  0  0  0  0
 26 29  1  0  0  0  0
 26 23  1  0  0  0  0
 27 26  1  0  0  0  0
 28 26  1  0  0  0  0
 29 30  1  0  0  0  0
 30 31  2  0  0  0  0
 30 34  1  0  0  0  0
 31 35  1  0  0  0  0
 32 31  1  0  0  0  0
 33 29  2  0  0  0  0
 33 32  1  0  0  0  0
 36 32  1  0  0  0  0
 36 37  1  0  0  0  0
 38 37  2  0  0  0  0
 38 39  1  0  0  0  0
 40 38  1  0  0  0  0
 41 40  1  0  0  0  0
 41 36  2  0  0  0  0
 42 40  1  0  0  0  0
M  END
>  <minimizedAffinity>
-7.42590904

>  <minimizedRMSD>
1.03126645

$$$$
