
 OpenBabel03252513043D

 32 34  0  0  0  0  0  0  0  0999 V2000
   38.1740   31.8840   45.8930 N   0  0  0  0  0  0  0  0  0  0  0  0
   39.2930   32.5710   45.8350 C   0  0  0  0  0  0  0  0  0  0  0  0
   39.8100   33.1800   44.7240 C   0  0  0  0  0  0  0  0  0  0  0  0
   39.1400   33.0990   43.5410 C   0  0  0  0  0  0  0  0  0  0  0  0
   39.5480   33.6290   42.4850 O   0  0  0  0  0  0  0  0  0  0  0  0
   38.0140   32.4210   43.5540 N   0  0  0  0  0  0  0  0  0  0  0  0
   37.5380   31.8330   44.6700 C   0  0  0  0  0  0  0  0  0  0  0  0
   36.4440   31.2080   44.5600 O   0  0  0  0  0  0  0  0  0  0  0  0
   39.8520   32.6510   46.7830 H   0  0  0  0  0  0  0  0  0  0  0  0
   40.7470   33.7210   44.8050 H   0  0  0  0  0  0  0  0  0  0  0  0
   37.2720   32.3070   42.3280 C   0  0  0  0  0  0  0  0  0  0  0  0
   36.0200   32.9120   42.3950 C   0  0  0  0  0  0  0  0  0  0  0  0
   35.4140   32.7300   41.1550 C   0  0  0  0  0  0  0  0  0  0  0  0
   34.4390   33.0320   40.7530 H   0  0  0  0  0  0  0  0  0  0  0  0
   36.3130   32.0350   40.4100 N   0  0  0  0  0  0  0  0  0  0  0  0
   37.4110   31.7900   41.1150 N   0  0  0  0  0  0  0  0  0  0  0  0
   36.1660   31.7350   39.4230 H   0  0  0  0  0  0  0  0  0  0  0  0
   37.5610   31.2240   46.9710 C   0  0  0  0  0  0  0  0  0  0  0  0
   36.5450   31.6660   47.1190 H   0  0  0  0  0  0  0  0  0  0  0  0
   37.3500   30.1480   46.6960 H   0  0  0  0  0  0  0  0  0  0  0  0
   38.2400   31.2120   48.2880 C   0  0  0  0  0  0  0  0  0  0  0  0
   39.2330   30.7070   48.1960 H   0  0  0  0  0  0  0  0  0  0  0  0
   38.4580   32.2510   48.6040 H   0  0  0  0  0  0  0  0  0  0  0  0
   35.6890   29.1900   50.1980 C   0  0  0  0  0  0  0  0  0  0  0  0
   36.3510   29.7970   49.1170 C   0  0  0  0  0  0  0  0  0  0  0  0
   37.4770   30.5370   49.3500 C   0  0  0  0  0  0  0  0  0  0  0  0
   37.9070   30.6510   50.6330 N   0  0  0  0  0  0  0  0  0  0  0  0
   37.2910   30.0810   51.6640 C   0  0  0  0  0  0  0  0  0  0  0  0
   36.1860   29.3540   51.4500 N   0  0  0  0  0  0  0  0  0  0  0  0
   34.7920   28.6010   50.0080 H   0  0  0  0  0  0  0  0  0  0  0  0
   35.9860   29.6910   48.1020 H   0  0  0  0  0  0  0  0  0  0  0  0
   37.6920   30.2150   52.6610 H   0  0  0  0  0  0  0  0  0  0  0  0
  1 18  1  0  0  0  0
  2  1  1  0  0  0  0
  2  9  1  0  0  0  0
  3 10  1  0  0  0  0
  3  2  2  0  0  0  0
  4  6  1  0  0  0  0
  4  3  1  0  0  0  0
  5  4  2  0  0  0  0
  6  7  1  0  0  0  0
  7  1  1  0  0  0  0
  8  7  2  0  0  0  0
 11 12  1  0  0  0  0
 11  6  1  0  0  0  0
 13 12  2  0  0  0  0
 14 13  1  0  0  0  0
 15 16  1  0  0  0  0
 15 13  1  0  0  0  0
 16 11  2  0  0  0  0
 17 15  1  0  0  0  0
 18 19  1  0  0  0  0
 18 21  1  0  0  0  0
 20 18  1  0  0  0  0
 21 23  1  0  0  0  0
 21 26  1  0  0  0  0
 22 21  1  0  0  0  0
 24 29  1  0  0  0  0
 25 26  1  0  0  0  0
 25 24  2  0  0  0  0
 26 27  2  0  0  0  0
 27 28  1  0  0  0  0
 28 32  1  0  0  0  0
 29 28  2  0  0  0  0
 30 24  1  0  0  0  0
 31 25  1  0  0  0  0
M  END
>  <minimizedAffinity>
-5.38679028

>  <minimizedRMSD>
1.21194935

$$$$
