
 OpenBabel03252514083D

 39 42  0  0  0  0  0  0  0  0999 V2000
   34.4980   30.0940   47.4830 C   0  0  0  0  0  0  0  0  0  0  0  0
   35.4450   29.9250   48.4970 C   0  0  0  0  0  0  0  0  0  0  0  0
   35.4090   28.7170   49.2040 C   0  0  0  0  0  0  0  0  0  0  0  0
   34.4730   27.8000   48.8680 N   0  0  0  0  0  0  0  0  0  0  0  0
   33.5760   27.9730   47.8990 C   0  0  0  0  0  0  0  0  0  0  0  0
   33.6000   29.1240   47.2150 N   0  0  0  0  0  0  0  0  0  0  0  0
   34.4830   31.0210   46.8980 H   0  0  0  0  0  0  0  0  0  0  0  0
   36.1340   28.5860   49.9830 H   0  0  0  0  0  0  0  0  0  0  0  0
   36.3640   30.9780   48.7350 N   0  0  0  0  0  0  0  0  0  0  0  0
   36.3680   31.7420   49.8690 C   0  0  0  0  0  0  0  0  0  0  0  0
   37.3630   32.6490   49.7770 N   0  0  0  0  0  0  0  0  0  0  0  0
   37.9610   32.4420   48.6030 C   0  0  0  0  0  0  0  0  0  0  0  0
   39.0250   33.0410   47.9540 C   0  0  0  0  0  0  0  0  0  0  0  0
   39.4350   32.6330   46.7550 N   0  0  0  0  0  0  0  0  0  0  0  0
   38.8230   31.5970   46.0940 C   0  0  0  0  0  0  0  0  0  0  0  0
   37.7910   31.0200   46.7290 N   0  0  0  0  0  0  0  0  0  0  0  0
   37.3490   31.3940   47.9300 C   0  0  0  0  0  0  0  0  0  0  0  0
   35.7110   31.6810   50.7290 H   0  0  0  0  0  0  0  0  0  0  0  0
   39.1680   31.2800   45.1220 H   0  0  0  0  0  0  0  0  0  0  0  0
   39.7060   34.1120   48.5650 N   0  0  0  0  0  0  0  0  0  0  0  0
   39.5260   35.1360   48.4020 H   0  0  0  0  0  0  0  0  0  0  0  0
   40.4510   33.8370   49.2320 H   0  0  0  0  0  0  0  0  0  0  0  0
   32.5520   26.9770   47.5330 C   0  0  0  0  0  0  0  0  0  0  0  0
   31.4310   26.9860   48.5590 C   0  0  0  0  0  0  0  0  0  0  0  0
   30.9930   27.9850   48.6340 H   0  0  0  0  0  0  0  0  0  0  0  0
   30.6370   26.2920   48.2160 H   0  0  0  0  0  0  0  0  0  0  0  0
   31.7900   26.5880   49.5340 H   0  0  0  0  0  0  0  0  0  0  0  0
   31.8890   27.3200   46.2080 C   0  0  0  0  0  0  0  0  0  0  0  0
   31.7940   26.4790   45.5230 H   0  0  0  0  0  0  0  0  0  0  0  0
   30.8760   27.7510   46.3290 H   0  0  0  0  0  0  0  0  0  0  0  0
   32.4850   28.1300   45.7280 H   0  0  0  0  0  0  0  0  0  0  0  0
   33.1250   25.5890   47.3930 C   0  0  0  0  0  0  0  0  0  0  0  0
   33.7030   25.3790   48.3270 H   0  0  0  0  0  0  0  0  0  0  0  0
   32.3360   24.8100   47.3760 H   0  0  0  0  0  0  0  0  0  0  0  0
   33.9350   25.4370   46.1660 C   0  0  0  0  0  0  0  0  0  0  0  0
   34.0620   26.1860   45.0590 C   0  0  0  0  0  3  0  0  0  0  0  0
   34.8850   25.8420   44.0420 C   0  0  0  0  0  3  0  0  0  0  0  0
   35.5920   24.6320   44.2490 C   0  0  0  0  0  3  0  0  0  0  0  0
   35.0010   24.0880   45.9150 S   0  0  0  0  0  0  0  0  0  0  0  0
  1  2  1  0  0  0  0
  2  9  1  0  0  0  0
  2  3  2  0  0  0  0
  3  8  1  0  0  0  0
  4  3  1  0  0  0  0
  5  4  2  0  0  0  0
  6  1  2  0  0  0  0
  6  5  1  0  0  0  0
  7  1  1  0  0  0  0
  9 10  1  0  0  0  0
 10 18  1  0  0  0  0
 11 10  2  0  0  0  0
 12 11  1  0  0  0  0
 13 20  1  0  0  0  0
 13 12  1  0  0  0  0
 14 13  2  0  0  0  0
 15 16  2  0  0  0  0
 15 14  1  0  0  0  0
 16 17  1  0  0  0  0
 17 12  2  0  0  0  0
 17  9  1  0  0  0  0
 19 15  1  0  0  0  0
 20 22  1  0  0  0  0
 21 20  1  0  0  0  0
 23  5  1  0  0  0  0
 23 24  1  0  0  0  0
 24 25  1  0  0  0  0
 24 27  1  0  0  0  0
 26 24  1  0  0  0  0
 28 30  1  0  0  0  0
 28 23  1  0  0  0  0
 29 28  1  0  0  0  0
 31 28  1  0  0  0  0
 32 23  1  0  0  0  0
 32 33  1  0  0  0  0
 34 32  1  0  0  0  0
 35 32  1  0  0  0  0
 36 35  2  0  0  0  0
 37 38  2  0  0  0  0
 37 36  1  0  0  0  0
 38 39  1  0  0  0  0
 39 35  1  0  0  0  0
M  END
>  <minimizedAffinity>
-5.53831148

>  <minimizedRMSD>
0.467015117

$$$$
