
 OpenBabel03252514013D

 29 31  0  0  1  0  0  0  0  0999 V2000
   35.6310   29.5960   49.3000 C   0  0  2  0  0  0  0  0  0  0  0  0
   34.6830   29.4730   50.4170 C   0  0  0  0  0  0  0  0  0  0  0  0
   34.9140   28.2720   49.6160 C   0  0  1  0  0  0  0  0  0  0  0  0
   35.3410   30.1790   48.4230 H   0  0  0  0  0  0  0  0  0  0  0  0
   33.6900   29.9770   50.3980 H   0  0  0  0  0  0  0  0  0  0  0  0
   35.0650   29.4040   51.4730 H   0  0  0  0  0  0  0  0  0  0  0  0
   35.6200   27.4500   49.7140 H   0  0  0  0  0  0  0  0  0  0  0  0
   37.1200   29.5250   49.6250 C   0  0  0  0  0  0  0  0  0  0  0  0
   37.5650   28.5830   49.2910 H   0  0  0  0  0  0  0  0  0  0  0  0
   37.2040   29.5410   50.7300 H   0  0  0  0  0  0  0  0  0  0  0  0
   38.4020   32.9440   49.3570 C   0  0  0  0  0  0  0  0  0  0  0  0
   38.9450   32.9830   48.0640 C   0  0  0  0  0  0  0  0  0  0  0  0
   38.8590   31.8100   47.2930 C   0  0  0  0  0  0  0  0  0  0  0  0
   38.2540   30.7080   47.8420 N   0  0  0  0  0  0  0  0  0  0  0  0
   37.7530   30.7310   49.0860 C   0  0  0  0  0  0  0  0  0  0  0  0
   37.8300   31.8500   49.8330 N   0  0  0  0  0  0  0  0  0  0  0  0
   38.4700   33.8450   49.9440 H   0  0  0  0  0  0  0  0  0  0  0  0
   39.4200   33.8280   47.6160 H   0  0  0  0  0  0  0  0  0  0  0  0
   39.2430   31.7300   46.2870 H   0  0  0  0  0  0  0  0  0  0  0  0
   33.7670   27.8820   48.7220 C   0  0  0  0  0  0  0  0  0  0  0  0
   34.1130   27.1560   47.7040 O   0  0  0  0  0  0  0  0  0  0  0  0
   32.4330   28.2120   48.8970 O   0  0  0  0  0  0  0  0  0  0  0  0
   29.3950   27.8250   45.6670 H   0  0  0  0  0  0  0  0  0  0  0  0
   30.0370   27.6890   46.4790 N   0  0  0  0  0  0  0  0  0  0  0  0
   30.9720   28.3610   47.1430 N   0  0  0  0  0  0  0  0  0  0  0  0
   31.4480   27.5910   48.1470 C   0  0  0  0  0  0  0  0  0  0  0  0
   30.7910   26.3780   48.1240 C   0  0  0  0  0  3  0  0  0  0  0  0
   29.8990   26.4670   47.0540 C   0  0  0  0  0  0  0  0  0  0  0  0
   29.2720   25.5920   46.8630 H   0  0  0  0  0  0  0  0  0  0  0  0
  1  4  1  6  0  0  0
  1  3  1  0  0  0  0
  1  8  1  0  0  0  0
  1  2  1  0  0  0  0
  2  6  1  0  0  0  0
  3  7  1  1  0  0  0
  3  2  1  0  0  0  0
  5  2  1  0  0  0  0
  8 10  1  0  0  0  0
  9  8  1  0  0  0  0
 11 16  1  0  0  0  0
 11 17  1  0  0  0  0
 12 11  2  0  0  0  0
 13 14  2  0  0  0  0
 13 12  1  0  0  0  0
 14 15  1  0  0  0  0
 15  8  1  0  0  0  0
 15 16  2  0  0  0  0
 18 12  1  0  0  0  0
 19 13  1  0  0  0  0
 20 22  1  0  0  0  0
 20  3  1  0  0  0  0
 21 20  2  0  0  0  0
 23 24  1  0  0  0  0
 24 28  1  0  0  0  0
 24 25  1  0  0  0  0
 25 26  2  0  0  0  0
 26 22  1  0  0  0  0
 27 26  1  0  0  0  0
 28 27  2  0  0  0  0
 29 28  1  0  0  0  0
M  END
>  <minimizedAffinity>
-4.84084415

>  <minimizedRMSD>
0.702310264

$$$$
