
 OpenBabel03252512453D

 29 31  0  0  1  0  0  0  0  0999 V2000
   38.3550   31.1340   47.8780 C   0  0  0  0  0  0  0  0  0  0  0  0
   38.8020   32.4770   47.9510 C   0  0  0  0  0  0  0  0  0  0  0  0
   39.6220   32.7560   46.3260 S   0  0  0  0  0  0  0  0  0  0  0  0
   39.2010   30.9590   45.8270 C   0  0  0  0  0  0  0  0  0  0  0  0
   38.6600   30.5540   46.7210 N   0  0  0  0  0  0  0  0  0  0  0  0
   38.6700   33.1520   48.7940 H   0  0  0  0  0  0  0  0  0  0  0  0
   38.0300   30.8480   50.3090 C   0  0  0  0  0  0  0  0  0  0  0  0
   37.6330   30.5340   49.0020 C   0  0  0  0  0  0  0  0  0  0  0  0
   36.5570   29.6600   48.8690 C   0  0  0  0  0  0  0  0  0  0  0  0
   35.9600   29.1670   49.9700 N   0  0  0  0  0  0  0  0  0  0  0  0
   36.3680   29.4910   51.2080 C   0  0  0  0  0  0  0  0  0  0  0  0
   37.4160   30.3410   51.3790 N   0  0  0  0  0  0  0  0  0  0  0  0
   38.8640   31.5250   50.4230 H   0  0  0  0  0  0  0  0  0  0  0  0
   36.2550   29.4220   47.8490 H   0  0  0  0  0  0  0  0  0  0  0  0
   35.8270   29.0450   52.0280 H   0  0  0  0  0  0  0  0  0  0  0  0
   39.5710   30.3690   44.4990 C   0  0  2  0  0  0  0  0  0  0  0  0
   40.2070   29.4960   44.7350 H   0  0  0  0  0  0  0  0  0  0  0  0
   40.2820   31.4240   43.7200 C   0  0  0  0  0  0  0  0  0  0  0  0
   41.3230   31.0580   43.5470 H   0  0  0  0  0  0  0  0  0  0  0  0
   39.7460   31.6100   42.7520 H   0  0  0  0  0  0  0  0  0  0  0  0
   40.2930   32.3970   44.2640 H   0  0  0  0  0  0  0  0  0  0  0  0
   38.2940   29.9380   43.7920 C   0  0  0  0  0  0  0  0  0  0  0  0
   37.5490   29.5390   44.4740 H   0  0  0  0  0  0  0  0  0  0  0  0
   37.9130   30.7600   43.1780 H   0  0  0  0  0  0  0  0  0  0  0  0
   38.6850   28.8290   42.8890 C   0  0  0  0  0  0  0  0  0  0  0  0
   39.1370   27.5960   43.1980 C   0  0  0  0  0  0  0  0  0  0  0  0
   39.4420   26.7170   42.1950 C   0  0  0  0  0  0  0  0  0  0  0  0
   39.2500   27.1970   40.8640 C   0  0  0  0  0  0  0  0  0  0  0  0
   38.6190   28.9460   41.1620 S   0  0  0  0  0  0  0  0  0  0  0  0
  1  2  2  0  0  0  0
  1  8  1  0  0  0  0
  2  6  1  0  0  0  0
  3  2  1  0  0  0  0
  4  3  1  0  0  0  0
  4  5  2  0  0  0  0
  5  1  1  0  0  0  0
  7 13  1  0  0  0  0
  7 12  1  0  0  0  0
  8  7  2  0  0  0  0
  9  8  1  0  0  0  0
  9 10  2  0  0  0  0
 10 11  1  0  0  0  0
 11 12  2  0  0  0  0
 11 15  1  0  0  0  0
 14  9  1  0  0  0  0
 16 17  1  1  0  0  0
 16  4  1  0  0  0  0
 18 21  1  0  0  0  0
 18 16  1  0  0  0  0
 19 18  1  0  0  0  0
 20 18  1  0  0  0  0
 22 23  1  0  0  0  0
 22 16  1  0  0  0  0
 24 22  1  0  0  0  0
 25 26  2  0  0  0  0
 25 22  1  0  0  0  0
 27 26  1  0  0  0  0
 28 29  1  0  0  0  0
 28 27  2  0  0  0  0
 29 25  1  0  0  0  0
M  END
>  <minimizedAffinity>
-5.14575386

>  <minimizedRMSD>
0.943408489

$$$$
