
 OpenBabel03252512153D

 36 40  0  0  0  0  0  0  0  0999 V2000
   32.3670   29.9310   46.1630 C   0  0  0  0  0  0  0  0  0  0  0  0
   32.0940   28.5590   46.1730 C   0  0  0  0  0  0  0  0  0  0  0  0
   33.0440   27.6990   46.7510 C   0  0  0  0  0  0  0  0  0  0  0  0
   34.1700   28.2410   47.2670 N   0  0  0  0  0  0  0  0  0  0  0  0
   34.4050   29.5780   47.2410 C   0  0  0  0  0  0  0  0  0  0  0  0
   33.5150   30.4160   46.6960 N   0  0  0  0  0  0  0  0  0  0  0  0
   31.6570   30.6260   45.7240 H   0  0  0  0  0  0  0  0  0  0  0  0
   31.1790   28.1970   45.7460 H   0  0  0  0  0  0  0  0  0  0  0  0
   35.6490   30.0520   47.8250 C   0  0  0  0  0  0  0  0  0  0  0  0
   36.6500   30.6960   47.0950 C   0  0  0  0  0  0  0  0  0  0  0  0
   37.6710   31.0120   47.9060 N   0  0  0  0  0  0  0  0  0  0  0  0
   37.3580   30.5860   49.1620 C   0  0  0  0  0  0  0  0  0  0  0  0
   38.0620   30.6670   50.3480 C   0  0  0  0  0  0  0  0  0  0  0  0
   37.4780   30.1350   51.4920 C   0  0  0  0  0  0  0  0  0  0  0  0
   36.2370   29.5530   51.4110 C   0  0  0  0  0  0  0  0  0  0  0  0
   35.5090   29.4590   50.2270 C   0  0  0  0  0  0  0  0  0  0  0  0
   36.1110   29.9960   49.1030 C   0  0  0  0  0  0  0  0  0  0  0  0
   36.6680   30.9340   46.0420 H   0  0  0  0  0  0  0  0  0  0  0  0
   38.5830   31.4990   47.6970 H   0  0  0  0  0  0  0  0  0  0  0  0
   39.0320   31.1160   50.4380 H   0  0  0  0  0  0  0  0  0  0  0  0
   37.9300   30.1370   52.4830 H   0  0  0  0  0  0  0  0  0  0  0  0
   35.7340   29.1180   52.2870 H   0  0  0  0  0  0  0  0  0  0  0  0
   34.5310   29.0000   50.1650 H   0  0  0  0  0  0  0  0  0  0  0  0
   32.8060   26.2700   46.7860 C   0  0  0  0  0  0  0  0  0  0  0  0
   33.7400   25.4490   47.3560 C   0  0  0  0  0  0  0  0  0  0  0  0
   33.4630   24.1090   47.3610 C   0  0  0  0  0  0  0  0  0  0  0  0
   32.3130   23.6130   46.8240 N   0  0  0  0  0  0  0  0  0  0  0  0
   31.3960   24.4510   46.2600 C   0  0  0  0  0  0  0  0  0  0  0  0
   31.6880   25.7790   46.2640 N   0  0  0  0  0  0  0  0  0  0  0  0
   34.6430   25.8160   47.7790 H   0  0  0  0  0  0  0  0  0  0  0  0
   34.1780   23.4200   47.8030 H   0  0  0  0  0  0  0  0  0  0  0  0
   30.2290   23.8900   45.7220 N   0  0  0  0  0  0  0  0  0  0  0  0
   30.0030   22.5510   45.7100 C   0  0  0  0  0  0  0  0  0  0  0  0
   28.7630   22.3530   45.1080 C   0  0  0  0  0  0  0  0  0  0  0  0
   28.2750   23.5660   44.7730 N   0  0  0  0  0  0  0  0  0  0  0  0
   29.1800   24.5000   45.1520 C   0  0  0  0  0  0  0  0  0  0  0  0
  1  2  2  0  0  0  0
  1  6  1  0  0  0  0
  2  3  1  0  0  0  0
  3 24  1  0  0  0  0
  3  4  2  0  0  0  0
  5  4  1  0  0  0  0
  5  9  1  0  0  0  0
  6  5  2  0  0  0  0
  7  1  1  0  0  0  0
  8  2  1  0  0  0  0
  9 17  1  0  0  0  0
 10  9  2  0  0  0  0
 10 11  1  0  0  0  0
 11 12  1  0  0  0  0
 12 13  1  0  0  0  0
 13 20  1  0  0  0  0
 13 14  2  0  0  0  0
 14 21  1  0  0  0  0
 15 14  1  0  0  0  0
 15 22  1  0  0  0  0
 16 15  2  0  0  0  0
 17 12  2  0  0  0  0
 17 16  1  0  0  0  0
 18 10  1  0  0  0  0
 19 11  1  0  0  0  0
 23 16  1  0  0  0  0
 24 25  1  0  0  0  0
 25 26  2  0  0  0  0
 25 30  1  0  0  0  0
 26 31  1  0  0  0  0
 27 26  1  0  0  0  0
 28 29  1  0  0  0  0
 28 27  2  0  0  0  0
 29 24  2  0  0  0  0
 32 28  1  0  0  0  0
 33 32  1  0  0  0  0
 34 33  2  0  0  0  0
 35 34  1  0  0  0  0
 35 36  2  0  0  0  0
 36 32  1  0  0  0  0
M  END
>  <minimizedAffinity>
-6.42056227

>  <minimizedRMSD>
0.150601521

$$$$
