
 OpenBabel03252512023D

 28 30  0  0  0  0  0  0  0  0999 V2000
   36.7470   31.3080   49.8460 C   0  0  0  0  0  0  0  0  0  0  0  0
   37.0980   31.2660   50.9320 H   0  0  0  0  0  0  0  0  0  0  0  0
   35.7740   31.7480   49.8920 H   0  0  0  0  0  0  0  0  0  0  0  0
   37.8020   32.1400   49.1610 C   0  0  0  0  0  0  0  0  0  0  0  0
   38.3290   33.2560   49.7650 C   0  0  0  0  0  0  0  0  0  0  0  0
   39.2810   34.0390   49.1560 C   0  0  0  0  0  0  0  0  0  0  0  0
   39.6860   33.6650   47.9190 N   0  0  0  0  0  0  0  0  0  0  0  0
   39.1890   32.5850   47.3100 C   0  0  0  0  0  0  0  0  0  0  0  0
   38.2550   31.8310   47.9270 N   0  0  0  0  0  0  0  0  0  0  0  0
   37.9770   33.5190   50.7560 H   0  0  0  0  0  0  0  0  0  0  0  0
   39.6770   34.9190   49.6670 H   0  0  0  0  0  0  0  0  0  0  0  0
   39.6530   32.2440   46.0120 N   0  0  0  0  0  0  0  0  0  0  0  0
   40.2300   31.1120   45.5690 C   0  0  0  0  0  0  0  0  0  0  0  0
   40.5270   31.2070   44.2260 C   0  0  0  0  0  0  0  0  0  0  0  0
   40.1210   32.4370   43.8300 N   0  0  0  0  0  0  0  0  0  0  0  0
   39.6100   33.0160   44.9170 C   0  0  0  0  0  0  0  0  0  0  0  0
   36.8810   29.9270   49.2610 C   0  0  0  0  0  0  0  0  0  0  0  0
   37.2500   29.2140   50.0600 H   0  0  0  0  0  0  0  0  0  0  0  0
   37.6630   29.8550   48.4690 H   0  0  0  0  0  0  0  0  0  0  0  0
   34.9570   28.4090   49.4340 C   0  0  0  0  0  0  0  0  0  0  0  0
   35.6350   29.4350   48.7720 C   0  0  0  0  0  0  0  0  0  0  0  0
   35.0460   29.9490   47.6390 C   0  0  0  0  0  0  0  0  0  0  0  0
   33.8460   29.4610   47.2000 N   0  0  0  0  0  0  0  0  0  0  0  0
   33.2150   28.4740   47.8590 C   0  0  0  0  0  0  0  0  0  0  0  0
   33.7760   27.9700   48.9520 N   0  0  0  0  0  0  0  0  0  0  0  0
   35.4150   28.0030   50.3230 H   0  0  0  0  0  0  0  0  0  0  0  0
   35.3810   30.7210   46.9700 H   0  0  0  0  0  0  0  0  0  0  0  0
   32.2660   28.0450   47.5620 H   0  0  0  0  0  0  0  0  0  0  0  0
  1  3  1  0  0  0  0
  1  2  1  0  0  0  0
  4  5  1  0  0  0  0
  4  1  1  0  0  0  0
  5 10  1  0  0  0  0
  6 11  1  0  0  0  0
  6  5  2  0  0  0  0
  7  6  1  0  0  0  0
  8  7  2  0  0  0  0
  8  9  1  0  0  0  0
  9  4  2  0  0  0  0
 12  8  1  0  0  0  0
 13 12  1  0  0  0  0
 14 13  2  0  0  0  0
 15 14  1  0  0  0  0
 15 16  2  0  0  0  0
 16 12  1  0  0  0  0
 17  1  1  0  0  0  0
 17 18  1  0  0  0  0
 19 17  1  0  0  0  0
 20 26  1  0  0  0  0
 21 17  1  0  0  0  0
 21 20  2  0  0  0  0
 22 21  1  0  0  0  0
 23 22  2  0  0  0  0
 23 24  1  0  0  0  0
 24 25  2  0  0  0  0
 25 20  1  0  0  0  0
 27 22  1  0  0  0  0
 28 24  1  0  0  0  0
M  END
>  <minimizedAffinity>
-6.01156092

>  <minimizedRMSD>
3.27510309

$$$$
