
 OpenBabel03252514083D

 39 42  0  0  0  0  0  0  0  0999 V2000
   34.1660   30.0510   47.5760 C   0  0  0  0  0  0  0  0  0  0  0  0
   35.1360   29.8310   48.5570 C   0  0  0  0  0  0  0  0  0  0  0  0
   35.0230   28.6570   49.3110 C   0  0  0  0  0  0  0  0  0  0  0  0
   33.9950   27.8180   49.0480 N   0  0  0  0  0  0  0  0  0  0  0  0
   33.0770   28.0390   48.1090 C   0  0  0  0  0  0  0  0  0  0  0  0
   33.1740   29.1580   47.3810 N   0  0  0  0  0  0  0  0  0  0  0  0
   34.2100   30.9550   46.9570 H   0  0  0  0  0  0  0  0  0  0  0  0
   35.7660   28.4880   50.0650 H   0  0  0  0  0  0  0  0  0  0  0  0
   36.1560   30.8040   48.7180 N   0  0  0  0  0  0  0  0  0  0  0  0
   36.4000   31.4630   49.8910 C   0  0  0  0  0  0  0  0  0  0  0  0
   37.4300   32.3140   49.7030 N   0  0  0  0  0  0  0  0  0  0  0  0
   37.8120   32.1780   48.4330 C   0  0  0  0  0  0  0  0  0  0  0  0
   38.7960   32.7690   47.6620 C   0  0  0  0  0  0  0  0  0  0  0  0
   38.9740   32.4460   46.3830 N   0  0  0  0  0  0  0  0  0  0  0  0
   38.1900   31.5100   45.7560 C   0  0  0  0  0  0  0  0  0  0  0  0
   37.2360   30.9400   46.5090 N   0  0  0  0  0  0  0  0  0  0  0  0
   37.0240   31.2320   47.7930 C   0  0  0  0  0  0  0  0  0  0  0  0
   35.8890   31.3640   50.8420 H   0  0  0  0  0  0  0  0  0  0  0  0
   38.3480   31.2610   44.7190 H   0  0  0  0  0  0  0  0  0  0  0  0
   39.6430   33.7410   48.2310 N   0  0  0  0  0  0  0  0  0  0  0  0
   39.5130   34.7830   48.1810 H   0  0  0  0  0  0  0  0  0  0  0  0
   40.4650   33.3650   48.7400 H   0  0  0  0  0  0  0  0  0  0  0  0
   31.9520   27.1280   47.8220 C   0  0  0  0  0  0  0  0  0  0  0  0
   30.8420   27.3400   48.8390 C   0  0  0  0  0  0  0  0  0  0  0  0
   30.5110   28.3820   48.8270 H   0  0  0  0  0  0  0  0  0  0  0  0
   29.9780   26.7070   48.5510 H   0  0  0  0  0  0  0  0  0  0  0  0
   31.1610   26.9900   49.8450 H   0  0  0  0  0  0  0  0  0  0  0  0
   31.3240   27.4270   46.4700 C   0  0  0  0  0  0  0  0  0  0  0  0
   31.1380   26.5460   45.8570 H   0  0  0  0  0  0  0  0  0  0  0  0
   30.3620   27.9700   46.5490 H   0  0  0  0  0  0  0  0  0  0  0  0
   32.0000   28.1270   45.9270 H   0  0  0  0  0  0  0  0  0  0  0  0
   32.3750   25.6810   47.8020 C   0  0  0  0  0  0  0  0  0  0  0  0
   33.0300   25.5200   48.6940 H   0  0  0  0  0  0  0  0  0  0  0  0
   31.5210   24.9920   47.9580 H   0  0  0  0  0  0  0  0  0  0  0  0
   33.0300   25.3050   46.5300 C   0  0  0  0  0  0  0  0  0  0  0  0
   34.2140   25.6270   45.9870 C   0  0  0  0  0  3  0  0  0  0  0  0
   34.6130   25.1530   44.7840 C   0  0  0  0  0  3  0  0  0  0  0  0
   33.6750   24.2970   44.1570 C   0  0  0  0  0  3  0  0  0  0  0  0
   32.2820   24.2480   45.3730 S   0  0  0  0  0  0  0  0  0  0  0  0
  1  2  1  0  0  0  0
  2  9  1  0  0  0  0
  2  3  2  0  0  0  0
  3  8  1  0  0  0  0
  4  3  1  0  0  0  0
  5  4  2  0  0  0  0
  6  1  2  0  0  0  0
  6  5  1  0  0  0  0
  7  1  1  0  0  0  0
  9 10  1  0  0  0  0
 10 18  1  0  0  0  0
 11 10  2  0  0  0  0
 12 11  1  0  0  0  0
 13 20  1  0  0  0  0
 13 12  2  0  0  0  0
 14 13  1  0  0  0  0
 15 14  2  0  0  0  0
 15 16  1  0  0  0  0
 16 17  2  0  0  0  0
 17 12  1  0  0  0  0
 17  9  1  0  0  0  0
 19 15  1  0  0  0  0
 20 22  1  0  0  0  0
 21 20  1  0  0  0  0
 23  5  1  0  0  0  0
 23 24  1  0  0  0  0
 24 27  1  0  0  0  0
 25 24  1  0  0  0  0
 26 24  1  0  0  0  0
 28 30  1  0  0  0  0
 28 23  1  0  0  0  0
 29 28  1  0  0  0  0
 31 28  1  0  0  0  0
 32 23  1  0  0  0  0
 32 34  1  0  0  0  0
 32 33  1  0  0  0  0
 35 32  1  0  0  0  0
 36 35  2  0  0  0  0
 37 36  1  0  0  0  0
 38 37  2  0  0  0  0
 38 39  1  0  0  0  0
 39 35  1  0  0  0  0
M  END
>  <minimizedAffinity>
-5.34858751

>  <minimizedRMSD>
1.04744363

$$$$
