
 OpenBabel03252514083D

 39 42  0  0  0  0  0  0  0  0999 V2000
   34.0730   29.8960   47.4530 C   0  0  0  0  0  0  0  0  0  0  0  0
   35.0440   29.6930   48.4370 C   0  0  0  0  0  0  0  0  0  0  0  0
   34.9160   28.5450   49.2290 C   0  0  0  0  0  0  0  0  0  0  0  0
   33.8740   27.7140   48.9970 N   0  0  0  0  0  0  0  0  0  0  0  0
   32.9550   27.9190   48.0550 C   0  0  0  0  0  0  0  0  0  0  0  0
   33.0670   29.0130   47.2910 N   0  0  0  0  0  0  0  0  0  0  0  0
   34.1280   30.7790   46.8060 H   0  0  0  0  0  0  0  0  0  0  0  0
   35.6600   28.3880   49.9850 H   0  0  0  0  0  0  0  0  0  0  0  0
   36.0790   30.6540   48.5630 N   0  0  0  0  0  0  0  0  0  0  0  0
   36.3810   31.2980   49.7300 C   0  0  0  0  0  0  0  0  0  0  0  0
   37.4100   32.1420   49.5060 N   0  0  0  0  0  0  0  0  0  0  0  0
   37.7340   32.0150   48.2200 C   0  0  0  0  0  0  0  0  0  0  0  0
   38.6900   32.6060   47.4120 C   0  0  0  0  0  0  0  0  0  0  0  0
   38.8080   32.2950   46.1230 N   0  0  0  0  0  0  0  0  0  0  0  0
   37.9880   31.3720   45.5220 C   0  0  0  0  0  0  0  0  0  0  0  0
   37.0630   30.8030   46.3100 N   0  0  0  0  0  0  0  0  0  0  0  0
   36.9100   31.0840   47.6050 C   0  0  0  0  0  0  0  0  0  0  0  0
   35.9120   31.1940   50.7020 H   0  0  0  0  0  0  0  0  0  0  0  0
   38.0980   31.1320   44.4760 H   0  0  0  0  0  0  0  0  0  0  0  0
   39.5710   33.5630   47.9530 N   0  0  0  0  0  0  0  0  0  0  0  0
   39.4480   34.6070   47.9190 H   0  0  0  0  0  0  0  0  0  0  0  0
   40.4100   33.1740   48.4210 H   0  0  0  0  0  0  0  0  0  0  0  0
   31.8150   27.0170   47.8020 C   0  0  0  0  0  0  0  0  0  0  0  0
   30.7380   27.2370   48.8520 C   0  0  0  0  0  0  0  0  0  0  0  0
   30.4150   28.2820   48.8510 H   0  0  0  0  0  0  0  0  0  0  0  0
   29.8610   26.6110   48.5900 H   0  0  0  0  0  0  0  0  0  0  0  0
   31.0850   26.8830   49.8480 H   0  0  0  0  0  0  0  0  0  0  0  0
   31.1490   27.3220   46.4700 C   0  0  0  0  0  0  0  0  0  0  0  0
   30.9380   26.4430   45.8630 H   0  0  0  0  0  0  0  0  0  0  0  0
   30.1930   27.8730   46.5790 H   0  0  0  0  0  0  0  0  0  0  0  0
   31.8130   28.0170   45.9070 H   0  0  0  0  0  0  0  0  0  0  0  0
   32.2270   25.5670   47.7680 C   0  0  0  0  0  0  0  0  0  0  0  0
   32.8280   25.3770   48.6910 H   0  0  0  0  0  0  0  0  0  0  0  0
   31.3590   24.8830   47.8580 H   0  0  0  0  0  0  0  0  0  0  0  0
   32.9490   25.2170   46.5260 C   0  0  0  0  0  0  0  0  0  0  0  0
   34.1600   25.5490   46.0530 C   0  0  0  0  0  3  0  0  0  0  0  0
   34.6200   25.0990   44.8620 C   0  0  0  0  0  3  0  0  0  0  0  0
   33.7170   24.2580   44.1680 C   0  0  0  0  0  3  0  0  0  0  0  0
   32.2620   24.1860   45.3080 S   0  0  0  0  0  0  0  0  0  0  0  0
  1  2  1  0  0  0  0
  2  9  1  0  0  0  0
  2  3  2  0  0  0  0
  3  8  1  0  0  0  0
  4  3  1  0  0  0  0
  5  4  2  0  0  0  0
  6  1  2  0  0  0  0
  6  5  1  0  0  0  0
  7  1  1  0  0  0  0
  9 10  1  0  0  0  0
 10 18  1  0  0  0  0
 11 10  2  0  0  0  0
 12 11  1  0  0  0  0
 13 20  1  0  0  0  0
 13 12  2  0  0  0  0
 14 13  1  0  0  0  0
 15 14  2  0  0  0  0
 15 16  1  0  0  0  0
 16 17  2  0  0  0  0
 17 12  1  0  0  0  0
 17  9  1  0  0  0  0
 19 15  1  0  0  0  0
 20 22  1  0  0  0  0
 21 20  1  0  0  0  0
 23  5  1  0  0  0  0
 23 24  1  0  0  0  0
 24 27  1  0  0  0  0
 25 24  1  0  0  0  0
 26 24  1  0  0  0  0
 28 30  1  0  0  0  0
 28 23  1  0  0  0  0
 29 28  1  0  0  0  0
 31 28  1  0  0  0  0
 32 23  1  0  0  0  0
 32 34  1  0  0  0  0
 32 33  1  0  0  0  0
 35 32  1  0  0  0  0
 36 35  2  0  0  0  0
 37 36  1  0  0  0  0
 38 37  2  0  0  0  0
 38 39  1  0  0  0  0
 39 35  1  0  0  0  0
M  END
>  <minimizedAffinity>
-5.33504057

>  <minimizedRMSD>
1.19475448

$$$$
