
 OpenBabel03252511013D

 28 30  0  0  0  0  0  0  0  0999 V2000
   37.2600   31.4330   48.5280 C   0  0  0  0  0  0  0  0  0  0  0  0
   37.7170   32.4030   49.4480 C   0  0  0  0  0  0  0  0  0  0  0  0
   38.7000   33.2830   49.0010 C   0  0  0  0  0  0  0  0  0  0  0  0
   39.1510   33.1450   47.7070 N   0  0  0  0  0  0  0  0  0  0  0  0
   38.6800   32.2090   46.8830 C   0  0  0  0  0  0  0  0  0  0  0  0
   37.7170   31.3300   47.2860 N   0  0  0  0  0  0  0  0  0  0  0  0
   37.3330   32.4750   50.4600 H   0  0  0  0  0  0  0  0  0  0  0  0
   39.0880   34.0430   49.6590 H   0  0  0  0  0  0  0  0  0  0  0  0
   39.1860   32.1020   45.5250 C   0  0  0  0  0  0  0  0  0  0  0  0
   40.3760   31.4420   45.2170 C   0  0  0  0  0  0  0  0  0  0  0  0
   40.5640   31.5260   43.8340 C   0  0  0  0  0  0  0  0  0  0  0  0
   39.4610   32.2410   43.3920 C   0  0  0  0  0  0  0  0  0  0  0  0
   38.7010   32.5480   44.4060 O   0  0  0  0  0  0  0  0  0  0  0  0
   41.0670   30.9380   45.8780 H   0  0  0  0  0  0  0  0  0  0  0  0
   41.3850   31.1180   43.2770 H   0  0  0  0  0  0  0  0  0  0  0  0
   39.2120   32.5800   42.0320 N   0  0  0  0  0  0  0  0  0  0  0  0
   38.6910   33.7400   41.5760 C   0  0  0  0  0  0  0  0  0  0  0  0
   38.6220   33.6490   40.2090 C   0  0  0  0  0  0  0  0  0  0  0  0
   39.0890   32.4660   39.8370 N   0  0  0  0  0  0  0  0  0  0  0  0
   39.4520   31.8030   40.9490 C   0  0  0  0  0  0  0  0  0  0  0  0
   36.2220   30.5100   49.0110 C   0  0  0  0  0  0  0  0  0  0  0  0
   35.0070   30.7090   48.7080 O   0  0  0  0  0  0  0  0  0  0  0  0
   36.5980   29.4210   49.8040 O   0  0  0  0  0  0  0  0  0  0  0  0
   36.5590   29.4650   51.1930 C   0  0  0  0  0  0  0  0  0  0  0  0
   37.6960   29.7710   51.9890 N   0  0  0  0  0  0  0  0  0  0  0  0
   35.4340   29.2110   51.6730 O   0  0  0  0  0  0  0  0  0  0  0  0
   38.5660   29.1910   51.9950 H   0  0  0  0  0  0  0  0  0  0  0  0
   37.8280   30.5710   52.6460 H   0  0  0  0  0  0  0  0  0  0  0  0
  1 21  1  0  0  0  0
  1  2  1  0  0  0  0
  2  7  1  0  0  0  0
  3  2  2  0  0  0  0
  3  8  1  0  0  0  0
  4  3  1  0  0  0  0
  5  6  1  0  0  0  0
  5  4  2  0  0  0  0
  6  1  2  0  0  0  0
  9  5  1  0  0  0  0
 10  9  2  0  0  0  0
 10 14  1  0  0  0  0
 11 10  1  0  0  0  0
 12 11  2  0  0  0  0
 12 13  1  0  0  0  0
 13  9  1  0  0  0  0
 15 11  1  0  0  0  0
 16 12  1  0  0  0  0
 17 16  1  0  0  0  0
 18 17  2  0  0  0  0
 19 18  1  0  0  0  0
 19 20  2  0  0  0  0
 20 16  1  0  0  0  0
 21 23  1  0  0  0  0
 22 21  2  0  0  0  0
 23 24  1  0  0  0  0
 24 26  2  0  0  0  0
 24 25  1  0  0  0  0
 25 27  1  0  0  0  0
 25 28  1  0  0  0  0
M  END
>  <minimizedAffinity>
-5.74679804

>  <minimizedRMSD>
0.828759372

$$$$
