
 OpenBabel03252514033D

 34 37  0  0  1  0  0  0  0  0999 V2000
   35.2640   29.2610   48.7120 C   0  0  2  0  0  0  0  0  0  0  0  0
   34.0910   29.3090   49.5790 C   0  0  0  0  0  0  0  0  0  0  0  0
   34.4510   27.9930   49.1320 C   0  0  1  0  0  0  0  0  0  0  0  0
   35.2880   29.4830   47.6430 H   0  0  0  0  0  0  0  0  0  0  0  0
   33.1510   29.8260   49.2510 H   0  0  0  0  0  0  0  0  0  0  0  0
   34.2730   29.5430   50.6680 H   0  0  0  0  0  0  0  0  0  0  0  0
   35.0560   27.2510   49.6500 H   0  0  0  0  0  0  0  0  0  0  0  0
   36.6310   29.2750   49.4160 C   0  0  0  0  0  0  0  0  0  0  0  0
   37.1970   28.3580   49.1480 H   0  0  0  0  0  0  0  0  0  0  0  0
   36.4650   29.2520   50.5110 H   0  0  0  0  0  0  0  0  0  0  0  0
   37.7200   32.7610   49.5410 C   0  0  0  0  0  0  0  0  0  0  0  0
   38.5510   32.8670   48.4210 C   0  0  0  0  0  0  0  0  0  0  0  0
   38.7280   31.7120   47.6260 C   0  0  0  0  0  0  0  0  0  0  0  0
   38.0780   30.5600   47.9950 N   0  0  0  0  0  0  0  0  0  0  0  0
   37.2960   30.5210   49.0750 C   0  0  0  0  0  0  0  0  0  0  0  0
   37.1230   31.6310   49.8450 N   0  0  0  0  0  0  0  0  0  0  0  0
   37.5250   33.5910   50.2070 H   0  0  0  0  0  0  0  0  0  0  0  0
   39.0150   33.8080   48.2160 H   0  0  0  0  0  0  0  0  0  0  0  0
   39.3630   31.8000   46.7750 H   0  0  0  0  0  0  0  0  0  0  0  0
   33.5560   27.4000   48.0630 C   0  0  0  0  0  0  0  0  0  0  0  0
   33.8740   26.1840   47.7580 O   0  0  0  0  0  0  0  0  0  0  0  0
   32.4830   28.0320   47.4330 O   0  0  0  0  0  0  0  0  0  0  0  0
   31.2180   28.0570   47.9550 C   0  0  0  0  0  0  0  0  0  0  0  0
   30.8300   27.5150   49.2850 C   0  0  0  0  0  0  0  0  0  0  0  0
   29.5330   27.6240   49.6450 C   0  0  0  0  0  0  0  0  0  0  0  0
   28.5710   28.2280   48.8080 C   0  0  0  0  0  0  0  0  0  0  0  0
   29.5570   28.7160   47.3180 S   0  0  0  0  0  0  0  0  0  0  0  0
   31.6120   27.0700   49.8690 H   0  0  0  0  0  0  0  0  0  0  0  0
   29.1740   27.2550   50.5910 H   0  0  0  0  0  0  0  0  0  0  0  0
   27.2700   28.4520   48.9300 N   0  0  0  0  0  0  0  0  0  0  0  0
   26.5620   28.4040   50.0760 C   0  0  0  0  0  3  0  0  0  0  0  0
   25.2210   28.6970   49.8050 C   0  0  0  0  0  3  0  0  0  0  0  0
   25.1630   28.9220   48.4610 N   0  0  0  0  0  0  0  0  0  0  0  0
   26.4120   28.7700   47.9410 C   0  0  0  0  0  3  0  0  0  0  0  0
  1  4  1  6  0  0  0
  1  3  1  0  0  0  0
  1  8  1  0  0  0  0
  1  2  1  0  0  0  0
  2  6  1  0  0  0  0
  3  2  1  0  0  0  0
  3  7  1  1  0  0  0
  5  2  1  0  0  0  0
  8 10  1  0  0  0  0
  9  8  1  0  0  0  0
 11 16  1  0  0  0  0
 11 17  1  0  0  0  0
 12 11  2  0  0  0  0
 13 14  2  0  0  0  0
 13 12  1  0  0  0  0
 14 15  1  0  0  0  0
 15  8  1  0  0  0  0
 15 16  2  0  0  0  0
 18 12  1  0  0  0  0
 19 13  1  0  0  0  0
 20  3  1  0  0  0  0
 21 20  2  0  0  0  0
 22 23  1  0  0  0  0
 22 20  1  0  0  0  0
 23 24  2  0  0  0  0
 24 25  1  0  0  0  0
 24 28  1  0  0  0  0
 25 29  1  0  0  0  0
 26 30  1  0  0  0  0
 26 25  2  0  0  0  0
 27 23  1  0  0  0  0
 27 26  1  0  0  0  0
 30 31  1  0  0  0  0
 32 31  2  0  0  0  0
 33 32  1  0  0  0  0
 34 33  2  0  0  0  0
 34 30  1  0  0  0  0
M  END
>  <minimizedAffinity>
-6.0597477

>  <minimizedRMSD>
1.34143758

$$$$
