
 OpenBabel03252512553D

 31 34  0  0  0  0  0  0  0  0999 V2000
   37.8240   32.7170   49.7620 C   0  0  0  0  0  0  0  0  0  0  0  0
   38.6710   32.9790   48.6670 C   0  0  0  0  0  0  0  0  0  0  0  0
   38.4540   32.2340   47.5160 C   0  0  0  0  0  0  0  0  0  0  0  0
   37.4660   31.3110   47.4970 N   0  0  0  0  0  0  0  0  0  0  0  0
   36.6710   31.0830   48.5660 C   0  0  0  0  0  0  0  0  0  0  0  0
   36.8490   31.7870   49.7010 N   0  0  0  0  0  0  0  0  0  0  0  0
   37.9930   33.3030   50.6670 H   0  0  0  0  0  0  0  0  0  0  0  0
   39.4540   33.7170   48.6930 H   0  0  0  0  0  0  0  0  0  0  0  0
   35.6590   30.0910   48.4470 N   0  0  0  0  0  0  0  0  0  0  0  0
   34.7140   30.0910   47.4850 C   0  0  0  0  0  0  0  0  0  0  0  0
   33.7640   29.0910   47.4370 C   0  0  0  0  0  0  0  0  0  0  0  0
   32.7170   29.0920   46.3680 C   0  0  0  0  0  0  0  0  0  0  0  0
   33.7730   28.0850   48.3720 C   0  0  0  0  0  0  0  0  0  0  0  0
   32.9180   27.1610   48.3500 O   0  0  0  0  0  0  0  0  0  0  0  0
   34.7080   28.0680   49.3390 N   0  0  0  0  0  0  0  0  0  0  0  0
   35.5940   29.0760   49.3150 C   0  0  0  0  0  0  0  0  0  0  0  0
   36.4740   29.0560   50.2300 O   0  0  0  0  0  0  0  0  0  0  0  0
   34.7550   27.3240   50.0720 H   0  0  0  0  0  0  0  0  0  0  0  0
   39.2720   32.4150   46.3050 C   0  0  0  0  0  0  0  0  0  0  0  0
   40.1850   33.3330   45.9470 N   0  0  0  0  0  0  0  0  0  0  0  0
   40.6430   33.0640   44.7540 O   0  0  0  0  0  0  0  0  0  0  0  0
   40.0430   31.9860   44.3300 C   0  0  0  0  0  0  0  0  0  0  0  0
   39.1630   31.5260   45.2660 N   0  0  0  0  0  0  0  0  0  0  0  0
   40.2260   31.3200   43.0740 N   0  0  0  0  0  0  0  0  0  0  0  0
   39.8470   31.8640   41.9150 N   0  0  0  0  0  0  0  0  0  0  0  0
   40.1460   31.0130   40.9170 C   0  0  0  0  0  0  0  0  0  0  0  0
   40.7360   29.8990   41.5000 C   0  0  0  0  0  0  0  0  0  0  0  0
   40.7840   30.1010   42.8810 C   0  0  0  0  0  0  0  0  0  0  0  0
   40.0000   31.0840   39.8490 H   0  0  0  0  0  0  0  0  0  0  0  0
   41.1370   28.9660   41.1010 H   0  0  0  0  0  0  0  0  0  0  0  0
   41.1630   29.4810   43.6820 H   0  0  0  0  0  0  0  0  0  0  0  0
  1  7  1  0  0  0  0
  2  8  1  0  0  0  0
  2  1  2  0  0  0  0
  3  2  1  0  0  0  0
  4  3  2  0  0  0  0
  4  5  1  0  0  0  0
  5  6  2  0  0  0  0
  6  1  1  0  0  0  0
  9  5  1  0  0  0  0
  9 16  1  0  0  0  0
 10  9  1  0  0  0  0
 11 10  2  0  0  0  0
 11 13  1  0  0  0  0
 12 11  1  0  0  0  0
 13 15  1  0  0  0  0
 14 13  2  0  0  0  0
 15 18  1  0  0  0  0
 16 15  1  0  0  0  0
 16 17  2  0  0  0  0
 19  3  1  0  0  0  0
 20 19  2  0  0  0  0
 21 20  1  0  0  0  0
 22 21  1  0  0  0  0
 22 23  2  0  0  0  0
 23 19  1  0  0  0  0
 24 22  1  0  0  0  0
 25 24  1  0  0  0  0
 26 27  1  0  0  0  0
 26 25  2  0  0  0  0
 27 28  2  0  0  0  0
 28 24  1  0  0  0  0
 28 31  1  0  0  0  0
 29 26  1  0  0  0  0
 30 27  1  0  0  0  0
M  END
>  <minimizedAffinity>
-7.64097166

>  <minimizedRMSD>
2.27925324

$$$$
