
 OpenBabel03252514013D

 29 31  0  0  1  0  0  0  0  0999 V2000
   35.6260   29.6230   49.3580 C   0  0  2  0  0  0  0  0  0  0  0  0
   34.6510   29.5120   50.4530 C   0  0  0  0  0  0  0  0  0  0  0  0
   34.9150   28.2990   49.7000 C   0  0  1  0  0  0  0  0  0  0  0  0
   35.3800   30.0840   48.4020 H   0  0  0  0  0  0  0  0  0  0  0  0
   35.0400   29.6350   51.5020 H   0  0  0  0  0  0  0  0  0  0  0  0
   33.6820   30.0620   50.3450 H   0  0  0  0  0  0  0  0  0  0  0  0
   35.6440   27.5280   49.9790 H   0  0  0  0  0  0  0  0  0  0  0  0
   37.1090   29.5810   49.7230 C   0  0  0  0  0  0  0  0  0  0  0  0
   37.2370   29.5890   50.8240 H   0  0  0  0  0  0  0  0  0  0  0  0
   37.4790   28.6160   49.3310 H   0  0  0  0  0  0  0  0  0  0  0  0
   38.5810   32.8810   49.1180 C   0  0  0  0  0  0  0  0  0  0  0  0
   38.9890   32.8030   47.7780 C   0  0  0  0  0  0  0  0  0  0  0  0
   38.7500   31.6010   47.0920 C   0  0  0  0  0  0  0  0  0  0  0  0
   38.1330   30.5730   47.7670 N   0  0  0  0  0  0  0  0  0  0  0  0
   37.7640   30.7030   49.0490 C   0  0  0  0  0  0  0  0  0  0  0  0
   37.9940   31.8590   49.7120 N   0  0  0  0  0  0  0  0  0  0  0  0
   38.8100   33.8410   49.5510 H   0  0  0  0  0  0  0  0  0  0  0  0
   39.4700   33.5340   47.1690 H   0  0  0  0  0  0  0  0  0  0  0  0
   38.9930   31.3710   46.0730 H   0  0  0  0  0  0  0  0  0  0  0  0
   33.8150   27.8600   48.7760 C   0  0  0  0  0  0  0  0  0  0  0  0
   34.2130   27.2010   47.7330 O   0  0  0  0  0  0  0  0  0  0  0  0
   32.4580   28.0860   48.9510 O   0  0  0  0  0  0  0  0  0  0  0  0
   31.5530   27.7030   47.9730 C   0  0  0  0  0  0  0  0  0  0  0  0
   30.8920   26.4830   47.9970 C   0  0  0  0  0  3  0  0  0  0  0  0
   30.0030   26.1900   46.9690 C   0  0  0  0  0  0  0  0  0  0  0  0
   29.5030   25.2350   47.0140 H   0  0  0  0  0  0  0  0  0  0  0  0
   29.8020   27.0810   45.9830 N   0  0  0  0  0  0  0  0  0  0  0  0
   30.4480   28.2800   45.9520 C   0  0  0  0  0  3  0  0  0  0  0  0
   31.3070   28.5600   46.9490 N   0  0  0  0  0  0  0  0  0  0  0  0
  1  4  1  6  0  0  0
  1  3  1  0  0  0  0
  1  8  1  0  0  0  0
  1  2  1  0  0  0  0
  2  5  1  0  0  0  0
  3  7  1  1  0  0  0
  3  2  1  0  0  0  0
  6  2  1  0  0  0  0
  8  9  1  0  0  0  0
 10  8  1  0  0  0  0
 11 17  1  0  0  0  0
 11 16  1  0  0  0  0
 12 11  2  0  0  0  0
 13 14  2  0  0  0  0
 13 12  1  0  0  0  0
 14 15  1  0  0  0  0
 15 16  2  0  0  0  0
 15  8  1  0  0  0  0
 18 12  1  0  0  0  0
 19 13  1  0  0  0  0
 20 22  1  0  0  0  0
 20  3  1  0  0  0  0
 21 20  2  0  0  0  0
 23 24  1  0  0  0  0
 23 22  1  0  0  0  0
 25 26  1  0  0  0  0
 25 24  2  0  0  0  0
 27 25  1  0  0  0  0
 28 27  2  0  0  0  0
 28 29  1  0  0  0  0
 29 23  2  0  0  0  0
M  END
>  <minimizedAffinity>
-4.9260993

>  <minimizedRMSD>
0.534234464

$$$$
