
 OpenBabel03252514013D

 29 31  0  0  1  0  0  0  0  0999 V2000
   35.5780   29.5540   49.2290 C   0  0  2  0  0  0  0  0  0  0  0  0
   34.6040   29.4840   50.3300 C   0  0  0  0  0  0  0  0  0  0  0  0
   34.8410   28.2520   49.5990 C   0  0  1  0  0  0  0  0  0  0  0  0
   35.3390   30.0020   48.2650 H   0  0  0  0  0  0  0  0  0  0  0  0
   34.9990   29.6190   51.3740 H   0  0  0  0  0  0  0  0  0  0  0  0
   33.6460   30.0520   50.2130 H   0  0  0  0  0  0  0  0  0  0  0  0
   35.5550   27.4710   49.8900 H   0  0  0  0  0  0  0  0  0  0  0  0
   37.0610   29.4890   49.5920 C   0  0  0  0  0  0  0  0  0  0  0  0
   37.1880   29.3570   50.6850 H   0  0  0  0  0  0  0  0  0  0  0  0
   37.4460   28.5870   49.0800 H   0  0  0  0  0  0  0  0  0  0  0  0
   38.3100   32.9250   49.3570 C   0  0  0  0  0  0  0  0  0  0  0  0
   38.8950   32.9610   48.0810 C   0  0  0  0  0  0  0  0  0  0  0  0
   38.8510   31.7880   47.3110 C   0  0  0  0  0  0  0  0  0  0  0  0
   38.2430   30.6750   47.8430 N   0  0  0  0  0  0  0  0  0  0  0  0
   37.7000   30.6980   49.0690 C   0  0  0  0  0  0  0  0  0  0  0  0
   37.7400   31.8260   49.8140 N   0  0  0  0  0  0  0  0  0  0  0  0
   38.3960   33.8710   49.8640 H   0  0  0  0  0  0  0  0  0  0  0  0
   39.3860   33.7640   47.5800 H   0  0  0  0  0  0  0  0  0  0  0  0
   39.2450   31.6400   46.3240 H   0  0  0  0  0  0  0  0  0  0  0  0
   33.7300   27.8180   48.6860 C   0  0  0  0  0  0  0  0  0  0  0  0
   34.1120   27.1520   47.6420 O   0  0  0  0  0  0  0  0  0  0  0  0
   32.3750   28.0560   48.8720 O   0  0  0  0  0  0  0  0  0  0  0  0
   31.4620   27.7000   47.8920 C   0  0  0  0  0  0  0  0  0  0  0  0
   30.7830   26.4900   47.9020 C   0  0  0  0  0  3  0  0  0  0  0  0
   29.8860   26.2230   46.8740 C   0  0  0  0  0  0  0  0  0  0  0  0
   29.3730   25.2760   46.9060 H   0  0  0  0  0  0  0  0  0  0  0  0
   29.6950   27.1320   45.9010 N   0  0  0  0  0  0  0  0  0  0  0  0
   30.3580   28.3220   45.8840 C   0  0  0  0  0  3  0  0  0  0  0  0
   31.2250   28.5750   46.8810 N   0  0  0  0  0  0  0  0  0  0  0  0
  1  4  1  6  0  0  0
  1  8  1  0  0  0  0
  1  3  1  0  0  0  0
  1  2  1  0  0  0  0
  2  5  1  0  0  0  0
  3  7  1  1  0  0  0
  3  2  1  0  0  0  0
  6  2  1  0  0  0  0
  8  9  1  0  0  0  0
 10  8  1  0  0  0  0
 11 16  1  0  0  0  0
 11 17  1  0  0  0  0
 12 11  2  0  0  0  0
 13 14  2  0  0  0  0
 13 12  1  0  0  0  0
 14 15  1  0  0  0  0
 15  8  1  0  0  0  0
 15 16  2  0  0  0  0
 18 12  1  0  0  0  0
 19 13  1  0  0  0  0
 20 22  1  0  0  0  0
 20  3  1  0  0  0  0
 21 20  2  0  0  0  0
 23 24  1  0  0  0  0
 23 22  1  0  0  0  0
 25 26  1  0  0  0  0
 25 24  2  0  0  0  0
 27 25  1  0  0  0  0
 28 27  2  0  0  0  0
 28 29  1  0  0  0  0
 29 23  2  0  0  0  0
M  END
>  <minimizedAffinity>
-4.91753435

>  <minimizedRMSD>
0.683179557

$$$$
