
 OpenBabel03252510463D

 39 42  0  0  1  0  0  0  0  0999 V2000
   37.5000   31.3060   48.7120 N   0  0  0  0  0  0  0  0  0  0  0  0
   38.3580   31.5360   49.8650 C   0  0  0  0  0  0  0  0  0  0  0  0
   38.7130   32.9890   49.6880 C   0  0  0  0  0  0  0  0  0  0  0  0
   39.0450   33.0040   48.2120 C   0  0  0  0  0  0  0  0  0  0  0  0
   37.8580   32.2410   47.6790 C   0  0  1  0  0  0  0  0  0  0  0  0
   39.2740   30.9460   49.6840 H   0  0  0  0  0  0  0  0  0  0  0  0
   37.8750   31.3340   50.8200 H   0  0  0  0  0  0  0  0  0  0  0  0
   39.5990   33.2910   50.2610 H   0  0  0  0  0  0  0  0  0  0  0  0
   37.8540   33.6620   49.8200 H   0  0  0  0  0  0  0  0  0  0  0  0
   38.9660   34.0430   47.8360 H   0  0  0  0  0  0  0  0  0  0  0  0
   40.0080   32.5100   47.9820 H   0  0  0  0  0  0  0  0  0  0  0  0
   37.0190   32.9530   47.6220 H   0  0  0  0  0  0  0  0  0  0  0  0
   38.2250   31.6410   46.4010 C   0  0  0  0  0  0  0  0  0  0  0  0
   39.0040   30.5010   46.1430 C   0  0  0  0  0  0  0  0  0  0  0  0
   39.2340   30.0960   44.8560 C   0  0  0  0  0  0  0  0  0  0  0  0
   38.7040   30.8010   43.8570 N   0  0  0  0  0  0  0  0  0  0  0  0
   37.9600   31.8890   44.0740 C   0  0  0  0  0  0  0  0  0  0  0  0
   37.7330   32.2910   45.3480 N   0  0  0  0  0  0  0  0  0  0  0  0
   39.3670   30.0290   47.0460 H   0  0  0  0  0  0  0  0  0  0  0  0
   39.8420   29.2110   44.7380 H   0  0  0  0  0  0  0  0  0  0  0  0
   37.4260   32.5910   42.9430 N   0  0  0  0  0  0  0  0  0  0  0  0
   36.1020   32.8270   42.8670 C   0  0  0  0  0  0  0  0  0  0  0  0
   35.6080   33.5130   41.7530 C   0  0  0  0  0  0  0  0  0  0  0  0
   34.1700   33.8340   41.5530 C   0  0  0  0  0  0  0  0  0  0  0  0
   36.5090   33.9150   40.7890 C   0  0  0  0  0  0  0  0  0  0  0  0
   36.1320   34.5370   39.7630 O   0  0  0  0  0  0  0  0  0  0  0  0
   37.8200   33.6440   40.9340 N   0  0  0  0  0  0  0  0  0  0  0  0
   38.3200   32.9760   42.0130 C   0  0  0  0  0  0  0  0  0  0  0  0
   39.5530   32.7520   42.0940 O   0  0  0  0  0  0  0  0  0  0  0  0
   38.4820   33.9700   40.1690 H   0  0  0  0  0  0  0  0  0  0  0  0
   36.3680   29.2060   49.4300 C   0  0  0  0  0  0  0  0  0  0  0  0
   36.4870   30.3360   48.5960 C   0  0  0  0  0  0  0  0  0  0  0  0
   35.5330   30.5130   47.5740 C   0  0  0  0  0  0  0  0  0  0  0  0
   34.5410   29.5910   47.4330 N   0  0  0  0  0  0  0  0  0  0  0  0
   34.4630   28.5190   48.2550 C   0  0  0  0  0  0  0  0  0  0  0  0
   35.3730   28.3250   49.2520 N   0  0  0  0  0  0  0  0  0  0  0  0
   37.1500   29.1710   50.1780 H   0  0  0  0  0  0  0  0  0  0  0  0
   35.5100   31.3240   46.8780 H   0  0  0  0  0  0  0  0  0  0  0  0
   33.6850   27.7690   48.1670 H   0  0  0  0  0  0  0  0  0  0  0  0
  1  2  1  0  0  0  0
  2  7  1  0  0  0  0
  3  9  1  0  0  0  0
  3  2  1  0  0  0  0
  3  8  1  0  0  0  0
  4  3  1  0  0  0  0
  5 12  1  6  0  0  0
  5  4  1  0  0  0  0
  5  1  1  0  0  0  0
  6  2  1  0  0  0  0
 10  4  1  0  0  0  0
 11  4  1  0  0  0  0
 13  5  1  0  0  0  0
 14 13  1  0  0  0  0
 14 19  1  0  0  0  0
 15 14  2  0  0  0  0
 16 17  2  0  0  0  0
 16 15  1  0  0  0  0
 17 18  1  0  0  0  0
 18 13  2  0  0  0  0
 20 15  1  0  0  0  0
 21 17  1  0  0  0  0
 22 21  1  0  0  0  0
 23 22  2  0  0  0  0
 24 23  1  0  0  0  0
 25 27  1  0  0  0  0
 25 23  1  0  0  0  0
 26 25  2  0  0  0  0
 27 28  1  0  0  0  0
 28 29  2  0  0  0  0
 28 21  1  0  0  0  0
 30 27  1  0  0  0  0
 31 37  1  0  0  0  0
 32  1  1  0  0  0  0
 32 31  2  0  0  0  0
 33 32  1  0  0  0  0
 34 33  2  0  0  0  0
 34 35  1  0  0  0  0
 35 36  2  0  0  0  0
 36 31  1  0  0  0  0
 38 33  1  0  0  0  0
 39 35  1  0  0  0  0
M  END
>  <minimizedAffinity>
-6.56216145

>  <minimizedRMSD>
0.15668115

$$$$
