
 OpenBabel03252513333D

 22 23  0  0  0  0  0  0  0  0999 V2000
   36.4360   29.8700   49.7350 C   0  0  0  0  0  0  0  0  0  0  0  0
   37.3700   30.6250   49.0320 C   0  0  0  0  0  0  0  0  0  0  0  0
   37.0970   30.9900   47.7200 C   0  0  0  0  0  0  0  0  0  0  0  0
   35.9030   30.5760   47.1880 N   0  0  0  0  0  0  0  0  0  0  0  0
   35.0080   29.8420   47.8910 C   0  0  0  0  0  0  0  0  0  0  0  0
   35.2840   29.4970   49.1570 N   0  0  0  0  0  0  0  0  0  0  0  0
   38.3110   30.9490   49.4580 H   0  0  0  0  0  0  0  0  0  0  0  0
   34.0790   29.5510   47.3970 H   0  0  0  0  0  0  0  0  0  0  0  0
   37.9400   31.7450   46.8960 N   0  0  0  0  0  0  0  0  0  0  0  0
   37.8390   31.6100   45.5410 C   0  0  0  0  0  0  0  0  0  0  0  0
   38.6250   32.3100   44.6450 C   0  0  0  0  0  0  0  0  0  0  0  0
   38.3820   32.0400   43.1870 C   0  0  0  0  0  0  0  0  0  0  0  0
   39.5660   33.1930   45.1370 C   0  0  0  0  0  0  0  0  0  0  0  0
   40.2560   33.8030   44.3030 O   0  0  0  0  0  0  0  0  0  0  0  0
   39.6700   33.3300   46.4840 N   0  0  0  0  0  0  0  0  0  0  0  0
   38.8720   32.6160   47.2980 C   0  0  0  0  0  0  0  0  0  0  0  0
   39.0090   32.7810   48.5360 O   0  0  0  0  0  0  0  0  0  0  0  0
   40.3880   34.0020   46.8480 H   0  0  0  0  0  0  0  0  0  0  0  0
   36.7420   29.4840   51.1490 C   0  0  0  0  0  0  0  0  0  0  0  0
   35.5800   29.1070   51.8000 F   0  0  0  0  0  0  0  0  0  0  0  0
   37.6920   28.4960   51.1210 F   0  0  0  0  0  0  0  0  0  0  0  0
   37.2430   30.6110   51.7920 F   0  0  0  0  0  0  0  0  0  0  0  0
  1 19  1  0  0  0  0
  2  7  1  0  0  0  0
  2  1  2  0  0  0  0
  3  2  1  0  0  0  0
  4  3  2  0  0  0  0
  4  5  1  0  0  0  0
  5  6  2  0  0  0  0
  6  1  1  0  0  0  0
  8  5  1  0  0  0  0
  9 16  1  0  0  0  0
  9  3  1  0  0  0  0
 10  9  1  0  0  0  0
 11 13  1  0  0  0  0
 11 10  2  0  0  0  0
 12 11  1  0  0  0  0
 13 15  1  0  0  0  0
 14 13  2  0  0  0  0
 15 18  1  0  0  0  0
 15 16  1  0  0  0  0
 16 17  2  0  0  0  0
 19 22  1  0  0  0  0
 19 20  1  0  0  0  0
 21 19  1  0  0  0  0
M  END
>  <minimizedAffinity>
-6.89327002

>  <minimizedRMSD>
2.86379242

$$$$
