
 OpenBabel03252514013D

 29 31  0  0  1  0  0  0  0  0999 V2000
   35.5150   29.5050   49.1150 C   0  0  2  0  0  0  0  0  0  0  0  0
   34.4940   29.5870   50.1700 C   0  0  0  0  0  0  0  0  0  0  0  0
   34.7360   28.2700   49.6080 C   0  0  1  0  0  0  0  0  0  0  0  0
   35.3270   29.8330   48.0930 H   0  0  0  0  0  0  0  0  0  0  0  0
   34.8470   29.8450   51.2070 H   0  0  0  0  0  0  0  0  0  0  0  0
   33.5540   30.1510   49.9410 H   0  0  0  0  0  0  0  0  0  0  0  0
   35.4200   27.5210   50.0250 H   0  0  0  0  0  0  0  0  0  0  0  0
   36.9800   29.4620   49.5480 C   0  0  0  0  0  0  0  0  0  0  0  0
   37.0570   29.4720   50.6540 H   0  0  0  0  0  0  0  0  0  0  0  0
   37.3660   28.4950   49.1760 H   0  0  0  0  0  0  0  0  0  0  0  0
   38.5360   32.7370   49.0250 C   0  0  0  0  0  0  0  0  0  0  0  0
   38.9530   32.6780   47.6850 C   0  0  0  0  0  0  0  0  0  0  0  0
   38.6890   31.4970   46.9730 C   0  0  0  0  0  0  0  0  0  0  0  0
   38.0430   30.4700   47.6210 N   0  0  0  0  0  0  0  0  0  0  0  0
   37.6680   30.5820   48.9030 C   0  0  0  0  0  0  0  0  0  0  0  0
   37.9200   31.7180   49.5920 N   0  0  0  0  0  0  0  0  0  0  0  0
   38.7850   33.6810   49.4790 H   0  0  0  0  0  0  0  0  0  0  0  0
   39.4560   33.4090   47.0960 H   0  0  0  0  0  0  0  0  0  0  0  0
   38.9350   31.2820   45.9510 H   0  0  0  0  0  0  0  0  0  0  0  0
   33.6560   27.7440   48.7070 C   0  0  0  0  0  0  0  0  0  0  0  0
   34.0730   26.9790   47.7470 O   0  0  0  0  0  0  0  0  0  0  0  0
   32.2960   27.9940   48.8230 O   0  0  0  0  0  0  0  0  0  0  0  0
   31.4480   27.7640   47.7510 C   0  0  0  0  0  0  0  0  0  0  0  0
   31.3450   28.6320   46.6740 C   0  0  0  0  0  3  0  0  0  0  0  0
   30.4650   28.3120   45.6470 C   0  0  0  0  0  0  0  0  0  0  0  0
   30.4050   29.0040   44.8220 H   0  0  0  0  0  0  0  0  0  0  0  0
   29.7400   27.1810   45.7130 N   0  0  0  0  0  0  0  0  0  0  0  0
   29.8360   26.3240   46.7670 C   0  0  0  0  0  3  0  0  0  0  0  0
   30.6880   26.6370   47.7590 N   0  0  0  0  0  0  0  0  0  0  0  0
  1  4  1  6  0  0  0
  1  8  1  0  0  0  0
  1  3  1  0  0  0  0
  1  2  1  0  0  0  0
  2  5  1  0  0  0  0
  3  7  1  1  0  0  0
  3  2  1  0  0  0  0
  6  2  1  0  0  0  0
  8  9  1  0  0  0  0
 10  8  1  0  0  0  0
 11 17  1  0  0  0  0
 11 16  1  0  0  0  0
 12 11  2  0  0  0  0
 13 14  2  0  0  0  0
 13 12  1  0  0  0  0
 14 15  1  0  0  0  0
 15  8  1  0  0  0  0
 15 16  2  0  0  0  0
 18 12  1  0  0  0  0
 19 13  1  0  0  0  0
 20 22  1  0  0  0  0
 20  3  1  0  0  0  0
 21 20  2  0  0  0  0
 23 29  1  0  0  0  0
 23 22  1  0  0  0  0
 24 23  2  0  0  0  0
 25 27  2  0  0  0  0
 25 24  1  0  0  0  0
 26 25  1  0  0  0  0
 27 28  1  0  0  0  0
 28 29  2  0  0  0  0
M  END
>  <minimizedAffinity>
-4.83987141

>  <minimizedRMSD>
0.406490773

$$$$
