
 OpenBabel03252513043D

 32 34  0  0  0  0  0  0  0  0999 V2000
   38.1940   31.9110   45.8300 N   0  0  0  0  0  0  0  0  0  0  0  0
   39.3230   32.6040   45.7750 C   0  0  0  0  0  0  0  0  0  0  0  0
   39.8230   33.2130   44.6560 C   0  0  0  0  0  0  0  0  0  0  0  0
   39.1470   33.1290   43.4790 C   0  0  0  0  0  0  0  0  0  0  0  0
   39.5160   33.6450   42.4070 O   0  0  0  0  0  0  0  0  0  0  0  0
   38.0150   32.4440   43.4970 N   0  0  0  0  0  0  0  0  0  0  0  0
   37.5680   31.8650   44.6240 C   0  0  0  0  0  0  0  0  0  0  0  0
   36.4730   31.2360   44.5190 O   0  0  0  0  0  0  0  0  0  0  0  0
   39.8790   32.6790   46.7240 H   0  0  0  0  0  0  0  0  0  0  0  0
   40.7660   33.7720   44.6850 H   0  0  0  0  0  0  0  0  0  0  0  0
   34.9390   32.0280   39.7460 H   0  0  0  0  0  0  0  0  0  0  0  0
   35.0790   31.4750   40.6200 N   0  0  0  0  0  0  0  0  0  0  0  0
   34.7980   32.1950   41.8210 C   0  0  0  0  0  0  0  0  0  0  0  0
   35.9540   33.0630   42.2750 C   0  0  0  0  0  0  0  0  0  0  0  0
   37.2470   32.3210   42.2570 C   0  0  0  0  0  0  0  0  0  0  0  0
   36.9890   30.8520   41.9630 C   0  0  0  0  0  0  0  0  0  0  0  0
   36.3160   30.7460   40.6120 C   0  0  0  0  0  0  0  0  0  0  0  0
   37.5940   31.2520   46.9160 C   0  0  0  0  0  0  0  0  0  0  0  0
   37.3640   30.1810   46.6430 H   0  0  0  0  0  0  0  0  0  0  0  0
   36.5810   31.7100   47.0740 H   0  0  0  0  0  0  0  0  0  0  0  0
   38.2840   31.2270   48.2260 C   0  0  0  0  0  0  0  0  0  0  0  0
   38.6570   32.2200   48.5630 H   0  0  0  0  0  0  0  0  0  0  0  0
   39.2310   30.6290   48.0730 H   0  0  0  0  0  0  0  0  0  0  0  0
   35.7820   29.1720   50.1570 C   0  0  0  0  0  0  0  0  0  0  0  0
   36.4490   29.7850   49.0790 C   0  0  0  0  0  0  0  0  0  0  0  0
   37.5520   30.5670   49.2950 C   0  0  0  0  0  0  0  0  0  0  0  0
   37.9620   30.7150   50.5790 N   0  0  0  0  0  0  0  0  0  0  0  0
   37.3410   30.1400   51.6170 C   0  0  0  0  0  0  0  0  0  0  0  0
   36.2600   29.3740   51.4110 N   0  0  0  0  0  0  0  0  0  0  0  0
   34.9120   28.5530   50.0010 H   0  0  0  0  0  0  0  0  0  0  0  0
   36.0640   29.6220   48.0760 H   0  0  0  0  0  0  0  0  0  0  0  0
   37.7780   30.3440   52.6040 H   0  0  0  0  0  0  0  0  0  0  0  0
  1 18  1  0  0  0  0
  2  1  1  0  0  0  0
  2  9  1  0  0  0  0
  3 10  1  0  0  0  0
  3  2  2  0  0  0  0
  4  6  1  0  0  0  0
  4  3  1  0  0  0  0
  5  4  2  0  0  0  0
  6  7  1  0  0  0  0
  7  1  1  0  0  0  0
  8  7  2  0  0  0  0
 11 12  1  0  0  0  0
 12 13  1  0  0  0  0
 13 14  1  0  0  0  0
 15 14  1  0  0  0  0
 15  6  1  0  0  0  0
 16 15  1  0  0  0  0
 17 12  1  0  0  0  0
 17 16  1  0  0  0  0
 18 20  1  0  0  0  0
 18 21  1  0  0  0  0
 19 18  1  0  0  0  0
 21 22  1  0  0  0  0
 21 26  1  0  0  0  0
 23 21  1  0  0  0  0
 24 29  1  0  0  0  0
 25 26  1  0  0  0  0
 25 24  2  0  0  0  0
 26 27  2  0  0  0  0
 27 28  1  0  0  0  0
 28 32  1  0  0  0  0
 29 28  2  0  0  0  0
 30 24  1  0  0  0  0
 31 25  1  0  0  0  0
M  END
>  <minimizedAffinity>
-5.21580076

>  <minimizedRMSD>
1.28578639

$$$$
