
 OpenBabel03252513263D

 35 37  0  0  0  0  0  0  0  0999 V2000
   32.8520   27.8550   48.5710 C   0  0  0  0  0  0  0  0  0  0  0  0
   31.7430   28.2190   49.2660 C   0  0  0  0  0  0  0  0  0  0  0  0
   30.5240   27.5760   49.1920 C   0  0  0  0  0  0  0  0  0  0  0  0
   30.4760   26.4910   48.3350 C   0  0  0  0  0  0  0  0  0  0  0  0
   31.5750   26.0870   47.6100 C   0  0  0  0  0  0  0  0  0  0  0  0
   32.7750   26.7720   47.7240 C   0  0  0  0  0  0  0  0  0  0  0  0
   31.8020   29.0840   49.9440 H   0  0  0  0  0  0  0  0  0  0  0  0
   29.6510   27.8820   49.7570 H   0  0  0  0  0  0  0  0  0  0  0  0
   29.5470   25.9460   48.2330 H   0  0  0  0  0  0  0  0  0  0  0  0
   31.5090   25.2360   46.9470 H   0  0  0  0  0  0  0  0  0  0  0  0
   36.1740   28.9610   49.6820 C   0  0  0  0  0  0  0  0  0  0  0  0
   36.4590   30.0090   48.7890 C   0  0  0  0  0  0  0  0  0  0  0  0
   35.5020   30.3070   47.8320 C   0  0  0  0  0  0  0  0  0  0  0  0
   34.3350   29.5770   47.7950 N   0  0  0  0  0  0  0  0  0  0  0  0
   34.1130   28.5700   48.6880 C   0  0  0  0  0  0  0  0  0  0  0  0
   35.0260   28.2870   49.6010 N   0  0  0  0  0  0  0  0  0  0  0  0
   36.9200   28.7260   50.4330 H   0  0  0  0  0  0  0  0  0  0  0  0
   35.6390   31.0970   47.1060 H   0  0  0  0  0  0  0  0  0  0  0  0
   37.7190   30.7870   48.8410 C   0  0  0  0  0  0  0  0  0  0  0  0
   38.5380   30.5730   47.7700 F   0  0  0  0  0  0  0  0  0  0  0  0
   38.4490   30.4950   49.9780 F   0  0  0  0  0  0  0  0  0  0  0  0
   37.4200   32.1600   48.8730 F   0  0  0  0  0  0  0  0  0  0  0  0
   33.9550   26.3730   46.9740 C   0  0  0  0  0  0  0  0  0  0  0  0
   34.4330   27.2530   46.4980 H   0  0  0  0  0  0  0  0  0  0  0  0
   34.7370   26.0070   47.7020 H   0  0  0  0  0  0  0  0  0  0  0  0
   33.7720   25.2490   45.9860 C   0  0  0  0  0  0  0  0  0  0  0  0
   32.7150   24.9150   45.9300 H   0  0  0  0  0  0  0  0  0  0  0  0
   34.1010   25.4900   44.9690 H   0  0  0  0  0  0  0  0  0  0  0  0
   34.6450   24.1230   46.4740 C   0  0  0  0  0  0  0  0  0  0  0  0
   35.7210   23.8240   45.6800 C   0  0  0  0  0  0  0  0  0  0  0  0
   36.5330   22.8010   46.1030 C   0  0  0  0  0  0  0  0  0  0  0  0
   36.3310   22.0950   47.2270 N   0  0  0  0  0  0  0  0  0  0  0  0
   35.2460   22.4320   47.9790 C   0  0  0  0  0  0  0  0  0  0  0  0
   35.0740   21.8720   48.8850 H   0  0  0  0  0  0  0  0  0  0  0  0
   34.4340   23.4290   47.5930 N   0  0  0  0  0  0  0  0  0  0  0  0
  1 15  1  0  0  0  0
  1  2  1  0  0  0  0
  2  7  1  0  0  0  0
  3  2  2  0  0  0  0
  3  8  1  0  0  0  0
  4  3  1  0  0  0  0
  5  6  1  0  0  0  0
  5  4  2  0  0  0  0
  6  1  2  0  0  0  0
  9  4  1  0  0  0  0
 10  5  1  0  0  0  0
 11 17  1  0  0  0  0
 12 19  1  0  0  0  0
 12 11  2  0  0  0  0
 13 12  1  0  0  0  0
 14 13  2  0  0  0  0
 14 15  1  0  0  0  0
 15 16  2  0  0  0  0
 16 11  1  0  0  0  0
 18 13  1  0  0  0  0
 19 22  1  0  0  0  0
 19 21  1  0  0  0  0
 20 19  1  0  0  0  0
 23 25  1  0  0  0  0
 23  6  1  0  0  0  0
 24 23  1  0  0  0  0
 26 29  1  0  0  0  0
 26 23  1  0  0  0  0
 27 26  1  0  0  0  0
 28 26  1  0  0  0  0
 29 35  1  0  0  0  0
 30 31  1  0  0  0  0
 30 29  2  0  0  0  0
 31 32  2  0  0  0  0
 32 33  1  0  0  0  0
 33 34  1  0  0  0  0
 35 33  2  0  0  0  0
M  END
>  <minimizedAffinity>
-5.20180893

>  <minimizedRMSD>
1.46370161

$$$$
