
 OpenBabel03252513373D

 29 30  0  0  0  0  0  0  0  0999 V2000
   36.9040   29.9420   49.8910 C   0  0  0  0  0  0  0  0  0  0  0  0
   38.0070   30.6340   49.4070 C   0  0  0  0  0  0  0  0  0  0  0  0
   37.9820   31.0870   48.0850 C   0  0  0  0  0  0  0  0  0  0  0  0
   36.8820   30.8260   47.3480 N   0  0  0  0  0  0  0  0  0  0  0  0
   35.8240   30.1440   47.8620 C   0  0  0  0  0  0  0  0  0  0  0  0
   35.8500   29.7150   49.1170 N   0  0  0  0  0  0  0  0  0  0  0  0
   39.0630   31.7930   47.5340 N   0  0  0  0  0  0  0  0  0  0  0  0
   38.9520   32.5290   46.3450 C   0  0  0  0  0  0  0  0  0  0  0  0
   37.8530   32.4540   45.6900 N   0  0  0  0  0  0  0  0  0  0  0  0
   40.0340   33.3280   45.8950 N   0  0  0  0  0  0  0  0  0  0  0  0
   37.7850   32.9360   44.7540 H   0  0  0  0  0  0  0  0  0  0  0  0
   38.8760   30.8240   50.0360 H   0  0  0  0  0  0  0  0  0  0  0  0
   39.9990   31.7670   48.0360 H   0  0  0  0  0  0  0  0  0  0  0  0
   40.8860   33.4440   46.4730 H   0  0  0  0  0  0  0  0  0  0  0  0
   40.0280   33.8290   44.9800 H   0  0  0  0  0  0  0  0  0  0  0  0
   34.6470   29.8470   47.1230 N   0  0  0  0  0  0  0  0  0  0  0  0
   34.3590   30.1390   45.8430 C   0  0  0  0  0  0  0  0  0  0  0  0
   33.1480   29.7620   45.2990 C   0  0  0  0  0  0  0  0  0  0  0  0
   32.8720   30.1050   43.8800 C   0  0  0  0  0  0  0  0  0  0  0  0
   32.2410   29.0860   46.0750 C   0  0  0  0  0  0  0  0  0  0  0  0
   31.1290   28.7330   45.5950 O   0  0  0  0  0  0  0  0  0  0  0  0
   32.5460   28.8010   47.3570 N   0  0  0  0  0  0  0  0  0  0  0  0
   33.7280   29.1740   47.8740 C   0  0  0  0  0  0  0  0  0  0  0  0
   33.8880   28.8440   49.0920 O   0  0  0  0  0  0  0  0  0  0  0  0
   31.8210   28.2850   47.9050 H   0  0  0  0  0  0  0  0  0  0  0  0
   36.9300   29.4510   51.3200 C   0  0  0  0  0  0  0  0  0  0  0  0
   35.6390   29.1510   51.7190 F   0  0  0  0  0  0  0  0  0  0  0  0
   37.7990   28.4040   51.3900 F   0  0  0  0  0  0  0  0  0  0  0  0
   37.3910   30.5100   52.0980 F   0  0  0  0  0  0  0  0  0  0  0  0
  1 26  1  0  0  0  0
  2  1  1  0  0  0  0
  2 12  1  0  0  0  0
  3  2  2  0  0  0  0
  4  5  2  0  0  0  0
  4  3  1  0  0  0  0
  5  6  1  0  0  0  0
  6  1  2  0  0  0  0
  7 13  1  0  0  0  0
  7  3  1  0  0  0  0
  8  7  1  0  0  0  0
  9  8  2  0  0  0  0
 10  8  1  0  0  0  0
 10 14  1  0  0  0  0
 11  9  1  0  0  0  0
 15 10  1  0  0  0  0
 16  5  1  0  0  0  0
 16 23  1  0  0  0  0
 17 16  1  0  0  0  0
 18 17  2  0  0  0  0
 18 20  1  0  0  0  0
 19 18  1  0  0  0  0
 20 22  1  0  0  0  0
 21 20  2  0  0  0  0
 22 23  1  0  0  0  0
 22 25  1  0  0  0  0
 23 24  2  0  0  0  0
 26 28  1  0  0  0  0
 26 27  1  0  0  0  0
 26 29  1  0  0  0  0
M  END
>  <minimizedAffinity>
-7.48958206

>  <minimizedRMSD>
0.0908715129

$$$$
