
 OpenBabel03252510033D

 28 29  0  0  0  0  0  0  0  0999 V2000
   39.4570   32.2680   46.0790 C   0  0  0  0  0  0  0  0  0  0  0  0
   38.2120   32.6080   49.6580 C   0  0  0  0  0  0  0  0  0  0  0  0
   38.8220   32.9600   48.4360 C   0  0  0  0  0  0  0  0  0  0  0  0
   38.8530   32.0230   47.3990 C   0  0  0  0  0  0  0  0  0  0  0  0
   38.2800   30.8030   47.6360 N   0  0  0  0  0  0  0  0  0  0  0  0
   37.7060   30.5020   48.8170 C   0  0  0  0  0  0  0  0  0  0  0  0
   37.6700   31.3950   49.8250 N   0  0  0  0  0  0  0  0  0  0  0  0
   38.2360   33.3860   50.3940 H   0  0  0  0  0  0  0  0  0  0  0  0
   39.2880   33.8760   48.1640 H   0  0  0  0  0  0  0  0  0  0  0  0
   37.2500   29.5400   49.0150 H   0  0  0  0  0  0  0  0  0  0  0  0
   40.3320   31.0640   45.7560 C   0  0  0  0  0  0  0  0  0  0  0  0
   41.1510   31.0880   46.5100 H   0  0  0  0  0  0  0  0  0  0  0  0
   39.7950   30.1170   45.8790 H   0  0  0  0  0  0  0  0  0  0  0  0
   40.8300   31.1610   44.7730 H   0  0  0  0  0  0  0  0  0  0  0  0
   40.2690   33.5160   45.9930 C   0  0  0  0  0  0  0  0  0  0  0  0
   41.1040   33.4400   46.7100 H   0  0  0  0  0  0  0  0  0  0  0  0
   39.6530   34.3850   46.3290 H   0  0  0  0  0  0  0  0  0  0  0  0
   40.6270   33.6350   44.9720 H   0  0  0  0  0  0  0  0  0  0  0  0
   38.3480   32.3340   45.0660 C   0  0  0  0  0  0  0  0  0  0  0  0
   37.9930   33.3960   44.9660 H   0  0  0  0  0  0  0  0  0  0  0  0
   37.4230   31.7980   45.4310 H   0  0  0  0  0  0  0  0  0  0  0  0
   38.6880   31.7260   43.7610 C   0  0  0  0  0  0  0  0  0  0  0  0
   38.1450   30.4970   43.4270 C   0  0  0  0  0  0  0  0  0  0  0  0
   38.4300   29.8850   42.2200 C   0  0  0  0  0  0  0  0  0  0  0  0
   39.2530   30.4650   41.3130 N   0  0  0  0  0  0  0  0  0  0  0  0
   39.7730   31.6680   41.6590 C   0  0  0  0  0  0  0  0  0  0  0  0
   40.4450   32.2890   41.0810 H   0  0  0  0  0  0  0  0  0  0  0  0
   39.5000   32.2650   42.8280 N   0  0  0  0  0  0  0  0  0  0  0  0
  1  4  1  0  0  0  0
  2  7  1  0  0  0  0
  2  8  1  0  0  0  0
  3  2  2  0  0  0  0
  4  5  2  0  0  0  0
  4  3  1  0  0  0  0
  5  6  1  0  0  0  0
  6 10  1  0  0  0  0
  6  7  2  0  0  0  0
  9  3  1  0  0  0  0
 11 13  1  0  0  0  0
 11  1  1  0  0  0  0
 11 12  1  0  0  0  0
 14 11  1  0  0  0  0
 15  1  1  0  0  0  0
 15 17  1  0  0  0  0
 15 16  1  0  0  0  0
 18 15  1  0  0  0  0
 19 21  1  0  0  0  0
 19  1  1  0  0  0  0
 20 19  1  0  0  0  0
 22 19  1  0  0  0  0
 23 22  1  0  0  0  0
 24 23  2  0  0  0  0
 25 26  2  0  0  0  0
 25 24  1  0  0  0  0
 26 28  1  0  0  0  0
 27 26  1  0  0  0  0
 28 22  2  0  0  0  0
M  END
>  <minimizedAffinity>
-4.62415934

>  <minimizedRMSD>
1.31716681

$$$$
