
 OpenBabel03252512283D

 31 32  0  0  1  0  0  0  0  0999 V2000
   34.9780   29.3830   48.5530 C   0  0  0  0  0  0  0  0  0  0  0  0
   34.4310   28.2340   49.1280 C   0  0  0  0  0  0  0  0  0  0  0  0
   33.3540   27.6910   48.5270 C   0  0  0  0  0  0  0  0  0  0  0  0
   32.8760   28.2670   47.4400 C   0  0  0  0  0  0  0  0  0  0  0  0
   33.9330   29.7170   47.1080 S   0  0  0  0  0  0  0  0  0  0  0  0
   34.9280   27.8540   50.0370 H   0  0  0  0  0  0  0  0  0  0  0  0
   32.8680   26.7980   48.9070 H   0  0  0  0  0  0  0  0  0  0  0  0
   37.7300   30.5880   50.6610 C   0  0  0  0  0  0  0  0  0  0  0  0
   38.3410   31.5690   49.8690 C   0  0  0  0  0  0  0  0  0  0  0  0
   37.7960   31.7970   48.6320 C   0  0  0  0  0  0  0  0  0  0  0  0
   36.7120   31.0800   48.2350 N   0  0  0  0  0  0  0  0  0  0  0  0
   36.1720   30.1650   49.0180 C   0  0  0  0  0  0  0  0  0  0  0  0
   36.6390   29.8640   50.2630 N   0  0  0  0  0  0  0  0  0  0  0  0
   38.0990   30.3370   51.6660 H   0  0  0  0  0  0  0  0  0  0  0  0
   39.1860   32.0980   50.2290 H   0  0  0  0  0  0  0  0  0  0  0  0
   38.2160   32.5430   47.9630 H   0  0  0  0  0  0  0  0  0  0  0  0
   31.7390   27.9160   46.5550 C   0  0  2  0  0  0  0  0  0  0  0  0
   31.6330   26.7930   46.5900 H   0  0  0  0  0  0  0  0  0  0  0  0
   31.9990   28.3510   45.1840 C   0  0  0  0  0  0  0  0  0  0  0  0
   31.7230   27.5590   44.4430 H   0  0  0  0  0  0  0  0  0  0  0  0
   33.0760   28.6290   45.0370 H   0  0  0  0  0  0  0  0  0  0  0  0
   31.3600   29.2400   44.9240 H   0  0  0  0  0  0  0  0  0  0  0  0
   30.4680   28.4550   47.1740 C   0  0  0  0  0  0  0  0  0  0  0  0
   30.6320   29.4220   47.6850 H   0  0  0  0  0  0  0  0  0  0  0  0
   29.7910   28.7170   46.3090 H   0  0  0  0  0  0  0  0  0  0  0  0
   29.8450   27.5630   47.9820 O   0  0  0  0  0  0  0  0  0  0  0  0
   29.3610   27.9180   49.2200 C   0  0  0  0  0  0  0  0  0  0  0  0
   30.1730   28.6040   50.1670 N   0  0  0  0  0  0  0  0  0  0  0  0
   28.1950   27.6830   49.6310 O   0  0  0  0  0  0  0  0  0  0  0  0
   30.0470   28.5520   51.2020 H   0  0  0  0  0  0  0  0  0  0  0  0
   30.9820   29.2470   50.2310 H   0  0  0  0  0  0  0  0  0  0  0  0
  1 12  1  0  0  0  0
  1  2  2  0  0  0  0
  2  6  1  0  0  0  0
  3  7  1  0  0  0  0
  3  2  1  0  0  0  0
  4  3  2  0  0  0  0
  5  4  1  0  0  0  0
  5  1  1  0  0  0  0
  8 14  1  0  0  0  0
  9 15  1  0  0  0  0
  9  8  2  0  0  0  0
 10  9  1  0  0  0  0
 11 10  2  0  0  0  0
 11 12  1  0  0  0  0
 12 13  2  0  0  0  0
 13  8  1  0  0  0  0
 16 10  1  0  0  0  0
 17 18  1  6  0  0  0
 17 23  1  0  0  0  0
 17  4  1  0  0  0  0
 19 17  1  0  0  0  0
 20 19  1  0  0  0  0
 21 19  1  0  0  0  0
 22 19  1  0  0  0  0
 23 24  1  0  0  0  0
 23 26  1  0  0  0  0
 25 23  1  0  0  0  0
 26 27  1  0  0  0  0
 27 29  2  0  0  0  0
 27 28  1  0  0  0  0
 28 31  1  0  0  0  0
 28 30  1  0  0  0  0
M  END
>  <minimizedAffinity>
-4.79795122

>  <minimizedRMSD>
2.17930722

$$$$
