
 OpenBabel03252513523D

 37 38  0  0  1  0  0  0  0  0999 V2000
   37.7920   30.9930   46.7620 C   0  0  0  0  0  0  0  0  0  0  0  0
   38.4180   31.0220   47.8520 O   0  0  0  0  0  0  0  0  0  0  0  0
   38.4870   31.5840   45.6600 N   0  0  0  0  0  0  0  0  0  0  0  0
   38.4520   30.8300   44.4150 C   0  0  0  0  0  0  0  0  0  0  0  0
   39.5340   31.2820   43.4660 C   0  0  0  0  0  0  0  0  0  0  0  0
   40.6220   31.6670   44.2270 O   0  0  0  0  0  0  0  0  0  0  0  0
   40.3180   32.9270   44.7580 C   0  0  0  0  0  0  0  0  0  0  0  0
   39.1890   32.8480   45.7390 C   0  0  2  0  0  0  0  0  0  0  0  0
   38.4310   29.7540   44.5860 H   0  0  0  0  0  0  0  0  0  0  0  0
   37.4700   31.1020   43.9460 H   0  0  0  0  0  0  0  0  0  0  0  0
   39.8020   30.4020   42.8320 H   0  0  0  0  0  0  0  0  0  0  0  0
   39.1800   32.0940   42.7930 H   0  0  0  0  0  0  0  0  0  0  0  0
   41.2710   33.2910   45.2010 H   0  0  0  0  0  0  0  0  0  0  0  0
   40.0980   33.6580   43.9320 H   0  0  0  0  0  0  0  0  0  0  0  0
   38.5370   33.7270   45.6350 H   0  0  0  0  0  0  0  0  0  0  0  0
   34.5470   29.3820   47.7710 C   0  0  0  0  0  0  0  0  0  0  0  0
   35.8420   29.9710   47.8660 C   0  0  0  0  0  0  0  0  0  0  0  0
   36.4710   30.3880   46.7110 C   0  0  0  0  0  0  0  0  0  0  0  0
   35.8010   30.2040   45.5430 N   0  0  0  0  0  0  0  0  0  0  0  0
   34.5910   29.6510   45.4880 C   0  0  0  0  0  0  0  0  0  0  0  0
   33.9790   29.2490   46.5790 N   0  0  0  0  0  0  0  0  0  0  0  0
   36.3350   30.0940   48.8400 H   0  0  0  0  0  0  0  0  0  0  0  0
   34.0100   29.5320   44.1120 C   0  0  0  0  0  0  0  0  0  0  0  0
   33.7360   30.8010   43.5900 F   0  0  0  0  0  0  0  0  0  0  0  0
   34.9480   28.9730   43.2570 F   0  0  0  0  0  0  0  0  0  0  0  0
   32.8900   28.7120   44.0710 F   0  0  0  0  0  0  0  0  0  0  0  0
   33.9340   28.9710   48.9480 O   0  0  0  0  0  0  0  0  0  0  0  0
   34.0840   29.5990   50.1790 C   0  0  0  0  0  0  0  0  0  0  0  0
   35.0320   29.0210   50.9870 F   0  0  0  0  0  0  0  0  0  0  0  0
   34.2530   30.9590   50.1100 F   0  0  0  0  0  0  0  0  0  0  0  0
   32.8360   29.3890   50.8180 F   0  0  0  0  0  0  0  0  0  0  0  0
   39.8180   32.8150   47.0190 O   0  0  0  0  0  0  0  0  0  0  0  0
   39.6500   33.8380   47.9430 C   0  0  0  0  0  0  0  0  0  0  0  0
   38.5200   33.8540   48.8180 N   0  0  0  0  0  0  0  0  0  0  0  0
   40.5190   34.7420   47.9810 O   0  0  0  0  0  0  0  0  0  0  0  0
   38.4610   34.1280   49.8160 H   0  0  0  0  0  0  0  0  0  0  0  0
   37.6220   33.5460   48.4040 H   0  0  0  0  0  0  0  0  0  0  0  0
  1  2  2  0  0  0  0
  3  8  1  0  0  0  0
  3  1  1  0  0  0  0
  4  9  1  0  0  0  0
  4  3  1  0  0  0  0
  5  6  1  0  0  0  0
  5  4  1  0  0  0  0
  6  7  1  0  0  0  0
  7 13  1  0  0  0  0
  7  8  1  0  0  0  0
  8 15  1  6  0  0  0
  8 32  1  0  0  0  0
 10  4  1  0  0  0  0
 11  5  1  0  0  0  0
 12  5  1  0  0  0  0
 14  7  1  0  0  0  0
 16 17  1  0  0  0  0
 16 27  1  0  0  0  0
 17 22  1  0  0  0  0
 18  1  1  0  0  0  0
 18 17  2  0  0  0  0
 19 18  1  0  0  0  0
 20 19  2  0  0  0  0
 20 21  1  0  0  0  0
 21 16  2  0  0  0  0
 23 20  1  0  0  0  0
 24 23  1  0  0  0  0
 25 23  1  0  0  0  0
 26 23  1  0  0  0  0
 27 28  1  0  0  0  0
 28 31  1  0  0  0  0
 28 29  1  0  0  0  0
 30 28  1  0  0  0  0
 32 33  1  0  0  0  0
 33 35  2  0  0  0  0
 33 34  1  0  0  0  0
 34 36  1  0  0  0  0
 37 34  1  0  0  0  0
M  END
>  <minimizedAffinity>
-5.26273966

>  <minimizedRMSD>
0.768175721

$$$$
