
 OpenBabel03252513033D

 27 28  0  0  0  0  0  0  0  0999 V2000
   37.3540   31.1410   47.1220 C   0  0  0  0  0  0  0  0  0  0  0  0
   36.6110   31.8530   47.5870 H   0  0  0  0  0  0  0  0  0  0  0  0
   36.7110   30.5040   46.4500 H   0  0  0  0  0  0  0  0  0  0  0  0
   38.2210   31.9300   46.3240 N   0  0  0  0  0  0  0  0  0  0  0  0
   39.3230   32.5950   46.6280 C   0  0  0  0  0  0  0  0  0  0  0  0
   40.0750   33.3330   45.7540 C   0  0  0  0  0  0  0  0  0  0  0  0
   39.6910   33.4160   44.4460 C   0  0  0  0  0  0  0  0  0  0  0  0
   40.3330   34.0740   43.5940 O   0  0  0  0  0  0  0  0  0  0  0  0
   38.5940   32.7630   44.1040 N   0  0  0  0  0  0  0  0  0  0  0  0
   37.8880   32.0530   44.9900 C   0  0  0  0  0  0  0  0  0  0  0  0
   36.8580   31.4710   44.5470 O   0  0  0  0  0  0  0  0  0  0  0  0
   39.6150   32.5170   47.6830 H   0  0  0  0  0  0  0  0  0  0  0  0
   40.9560   33.8330   46.1190 H   0  0  0  0  0  0  0  0  0  0  0  0
   38.1680   32.8390   42.7110 C   0  0  0  0  0  0  0  0  0  0  0  0
   37.7810   33.8450   42.4490 H   0  0  0  0  0  0  0  0  0  0  0  0
   37.9250   30.3090   48.1890 C   0  0  0  0  0  0  0  0  0  0  0  0
   38.2490   29.3390   47.7070 H   0  0  0  0  0  0  0  0  0  0  0  0
   38.8430   30.6970   48.6530 H   0  0  0  0  0  0  0  0  0  0  0  0
   34.8430   29.1890   50.0640 C   0  0  0  0  0  0  0  0  0  0  0  0
   35.6950   29.5520   48.9860 C   0  0  0  0  0  0  0  0  0  0  0  0
   36.9990   29.9250   49.2580 C   0  0  0  0  0  0  0  0  0  0  0  0
   37.3940   29.9200   50.5600 N   0  0  0  0  0  0  0  0  0  0  0  0
   36.5970   29.5810   51.5620 C   0  0  0  0  0  0  0  0  0  0  0  0
   35.3280   29.2160   51.3270 N   0  0  0  0  0  0  0  0  0  0  0  0
   33.8120   28.8900   49.8830 H   0  0  0  0  0  0  0  0  0  0  0  0
   35.3170   29.5330   47.9730 H   0  0  0  0  0  0  0  0  0  0  0  0
   37.0850   29.6370   52.5360 H   0  0  0  0  0  0  0  0  0  0  0  0
  1  2  1  0  0  0  0
  1 16  1  0  0  0  0
  3  1  1  0  0  0  0
  4  5  1  0  0  0  0
  4  1  1  0  0  0  0
  5 12  1  0  0  0  0
  6 13  1  0  0  0  0
  6  5  2  0  0  0  0
  7  6  1  0  0  0  0
  8  7  2  0  0  0  0
  9  7  1  0  0  0  0
  9 10  1  0  0  0  0
 10  4  1  0  0  0  0
 11 10  2  0  0  0  0
 14  9  1  0  0  0  0
 15 14  1  0  0  0  0
 16 18  1  0  0  0  0
 16 21  1  0  0  0  0
 17 16  1  0  0  0  0
 19 24  1  0  0  0  0
 20 21  1  0  0  0  0
 20 19  2  0  0  0  0
 21 22  2  0  0  0  0
 22 23  1  0  0  0  0
 23 27  1  0  0  0  0
 24 23  2  0  0  0  0
 25 19  1  0  0  0  0
 26 20  1  0  0  0  0
M  END
>  <minimizedAffinity>
-4.77872419

>  <minimizedRMSD>
0.275698334

$$$$
