
 OpenBabel03252510103D

 42 45  0  0  1  0  0  0  0  0999 V2000
   38.3450   32.3870   44.9140 C   0  0  0  0  0  0  0  0  0  0  0  0
   37.3780   31.8720   45.1910 H   0  0  0  0  0  0  0  0  0  0  0  0
   38.0930   33.4450   44.8560 H   0  0  0  0  0  0  0  0  0  0  0  0
   38.8310   31.8440   43.6050 C   0  0  0  0  0  0  0  0  0  0  0  0
   39.1900   32.7530   42.5630 C   0  0  0  0  0  0  0  0  0  0  0  0
   39.6930   31.5910   41.2480 S   0  0  0  0  0  0  0  0  0  0  0  0
   39.3320   30.0790   42.3320 C   0  0  0  0  0  0  0  0  0  0  0  0
   38.9790   30.5890   43.2750 N   0  0  0  0  0  0  0  0  0  0  0  0
   39.4850   28.6810   41.9920 N   0  0  0  0  0  0  0  0  0  0  0  0
   39.1890   27.6630   42.7960 C   0  0  0  0  0  0  0  0  0  0  0  0
   39.4640   26.5160   42.1350 N   0  0  0  0  0  0  0  0  0  0  0  0
   39.9280   26.8850   40.9230 C   0  0  0  0  0  0  0  0  0  0  0  0
   40.3500   26.0740   39.8650 C   0  0  0  0  0  0  0  0  0  0  0  0
   40.7750   26.6940   38.7370 N   0  0  0  0  0  0  0  0  0  0  0  0
   40.7840   28.0460   38.6580 C   0  0  0  0  0  0  0  0  0  0  0  0
   40.3770   28.8570   39.6770 N   0  0  0  0  0  0  0  0  0  0  0  0
   39.9500   28.2810   40.8100 C   0  0  0  0  0  0  0  0  0  0  0  0
   39.2010   33.8010   42.4740 H   0  0  0  0  0  0  0  0  0  0  0  0
   38.8000   27.8190   43.7940 H   0  0  0  0  0  0  0  0  0  0  0  0
   41.1200   28.5560   37.7660 H   0  0  0  0  0  0  0  0  0  0  0  0
   40.3310   24.6540   39.9870 N   0  0  0  0  0  0  0  0  0  0  0  0
   40.5820   24.3010   40.9370 H   0  0  0  0  0  0  0  0  0  0  0  0
   40.0710   24.1700   39.1200 H   0  0  0  0  0  0  0  0  0  0  0  0
   39.2860   32.1390   46.0460 C   0  0  1  0  0  0  0  0  0  0  0  0
   37.9400   32.8000   49.5400 C   0  0  0  0  0  0  0  0  0  0  0  0
   38.7540   32.9300   48.4020 C   0  0  0  0  0  0  0  0  0  0  0  0
   38.5200   32.1180   47.3020 C   0  0  0  0  0  0  0  0  0  0  0  0
   37.4730   31.2070   47.3950 N   0  0  0  0  0  0  0  0  0  0  0  0
   36.7090   31.1030   48.4940 C   0  0  0  0  0  0  0  0  0  0  0  0
   36.9290   31.8840   49.5620 N   0  0  0  0  0  0  0  0  0  0  0  0
   38.1320   33.4400   50.3940 H   0  0  0  0  0  0  0  0  0  0  0  0
   39.5540   33.6230   48.3270 H   0  0  0  0  0  0  0  0  0  0  0  0
   35.9090   30.3700   48.4950 H   0  0  0  0  0  0  0  0  0  0  0  0
   39.8960   30.7540   45.8830 C   0  0  0  0  0  0  0  0  0  0  0  0
   40.7030   30.8270   45.1070 H   0  0  0  0  0  0  0  0  0  0  0  0
   39.1180   30.0510   45.5560 H   0  0  0  0  0  0  0  0  0  0  0  0
   40.3090   30.3650   46.8460 H   0  0  0  0  0  0  0  0  0  0  0  0
   40.3650   33.1510   46.0310 C   0  0  0  0  0  0  0  0  0  0  0  0
   40.7530   33.3660   47.0650 H   0  0  0  0  0  0  0  0  0  0  0  0
   41.2370   32.7670   45.4800 H   0  0  0  0  0  0  0  0  0  0  0  0
   39.8800   34.3400   45.4890 O   0  0  0  0  0  0  0  0  0  0  0  0
   40.6540   34.9400   45.2880 H   0  0  0  0  0  0  0  0  0  0  0  0
  1  2  1  0  0  0  0
  3  1  1  0  0  0  0
  4  1  1  0  0  0  0
  5  4  2  0  0  0  0
  6  7  1  0  0  0  0
  6  5  1  0  0  0  0
  7  8  2  0  0  0  0
  8  4  1  0  0  0  0
  9  7  1  0  0  0  0
  9 10  1  0  0  0  0
 10 19  1  0  0  0  0
 11 10  2  0  0  0  0
 12 11  1  0  0  0  0
 13 21  1  0  0  0  0
 13 12  2  0  0  0  0
 14 13  1  0  0  0  0
 15 14  2  0  0  0  0
 15 16  1  0  0  0  0
 16 17  2  0  0  0  0
 17 12  1  0  0  0  0
 17  9  1  0  0  0  0
 18  5  1  0  0  0  0
 20 15  1  0  0  0  0
 21 22  1  0  0  0  0
 23 21  1  0  0  0  0
 24  1  1  6  0  0  0
 24 27  1  0  0  0  0
 25 30  1  0  0  0  0
 25 31  1  0  0  0  0
 26 25  2  0  0  0  0
 27 28  2  0  0  0  0
 27 26  1  0  0  0  0
 28 29  1  0  0  0  0
 29 33  1  0  0  0  0
 29 30  2  0  0  0  0
 32 26  1  0  0  0  0
 34 24  1  0  0  0  0
 34 37  1  0  0  0  0
 35 34  1  0  0  0  0
 36 34  1  0  0  0  0
 38 24  1  0  0  0  0
 38 39  1  0  0  0  0
 40 38  1  0  0  0  0
 41 38  1  0  0  0  0
 42 41  1  0  0  0  0
M  END
>  <minimizedAffinity>
-5.91391325

>  <minimizedRMSD>
0.214125112

$$$$
