
 OpenBabel03252514043D

 43 47  0  0  1  0  0  0  0  0999 V2000
   33.0230   28.1540   47.3010 O   0  0  0  0  0  0  0  0  0  0  0  0
   31.7470   28.1850   47.7740 C   0  0  0  0  0  0  0  0  0  0  0  0
   31.3310   27.6780   49.0890 C   0  0  0  0  0  0  0  0  0  0  0  0
   30.0340   27.7580   49.4720 C   0  0  0  0  0  0  0  0  0  0  0  0
   29.0750   28.3310   48.5980 C   0  0  0  0  0  0  0  0  0  0  0  0
   30.1000   28.8020   47.0920 S   0  0  0  0  0  0  0  0  0  0  0  0
   32.0980   27.2500   49.7170 H   0  0  0  0  0  0  0  0  0  0  0  0
   29.6690   27.4110   50.4080 H   0  0  0  0  0  0  0  0  0  0  0  0
   27.7250   28.5210   48.7560 N   0  0  0  0  0  0  0  0  0  0  0  0
   26.9250   27.4330   48.9490 C   0  0  0  0  0  3  0  0  0  0  0  0
   25.6470   27.7690   49.0860 N   0  0  0  0  0  0  0  0  0  0  0  0
   25.5750   29.1220   48.9840 C   0  0  0  0  0  0  0  0  0  0  0  0
   24.6090   30.1150   49.0260 C   0  0  0  0  0  0  0  0  0  0  0  0
   23.4200   29.7290   49.2120 O   0  0  0  0  0  0  0  0  0  0  0  0
   24.9500   31.4130   48.8750 N   0  0  0  0  0  0  0  0  0  0  0  0
   26.2260   31.8090   48.6780 C   0  0  0  0  0  0  0  0  0  0  0  0
   26.4030   33.2130   48.5400 N   0  0  0  0  0  0  0  0  0  0  0  0
   27.1990   30.8530   48.6320 N   0  0  0  0  0  0  0  0  0  0  0  0
   26.8690   29.5590   48.7810 C   0  0  0  0  0  0  0  0  0  0  0  0
   24.1130   32.0560   48.9300 H   0  0  0  0  0  0  0  0  0  0  0  0
   26.1260   33.4390   47.5500 H   0  0  0  0  0  0  0  0  0  0  0  0
   26.7420   33.8900   49.2730 H   0  0  0  0  0  0  0  0  0  0  0  0
   34.0900   27.5610   47.9550 C   0  0  0  0  0  0  0  0  0  0  0  0
   34.4330   26.3550   47.6550 O   0  0  0  0  0  0  0  0  0  0  0  0
   35.7000   29.4940   48.6430 C   0  0  2  0  0  0  0  0  0  0  0  0
   34.5160   29.4740   49.4950 C   0  0  0  0  0  0  0  0  0  0  0  0
   34.9390   28.1850   49.0400 C   0  0  1  0  0  0  0  0  0  0  0  0
   35.6720   29.7790   47.5910 H   0  0  0  0  0  0  0  0  0  0  0  0
   34.6710   29.7690   50.5750 H   0  0  0  0  0  0  0  0  0  0  0  0
   33.5430   29.9290   49.1430 H   0  0  0  0  0  0  0  0  0  0  0  0
   35.5720   27.4960   49.6110 H   0  0  0  0  0  0  0  0  0  0  0  0
   37.0560   29.5590   49.3660 C   0  0  0  0  0  0  0  0  0  0  0  0
   36.9080   29.5640   50.4620 H   0  0  0  0  0  0  0  0  0  0  0  0
   37.6660   28.6750   49.1180 H   0  0  0  0  0  0  0  0  0  0  0  0
   38.3650   32.9680   49.3740 C   0  0  0  0  0  0  0  0  0  0  0  0
   39.0070   33.0540   48.1220 C   0  0  0  0  0  0  0  0  0  0  0  0
   38.9750   31.9140   47.2870 C   0  0  0  0  0  0  0  0  0  0  0  0
   38.3240   30.8010   47.7470 N   0  0  0  0  0  0  0  0  0  0  0  0
   37.7310   30.7730   48.9410 C   0  0  0  0  0  0  0  0  0  0  0  0
   37.7550   31.8540   49.7470 N   0  0  0  0  0  0  0  0  0  0  0  0
   38.3930   33.8500   50.0130 H   0  0  0  0  0  0  0  0  0  0  0  0
   39.5150   33.9660   47.7980 H   0  0  0  0  0  0  0  0  0  0  0  0
   39.4630   31.9590   46.3200 H   0  0  0  0  0  0  0  0  0  0  0  0
  1  2  1  0  0  0  0
  1 23  1  0  0  0  0
  2  3  2  0  0  0  0
  3  4  1  0  0  0  0
  3  7  1  0  0  0  0
  4  8  1  0  0  0  0
  5  9  1  0  0  0  0
  5  4  2  0  0  0  0
  6  2  1  0  0  0  0
  6  5  1  0  0  0  0
  9 19  1  0  0  0  0
  9 10  1  0  0  0  0
 10 11  2  0  0  0  0
 12 13  1  0  0  0  0
 12 11  1  0  0  0  0
 13 14  2  0  0  0  0
 15 20  1  0  0  0  0
 15 13  1  0  0  0  0
 16 15  1  0  0  0  0
 17 16  1  0  0  0  0
 17 22  1  0  0  0  0
 18 16  2  0  0  0  0
 18 19  1  0  0  0  0
 19 12  2  0  0  0  0
 21 17  1  0  0  0  0
 23 27  1  0  0  0  0
 24 23  2  0  0  0  0
 25 28  1  6  0  0  0
 25 27  1  0  0  0  0
 25 32  1  0  0  0  0
 25 26  1  0  0  0  0
 26 29  1  0  0  0  0
 27 26  1  0  0  0  0
 27 31  1  1  0  0  0
 30 26  1  0  0  0  0
 32 33  1  0  0  0  0
 34 32  1  0  0  0  0
 35 40  1  0  0  0  0
 35 41  1  0  0  0  0
 36 35  2  0  0  0  0
 37 38  2  0  0  0  0
 37 36  1  0  0  0  0
 38 39  1  0  0  0  0
 39 32  1  0  0  0  0
 39 40  2  0  0  0  0
 42 36  1  0  0  0  0
 43 37  1  0  0  0  0
M  END
>  <minimizedAffinity>
-6.36483288

>  <minimizedRMSD>
2.11291814

$$$$
