
 OpenBabel03252512163D

 45 50  0  0  0  0  0  0  0  0999 V2000
   32.2230   29.6320   46.2250 C   0  0  0  0  0  0  0  0  0  0  0  0
   32.0360   28.2430   46.2250 C   0  0  0  0  0  0  0  0  0  0  0  0
   33.0730   27.4540   46.7690 C   0  0  0  0  0  0  0  0  0  0  0  0
   34.1750   28.0510   47.2570 N   0  0  0  0  0  0  0  0  0  0  0  0
   34.3220   29.4040   47.2390 C   0  0  0  0  0  0  0  0  0  0  0  0
   33.3490   30.1860   46.7260 N   0  0  0  0  0  0  0  0  0  0  0  0
   31.4140   30.1920   45.8040 H   0  0  0  0  0  0  0  0  0  0  0  0
   31.1700   27.7340   45.8440 H   0  0  0  0  0  0  0  0  0  0  0  0
   32.9300   26.0010   46.7920 C   0  0  0  0  0  0  0  0  0  0  0  0
   33.9570   25.2300   47.2620 C   0  0  0  0  0  0  0  0  0  0  0  0
   33.7340   23.8800   47.2410 C   0  0  0  0  0  0  0  0  0  0  0  0
   32.5900   23.3310   46.7920 N   0  0  0  0  0  0  0  0  0  0  0  0
   31.5710   24.1200   46.3240 C   0  0  0  0  0  0  0  0  0  0  0  0
   31.7900   25.4600   46.3440 N   0  0  0  0  0  0  0  0  0  0  0  0
   34.8880   25.6240   47.6300 H   0  0  0  0  0  0  0  0  0  0  0  0
   34.5080   23.1860   47.6020 H   0  0  0  0  0  0  0  0  0  0  0  0
   30.3310   23.6270   45.8320 N   0  0  0  0  0  0  0  0  0  0  0  0
   29.3260   24.1700   45.1220 C   0  0  0  0  0  0  0  0  0  0  0  0
   28.3870   23.2200   44.9400 N   0  0  0  0  0  0  0  0  0  0  0  0
   28.8040   22.0790   45.5380 C   0  0  0  0  0  0  0  0  0  0  0  0
   28.1820   20.8710   45.6110 C   0  0  0  0  0  0  0  0  0  0  0  0
   27.0580   20.6610   45.0860 O   0  0  0  0  0  0  0  0  0  0  0  0
   28.7660   19.8390   46.2620 N   0  0  0  0  0  0  0  0  0  0  0  0
   29.9740   20.1100   46.8090 C   0  0  0  0  0  0  0  0  0  0  0  0
   30.6270   19.0460   47.5070 N   0  0  0  0  0  0  0  0  0  0  0  0
   30.6170   21.2820   46.7610 N   0  0  0  0  0  0  0  0  0  0  0  0
   30.0520   22.3210   46.1180 C   0  0  0  0  0  0  0  0  0  0  0  0
   28.3620   18.8760   46.3670 H   0  0  0  0  0  0  0  0  0  0  0  0
   30.7100   19.0160   48.5670 H   0  0  0  0  0  0  0  0  0  0  0  0
   31.1340   18.1560   47.4580 H   0  0  0  0  0  0  0  0  0  0  0  0
   35.5480   29.9470   47.7880 C   0  0  0  0  0  0  0  0  0  0  0  0
   36.5010   30.6300   47.0380 C   0  0  0  0  0  0  0  0  0  0  0  0
   37.5210   31.0120   47.8070 N   0  0  0  0  0  0  0  0  0  0  0  0
   37.2550   30.5860   49.0750 C   0  0  0  0  0  0  0  0  0  0  0  0
   37.9700   30.7120   50.2560 C   0  0  0  0  0  0  0  0  0  0  0  0
   37.4330   30.1620   51.4190 C   0  0  0  0  0  0  0  0  0  0  0  0
   36.2140   29.5130   51.3690 C   0  0  0  0  0  0  0  0  0  0  0  0
   35.4760   29.3740   50.1910 C   0  0  0  0  0  0  0  0  0  0  0  0
   36.0410   29.9300   49.0660 C   0  0  0  0  0  0  0  0  0  0  0  0
   36.4120   30.8220   45.9610 H   0  0  0  0  0  0  0  0  0  0  0  0
   38.3570   31.5430   47.4560 H   0  0  0  0  0  0  0  0  0  0  0  0
   38.9210   31.2260   50.2620 H   0  0  0  0  0  0  0  0  0  0  0  0
   37.9570   30.2350   52.3700 H   0  0  0  0  0  0  0  0  0  0  0  0
   35.7720   29.0750   52.2570 H   0  0  0  0  0  0  0  0  0  0  0  0
   34.5190   28.8590   50.1730 H   0  0  0  0  0  0  0  0  0  0  0  0
  1  6  1  0  0  0  0
  2  1  2  0  0  0  0
  2  3  1  0  0  0  0
  3  9  1  0  0  0  0
  3  4  2  0  0  0  0
  5  4  1  0  0  0  0
  5 31  1  0  0  0  0
  6  5  2  0  0  0  0
  7  1  1  0  0  0  0
  8  2  1  0  0  0  0
  9 10  1  0  0  0  0
 10 15  1  0  0  0  0
 11 10  2  0  0  0  0
 11 16  1  0  0  0  0
 12 11  1  0  0  0  0
 13 14  1  0  0  0  0
 13 12  2  0  0  0  0
 14  9  2  0  0  0  0
 17 27  1  0  0  0  0
 17 13  1  0  0  0  0
 18 17  1  0  0  0  0
 19 18  2  0  0  0  0
 19 20  1  0  0  0  0
 20 21  1  0  0  0  0
 20 27  2  0  0  0  0
 21 23  1  0  0  0  0
 22 21  2  0  0  0  0
 23 28  1  0  0  0  0
 23 24  1  0  0  0  0
 24 25  1  0  0  0  0
 25 29  1  0  0  0  0
 26 24  2  0  0  0  0
 27 26  1  0  0  0  0
 30 25  1  0  0  0  0
 31 39  1  0  0  0  0
 32 31  2  0  0  0  0
 32 33  1  0  0  0  0
 33 34  1  0  0  0  0
 34 35  1  0  0  0  0
 35 42  1  0  0  0  0
 35 36  2  0  0  0  0
 36 43  1  0  0  0  0
 37 36  1  0  0  0  0
 37 44  1  0  0  0  0
 38 37  2  0  0  0  0
 39 34  2  0  0  0  0
 39 38  1  0  0  0  0
 40 32  1  0  0  0  0
 41 33  1  0  0  0  0
 45 38  1  0  0  0  0
M  END
>  <minimizedAffinity>
-7.51223612

>  <minimizedRMSD>
0.49344492

$$$$
