
 OpenBabel03252513083D

 41 43  0  0  0  0  0  0  0  0999 V2000
   33.5030   28.7170   47.9570 C   0  0  0  0  0  0  0  0  0  0  0  0
   33.7260   28.7680   46.5510 C   0  0  0  0  0  0  0  0  0  0  0  0
   34.7460   29.4990   46.0250 C   0  0  0  0  0  0  0  0  0  0  0  0
   35.5530   30.1870   46.9100 N   0  0  0  0  0  0  0  0  0  0  0  0
   35.3420   30.1380   48.2130 C   0  0  0  0  0  0  0  0  0  0  0  0
   34.3540   29.4340   48.7640 N   0  0  0  0  0  0  0  0  0  0  0  0
   32.6990   28.1410   48.3790 H   0  0  0  0  0  0  0  0  0  0  0  0
   33.0120   28.1790   45.9970 H   0  0  0  0  0  0  0  0  0  0  0  0
   34.9750   29.5540   44.6020 C   0  0  0  0  0  0  0  0  0  0  0  0
   35.3040   28.5590   44.2120 H   0  0  0  0  0  0  0  0  0  0  0  0
   35.8890   30.2010   44.4430 H   0  0  0  0  0  0  0  0  0  0  0  0
   33.8940   30.1310   43.7890 C   0  0  0  0  0  0  0  0  0  0  0  0
   33.8460   29.5080   42.8440 H   0  0  0  0  0  0  0  0  0  0  0  0
   32.9180   29.9250   44.2710 H   0  0  0  0  0  0  0  0  0  0  0  0
   33.9620   31.4750   43.3770 N   0  0  0  0  0  0  0  0  0  0  0  0
   34.9830   32.1230   42.8460 C   0  0  0  0  0  0  0  0  0  0  0  0
   34.9870   33.4480   42.4600 C   0  0  0  0  0  0  0  0  0  0  0  0
   33.8510   34.1880   42.6260 C   0  0  0  0  0  0  0  0  0  0  0  0
   33.7600   35.3870   42.3090 O   0  0  0  0  0  0  0  0  0  0  0  0
   32.8210   33.5570   43.1550 N   0  0  0  0  0  0  0  0  0  0  0  0
   32.8530   32.2830   43.5140 C   0  0  0  0  0  0  0  0  0  0  0  0
   31.8040   31.7640   44.0170 O   0  0  0  0  0  0  0  0  0  0  0  0
   35.9110   31.5450   42.7030 H   0  0  0  0  0  0  0  0  0  0  0  0
   35.8820   33.8870   42.0320 H   0  0  0  0  0  0  0  0  0  0  0  0
   31.5920   34.3230   43.3460 C   0  0  0  0  0  0  0  0  0  0  0  0
   30.4860   33.5020   43.2040 F   0  0  0  0  0  0  0  0  0  0  0  0
   31.5410   35.2860   42.3730 F   0  0  0  0  0  0  0  0  0  0  0  0
   31.6280   34.8820   44.5960 F   0  0  0  0  0  0  0  0  0  0  0  0
   36.2280   30.8930   49.1450 C   0  0  0  0  0  0  0  0  0  0  0  0
   35.9520   30.6910   50.2000 H   0  0  0  0  0  0  0  0  0  0  0  0
   36.1590   31.9740   48.9710 H   0  0  0  0  0  0  0  0  0  0  0  0
   37.6730   30.4580   48.9350 C   0  0  0  0  0  0  0  0  0  0  0  0
   37.7700   29.6780   48.1760 H   0  0  0  0  0  0  0  0  0  0  0  0
   38.0690   30.0840   49.9010 H   0  0  0  0  0  0  0  0  0  0  0  0
   38.4250   31.6630   48.4960 C   0  0  0  0  0  0  0  0  0  0  0  0
   38.5270   32.6960   49.4300 C   0  0  0  0  0  0  0  0  0  0  0  0
   39.1980   33.8760   49.1600 C   0  0  0  0  0  0  0  0  0  0  0  0
   39.7700   33.9840   47.9050 C   0  0  0  0  0  0  0  0  0  0  0  0
   40.2880   34.9030   47.7030 H   0  0  0  0  0  0  0  0  0  0  0  0
   39.6620   32.9470   46.9820 C   0  0  0  0  0  0  0  0  0  0  0  0
   38.9930   31.7990   47.2860 N   0  0  0  0  0  0  0  0  0  0  0  0
  1  7  1  0  0  0  0
  1  6  1  0  0  0  0
  2  1  2  0  0  0  0
  3  2  1  0  0  0  0
  3  4  2  0  0  0  0
  4  5  1  0  0  0  0
  5  6  2  0  0  0  0
  5 29  1  0  0  0  0
  8  2  1  0  0  0  0
  9  3  1  0  0  0  0
 10  9  1  0  0  0  0
 11  9  1  0  0  0  0
 12 14  1  0  0  0  0
 12  9  1  0  0  0  0
 13 12  1  0  0  0  0
 15 21  1  0  0  0  0
 15 12  1  0  0  0  0
 16 15  1  0  0  0  0
 17 18  1  0  0  0  0
 17 16  2  0  0  0  0
 18 20  1  0  0  0  0
 19 18  2  0  0  0  0
 20 25  1  0  0  0  0
 20 21  1  0  0  0  0
 21 22  2  0  0  0  0
 23 16  1  0  0  0  0
 24 17  1  0  0  0  0
 25 28  1  0  0  0  0
 26 25  1  0  0  0  0
 27 25  1  0  0  0  0
 29 30  1  0  0  0  0
 31 29  1  0  0  0  0
 32 29  1  0  0  0  0
 32 34  1  0  0  0  0
 33 32  1  0  0  0  0
 35 32  1  0  0  0  0
 35 36  1  0  0  0  0
 37 36  2  0  0  0  0
 38 37  1  0  0  0  0
 39 38  1  0  0  0  0
 40 41  1  0  0  0  0
 40 38  2  0  0  0  0
 41 35  2  0  0  0  0
M  END
>  <minimizedAffinity>
-5.65283632

>  <minimizedRMSD>
4.75556517

$$$$
