
 OpenBabel03252514083D

 41 44  0  0  0  0  0  0  0  0999 V2000
   34.8810   30.0180   47.3270 C   0  0  0  0  0  0  0  0  0  0  0  0
   35.6920   29.9890   48.4640 C   0  0  0  0  0  0  0  0  0  0  0  0
   35.5650   28.8690   49.2760 C   0  0  0  0  0  0  0  0  0  0  0  0
   34.6960   27.8910   48.9460 N   0  0  0  0  0  0  0  0  0  0  0  0
   33.9310   27.9360   47.8570 C   0  0  0  0  0  0  0  0  0  0  0  0
   34.0370   29.0080   47.0580 N   0  0  0  0  0  0  0  0  0  0  0  0
   34.9240   30.8570   46.6470 H   0  0  0  0  0  0  0  0  0  0  0  0
   36.1820   28.8260   50.1610 H   0  0  0  0  0  0  0  0  0  0  0  0
   36.5700   31.0780   48.7100 N   0  0  0  0  0  0  0  0  0  0  0  0
   36.5420   31.8400   49.8190 C   0  0  0  0  0  0  0  0  0  0  0  0
   37.5160   32.7800   49.7160 N   0  0  0  0  0  0  0  0  0  0  0  0
   38.1280   32.5830   48.5450 C   0  0  0  0  0  0  0  0  0  0  0  0
   39.1740   33.2170   47.9070 C   0  0  0  0  0  0  0  0  0  0  0  0
   39.6020   32.8010   46.6970 N   0  0  0  0  0  0  0  0  0  0  0  0
   39.0290   31.7490   46.0590 C   0  0  0  0  0  0  0  0  0  0  0  0
   38.0110   31.1400   46.6900 N   0  0  0  0  0  0  0  0  0  0  0  0
   37.5500   31.5170   47.8950 C   0  0  0  0  0  0  0  0  0  0  0  0
   35.8850   31.7720   50.6860 H   0  0  0  0  0  0  0  0  0  0  0  0
   39.3680   31.4110   45.0890 H   0  0  0  0  0  0  0  0  0  0  0  0
   39.8130   34.3180   48.5180 N   0  0  0  0  0  0  0  0  0  0  0  0
   40.8530   34.2370   48.5970 H   0  0  0  0  0  0  0  0  0  0  0  0
   39.2690   35.1510   48.8620 H   0  0  0  0  0  0  0  0  0  0  0  0
   32.9650   26.8790   47.4620 C   0  0  0  0  0  0  0  0  0  0  0  0
   31.7410   26.9590   48.3880 C   0  0  0  0  0  0  0  0  0  0  0  0
   30.8300   26.5900   47.8970 H   0  0  0  0  0  0  0  0  0  0  0  0
   31.5830   28.0670   48.5330 H   0  0  0  0  0  0  0  0  0  0  0  0
   31.9400   26.5710   49.3890 H   0  0  0  0  0  0  0  0  0  0  0  0
   32.4230   27.1070   46.0670 C   0  0  0  0  0  0  0  0  0  0  0  0
   33.2230   27.0000   45.3240 H   0  0  0  0  0  0  0  0  0  0  0  0
   31.6070   26.3500   45.9450 H   0  0  0  0  0  0  0  0  0  0  0  0
   31.9520   28.1310   46.0490 H   0  0  0  0  0  0  0  0  0  0  0  0
   33.5720   25.5160   47.5040 C   0  0  0  0  0  0  0  0  0  0  0  0
   33.5160   25.1310   48.5580 H   0  0  0  0  0  0  0  0  0  0  0  0
   34.6690   25.6630   47.3230 H   0  0  0  0  0  0  0  0  0  0  0  0
   32.9980   24.5900   46.5330 C   0  0  0  0  0  0  0  0  0  0  0  0
   33.5170   24.3100   45.2890 C   0  0  0  0  0  3  0  0  0  0  0  0
   32.9790   23.4360   44.3680 C   0  0  0  0  0  3  0  0  0  0  0  0
   31.8060   22.8280   44.8250 C   0  0  0  0  0  0  0  0  0  0  0  0
   31.2910   22.1180   44.1840 H   0  0  0  0  0  0  0  0  0  0  0  0
   31.2470   23.0750   46.0620 C   0  0  0  0  0  3  0  0  0  0  0  0
   31.8580   23.9430   46.8730 N   0  0  0  0  0  0  0  0  0  0  0  0
  1  2  1  0  0  0  0
  2  9  1  0  0  0  0
  2  3  2  0  0  0  0
  3  8  1  0  0  0  0
  4  3  1  0  0  0  0
  5  4  2  0  0  0  0
  6  1  2  0  0  0  0
  6  5  1  0  0  0  0
  7  1  1  0  0  0  0
  9 10  1  0  0  0  0
 10 18  1  0  0  0  0
 11 10  2  0  0  0  0
 12 11  1  0  0  0  0
 13 20  1  0  0  0  0
 13 12  1  0  0  0  0
 14 13  2  0  0  0  0
 15 16  2  0  0  0  0
 15 14  1  0  0  0  0
 16 17  1  0  0  0  0
 17 12  2  0  0  0  0
 17  9  1  0  0  0  0
 19 15  1  0  0  0  0
 20 21  1  0  0  0  0
 20 22  1  0  0  0  0
 23 32  1  0  0  0  0
 23  5  1  0  0  0  0
 23 24  1  0  0  0  0
 24 26  1  0  0  0  0
 24 27  1  0  0  0  0
 25 24  1  0  0  0  0
 28 23  1  0  0  0  0
 29 28  1  0  0  0  0
 30 28  1  0  0  0  0
 31 28  1  0  0  0  0
 32 33  1  0  0  0  0
 34 32  1  0  0  0  0
 35 41  1  0  0  0  0
 35 32  1  0  0  0  0
 36 35  2  0  0  0  0
 37 38  2  0  0  0  0
 37 36  1  0  0  0  0
 38 40  1  0  0  0  0
 39 38  1  0  0  0  0
 40 41  2  0  0  0  0
M  END
>  <minimizedAffinity>
-5.42386389

>  <minimizedRMSD>
0.876849234

$$$$
