
 OpenBabel03252513533D

 42 45  0  0  1  0  0  0  0  0999 V2000
   34.7240   29.6890   44.9830 C   0  0  0  0  0  0  0  0  0  0  0  0
   35.8550   29.2370   44.6610 O   0  0  0  0  0  0  0  0  0  0  0  0
   34.2120   30.6870   44.1030 N   0  0  0  0  0  0  0  0  0  0  0  0
   32.8230   30.5350   43.7370 C   0  0  0  0  0  0  0  0  0  0  0  0
   32.4750   31.3700   42.5110 C   0  0  0  0  0  0  0  0  0  0  0  0
   33.6090   31.3740   41.6960 O   0  0  0  0  0  0  0  0  0  0  0  0
   34.5020   32.2870   42.2800 C   0  0  0  0  0  0  0  0  0  0  0  0
   35.0070   31.7880   43.5950 C   0  0  2  0  0  0  0  0  0  0  0  0
   32.5080   29.4880   43.6190 H   0  0  0  0  0  0  0  0  0  0  0  0
   32.2020   30.9710   44.5710 H   0  0  0  0  0  0  0  0  0  0  0  0
   31.6150   30.9070   41.9900 H   0  0  0  0  0  0  0  0  0  0  0  0
   32.2330   32.3990   42.7880 H   0  0  0  0  0  0  0  0  0  0  0  0
   35.3120   32.4610   41.5380 H   0  0  0  0  0  0  0  0  0  0  0  0
   33.9940   33.2700   42.4340 H   0  0  0  0  0  0  0  0  0  0  0  0
   35.1390   32.6060   44.3300 H   0  0  0  0  0  0  0  0  0  0  0  0
   34.0760   28.5390   48.5140 C   0  0  0  0  0  0  0  0  0  0  0  0
   34.7710   29.0430   47.3650 C   0  0  0  0  0  0  0  0  0  0  0  0
   34.0580   29.1820   46.1730 C   0  0  0  0  0  0  0  0  0  0  0  0
   32.7440   28.8270   46.1870 N   0  0  0  0  0  0  0  0  0  0  0  0
   32.1370   28.3620   47.2800 C   0  0  0  0  0  0  0  0  0  0  0  0
   32.7920   28.2210   48.4210 N   0  0  0  0  0  0  0  0  0  0  0  0
   35.8030   29.3140   47.3830 H   0  0  0  0  0  0  0  0  0  0  0  0
   30.6880   28.0250   47.0980 C   0  0  0  0  0  0  0  0  0  0  0  0
   29.9190   29.1880   47.0720 F   0  0  0  0  0  0  0  0  0  0  0  0
   30.4990   27.4370   45.8660 F   0  0  0  0  0  0  0  0  0  0  0  0
   30.2220   27.1290   48.0470 F   0  0  0  0  0  0  0  0  0  0  0  0
   34.8020   28.4070   49.6930 O   0  0  0  0  0  0  0  0  0  0  0  0
   35.6020   29.3980   50.2420 C   0  0  0  0  0  0  0  0  0  0  0  0
   36.9410   29.2720   49.9180 F   0  0  0  0  0  0  0  0  0  0  0  0
   35.1660   30.6830   50.0130 F   0  0  0  0  0  0  0  0  0  0  0  0
   35.4990   29.2060   51.6400 F   0  0  0  0  0  0  0  0  0  0  0  0
   36.2750   31.2140   43.3240 O   0  0  0  0  0  0  0  0  0  0  0  0
   40.3000   33.4220   46.6050 H   0  0  0  0  0  0  0  0  0  0  0  0
   39.4560   32.9290   46.2020 N   0  0  0  0  0  0  0  0  0  0  0  0
   38.5000   32.2490   46.8850 C   0  0  0  0  0  0  0  0  0  0  0  0
   37.6050   31.7750   45.9940 N   0  0  0  0  0  0  0  0  0  0  0  0
   37.9640   32.1370   44.7310 C   0  0  0  0  0  0  0  0  0  0  0  0
   37.4530   31.9440   43.4860 C   0  0  0  0  0  0  0  0  0  0  0  0
   38.0420   32.4360   42.3750 N   0  0  0  0  0  0  0  0  0  0  0  0
   39.1880   33.1460   42.5470 C   0  0  0  0  0  0  0  0  0  0  0  0
   39.7330   33.3620   43.7750 N   0  0  0  0  0  0  0  0  0  0  0  0
   39.1390   32.8680   44.8810 C   0  0  0  0  0  0  0  0  0  0  0  0
  1 18  1  0  0  0  0
  2  1  2  0  0  0  0
  3  1  1  0  0  0  0
  4  3  1  0  0  0  0
  4 10  1  0  0  0  0
  5 12  1  0  0  0  0
  5  4  1  0  0  0  0
  6  7  1  0  0  0  0
  6  5  1  0  0  0  0
  7 14  1  0  0  0  0
  7  8  1  0  0  0  0
  8  3  1  0  0  0  0
  8 15  1  1  0  0  0
  9  4  1  0  0  0  0
 11  5  1  0  0  0  0
 13  7  1  0  0  0  0
 16 27  1  0  0  0  0
 17 22  1  0  0  0  0
 17 16  2  0  0  0  0
 18 19  2  0  0  0  0
 18 17  1  0  0  0  0
 19 20  1  0  0  0  0
 20 21  2  0  0  0  0
 21 16  1  0  0  0  0
 23 20  1  0  0  0  0
 23 26  1  0  0  0  0
 24 23  1  0  0  0  0
 25 23  1  0  0  0  0
 27 28  1  0  0  0  0
 28 31  1  0  0  0  0
 29 28  1  0  0  0  0
 30 28  1  0  0  0  0
 32 38  1  0  0  0  0
 32  8  1  0  0  0  0
 34 33  1  0  0  0  0
 34 35  1  0  0  0  0
 36 35  2  0  0  0  0
 37 42  1  0  0  0  0
 37 36  1  0  0  0  0
 38 37  2  0  0  0  0
 39 40  2  0  0  0  0
 39 38  1  0  0  0  0
 40 41  1  0  0  0  0
 41 42  2  0  0  0  0
 42 34  1  0  0  0  0
M  END
>  <minimizedAffinity>
-5.82745409

>  <minimizedRMSD>
4.70061731

$$$$
