
 OpenBabel03252514013D

 32 35  0  0  1  0  0  0  0  0999 V2000
   35.3430   29.4380   49.0660 C   0  0  2  0  0  0  0  0  0  0  0  0
   34.2470   29.4020   50.0440 C   0  0  0  0  0  0  0  0  0  0  0  0
   34.5590   28.1490   49.3690 C   0  0  1  0  0  0  0  0  0  0  0  0
   35.1840   29.8980   48.0860 H   0  0  0  0  0  0  0  0  0  0  0  0
   33.2940   29.9500   49.8370 H   0  0  0  0  0  0  0  0  0  0  0  0
   34.4780   29.4130   51.1460 H   0  0  0  0  0  0  0  0  0  0  0  0
   35.1940   27.3230   49.6710 H   0  0  0  0  0  0  0  0  0  0  0  0
   36.7700   29.3710   49.6070 C   0  0  0  0  0  0  0  0  0  0  0  0
   36.6870   29.3370   50.7100 H   0  0  0  0  0  0  0  0  0  0  0  0
   37.2540   28.3940   49.3240 H   0  0  0  0  0  0  0  0  0  0  0  0
   38.2480   32.7210   49.4640 C   0  0  0  0  0  0  0  0  0  0  0  0
   38.8390   32.7500   48.1930 C   0  0  0  0  0  0  0  0  0  0  0  0
   38.7180   31.6010   47.3920 C   0  0  0  0  0  0  0  0  0  0  0  0
   38.0330   30.5220   47.8980 N   0  0  0  0  0  0  0  0  0  0  0  0
   37.4880   30.5500   49.1200 C   0  0  0  0  0  0  0  0  0  0  0  0
   37.6010   31.6530   49.8950 N   0  0  0  0  0  0  0  0  0  0  0  0
   38.4030   33.6530   49.9900 H   0  0  0  0  0  0  0  0  0  0  0  0
   39.3790   33.5920   47.7860 H   0  0  0  0  0  0  0  0  0  0  0  0
   39.1420   31.5380   46.4010 H   0  0  0  0  0  0  0  0  0  0  0  0
   33.5460   27.7050   48.3480 C   0  0  0  0  0  0  0  0  0  0  0  0
   33.7580   26.5170   47.8720 O   0  0  0  0  0  0  0  0  0  0  0  0
   32.4520   28.4330   47.9070 O   0  0  0  0  0  0  0  0  0  0  0  0
   27.4870   26.4880   49.5850 H   0  0  0  0  0  0  0  0  0  0  0  0
   28.4390   26.9120   49.4420 N   0  0  0  0  0  0  0  0  0  0  0  0
   29.1520   27.5490   50.4160 C   0  0  0  0  0  3  0  0  0  0  0  0
   30.3150   27.9630   49.8840 N   0  0  0  0  0  0  0  0  0  0  0  0
   30.3840   27.6140   48.5810 C   0  0  0  0  0  0  0  0  0  0  0  0
   31.2920   27.7600   47.5530 C   0  0  0  0  0  0  0  0  0  0  0  0
   31.0080   27.2590   46.3250 N   0  0  0  0  0  0  0  0  0  0  0  0
   29.8430   26.6210   46.0960 C   0  0  0  0  0  3  0  0  0  0  0  0
   28.9180   26.4550   47.0800 N   0  0  0  0  0  0  0  0  0  0  0  0
   29.1960   26.9520   48.3120 C   0  0  0  0  0  0  0  0  0  0  0  0
  1  4  1  6  0  0  0
  1  3  1  0  0  0  0
  1  8  1  0  0  0  0
  1  2  1  0  0  0  0
  2  6  1  0  0  0  0
  3  7  1  1  0  0  0
  3  2  1  0  0  0  0
  5  2  1  0  0  0  0
  8  9  1  0  0  0  0
 10  8  1  0  0  0  0
 11 16  1  0  0  0  0
 11 17  1  0  0  0  0
 12 11  2  0  0  0  0
 13 14  2  0  0  0  0
 13 12  1  0  0  0  0
 14 15  1  0  0  0  0
 15  8  1  0  0  0  0
 15 16  2  0  0  0  0
 18 12  1  0  0  0  0
 19 13  1  0  0  0  0
 20  3  1  0  0  0  0
 21 20  2  0  0  0  0
 22 20  1  0  0  0  0
 24 23  1  0  0  0  0
 24 25  1  0  0  0  0
 26 25  2  0  0  0  0
 27 26  1  0  0  0  0
 28 22  1  0  0  0  0
 28 27  2  0  0  0  0
 29 28  1  0  0  0  0
 30 29  2  0  0  0  0
 30 31  1  0  0  0  0
 31 32  2  0  0  0  0
 32 27  1  0  0  0  0
 32 24  1  0  0  0  0
M  END
>  <minimizedAffinity>
-5.79485369

>  <minimizedRMSD>
0.802224576

$$$$
