
 OpenBabel03252514013D

 32 35  0  0  1  0  0  0  0  0999 V2000
   35.3720   29.4350   49.0580 C   0  0  2  0  0  0  0  0  0  0  0  0
   34.2980   29.5120   50.0580 C   0  0  0  0  0  0  0  0  0  0  0  0
   34.5940   28.1900   49.5200 C   0  0  1  0  0  0  0  0  0  0  0  0
   35.1910   29.7840   48.0370 H   0  0  0  0  0  0  0  0  0  0  0  0
   33.3410   30.0350   49.8130 H   0  0  0  0  0  0  0  0  0  0  0  0
   34.5540   29.6440   51.1470 H   0  0  0  0  0  0  0  0  0  0  0  0
   35.2360   27.4000   49.8970 H   0  0  0  0  0  0  0  0  0  0  0  0
   36.8100   29.4240   49.5710 C   0  0  0  0  0  0  0  0  0  0  0  0
   36.7510   29.3590   50.6740 H   0  0  0  0  0  0  0  0  0  0  0  0
   37.3360   28.4800   49.2540 H   0  0  0  0  0  0  0  0  0  0  0  0
   37.9490   32.9030   49.4010 C   0  0  0  0  0  0  0  0  0  0  0  0
   38.6870   32.9350   48.2090 C   0  0  0  0  0  0  0  0  0  0  0  0
   38.7830   31.7420   47.4710 C   0  0  0  0  0  0  0  0  0  0  0  0
   38.1530   30.6210   47.9570 N   0  0  0  0  0  0  0  0  0  0  0  0
   37.4610   30.6500   49.1020 C   0  0  0  0  0  0  0  0  0  0  0  0
   37.3650   31.7940   49.8170 N   0  0  0  0  0  0  0  0  0  0  0  0
   37.9420   33.8710   49.8840 H   0  0  0  0  0  0  0  0  0  0  0  0
   39.1860   33.8100   47.8190 H   0  0  0  0  0  0  0  0  0  0  0  0
   39.3310   31.6780   46.5430 H   0  0  0  0  0  0  0  0  0  0  0  0
   33.5580   27.6380   48.5780 C   0  0  0  0  0  0  0  0  0  0  0  0
   34.0330   26.8330   47.6800 O   0  0  0  0  0  0  0  0  0  0  0  0
   32.1980   27.9080   48.6040 O   0  0  0  0  0  0  0  0  0  0  0  0
   27.6530   27.4300   45.3840 H   0  0  0  0  0  0  0  0  0  0  0  0
   28.4220   27.4030   46.1020 N   0  0  0  0  0  0  0  0  0  0  0  0
   28.3790   26.6640   47.2490 C   0  0  0  0  0  3  0  0  0  0  0  0
   29.5230   26.8680   47.9250 N   0  0  0  0  0  0  0  0  0  0  0  0
   30.3190   27.7260   47.2480 C   0  0  0  0  0  0  0  0  0  0  0  0
   31.5640   28.2920   47.4320 C   0  0  0  0  0  0  0  0  0  0  0  0
   32.0630   29.1440   46.5030 N   0  0  0  0  0  0  0  0  0  0  0  0
   31.3520   29.4460   45.3970 C   0  0  0  0  0  3  0  0  0  0  0  0
   30.1210   28.9100   45.1740 N   0  0  0  0  0  0  0  0  0  0  0  0
   29.6160   28.0570   46.1010 C   0  0  0  0  0  0  0  0  0  0  0  0
  1  4  1  6  0  0  0
  1  3  1  0  0  0  0
  1  8  1  0  0  0  0
  1  2  1  0  0  0  0
  2  6  1  0  0  0  0
  3  7  1  1  0  0  0
  3  2  1  0  0  0  0
  5  2  1  0  0  0  0
  8  9  1  0  0  0  0
 10  8  1  0  0  0  0
 11 16  1  0  0  0  0
 11 17  1  0  0  0  0
 12 11  2  0  0  0  0
 13 14  2  0  0  0  0
 13 12  1  0  0  0  0
 14 15  1  0  0  0  0
 15  8  1  0  0  0  0
 15 16  2  0  0  0  0
 18 12  1  0  0  0  0
 19 13  1  0  0  0  0
 20 22  1  0  0  0  0
 20  3  1  0  0  0  0
 21 20  2  0  0  0  0
 23 24  1  0  0  0  0
 24 25  1  0  0  0  0
 25 26  2  0  0  0  0
 27 28  1  0  0  0  0
 27 26  1  0  0  0  0
 28 22  1  0  0  0  0
 29 28  2  0  0  0  0
 30 29  1  0  0  0  0
 31 30  2  0  0  0  0
 31 32  1  0  0  0  0
 32 24  1  0  0  0  0
 32 27  2  0  0  0  0
M  END
>  <minimizedAffinity>
-5.26982832

>  <minimizedRMSD>
1.5620265

$$$$
