
 OpenBabel03252513323D

 26 28  0  0  0  0  0  0  0  0999 V2000
   36.6240   29.8160   49.7070 C   0  0  0  0  0  0  0  0  0  0  0  0
   37.5200   30.5630   48.9230 C   0  0  0  0  0  0  0  0  0  0  0  0
   37.1490   30.8700   47.6000 C   0  0  0  0  0  0  0  0  0  0  0  0
   35.9470   30.4220   47.1670 N   0  0  0  0  0  0  0  0  0  0  0  0
   35.0970   29.6970   47.9560 C   0  0  0  0  0  0  0  0  0  0  0  0
   35.4600   29.4120   49.2080 N   0  0  0  0  0  0  0  0  0  0  0  0
   38.4810   30.9130   49.2880 H   0  0  0  0  0  0  0  0  0  0  0  0
   34.1570   29.3830   47.5200 H   0  0  0  0  0  0  0  0  0  0  0  0
   37.9580   31.6080   46.7230 N   0  0  0  0  0  0  0  0  0  0  0  0
   39.0410   32.2620   47.1570 C   0  0  0  0  0  0  0  0  0  0  0  0
   39.6380   32.8860   46.1290 N   0  0  0  0  0  0  0  0  0  0  0  0
   38.9580   32.6550   44.9870 C   0  0  0  0  0  0  0  0  0  0  0  0
   39.0470   32.9950   43.6380 C   0  0  0  0  0  0  0  0  0  0  0  0
   40.0140   33.7280   43.3060 O   0  0  0  0  0  0  0  0  0  0  0  0
   38.1130   32.5360   42.7540 N   0  0  0  0  0  0  0  0  0  0  0  0
   37.1080   31.7550   43.1900 C   0  0  0  0  0  0  0  0  0  0  0  0
   36.1130   31.2510   42.3190 N   0  0  0  0  0  0  0  0  0  0  0  0
   37.0120   31.4160   44.5070 N   0  0  0  0  0  0  0  0  0  0  0  0
   37.9180   31.8530   45.4050 C   0  0  0  0  0  0  0  0  0  0  0  0
   38.1970   32.8010   41.7550 H   0  0  0  0  0  0  0  0  0  0  0  0
   35.9250   30.2120   42.2950 H   0  0  0  0  0  0  0  0  0  0  0  0
   35.4700   31.7010   41.6390 H   0  0  0  0  0  0  0  0  0  0  0  0
   37.0260   29.4920   51.1150 C   0  0  0  0  0  0  0  0  0  0  0  0
   35.8970   29.3330   51.8880 F   0  0  0  0  0  0  0  0  0  0  0  0
   37.8260   28.3810   51.0890 F   0  0  0  0  0  0  0  0  0  0  0  0
   37.7250   30.5780   51.6140 F   0  0  0  0  0  0  0  0  0  0  0  0
  1 23  1  0  0  0  0
  2  7  1  0  0  0  0
  2  1  2  0  0  0  0
  3  2  1  0  0  0  0
  4  3  2  0  0  0  0
  4  5  1  0  0  0  0
  5  6  2  0  0  0  0
  6  1  1  0  0  0  0
  8  5  1  0  0  0  0
  9 10  1  0  0  0  0
  9  3  1  0  0  0  0
 11 10  2  0  0  0  0
 12 19  2  0  0  0  0
 12 11  1  0  0  0  0
 13 12  1  0  0  0  0
 14 13  2  0  0  0  0
 15 16  1  0  0  0  0
 15 13  1  0  0  0  0
 16 18  2  0  0  0  0
 17 16  1  0  0  0  0
 18 19  1  0  0  0  0
 19  9  1  0  0  0  0
 20 15  1  0  0  0  0
 21 17  1  0  0  0  0
 22 17  1  0  0  0  0
 23 26  1  0  0  0  0
 23 24  1  0  0  0  0
 25 23  1  0  0  0  0
M  END
>  <minimizedAffinity>
-6.53479862

>  <minimizedRMSD>
3.46083999

$$$$
