
 OpenBabel03252514083D

 41 44  0  0  0  0  0  0  0  0999 V2000
   34.6680   29.9720   47.4010 C   0  0  0  0  0  0  0  0  0  0  0  0
   35.5270   29.8950   48.5000 C   0  0  0  0  0  0  0  0  0  0  0  0
   35.4350   28.7400   49.2680 C   0  0  0  0  0  0  0  0  0  0  0  0
   34.5520   27.7760   48.9330 N   0  0  0  0  0  0  0  0  0  0  0  0
   33.7410   27.8670   47.8810 C   0  0  0  0  0  0  0  0  0  0  0  0
   33.8120   28.9730   47.1260 N   0  0  0  0  0  0  0  0  0  0  0  0
   34.6810   30.8390   46.7570 H   0  0  0  0  0  0  0  0  0  0  0  0
   36.0900   28.6600   50.1230 H   0  0  0  0  0  0  0  0  0  0  0  0
   36.4150   30.9730   48.7550 N   0  0  0  0  0  0  0  0  0  0  0  0
   36.3880   31.7330   49.8660 C   0  0  0  0  0  0  0  0  0  0  0  0
   37.3730   32.6630   49.7710 N   0  0  0  0  0  0  0  0  0  0  0  0
   37.9900   32.4630   48.6040 C   0  0  0  0  0  0  0  0  0  0  0  0
   39.0480   33.0870   47.9750 C   0  0  0  0  0  0  0  0  0  0  0  0
   39.4790   32.6690   46.7670 N   0  0  0  0  0  0  0  0  0  0  0  0
   38.8980   31.6260   46.1220 C   0  0  0  0  0  0  0  0  0  0  0  0
   37.8700   31.0250   46.7450 N   0  0  0  0  0  0  0  0  0  0  0  0
   37.4050   31.4040   47.9470 C   0  0  0  0  0  0  0  0  0  0  0  0
   35.7240   31.6700   50.7280 H   0  0  0  0  0  0  0  0  0  0  0  0
   39.2400   31.2860   45.1530 H   0  0  0  0  0  0  0  0  0  0  0  0
   39.6940   34.1790   48.5930 N   0  0  0  0  0  0  0  0  0  0  0  0
   40.7330   34.0860   48.6790 H   0  0  0  0  0  0  0  0  0  0  0  0
   39.1570   35.0170   48.9360 H   0  0  0  0  0  0  0  0  0  0  0  0
   32.7590   26.8270   47.4830 C   0  0  0  0  0  0  0  0  0  0  0  0
   31.5550   26.8950   48.4360 C   0  0  0  0  0  0  0  0  0  0  0  0
   30.6310   26.5440   47.9560 H   0  0  0  0  0  0  0  0  0  0  0  0
   31.4090   28.0000   48.6100 H   0  0  0  0  0  0  0  0  0  0  0  0
   31.7720   26.4820   49.4240 H   0  0  0  0  0  0  0  0  0  0  0  0
   32.1900   27.0910   46.1050 C   0  0  0  0  0  0  0  0  0  0  0  0
   32.9730   26.9940   45.3430 H   0  0  0  0  0  0  0  0  0  0  0  0
   31.3650   26.3420   45.9840 H   0  0  0  0  0  0  0  0  0  0  0  0
   31.7260   28.1180   46.1210 H   0  0  0  0  0  0  0  0  0  0  0  0
   33.3560   25.4590   47.4820 C   0  0  0  0  0  0  0  0  0  0  0  0
   33.2680   25.0270   48.5150 H   0  0  0  0  0  0  0  0  0  0  0  0
   34.4590   25.6050   47.3370 H   0  0  0  0  0  0  0  0  0  0  0  0
   32.8030   24.5800   46.4560 C   0  0  0  0  0  0  0  0  0  0  0  0
   31.6350   23.8580   46.5640 C   0  0  0  0  0  3  0  0  0  0  0  0
   31.1080   23.0260   45.5990 C   0  0  0  0  0  3  0  0  0  0  0  0
   31.8960   22.9760   44.4440 C   0  0  0  0  0  0  0  0  0  0  0  0
   31.5810   22.3530   43.6140 H   0  0  0  0  0  0  0  0  0  0  0  0
   33.0720   23.6790   44.2880 C   0  0  0  0  0  3  0  0  0  0  0  0
   33.4860   24.4550   45.2930 N   0  0  0  0  0  0  0  0  0  0  0  0
  1  2  1  0  0  0  0
  2  9  1  0  0  0  0
  2  3  2  0  0  0  0
  3  8  1  0  0  0  0
  4  3  1  0  0  0  0
  5  4  2  0  0  0  0
  6  1  2  0  0  0  0
  6  5  1  0  0  0  0
  7  1  1  0  0  0  0
  9 10  1  0  0  0  0
 10 18  1  0  0  0  0
 11 10  2  0  0  0  0
 12 11  1  0  0  0  0
 13 20  1  0  0  0  0
 13 12  1  0  0  0  0
 14 13  2  0  0  0  0
 15 16  2  0  0  0  0
 15 14  1  0  0  0  0
 16 17  1  0  0  0  0
 17 12  2  0  0  0  0
 17  9  1  0  0  0  0
 19 15  1  0  0  0  0
 20 21  1  0  0  0  0
 20 22  1  0  0  0  0
 23  5  1  0  0  0  0
 23 24  1  0  0  0  0
 24 26  1  0  0  0  0
 24 27  1  0  0  0  0
 25 24  1  0  0  0  0
 28 31  1  0  0  0  0
 28 23  1  0  0  0  0
 29 28  1  0  0  0  0
 30 28  1  0  0  0  0
 32 23  1  0  0  0  0
 32 33  1  0  0  0  0
 34 32  1  0  0  0  0
 35 36  1  0  0  0  0
 35 32  1  0  0  0  0
 37 36  2  0  0  0  0
 38 37  1  0  0  0  0
 39 38  1  0  0  0  0
 40 38  2  0  0  0  0
 40 41  1  0  0  0  0
 41 35  2  0  0  0  0
M  END
>  <minimizedAffinity>
-5.3679347

>  <minimizedRMSD>
0.842686236

$$$$
