
 OpenBabel03252513273D

 35 37  0  0  0  0  0  0  0  0999 V2000
   32.7970   27.8970   48.6950 C   0  0  0  0  0  0  0  0  0  0  0  0
   31.7050   28.3290   49.3720 C   0  0  0  0  0  0  0  0  0  0  0  0
   30.4730   27.7060   49.3520 C   0  0  0  0  0  0  0  0  0  0  0  0
   30.3980   26.5600   48.5690 C   0  0  0  0  0  0  0  0  0  0  0  0
   31.4790   26.0900   47.8690 C   0  0  0  0  0  0  0  0  0  0  0  0
   32.6940   26.7550   47.9250 C   0  0  0  0  0  0  0  0  0  0  0  0
   31.7810   29.2350   49.9850 H   0  0  0  0  0  0  0  0  0  0  0  0
   29.6110   28.0420   49.8830 H   0  0  0  0  0  0  0  0  0  0  0  0
   29.4750   25.9910   48.4810 H   0  0  0  0  0  0  0  0  0  0  0  0
   31.3920   25.1850   47.2610 H   0  0  0  0  0  0  0  0  0  0  0  0
   36.1640   28.9660   49.6910 C   0  0  0  0  0  0  0  0  0  0  0  0
   36.4440   29.9840   48.7680 C   0  0  0  0  0  0  0  0  0  0  0  0
   35.4650   30.2850   47.8170 C   0  0  0  0  0  0  0  0  0  0  0  0
   34.2930   29.5670   47.8450 N   0  0  0  0  0  0  0  0  0  0  0  0
   34.0700   28.5950   48.7540 C   0  0  0  0  0  0  0  0  0  0  0  0
   35.0020   28.3040   49.6640 N   0  0  0  0  0  0  0  0  0  0  0  0
   36.9670   28.8000   50.3830 H   0  0  0  0  0  0  0  0  0  0  0  0
   35.6040   31.0540   47.0740 H   0  0  0  0  0  0  0  0  0  0  0  0
   37.7210   30.7500   48.7550 C   0  0  0  0  0  0  0  0  0  0  0  0
   38.5070   30.4880   47.6810 F   0  0  0  0  0  0  0  0  0  0  0  0
   38.4650   30.4900   49.9000 F   0  0  0  0  0  0  0  0  0  0  0  0
   37.4340   32.1280   48.7480 F   0  0  0  0  0  0  0  0  0  0  0  0
   33.8760   26.2850   47.1910 C   0  0  0  0  0  0  0  0  0  0  0  0
   34.7780   26.5010   47.8300 H   0  0  0  0  0  0  0  0  0  0  0  0
   34.0270   26.8880   46.2690 H   0  0  0  0  0  0  0  0  0  0  0  0
   33.9130   24.8240   46.9030 C   0  0  0  0  0  0  0  0  0  0  0  0
   32.9060   24.4740   46.5650 H   0  0  0  0  0  0  0  0  0  0  0  0
   34.2520   24.2720   47.8000 H   0  0  0  0  0  0  0  0  0  0  0  0
   34.8750   24.5870   45.7960 C   0  0  0  0  0  0  0  0  0  0  0  0
   35.8900   23.6430   45.8400 C   0  0  0  0  0  0  0  0  0  0  0  0
   36.7660   23.4510   44.7920 C   0  0  0  0  0  0  0  0  0  0  0  0
   36.6530   24.2100   43.6480 C   0  0  0  0  0  0  0  0  0  0  0  0
   37.2950   24.1300   42.7740 H   0  0  0  0  0  0  0  0  0  0  0  0
   35.6270   25.1300   43.6680 C   0  0  0  0  0  0  0  0  0  0  0  0
   34.7590   25.3360   44.6780 N   0  0  0  0  0  0  0  0  0  0  0  0
  1 15  1  0  0  0  0
  1  2  1  0  0  0  0
  2  7  1  0  0  0  0
  3  2  2  0  0  0  0
  3  8  1  0  0  0  0
  4  3  1  0  0  0  0
  5  6  1  0  0  0  0
  5  4  2  0  0  0  0
  6  1  2  0  0  0  0
  9  4  1  0  0  0  0
 10  5  1  0  0  0  0
 11 17  1  0  0  0  0
 12 11  2  0  0  0  0
 13 14  2  0  0  0  0
 13 12  1  0  0  0  0
 14 15  1  0  0  0  0
 15 16  2  0  0  0  0
 16 11  1  0  0  0  0
 18 13  1  0  0  0  0
 19 12  1  0  0  0  0
 19 21  1  0  0  0  0
 20 19  1  0  0  0  0
 22 19  1  0  0  0  0
 23 24  1  0  0  0  0
 23  6  1  0  0  0  0
 25 23  1  0  0  0  0
 26 23  1  0  0  0  0
 26 28  1  0  0  0  0
 27 26  1  0  0  0  0
 29 30  1  0  0  0  0
 29 26  1  0  0  0  0
 31 30  2  0  0  0  0
 32 34  2  0  0  0  0
 32 31  1  0  0  0  0
 33 32  1  0  0  0  0
 34 35  1  0  0  0  0
 35 29  2  0  0  0  0
M  END
>  <minimizedAffinity>
-5.31535673

>  <minimizedRMSD>
0.591363728

$$$$
