
 OpenBabel03252514083D

 41 44  0  0  0  0  0  0  0  0999 V2000
   34.6470   29.9860   47.4080 C   0  0  0  0  0  0  0  0  0  0  0  0
   35.5150   29.9000   48.5000 C   0  0  0  0  0  0  0  0  0  0  0  0
   35.4250   28.7400   49.2600 C   0  0  0  0  0  0  0  0  0  0  0  0
   34.5370   27.7810   48.9270 N   0  0  0  0  0  0  0  0  0  0  0  0
   33.7180   27.8810   47.8820 C   0  0  0  0  0  0  0  0  0  0  0  0
   33.7860   28.9920   47.1330 N   0  0  0  0  0  0  0  0  0  0  0  0
   34.6580   30.8580   46.7700 H   0  0  0  0  0  0  0  0  0  0  0  0
   36.0870   28.6520   50.1090 H   0  0  0  0  0  0  0  0  0  0  0  0
   36.4070   30.9740   48.7550 N   0  0  0  0  0  0  0  0  0  0  0  0
   36.3870   31.7300   49.8680 C   0  0  0  0  0  0  0  0  0  0  0  0
   37.3750   32.6570   49.7730 N   0  0  0  0  0  0  0  0  0  0  0  0
   37.9880   32.4580   48.6020 C   0  0  0  0  0  0  0  0  0  0  0  0
   39.0460   33.0800   47.9710 C   0  0  0  0  0  0  0  0  0  0  0  0
   39.4710   32.6630   46.7610 N   0  0  0  0  0  0  0  0  0  0  0  0
   38.8840   31.6240   46.1150 C   0  0  0  0  0  0  0  0  0  0  0  0
   37.8560   31.0260   46.7400 N   0  0  0  0  0  0  0  0  0  0  0  0
   37.3970   31.4030   47.9440 C   0  0  0  0  0  0  0  0  0  0  0  0
   35.7260   31.6670   50.7320 H   0  0  0  0  0  0  0  0  0  0  0  0
   39.2220   31.2860   45.1440 H   0  0  0  0  0  0  0  0  0  0  0  0
   39.6990   34.1670   48.5900 N   0  0  0  0  0  0  0  0  0  0  0  0
   40.7370   34.0700   48.6720 H   0  0  0  0  0  0  0  0  0  0  0  0
   39.1660   35.0060   48.9380 H   0  0  0  0  0  0  0  0  0  0  0  0
   32.7290   26.8460   47.4850 C   0  0  0  0  0  0  0  0  0  0  0  0
   31.5290   26.9180   48.4420 C   0  0  0  0  0  0  0  0  0  0  0  0
   30.6010   26.5720   47.9640 H   0  0  0  0  0  0  0  0  0  0  0  0
   31.3890   28.0230   48.6190 H   0  0  0  0  0  0  0  0  0  0  0  0
   31.7470   26.5020   49.4280 H   0  0  0  0  0  0  0  0  0  0  0  0
   32.1570   27.1160   46.1090 C   0  0  0  0  0  0  0  0  0  0  0  0
   32.9360   27.0180   45.3440 H   0  0  0  0  0  0  0  0  0  0  0  0
   31.3280   26.3720   45.9890 H   0  0  0  0  0  0  0  0  0  0  0  0
   31.6980   28.1450   46.1290 H   0  0  0  0  0  0  0  0  0  0  0  0
   33.3200   25.4760   47.4780 C   0  0  0  0  0  0  0  0  0  0  0  0
   33.2230   25.0370   48.5080 H   0  0  0  0  0  0  0  0  0  0  0  0
   34.4240   25.6170   47.3420 H   0  0  0  0  0  0  0  0  0  0  0  0
   32.7710   24.6070   46.4420 C   0  0  0  0  0  0  0  0  0  0  0  0
   31.5780   23.9200   46.5220 C   0  0  0  0  0  3  0  0  0  0  0  0
   31.0540   23.0970   45.5460 C   0  0  0  0  0  3  0  0  0  0  0  0
   31.8730   23.0150   44.4150 C   0  0  0  0  0  0  0  0  0  0  0  0
   31.5640   22.3960   43.5790 H   0  0  0  0  0  0  0  0  0  0  0  0
   33.0730   23.6830   44.2870 C   0  0  0  0  0  3  0  0  0  0  0  0
   33.4820   24.4540   45.3000 N   0  0  0  0  0  0  0  0  0  0  0  0
  1  2  1  0  0  0  0
  2  9  1  0  0  0  0
  2  3  2  0  0  0  0
  3  8  1  0  0  0  0
  4  3  1  0  0  0  0
  5  4  2  0  0  0  0
  6  1  2  0  0  0  0
  6  5  1  0  0  0  0
  7  1  1  0  0  0  0
  9 10  1  0  0  0  0
 10 18  1  0  0  0  0
 11 10  2  0  0  0  0
 12 11  1  0  0  0  0
 13 20  1  0  0  0  0
 13 12  1  0  0  0  0
 14 13  2  0  0  0  0
 15 16  2  0  0  0  0
 15 14  1  0  0  0  0
 16 17  1  0  0  0  0
 17 12  2  0  0  0  0
 17  9  1  0  0  0  0
 19 15  1  0  0  0  0
 20 21  1  0  0  0  0
 20 22  1  0  0  0  0
 23  5  1  0  0  0  0
 23 24  1  0  0  0  0
 24 26  1  0  0  0  0
 24 27  1  0  0  0  0
 25 24  1  0  0  0  0
 28 31  1  0  0  0  0
 28 23  1  0  0  0  0
 29 28  1  0  0  0  0
 30 28  1  0  0  0  0
 32 23  1  0  0  0  0
 32 33  1  0  0  0  0
 34 32  1  0  0  0  0
 35 36  1  0  0  0  0
 35 32  1  0  0  0  0
 37 36  2  0  0  0  0
 38 37  1  0  0  0  0
 39 38  1  0  0  0  0
 40 38  2  0  0  0  0
 40 41  1  0  0  0  0
 41 35  2  0  0  0  0
M  END
>  <minimizedAffinity>
-5.36510229

>  <minimizedRMSD>
0.886010051

$$$$
