
 OpenBabel03252513053D

 31 33  0  0  0  0  0  0  0  0999 V2000
   38.1240   31.8300   45.8930 N   0  0  0  0  0  0  0  0  0  0  0  0
   39.2140   32.5850   45.8440 C   0  0  0  0  0  0  0  0  0  0  0  0
   39.7320   33.1640   44.7170 C   0  0  0  0  0  0  0  0  0  0  0  0
   39.1130   32.9800   43.5160 C   0  0  0  0  0  0  0  0  0  0  0  0
   39.5310   33.4770   42.4520 O   0  0  0  0  0  0  0  0  0  0  0  0
   38.0230   32.2310   43.5290 N   0  0  0  0  0  0  0  0  0  0  0  0
   37.5460   31.6810   44.6600 C   0  0  0  0  0  0  0  0  0  0  0  0
   36.4960   30.9850   44.5480 O   0  0  0  0  0  0  0  0  0  0  0  0
   39.7260   32.7450   46.8050 H   0  0  0  0  0  0  0  0  0  0  0  0
   40.6270   33.7580   44.8060 H   0  0  0  0  0  0  0  0  0  0  0  0
   37.3300   32.0100   42.2610 C   0  0  0  0  0  0  0  0  0  0  0  0
   36.8080   33.2880   41.6540 C   0  0  0  0  0  0  0  0  0  0  0  0
   35.6970   32.8550   40.6880 C   0  0  0  0  0  0  0  0  0  0  0  0
   35.8970   31.4470   40.2030 C   0  0  0  0  0  0  0  0  0  0  0  0
   37.3390   31.0560   40.0320 C   0  0  0  0  0  0  0  0  0  0  0  0
   38.1900   31.3080   41.2440 C   0  0  0  0  0  0  0  0  0  0  0  0
   37.5180   31.1980   46.9910 C   0  0  0  0  0  0  0  0  0  0  0  0
   36.5270   31.7080   47.1720 H   0  0  0  0  0  0  0  0  0  0  0  0
   37.2440   30.1470   46.7430 H   0  0  0  0  0  0  0  0  0  0  0  0
   38.2270   31.1950   48.2980 C   0  0  0  0  0  0  0  0  0  0  0  0
   39.2080   30.6910   48.1970 H   0  0  0  0  0  0  0  0  0  0  0  0
   38.4420   32.2340   48.6140 H   0  0  0  0  0  0  0  0  0  0  0  0
   35.6700   29.1940   50.2510 C   0  0  0  0  0  0  0  0  0  0  0  0
   36.3320   29.7970   49.1640 C   0  0  0  0  0  0  0  0  0  0  0  0
   37.4740   30.5320   49.3740 C   0  0  0  0  0  0  0  0  0  0  0  0
   37.9120   30.6380   50.6580 N   0  0  0  0  0  0  0  0  0  0  0  0
   37.2970   30.0740   51.6850 C   0  0  0  0  0  0  0  0  0  0  0  0
   36.1830   29.3550   51.4950 N   0  0  0  0  0  0  0  0  0  0  0  0
   34.7740   28.6160   50.0920 H   0  0  0  0  0  0  0  0  0  0  0  0
   35.9440   29.6870   48.1490 H   0  0  0  0  0  0  0  0  0  0  0  0
   37.7410   30.2290   52.6600 H   0  0  0  0  0  0  0  0  0  0  0  0
  1 17  1  0  0  0  0
  2  1  1  0  0  0  0
  2  9  1  0  0  0  0
  3 10  1  0  0  0  0
  3  2  2  0  0  0  0
  4  6  1  0  0  0  0
  4  3  1  0  0  0  0
  5  4  2  0  0  0  0
  6  7  1  0  0  0  0
  7  1  1  0  0  0  0
  8  7  2  0  0  0  0
 11  6  1  0  0  0  0
 12 11  1  0  0  0  0
 13 12  1  0  0  0  0
 14 13  1  0  0  0  0
 15 14  1  0  0  0  0
 15 16  1  0  0  0  0
 16 11  1  0  0  0  0
 17 18  1  0  0  0  0
 17 20  1  0  0  0  0
 19 17  1  0  0  0  0
 20 22  1  0  0  0  0
 20 25  1  0  0  0  0
 21 20  1  0  0  0  0
 23 28  1  0  0  0  0
 24 25  1  0  0  0  0
 24 23  2  0  0  0  0
 25 26  2  0  0  0  0
 26 27  1  0  0  0  0
 27 31  1  0  0  0  0
 28 27  2  0  0  0  0
 29 23  1  0  0  0  0
 30 24  1  0  0  0  0
M  END
>  <minimizedAffinity>
-5.20437193

>  <minimizedRMSD>
1.38601279

$$$$
