
 OpenBabel03252513323D

 19 20  0  0  0  0  0  0  0  0999 V2000
   36.9230   29.9390   49.4270 C   0  0  0  0  0  0  0  0  0  0  0  0
   37.9980   30.4710   48.7120 C   0  0  0  0  0  0  0  0  0  0  0  0
   37.7890   30.8210   47.3790 C   0  0  0  0  0  0  0  0  0  0  0  0
   36.5530   30.6260   46.8440 N   0  0  0  0  0  0  0  0  0  0  0  0
   35.5340   30.1070   47.5680 C   0  0  0  0  0  0  0  0  0  0  0  0
   35.7200   29.7690   48.8440 N   0  0  0  0  0  0  0  0  0  0  0  0
   38.9570   30.6020   49.1920 H   0  0  0  0  0  0  0  0  0  0  0  0
   34.5850   29.9920   47.0500 H   0  0  0  0  0  0  0  0  0  0  0  0
   38.8810   31.3630   46.6470 N   0  0  0  0  0  0  0  0  0  0  0  0
   39.6780   30.6480   45.8870 N   0  0  0  0  0  0  0  0  0  0  0  0
   40.6180   31.4380   45.3240 C   0  0  0  0  0  0  0  0  0  0  0  0
   41.3490   30.9760   44.6660 H   0  0  0  0  0  0  0  0  0  0  0  0
   40.3660   32.7150   45.7780 C   0  0  0  0  0  0  0  0  0  0  0  0
   39.2720   32.6500   46.6090 C   0  0  0  0  0  0  0  0  0  0  0  0
   38.8390   33.5010   47.1160 H   0  0  0  0  0  0  0  0  0  0  0  0
   37.1180   29.5530   50.8650 C   0  0  0  0  0  0  0  0  0  0  0  0
   35.8920   29.4470   51.4990 F   0  0  0  0  0  0  0  0  0  0  0  0
   37.8690   28.4240   50.9090 F   0  0  0  0  0  0  0  0  0  0  0  0
   37.7860   30.6170   51.4800 F   0  0  0  0  0  0  0  0  0  0  0  0
  1 16  1  0  0  0  0
  2  7  1  0  0  0  0
  2  1  2  0  0  0  0
  3  2  1  0  0  0  0
  4  3  2  0  0  0  0
  4  5  1  0  0  0  0
  5  6  2  0  0  0  0
  6  1  1  0  0  0  0
  8  5  1  0  0  0  0
  9  3  1  0  0  0  0
 10  9  1  0  0  0  0
 11 13  1  0  0  0  0
 11 10  2  0  0  0  0
 12 11  1  0  0  0  0
 13 14  2  0  0  0  0
 14  9  1  0  0  0  0
 14 15  1  0  0  0  0
 16 18  1  0  0  0  0
 16 19  1  0  0  0  0
 16 17  1  0  0  0  0
M  END
>  <minimizedAffinity>
-5.73763657

>  <minimizedRMSD>
2.40112424

$$$$
