
 OpenBabel03252514043D

 36 39  0  0  1  0  0  0  0  0999 V2000
   35.2500   29.1850   48.5950 C   0  0  2  0  0  0  0  0  0  0  0  0
   34.0310   29.3180   49.3870 C   0  0  0  0  0  0  0  0  0  0  0  0
   34.3840   27.9680   49.0620 C   0  0  1  0  0  0  0  0  0  0  0  0
   35.3300   29.2830   47.5050 H   0  0  0  0  0  0  0  0  0  0  0  0
   33.1450   29.8120   48.8950 H   0  0  0  0  0  0  0  0  0  0  0  0
   34.1500   29.7290   50.4250 H   0  0  0  0  0  0  0  0  0  0  0  0
   34.9380   27.2750   49.6930 H   0  0  0  0  0  0  0  0  0  0  0  0
   36.5740   29.2250   49.3770 C   0  0  0  0  0  0  0  0  0  0  0  0
   36.3550   29.1290   50.4480 H   0  0  0  0  0  0  0  0  0  0  0  0
   37.2160   28.3830   48.9930 H   0  0  0  0  0  0  0  0  0  0  0  0
   37.6010   32.7240   49.5780 C   0  0  0  0  0  0  0  0  0  0  0  0
   38.4750   32.8560   48.4910 C   0  0  0  0  0  0  0  0  0  0  0  0
   38.7020   31.7120   47.6910 C   0  0  0  0  0  0  0  0  0  0  0  0
   38.0570   30.5500   48.0240 N   0  0  0  0  0  0  0  0  0  0  0  0
   37.2340   30.4830   49.0710 C   0  0  0  0  0  0  0  0  0  0  0  0
   37.0090   31.5750   49.8460 N   0  0  0  0  0  0  0  0  0  0  0  0
   37.4610   33.6290   50.1590 H   0  0  0  0  0  0  0  0  0  0  0  0
   38.9910   33.7480   48.2090 H   0  0  0  0  0  0  0  0  0  0  0  0
   39.3670   31.7790   46.8500 H   0  0  0  0  0  0  0  0  0  0  0  0
   33.5380   27.3110   47.9900 C   0  0  0  0  0  0  0  0  0  0  0  0
   33.8760   26.0850   47.7600 O   0  0  0  0  0  0  0  0  0  0  0  0
   32.4870   27.9020   47.2890 O   0  0  0  0  0  0  0  0  0  0  0  0
   31.2340   28.0730   47.8180 C   0  0  0  0  0  0  0  0  0  0  0  0
   30.7940   27.5930   49.1540 C   0  0  0  0  0  0  0  0  0  0  0  0
   29.5210   27.8500   49.5170 C   0  0  0  0  0  0  0  0  0  0  0  0
   28.6280   28.5440   48.6780 C   0  0  0  0  0  0  0  0  0  0  0  0
   29.6580   28.9040   47.1720 S   0  0  0  0  0  0  0  0  0  0  0  0
   31.5250   27.0720   49.7400 H   0  0  0  0  0  0  0  0  0  0  0  0
   29.1250   27.5350   50.4670 H   0  0  0  0  0  0  0  0  0  0  0  0
   27.3630   28.9170   48.7910 N   0  0  0  0  0  0  0  0  0  0  0  0
   26.8450   30.1540   48.8420 N   0  0  0  0  0  0  0  0  0  0  0  0
   25.5210   30.1280   48.9580 C   0  0  0  0  0  0  0  0  0  0  0  0
   24.8860   31.0010   49.0180 H   0  0  0  0  0  0  0  0  0  0  0  0
   25.1210   28.8090   48.9880 C   0  0  0  0  0  3  0  0  0  0  0  0
   26.2880   28.0840   48.8820 C   0  0  0  0  0  0  0  0  0  0  0  0
   26.2900   26.9870   48.8760 H   0  0  0  0  0  0  0  0  0  0  0  0
  1  4  1  6  0  0  0
  1  3  1  0  0  0  0
  1  8  1  0  0  0  0
  1  2  1  0  0  0  0
  2  6  1  0  0  0  0
  3  2  1  0  0  0  0
  3  7  1  1  0  0  0
  5  2  1  0  0  0  0
  8  9  1  0  0  0  0
 10  8  1  0  0  0  0
 11 16  1  0  0  0  0
 11 17  1  0  0  0  0
 12 11  2  0  0  0  0
 13 14  2  0  0  0  0
 13 12  1  0  0  0  0
 14 15  1  0  0  0  0
 15  8  1  0  0  0  0
 15 16  2  0  0  0  0
 18 12  1  0  0  0  0
 19 13  1  0  0  0  0
 20  3  1  0  0  0  0
 21 20  2  0  0  0  0
 22 23  1  0  0  0  0
 22 20  1  0  0  0  0
 23 24  2  0  0  0  0
 24 25  1  0  0  0  0
 24 28  1  0  0  0  0
 25 29  1  0  0  0  0
 26 30  1  0  0  0  0
 26 25  2  0  0  0  0
 27 23  1  0  0  0  0
 27 26  1  0  0  0  0
 30 31  1  0  0  0  0
 30 35  1  0  0  0  0
 31 32  2  0  0  0  0
 32 34  1  0  0  0  0
 32 33  1  0  0  0  0
 35 34  2  0  0  0  0
 36 35  1  0  0  0  0
M  END
>  <minimizedAffinity>
-6.23686266

>  <minimizedRMSD>
1.60128522

$$$$
