
 OpenBabel03252513173D

 28 30  0  0  1  0  0  0  0  0999 V2000
   38.0490   31.2940   47.6690 N   0  0  0  0  0  0  0  0  0  0  0  0
   38.9850   32.4010   47.7960 C   0  0  0  0  0  0  0  0  0  0  0  0
   38.3930   33.1650   48.9340 C   0  0  0  0  0  0  0  0  0  0  0  0
   38.0400   32.0940   49.9160 C   0  0  0  0  0  0  0  0  0  0  0  0
   37.8960   30.8780   49.0540 C   0  0  1  0  0  0  0  0  0  0  0  0
   39.9620   31.9890   48.0860 H   0  0  0  0  0  0  0  0  0  0  0  0
   39.0530   33.0020   46.8640 H   0  0  0  0  0  0  0  0  0  0  0  0
   37.5240   33.7820   48.6340 H   0  0  0  0  0  0  0  0  0  0  0  0
   39.1580   33.8310   49.4070 H   0  0  0  0  0  0  0  0  0  0  0  0
   38.7650   31.9850   50.7320 H   0  0  0  0  0  0  0  0  0  0  0  0
   37.0350   32.3840   50.3410 H   0  0  0  0  0  0  0  0  0  0  0  0
   38.7440   30.2060   49.2920 H   0  0  0  0  0  0  0  0  0  0  0  0
   37.4510   30.7720   46.4890 C   0  0  0  0  0  0  0  0  0  0  0  0
   38.2360   30.4670   45.3680 C   0  0  0  0  0  0  0  0  0  0  0  0
   37.5720   29.9490   44.2280 C   0  0  0  0  0  0  0  0  0  0  0  0
   36.2130   29.7760   44.2890 N   0  0  0  0  0  0  0  0  0  0  0  0
   35.5020   30.0850   45.3950 C   0  0  0  0  0  0  0  0  0  0  0  0
   36.1380   30.5800   46.4810 N   0  0  0  0  0  0  0  0  0  0  0  0
   39.3050   30.6320   45.3950 H   0  0  0  0  0  0  0  0  0  0  0  0
   38.1610   29.7170   43.3760 H   0  0  0  0  0  0  0  0  0  0  0  0
   34.4350   29.9110   45.3440 H   0  0  0  0  0  0  0  0  0  0  0  0
   36.6240   30.2330   49.3110 N   0  0  0  0  0  0  0  0  0  0  0  0
   36.4400   28.9080   49.3360 N   0  0  0  0  0  0  0  0  0  0  0  0
   35.1690   28.5970   49.5950 C   0  0  0  0  0  0  0  0  0  0  0  0
   34.8630   27.5610   49.6480 H   0  0  0  0  0  0  0  0  0  0  0  0
   34.4650   29.7730   49.7530 C   0  0  0  0  0  0  0  0  0  0  0  0
   35.4090   30.7670   49.5680 C   0  0  0  0  0  0  0  0  0  0  0  0
   35.2180   31.8390   49.6190 H   0  0  0  0  0  0  0  0  0  0  0  0
  1  2  1  0  0  0  0
  1  5  1  0  0  0  0
  2  6  1  0  0  0  0
  2  3  1  0  0  0  0
  3  9  1  0  0  0  0
  3  4  1  0  0  0  0
  4 11  1  0  0  0  0
  4 10  1  0  0  0  0
  5 12  1  1  0  0  0
  5 22  1  0  0  0  0
  5  4  1  0  0  0  0
  7  2  1  0  0  0  0
  8  3  1  0  0  0  0
 13  1  1  0  0  0  0
 14 19  1  0  0  0  0
 14 13  2  0  0  0  0
 15 16  2  0  0  0  0
 15 14  1  0  0  0  0
 16 17  1  0  0  0  0
 17 18  2  0  0  0  0
 18 13  1  0  0  0  0
 20 15  1  0  0  0  0
 21 17  1  0  0  0  0
 22 23  1  0  0  0  0
 22 27  1  0  0  0  0
 23 24  2  0  0  0  0
 24 25  1  0  0  0  0
 24 26  1  0  0  0  0
 27 28  1  0  0  0  0
 27 26  2  0  0  0  0
M  END
>  <minimizedAffinity>
-4.7739501

>  <minimizedRMSD>
3.502244

$$$$
