
 OpenBabel03252512383D

 41 44  0  0  1  0  0  0  0  0999 V2000
   39.2930   30.9380   46.4300 C   0  0  2  0  0  0  0  0  0  0  0  0
   40.1170   31.9930   45.8820 C   0  0  0  0  0  0  0  0  0  0  0  0
   40.9910   31.5710   44.7480 C   0  0  0  0  0  0  0  0  0  0  0  0
   40.2990   30.7540   43.7330 C   0  0  0  0  0  0  0  0  0  0  0  0
   39.3630   29.7680   44.2670 C   0  0  0  0  0  0  0  0  0  0  0  0
   38.4240   30.3540   45.3840 C   0  0  2  0  0  0  0  0  0  0  0  0
   39.9470   30.0980   46.7790 H   0  0  0  0  0  0  0  0  0  0  0  0
   39.7200   32.9750   45.6630 H   0  0  0  0  0  0  0  0  0  0  0  0
   40.8690   32.2270   46.7050 H   0  0  0  0  0  0  0  0  0  0  0  0
   41.8450   30.9440   45.1390 H   0  0  0  0  0  0  0  0  0  0  0  0
   41.4800   32.4640   44.3030 H   0  0  0  0  0  0  0  0  0  0  0  0
   41.0710   30.2080   43.1530 H   0  0  0  0  0  0  0  0  0  0  0  0
   39.7840   31.4220   42.9900 H   0  0  0  0  0  0  0  0  0  0  0  0
   38.7080   29.3820   43.4710 H   0  0  0  0  0  0  0  0  0  0  0  0
   39.8620   28.9200   44.7530 H   0  0  0  0  0  0  0  0  0  0  0  0
   37.8580   29.4330   45.6640 H   0  0  0  0  0  0  0  0  0  0  0  0
   38.5780   32.6180   48.2410 C   0  0  0  0  0  0  0  0  0  0  0  0
   38.5030   31.3380   47.5910 C   0  0  0  0  0  0  0  0  0  0  0  0
   37.6320   30.4130   48.0530 C   0  0  0  0  0  0  0  0  0  0  0  0
   36.8550   30.7540   49.1370 N   0  0  0  0  0  0  0  0  0  0  0  0
   36.9490   31.9890   49.7400 C   0  0  0  0  0  0  0  0  0  0  0  0
   37.8220   32.9220   49.2780 N   0  0  0  0  0  0  0  0  0  0  0  0
   39.3250   33.2680   47.7610 H   0  0  0  0  0  0  0  0  0  0  0  0
   37.4900   29.4240   47.6480 H   0  0  0  0  0  0  0  0  0  0  0  0
   36.3070   32.1930   50.5890 H   0  0  0  0  0  0  0  0  0  0  0  0
   37.5850   31.3310   44.7010 C   0  0  0  0  0  0  0  0  0  0  0  0
   37.5110   32.5830   44.9670 O   0  0  0  0  0  0  0  0  0  0  0  0
   36.8280   30.8180   43.7030 O   0  0  0  0  0  0  0  0  0  0  0  0
   35.8200   31.6300   43.1220 C   0  0  0  0  0  0  0  0  0  0  0  0
   34.4580   31.3860   43.3330 C   0  0  0  0  0  0  0  0  0  0  0  0
   33.8140   32.3670   42.6180 C   0  0  0  0  0  0  0  0  0  0  0  0
   34.7310   33.1620   42.0070 N   0  0  0  0  0  0  0  0  0  0  0  0
   35.9250   32.6900   42.3320 N   0  0  0  0  0  0  0  0  0  0  0  0
   33.9870   30.6100   43.9200 H   0  0  0  0  0  0  0  0  0  0  0  0
   32.7430   32.4930   42.5470 H   0  0  0  0  0  0  0  0  0  0  0  0
   34.3890   34.2920   41.1740 C   0  0  0  0  0  0  0  0  0  0  0  0
   33.8310   35.4430   41.9400 C   0  0  0  0  0  0  0  0  0  0  0  0
   33.9910   36.6950   41.1000 C   0  0  0  0  0  0  0  0  0  0  0  0
   33.9450   36.3290   39.6500 C   0  0  0  0  0  0  0  0  0  0  0  0
   33.0310   35.1670   39.3400 C   0  0  0  0  0  0  0  0  0  0  0  0
   33.4080   33.9120   40.0730 C   0  0  0  0  0  0  0  0  0  0  0  0
  1  7  1  1  0  0  0
  1 18  1  0  0  0  0
  2  1  1  0  0  0  0
  2  9  1  0  0  0  0
  3 10  1  0  0  0  0
  3  2  1  0  0  0  0
  4  5  1  0  0  0  0
  4  3  1  0  0  0  0
  5 15  1  0  0  0  0
  5  6  1  0  0  0  0
  6 16  1  1  0  0  0
  6  1  1  0  0  0  0
  8  2  1  0  0  0  0
 11  3  1  0  0  0  0
 12  4  1  0  0  0  0
 13  4  1  0  0  0  0
 14  5  1  0  0  0  0
 17 22  1  0  0  0  0
 18 19  1  0  0  0  0
 18 17  2  0  0  0  0
 19 20  2  0  0  0  0
 20 21  1  0  0  0  0
 21 25  1  0  0  0  0
 22 21  2  0  0  0  0
 23 17  1  0  0  0  0
 24 19  1  0  0  0  0
 26 27  2  0  0  0  0
 26  6  1  0  0  0  0
 28 26  1  0  0  0  0
 29 30  1  0  0  0  0
 29 28  1  0  0  0  0
 30 34  1  0  0  0  0
 31 30  2  0  0  0  0
 32 33  1  0  0  0  0
 32 31  1  0  0  0  0
 33 29  2  0  0  0  0
 35 31  1  0  0  0  0
 36 37  1  0  0  0  0
 36 32  1  0  0  0  0
 38 37  1  0  0  0  0
 39 38  1  0  0  0  0
 40 39  1  0  0  0  0
 40 41  1  0  0  0  0
 41 36  1  0  0  0  0
M  END
>  <minimizedAffinity>
-5.45970964

>  <minimizedRMSD>
1.40397584

$$$$
