
 OpenBabel03252514013D

 29 31  0  0  1  0  0  0  0  0999 V2000
   35.3710   29.3940   49.0080 C   0  0  2  0  0  0  0  0  0  0  0  0
   34.2330   29.4300   49.9370 C   0  0  0  0  0  0  0  0  0  0  0  0
   34.5740   28.1280   49.3680 C   0  0  1  0  0  0  0  0  0  0  0  0
   35.2740   29.8340   48.0130 H   0  0  0  0  0  0  0  0  0  0  0  0
   33.2830   29.9390   49.6510 H   0  0  0  0  0  0  0  0  0  0  0  0
   34.4900   29.5790   51.0100 H   0  0  0  0  0  0  0  0  0  0  0  0
   35.2190   27.3220   49.7190 H   0  0  0  0  0  0  0  0  0  0  0  0
   36.7730   29.3650   49.6130 C   0  0  0  0  0  0  0  0  0  0  0  0
   36.6700   29.4690   50.7100 H   0  0  0  0  0  0  0  0  0  0  0  0
   37.2490   28.4050   49.3770 H   0  0  0  0  0  0  0  0  0  0  0  0
   38.3630   32.6610   49.4110 C   0  0  0  0  0  0  0  0  0  0  0  0
   38.8860   32.6750   48.1080 C   0  0  0  0  0  0  0  0  0  0  0  0
   38.6850   31.5390   47.3070 C   0  0  0  0  0  0  0  0  0  0  0  0
   37.9890   30.4800   47.8400 N   0  0  0  0  0  0  0  0  0  0  0  0
   37.5110   30.5170   49.0900 C   0  0  0  0  0  0  0  0  0  0  0  0
   37.7010   31.6100   49.8660 N   0  0  0  0  0  0  0  0  0  0  0  0
   38.5800   33.5800   49.9220 H   0  0  0  0  0  0  0  0  0  0  0  0
   39.4310   33.4540   47.6360 H   0  0  0  0  0  0  0  0  0  0  0  0
   39.0540   31.4680   46.2950 H   0  0  0  0  0  0  0  0  0  0  0  0
   33.5990   27.6200   48.3380 C   0  0  0  0  0  0  0  0  0  0  0  0
   33.9340   26.4860   47.8060 O   0  0  0  0  0  0  0  0  0  0  0  0
   32.4230   28.2330   47.9380 O   0  0  0  0  0  0  0  0  0  0  0  0
   31.2140   27.8050   48.4430 C   0  0  0  0  0  0  0  0  0  0  0  0
   30.5120   27.8000   49.6300 C   0  0  0  0  0  0  0  0  0  0  0  0
   29.3200   27.1660   49.3510 C   0  0  0  0  0  0  0  0  0  0  0  0
   28.5910   27.0400   50.1410 H   0  0  0  0  0  0  0  0  0  0  0  0
   29.2930   26.8000   48.0570 N   0  0  0  0  0  0  0  0  0  0  0  0
   30.4410   27.1870   47.5040 N   0  0  0  0  0  0  0  0  0  0  0  0
   28.4890   26.2970   47.5950 H   0  0  0  0  0  0  0  0  0  0  0  0
  1  4  1  6  0  0  0
  1  3  1  0  0  0  0
  1  8  1  0  0  0  0
  1  2  1  0  0  0  0
  2  6  1  0  0  0  0
  3  7  1  1  0  0  0
  3  2  1  0  0  0  0
  5  2  1  0  0  0  0
  8  9  1  0  0  0  0
 10  8  1  0  0  0  0
 11 16  1  0  0  0  0
 11 17  1  0  0  0  0
 12 11  2  0  0  0  0
 13 14  2  0  0  0  0
 13 12  1  0  0  0  0
 14 15  1  0  0  0  0
 15  8  1  0  0  0  0
 15 16  2  0  0  0  0
 18 12  1  0  0  0  0
 19 13  1  0  0  0  0
 20  3  1  0  0  0  0
 21 20  2  0  0  0  0
 22 20  1  0  0  0  0
 22 23  1  0  0  0  0
 23 24  1  0  0  0  0
 25 24  2  0  0  0  0
 25 26  1  0  0  0  0
 27 25  1  0  0  0  0
 28 27  1  0  0  0  0
 28 23  2  0  0  0  0
 29 27  1  0  0  0  0
M  END
>  <minimizedAffinity>
-5.09808779

>  <minimizedRMSD>
1.33265269

$$$$
