
 OpenBabel03252513313D

 41 44  0  0  0  0  0  0  0  0999 V2000
   31.6080   26.1670   47.9250 C   0  0  0  0  0  0  0  0  0  0  0  0
   31.7380   24.8440   47.6930 C   0  0  0  0  0  0  0  0  0  0  0  0
   32.9100   24.2670   47.2330 C   0  0  0  0  0  0  0  0  0  0  0  0
   33.9640   25.1190   47.0150 C   0  0  0  0  0  0  0  0  0  0  0  0
   33.8540   26.4690   47.2430 C   0  0  0  0  0  0  0  0  0  0  0  0
   32.6740   27.0120   47.7010 C   0  0  0  0  0  0  0  0  0  0  0  0
   30.8520   24.2310   47.8910 H   0  0  0  0  0  0  0  0  0  0  0  0
   32.8660   23.1920   47.0930 H   0  0  0  0  0  0  0  0  0  0  0  0
   34.8750   24.6460   46.6540 H   0  0  0  0  0  0  0  0  0  0  0  0
   34.7130   27.1010   47.0560 H   0  0  0  0  0  0  0  0  0  0  0  0
   28.9940   27.5290   50.1380 C   0  0  0  0  0  0  0  0  0  0  0  0
   27.9450   27.8150   49.2230 C   0  0  0  0  0  0  0  0  0  0  0  0
   28.1780   27.5290   47.8740 C   0  0  0  0  0  0  0  0  0  0  0  0
   29.3920   26.9920   47.5040 N   0  0  0  0  0  0  0  0  0  0  0  0
   30.3540   26.7400   48.4110 C   0  0  0  0  0  0  0  0  0  0  0  0
   30.1320   27.0130   49.6960 N   0  0  0  0  0  0  0  0  0  0  0  0
   28.7850   27.7600   51.1590 H   0  0  0  0  0  0  0  0  0  0  0  0
   27.4500   27.7100   47.1200 H   0  0  0  0  0  0  0  0  0  0  0  0
   26.6500   28.3910   49.6510 C   0  0  0  0  0  0  0  0  0  0  0  0
   26.6320   29.7580   49.6320 F   0  0  0  0  0  0  0  0  0  0  0  0
   26.3150   27.9860   50.9340 F   0  0  0  0  0  0  0  0  0  0  0  0
   25.6380   27.9420   48.7820 F   0  0  0  0  0  0  0  0  0  0  0  0
   32.5060   28.4570   47.9600 C   0  0  0  0  0  0  0  0  0  0  0  0
   32.4430   28.6170   49.0530 H   0  0  0  0  0  0  0  0  0  0  0  0
   31.4890   28.7800   47.5880 H   0  0  0  0  0  0  0  0  0  0  0  0
   33.4790   29.3320   47.2570 C   0  0  0  0  0  0  0  0  0  0  0  0
   33.8760   28.8860   46.3020 H   0  0  0  0  0  0  0  0  0  0  0  0
   33.0430   30.3070   46.9240 H   0  0  0  0  0  0  0  0  0  0  0  0
   34.6030   29.6580   48.1350 C   0  0  0  0  0  0  0  0  0  0  0  0
   34.4860   29.8470   49.4990 C   0  0  0  0  0  0  0  0  0  0  0  0
   35.7280   30.1410   50.0230 C   0  0  0  0  0  0  0  0  0  0  0  0
   36.5720   30.1200   48.9380 N   0  0  0  0  0  0  0  0  0  0  0  0
   35.9060   29.8360   47.8310 N   0  0  0  0  0  0  0  0  0  0  0  0
   33.6700   29.8120   50.2070 H   0  0  0  0  0  0  0  0  0  0  0  0
   36.0740   30.3560   51.0420 H   0  0  0  0  0  0  0  0  0  0  0  0
   37.9990   30.3790   49.0180 C   0  0  0  0  0  0  0  0  0  0  0  0
   38.5090   30.8550   47.7000 C   0  0  0  0  0  0  0  0  0  0  0  0
   38.2340   32.2950   47.4050 C   0  0  0  0  0  0  0  0  0  0  0  0
   38.5490   33.2250   48.5320 C   0  0  0  0  0  0  0  0  0  0  0  0
   37.8950   32.7490   49.7910 C   0  0  0  0  0  0  0  0  0  0  0  0
   38.3450   31.3400   50.1170 C   0  0  0  0  0  0  0  0  0  0  0  0
  1 15  1  0  0  0  0
  2  7  1  0  0  0  0
  2  1  2  0  0  0  0
  3  2  1  0  0  0  0
  4  3  2  0  0  0  0
  4  5  1  0  0  0  0
  5  6  2  0  0  0  0
  6  1  1  0  0  0  0
  6 23  1  0  0  0  0
  8  3  1  0  0  0  0
  9  4  1  0  0  0  0
 10  5  1  0  0  0  0
 11 17  1  0  0  0  0
 12 19  1  0  0  0  0
 12 11  2  0  0  0  0
 13 12  1  0  0  0  0
 14 13  2  0  0  0  0
 14 15  1  0  0  0  0
 15 16  2  0  0  0  0
 16 11  1  0  0  0  0
 18 13  1  0  0  0  0
 19 21  1  0  0  0  0
 20 19  1  0  0  0  0
 22 19  1  0  0  0  0
 23 24  1  0  0  0  0
 25 23  1  0  0  0  0
 26 23  1  0  0  0  0
 26 29  1  0  0  0  0
 27 26  1  0  0  0  0
 28 26  1  0  0  0  0
 29 30  1  0  0  0  0
 30 31  2  0  0  0  0
 30 34  1  0  0  0  0
 31 35  1  0  0  0  0
 32 36  1  0  0  0  0
 32 31  1  0  0  0  0
 33 29  2  0  0  0  0
 33 32  1  0  0  0  0
 36 41  1  0  0  0  0
 37 36  1  0  0  0  0
 38 37  1  0  0  0  0
 38 39  1  0  0  0  0
 39 40  1  0  0  0  0
 40 41  1  0  0  0  0
M  END
>  <minimizedAffinity>
-7.06145668

>  <minimizedRMSD>
1.74995589

$$$$
