
 OpenBabel03252512273D

 31 33  0  0  1  0  0  0  0  0999 V2000
   35.3080   29.6070   48.4660 C   0  0  0  0  0  0  0  0  0  0  0  0
   34.9580   28.5550   49.3360 C   0  0  0  0  0  0  0  0  0  0  0  0
   33.8510   27.8460   49.0120 C   0  0  0  0  0  0  0  0  0  0  0  0
   33.1640   28.1660   47.9190 C   0  0  0  0  0  0  0  0  0  0  0  0
   34.0490   29.5760   47.1900 S   0  0  0  0  0  0  0  0  0  0  0  0
   35.6010   28.3790   50.2140 H   0  0  0  0  0  0  0  0  0  0  0  0
   33.5200   27.0150   49.6230 H   0  0  0  0  0  0  0  0  0  0  0  0
   38.1050   31.4920   49.9920 C   0  0  0  0  0  0  0  0  0  0  0  0
   38.6600   32.1350   48.8640 C   0  0  0  0  0  0  0  0  0  0  0  0
   38.0730   31.9220   47.6070 C   0  0  0  0  0  0  0  0  0  0  0  0
   36.9830   31.0990   47.5140 N   0  0  0  0  0  0  0  0  0  0  0  0
   36.4930   30.5090   48.6210 C   0  0  0  0  0  0  0  0  0  0  0  0
   37.0210   30.6810   49.8470 N   0  0  0  0  0  0  0  0  0  0  0  0
   38.5870   31.6860   50.9180 H   0  0  0  0  0  0  0  0  0  0  0  0
   39.5070   32.7830   48.8930 H   0  0  0  0  0  0  0  0  0  0  0  0
   38.4500   32.3840   46.7100 H   0  0  0  0  0  0  0  0  0  0  0  0
   31.9510   27.5780   47.3210 C   0  0  2  0  0  0  0  0  0  0  0  0
   32.1860   26.9580   46.4410 H   0  0  0  0  0  0  0  0  0  0  0  0
   31.0800   28.7020   46.8300 C   0  0  0  0  0  0  0  0  0  0  0  0
   30.8240   29.3470   47.6960 H   0  0  0  0  0  0  0  0  0  0  0  0
   30.1540   28.2650   46.3990 H   0  0  0  0  0  0  0  0  0  0  0  0
   31.6430   29.2460   46.0480 H   0  0  0  0  0  0  0  0  0  0  0  0
   31.2630   26.6920   48.3120 C   0  0  0  0  0  0  0  0  0  0  0  0
   31.2890   25.6580   47.9400 H   0  0  0  0  0  0  0  0  0  0  0  0
   31.9340   26.6770   49.2210 H   0  0  0  0  0  0  0  0  0  0  0  0
   29.9000   27.1640   48.6970 C   0  0  0  0  0  0  0  0  0  0  0  0
   29.8790   27.9600   49.9210 C   0  0  0  0  0  0  0  0  0  0  0  0
   28.1380   28.3650   50.1060 S   0  0  0  0  0  0  0  0  0  0  0  0
   27.6820   27.4130   48.5210 C   0  0  0  0  0  0  0  0  0  0  0  0
   26.7260   27.1530   47.8740 H   0  0  0  0  0  0  0  0  0  0  0  0
   28.7800   26.9320   48.0540 N   0  0  0  0  0  0  0  0  0  0  0  0
  1 12  1  0  0  0  0
  1  2  2  0  0  0  0
  2  6  1  0  0  0  0
  3  2  1  0  0  0  0
  3  7  1  0  0  0  0
  4  3  2  0  0  0  0
  5  4  1  0  0  0  0
  5  1  1  0  0  0  0
  8 14  1  0  0  0  0
  9 15  1  0  0  0  0
  9  8  2  0  0  0  0
 10  9  1  0  0  0  0
 11 10  2  0  0  0  0
 11 12  1  0  0  0  0
 12 13  2  0  0  0  0
 13  8  1  0  0  0  0
 16 10  1  0  0  0  0
 17 18  1  6  0  0  0
 17  4  1  0  0  0  0
 17 23  1  0  0  0  0
 19 17  1  0  0  0  0
 19 20  1  0  0  0  0
 21 19  1  0  0  0  0
 22 19  1  0  0  0  0
 23 26  1  0  0  0  0
 23 25  1  0  0  0  0
 24 23  1  0  0  0  0
 26 27  2  0  0  0  0
 27 28  1  0  0  0  0
 29 28  1  0  0  0  0
 30 29  1  0  0  0  0
 31 29  2  0  0  0  0
 31 26  1  0  0  0  0
M  END
>  <minimizedAffinity>
-5.08180714

>  <minimizedRMSD>
1.31248438

$$$$
