
 OpenBabel03252511133D

 21 23  0  0  0  0  0  0  0  0999 V2000
   38.6460   32.1320   47.8690 C   0  0  0  0  0  0  0  0  0  0  0  0
   38.9890   32.9780   48.7570 O   0  0  0  0  0  0  0  0  0  0  0  0
   37.5000   31.2130   48.0610 C   0  0  0  0  0  0  0  0  0  0  0  0
   36.7520   30.9710   46.9130 C   0  0  0  0  0  0  0  0  0  0  0  0
   35.6500   30.1450   46.8580 C   0  0  0  0  0  0  0  0  0  0  0  0
   35.2650   29.5200   48.0190 C   0  0  0  0  0  0  0  0  0  0  0  0
   35.9970   29.7500   49.1650 C   0  0  0  0  0  0  0  0  0  0  0  0
   35.6790   29.1610   50.3820 C   0  0  0  0  0  0  0  0  0  0  0  0
   36.4100   29.3900   51.5430 C   0  0  0  0  0  0  0  0  0  0  0  0
   37.5110   30.2410   51.5070 C   0  0  0  0  0  0  0  0  0  0  0  0
   37.8580   30.8440   50.3160 C   0  0  0  0  0  0  0  0  0  0  0  0
   37.0960   30.5800   49.1990 C   0  0  0  0  0  0  0  0  0  0  0  0
   39.3520   31.9960   46.5950 C   0  0  0  0  0  0  0  0  0  0  0  0
   39.7450   33.1730   45.9600 C   0  0  0  0  0  0  0  0  0  0  0  0
   40.4220   33.0420   44.7380 C   0  0  0  0  0  0  0  0  0  0  0  0
   40.6450   31.7920   44.2660 N   0  0  0  0  0  0  0  0  0  0  0  0
   40.2500   30.6900   44.9090 C   0  0  0  0  0  0  0  0  0  0  0  0
   39.6040   30.7700   46.0710 N   0  0  0  0  0  0  0  0  0  0  0  0
   39.5310   34.1310   46.4000 H   0  0  0  0  0  0  0  0  0  0  0  0
   40.7350   33.9510   44.2320 H   0  0  0  0  0  0  0  0  0  0  0  0
   40.4880   29.7540   44.4270 H   0  0  0  0  0  0  0  0  0  0  0  0
  1  3  1  0  0  0  0
  1  2  2  0  0  0  0
  3 12  1  0  0  0  0
  4  3  2  0  0  0  0
  5  4  1  0  0  0  0
  5  6  2  0  0  0  0
  6  7  1  0  0  0  0
  7 12  2  0  0  0  0
  7  8  1  0  0  0  0
  8  9  2  0  0  0  0
 10  9  1  0  0  0  0
 11 10  2  0  0  0  0
 12 11  1  0  0  0  0
 13  1  1  0  0  0  0
 14 19  1  0  0  0  0
 14 13  2  0  0  0  0
 15 14  1  0  0  0  0
 16 15  2  0  0  0  0
 16 17  1  0  0  0  0
 17 18  2  0  0  0  0
 18 13  1  0  0  0  0
 20 15  1  0  0  0  0
 21 17  1  0  0  0  0
M  END
>  <minimizedAffinity>
-6.90339899

>  <minimizedRMSD>
4.40106916

$$$$
