
 OpenBabel03252514043D

 36 39  0  0  1  0  0  0  0  0999 V2000
   35.2510   29.1850   48.5920 C   0  0  2  0  0  0  0  0  0  0  0  0
   34.0310   29.3210   49.3820 C   0  0  0  0  0  0  0  0  0  0  0  0
   34.3830   27.9700   49.0620 C   0  0  1  0  0  0  0  0  0  0  0  0
   35.3330   29.2780   47.5020 H   0  0  0  0  0  0  0  0  0  0  0  0
   33.1460   29.8150   48.8860 H   0  0  0  0  0  0  0  0  0  0  0  0
   34.1490   29.7360   50.4180 H   0  0  0  0  0  0  0  0  0  0  0  0
   34.9340   27.2790   49.6960 H   0  0  0  0  0  0  0  0  0  0  0  0
   36.5740   29.2250   49.3770 C   0  0  0  0  0  0  0  0  0  0  0  0
   36.3530   29.1290   50.4470 H   0  0  0  0  0  0  0  0  0  0  0  0
   37.2160   28.3830   48.9940 H   0  0  0  0  0  0  0  0  0  0  0  0
   37.6010   32.7230   49.5790 C   0  0  0  0  0  0  0  0  0  0  0  0
   38.4750   32.8560   48.4910 C   0  0  0  0  0  0  0  0  0  0  0  0
   38.7020   31.7120   47.6900 C   0  0  0  0  0  0  0  0  0  0  0  0
   38.0570   30.5500   48.0230 N   0  0  0  0  0  0  0  0  0  0  0  0
   37.2340   30.4830   49.0710 C   0  0  0  0  0  0  0  0  0  0  0  0
   37.0100   31.5750   49.8460 N   0  0  0  0  0  0  0  0  0  0  0  0
   37.4620   33.6290   50.1600 H   0  0  0  0  0  0  0  0  0  0  0  0
   38.9920   33.7480   48.2100 H   0  0  0  0  0  0  0  0  0  0  0  0
   39.3660   31.7790   46.8500 H   0  0  0  0  0  0  0  0  0  0  0  0
   33.5370   27.3100   47.9900 C   0  0  0  0  0  0  0  0  0  0  0  0
   33.8760   26.0840   47.7630 O   0  0  0  0  0  0  0  0  0  0  0  0
   32.4850   27.9000   47.2890 O   0  0  0  0  0  0  0  0  0  0  0  0
   31.2330   28.0710   47.8180 C   0  0  0  0  0  0  0  0  0  0  0  0
   30.7940   27.5940   49.1550 C   0  0  0  0  0  0  0  0  0  0  0  0
   29.5210   27.8510   49.5180 C   0  0  0  0  0  0  0  0  0  0  0  0
   28.6270   28.5440   48.6780 C   0  0  0  0  0  0  0  0  0  0  0  0
   29.6570   28.9020   47.1710 S   0  0  0  0  0  0  0  0  0  0  0  0
   31.5250   27.0740   49.7420 H   0  0  0  0  0  0  0  0  0  0  0  0
   29.1250   27.5380   50.4690 H   0  0  0  0  0  0  0  0  0  0  0  0
   27.3630   28.9170   48.7910 N   0  0  0  0  0  0  0  0  0  0  0  0
   26.8450   30.1540   48.8440 N   0  0  0  0  0  0  0  0  0  0  0  0
   25.5220   30.1290   48.9590 C   0  0  0  0  0  0  0  0  0  0  0  0
   24.8850   31.0030   49.0200 H   0  0  0  0  0  0  0  0  0  0  0  0
   25.1200   28.8090   48.9860 C   0  0  0  0  0  3  0  0  0  0  0  0
   26.2880   28.0850   48.8790 C   0  0  0  0  0  0  0  0  0  0  0  0
   26.2880   26.9880   48.8720 H   0  0  0  0  0  0  0  0  0  0  0  0
  1  4  1  6  0  0  0
  1  3  1  0  0  0  0
  1  8  1  0  0  0  0
  1  2  1  0  0  0  0
  2  6  1  0  0  0  0
  3  2  1  0  0  0  0
  3  7  1  1  0  0  0
  5  2  1  0  0  0  0
  8  9  1  0  0  0  0
 10  8  1  0  0  0  0
 11 16  1  0  0  0  0
 11 17  1  0  0  0  0
 12 11  2  0  0  0  0
 13 14  2  0  0  0  0
 13 12  1  0  0  0  0
 14 15  1  0  0  0  0
 15  8  1  0  0  0  0
 15 16  2  0  0  0  0
 18 12  1  0  0  0  0
 19 13  1  0  0  0  0
 20  3  1  0  0  0  0
 21 20  2  0  0  0  0
 22 23  1  0  0  0  0
 22 20  1  0  0  0  0
 23 24  2  0  0  0  0
 24 25  1  0  0  0  0
 24 28  1  0  0  0  0
 25 29  1  0  0  0  0
 26 30  1  0  0  0  0
 26 25  2  0  0  0  0
 27 23  1  0  0  0  0
 27 26  1  0  0  0  0
 30 31  1  0  0  0  0
 30 35  1  0  0  0  0
 31 32  2  0  0  0  0
 32 34  1  0  0  0  0
 32 33  1  0  0  0  0
 35 34  2  0  0  0  0
 36 35  1  0  0  0  0
M  END
>  <minimizedAffinity>
-6.23610973

>  <minimizedRMSD>
1.60766494

$$$$
