
 OpenBabel03252513473D

 23 24  0  0  0  0  0  0  0  0999 V2000
   36.8660   29.7380   48.8440 C   0  0  0  0  0  0  0  0  0  0  0  0
   37.8720   30.4840   48.1550 C   0  0  0  0  0  0  0  0  0  0  0  0
   37.5530   30.9860   46.8990 C   0  0  0  0  0  0  0  0  0  0  0  0
   36.3240   30.7450   46.4040 N   0  0  0  0  0  0  0  0  0  0  0  0
   35.3960   30.0390   47.0750 C   0  0  0  0  0  0  0  0  0  0  0  0
   35.6820   29.5540   48.2710 N   0  0  0  0  0  0  0  0  0  0  0  0
   38.8330   30.6520   48.5840 H   0  0  0  0  0  0  0  0  0  0  0  0
   38.4910   31.7420   46.1360 N   0  0  0  0  0  0  0  0  0  0  0  0
   39.7760   31.8460   46.4100 N   0  0  0  0  0  0  0  0  0  0  0  0
   40.4220   32.6140   45.5330 C   0  0  0  0  0  0  0  0  0  0  0  0
   41.4520   32.9210   45.4380 H   0  0  0  0  0  0  0  0  0  0  0  0
   39.4670   33.0430   44.6120 C   0  0  0  0  0  0  0  0  0  0  0  0
   38.2600   32.4700   45.0270 C   0  0  0  0  0  0  0  0  0  0  0  0
   37.2580   32.5270   44.6170 H   0  0  0  0  0  0  0  0  0  0  0  0
   34.0880   29.8610   46.3910 C   0  0  0  0  0  0  0  0  0  0  0  0
   33.1940   30.8370   46.8170 F   0  0  0  0  0  0  0  0  0  0  0  0
   34.2480   30.0680   45.0340 F   0  0  0  0  0  0  0  0  0  0  0  0
   33.5760   28.5850   46.5500 F   0  0  0  0  0  0  0  0  0  0  0  0
   37.1780   29.2410   50.0840 O   0  0  0  0  0  0  0  0  0  0  0  0
   36.8270   29.8170   51.2990 C   0  0  0  0  0  0  0  0  0  0  0  0
   36.8630   31.1940   51.2960 F   0  0  0  0  0  0  0  0  0  0  0  0
   35.6220   29.3780   51.7910 F   0  0  0  0  0  0  0  0  0  0  0  0
   37.8120   29.3900   52.2040 F   0  0  0  0  0  0  0  0  0  0  0  0
  1 19  1  0  0  0  0
  2  7  1  0  0  0  0
  2  1  2  0  0  0  0
  3  2  1  0  0  0  0
  4  3  2  0  0  0  0
  4  5  1  0  0  0  0
  5  6  2  0  0  0  0
  6  1  1  0  0  0  0
  8  9  1  0  0  0  0
  8  3  1  0  0  0  0
 10  9  2  0  0  0  0
 11 10  1  0  0  0  0
 12 13  2  0  0  0  0
 12 10  1  0  0  0  0
 13  8  1  0  0  0  0
 14 13  1  0  0  0  0
 15 18  1  0  0  0  0
 15 16  1  0  0  0  0
 15  5  1  0  0  0  0
 17 15  1  0  0  0  0
 19 20  1  0  0  0  0
 20 22  1  0  0  0  0
 20 23  1  0  0  0  0
 21 20  1  0  0  0  0
M  END
>  <minimizedAffinity>
-5.94178152

>  <minimizedRMSD>
4.45103884

$$$$
