
 OpenBabel03252514083D

 40 43  0  0  0  0  0  0  0  0999 V2000
   34.2010   30.0650   47.5690 C   0  0  0  0  0  0  0  0  0  0  0  0
   35.2220   29.8060   48.5160 C   0  0  0  0  0  0  0  0  0  0  0  0
   35.1920   28.5870   49.1670 C   0  0  0  0  0  0  0  0  0  0  0  0
   34.1960   27.7140   48.8680 N   0  0  0  0  0  0  0  0  0  0  0  0
   33.2380   27.9610   47.9760 C   0  0  0  0  0  0  0  0  0  0  0  0
   33.2560   29.1330   47.3400 N   0  0  0  0  0  0  0  0  0  0  0  0
   34.1990   31.0130   47.0420 H   0  0  0  0  0  0  0  0  0  0  0  0
   35.9720   28.3920   49.8910 H   0  0  0  0  0  0  0  0  0  0  0  0
   36.1940   30.8220   48.7180 N   0  0  0  0  0  0  0  0  0  0  0  0
   36.3180   31.5340   49.8780 C   0  0  0  0  0  0  0  0  0  0  0  0
   37.3310   32.4170   49.7400 N   0  0  0  0  0  0  0  0  0  0  0  0
   37.8220   32.2490   48.5110 C   0  0  0  0  0  0  0  0  0  0  0  0
   38.8430   32.8460   47.8000 C   0  0  0  0  0  0  0  0  0  0  0  0
   39.1350   32.4800   46.5500 N   0  0  0  0  0  0  0  0  0  0  0  0
   38.4470   31.5060   45.9140 C   0  0  0  0  0  0  0  0  0  0  0  0
   37.4490   30.9240   46.6090 N   0  0  0  0  0  0  0  0  0  0  0  0
   37.1240   31.2560   47.8570 C   0  0  0  0  0  0  0  0  0  0  0  0
   35.7340   31.4610   50.8030 H   0  0  0  0  0  0  0  0  0  0  0  0
   38.7220   31.2430   44.8970 H   0  0  0  0  0  0  0  0  0  0  0  0
   39.6040   33.8750   48.4250 N   0  0  0  0  0  0  0  0  0  0  0  0
   40.5140   34.2070   48.0330 H   0  0  0  0  0  0  0  0  0  0  0  0
   39.3010   34.3480   49.2930 H   0  0  0  0  0  0  0  0  0  0  0  0
   32.1620   26.9980   47.6620 C   0  0  0  0  0  0  0  0  0  0  0  0
   31.0940   27.0450   48.7370 C   0  0  0  0  0  0  0  0  0  0  0  0
   30.3520   27.8320   48.5160 H   0  0  0  0  0  0  0  0  0  0  0  0
   30.5640   26.0730   48.6860 H   0  0  0  0  0  0  0  0  0  0  0  0
   31.5860   27.1580   49.7220 H   0  0  0  0  0  0  0  0  0  0  0  0
   31.4360   27.4090   46.3730 C   0  0  0  0  0  0  0  0  0  0  0  0
   32.1490   27.6800   45.5960 H   0  0  0  0  0  0  0  0  0  0  0  0
   30.9040   28.3660   46.6420 H   0  0  0  0  0  0  0  0  0  0  0  0
   30.7060   26.6350   46.1220 H   0  0  0  0  0  0  0  0  0  0  0  0
   32.6700   25.6060   47.4420 C   0  0  0  0  0  0  0  0  0  0  0  0
   31.8880   24.8840   47.6630 H   0  0  0  0  0  0  0  0  0  0  0  0
   33.5410   25.4320   48.1160 H   0  0  0  0  0  0  0  0  0  0  0  0
   33.1300   25.5420   46.0060 C   0  0  0  0  0  0  0  0  0  0  0  0
   32.4700   24.6720   45.1360 C   0  0  0  0  0  3  0  0  0  0  0  0
   33.2930   24.8880   43.5830 S   0  0  0  0  0  0  0  0  0  0  0  0
   34.4780   26.1890   44.3530 C   0  0  0  0  0  0  0  0  0  0  0  0
   35.3980   26.9050   44.0580 H   0  0  0  0  0  0  0  0  0  0  0  0
   34.1030   26.2150   45.4410 N   0  0  0  0  0  0  0  0  0  0  0  0
  1  2  1  0  0  0  0
  2  9  1  0  0  0  0
  2  3  2  0  0  0  0
  3  8  1  0  0  0  0
  4  3  1  0  0  0  0
  5  4  2  0  0  0  0
  6  1  2  0  0  0  0
  6  5  1  0  0  0  0
  7  1  1  0  0  0  0
  9 10  1  0  0  0  0
 10 18  1  0  0  0  0
 11 10  2  0  0  0  0
 12 11  1  0  0  0  0
 13 20  1  0  0  0  0
 13 12  2  0  0  0  0
 14 13  1  0  0  0  0
 15 14  2  0  0  0  0
 15 16  1  0  0  0  0
 16 17  2  0  0  0  0
 17 12  1  0  0  0  0
 17  9  1  0  0  0  0
 19 15  1  0  0  0  0
 20 22  1  0  0  0  0
 21 20  1  0  0  0  0
 23  5  1  0  0  0  0
 23 24  1  0  0  0  0
 24 27  1  0  0  0  0
 25 24  1  0  0  0  0
 26 24  1  0  0  0  0
 28 30  1  0  0  0  0
 28 23  1  0  0  0  0
 29 28  1  0  0  0  0
 31 28  1  0  0  0  0
 32 23  1  0  0  0  0
 32 33  1  0  0  0  0
 32 34  1  0  0  0  0
 35 32  1  0  0  0  0
 36 35  2  0  0  0  0
 37 38  1  0  0  0  0
 37 36  1  0  0  0  0
 38 40  2  0  0  0  0
 39 38  1  0  0  0  0
 40 35  1  0  0  0  0
M  END
>  <minimizedAffinity>
-5.22622776

>  <minimizedRMSD>
1.02084148

$$$$
