
 OpenBabel03252514043D

 36 39  0  0  1  0  0  0  0  0999 V2000
   35.2440   29.2030   48.6140 C   0  0  2  0  0  0  0  0  0  0  0  0
   34.0350   29.3270   49.4200 C   0  0  0  0  0  0  0  0  0  0  0  0
   34.3840   27.9810   49.0780 C   0  0  1  0  0  0  0  0  0  0  0  0
   35.3120   29.3120   47.5240 H   0  0  0  0  0  0  0  0  0  0  0  0
   33.1430   29.8260   48.9430 H   0  0  0  0  0  0  0  0  0  0  0  0
   34.1650   29.7280   50.4600 H   0  0  0  0  0  0  0  0  0  0  0  0
   34.9450   27.2820   49.6950 H   0  0  0  0  0  0  0  0  0  0  0  0
   36.5780   29.2350   49.3810 C   0  0  0  0  0  0  0  0  0  0  0  0
   36.3690   29.1440   50.4550 H   0  0  0  0  0  0  0  0  0  0  0  0
   37.2080   28.3870   48.9930 H   0  0  0  0  0  0  0  0  0  0  0  0
   37.6340   32.7260   49.5610 C   0  0  0  0  0  0  0  0  0  0  0  0
   38.4960   32.8480   48.4630 C   0  0  0  0  0  0  0  0  0  0  0  0
   38.7050   31.7010   47.6630 C   0  0  0  0  0  0  0  0  0  0  0  0
   38.0550   30.5440   48.0070 N   0  0  0  0  0  0  0  0  0  0  0  0
   37.2430   30.4860   49.0640 C   0  0  0  0  0  0  0  0  0  0  0  0
   37.0370   31.5830   49.8390 N   0  0  0  0  0  0  0  0  0  0  0  0
   37.5090   33.6340   50.1410 H   0  0  0  0  0  0  0  0  0  0  0  0
   39.0160   33.7360   48.1730 H   0  0  0  0  0  0  0  0  0  0  0  0
   39.3600   31.7600   46.8150 H   0  0  0  0  0  0  0  0  0  0  0  0
   33.5260   27.3340   48.0080 C   0  0  0  0  0  0  0  0  0  0  0  0
   33.8600   26.1100   47.7640 O   0  0  0  0  0  0  0  0  0  0  0  0
   32.4680   27.9330   47.3240 O   0  0  0  0  0  0  0  0  0  0  0  0
   31.2140   28.0760   47.8570 C   0  0  0  0  0  0  0  0  0  0  0  0
   30.7910   27.5930   49.1960 C   0  0  0  0  0  0  0  0  0  0  0  0
   29.5140   27.8200   49.5630 C   0  0  0  0  0  0  0  0  0  0  0  0
   28.6000   28.4880   48.7240 C   0  0  0  0  0  0  0  0  0  0  0  0
   29.6160   28.8660   47.2120 S   0  0  0  0  0  0  0  0  0  0  0  0
   31.5370   27.0930   49.7820 H   0  0  0  0  0  0  0  0  0  0  0  0
   29.1290   27.5010   50.5160 H   0  0  0  0  0  0  0  0  0  0  0  0
   27.3270   28.8310   48.8400 N   0  0  0  0  0  0  0  0  0  0  0  0
   26.2510   28.0470   49.0040 N   0  0  0  0  0  0  0  0  0  0  0  0
   25.1320   28.7600   49.0800 C   0  0  0  0  0  0  0  0  0  0  0  0
   24.1400   28.3470   49.2120 H   0  0  0  0  0  0  0  0  0  0  0  0
   25.4650   30.0920   48.9620 C   0  0  0  0  0  0  0  0  0  0  0  0
   26.8350   30.1010   48.8150 C   0  0  0  0  0  0  0  0  0  0  0  0
   27.3990   31.0340   48.6970 H   0  0  0  0  0  0  0  0  0  0  0  0
  1  4  1  6  0  0  0
  1  3  1  0  0  0  0
  1  8  1  0  0  0  0
  1  2  1  0  0  0  0
  2  6  1  0  0  0  0
  3  2  1  0  0  0  0
  3  7  1  1  0  0  0
  5  2  1  0  0  0  0
  8  9  1  0  0  0  0
 10  8  1  0  0  0  0
 11 16  1  0  0  0  0
 11 17  1  0  0  0  0
 12 11  2  0  0  0  0
 13 14  2  0  0  0  0
 13 12  1  0  0  0  0
 14 15  1  0  0  0  0
 15  8  1  0  0  0  0
 15 16  2  0  0  0  0
 18 12  1  0  0  0  0
 19 13  1  0  0  0  0
 20  3  1  0  0  0  0
 21 20  2  0  0  0  0
 22 23  1  0  0  0  0
 22 20  1  0  0  0  0
 23 24  2  0  0  0  0
 24 25  1  0  0  0  0
 24 28  1  0  0  0  0
 25 29  1  0  0  0  0
 26 30  1  0  0  0  0
 26 25  2  0  0  0  0
 27 23  1  0  0  0  0
 27 26  1  0  0  0  0
 30 31  1  0  0  0  0
 31 32  2  0  0  0  0
 32 33  1  0  0  0  0
 34 32  1  0  0  0  0
 35 30  1  0  0  0  0
 35 34  2  0  0  0  0
 36 35  1  0  0  0  0
M  END
>  <minimizedAffinity>
-6.24143028

>  <minimizedRMSD>
1.54492378

$$$$
