
 OpenBabel03252514043D

 36 39  0  0  1  0  0  0  0  0999 V2000
   35.2450   29.2020   48.6110 C   0  0  2  0  0  0  0  0  0  0  0  0
   34.0350   29.3280   49.4160 C   0  0  0  0  0  0  0  0  0  0  0  0
   34.3830   27.9810   49.0760 C   0  0  1  0  0  0  0  0  0  0  0  0
   35.3140   29.3080   47.5210 H   0  0  0  0  0  0  0  0  0  0  0  0
   33.1440   29.8270   48.9370 H   0  0  0  0  0  0  0  0  0  0  0  0
   34.1650   29.7310   50.4550 H   0  0  0  0  0  0  0  0  0  0  0  0
   34.9420   27.2830   49.6960 H   0  0  0  0  0  0  0  0  0  0  0  0
   36.5780   29.2340   49.3790 C   0  0  0  0  0  0  0  0  0  0  0  0
   36.3680   29.1420   50.4530 H   0  0  0  0  0  0  0  0  0  0  0  0
   37.2090   28.3860   48.9910 H   0  0  0  0  0  0  0  0  0  0  0  0
   37.6300   32.7260   49.5620 C   0  0  0  0  0  0  0  0  0  0  0  0
   38.4950   32.8490   48.4660 C   0  0  0  0  0  0  0  0  0  0  0  0
   38.7060   31.7020   47.6660 C   0  0  0  0  0  0  0  0  0  0  0  0
   38.0560   30.5450   48.0080 N   0  0  0  0  0  0  0  0  0  0  0  0
   37.2430   30.4860   49.0630 C   0  0  0  0  0  0  0  0  0  0  0  0
   37.0340   31.5820   49.8380 N   0  0  0  0  0  0  0  0  0  0  0  0
   37.5030   33.6340   50.1420 H   0  0  0  0  0  0  0  0  0  0  0  0
   39.0140   33.7370   48.1770 H   0  0  0  0  0  0  0  0  0  0  0  0
   39.3620   31.7620   46.8190 H   0  0  0  0  0  0  0  0  0  0  0  0
   33.5250   27.3330   48.0070 C   0  0  0  0  0  0  0  0  0  0  0  0
   33.8590   26.1090   47.7650 O   0  0  0  0  0  0  0  0  0  0  0  0
   32.4680   27.9310   47.3220 O   0  0  0  0  0  0  0  0  0  0  0  0
   31.2140   28.0750   47.8550 C   0  0  0  0  0  0  0  0  0  0  0  0
   30.7910   27.5950   49.1960 C   0  0  0  0  0  0  0  0  0  0  0  0
   29.5140   27.8240   49.5630 C   0  0  0  0  0  0  0  0  0  0  0  0
   28.6000   28.4890   48.7220 C   0  0  0  0  0  0  0  0  0  0  0  0
   29.6160   28.8630   47.2090 S   0  0  0  0  0  0  0  0  0  0  0  0
   31.5370   27.0970   49.7830 H   0  0  0  0  0  0  0  0  0  0  0  0
   29.1290   27.5070   50.5170 H   0  0  0  0  0  0  0  0  0  0  0  0
   27.3270   28.8320   48.8380 N   0  0  0  0  0  0  0  0  0  0  0  0
   26.2500   28.0490   48.9940 N   0  0  0  0  0  0  0  0  0  0  0  0
   25.1300   28.7630   49.0740 C   0  0  0  0  0  0  0  0  0  0  0  0
   24.1390   28.3490   49.2010 H   0  0  0  0  0  0  0  0  0  0  0  0
   25.4660   30.0950   48.9650 C   0  0  0  0  0  3  0  0  0  0  0  0
   26.8360   30.1030   48.8200 C   0  0  0  0  0  0  0  0  0  0  0  0
   27.4010   31.0370   48.7080 H   0  0  0  0  0  0  0  0  0  0  0  0
  1  4  1  6  0  0  0
  1  3  1  0  0  0  0
  1  8  1  0  0  0  0
  1  2  1  0  0  0  0
  2  6  1  0  0  0  0
  3  2  1  0  0  0  0
  3  7  1  1  0  0  0
  5  2  1  0  0  0  0
  8  9  1  0  0  0  0
 10  8  1  0  0  0  0
 11 16  1  0  0  0  0
 11 17  1  0  0  0  0
 12 11  2  0  0  0  0
 13 14  2  0  0  0  0
 13 12  1  0  0  0  0
 14 15  1  0  0  0  0
 15  8  1  0  0  0  0
 15 16  2  0  0  0  0
 18 12  1  0  0  0  0
 19 13  1  0  0  0  0
 20  3  1  0  0  0  0
 21 20  2  0  0  0  0
 22 23  1  0  0  0  0
 22 20  1  0  0  0  0
 23 24  2  0  0  0  0
 24 25  1  0  0  0  0
 24 28  1  0  0  0  0
 25 29  1  0  0  0  0
 26 30  1  0  0  0  0
 26 25  2  0  0  0  0
 27 23  1  0  0  0  0
 27 26  1  0  0  0  0
 30 31  1  0  0  0  0
 31 32  2  0  0  0  0
 32 33  1  0  0  0  0
 34 32  1  0  0  0  0
 35 30  1  0  0  0  0
 35 34  2  0  0  0  0
 36 35  1  0  0  0  0
M  END
>  <minimizedAffinity>
-6.23897552

>  <minimizedRMSD>
1.55442417

$$$$
