
 OpenBabel03252514043D

 36 39  0  0  1  0  0  0  0  0999 V2000
   35.2820   29.2540   48.6850 C   0  0  2  0  0  0  0  0  0  0  0  0
   34.1000   29.3170   49.5370 C   0  0  0  0  0  0  0  0  0  0  0  0
   34.4600   27.9950   49.1200 C   0  0  1  0  0  0  0  0  0  0  0  0
   35.3100   29.4140   47.6000 H   0  0  0  0  0  0  0  0  0  0  0  0
   33.1830   29.8200   49.1140 H   0  0  0  0  0  0  0  0  0  0  0  0
   34.2600   29.6710   50.5900 H   0  0  0  0  0  0  0  0  0  0  0  0
   35.0550   27.2790   49.6840 H   0  0  0  0  0  0  0  0  0  0  0  0
   36.6410   29.2760   49.4070 C   0  0  0  0  0  0  0  0  0  0  0  0
   36.4680   29.1880   50.4870 H   0  0  0  0  0  0  0  0  0  0  0  0
   37.2510   28.4210   48.9990 H   0  0  0  0  0  0  0  0  0  0  0  0
   37.7270   32.7590   49.5400 C   0  0  0  0  0  0  0  0  0  0  0  0
   38.5580   32.8710   48.4170 C   0  0  0  0  0  0  0  0  0  0  0  0
   38.7350   31.7180   47.6170 C   0  0  0  0  0  0  0  0  0  0  0  0
   38.0870   30.5680   47.9840 N   0  0  0  0  0  0  0  0  0  0  0  0
   37.3060   30.5210   49.0650 C   0  0  0  0  0  0  0  0  0  0  0  0
   37.1300   31.6220   49.8400 N   0  0  0  0  0  0  0  0  0  0  0  0
   37.6250   33.6710   50.1200 H   0  0  0  0  0  0  0  0  0  0  0  0
   39.0750   33.7530   48.1080 H   0  0  0  0  0  0  0  0  0  0  0  0
   39.3650   31.7690   46.7500 H   0  0  0  0  0  0  0  0  0  0  0  0
   33.5770   27.3820   48.0510 C   0  0  0  0  0  0  0  0  0  0  0  0
   33.9160   26.1730   47.7480 O   0  0  0  0  0  0  0  0  0  0  0  0
   32.4930   27.9960   47.4240 O   0  0  0  0  0  0  0  0  0  0  0  0
   31.2390   28.0490   47.9740 C   0  0  0  0  0  0  0  0  0  0  0  0
   30.8720   27.5460   49.3220 C   0  0  0  0  0  0  0  0  0  0  0  0
   29.5860   27.6810   49.7060 C   0  0  0  0  0  0  0  0  0  0  0  0
   28.6140   28.2730   48.8760 C   0  0  0  0  0  0  0  0  0  0  0  0
   29.5780   28.7140   47.3470 S   0  0  0  0  0  0  0  0  0  0  0  0
   31.6600   27.1070   49.9010 H   0  0  0  0  0  0  0  0  0  0  0  0
   29.2390   27.3410   50.6660 H   0  0  0  0  0  0  0  0  0  0  0  0
   27.3210   28.5220   49.0080 N   0  0  0  0  0  0  0  0  0  0  0  0
   26.4620   29.0340   48.1130 N   0  0  0  0  0  0  0  0  0  0  0  0
   25.2340   29.1360   48.6150 C   0  0  0  0  0  0  0  0  0  0  0  0
   24.3750   29.5220   48.0810 H   0  0  0  0  0  0  0  0  0  0  0  0
   25.2630   28.6700   49.9130 C   0  0  0  0  0  3  0  0  0  0  0  0
   26.5720   28.2970   50.1240 C   0  0  0  0  0  0  0  0  0  0  0  0
   26.9080   27.8800   51.0820 H   0  0  0  0  0  0  0  0  0  0  0  0
  1  4  1  6  0  0  0
  1  3  1  0  0  0  0
  1  8  1  0  0  0  0
  1  2  1  0  0  0  0
  2  6  1  0  0  0  0
  3  2  1  0  0  0  0
  3  7  1  1  0  0  0
  5  2  1  0  0  0  0
  8  9  1  0  0  0  0
 10  8  1  0  0  0  0
 11 16  1  0  0  0  0
 11 17  1  0  0  0  0
 12 11  2  0  0  0  0
 13 14  2  0  0  0  0
 13 12  1  0  0  0  0
 14 15  1  0  0  0  0
 15  8  1  0  0  0  0
 15 16  2  0  0  0  0
 18 12  1  0  0  0  0
 19 13  1  0  0  0  0
 20  3  1  0  0  0  0
 21 20  2  0  0  0  0
 22 23  1  0  0  0  0
 22 20  1  0  0  0  0
 23 24  2  0  0  0  0
 24 25  1  0  0  0  0
 24 28  1  0  0  0  0
 25 29  1  0  0  0  0
 26 30  1  0  0  0  0
 26 25  2  0  0  0  0
 27 23  1  0  0  0  0
 27 26  1  0  0  0  0
 30 35  1  0  0  0  0
 31 32  2  0  0  0  0
 31 30  1  0  0  0  0
 32 34  1  0  0  0  0
 33 32  1  0  0  0  0
 34 35  2  0  0  0  0
 35 36  1  0  0  0  0
M  END
>  <minimizedAffinity>
-6.10662079

>  <minimizedRMSD>
1.3962667

$$$$
