
 OpenBabel03252512203D

 23 25  0  0  0  0  0  0  0  0999 V2000
   34.9260   29.3170   48.6680 C   0  0  0  0  0  0  0  0  0  0  0  0
   34.2990   28.1340   49.1200 C   0  0  0  0  0  0  0  0  0  0  0  0
   33.1930   27.7340   48.4310 C   0  0  0  0  0  0  0  0  0  0  0  0
   32.7730   28.4640   47.3910 C   0  0  0  0  0  0  0  0  0  0  0  0
   33.9250   29.8430   47.2590 S   0  0  0  0  0  0  0  0  0  0  0  0
   34.7290   27.6140   49.9850 H   0  0  0  0  0  0  0  0  0  0  0  0
   32.6460   26.8410   48.7040 H   0  0  0  0  0  0  0  0  0  0  0  0
   37.4930   30.3600   51.1060 C   0  0  0  0  0  0  0  0  0  0  0  0
   38.3840   31.1010   50.3120 C   0  0  0  0  0  0  0  0  0  0  0  0
   38.0900   31.2310   48.9590 C   0  0  0  0  0  0  0  0  0  0  0  0
   36.9600   30.6360   48.4680 N   0  0  0  0  0  0  0  0  0  0  0  0
   36.1380   29.9380   49.2610 C   0  0  0  0  0  0  0  0  0  0  0  0
   36.3730   29.7780   50.5870 N   0  0  0  0  0  0  0  0  0  0  0  0
   37.6680   30.2270   52.1540 H   0  0  0  0  0  0  0  0  0  0  0  0
   39.2630   31.5500   50.7530 H   0  0  0  0  0  0  0  0  0  0  0  0
   38.7410   31.7900   48.3020 H   0  0  0  0  0  0  0  0  0  0  0  0
   31.6720   28.2750   46.5190 N   0  0  0  0  0  0  0  0  0  0  0  0
   31.2610   27.1430   45.9540 N   0  0  0  0  0  0  0  0  0  0  0  0
   30.1810   27.3520   45.1880 C   0  0  0  0  0  0  0  0  0  0  0  0
   29.6930   26.5520   44.6390 H   0  0  0  0  0  0  0  0  0  0  0  0
   29.8820   28.7090   45.2710 C   0  0  0  0  0  0  0  0  0  0  0  0
   30.8460   29.2430   46.1180 C   0  0  0  0  0  0  0  0  0  0  0  0
   30.8230   30.3040   46.3410 H   0  0  0  0  0  0  0  0  0  0  0  0
  1  2  2  0  0  0  0
  1 12  1  0  0  0  0
  2  6  1  0  0  0  0
  3  7  1  0  0  0  0
  3  2  1  0  0  0  0
  4  3  2  0  0  0  0
  5  4  1  0  0  0  0
  5  1  1  0  0  0  0
  8 14  1  0  0  0  0
  9 15  1  0  0  0  0
  9  8  2  0  0  0  0
 10  9  1  0  0  0  0
 11 10  2  0  0  0  0
 11 12  1  0  0  0  0
 12 13  2  0  0  0  0
 13  8  1  0  0  0  0
 16 10  1  0  0  0  0
 17  4  1  0  0  0  0
 18 17  1  0  0  0  0
 19 21  1  0  0  0  0
 19 18  2  0  0  0  0
 20 19  1  0  0  0  0
 21 22  2  0  0  0  0
 22 23  1  0  0  0  0
 22 17  1  0  0  0  0
M  END
>  <minimizedAffinity>
-4.33011627

>  <minimizedRMSD>
0.357876778

$$$$
