
 OpenBabel03252514013D

 29 31  0  0  1  0  0  0  0  0999 V2000
   35.4580   29.4700   49.1610 C   0  0  2  0  0  0  0  0  0  0  0  0
   34.4720   29.5090   50.2490 C   0  0  0  0  0  0  0  0  0  0  0  0
   34.6650   28.2210   49.5870 C   0  0  1  0  0  0  0  0  0  0  0  0
   35.2360   29.9570   48.2090 H   0  0  0  0  0  0  0  0  0  0  0  0
   33.5140   30.0670   50.1270 H   0  0  0  0  0  0  0  0  0  0  0  0
   34.8900   29.6000   51.2770 H   0  0  0  0  0  0  0  0  0  0  0  0
   35.3180   27.3750   49.8070 H   0  0  0  0  0  0  0  0  0  0  0  0
   36.9310   29.3580   49.5500 C   0  0  0  0  0  0  0  0  0  0  0  0
   36.9900   29.3550   50.6550 H   0  0  0  0  0  0  0  0  0  0  0  0
   37.3390   28.4190   49.1560 H   0  0  0  0  0  0  0  0  0  0  0  0
   38.3960   32.7150   49.3830 C   0  0  0  0  0  0  0  0  0  0  0  0
   38.9040   32.7680   48.0760 C   0  0  0  0  0  0  0  0  0  0  0  0
   38.7380   31.6370   47.2590 C   0  0  0  0  0  0  0  0  0  0  0  0
   38.0870   30.5450   47.7830 N   0  0  0  0  0  0  0  0  0  0  0  0
   37.6200   30.5450   49.0380 C   0  0  0  0  0  0  0  0  0  0  0  0
   37.7780   31.6330   49.8280 N   0  0  0  0  0  0  0  0  0  0  0  0
   38.5830   33.6330   49.9070 H   0  0  0  0  0  0  0  0  0  0  0  0
   39.4150   33.5740   47.6110 H   0  0  0  0  0  0  0  0  0  0  0  0
   39.0990   31.5950   46.2430 H   0  0  0  0  0  0  0  0  0  0  0  0
   33.5280   27.7980   48.6950 C   0  0  0  0  0  0  0  0  0  0  0  0
   33.9030   27.2160   47.5990 O   0  0  0  0  0  0  0  0  0  0  0  0
   32.1760   27.9650   48.9420 O   0  0  0  0  0  0  0  0  0  0  0  0
   31.2610   27.7940   47.9260 C   0  0  0  0  0  0  0  0  0  0  0  0
   30.8200   28.4340   46.7870 C   0  0  0  0  0  3  0  0  0  0  0  0
   29.8390   27.6190   46.2610 C   0  0  0  0  0  0  0  0  0  0  0  0
   29.3360   27.9190   45.3500 H   0  0  0  0  0  0  0  0  0  0  0  0
   29.6890   26.5340   47.0370 N   0  0  0  0  0  0  0  0  0  0  0  0
   30.5500   26.6340   48.0490 N   0  0  0  0  0  0  0  0  0  0  0  0
   29.0000   25.7550   46.8490 H   0  0  0  0  0  0  0  0  0  0  0  0
  1  4  1  6  0  0  0
  1  8  1  0  0  0  0
  1  3  1  0  0  0  0
  1  2  1  0  0  0  0
  2  6  1  0  0  0  0
  3  7  1  1  0  0  0
  3  2  1  0  0  0  0
  5  2  1  0  0  0  0
  8  9  1  0  0  0  0
 10  8  1  0  0  0  0
 11 16  1  0  0  0  0
 11 17  1  0  0  0  0
 12 11  2  0  0  0  0
 13 14  2  0  0  0  0
 13 12  1  0  0  0  0
 14 15  1  0  0  0  0
 15  8  1  0  0  0  0
 15 16  2  0  0  0  0
 18 12  1  0  0  0  0
 19 13  1  0  0  0  0
 20 22  1  0  0  0  0
 20  3  1  0  0  0  0
 21 20  2  0  0  0  0
 23 28  2  0  0  0  0
 23 22  1  0  0  0  0
 24 23  1  0  0  0  0
 25 24  2  0  0  0  0
 25 27  1  0  0  0  0
 26 25  1  0  0  0  0
 27 28  1  0  0  0  0
 29 27  1  0  0  0  0
M  END
>  <minimizedAffinity>
-4.86575413

>  <minimizedRMSD>
0.632002532

$$$$
