
 OpenBabel03252513573D

 26 28  0  0  1  0  0  0  0  0999 V2000
   35.4760   29.4360   49.0420 C   0  0  2  0  0  0  0  0  0  0  0  0
   34.4050   29.9170   49.9390 C   0  0  0  0  0  0  0  0  0  0  0  0
   34.5190   28.4630   49.7050 C   0  0  1  0  0  0  0  0  0  0  0  0
   35.3160   29.6740   47.9780 H   0  0  0  0  0  0  0  0  0  0  0  0
   34.7230   30.3070   50.9340 H   0  0  0  0  0  0  0  0  0  0  0  0
   33.5320   30.4920   49.5410 H   0  0  0  0  0  0  0  0  0  0  0  0
   34.9040   27.8540   50.5620 H   0  0  0  0  0  0  0  0  0  0  0  0
   33.6210   27.7740   48.7950 N   0  0  0  0  0  0  0  0  0  0  0  0
   32.2970   27.9140   48.8230 N   0  0  0  0  0  0  0  0  0  0  0  0
   31.7230   27.1470   47.8550 C   0  0  0  0  0  0  0  0  0  0  0  0
   30.6490   27.1480   47.7450 H   0  0  0  0  0  0  0  0  0  0  0  0
   32.7480   26.5090   47.2060 C   0  0  0  0  0  0  0  0  0  0  0  0
   33.9210   26.9160   47.8090 C   0  0  0  0  0  0  0  0  0  0  0  0
   34.8970   26.5840   47.5200 H   0  0  0  0  0  0  0  0  0  0  0  0
   36.8940   29.3380   49.5290 C   0  0  0  0  0  0  0  0  0  0  0  0
   37.3770   28.4100   49.1450 H   0  0  0  0  0  0  0  0  0  0  0  0
   36.9970   29.3060   50.6320 H   0  0  0  0  0  0  0  0  0  0  0  0
   38.4160   32.6950   49.3890 C   0  0  0  0  0  0  0  0  0  0  0  0
   38.9250   32.7340   48.0690 C   0  0  0  0  0  0  0  0  0  0  0  0
   38.7470   31.6170   47.2350 C   0  0  0  0  0  0  0  0  0  0  0  0
   38.0830   30.5530   47.7670 N   0  0  0  0  0  0  0  0  0  0  0  0
   37.6050   30.5490   49.0430 C   0  0  0  0  0  0  0  0  0  0  0  0
   37.7740   31.6150   49.8420 N   0  0  0  0  0  0  0  0  0  0  0  0
   38.6090   33.5950   49.9270 H   0  0  0  0  0  0  0  0  0  0  0  0
   39.4490   33.5750   47.6510 H   0  0  0  0  0  0  0  0  0  0  0  0
   39.0880   31.5390   46.2330 H   0  0  0  0  0  0  0  0  0  0  0  0
  1  4  1  6  0  0  0
  1 15  1  0  0  0  0
  1  3  1  0  0  0  0
  1  2  1  0  0  0  0
  2  5  1  0  0  0  0
  3  2  1  0  0  0  0
  3  7  1  1  0  0  0
  6  2  1  0  0  0  0
  8  9  1  0  0  0  0
  8  3  1  0  0  0  0
 10  9  2  0  0  0  0
 11 10  1  0  0  0  0
 12 13  2  0  0  0  0
 12 10  1  0  0  0  0
 13  8  1  0  0  0  0
 14 13  1  0  0  0  0
 15 17  1  0  0  0  0
 16 15  1  0  0  0  0
 18 23  1  0  0  0  0
 18 24  1  0  0  0  0
 19 18  2  0  0  0  0
 20 21  2  0  0  0  0
 20 19  1  0  0  0  0
 21 22  1  0  0  0  0
 22 15  1  0  0  0  0
 22 23  2  0  0  0  0
 25 19  1  0  0  0  0
 26 20  1  0  0  0  0
M  END
>  <minimizedAffinity>
-4.72123957

>  <minimizedRMSD>
0.565700948

$$$$
