
 OpenBabel03252514043D

 34 37  0  0  1  0  0  0  0  0999 V2000
   35.2570   29.2160   48.6340 C   0  0  2  0  0  0  0  0  0  0  0  0
   34.0530   29.3160   49.4520 C   0  0  0  0  0  0  0  0  0  0  0  0
   34.4150   27.9770   49.0840 C   0  0  1  0  0  0  0  0  0  0  0  0
   35.2610   29.4520   47.5590 H   0  0  0  0  0  0  0  0  0  0  0  0
   33.1360   29.8250   49.0510 H   0  0  0  0  0  0  0  0  0  0  0  0
   34.1920   29.5940   50.5350 H   0  0  0  0  0  0  0  0  0  0  0  0
   34.9950   27.2530   49.6560 H   0  0  0  0  0  0  0  0  0  0  0  0
   36.5970   29.2500   49.3910 C   0  0  0  0  0  0  0  0  0  0  0  0
   37.2220   28.3960   49.0080 H   0  0  0  0  0  0  0  0  0  0  0  0
   36.4090   29.0950   50.4700 H   0  0  0  0  0  0  0  0  0  0  0  0
   37.6570   32.7410   49.5620 C   0  0  0  0  0  0  0  0  0  0  0  0
   38.5160   32.8560   48.4490 C   0  0  0  0  0  0  0  0  0  0  0  0
   38.7150   31.7060   47.6520 C   0  0  0  0  0  0  0  0  0  0  0  0
   38.0630   30.5500   48.0030 N   0  0  0  0  0  0  0  0  0  0  0  0
   37.2610   30.5000   49.0690 C   0  0  0  0  0  0  0  0  0  0  0  0
   37.0640   31.6030   49.8440 N   0  0  0  0  0  0  0  0  0  0  0  0
   37.4510   33.5730   50.2250 H   0  0  0  0  0  0  0  0  0  0  0  0
   38.9900   33.8030   48.2440 H   0  0  0  0  0  0  0  0  0  0  0  0
   39.3680   31.7830   46.8010 H   0  0  0  0  0  0  0  0  0  0  0  0
   33.5520   27.3430   48.0100 C   0  0  0  0  0  0  0  0  0  0  0  0
   33.8630   26.1140   47.7670 O   0  0  0  0  0  0  0  0  0  0  0  0
   32.5120   27.9470   47.3140 O   0  0  0  0  0  0  0  0  0  0  0  0
   31.2450   28.0880   47.8110 C   0  0  0  0  0  0  0  0  0  0  0  0
   30.7910   27.6210   49.1440 C   0  0  0  0  0  0  0  0  0  0  0  0
   29.5030   27.8410   49.4840 C   0  0  0  0  0  0  0  0  0  0  0  0
   28.6060   28.4940   48.6130 C   0  0  0  0  0  0  0  0  0  0  0  0
   29.6570   28.8600   47.1230 S   0  0  0  0  0  0  0  0  0  0  0  0
   31.5230   27.1330   49.7540 H   0  0  0  0  0  0  0  0  0  0  0  0
   29.1040   27.5280   50.4340 H   0  0  0  0  0  0  0  0  0  0  0  0
   27.3110   28.8200   48.7280 N   0  0  0  0  0  0  0  0  0  0  0  0
   26.1820   28.0610   48.7470 C   0  0  0  0  0  3  0  0  0  0  0  0
   25.1120   28.8820   48.8840 N   0  0  0  0  0  0  0  0  0  0  0  0
   25.5660   30.1530   48.9510 C   0  0  0  0  0  3  0  0  0  0  0  0
   26.9250   30.0860   48.8520 N   0  0  0  0  0  0  0  0  0  0  0  0
  1  4  1  6  0  0  0
  1  3  1  0  0  0  0
  1  8  1  0  0  0  0
  1  2  1  0  0  0  0
  2  6  1  0  0  0  0
  3  2  1  0  0  0  0
  3  7  1  1  0  0  0
  5  2  1  0  0  0  0
  8 10  1  0  0  0  0
  9  8  1  0  0  0  0
 11 16  1  0  0  0  0
 11 17  1  0  0  0  0
 12 11  2  0  0  0  0
 13 14  2  0  0  0  0
 13 12  1  0  0  0  0
 14 15  1  0  0  0  0
 15  8  1  0  0  0  0
 15 16  2  0  0  0  0
 18 12  1  0  0  0  0
 19 13  1  0  0  0  0
 20  3  1  0  0  0  0
 21 20  2  0  0  0  0
 22 23  1  0  0  0  0
 22 20  1  0  0  0  0
 23 24  2  0  0  0  0
 24 25  1  0  0  0  0
 24 28  1  0  0  0  0
 25 29  1  0  0  0  0
 26 30  1  0  0  0  0
 26 25  2  0  0  0  0
 27 23  1  0  0  0  0
 27 26  1  0  0  0  0
 30 31  1  0  0  0  0
 30 34  1  0  0  0  0
 31 32  2  0  0  0  0
 32 33  1  0  0  0  0
 34 33  2  0  0  0  0
M  END
>  <minimizedAffinity>
-6.16627884

>  <minimizedRMSD>
1.52044082

$$$$
