
 OpenBabel03252509493D

 21 23  0  0  0  0  0  0  0  0999 V2000
   36.0890   30.1270   48.7370 C   0  0  0  0  0  0  0  0  0  0  0  0
   35.9670   29.3360   49.8860 C   0  0  0  0  0  0  0  0  0  0  0  0
   34.9750   28.3990   49.7000 C   0  0  0  0  0  0  0  0  0  0  0  0
   34.5150   28.6280   48.4650 N   0  0  0  0  0  0  0  0  0  0  0  0
   35.1620   29.6360   47.8960 N   0  0  0  0  0  0  0  0  0  0  0  0
   36.5470   29.4180   50.8040 H   0  0  0  0  0  0  0  0  0  0  0  0
   34.6730   27.6720   50.4120 H   0  0  0  0  0  0  0  0  0  0  0  0
   38.0820   33.1740   49.3850 C   0  0  0  0  0  0  0  0  0  0  0  0
   39.0130   33.0990   48.3370 C   0  0  0  0  0  0  0  0  0  0  0  0
   38.9250   32.0170   47.4570 C   0  0  0  0  0  0  0  0  0  0  0  0
   37.9380   31.0890   47.6590 N   0  0  0  0  0  0  0  0  0  0  0  0
   37.0710   31.1990   48.6710 C   0  0  0  0  0  0  0  0  0  0  0  0
   37.1280   32.2310   49.5380 N   0  0  0  0  0  0  0  0  0  0  0  0
   38.0920   33.9890   50.1060 H   0  0  0  0  0  0  0  0  0  0  0  0
   39.7690   33.8690   48.2350 H   0  0  0  0  0  0  0  0  0  0  0  0
   39.6320   31.9390   46.6430 H   0  0  0  0  0  0  0  0  0  0  0  0
   33.4570   27.9080   47.7810 C   0  0  0  0  0  0  0  0  0  0  0  0
   32.3010   27.8560   48.7780 C   0  0  0  0  0  0  0  0  0  0  0  0
   31.4380   26.7810   48.1750 C   0  0  0  0  0  0  0  0  0  0  0  0
   32.3800   25.8240   47.4890 C   0  0  0  0  0  0  0  0  0  0  0  0
   33.7680   26.4640   47.5870 C   0  0  0  0  0  0  0  0  0  0  0  0
  1  2  1  0  0  0  0
  2  6  1  0  0  0  0
  3  2  2  0  0  0  0
  3  7  1  0  0  0  0
  4  3  1  0  0  0  0
  5  4  1  0  0  0  0
  5  1  2  0  0  0  0
  8 13  1  0  0  0  0
  8 14  1  0  0  0  0
  9  8  2  0  0  0  0
 10 11  2  0  0  0  0
 10  9  1  0  0  0  0
 11 12  1  0  0  0  0
 12  1  1  0  0  0  0
 12 13  2  0  0  0  0
 15  9  1  0  0  0  0
 16 10  1  0  0  0  0
 17  4  1  0  0  0  0
 17 18  1  0  0  0  0
 19 18  1  0  0  0  0
 20 21  1  0  0  0  0
 20 19  1  0  0  0  0
 21 17  1  0  0  0  0
M  END
>  <minimizedAffinity>
-5.08620167

>  <minimizedRMSD>
1.36520898

$$$$
