
 OpenBabel03252511573D

 33 36  0  0  0  0  0  0  0  0999 V2000
   36.3770   30.2880   47.5130 N   0  0  0  0  0  0  0  0  0  0  0  0
   35.1280   29.9620   47.0960 C   0  0  0  0  0  0  0  0  0  0  0  0
   34.7740   30.0670   45.7690 C   0  0  0  0  0  0  0  0  0  0  0  0
   35.7560   30.5140   44.9390 C   0  0  0  0  0  0  0  0  0  0  0  0
   35.4630   30.6230   43.7110 O   0  0  0  0  0  0  0  0  0  0  0  0
   37.0290   30.8580   45.2930 N   0  0  0  0  0  0  0  0  0  0  0  0
   37.2730   30.7180   46.6200 C   0  0  0  0  0  0  0  0  0  0  0  0
   38.4200   31.0140   47.0170 O   0  0  0  0  0  0  0  0  0  0  0  0
   34.3960   29.6110   47.8190 H   0  0  0  0  0  0  0  0  0  0  0  0
   33.7940   29.8200   45.3810 H   0  0  0  0  0  0  0  0  0  0  0  0
   37.9460   31.3080   44.3410 C   0  0  0  0  0  0  0  0  0  0  0  0
   38.2850   32.6070   44.0610 C   0  0  0  0  0  0  0  0  0  0  0  0
   39.1970   32.9570   43.1080 C   0  0  0  0  0  0  0  0  0  0  0  0
   39.8210   31.9750   42.3760 C   0  0  0  0  0  0  0  0  0  0  0  0
   39.4690   30.6700   42.6670 C   0  0  0  0  0  0  0  0  0  0  0  0
   38.5600   30.3430   43.6200 N   0  0  0  0  0  0  0  0  0  0  0  0
   37.7740   33.3770   44.6600 H   0  0  0  0  0  0  0  0  0  0  0  0
   39.4290   33.9980   42.9280 H   0  0  0  0  0  0  0  0  0  0  0  0
   40.5480   32.1920   41.6120 H   0  0  0  0  0  0  0  0  0  0  0  0
   40.0850   29.5860   41.9380 N   0  0  0  0  0  0  0  0  0  0  0  0
   39.6570   28.3610   41.6190 C   0  0  0  0  0  0  0  0  0  0  0  0
   40.6240   27.7250   40.9180 N   0  0  0  0  0  0  0  0  0  0  0  0
   41.6720   28.5760   40.8030 C   0  0  0  0  0  0  0  0  0  0  0  0
   41.3020   29.7120   41.4430 N   0  0  0  0  0  0  0  0  0  0  0  0
   36.9130   31.3940   49.5180 C   0  0  0  0  0  0  0  0  0  0  0  0
   36.6700   30.1600   48.8700 C   0  0  0  0  0  0  0  0  0  0  0  0
   36.7570   28.9940   49.6100 C   0  0  0  0  0  0  0  0  0  0  0  0
   37.0710   29.0710   50.9310 N   0  0  0  0  0  0  0  0  0  0  0  0
   37.3020   30.2680   51.5410 C   0  0  0  0  0  0  0  0  0  0  0  0
   37.2200   31.4290   50.8200 N   0  0  0  0  0  0  0  0  0  0  0  0
   36.9040   32.4290   49.2170 H   0  0  0  0  0  0  0  0  0  0  0  0
   36.5590   28.0960   49.0530 H   0  0  0  0  0  0  0  0  0  0  0  0
   37.5350   30.1260   52.5780 H   0  0  0  0  0  0  0  0  0  0  0  0
  1 26  1  0  0  0  0
  2  1  1  0  0  0  0
  2  9  1  0  0  0  0
  3  2  2  0  0  0  0
  4  6  1  0  0  0  0
  4  3  1  0  0  0  0
  5  4  2  0  0  0  0
  6  7  1  0  0  0  0
  7  8  2  0  0  0  0
  7  1  1  0  0  0  0
 10  3  1  0  0  0  0
 11  6  1  0  0  0  0
 12 11  1  0  0  0  0
 12 17  1  0  0  0  0
 13 12  2  0  0  0  0
 14 15  2  0  0  0  0
 14 13  1  0  0  0  0
 15 16  1  0  0  0  0
 16 11  2  0  0  0  0
 18 13  1  0  0  0  0
 19 14  1  0  0  0  0
 20 15  1  0  0  0  0
 21 20  1  0  0  0  0
 22 21  2  0  0  0  0
 23 22  1  0  0  0  0
 23 24  2  0  0  0  0
 24 20  1  0  0  0  0
 25 30  1  0  0  0  0
 26 25  2  0  0  0  0
 26 27  1  0  0  0  0
 27 28  2  0  0  0  0
 28 29  1  0  0  0  0
 29 33  1  0  0  0  0
 30 29  2  0  0  0  0
 31 25  1  0  0  0  0
 32 27  1  0  0  0  0
M  END
>  <minimizedAffinity>
-5.68179131

>  <minimizedRMSD>
0.585526824

$$$$
