
 OpenBabel03252511533D

 35 38  0  0  1  0  0  0  0  0999 V2000
   37.8300   31.2700   47.9920 N   0  0  0  0  0  0  0  0  0  0  0  0
   38.8570   32.1200   47.8810 C   0  0  0  0  0  0  0  0  0  0  0  0
   39.0350   32.4960   46.6110 N   0  0  0  0  0  0  0  0  0  0  0  0
   38.0970   31.8740   45.8640 C   0  0  0  0  0  0  0  0  0  0  0  0
   37.7980   31.8440   44.5310 C   0  0  0  0  0  0  0  0  0  0  0  0
   36.7870   31.0950   44.0110 N   0  0  0  0  0  0  0  0  0  0  0  0
   36.0770   30.3690   44.8880 C   0  0  0  0  0  0  0  0  0  0  0  0
   36.3760   30.4010   46.1910 N   0  0  0  0  0  0  0  0  0  0  0  0
   37.3480   31.1100   46.7440 C   0  0  0  0  0  0  0  0  0  0  0  0
   39.4830   32.4770   48.6900 H   0  0  0  0  0  0  0  0  0  0  0  0
   35.2690   29.7630   44.5250 H   0  0  0  0  0  0  0  0  0  0  0  0
   36.2790   29.7930   49.1410 C   0  0  0  0  0  0  0  0  0  0  0  0
   37.3580   30.6550   49.1710 C   0  0  0  0  0  0  0  0  0  0  0  0
   37.9920   30.9110   50.3880 C   0  0  0  0  0  0  0  0  0  0  0  0
   37.4840   30.2720   51.4990 N   0  0  0  0  0  0  0  0  0  0  0  0
   36.4340   29.4410   51.4340 C   0  0  0  0  0  0  0  0  0  0  0  0
   35.8230   29.1930   50.2670 N   0  0  0  0  0  0  0  0  0  0  0  0
   35.7660   29.5730   48.2140 H   0  0  0  0  0  0  0  0  0  0  0  0
   38.8490   31.5830   50.4730 H   0  0  0  0  0  0  0  0  0  0  0  0
   36.1720   29.0290   52.4020 H   0  0  0  0  0  0  0  0  0  0  0  0
   38.4950   32.7200   43.5570 C   0  0  2  0  0  0  0  0  0  0  0  0
   38.6590   33.7040   44.0900 H   0  0  0  0  0  0  0  0  0  0  0  0
   37.8200   32.8770   42.2610 C   0  0  0  0  0  0  0  0  0  0  0  0
   38.5910   33.0970   41.4870 H   0  0  0  0  0  0  0  0  0  0  0  0
   37.0280   33.6580   42.2670 H   0  0  0  0  0  0  0  0  0  0  0  0
   37.3260   31.8980   42.0000 H   0  0  0  0  0  0  0  0  0  0  0  0
   39.9610   32.2640   43.3980 C   0  0  0  0  0  0  0  0  0  0  0  0
   40.4270   33.0820   42.8100 H   0  0  0  0  0  0  0  0  0  0  0  0
   40.4040   32.3450   44.4330 H   0  0  0  0  0  0  0  0  0  0  0  0
   40.1130   30.9310   42.8260 C   0  0  0  0  0  0  0  0  0  0  0  0
   39.9510   29.5830   42.9610 C   0  0  0  0  0  0  0  0  0  0  0  0
   40.3870   28.8940   41.8480 C   0  0  0  0  0  0  0  0  0  0  0  0
   40.8160   29.9170   41.0490 C   0  0  0  0  0  0  0  0  0  0  0  0
   41.2330   29.6760   40.0540 H   0  0  0  0  0  0  0  0  0  0  0  0
   40.6540   31.0690   41.6160 O   0  0  0  0  0  0  0  0  0  0  0  0
  1 13  1  0  0  0  0
  2  1  1  0  0  0  0
  2 10  1  0  0  0  0
  3  2  2  0  0  0  0
  4  3  1  0  0  0  0
  4  9  1  0  0  0  0
  5  4  2  0  0  0  0
  6  5  1  0  0  0  0
  6  7  2  0  0  0  0
  7  8  1  0  0  0  0
  8  9  2  0  0  0  0
  9  1  1  0  0  0  0
 11  7  1  0  0  0  0
 12 13  2  0  0  0  0
 12 17  1  0  0  0  0
 13 14  1  0  0  0  0
 14 19  1  0  0  0  0
 14 15  2  0  0  0  0
 16 15  1  0  0  0  0
 16 20  1  0  0  0  0
 17 16  2  0  0  0  0
 18 12  1  0  0  0  0
 21 22  1  1  0  0  0
 21  5  1  0  0  0  0
 23 25  1  0  0  0  0
 23 21  1  0  0  0  0
 24 23  1  0  0  0  0
 26 23  1  0  0  0  0
 27 21  1  0  0  0  0
 27 29  1  0  0  0  0
 28 27  1  0  0  0  0
 30 31  2  0  0  0  0
 30 27  1  0  0  0  0
 32 31  1  0  0  0  0
 33 35  1  0  0  0  0
 33 32  2  0  0  0  0
 34 33  1  0  0  0  0
 35 30  1  0  0  0  0
M  END
>  <minimizedAffinity>
-5.51560497

>  <minimizedRMSD>
1.65089762

$$$$
