
 OpenBabel03252514043D

 34 37  0  0  1  0  0  0  0  0999 V2000
   35.2530   29.1790   48.5800 C   0  0  2  0  0  0  0  0  0  0  0  0
   34.0230   29.3460   49.3470 C   0  0  0  0  0  0  0  0  0  0  0  0
   34.3710   27.9830   49.0680 C   0  0  1  0  0  0  0  0  0  0  0  0
   35.2980   29.3550   47.4940 H   0  0  0  0  0  0  0  0  0  0  0  0
   33.1310   29.8480   48.8850 H   0  0  0  0  0  0  0  0  0  0  0  0
   34.1290   29.6820   50.4170 H   0  0  0  0  0  0  0  0  0  0  0  0
   34.9160   27.2820   49.6990 H   0  0  0  0  0  0  0  0  0  0  0  0
   36.5650   29.2310   49.3820 C   0  0  0  0  0  0  0  0  0  0  0  0
   37.2090   28.3780   49.0310 H   0  0  0  0  0  0  0  0  0  0  0  0
   36.3420   29.0880   50.4560 H   0  0  0  0  0  0  0  0  0  0  0  0
   37.6210   32.7230   49.5670 C   0  0  0  0  0  0  0  0  0  0  0  0
   38.4910   32.8400   48.4620 C   0  0  0  0  0  0  0  0  0  0  0  0
   38.6980   31.6910   47.6660 C   0  0  0  0  0  0  0  0  0  0  0  0
   38.0440   30.5340   48.0090 N   0  0  0  0  0  0  0  0  0  0  0  0
   37.2320   30.4830   49.0670 C   0  0  0  0  0  0  0  0  0  0  0  0
   37.0260   31.5840   49.8420 N   0  0  0  0  0  0  0  0  0  0  0  0
   37.4090   33.5540   50.2280 H   0  0  0  0  0  0  0  0  0  0  0  0
   38.9660   33.7880   48.2620 H   0  0  0  0  0  0  0  0  0  0  0  0
   39.3600   31.7700   46.8210 H   0  0  0  0  0  0  0  0  0  0  0  0
   33.5340   27.3050   48.0000 C   0  0  0  0  0  0  0  0  0  0  0  0
   33.8830   26.0810   47.7790 O   0  0  0  0  0  0  0  0  0  0  0  0
   32.4800   27.8650   47.2890 O   0  0  0  0  0  0  0  0  0  0  0  0
   31.2290   28.0620   47.8100 C   0  0  0  0  0  0  0  0  0  0  0  0
   30.7790   27.6060   49.1480 C   0  0  0  0  0  0  0  0  0  0  0  0
   29.5080   27.8840   49.5120 C   0  0  0  0  0  0  0  0  0  0  0  0
   28.6270   28.5850   48.6630 C   0  0  0  0  0  0  0  0  0  0  0  0
   29.6670   28.9110   47.1550 S   0  0  0  0  0  0  0  0  0  0  0  0
   31.4980   27.0810   49.7410 H   0  0  0  0  0  0  0  0  0  0  0  0
   29.1130   27.5840   50.4680 H   0  0  0  0  0  0  0  0  0  0  0  0
   27.3520   28.9700   48.8030 N   0  0  0  0  0  0  0  0  0  0  0  0
   26.7650   30.1970   48.7630 C   0  0  0  0  0  3  0  0  0  0  0  0
   25.4310   30.0440   48.9640 N   0  0  0  0  0  0  0  0  0  0  0  0
   25.1820   28.7270   49.1300 C   0  0  0  0  0  3  0  0  0  0  0  0
   26.3830   28.0880   49.0250 N   0  0  0  0  0  0  0  0  0  0  0  0
  1  4  1  6  0  0  0
  1  3  1  0  0  0  0
  1  2  1  0  0  0  0
  1  8  1  0  0  0  0
  2  6  1  0  0  0  0
  3  2  1  0  0  0  0
  3  7  1  1  0  0  0
  5  2  1  0  0  0  0
  8 10  1  0  0  0  0
  9  8  1  0  0  0  0
 11 16  1  0  0  0  0
 11 17  1  0  0  0  0
 12 11  2  0  0  0  0
 13 14  2  0  0  0  0
 13 12  1  0  0  0  0
 14 15  1  0  0  0  0
 15  8  1  0  0  0  0
 15 16  2  0  0  0  0
 18 12  1  0  0  0  0
 19 13  1  0  0  0  0
 20  3  1  0  0  0  0
 21 20  2  0  0  0  0
 22 23  1  0  0  0  0
 22 20  1  0  0  0  0
 23 24  2  0  0  0  0
 24 25  1  0  0  0  0
 24 28  1  0  0  0  0
 25 29  1  0  0  0  0
 26 30  1  0  0  0  0
 26 25  2  0  0  0  0
 27 23  1  0  0  0  0
 27 26  1  0  0  0  0
 30 34  1  0  0  0  0
 31 30  1  0  0  0  0
 31 32  2  0  0  0  0
 32 33  1  0  0  0  0
 34 33  2  0  0  0  0
M  END
>  <minimizedAffinity>
-6.16075611

>  <minimizedRMSD>
1.60731184

$$$$
