
 OpenBabel03252514013D

 29 31  0  0  1  0  0  0  0  0999 V2000
   35.4860   29.6050   49.0630 C   0  0  2  0  0  0  0  0  0  0  0  0
   34.3330   29.3780   49.9450 C   0  0  0  0  0  0  0  0  0  0  0  0
   34.8100   28.2260   49.1920 C   0  0  1  0  0  0  0  0  0  0  0  0
   35.4460   30.0450   48.0580 H   0  0  0  0  0  0  0  0  0  0  0  0
   33.3770   29.8890   49.6390 H   0  0  0  0  0  0  0  0  0  0  0  0
   34.5420   29.4950   51.0440 H   0  0  0  0  0  0  0  0  0  0  0  0
   35.5290   27.4610   49.4980 H   0  0  0  0  0  0  0  0  0  0  0  0
   36.8690   29.6250   49.7100 C   0  0  0  0  0  0  0  0  0  0  0  0
   36.7180   29.8230   50.7890 H   0  0  0  0  0  0  0  0  0  0  0  0
   37.3620   28.6440   49.6270 H   0  0  0  0  0  0  0  0  0  0  0  0
   38.4440   32.9110   49.3170 C   0  0  0  0  0  0  0  0  0  0  0  0
   39.0180   32.8330   48.0380 C   0  0  0  0  0  0  0  0  0  0  0  0
   38.8530   31.6350   47.3210 C   0  0  0  0  0  0  0  0  0  0  0  0
   38.1430   30.6140   47.9090 N   0  0  0  0  0  0  0  0  0  0  0  0
   37.6170   30.7430   49.1310 C   0  0  0  0  0  0  0  0  0  0  0  0
   37.7710   31.8910   49.8270 N   0  0  0  0  0  0  0  0  0  0  0  0
   38.6340   33.8700   49.7720 H   0  0  0  0  0  0  0  0  0  0  0  0
   39.5860   33.5560   47.4860 H   0  0  0  0  0  0  0  0  0  0  0  0
   39.2260   31.4170   46.3420 H   0  0  0  0  0  0  0  0  0  0  0  0
   33.9200   27.7930   48.0570 C   0  0  0  0  0  0  0  0  0  0  0  0
   33.7420   26.5140   47.9740 O   0  0  0  0  0  0  0  0  0  0  0  0
   33.3020   28.6310   47.1480 O   0  0  0  0  0  0  0  0  0  0  0  0
   34.2280   31.6090   46.2380 H   0  0  0  0  0  0  0  0  0  0  0  0
   33.8860   30.6440   46.1840 N   0  0  0  0  0  0  0  0  0  0  0  0
   32.4310   30.6790   46.0230 C   0  0  0  0  0  2  0  0  0  0  0  0
   32.0570   29.4090   45.3180 C   0  0  0  0  0  2  0  0  0  0  0  0
   33.0040   28.3140   45.8280 C   0  0  0  0  0  3  0  0  0  0  0  0
   34.2730   28.5100   45.0150 C   0  0  0  0  0  2  0  0  0  0  0  0
   34.5130   30.0220   45.0240 C   0  0  0  0  0  2  0  0  0  0  0  0
  1  4  1  6  0  0  0
  1  3  1  0  0  0  0
  1  8  1  0  0  0  0
  1  2  1  0  0  0  0
  2  6  1  0  0  0  0
  3  7  1  1  0  0  0
  3  2  1  0  0  0  0
  5  2  1  0  0  0  0
  8  9  1  0  0  0  0
 10  8  1  0  0  0  0
 11 17  1  0  0  0  0
 11 16  1  0  0  0  0
 12 11  2  0  0  0  0
 13 14  2  0  0  0  0
 13 12  1  0  0  0  0
 14 15  1  0  0  0  0
 15  8  1  0  0  0  0
 15 16  2  0  0  0  0
 18 12  1  0  0  0  0
 19 13  1  0  0  0  0
 20  3  1  0  0  0  0
 21 20  2  0  0  0  0
 22 20  1  0  0  0  0
 24 23  1  0  0  0  0
 25 24  1  0  0  0  0
 26 27  1  0  0  0  0
 26 25  1  0  0  0  0
 27 22  1  0  0  0  0
 28 29  1  0  0  0  0
 28 27  1  0  0  0  0
 29 24  1  0  0  0  0
M  END
>  <minimizedAffinity>
-4.98688126

>  <minimizedRMSD>
1.27016973

$$$$
