
 OpenBabel03252510173D

 21 23  0  0  0  0  0  0  0  0999 V2000
   38.0890   31.8500   47.6250 N   0  0  0  0  0  0  0  0  0  0  0  0
   38.8630   32.8540   47.9910 N   0  0  0  0  0  0  0  0  0  0  0  0
   38.5570   33.2740   49.2280 C   0  0  0  0  0  0  0  0  0  0  0  0
   37.5150   32.4550   49.6310 C   0  0  0  0  0  0  0  0  0  0  0  0
   37.2420   31.5710   48.6090 C   0  0  0  0  0  0  0  0  0  0  0  0
   38.9970   34.0690   49.8150 H   0  0  0  0  0  0  0  0  0  0  0  0
   37.0200   32.5220   50.5970 H   0  0  0  0  0  0  0  0  0  0  0  0
   39.3730   30.6770   45.9210 C   0  0  0  0  0  0  0  0  0  0  0  0
   38.1630   31.1990   46.3990 C   0  0  0  0  0  0  0  0  0  0  0  0
   37.0480   31.0320   45.5840 C   0  0  0  0  0  0  0  0  0  0  0  0
   37.1690   30.3890   44.3940 N   0  0  0  0  0  0  0  0  0  0  0  0
   38.3590   29.9000   43.9710 C   0  0  0  0  0  0  0  0  0  0  0  0
   39.4610   30.0420   44.7320 N   0  0  0  0  0  0  0  0  0  0  0  0
   40.2940   30.7640   46.4930 H   0  0  0  0  0  0  0  0  0  0  0  0
   36.0690   31.4100   45.8860 H   0  0  0  0  0  0  0  0  0  0  0  0
   38.4060   29.3950   43.0160 H   0  0  0  0  0  0  0  0  0  0  0  0
   36.2190   30.5870   48.7050 N   0  0  0  0  0  0  0  0  0  0  0  0
   36.5810   29.4380   49.3390 C   0  0  0  0  0  0  0  0  0  0  0  0
   35.5450   28.5780   49.3740 N   0  0  0  0  0  0  0  0  0  0  0  0
   34.5220   29.2160   48.7460 C   0  0  0  0  0  0  0  0  0  0  0  0
   34.9350   30.4320   48.3420 N   0  0  0  0  0  0  0  0  0  0  0  0
  1  2  1  0  0  0  0
  1  5  1  0  0  0  0
  2  3  2  0  0  0  0
  3  4  1  0  0  0  0
  3  6  1  0  0  0  0
  4  7  1  0  0  0  0
  5 17  1  0  0  0  0
  5  4  2  0  0  0  0
  8  9  1  0  0  0  0
  8 14  1  0  0  0  0
  9  1  1  0  0  0  0
 10 15  1  0  0  0  0
 10  9  2  0  0  0  0
 11 10  1  0  0  0  0
 12 11  2  0  0  0  0
 12 13  1  0  0  0  0
 13  8  2  0  0  0  0
 16 12  1  0  0  0  0
 17 18  1  0  0  0  0
 18 19  2  0  0  0  0
 20 19  1  0  0  0  0
 21 17  1  0  0  0  0
 21 20  2  0  0  0  0
M  END
>  <minimizedAffinity>
-4.77753735

>  <minimizedRMSD>
4.57077551

$$$$
