
 OpenBabel03252513323D

 17 18  0  0  0  0  0  0  0  0999 V2000
   36.6850   29.8680   49.5250 C   0  0  0  0  0  0  0  0  0  0  0  0
   37.7570   30.4230   48.8270 C   0  0  0  0  0  0  0  0  0  0  0  0
   37.5710   30.7620   47.4860 C   0  0  0  0  0  0  0  0  0  0  0  0
   36.3560   30.5340   46.9290 N   0  0  0  0  0  0  0  0  0  0  0  0
   35.3360   29.9930   47.6340 C   0  0  0  0  0  0  0  0  0  0  0  0
   35.5030   29.6640   48.9180 N   0  0  0  0  0  0  0  0  0  0  0  0
   38.7080   30.5870   49.3140 H   0  0  0  0  0  0  0  0  0  0  0  0
   34.4020   29.8440   47.1140 H   0  0  0  0  0  0  0  0  0  0  0  0
   38.6670   31.3280   46.7760 N   0  0  0  0  0  0  0  0  0  0  0  0
   39.2820   32.5280   46.8540 C   0  0  0  0  0  0  0  0  0  0  0  0
   40.2750   32.5190   45.9290 N   0  0  0  0  0  0  0  0  0  0  0  0
   40.2650   31.3240   45.2930 C   0  0  0  0  0  0  0  0  0  0  0  0
   39.2570   30.5890   45.8310 N   0  0  0  0  0  0  0  0  0  0  0  0
   36.8690   29.4990   50.9660 C   0  0  0  0  0  0  0  0  0  0  0  0
   35.6420   29.1420   51.5140 F   0  0  0  0  0  0  0  0  0  0  0  0
   37.8140   28.5360   51.0580 F   0  0  0  0  0  0  0  0  0  0  0  0
   37.2840   30.6630   51.6270 F   0  0  0  0  0  0  0  0  0  0  0  0
  1 14  1  0  0  0  0
  2  7  1  0  0  0  0
  2  1  2  0  0  0  0
  3  2  1  0  0  0  0
  4  3  2  0  0  0  0
  4  5  1  0  0  0  0
  5  6  2  0  0  0  0
  6  1  1  0  0  0  0
  8  5  1  0  0  0  0
  9 10  1  0  0  0  0
  9  3  1  0  0  0  0
 11 10  2  0  0  0  0
 12 13  2  0  0  0  0
 12 11  1  0  0  0  0
 13  9  1  0  0  0  0
 14 16  1  0  0  0  0
 14 15  1  0  0  0  0
 14 17  1  0  0  0  0
M  END
>  <minimizedAffinity>
-5.59454584

>  <minimizedRMSD>
2.40483809

$$$$
