
 OpenBabel03252513413D

 17 18  0  0  0  0  0  0  0  0999 V2000
   38.0010   31.1450   49.3400 C   0  0  0  0  0  0  0  0  0  0  0  0
   38.3910   32.4750   49.6010 C   0  0  0  0  0  0  0  0  0  0  0  0
   38.9700   33.2140   48.5490 C   0  0  0  0  0  0  0  0  0  0  0  0
   39.1200   32.6050   47.3430 N   0  0  0  0  0  0  0  0  0  0  0  0
   38.7270   31.3190   47.1430 C   0  0  0  0  0  0  0  0  0  0  0  0
   38.1750   30.6010   48.1310 N   0  0  0  0  0  0  0  0  0  0  0  0
   38.2510   32.9160   50.5760 H   0  0  0  0  0  0  0  0  0  0  0  0
   39.2850   34.2370   48.6970 H   0  0  0  0  0  0  0  0  0  0  0  0
   38.8590   30.8680   46.1830 H   0  0  0  0  0  0  0  0  0  0  0  0
   37.4370   30.4280   50.3680 O   0  0  0  0  0  0  0  0  0  0  0  0
   32.8350   29.1070   48.9640 H   0  0  0  0  0  0  0  0  0  0  0  0
   33.8300   29.2210   48.9270 N   0  0  0  0  0  0  0  0  0  0  0  0
   34.4000   30.4050   48.4240 C   0  0  0  0  0  0  0  0  0  0  0  0
   35.3770   31.0310   49.3610 C   0  0  0  0  0  0  0  0  0  0  0  0
   36.0550   30.0840   50.3070 C   0  0  0  0  0  0  0  0  0  0  0  0
   35.9440   28.6470   49.9890 C   0  0  0  0  0  0  0  0  0  0  0  0
   34.6710   28.1890   49.3800 C   0  0  0  0  0  0  0  0  0  0  0  0
  1  2  1  0  0  0  0
  1 10  1  0  0  0  0
  2  7  1  0  0  0  0
  3  8  1  0  0  0  0
  3  2  2  0  0  0  0
  4  3  1  0  0  0  0
  5  4  2  0  0  0  0
  5  6  1  0  0  0  0
  6  1  2  0  0  0  0
  9  5  1  0  0  0  0
 12 11  1  0  0  0  0
 12 17  1  0  0  0  0
 13 12  1  0  0  0  0
 13 14  1  0  0  0  0
 14 15  1  0  0  0  0
 15 10  1  0  0  0  0
 16 15  1  0  0  0  0
 17 16  1  0  0  0  0
M  END
>  <minimizedAffinity>
-4.42313576

>  <minimizedRMSD>
3.59124732

$$$$
