
 OpenBabel03252513273D

 34 36  0  0  0  0  0  0  0  0999 V2000
   32.7930   27.8560   48.6450 C   0  0  0  0  0  0  0  0  0  0  0  0
   31.6960   28.2890   49.3050 C   0  0  0  0  0  0  0  0  0  0  0  0
   30.4630   27.6680   49.2720 C   0  0  0  0  0  0  0  0  0  0  0  0
   30.3880   26.5230   48.4920 C   0  0  0  0  0  0  0  0  0  0  0  0
   31.4860   26.0410   47.7980 C   0  0  0  0  0  0  0  0  0  0  0  0
   32.6940   26.7080   47.8740 C   0  0  0  0  0  0  0  0  0  0  0  0
   31.7760   29.1900   49.9110 H   0  0  0  0  0  0  0  0  0  0  0  0
   29.6200   28.0400   49.8070 H   0  0  0  0  0  0  0  0  0  0  0  0
   29.4650   25.9660   48.4020 H   0  0  0  0  0  0  0  0  0  0  0  0
   31.3970   25.1530   47.2050 H   0  0  0  0  0  0  0  0  0  0  0  0
   36.1500   28.9400   49.6800 C   0  0  0  0  0  0  0  0  0  0  0  0
   36.4460   29.9410   48.7170 C   0  0  0  0  0  0  0  0  0  0  0  0
   35.4830   30.2080   47.7490 C   0  0  0  0  0  0  0  0  0  0  0  0
   34.3110   29.4950   47.7760 N   0  0  0  0  0  0  0  0  0  0  0  0
   34.0700   28.5470   48.7140 C   0  0  0  0  0  0  0  0  0  0  0  0
   34.9840   28.2910   49.6380 N   0  0  0  0  0  0  0  0  0  0  0  0
   36.9040   28.7450   50.4220 H   0  0  0  0  0  0  0  0  0  0  0  0
   35.6620   30.9620   46.9930 H   0  0  0  0  0  0  0  0  0  0  0  0
   37.7240   30.6910   48.7190 C   0  0  0  0  0  0  0  0  0  0  0  0
   38.4920   30.4560   47.6110 F   0  0  0  0  0  0  0  0  0  0  0  0
   38.4990   30.3850   49.8200 F   0  0  0  0  0  0  0  0  0  0  0  0
   37.4630   32.0620   48.7680 F   0  0  0  0  0  0  0  0  0  0  0  0
   33.8690   26.2390   47.1620 C   0  0  0  0  0  0  0  0  0  0  0  0
   33.9760   26.8000   46.2120 H   0  0  0  0  0  0  0  0  0  0  0  0
   34.7860   26.5260   47.7540 H   0  0  0  0  0  0  0  0  0  0  0  0
   33.9830   24.7500   46.9680 C   0  0  0  0  0  0  0  0  0  0  0  0
   34.4410   24.2690   47.8550 H   0  0  0  0  0  0  0  0  0  0  0  0
   33.0410   24.2440   46.7480 H   0  0  0  0  0  0  0  0  0  0  0  0
   34.9030   24.5670   45.7900 C   0  0  0  0  0  0  0  0  0  0  0  0
   35.9150   23.6010   45.7850 C   0  0  0  0  0  0  0  0  0  0  0  0
   36.5500   23.7210   44.5580 C   0  0  0  0  0  0  0  0  0  0  0  0
   35.9020   24.7360   43.8910 C   0  0  0  0  0  0  0  0  0  0  0  0
   36.1610   25.0870   42.8820 H   0  0  0  0  0  0  0  0  0  0  0  0
   34.9560   25.1990   44.6410 O   0  0  0  0  0  0  0  0  0  0  0  0
  1 15  1  0  0  0  0
  1  2  1  0  0  0  0
  2  7  1  0  0  0  0
  3  2  2  0  0  0  0
  3  8  1  0  0  0  0
  4  3  1  0  0  0  0
  5  6  1  0  0  0  0
  5  4  2  0  0  0  0
  6  1  2  0  0  0  0
  9  4  1  0  0  0  0
 10  5  1  0  0  0  0
 11 17  1  0  0  0  0
 12 19  1  0  0  0  0
 12 11  2  0  0  0  0
 13 14  2  0  0  0  0
 13 12  1  0  0  0  0
 14 15  1  0  0  0  0
 15 16  2  0  0  0  0
 16 11  1  0  0  0  0
 18 13  1  0  0  0  0
 19 22  1  0  0  0  0
 19 21  1  0  0  0  0
 20 19  1  0  0  0  0
 23 25  1  0  0  0  0
 23  6  1  0  0  0  0
 24 23  1  0  0  0  0
 26 23  1  0  0  0  0
 26 27  1  0  0  0  0
 28 26  1  0  0  0  0
 29 26  1  0  0  0  0
 30 29  2  0  0  0  0
 31 30  1  0  0  0  0
 32 31  2  0  0  0  0
 32 34  1  0  0  0  0
 33 32  1  0  0  0  0
 34 29  1  0  0  0  0
M  END
>  <minimizedAffinity>
-5.21090651

>  <minimizedRMSD>
0.551407337

$$$$
