
 OpenBabel03252513473D

 21 22  0  0  0  0  0  0  0  0999 V2000
   36.6430   29.8930   48.5340 C   0  0  0  0  0  0  0  0  0  0  0  0
   37.6060   30.9300   48.7090 C   0  0  0  0  0  0  0  0  0  0  0  0
   37.8960   31.7220   47.6110 C   0  0  0  0  0  0  0  0  0  0  0  0
   37.2610   31.4790   46.4430 N   0  0  0  0  0  0  0  0  0  0  0  0
   36.3540   30.4870   46.3150 C   0  0  0  0  0  0  0  0  0  0  0  0
   36.0680   29.7230   47.3510 N   0  0  0  0  0  0  0  0  0  0  0  0
   38.0850   31.0880   49.6510 H   0  0  0  0  0  0  0  0  0  0  0  0
   38.8570   32.7610   47.7760 N   0  0  0  0  0  0  0  0  0  0  0  0
   40.0470   33.1280   47.2760 C   0  0  0  0  0  3  0  0  0  0  0  0
   40.4410   34.2530   47.8820 N   0  0  0  0  0  0  0  0  0  0  0  0
   39.5010   34.6060   48.7710 C   0  0  0  0  0  3  0  0  0  0  0  0
   38.5210   33.6730   48.6980 N   0  0  0  0  0  0  0  0  0  0  0  0
   35.7440   30.3450   44.9690 C   0  0  0  0  0  0  0  0  0  0  0  0
   34.3500   30.4520   45.0570 F   0  0  0  0  0  0  0  0  0  0  0  0
   36.1560   31.3830   44.1620 F   0  0  0  0  0  0  0  0  0  0  0  0
   36.1120   29.1570   44.3460 F   0  0  0  0  0  0  0  0  0  0  0  0
   36.3560   29.1020   49.6350 O   0  0  0  0  0  0  0  0  0  0  0  0
   35.1690   29.1510   50.3640 C   0  0  0  0  0  0  0  0  0  0  0  0
   35.3570   29.0470   51.7280 F   0  0  0  0  0  0  0  0  0  0  0  0
   34.3740   30.2250   50.0770 F   0  0  0  0  0  0  0  0  0  0  0  0
   34.4680   27.9980   49.9830 F   0  0  0  0  0  0  0  0  0  0  0  0
  1  2  1  0  0  0  0
  1 17  1  0  0  0  0
  2  7  1  0  0  0  0
  3  8  1  0  0  0  0
  3  2  2  0  0  0  0
  4  3  1  0  0  0  0
  5  4  2  0  0  0  0
  5  6  1  0  0  0  0
  6  1  2  0  0  0  0
  8 12  1  0  0  0  0
  9  8  1  0  0  0  0
  9 10  2  0  0  0  0
 10 11  1  0  0  0  0
 12 11  2  0  0  0  0
 13 14  1  0  0  0  0
 13  5  1  0  0  0  0
 15 13  1  0  0  0  0
 16 13  1  0  0  0  0
 17 18  1  0  0  0  0
 18 19  1  0  0  0  0
 20 18  1  0  0  0  0
 21 18  1  0  0  0  0
M  END
>  <minimizedAffinity>
-4.29901743

>  <minimizedRMSD>
2.74133468

$$$$
