
 OpenBabel03252513083D

 40 42  0  0  0  0  0  0  0  0999 V2000
   39.4320   31.7990   45.1220 C   0  0  0  0  0  0  0  0  0  0  0  0
   39.9820   32.6760   44.6730 H   0  0  0  0  0  0  0  0  0  0  0  0
   40.1550   31.3440   45.8540 H   0  0  0  0  0  0  0  0  0  0  0  0
   38.8250   28.5750   43.2860 C   0  0  0  0  0  0  0  0  0  0  0  0
   39.0930   29.5080   44.3330 C   0  0  0  0  0  0  0  0  0  0  0  0
   39.1640   30.8450   44.0750 C   0  0  0  0  0  0  0  0  0  0  0  0
   38.9670   31.2420   42.7700 N   0  0  0  0  0  0  0  0  0  0  0  0
   38.7200   30.3610   41.8120 C   0  0  0  0  0  0  0  0  0  0  0  0
   38.6440   29.0590   42.0260 N   0  0  0  0  0  0  0  0  0  0  0  0
   38.7590   27.5110   43.4410 H   0  0  0  0  0  0  0  0  0  0  0  0
   39.2190   29.0330   45.2690 H   0  0  0  0  0  0  0  0  0  0  0  0
   38.5130   30.8190   40.4110 C   0  0  0  0  0  0  0  0  0  0  0  0
   38.2900   29.9740   39.7530 H   0  0  0  0  0  0  0  0  0  0  0  0
   37.6670   31.5670   40.4240 H   0  0  0  0  0  0  0  0  0  0  0  0
   39.7120   31.5830   39.9220 C   0  0  0  0  0  0  0  0  0  0  0  0
   40.0650   32.3100   40.6900 H   0  0  0  0  0  0  0  0  0  0  0  0
   39.4560   32.1530   38.9890 H   0  0  0  0  0  0  0  0  0  0  0  0
   40.7990   30.6210   39.6160 C   0  0  0  0  0  0  0  0  0  0  0  0
   40.5150   29.8420   38.4850 C   0  0  0  0  0  0  0  0  0  0  0  0
   41.5700   28.9700   38.2600 C   0  0  0  0  0  0  0  0  0  0  0  0
   42.4590   29.2700   39.2840 C   0  0  0  0  0  0  0  0  0  0  0  0
   43.4340   28.8660   39.5490 H   0  0  0  0  0  0  0  0  0  0  0  0
   41.9750   30.2220   40.0360 O   0  0  0  0  0  0  0  0  0  0  0  0
   38.2600   32.3080   45.8610 C   0  0  0  0  0  0  0  0  0  0  0  0
   38.3350   33.4380   45.8180 H   0  0  0  0  0  0  0  0  0  0  0  0
   37.3440   32.0940   45.2850 H   0  0  0  0  0  0  0  0  0  0  0  0
   38.0850   31.9750   47.2140 N   0  0  0  0  0  0  0  0  0  0  0  0
   38.7240   32.4490   48.2720 C   0  0  0  0  0  0  0  0  0  0  0  0
   38.5040   32.0810   49.5830 C   0  0  0  0  0  0  0  0  0  0  0  0
   37.5450   31.1420   49.8460 C   0  0  0  0  0  0  0  0  0  0  0  0
   37.2830   30.7520   51.0040 O   0  0  0  0  0  0  0  0  0  0  0  0
   36.9000   30.6580   48.8140 N   0  0  0  0  0  0  0  0  0  0  0  0
   37.1360   31.0340   47.5640 C   0  0  0  0  0  0  0  0  0  0  0  0
   36.4560   30.5060   46.6250 O   0  0  0  0  0  0  0  0  0  0  0  0
   39.5000   33.2060   48.0740 H   0  0  0  0  0  0  0  0  0  0  0  0
   39.0860   32.5340   50.3800 H   0  0  0  0  0  0  0  0  0  0  0  0
   35.8720   29.6540   49.0750 C   0  0  0  0  0  0  0  0  0  0  0  0
   35.3080   29.2250   47.8890 F   0  0  0  0  0  0  0  0  0  0  0  0
   34.8910   30.2490   49.8270 F   0  0  0  0  0  0  0  0  0  0  0  0
   36.4520   28.6140   49.7420 F   0  0  0  0  0  0  0  0  0  0  0  0
  1  3  1  0  0  0  0
  1 24  1  0  0  0  0
  2  1  1  0  0  0  0
  4 10  1  0  0  0  0
  4  5  1  0  0  0  0
  5 11  1  0  0  0  0
  6  5  2  0  0  0  0
  6  1  1  0  0  0  0
  7  6  1  0  0  0  0
  8  9  1  0  0  0  0
  8  7  2  0  0  0  0
  9  4  2  0  0  0  0
 12 14  1  0  0  0  0
 12  8  1  0  0  0  0
 13 12  1  0  0  0  0
 15 12  1  0  0  0  0
 15 16  1  0  0  0  0
 17 15  1  0  0  0  0
 18 15  1  0  0  0  0
 18 23  1  0  0  0  0
 19 18  2  0  0  0  0
 20 19  1  0  0  0  0
 20 21  2  0  0  0  0
 21 22  1  0  0  0  0
 21 23  1  0  0  0  0
 24 27  1  0  0  0  0
 25 24  1  0  0  0  0
 26 24  1  0  0  0  0
 27 33  1  0  0  0  0
 27 28  1  0  0  0  0
 28 29  2  0  0  0  0
 29 30  1  0  0  0  0
 29 36  1  0  0  0  0
 30 31  2  0  0  0  0
 32 37  1  0  0  0  0
 32 30  1  0  0  0  0
 33 32  1  0  0  0  0
 34 33  2  0  0  0  0
 35 28  1  0  0  0  0
 37 40  1  0  0  0  0
 37 39  1  0  0  0  0
 38 37  1  0  0  0  0
M  END
>  <minimizedAffinity>
-5.42013121

>  <minimizedRMSD>
9.388484

$$$$
