
 OpenBabel03252514043D

 34 37  0  0  1  0  0  0  0  0999 V2000
   35.2610   29.2210   48.6380 C   0  0  2  0  0  0  0  0  0  0  0  0
   34.0560   29.3200   49.4540 C   0  0  0  0  0  0  0  0  0  0  0  0
   34.4190   27.9820   49.0870 C   0  0  1  0  0  0  0  0  0  0  0  0
   35.2640   29.4580   47.5620 H   0  0  0  0  0  0  0  0  0  0  0  0
   33.1400   29.8290   49.0530 H   0  0  0  0  0  0  0  0  0  0  0  0
   34.1950   29.5980   50.5370 H   0  0  0  0  0  0  0  0  0  0  0  0
   34.9990   27.2580   49.6590 H   0  0  0  0  0  0  0  0  0  0  0  0
   36.6000   29.2550   49.3950 C   0  0  0  0  0  0  0  0  0  0  0  0
   37.2230   28.3980   49.0180 H   0  0  0  0  0  0  0  0  0  0  0  0
   36.4110   29.1080   50.4750 H   0  0  0  0  0  0  0  0  0  0  0  0
   37.6830   32.7400   49.5540 C   0  0  0  0  0  0  0  0  0  0  0  0
   38.5310   32.8500   48.4320 C   0  0  0  0  0  0  0  0  0  0  0  0
   38.7140   31.6990   47.6330 C   0  0  0  0  0  0  0  0  0  0  0  0
   38.0600   30.5470   47.9910 N   0  0  0  0  0  0  0  0  0  0  0  0
   37.2680   30.5020   49.0660 C   0  0  0  0  0  0  0  0  0  0  0  0
   37.0860   31.6060   49.8420 N   0  0  0  0  0  0  0  0  0  0  0  0
   37.4890   33.5730   50.2190 H   0  0  0  0  0  0  0  0  0  0  0  0
   39.0080   33.7940   48.2210 H   0  0  0  0  0  0  0  0  0  0  0  0
   39.3590   31.7720   46.7750 H   0  0  0  0  0  0  0  0  0  0  0  0
   33.5570   27.3480   48.0130 C   0  0  0  0  0  0  0  0  0  0  0  0
   33.8680   26.1180   47.7690 O   0  0  0  0  0  0  0  0  0  0  0  0
   32.5170   27.9510   47.3160 O   0  0  0  0  0  0  0  0  0  0  0  0
   31.2490   28.0910   47.8130 C   0  0  0  0  0  0  0  0  0  0  0  0
   30.7950   27.6210   49.1440 C   0  0  0  0  0  0  0  0  0  0  0  0
   29.5060   27.8400   49.4830 C   0  0  0  0  0  0  0  0  0  0  0  0
   28.6090   28.4940   48.6140 C   0  0  0  0  0  0  0  0  0  0  0  0
   29.6610   28.8620   47.1240 S   0  0  0  0  0  0  0  0  0  0  0  0
   31.5270   27.1330   49.7540 H   0  0  0  0  0  0  0  0  0  0  0  0
   29.1070   27.5260   50.4330 H   0  0  0  0  0  0  0  0  0  0  0  0
   27.3140   28.8190   48.7270 N   0  0  0  0  0  0  0  0  0  0  0  0
   26.1860   28.0590   48.7460 C   0  0  0  0  0  3  0  0  0  0  0  0
   25.1140   28.8790   48.8830 N   0  0  0  0  0  0  0  0  0  0  0  0
   25.5680   30.1510   48.9500 C   0  0  0  0  0  3  0  0  0  0  0  0
   26.9270   30.0850   48.8510 N   0  0  0  0  0  0  0  0  0  0  0  0
  1  4  1  6  0  0  0
  1  3  1  0  0  0  0
  1  8  1  0  0  0  0
  1  2  1  0  0  0  0
  2  6  1  0  0  0  0
  3  2  1  0  0  0  0
  3  7  1  1  0  0  0
  5  2  1  0  0  0  0
  8 10  1  0  0  0  0
  9  8  1  0  0  0  0
 11 16  1  0  0  0  0
 11 17  1  0  0  0  0
 12 11  2  0  0  0  0
 13 14  2  0  0  0  0
 13 12  1  0  0  0  0
 14 15  1  0  0  0  0
 15  8  1  0  0  0  0
 15 16  2  0  0  0  0
 18 12  1  0  0  0  0
 19 13  1  0  0  0  0
 20  3  1  0  0  0  0
 21 20  2  0  0  0  0
 22 23  1  0  0  0  0
 22 20  1  0  0  0  0
 23 24  2  0  0  0  0
 24 25  1  0  0  0  0
 24 28  1  0  0  0  0
 25 29  1  0  0  0  0
 26 30  1  0  0  0  0
 26 25  2  0  0  0  0
 27 23  1  0  0  0  0
 27 26  1  0  0  0  0
 30 31  1  0  0  0  0
 30 34  1  0  0  0  0
 31 32  2  0  0  0  0
 32 33  1  0  0  0  0
 34 33  2  0  0  0  0
M  END
>  <minimizedAffinity>
-6.16672421

>  <minimizedRMSD>
1.50832808

$$$$
