
 OpenBabel03252514043D

 34 37  0  0  1  0  0  0  0  0999 V2000
   35.2610   29.2210   48.6370 C   0  0  2  0  0  0  0  0  0  0  0  0
   34.0560   29.3210   49.4540 C   0  0  0  0  0  0  0  0  0  0  0  0
   34.4180   27.9820   49.0870 C   0  0  1  0  0  0  0  0  0  0  0  0
   35.2640   29.4570   47.5620 H   0  0  0  0  0  0  0  0  0  0  0  0
   33.1390   29.8300   49.0520 H   0  0  0  0  0  0  0  0  0  0  0  0
   34.1940   29.5980   50.5370 H   0  0  0  0  0  0  0  0  0  0  0  0
   34.9980   27.2590   49.6590 H   0  0  0  0  0  0  0  0  0  0  0  0
   36.6000   29.2550   49.3950 C   0  0  0  0  0  0  0  0  0  0  0  0
   37.2230   28.3980   49.0180 H   0  0  0  0  0  0  0  0  0  0  0  0
   36.4100   29.1080   50.4750 H   0  0  0  0  0  0  0  0  0  0  0  0
   37.6820   32.7400   49.5540 C   0  0  0  0  0  0  0  0  0  0  0  0
   38.5310   32.8500   48.4330 C   0  0  0  0  0  0  0  0  0  0  0  0
   38.7150   31.6990   47.6340 C   0  0  0  0  0  0  0  0  0  0  0  0
   38.0600   30.5470   47.9920 N   0  0  0  0  0  0  0  0  0  0  0  0
   37.2680   30.5020   49.0660 C   0  0  0  0  0  0  0  0  0  0  0  0
   37.0850   31.6060   49.8420 N   0  0  0  0  0  0  0  0  0  0  0  0
   37.4880   33.5730   50.2190 H   0  0  0  0  0  0  0  0  0  0  0  0
   39.0080   33.7940   48.2220 H   0  0  0  0  0  0  0  0  0  0  0  0
   39.3600   31.7720   46.7760 H   0  0  0  0  0  0  0  0  0  0  0  0
   33.5560   27.3480   48.0120 C   0  0  0  0  0  0  0  0  0  0  0  0
   33.8680   26.1180   47.7690 O   0  0  0  0  0  0  0  0  0  0  0  0
   32.5160   27.9510   47.3160 O   0  0  0  0  0  0  0  0  0  0  0  0
   31.2480   28.0910   47.8120 C   0  0  0  0  0  0  0  0  0  0  0  0
   30.7940   27.6210   49.1440 C   0  0  0  0  0  0  0  0  0  0  0  0
   29.5060   27.8400   49.4830 C   0  0  0  0  0  0  0  0  0  0  0  0
   28.6080   28.4940   48.6140 C   0  0  0  0  0  0  0  0  0  0  0  0
   29.6610   28.8620   47.1240 S   0  0  0  0  0  0  0  0  0  0  0  0
   31.5260   27.1320   49.7540 H   0  0  0  0  0  0  0  0  0  0  0  0
   29.1070   27.5250   50.4330 H   0  0  0  0  0  0  0  0  0  0  0  0
   27.3140   28.8190   48.7280 N   0  0  0  0  0  0  0  0  0  0  0  0
   26.1850   28.0590   48.7470 C   0  0  0  0  0  3  0  0  0  0  0  0
   25.1140   28.8790   48.8840 N   0  0  0  0  0  0  0  0  0  0  0  0
   25.5670   30.1510   48.9500 C   0  0  0  0  0  3  0  0  0  0  0  0
   26.9260   30.0840   48.8510 N   0  0  0  0  0  0  0  0  0  0  0  0
  1  4  1  6  0  0  0
  1  3  1  0  0  0  0
  1  8  1  0  0  0  0
  1  2  1  0  0  0  0
  2  6  1  0  0  0  0
  3  2  1  0  0  0  0
  3  7  1  1  0  0  0
  5  2  1  0  0  0  0
  8 10  1  0  0  0  0
  9  8  1  0  0  0  0
 11 16  1  0  0  0  0
 11 17  1  0  0  0  0
 12 11  2  0  0  0  0
 13 14  2  0  0  0  0
 13 12  1  0  0  0  0
 14 15  1  0  0  0  0
 15  8  1  0  0  0  0
 15 16  2  0  0  0  0
 18 12  1  0  0  0  0
 19 13  1  0  0  0  0
 20  3  1  0  0  0  0
 21 20  2  0  0  0  0
 22 23  1  0  0  0  0
 22 20  1  0  0  0  0
 23 24  2  0  0  0  0
 24 25  1  0  0  0  0
 24 28  1  0  0  0  0
 25 29  1  0  0  0  0
 26 30  1  0  0  0  0
 26 25  2  0  0  0  0
 27 23  1  0  0  0  0
 27 26  1  0  0  0  0
 30 31  1  0  0  0  0
 30 34  1  0  0  0  0
 31 32  2  0  0  0  0
 32 33  1  0  0  0  0
 34 33  2  0  0  0  0
M  END
>  <minimizedAffinity>
-6.16670513

>  <minimizedRMSD>
1.50626218

$$$$
