
 OpenBabel03252513053D

 30 32  0  0  0  0  0  0  0  0999 V2000
   37.4790   31.2290   46.8890 C   0  0  0  0  0  0  0  0  0  0  0  0
   36.6130   31.8780   47.2120 H   0  0  0  0  0  0  0  0  0  0  0  0
   36.9930   30.2920   46.5280 H   0  0  0  0  0  0  0  0  0  0  0  0
   38.1020   31.8830   45.8070 N   0  0  0  0  0  0  0  0  0  0  0  0
   39.2070   32.5880   45.7620 C   0  0  0  0  0  0  0  0  0  0  0  0
   39.7240   33.1850   44.6480 C   0  0  0  0  0  0  0  0  0  0  0  0
   39.0730   33.0700   43.4560 C   0  0  0  0  0  0  0  0  0  0  0  0
   39.4870   33.5890   42.4040 O   0  0  0  0  0  0  0  0  0  0  0  0
   37.9470   32.3670   43.4490 N   0  0  0  0  0  0  0  0  0  0  0  0
   37.5060   31.8120   44.5810 C   0  0  0  0  0  0  0  0  0  0  0  0
   36.4250   31.1670   44.4540 O   0  0  0  0  0  0  0  0  0  0  0  0
   39.7500   32.6930   46.7130 H   0  0  0  0  0  0  0  0  0  0  0  0
   40.6570   33.7620   44.6820 H   0  0  0  0  0  0  0  0  0  0  0  0
   37.2660   32.2540   42.1760 C   0  0  0  0  0  0  0  0  0  0  0  0
   38.0980   31.5520   41.1290 C   0  0  0  0  0  0  0  0  0  0  0  0
   37.3840   31.9170   39.8290 C   0  0  0  0  0  0  0  0  0  0  0  0
   36.3450   32.9560   40.1830 C   0  0  0  0  0  0  0  0  0  0  0  0
   36.9500   33.5240   41.4840 C   0  0  0  0  0  0  0  0  0  0  0  0
   38.2680   30.9000   48.0840 C   0  0  0  0  0  0  0  0  0  0  0  0
   38.8740   31.7600   48.4160 H   0  0  0  0  0  0  0  0  0  0  0  0
   39.0200   30.1060   47.7980 H   0  0  0  0  0  0  0  0  0  0  0  0
   35.6650   29.1370   50.1590 C   0  0  0  0  0  0  0  0  0  0  0  0
   36.3470   29.6200   49.0190 C   0  0  0  0  0  0  0  0  0  0  0  0
   37.4870   30.3520   49.2050 C   0  0  0  0  0  0  0  0  0  0  0  0
   37.9310   30.5940   50.4830 N   0  0  0  0  0  0  0  0  0  0  0  0
   37.2780   30.1330   51.5390 C   0  0  0  0  0  0  0  0  0  0  0  0
   36.1530   29.4080   51.3940 N   0  0  0  0  0  0  0  0  0  0  0  0
   34.7580   28.5540   50.0360 H   0  0  0  0  0  0  0  0  0  0  0  0
   35.9740   29.4130   48.0370 H   0  0  0  0  0  0  0  0  0  0  0  0
   37.7080   30.3770   52.5010 H   0  0  0  0  0  0  0  0  0  0  0  0
  1  2  1  0  0  0  0
  1 19  1  0  0  0  0
  3  1  1  0  0  0  0
  4  1  1  0  0  0  0
  5  4  1  0  0  0  0
  5 12  1  0  0  0  0
  6 13  1  0  0  0  0
  6  5  2  0  0  0  0
  7  6  1  0  0  0  0
  8  7  2  0  0  0  0
  9  7  1  0  0  0  0
  9 10  1  0  0  0  0
 10  4  1  0  0  0  0
 11 10  2  0  0  0  0
 14  9  1  0  0  0  0
 15 14  1  0  0  0  0
 16 17  1  0  0  0  0
 16 15  1  0  0  0  0
 17 18  1  0  0  0  0
 18 14  1  0  0  0  0
 19 20  1  0  0  0  0
 19 24  1  0  0  0  0
 21 19  1  0  0  0  0
 22 27  1  0  0  0  0
 23 24  1  0  0  0  0
 23 22  2  0  0  0  0
 24 25  2  0  0  0  0
 25 26  1  0  0  0  0
 26 30  1  0  0  0  0
 27 26  2  0  0  0  0
 28 22  1  0  0  0  0
 29 23  1  0  0  0  0
M  END
>  <minimizedAffinity>
-5.14128923

>  <minimizedRMSD>
1.3578105

$$$$
