
 OpenBabel03252514043D

 39 43  0  0  1  0  0  0  0  0999 V2000
   33.8240   27.1110   47.7550 C   0  0  0  0  0  0  0  0  0  0  0  0
   34.0840   25.8530   47.6560 O   0  0  0  0  0  0  0  0  0  0  0  0
   35.3040   29.1010   48.5600 C   0  0  2  0  0  0  0  0  0  0  0  0
   34.0160   29.0900   49.2530 C   0  0  0  0  0  0  0  0  0  0  0  0
   34.5180   27.7930   48.9160 C   0  0  1  0  0  0  0  0  0  0  0  0
   35.4730   29.2080   47.4930 H   0  0  0  0  0  0  0  0  0  0  0  0
   34.0030   29.4640   50.3100 H   0  0  0  0  0  0  0  0  0  0  0  0
   33.1500   29.5400   48.6920 H   0  0  0  0  0  0  0  0  0  0  0  0
   35.0830   27.1340   49.5740 H   0  0  0  0  0  0  0  0  0  0  0  0
   36.5500   29.2240   49.4520 C   0  0  0  0  0  0  0  0  0  0  0  0
   37.2080   28.3710   49.1600 H   0  0  0  0  0  0  0  0  0  0  0  0
   36.2710   29.1060   50.5010 H   0  0  0  0  0  0  0  0  0  0  0  0
   37.5950   32.7230   49.5710 C   0  0  0  0  0  0  0  0  0  0  0  0
   38.4610   32.8210   48.4660 C   0  0  0  0  0  0  0  0  0  0  0  0
   38.6740   31.6630   47.6890 C   0  0  0  0  0  0  0  0  0  0  0  0
   38.0260   30.5130   48.0560 N   0  0  0  0  0  0  0  0  0  0  0  0
   37.2130   30.4740   49.1160 C   0  0  0  0  0  0  0  0  0  0  0  0
   36.9990   31.5850   49.8740 N   0  0  0  0  0  0  0  0  0  0  0  0
   37.5000   33.6680   50.1000 H   0  0  0  0  0  0  0  0  0  0  0  0
   39.0160   33.6530   48.0860 H   0  0  0  0  0  0  0  0  0  0  0  0
   39.3030   31.6050   46.8320 H   0  0  0  0  0  0  0  0  0  0  0  0
   32.9710   27.6950   46.8430 O   0  0  0  0  0  0  0  0  0  0  0  0
   31.7040   28.1120   47.1220 C   0  0  0  0  0  0  0  0  0  0  0  0
   30.8780   27.5930   48.2200 C   0  0  0  0  0  0  0  0  0  0  0  0
   29.6290   28.0730   48.4230 C   0  0  0  0  0  0  0  0  0  0  0  0
   29.1210   29.0820   47.5670 C   0  0  0  0  0  0  0  0  0  0  0  0
   30.5300   29.3780   46.3690 S   0  0  0  0  0  0  0  0  0  0  0  0
   31.3210   26.8240   48.8360 H   0  0  0  0  0  0  0  0  0  0  0  0
   29.0000   27.7140   49.2180 H   0  0  0  0  0  0  0  0  0  0  0  0
   27.8260   29.6810   47.6630 N   0  0  0  0  0  0  0  0  0  0  0  0
   27.4370   30.6680   46.8640 C   0  0  0  0  0  3  0  0  0  0  0  0
   26.1840   30.9540   47.2580 N   0  0  0  0  0  0  0  0  0  0  0  0
   25.8320   30.1490   48.2760 C   0  0  0  0  0  0  0  0  0  0  0  0
   24.6410   30.0740   49.0070 C   0  0  0  0  0  0  0  0  0  0  0  0
   23.7950   30.7360   48.7920 H   0  0  0  0  0  0  0  0  0  0  0  0
   24.5790   29.1380   49.9990 N   0  0  0  0  0  0  0  0  0  0  0  0
   25.6270   28.3310   50.2510 C   0  0  0  0  0  3  0  0  0  0  0  0
   26.7720   28.4120   49.5410 N   0  0  0  0  0  0  0  0  0  0  0  0
   26.9030   29.3050   48.5540 C   0  0  0  0  0  0  0  0  0  0  0  0
  1  5  1  0  0  0  0
  2  1  2  0  0  0  0
  3  6  1  6  0  0  0
  3  5  1  0  0  0  0
  3  4  1  0  0  0  0
  3 10  1  0  0  0  0
  4  7  1  0  0  0  0
  5  4  1  0  0  0  0
  5  9  1  1  0  0  0
  8  4  1  0  0  0  0
 10 12  1  0  0  0  0
 11 10  1  0  0  0  0
 13 18  1  0  0  0  0
 13 19  1  0  0  0  0
 14 13  2  0  0  0  0
 15 16  2  0  0  0  0
 15 14  1  0  0  0  0
 16 17  1  0  0  0  0
 17 10  1  0  0  0  0
 17 18  2  0  0  0  0
 20 14  1  0  0  0  0
 21 15  1  0  0  0  0
 22 23  1  0  0  0  0
 22  1  1  0  0  0  0
 23 24  2  0  0  0  0
 24 25  1  0  0  0  0
 24 28  1  0  0  0  0
 25 29  1  0  0  0  0
 26 30  1  0  0  0  0
 26 25  2  0  0  0  0
 27 23  1  0  0  0  0
 27 26  1  0  0  0  0
 30 39  1  0  0  0  0
 31 32  2  0  0  0  0
 31 30  1  0  0  0  0
 32 33  1  0  0  0  0
 33 39  2  0  0  0  0
 33 34  1  0  0  0  0
 34 36  2  0  0  0  0
 35 34  1  0  0  0  0
 36 37  1  0  0  0  0
 38 37  2  0  0  0  0
 39 38  1  0  0  0  0
M  END
>  <minimizedAffinity>
-6.16448689

>  <minimizedRMSD>
2.9620738

$$$$
