
 OpenBabel03252511463D

 42 47  0  0  1  0  0  0  0  0999 V2000
   34.7620   30.2160   47.3700 C   0  0  0  0  0  0  0  0  0  0  0  0
   35.8710   30.2510   48.1960 C   0  0  0  0  0  0  0  0  0  0  0  0
   35.9640   29.1500   49.1080 C   0  0  0  0  0  0  0  0  0  0  0  0
   35.0050   28.1800   49.1110 N   0  0  0  0  0  0  0  0  0  0  0  0
   33.9690   28.2270   48.2780 C   0  0  0  0  0  0  0  0  0  0  0  0
   33.8410   29.2380   47.4080 N   0  0  0  0  0  0  0  0  0  0  0  0
   34.7270   31.0620   46.6970 H   0  0  0  0  0  0  0  0  0  0  0  0
   36.7650   29.0110   49.8280 H   0  0  0  0  0  0  0  0  0  0  0  0
   36.9410   31.2160   48.2850 C   0  0  0  0  0  0  0  0  0  0  0  0
   36.9140   31.8920   49.4840 C   0  0  0  0  0  0  0  0  0  0  0  0
   37.8590   32.8740   49.7860 C   0  0  0  0  0  0  0  0  0  0  0  0
   38.8400   33.1740   48.8630 C   0  0  0  0  0  0  0  0  0  0  0  0
   38.8560   32.4880   47.6610 C   0  0  0  0  0  0  0  0  0  0  0  0
   39.8070   32.7210   46.6640 C   0  0  0  0  0  0  0  0  0  0  0  0
   39.7660   32.0020   45.4910 C   0  0  0  0  0  0  0  0  0  0  0  0
   38.8090   31.0470   45.2550 C   0  0  0  0  0  0  0  0  0  0  0  0
   37.8630   30.8080   46.2340 C   0  0  0  0  0  0  0  0  0  0  0  0
   37.9200   31.5290   47.3870 C   0  0  0  0  0  0  0  0  0  0  0  0
   36.2040   31.7550   50.2910 H   0  0  0  0  0  0  0  0  0  0  0  0
   37.8710   33.4240   50.7130 H   0  0  0  0  0  0  0  0  0  0  0  0
   39.6020   33.9270   49.0360 H   0  0  0  0  0  0  0  0  0  0  0  0
   40.5490   33.4860   46.8900 H   0  0  0  0  0  0  0  0  0  0  0  0
   40.5560   32.2690   44.7910 H   0  0  0  0  0  0  0  0  0  0  0  0
   38.8180   30.5080   44.3160 H   0  0  0  0  0  0  0  0  0  0  0  0
   37.1030   30.0380   46.0260 H   0  0  0  0  0  0  0  0  0  0  0  0
   32.9470   27.1400   48.3380 C   0  0  1  0  0  0  0  0  0  0  0  0
   31.5180   27.4920   48.5520 C   0  0  0  0  0  0  0  0  0  0  0  0
   31.9720   26.9810   47.2070 C   0  0  2  0  0  0  0  0  0  0  0  0
   33.2820   26.2120   48.8460 H   0  0  0  0  0  0  0  0  0  0  0  0
   31.1940   28.5540   48.6030 H   0  0  0  0  0  0  0  0  0  0  0  0
   30.8680   26.8370   49.1860 H   0  0  0  0  0  0  0  0  0  0  0  0
   32.0340   27.7340   46.3850 H   0  0  0  0  0  0  0  0  0  0  0  0
   31.6780   25.6110   46.8370 N   0  0  0  0  0  0  0  0  0  0  0  0
   32.5250   24.5610   47.0390 C   0  0  0  0  0  0  0  0  0  0  0  0
   31.9480   23.4160   46.5800 N   0  0  0  0  0  0  0  0  0  0  0  0
   30.7350   23.7110   46.0810 C   0  0  0  0  0  0  0  0  0  0  0  0
   29.7080   23.0020   45.4940 C   0  0  0  0  0  0  0  0  0  0  0  0
   29.8030   21.9350   45.3530 H   0  0  0  0  0  0  0  0  0  0  0  0
   28.5660   23.6130   45.0820 N   0  0  0  0  0  0  0  0  0  0  0  0
   28.4510   24.9590   45.2620 C   0  0  0  0  0  0  0  0  0  0  0  0
   29.4570   25.6410   45.8360 N   0  0  0  0  0  0  0  0  0  0  0  0
   30.5910   25.0750   46.2520 C   0  0  0  0  0  0  0  0  0  0  0  0
  1  6  2  0  0  0  0
  1  2  1  0  0  0  0
  2  9  1  0  0  0  0
  2  3  2  0  0  0  0
  3  4  1  0  0  0  0
  3  8  1  0  0  0  0
  5 26  1  0  0  0  0
  5  4  2  0  0  0  0
  6  5  1  0  0  0  0
  7  1  1  0  0  0  0
  9 10  1  0  0  0  0
 10 11  2  0  0  0  0
 10 19  1  0  0  0  0
 11 20  1  0  0  0  0
 12 21  1  0  0  0  0
 12 11  1  0  0  0  0
 13 12  2  0  0  0  0
 14 22  1  0  0  0  0
 14 13  1  0  0  0  0
 15 14  2  0  0  0  0
 16 15  1  0  0  0  0
 16 17  2  0  0  0  0
 17 18  1  0  0  0  0
 18 13  1  0  0  0  0
 18  9  2  0  0  0  0
 23 15  1  0  0  0  0
 24 16  1  0  0  0  0
 25 17  1  0  0  0  0
 26 27  1  0  0  0  0
 26 29  1  1  0  0  0
 27 30  1  0  0  0  0
 27 31  1  0  0  0  0
 28 32  1  6  0  0  0
 28 26  1  0  0  0  0
 28 27  1  0  0  0  0
 33 34  1  0  0  0  0
 33 28  1  0  0  0  0
 35 34  2  0  0  0  0
 36 42  1  0  0  0  0
 36 35  1  0  0  0  0
 37 36  2  0  0  0  0
 38 37  1  0  0  0  0
 39 40  2  0  0  0  0
 39 37  1  0  0  0  0
 40 41  1  0  0  0  0
 41 42  2  0  0  0  0
 42 33  1  0  0  0  0
M  END
>  <minimizedAffinity>
-7.10131264

>  <minimizedRMSD>
2.22954679

$$$$
