
 OpenBabel03252514013D

 25 27  0  0  1  0  0  0  0  0999 V2000
   35.2180   29.4780   49.0520 C   0  0  2  0  0  0  0  0  0  0  0  0
   34.0710   29.1910   49.9250 C   0  0  0  0  0  0  0  0  0  0  0  0
   34.5510   28.0890   49.1000 C   0  0  1  0  0  0  0  0  0  0  0  0
   35.1630   29.9710   48.0760 H   0  0  0  0  0  0  0  0  0  0  0  0
   34.2550   29.1260   51.0210 H   0  0  0  0  0  0  0  0  0  0  0  0
   33.1100   29.7070   49.6570 H   0  0  0  0  0  0  0  0  0  0  0  0
   35.2830   27.3030   49.3490 H   0  0  0  0  0  0  0  0  0  0  0  0
   36.6120   29.4570   49.6810 C   0  0  0  0  0  0  0  0  0  0  0  0
   36.4740   29.5460   50.7750 H   0  0  0  0  0  0  0  0  0  0  0  0
   37.1480   28.5280   49.4450 H   0  0  0  0  0  0  0  0  0  0  0  0
   37.9260   32.8690   49.4370 C   0  0  0  0  0  0  0  0  0  0  0  0
   38.6990   32.8220   48.2660 C   0  0  0  0  0  0  0  0  0  0  0  0
   38.7610   31.6060   47.5660 C   0  0  0  0  0  0  0  0  0  0  0  0
   38.0630   30.5380   48.0690 N   0  0  0  0  0  0  0  0  0  0  0  0
   37.3410   30.6270   49.1860 C   0  0  0  0  0  0  0  0  0  0  0  0
   37.2800   31.7980   49.8620 N   0  0  0  0  0  0  0  0  0  0  0  0
   37.8760   33.8030   49.9780 H   0  0  0  0  0  0  0  0  0  0  0  0
   39.2400   33.6520   47.8750 H   0  0  0  0  0  0  0  0  0  0  0  0
   39.3410   31.5330   46.6670 H   0  0  0  0  0  0  0  0  0  0  0  0
   33.6580   27.7250   47.9460 C   0  0  0  0  0  0  0  0  0  0  0  0
   34.0720   26.7160   47.2490 O   0  0  0  0  0  0  0  0  0  0  0  0
   32.4740   28.3490   47.5900 O   0  0  0  0  0  0  0  0  0  0  0  0
   31.2350   27.7670   47.8540 C   0  0  0  0  0  3  0  0  0  0  0  0
   31.0970   26.4350   48.4680 C   0  0  0  0  0  2  0  0  0  0  0  0
   30.6330   27.7150   49.2000 C   0  0  0  0  0  2  0  0  0  0  0  0
  1  4  1  6  0  0  0
  1  3  1  0  0  0  0
  1  8  1  0  0  0  0
  1  2  1  0  0  0  0
  2  5  1  0  0  0  0
  3  7  1  1  0  0  0
  3  2  1  0  0  0  0
  6  2  1  0  0  0  0
  8  9  1  0  0  0  0
 10  8  1  0  0  0  0
 11 16  1  0  0  0  0
 11 17  1  0  0  0  0
 12 11  2  0  0  0  0
 13 14  2  0  0  0  0
 13 12  1  0  0  0  0
 14 15  1  0  0  0  0
 15  8  1  0  0  0  0
 15 16  2  0  0  0  0
 18 12  1  0  0  0  0
 19 13  1  0  0  0  0
 20  3  1  0  0  0  0
 21 20  2  0  0  0  0
 22 23  1  0  0  0  0
 22 20  1  0  0  0  0
 23 24  1  0  0  0  0
 23 25  1  0  0  0  0
 24 25  1  0  0  0  0
M  END
>  <minimizedAffinity>
-4.73577356

>  <minimizedRMSD>
1.00081241

$$$$
