
 OpenBabel03252511073D

 22 24  0  0  0  0  0  0  0  0999 V2000
   37.3120   29.3260   50.6320 C   0  0  0  0  0  0  0  0  0  0  0  0
   37.9180   30.6000   50.5520 C   0  0  0  0  0  0  0  0  0  0  0  0
   37.4810   31.4580   49.5280 C   0  0  0  0  0  0  0  0  0  0  0  0
   36.5100   31.0190   48.6810 N   0  0  0  0  0  0  0  0  0  0  0  0
   35.9630   29.7840   48.8030 C   0  0  0  0  0  0  0  0  0  0  0  0
   36.3570   28.9490   49.7630 N   0  0  0  0  0  0  0  0  0  0  0  0
   37.6340   28.6570   51.4090 H   0  0  0  0  0  0  0  0  0  0  0  0
   38.6870   30.9360   51.2320 H   0  0  0  0  0  0  0  0  0  0  0  0
   34.9600   29.5430   47.7990 N   0  0  0  0  0  0  0  0  0  0  0  0
   35.1650   30.0300   46.5610 C   0  0  0  0  0  0  0  0  0  0  0  0
   34.0940   29.6720   45.8250 N   0  0  0  0  0  0  0  0  0  0  0  0
   33.2420   28.9730   46.5970 C   0  0  0  0  0  0  0  0  0  0  0  0
   32.0010   28.3480   46.4250 C   0  0  0  0  0  0  0  0  0  0  0  0
   31.5410   28.3930   45.4520 H   0  0  0  0  0  0  0  0  0  0  0  0
   31.4660   27.7310   47.4950 N   0  0  0  0  0  0  0  0  0  0  0  0
   32.0470   27.6800   48.7070 C   0  0  0  0  0  0  0  0  0  0  0  0
   33.2540   28.2650   48.9460 N   0  0  0  0  0  0  0  0  0  0  0  0
   33.7970   28.8890   47.8670 C   0  0  0  0  0  0  0  0  0  0  0  0
   38.0560   32.8320   49.3520 C   0  0  0  0  0  0  0  0  0  0  0  0
   38.3310   33.1060   48.0130 F   0  0  0  0  0  0  0  0  0  0  0  0
   37.1470   33.8030   49.7580 F   0  0  0  0  0  0  0  0  0  0  0  0
   39.2590   32.9120   50.0110 F   0  0  0  0  0  0  0  0  0  0  0  0
  1  7  1  0  0  0  0
  2  1  1  0  0  0  0
  2  8  1  0  0  0  0
  3  2  2  0  0  0  0
  4  5  2  0  0  0  0
  4  3  1  0  0  0  0
  5  6  1  0  0  0  0
  6  1  2  0  0  0  0
  9 18  1  0  0  0  0
  9  5  1  0  0  0  0
 10  9  1  0  0  0  0
 11 10  2  0  0  0  0
 11 12  1  0  0  0  0
 12 18  1  0  0  0  0
 13 12  2  0  0  0  0
 13 15  1  0  0  0  0
 14 13  1  0  0  0  0
 15 16  2  0  0  0  0
 16 17  1  0  0  0  0
 18 17  2  0  0  0  0
 19  3  1  0  0  0  0
 19 21  1  0  0  0  0
 19 22  1  0  0  0  0
 20 19  1  0  0  0  0
M  END
>  <minimizedAffinity>
-6.10558081

>  <minimizedRMSD>
1.9105767

$$$$
