
 OpenBabel03252512373D

 31 33  0  0  1  0  0  0  0  0999 V2000
   39.3440   31.4110   46.6920 C   0  0  2  0  0  0  0  0  0  0  0  0
   39.8340   32.6440   46.1220 C   0  0  0  0  0  0  0  0  0  0  0  0
   40.7960   32.4360   44.9970 C   0  0  0  0  0  0  0  0  0  0  0  0
   40.2890   31.4880   43.9720 C   0  0  0  0  0  0  0  0  0  0  0  0
   39.6500   30.2800   44.5260 C   0  0  0  0  0  0  0  0  0  0  0  0
   38.6310   30.6030   45.6490 C   0  0  2  0  0  0  0  0  0  0  0  0
   40.2000   30.7490   47.0030 H   0  0  0  0  0  0  0  0  0  0  0  0
   40.6100   32.9160   46.9400 H   0  0  0  0  0  0  0  0  0  0  0  0
   39.3570   33.6200   46.1980 H   0  0  0  0  0  0  0  0  0  0  0  0
   41.7910   32.0340   45.2890 H   0  0  0  0  0  0  0  0  0  0  0  0
   41.0440   33.3990   44.4790 H   0  0  0  0  0  0  0  0  0  0  0  0
   41.1290   31.1600   43.3270 H   0  0  0  0  0  0  0  0  0  0  0  0
   39.5940   32.0200   43.2640 H   0  0  0  0  0  0  0  0  0  0  0  0
   40.3540   29.5100   44.8700 H   0  0  0  0  0  0  0  0  0  0  0  0
   39.0240   29.7960   43.7250 H   0  0  0  0  0  0  0  0  0  0  0  0
   38.3090   29.5860   45.9710 H   0  0  0  0  0  0  0  0  0  0  0  0
   38.3130   32.8190   48.5610 C   0  0  0  0  0  0  0  0  0  0  0  0
   38.4900   31.5840   47.8620 C   0  0  0  0  0  0  0  0  0  0  0  0
   37.8140   30.4860   48.2940 C   0  0  0  0  0  0  0  0  0  0  0  0
   36.9900   30.6210   49.3860 N   0  0  0  0  0  0  0  0  0  0  0  0
   36.8400   31.8230   50.0390 C   0  0  0  0  0  0  0  0  0  0  0  0
   37.5160   32.9300   49.6100 N   0  0  0  0  0  0  0  0  0  0  0  0
   38.8790   33.6600   48.1690 H   0  0  0  0  0  0  0  0  0  0  0  0
   37.7930   29.4770   47.9370 H   0  0  0  0  0  0  0  0  0  0  0  0
   36.1870   31.8840   50.8870 H   0  0  0  0  0  0  0  0  0  0  0  0
   37.5550   31.3720   44.9920 C   0  0  0  0  0  0  0  0  0  0  0  0
   37.6030   32.5640   44.5430 O   0  0  0  0  0  0  0  0  0  0  0  0
   36.3770   30.6900   44.8730 O   0  0  0  0  0  0  0  0  0  0  0  0
   35.8410   30.3180   43.5900 C   0  0  0  0  0  0  0  0  0  0  0  0
   35.8690   28.8940   43.1850 C   0  0  0  0  0  0  0  0  0  0  0  0
   36.7040   29.9770   42.4600 C   0  0  0  0  0  0  0  0  0  0  0  0
  1  7  1  1  0  0  0
  1 18  1  0  0  0  0
  2  9  1  0  0  0  0
  2  1  1  0  0  0  0
  2  8  1  0  0  0  0
  3 10  1  0  0  0  0
  3  2  1  0  0  0  0
  4  5  1  0  0  0  0
  4  3  1  0  0  0  0
  5 14  1  0  0  0  0
  5  6  1  0  0  0  0
  6 16  1  1  0  0  0
  6  1  1  0  0  0  0
 11  3  1  0  0  0  0
 12  4  1  0  0  0  0
 13  4  1  0  0  0  0
 15  5  1  0  0  0  0
 17 22  1  0  0  0  0
 18 19  1  0  0  0  0
 18 17  2  0  0  0  0
 19 20  2  0  0  0  0
 20 21  1  0  0  0  0
 21 25  1  0  0  0  0
 22 21  2  0  0  0  0
 23 17  1  0  0  0  0
 24 19  1  0  0  0  0
 26  6  1  0  0  0  0
 27 26  2  0  0  0  0
 28 26  1  0  0  0  0
 29 28  1  0  0  0  0
 30 29  1  0  0  0  0
 31 30  1  0  0  0  0
 31 29  1  0  0  0  0
M  END
>  <minimizedAffinity>
-5.04515886

>  <minimizedRMSD>
1.81688559

$$$$
