
 OpenBabel03252513013D

 27 29  0  0  0  0  0  0  0  0999 V2000
   38.1500   30.6600   47.2740 C   0  0  0  0  0  0  0  0  0  0  0  0
   38.7480   29.8720   47.7440 H   0  0  0  0  0  0  0  0  0  0  0  0
   37.3200   30.1810   46.7320 H   0  0  0  0  0  0  0  0  0  0  0  0
   38.9970   31.4030   46.3040 C   0  0  0  0  0  0  0  0  0  0  0  0
   39.5210   32.6300   46.5260 N   0  0  0  0  0  0  0  0  0  0  0  0
   40.2870   33.2730   45.6500 C   0  0  0  0  0  0  0  0  0  0  0  0
   40.6020   32.7290   44.4450 N   0  0  0  0  0  0  0  0  0  0  0  0
   40.1150   31.5080   44.1490 C   0  0  0  0  0  0  0  0  0  0  0  0
   40.4170   30.9330   42.9240 C   0  0  0  0  0  0  0  0  0  0  0  0
   39.9430   29.6970   42.5740 C   0  0  0  0  0  0  0  0  0  0  0  0
   40.1620   29.2240   41.6250 H   0  0  0  0  0  0  0  0  0  0  0  0
   39.1570   29.0420   43.4770 C   0  0  0  0  0  0  0  0  0  0  0  0
   38.7790   28.0620   43.2100 H   0  0  0  0  0  0  0  0  0  0  0  0
   38.8630   29.6180   44.6900 C   0  0  0  0  0  0  0  0  0  0  0  0
   39.3210   30.8600   45.0780 C   0  0  0  0  0  0  0  0  0  0  0  0
   37.5860   31.5740   48.3440 C   0  0  0  0  0  0  0  0  0  0  0  0
   36.7370   32.1160   47.8320 H   0  0  0  0  0  0  0  0  0  0  0  0
   38.2600   32.3520   48.6830 H   0  0  0  0  0  0  0  0  0  0  0  0
   37.0930   29.8330   51.6800 C   0  0  0  0  0  0  0  0  0  0  0  0
   37.7290   30.5950   50.6760 C   0  0  0  0  0  0  0  0  0  0  0  0
   37.0510   30.7980   49.4890 C   0  0  0  0  0  0  0  0  0  0  0  0
   35.8130   30.2530   49.3570 N   0  0  0  0  0  0  0  0  0  0  0  0
   35.2150   29.5340   50.3080 C   0  0  0  0  0  0  0  0  0  0  0  0
   35.8640   29.3260   51.4740 N   0  0  0  0  0  0  0  0  0  0  0  0
   37.5840   29.6530   52.6100 H   0  0  0  0  0  0  0  0  0  0  0  0
   38.6970   31.0100   50.8020 H   0  0  0  0  0  0  0  0  0  0  0  0
   34.2300   29.1600   50.0680 H   0  0  0  0  0  0  0  0  0  0  0  0
  1  2  1  0  0  0  0
  1 16  1  0  0  0  0
  3  1  1  0  0  0  0
  4  5  1  0  0  0  0
  4  1  1  0  0  0  0
  6  5  2  0  0  0  0
  7  6  1  0  0  0  0
  8  7  2  0  0  0  0
  8 15  1  0  0  0  0
  9  8  1  0  0  0  0
 10  9  2  0  0  0  0
 10 12  1  0  0  0  0
 11 10  1  0  0  0  0
 12 14  2  0  0  0  0
 13 12  1  0  0  0  0
 14 15  1  0  0  0  0
 15  4  2  0  0  0  0
 16 18  1  0  0  0  0
 16 21  1  0  0  0  0
 17 16  1  0  0  0  0
 19 25  1  0  0  0  0
 20 26  1  0  0  0  0
 20 19  2  0  0  0  0
 21 20  1  0  0  0  0
 22 21  2  0  0  0  0
 22 23  1  0  0  0  0
 23 24  2  0  0  0  0
 24 19  1  0  0  0  0
 27 23  1  0  0  0  0
M  END
>  <minimizedAffinity>
-5.64514399

>  <minimizedRMSD>
2.07496524

$$$$
