
 OpenBabel03252514013D

 25 27  0  0  1  0  0  0  0  0999 V2000
   35.3630   29.4390   49.0290 C   0  0  2  0  0  0  0  0  0  0  0  0
   34.2340   29.4170   49.9690 C   0  0  0  0  0  0  0  0  0  0  0  0
   34.5880   28.1460   49.3500 C   0  0  1  0  0  0  0  0  0  0  0  0
   35.3090   29.7500   47.9800 H   0  0  0  0  0  0  0  0  0  0  0  0
   34.4560   29.5360   51.0530 H   0  0  0  0  0  0  0  0  0  0  0  0
   33.3070   29.9570   49.6340 H   0  0  0  0  0  0  0  0  0  0  0  0
   35.2640   27.3580   49.7210 H   0  0  0  0  0  0  0  0  0  0  0  0
   36.7750   29.4120   49.6160 C   0  0  0  0  0  0  0  0  0  0  0  0
   36.6710   29.4810   50.7140 H   0  0  0  0  0  0  0  0  0  0  0  0
   37.3060   28.4890   49.3470 H   0  0  0  0  0  0  0  0  0  0  0  0
   38.1620   32.8000   49.4450 C   0  0  0  0  0  0  0  0  0  0  0  0
   38.8100   32.8080   48.1990 C   0  0  0  0  0  0  0  0  0  0  0  0
   38.7640   31.6380   47.4240 C   0  0  0  0  0  0  0  0  0  0  0  0
   38.0880   30.5570   47.9310 N   0  0  0  0  0  0  0  0  0  0  0  0
   37.4860   30.5930   49.1200 C   0  0  0  0  0  0  0  0  0  0  0  0
   37.5300   31.7200   49.8680 N   0  0  0  0  0  0  0  0  0  0  0  0
   38.1960   33.6990   50.0440 H   0  0  0  0  0  0  0  0  0  0  0  0
   39.3340   33.6480   47.8060 H   0  0  0  0  0  0  0  0  0  0  0  0
   39.2470   31.6080   46.4680 H   0  0  0  0  0  0  0  0  0  0  0  0
   33.6230   27.6560   48.3060 C   0  0  0  0  0  0  0  0  0  0  0  0
   33.9880   26.5680   47.7090 O   0  0  0  0  0  0  0  0  0  0  0  0
   32.4190   28.2460   47.9540 O   0  0  0  0  0  0  0  0  0  0  0  0
   31.2460   27.5020   47.8510 C   0  0  0  0  0  3  0  0  0  0  0  0
   30.4890   27.0440   49.0290 C   0  0  0  0  0  2  0  0  0  0  0  0
   29.9010   28.0770   48.0400 C   0  0  0  0  0  2  0  0  0  0  0  0
  1  4  1  6  0  0  0
  1  3  1  0  0  0  0
  1  8  1  0  0  0  0
  1  2  1  0  0  0  0
  2  5  1  0  0  0  0
  3  7  1  1  0  0  0
  3  2  1  0  0  0  0
  6  2  1  0  0  0  0
  8  9  1  0  0  0  0
 10  8  1  0  0  0  0
 11 16  1  0  0  0  0
 11 17  1  0  0  0  0
 12 11  2  0  0  0  0
 13 14  2  0  0  0  0
 13 12  1  0  0  0  0
 14 15  1  0  0  0  0
 15  8  1  0  0  0  0
 15 16  2  0  0  0  0
 18 12  1  0  0  0  0
 19 13  1  0  0  0  0
 20  3  1  0  0  0  0
 21 20  2  0  0  0  0
 22 20  1  0  0  0  0
 23 22  1  0  0  0  0
 23 25  1  0  0  0  0
 23 24  1  0  0  0  0
 25 24  1  0  0  0  0
M  END
>  <minimizedAffinity>
-4.7731657

>  <minimizedRMSD>
0.793546438

$$$$
