
 OpenBabel03252513173D

 31 34  0  0  1  0  0  0  0  0999 V2000
   35.2210   29.4110   47.7900 N   0  0  0  0  0  0  0  0  0  0  0  0
   33.8880   28.9890   47.3710 C   0  0  0  0  0  0  0  0  0  0  0  0
   33.4730   30.1130   46.4890 C   0  0  0  0  0  0  0  0  0  0  0  0
   34.6980   30.3900   45.6770 C   0  0  0  0  0  0  0  0  0  0  0  0
   35.7960   29.8260   46.5250 C   0  0  1  0  0  0  0  0  0  0  0  0
   33.2460   28.9690   48.2740 H   0  0  0  0  0  0  0  0  0  0  0  0
   33.8650   28.0130   46.8870 H   0  0  0  0  0  0  0  0  0  0  0  0
   32.6640   29.7510   45.8070 H   0  0  0  0  0  0  0  0  0  0  0  0
   33.1030   30.9870   47.0530 H   0  0  0  0  0  0  0  0  0  0  0  0
   34.8060   31.4470   45.4220 H   0  0  0  0  0  0  0  0  0  0  0  0
   34.6430   29.8530   44.7000 H   0  0  0  0  0  0  0  0  0  0  0  0
   36.1890   28.8970   46.0420 H   0  0  0  0  0  0  0  0  0  0  0  0
   36.8960   30.7050   46.7390 N   0  0  0  0  0  0  0  0  0  0  0  0
   37.0210   31.6290   47.7340 C   0  0  0  0  0  0  0  0  0  0  0  0
   38.1790   32.2880   47.6440 N   0  0  0  0  0  0  0  0  0  0  0  0
   38.8590   31.8300   46.5970 C   0  0  0  0  0  0  0  0  0  0  0  0
   40.0850   32.1390   46.0450 C   0  0  0  0  0  0  0  0  0  0  0  0
   40.7180   32.9020   46.4690 H   0  0  0  0  0  0  0  0  0  0  0  0
   40.5040   31.4680   44.9390 N   0  0  0  0  0  0  0  0  0  0  0  0
   39.7110   30.5060   44.3990 C   0  0  0  0  0  0  0  0  0  0  0  0
   38.5080   30.2080   44.9480 N   0  0  0  0  0  0  0  0  0  0  0  0
   38.0520   30.8530   46.0480 C   0  0  0  0  0  0  0  0  0  0  0  0
   35.7640   29.3980   49.0940 C   0  0  0  0  0  0  0  0  0  0  0  0
   34.9450   29.5510   50.2230 C   0  0  0  0  0  0  0  0  0  0  0  0
   35.5820   29.5220   51.4910 C   0  0  0  0  0  0  0  0  0  0  0  0
   36.9430   29.3490   51.5440 N   0  0  0  0  0  0  0  0  0  0  0  0
   37.6850   29.2060   50.4250 C   0  0  0  0  0  0  0  0  0  0  0  0
   37.0740   29.2340   49.2230 N   0  0  0  0  0  0  0  0  0  0  0  0
   33.8860   29.6820   50.1050 H   0  0  0  0  0  0  0  0  0  0  0  0
   34.9400   29.6400   52.3280 H   0  0  0  0  0  0  0  0  0  0  0  0
   38.7410   29.0770   50.5960 H   0  0  0  0  0  0  0  0  0  0  0  0
  1 23  1  0  0  0  0
  2  1  1  0  0  0  0
  2  6  1  0  0  0  0
  3  9  1  0  0  0  0
  3  2  1  0  0  0  0
  4  3  1  0  0  0  0
  4  5  1  0  0  0  0
  5 12  1  6  0  0  0
  5 13  1  0  0  0  0
  5  1  1  0  0  0  0
  7  2  1  0  0  0  0
  8  3  1  0  0  0  0
 10  4  1  0  0  0  0
 11  4  1  0  0  0  0
 13 14  1  0  0  0  0
 15 14  2  0  0  0  0
 16 15  1  0  0  0  0
 17 18  1  0  0  0  0
 17 16  2  0  0  0  0
 19 17  1  0  0  0  0
 20 19  2  0  0  0  0
 20 21  1  0  0  0  0
 21 22  2  0  0  0  0
 22 16  1  0  0  0  0
 22 13  1  0  0  0  0
 23 28  2  0  0  0  0
 23 24  1  0  0  0  0
 24 25  2  0  0  0  0
 25 26  1  0  0  0  0
 25 30  1  0  0  0  0
 27 31  1  0  0  0  0
 27 26  2  0  0  0  0
 28 27  1  0  0  0  0
 29 24  1  0  0  0  0
M  END
>  <minimizedAffinity>
-4.31978703

>  <minimizedRMSD>
6.49987173

$$$$
