
 OpenBabel03252513043D

 34 36  0  0  0  0  0  0  0  0999 V2000
   38.7790   32.3360   46.6610 N   0  0  0  0  0  0  0  0  0  0  0  0
   39.8840   32.9430   46.2510 C   0  0  0  0  0  0  0  0  0  0  0  0
   40.5290   32.7150   45.0660 C   0  0  0  0  0  0  0  0  0  0  0  0
   40.0280   31.7870   44.1960 C   0  0  0  0  0  0  0  0  0  0  0  0
   40.5580   31.5210   43.0960 O   0  0  0  0  0  0  0  0  0  0  0  0
   38.9320   31.1620   44.5680 N   0  0  0  0  0  0  0  0  0  0  0  0
   38.3240   31.4140   45.7420 C   0  0  0  0  0  0  0  0  0  0  0  0
   37.2760   30.7590   46.0040 O   0  0  0  0  0  0  0  0  0  0  0  0
   40.2950   33.6930   46.9440 H   0  0  0  0  0  0  0  0  0  0  0  0
   41.4270   33.2710   44.8330 H   0  0  0  0  0  0  0  0  0  0  0  0
   38.3720   30.1830   43.6880 C   0  0  0  0  0  0  0  0  0  0  0  0
   37.3450   30.3050   42.7780 C   0  0  0  0  0  0  0  0  0  0  0  0
   36.9310   31.3020   42.7580 H   0  0  0  0  0  0  0  0  0  0  0  0
   36.9820   29.2040   42.0350 C   0  0  0  0  0  0  0  0  0  0  0  0
   37.6240   27.9930   42.1870 C   0  0  0  0  0  0  0  0  0  0  0  0
   37.3140   27.1490   41.5870 H   0  0  0  0  0  0  0  0  0  0  0  0
   38.6540   27.8420   43.0900 C   0  0  0  0  0  0  0  0  0  0  0  0
   39.1340   26.8790   43.1820 H   0  0  0  0  0  0  0  0  0  0  0  0
   39.0190   28.9520   43.8370 C   0  0  0  0  0  0  0  0  0  0  0  0
   38.0520   32.5050   47.8500 C   0  0  0  0  0  0  0  0  0  0  0  0
   37.0160   32.0830   47.6960 H   0  0  0  0  0  0  0  0  0  0  0  0
   37.8470   33.6100   47.9530 H   0  0  0  0  0  0  0  0  0  0  0  0
   38.5560   31.9550   49.1170 C   0  0  0  0  0  0  0  0  0  0  0  0
   39.4900   31.3430   48.9500 H   0  0  0  0  0  0  0  0  0  0  0  0
   38.8860   32.7460   49.8210 H   0  0  0  0  0  0  0  0  0  0  0  0
   35.5120   29.9150   50.0470 C   0  0  0  0  0  0  0  0  0  0  0  0
   36.3810   30.7710   49.3280 C   0  0  0  0  0  0  0  0  0  0  0  0
   37.6190   31.0710   49.8280 C   0  0  0  0  0  0  0  0  0  0  0  0
   37.9600   30.5180   51.0250 N   0  0  0  0  0  0  0  0  0  0  0  0
   37.1510   29.7170   51.7020 C   0  0  0  0  0  0  0  0  0  0  0  0
   35.9310   29.4060   51.2330 N   0  0  0  0  0  0  0  0  0  0  0  0
   34.5260   29.6940   49.6160 H   0  0  0  0  0  0  0  0  0  0  0  0
   36.0500   31.1840   48.3720 H   0  0  0  0  0  0  0  0  0  0  0  0
   37.4890   29.3030   52.6650 H   0  0  0  0  0  0  0  0  0  0  0  0
  1 20  1  0  0  0  0
  2  1  1  0  0  0  0
  2  9  1  0  0  0  0
  3  2  2  0  0  0  0
  4  6  1  0  0  0  0
  4  3  1  0  0  0  0
  5  4  2  0  0  0  0
  6  7  1  0  0  0  0
  7  8  2  0  0  0  0
  7  1  1  0  0  0  0
 10  3  1  0  0  0  0
 11 19  1  0  0  0  0
 11  6  1  0  0  0  0
 12 11  2  0  0  0  0
 13 12  1  0  0  0  0
 14 15  2  0  0  0  0
 14 12  1  0  0  0  0
 15 17  1  0  0  0  0
 16 15  1  0  0  0  0
 17 18  1  0  0  0  0
 17 19  2  0  0  0  0
 20 22  1  0  0  0  0
 20 23  1  0  0  0  0
 21 20  1  0  0  0  0
 23 25  1  0  0  0  0
 23 28  1  0  0  0  0
 24 23  1  0  0  0  0
 26 31  1  0  0  0  0
 27 28  1  0  0  0  0
 27 26  2  0  0  0  0
 28 29  2  0  0  0  0
 29 30  1  0  0  0  0
 30 34  1  0  0  0  0
 31 30  2  0  0  0  0
 32 26  1  0  0  0  0
 33 27  1  0  0  0  0
M  END
>  <minimizedAffinity>
-5.65638304

>  <minimizedRMSD>
2.72062397

$$$$
