
 OpenBabel03252514013D

 25 27  0  0  1  0  0  0  0  0999 V2000
   35.3640   29.4390   49.0300 C   0  0  2  0  0  0  0  0  0  0  0  0
   34.2340   29.4170   49.9700 C   0  0  0  0  0  0  0  0  0  0  0  0
   34.5890   28.1460   49.3500 C   0  0  1  0  0  0  0  0  0  0  0  0
   35.3090   29.7490   47.9810 H   0  0  0  0  0  0  0  0  0  0  0  0
   34.4560   29.5360   51.0530 H   0  0  0  0  0  0  0  0  0  0  0  0
   33.3080   29.9560   49.6350 H   0  0  0  0  0  0  0  0  0  0  0  0
   35.2650   27.3570   49.7220 H   0  0  0  0  0  0  0  0  0  0  0  0
   36.7760   29.4110   49.6160 C   0  0  0  0  0  0  0  0  0  0  0  0
   36.6710   29.4810   50.7150 H   0  0  0  0  0  0  0  0  0  0  0  0
   37.3070   28.4880   49.3480 H   0  0  0  0  0  0  0  0  0  0  0  0
   38.1650   32.7980   49.4460 C   0  0  0  0  0  0  0  0  0  0  0  0
   38.8110   32.8070   48.1990 C   0  0  0  0  0  0  0  0  0  0  0  0
   38.7620   31.6380   47.4230 C   0  0  0  0  0  0  0  0  0  0  0  0
   38.0860   30.5570   47.9300 N   0  0  0  0  0  0  0  0  0  0  0  0
   37.4860   30.5920   49.1210 C   0  0  0  0  0  0  0  0  0  0  0  0
   37.5330   31.7190   49.8690 N   0  0  0  0  0  0  0  0  0  0  0  0
   38.2010   33.6970   50.0450 H   0  0  0  0  0  0  0  0  0  0  0  0
   39.3350   33.6470   47.8050 H   0  0  0  0  0  0  0  0  0  0  0  0
   39.2430   31.6080   46.4660 H   0  0  0  0  0  0  0  0  0  0  0  0
   33.6230   27.6560   48.3060 C   0  0  0  0  0  0  0  0  0  0  0  0
   33.9880   26.5680   47.7100 O   0  0  0  0  0  0  0  0  0  0  0  0
   32.4200   28.2460   47.9540 O   0  0  0  0  0  0  0  0  0  0  0  0
   31.2460   27.5020   47.8510 C   0  0  0  0  0  3  0  0  0  0  0  0
   30.4890   27.0440   49.0290 C   0  0  0  0  0  2  0  0  0  0  0  0
   29.9010   28.0780   48.0400 C   0  0  0  0  0  2  0  0  0  0  0  0
  1  4  1  6  0  0  0
  1  3  1  0  0  0  0
  1  8  1  0  0  0  0
  1  2  1  0  0  0  0
  2  5  1  0  0  0  0
  3  7  1  1  0  0  0
  3  2  1  0  0  0  0
  6  2  1  0  0  0  0
  8  9  1  0  0  0  0
 10  8  1  0  0  0  0
 11 16  1  0  0  0  0
 11 17  1  0  0  0  0
 12 11  2  0  0  0  0
 13 14  2  0  0  0  0
 13 12  1  0  0  0  0
 14 15  1  0  0  0  0
 15  8  1  0  0  0  0
 15 16  2  0  0  0  0
 18 12  1  0  0  0  0
 19 13  1  0  0  0  0
 20  3  1  0  0  0  0
 21 20  2  0  0  0  0
 22 20  1  0  0  0  0
 23 22  1  0  0  0  0
 23 25  1  0  0  0  0
 23 24  1  0  0  0  0
 25 24  1  0  0  0  0
M  END
>  <minimizedAffinity>
-4.77329683

>  <minimizedRMSD>
0.707183123

$$$$
