
 OpenBabel03252513373D

 29 31  0  0  0  0  0  0  0  0999 V2000
   36.9460   29.8940   49.8970 C   0  0  0  0  0  0  0  0  0  0  0  0
   38.0020   30.6730   49.4560 C   0  0  0  0  0  0  0  0  0  0  0  0
   37.9880   31.1280   48.1320 C   0  0  0  0  0  0  0  0  0  0  0  0
   36.9480   30.7820   47.3590 N   0  0  0  0  0  0  0  0  0  0  0  0
   35.9280   30.0190   47.8170 C   0  0  0  0  0  0  0  0  0  0  0  0
   35.9510   29.5880   49.0840 N   0  0  0  0  0  0  0  0  0  0  0  0
   39.0530   31.9330   47.6630 N   0  0  0  0  0  0  0  0  0  0  0  0
   38.9400   32.6190   46.4220 C   0  0  0  0  0  0  0  0  0  0  0  0
   37.8910   32.4040   45.6870 N   0  0  0  0  0  0  0  0  0  0  0  0
   39.9680   33.5110   46.0250 N   0  0  0  0  0  0  0  0  0  0  0  0
   37.8640   32.8470   44.7410 H   0  0  0  0  0  0  0  0  0  0  0  0
   38.8250   30.9260   50.1240 H   0  0  0  0  0  0  0  0  0  0  0  0
   39.9240   32.0230   48.2320 H   0  0  0  0  0  0  0  0  0  0  0  0
   40.9440   33.2960   46.3270 H   0  0  0  0  0  0  0  0  0  0  0  0
   39.8690   34.3820   45.4530 H   0  0  0  0  0  0  0  0  0  0  0  0
   34.8340   29.6580   46.9950 N   0  0  0  0  0  0  0  0  0  0  0  0
   34.7020   29.9150   45.6770 C   0  0  0  0  0  0  0  0  0  0  0  0
   33.5160   29.3960   45.3030 N   0  0  0  0  0  0  0  0  0  0  0  0
   32.8930   28.8160   46.3630 C   0  0  0  0  0  0  0  0  0  0  0  0
   31.6800   28.1750   46.4300 C   0  0  0  0  0  0  0  0  0  0  0  0
   31.0830   28.0900   45.5300 H   0  0  0  0  0  0  0  0  0  0  0  0
   31.3470   27.7080   47.6340 N   0  0  0  0  0  0  0  0  0  0  0  0
   32.1520   27.8590   48.7040 C   0  0  0  0  0  0  0  0  0  0  0  0
   33.3570   28.4970   48.6270 N   0  0  0  0  0  0  0  0  0  0  0  0
   33.7480   28.9900   47.4390 C   0  0  0  0  0  0  0  0  0  0  0  0
   36.9600   29.4120   51.3160 C   0  0  0  0  0  0  0  0  0  0  0  0
   35.6520   29.1330   51.7190 F   0  0  0  0  0  0  0  0  0  0  0  0
   37.8040   28.3730   51.4270 F   0  0  0  0  0  0  0  0  0  0  0  0
   37.3890   30.4990   52.1050 F   0  0  0  0  0  0  0  0  0  0  0  0
  1 26  1  0  0  0  0
  2  1  1  0  0  0  0
  2 12  1  0  0  0  0
  3  2  2  0  0  0  0
  4  5  2  0  0  0  0
  4  3  1  0  0  0  0
  5  6  1  0  0  0  0
  6  1  2  0  0  0  0
  7  3  1  0  0  0  0
  7 13  1  0  0  0  0
  8  7  1  0  0  0  0
  9  8  2  0  0  0  0
 10 14  1  0  0  0  0
 10  8  1  0  0  0  0
 11  9  1  0  0  0  0
 15 10  1  0  0  0  0
 16 25  1  0  0  0  0
 16  5  1  0  0  0  0
 17 16  1  0  0  0  0
 18 17  2  0  0  0  0
 18 19  1  0  0  0  0
 19 20  2  0  0  0  0
 19 25  1  0  0  0  0
 20 22  1  0  0  0  0
 21 20  1  0  0  0  0
 22 23  2  0  0  0  0
 24 23  1  0  0  0  0
 25 24  2  0  0  0  0
 26 28  1  0  0  0  0
 26 27  1  0  0  0  0
 26 29  1  0  0  0  0
M  END
>  <minimizedAffinity>
-7.53608608

>  <minimizedRMSD>
0.307487398

$$$$
