
 OpenBabel03252513133D

 46 50  0  0  0  0  0  0  0  0999 V2000
   35.9730   31.0920   42.7220 C   0  0  0  0  0  0  0  0  0  0  0  0
   37.1370   30.7780   41.9920 C   0  0  0  0  0  0  0  0  0  0  0  0
   38.2420   30.4420   42.7100 C   0  0  0  0  0  0  0  0  0  0  0  0
   38.1190   30.4410   44.0260 N   0  0  0  0  0  0  0  0  0  0  0  0
   37.0950   30.7140   44.7640 C   0  0  0  0  0  0  0  0  0  0  0  0
   36.0300   31.0400   44.0510 N   0  0  0  0  0  0  0  0  0  0  0  0
   35.0760   31.3650   42.1550 H   0  0  0  0  0  0  0  0  0  0  0  0
   36.8520   30.7440   46.1920 C   0  0  0  0  0  0  0  0  0  0  0  0
   35.8580   29.9860   46.8140 C   0  0  0  0  0  0  0  0  0  0  0  0
   35.6000   29.9860   48.1500 C   0  0  0  0  0  0  0  0  0  0  0  0
   36.3510   30.7750   48.9910 C   0  0  0  0  0  0  0  0  0  0  0  0
   37.3210   31.5240   48.4490 C   0  0  0  0  0  0  0  0  0  0  0  0
   38.0730   32.3160   49.3010 C   0  0  0  0  0  0  0  0  0  0  0  0
   39.0800   33.1100   48.8350 C   0  0  0  0  0  0  0  0  0  0  0  0
   39.3390   33.1070   47.4730 C   0  0  0  0  0  0  0  0  0  0  0  0
   38.5780   32.3140   46.6640 C   0  0  0  0  0  0  0  0  0  0  0  0
   37.5730   31.5160   47.0960 C   0  0  0  0  0  0  0  0  0  0  0  0
   35.2430   29.3500   46.1820 H   0  0  0  0  0  0  0  0  0  0  0  0
   34.8090   29.3710   48.5610 H   0  0  0  0  0  0  0  0  0  0  0  0
   37.9300   32.3720   50.3700 H   0  0  0  0  0  0  0  0  0  0  0  0
   39.7020   33.7490   49.4470 H   0  0  0  0  0  0  0  0  0  0  0  0
   40.1280   33.7200   47.0600 H   0  0  0  0  0  0  0  0  0  0  0  0
   38.8050   32.3320   45.6010 H   0  0  0  0  0  0  0  0  0  0  0  0
   36.0640   30.7510   50.3340 O   0  0  0  0  0  0  0  0  0  0  0  0
   36.5210   29.6880   51.1530 C   0  0  0  0  0  0  0  0  0  0  0  0
   37.3240   28.7770   50.5360 F   0  0  0  0  0  0  0  0  0  0  0  0
   37.2860   30.2520   52.1610 F   0  0  0  0  0  0  0  0  0  0  0  0
   35.3870   29.0820   51.6750 F   0  0  0  0  0  0  0  0  0  0  0  0
   37.1970   30.8010   40.5690 N   0  0  0  0  0  0  0  0  0  0  0  0
   37.0540   29.8030   39.6650 C   0  0  0  0  0  0  0  0  0  0  0  0
   37.1800   30.2400   38.4200 N   0  0  0  0  0  0  0  0  0  0  0  0
   37.4110   31.5450   38.4510 C   0  0  0  0  0  0  0  0  0  0  0  0
   37.6320   32.5900   37.5670 C   0  0  0  0  0  0  0  0  0  0  0  0
   37.6290   32.3410   36.5090 H   0  0  0  0  0  0  0  0  0  0  0  0
   37.8400   33.8440   37.9810 N   0  0  0  0  0  0  0  0  0  0  0  0
   37.8430   34.1510   39.2910 C   0  0  0  0  0  0  0  0  0  0  0  0
   37.6330   33.1770   40.2110 N   0  0  0  0  0  0  0  0  0  0  0  0
   37.4230   31.8970   39.7880 C   0  0  0  0  0  0  0  0  0  0  0  0
   39.4920   30.0970   42.1280 N   0  0  0  0  0  0  0  0  0  0  0  0
   40.6640   29.9080   42.8890 C   0  0  0  0  0  0  0  0  0  0  0  0
   40.8860   30.7120   43.8770 N   0  0  0  0  0  0  0  0  0  0  0  0
   41.5630   28.8690   42.5720 N   0  0  0  0  0  0  0  0  0  0  0  0
   41.6710   30.7020   44.5180 H   0  0  0  0  0  0  0  0  0  0  0  0
   39.5420   29.9720   41.0720 H   0  0  0  0  0  0  0  0  0  0  0  0
   42.2550   28.9450   41.7950 H   0  0  0  0  0  0  0  0  0  0  0  0
   41.5320   28.0100   43.1280 H   0  0  0  0  0  0  0  0  0  0  0  0
  1  6  1  0  0  0  0
  2  3  1  0  0  0  0
  2  1  2  0  0  0  0
  3  4  2  0  0  0  0
  4  5  1  0  0  0  0
  5  8  1  0  0  0  0
  6  5  2  0  0  0  0
  7  1  1  0  0  0  0
  8  9  2  0  0  0  0
  8 17  1  0  0  0  0
  9 10  1  0  0  0  0
 10 19  1  0  0  0  0
 10 11  2  0  0  0  0
 11 24  1  0  0  0  0
 12 11  1  0  0  0  0
 12 13  1  0  0  0  0
 13 20  1  0  0  0  0
 14 13  2  0  0  0  0
 14 21  1  0  0  0  0
 15 14  1  0  0  0  0
 16 17  1  0  0  0  0
 16 15  2  0  0  0  0
 17 12  2  0  0  0  0
 18  9  1  0  0  0  0
 22 15  1  0  0  0  0
 23 16  1  0  0  0  0
 24 25  1  0  0  0  0
 25 28  1  0  0  0  0
 25 27  1  0  0  0  0
 26 25  1  0  0  0  0
 29  2  1  0  0  0  0
 30 29  1  0  0  0  0
 31 32  1  0  0  0  0
 31 30  2  0  0  0  0
 32 38  1  0  0  0  0
 33 35  1  0  0  0  0
 33 32  2  0  0  0  0
 34 33  1  0  0  0  0
 35 36  2  0  0  0  0
 36 37  1  0  0  0  0
 38 37  2  0  0  0  0
 38 29  1  0  0  0  0
 39  3  1  0  0  0  0
 39 40  1  0  0  0  0
 40 41  2  0  0  0  0
 41 43  1  0  0  0  0
 42 40  1  0  0  0  0
 42 46  1  0  0  0  0
 44 39  1  0  0  0  0
 45 42  1  0  0  0  0
M  END
>  <minimizedAffinity>
-7.58951616

>  <minimizedRMSD>
1.21278512

$$$$
