
 OpenBabel03252514043D

 39 43  0  0  1  0  0  0  0  0999 V2000
   33.7580   27.4150   48.0020 C   0  0  0  0  0  0  0  0  0  0  0  0
   34.0690   26.1990   47.7140 O   0  0  0  0  0  0  0  0  0  0  0  0
   35.3960   29.3160   48.7090 C   0  0  2  0  0  0  0  0  0  0  0  0
   34.1950   29.3210   49.5430 C   0  0  0  0  0  0  0  0  0  0  0  0
   34.6040   28.0220   49.1020 C   0  0  1  0  0  0  0  0  0  0  0  0
   35.4490   29.4630   47.6340 H   0  0  0  0  0  0  0  0  0  0  0  0
   34.3150   29.6490   50.6090 H   0  0  0  0  0  0  0  0  0  0  0  0
   33.2900   29.8240   49.1020 H   0  0  0  0  0  0  0  0  0  0  0  0
   35.2130   27.3170   49.6650 H   0  0  0  0  0  0  0  0  0  0  0  0
   36.7380   29.3570   49.4580 C   0  0  0  0  0  0  0  0  0  0  0  0
   37.2960   28.4530   49.1140 H   0  0  0  0  0  0  0  0  0  0  0  0
   36.5680   29.2740   50.5330 H   0  0  0  0  0  0  0  0  0  0  0  0
   38.0930   32.7500   49.4170 C   0  0  0  0  0  0  0  0  0  0  0  0
   38.7870   32.7870   48.1920 C   0  0  0  0  0  0  0  0  0  0  0  0
   38.7770   31.6250   47.3920 C   0  0  0  0  0  0  0  0  0  0  0  0
   38.0940   30.5310   47.8530 N   0  0  0  0  0  0  0  0  0  0  0  0
   37.4510   30.5490   49.0250 C   0  0  0  0  0  0  0  0  0  0  0  0
   37.4520   31.6650   49.8070 N   0  0  0  0  0  0  0  0  0  0  0  0
   38.1630   33.6930   49.9530 H   0  0  0  0  0  0  0  0  0  0  0  0
   39.3490   33.5720   47.7320 H   0  0  0  0  0  0  0  0  0  0  0  0
   39.2610   31.5240   46.4490 H   0  0  0  0  0  0  0  0  0  0  0  0
   32.7260   28.0240   47.3210 O   0  0  0  0  0  0  0  0  0  0  0  0
   31.4380   28.0940   47.7630 C   0  0  0  0  0  0  0  0  0  0  0  0
   30.9730   27.5830   49.0590 C   0  0  0  0  0  0  0  0  0  0  0  0
   29.6730   27.7020   49.4140 C   0  0  0  0  0  0  0  0  0  0  0  0
   28.7590   28.3230   48.5260 C   0  0  0  0  0  0  0  0  0  0  0  0
   29.8310   28.7790   47.0590 S   0  0  0  0  0  0  0  0  0  0  0  0
   31.7170   27.1190   49.6900 H   0  0  0  0  0  0  0  0  0  0  0  0
   29.3010   27.3390   50.3560 H   0  0  0  0  0  0  0  0  0  0  0  0
   27.3640   28.5180   48.7680 N   0  0  0  0  0  0  0  0  0  0  0  0
   26.5620   27.5320   49.1510 C   0  0  0  0  0  3  0  0  0  0  0  0
   25.3510   28.1000   49.2720 N   0  0  0  0  0  0  0  0  0  0  0  0
   25.4300   29.4080   48.9660 C   0  0  0  0  0  0  0  0  0  0  0  0
   24.4430   30.4000   48.9480 C   0  0  0  0  0  0  0  0  0  0  0  0
   23.4020   30.1760   49.2090 H   0  0  0  0  0  0  0  0  0  0  0  0
   24.8310   31.6580   48.5880 N   0  0  0  0  0  0  0  0  0  0  0  0
   26.1150   31.9150   48.2680 C   0  0  0  0  0  3  0  0  0  0  0  0
   27.0600   30.9520   48.2890 N   0  0  0  0  0  0  0  0  0  0  0  0
   26.7490   29.6980   48.6320 C   0  0  0  0  0  0  0  0  0  0  0  0
  1  5  1  0  0  0  0
  2  1  2  0  0  0  0
  3  6  1  6  0  0  0
  3  5  1  0  0  0  0
  3 10  1  0  0  0  0
  3  4  1  0  0  0  0
  4  7  1  0  0  0  0
  5  4  1  0  0  0  0
  5  9  1  1  0  0  0
  8  4  1  0  0  0  0
 10 12  1  0  0  0  0
 11 10  1  0  0  0  0
 13 18  1  0  0  0  0
 13 19  1  0  0  0  0
 14 13  2  0  0  0  0
 15 16  2  0  0  0  0
 15 14  1  0  0  0  0
 16 17  1  0  0  0  0
 17 10  1  0  0  0  0
 17 18  2  0  0  0  0
 20 14  1  0  0  0  0
 21 15  1  0  0  0  0
 22 23  1  0  0  0  0
 22  1  1  0  0  0  0
 23 24  2  0  0  0  0
 24 25  1  0  0  0  0
 24 28  1  0  0  0  0
 25 29  1  0  0  0  0
 26 30  1  0  0  0  0
 26 25  2  0  0  0  0
 27 23  1  0  0  0  0
 27 26  1  0  0  0  0
 30 31  1  0  0  0  0
 31 32  2  0  0  0  0
 33 32  1  0  0  0  0
 34 33  1  0  0  0  0
 34 35  1  0  0  0  0
 36 34  2  0  0  0  0
 37 38  2  0  0  0  0
 37 36  1  0  0  0  0
 38 39  1  0  0  0  0
 39 30  1  0  0  0  0
 39 33  2  0  0  0  0
M  END
>  <minimizedAffinity>
-6.69024754

>  <minimizedRMSD>
1.76647091

$$$$
