
 OpenBabel03252509553D

 47 51  0  0  0  0  0  0  0  0999 V2000
   33.6120   30.2680   44.2480 C   0  0  0  0  0  0  0  0  0  0  0  0
   33.9120   31.3190   43.3450 C   0  0  0  0  0  0  0  0  0  0  0  0
   32.8390   31.9830   42.7340 C   0  0  0  0  0  0  0  0  0  0  0  0
   31.5690   31.5770   43.0460 N   0  0  0  0  0  0  0  0  0  0  0  0
   31.3290   30.5690   43.9130 C   0  0  0  0  0  0  0  0  0  0  0  0
   32.3340   29.9380   44.4920 N   0  0  0  0  0  0  0  0  0  0  0  0
   29.9740   30.2080   44.1830 N   0  0  0  0  0  0  0  0  0  0  0  0
   29.0400   30.2490   43.2360 C   0  0  0  0  0  0  0  0  0  0  0  0
   27.7260   29.9030   43.4780 C   0  0  0  0  0  0  0  0  0  0  0  0
   27.4660   29.5150   44.7740 C   0  0  0  0  0  0  0  0  0  0  0  0
   26.2870   29.1780   45.0980 O   0  0  0  0  0  0  0  0  0  0  0  0
   28.3560   29.4530   45.7590 N   0  0  0  0  0  0  0  0  0  0  0  0
   29.6310   29.8100   45.4430 C   0  0  0  0  0  0  0  0  0  0  0  0
   30.5010   29.7670   46.3360 O   0  0  0  0  0  0  0  0  0  0  0  0
   34.4550   29.7630   44.7150 H   0  0  0  0  0  0  0  0  0  0  0  0
   34.8890   31.6430   43.0950 H   0  0  0  0  0  0  0  0  0  0  0  0
   32.9340   32.7970   42.0320 H   0  0  0  0  0  0  0  0  0  0  0  0
   29.2880   30.5620   42.2220 H   0  0  0  0  0  0  0  0  0  0  0  0
   27.5980   27.7760   49.5220 C   0  0  0  0  0  0  0  0  0  0  0  0
   27.5100   29.1520   49.3920 C   0  0  0  0  0  0  0  0  0  0  0  0
   27.7430   29.7890   48.1950 C   0  0  0  0  0  0  0  0  0  0  0  0
   28.0720   29.0470   47.0920 C   0  0  0  0  0  0  0  0  0  0  0  0
   28.1670   27.6570   47.1990 C   0  0  0  0  0  0  0  0  0  0  0  0
   27.9280   27.0190   48.4230 C   0  0  0  0  0  0  0  0  0  0  0  0
   27.2510   29.7830   50.2340 H   0  0  0  0  0  0  0  0  0  0  0  0
   27.7000   30.8370   47.9920 H   0  0  0  0  0  0  0  0  0  0  0  0
   28.4150   26.9500   46.4130 H   0  0  0  0  0  0  0  0  0  0  0  0
   27.9880   25.9540   48.5540 H   0  0  0  0  0  0  0  0  0  0  0  0
   27.2930   27.0320   51.0560 S   0  0  0  0  0  0  0  0  0  0  0  0
   28.4790   26.9860   51.9500 O   0  0  0  0  0  0  0  0  0  0  0  0
   26.1640   27.7770   51.7320 O   0  0  0  0  0  0  0  0  0  0  0  0
   26.9230   25.7260   50.7990 H   0  0  0  0  0  0  0  0  0  0  0  0
   26.6290   29.9220   42.4870 C   0  0  0  0  0  0  0  0  0  0  0  0
   25.9750   29.0470   42.7230 H   0  0  0  0  0  0  0  0  0  0  0  0
   27.0840   29.7840   41.4780 H   0  0  0  0  0  0  0  0  0  0  0  0
   25.8720   31.2000   42.5260 C   0  0  0  0  0  0  0  0  0  0  0  0
   26.0150   32.0970   43.5050 N   0  0  0  0  0  0  0  0  0  0  0  0
   25.3130   33.2550   43.4980 C   0  0  0  0  0  0  0  0  0  0  0  0
   24.4570   33.5080   42.4910 N   0  0  0  0  0  0  0  0  0  0  0  0
   24.2980   32.6180   41.4910 C   0  0  0  0  0  0  0  0  0  0  0  0
   23.3920   32.9380   40.4820 C   0  0  0  0  0  0  0  0  0  0  0  0
   23.2470   31.9970   39.4700 C   0  0  0  0  0  0  0  0  0  0  0  0
   22.5500   32.2290   38.6800 H   0  0  0  0  0  0  0  0  0  0  0  0
   23.9310   30.8040   39.4200 C   0  0  0  0  0  0  0  0  0  0  0  0
   23.7500   30.1250   38.5850 H   0  0  0  0  0  0  0  0  0  0  0  0
   24.8100   30.5510   40.4500 C   0  0  0  0  0  0  0  0  0  0  0  0
   25.0060   31.4300   41.4800 C   0  0  0  0  0  0  0  0  0  0  0  0
  1  6  1  0  0  0  0
  1 15  1  0  0  0  0
  2  1  2  0  0  0  0
  3  4  2  0  0  0  0
  3  2  1  0  0  0  0
  4  5  1  0  0  0  0
  5  7  1  0  0  0  0
  5  6  2  0  0  0  0
  7 13  1  0  0  0  0
  8  9  2  0  0  0  0
  8  7  1  0  0  0  0
  9 10  1  0  0  0  0
 10 11  2  0  0  0  0
 10 12  1  0  0  0  0
 12 22  1  0  0  0  0
 13 12  1  0  0  0  0
 13 14  2  0  0  0  0
 16  2  1  0  0  0  0
 17  3  1  0  0  0  0
 18  8  1  0  0  0  0
 19 29  1  0  0  0  0
 20 19  1  0  0  0  0
 20 25  1  0  0  0  0
 21 20  2  0  0  0  0
 22 23  2  0  0  0  0
 22 21  1  0  0  0  0
 23 24  1  0  0  0  0
 24 28  1  0  0  0  0
 24 19  2  0  0  0  0
 26 21  1  0  0  0  0
 27 23  1  0  0  0  0
 29 31  2  0  0  0  0
 29 30  2  0  0  0  0
 32 29  1  0  0  0  0
 33 36  1  0  0  0  0
 33 34  1  0  0  0  0
 33  9  1  0  0  0  0
 35 33  1  0  0  0  0
 36 37  1  0  0  0  0
 38 37  2  0  0  0  0
 39 38  1  0  0  0  0
 40 39  2  0  0  0  0
 41 40  1  0  0  0  0
 42 41  2  0  0  0  0
 43 42  1  0  0  0  0
 44 42  1  0  0  0  0
 44 46  2  0  0  0  0
 45 44  1  0  0  0  0
 46 47  1  0  0  0  0
 47 40  1  0  0  0  0
 47 36  2  0  0  0  0
M  END
>  <minimizedAffinity>
-5.73573399

>  <minimizedRMSD>
0.306290895

$$$$
