
 OpenBabel03252510263D

 32 34  0  0  0  0  0  0  0  0999 V2000
   35.8020   30.4890   47.8990 C   0  0  0  0  0  0  0  0  0  0  0  0
   37.0340   30.7450   47.3100 C   0  0  0  0  0  0  0  0  0  0  0  0
   37.0990   30.6120   45.9060 C   0  0  0  0  0  0  0  0  0  0  0  0
   35.9710   30.2460   45.2160 N   0  0  0  0  0  0  0  0  0  0  0  0
   34.8150   30.0150   45.8470 C   0  0  0  0  0  0  0  0  0  0  0  0
   34.7130   30.1300   47.1810 N   0  0  0  0  0  0  0  0  0  0  0  0
   33.6730   29.6360   45.0800 N   0  0  0  0  0  0  0  0  0  0  0  0
   33.7930   28.6290   44.0810 C   0  0  0  0  0  0  0  0  0  0  0  0
   34.7700   27.7730   44.1200 N   0  0  0  0  0  0  0  0  0  0  0  0
   32.7850   28.6310   43.0620 N   0  0  0  0  0  0  0  0  0  0  0  0
   34.8540   27.0630   43.3560 H   0  0  0  0  0  0  0  0  0  0  0  0
   37.9040   31.0290   47.8560 H   0  0  0  0  0  0  0  0  0  0  0  0
   32.7820   30.1290   45.2920 H   0  0  0  0  0  0  0  0  0  0  0  0
   32.2330   27.7460   42.8980 H   0  0  0  0  0  0  0  0  0  0  0  0
   32.4900   29.3890   42.4280 H   0  0  0  0  0  0  0  0  0  0  0  0
   38.3460   30.8660   45.2660 N   0  0  0  0  0  0  0  0  0  0  0  0
   39.2020   31.8490   45.6140 C   0  0  0  0  0  0  0  0  0  0  0  0
   40.2880   31.8310   44.8230 N   0  0  0  0  0  0  0  0  0  0  0  0
   40.0920   30.8060   43.9630 C   0  0  0  0  0  0  0  0  0  0  0  0
   40.8410   30.2860   42.9240 C   0  0  0  0  0  0  0  0  0  0  0  0
   41.8040   30.7130   42.6550 H   0  0  0  0  0  0  0  0  0  0  0  0
   40.3770   29.2180   42.2130 N   0  0  0  0  0  0  0  0  0  0  0  0
   39.1730   28.6530   42.5210 C   0  0  0  0  0  0  0  0  0  0  0  0
   38.4090   29.1400   43.5390 N   0  0  0  0  0  0  0  0  0  0  0  0
   38.8850   30.1960   44.2280 C   0  0  0  0  0  0  0  0  0  0  0  0
   35.7020   30.6190   49.3490 C   0  0  0  0  0  0  0  0  0  0  0  0
   34.7390   30.0770   49.9660 O   0  0  0  0  0  0  0  0  0  0  0  0
   36.6530   31.3300   50.0520 O   0  0  0  0  0  0  0  0  0  0  0  0
   37.6300   30.5670   50.7530 C   0  0  0  0  0  0  0  0  0  0  0  0
   37.2520   30.3800   52.0690 F   0  0  0  0  0  0  0  0  0  0  0  0
   38.8470   31.2170   50.6620 F   0  0  0  0  0  0  0  0  0  0  0  0
   37.7850   29.3290   50.1860 F   0  0  0  0  0  0  0  0  0  0  0  0
  1 26  1  0  0  0  0
  2 12  1  0  0  0  0
  2  1  1  0  0  0  0
  3  2  2  0  0  0  0
  4  5  2  0  0  0  0
  4  3  1  0  0  0  0
  5  6  1  0  0  0  0
  6  1  2  0  0  0  0
  7 13  1  0  0  0  0
  7  5  1  0  0  0  0
  8  9  2  0  0  0  0
  8  7  1  0  0  0  0
 10  8  1  0  0  0  0
 11  9  1  0  0  0  0
 14 10  1  0  0  0  0
 15 10  1  0  0  0  0
 16 17  1  0  0  0  0
 16  3  1  0  0  0  0
 18 17  2  0  0  0  0
 19 25  1  0  0  0  0
 19 18  1  0  0  0  0
 20 19  2  0  0  0  0
 21 20  1  0  0  0  0
 22 23  2  0  0  0  0
 22 20  1  0  0  0  0
 23 24  1  0  0  0  0
 24 25  2  0  0  0  0
 25 16  1  0  0  0  0
 26 27  2  0  0  0  0
 26 28  1  0  0  0  0
 28 29  1  0  0  0  0
 29 30  1  0  0  0  0
 31 29  1  0  0  0  0
 32 29  1  0  0  0  0
M  END
>  <minimizedAffinity>
-6.50162363

>  <minimizedRMSD>
5.56933928

$$$$
