
 OpenBabel03252514013D

 25 27  0  0  1  0  0  0  0  0999 V2000
   35.3940   29.4380   49.0960 C   0  0  2  0  0  0  0  0  0  0  0  0
   34.2850   29.4800   50.0590 C   0  0  0  0  0  0  0  0  0  0  0  0
   34.5960   28.1780   49.4820 C   0  0  1  0  0  0  0  0  0  0  0  0
   35.3240   29.7090   48.0370 H   0  0  0  0  0  0  0  0  0  0  0  0
   34.5330   29.6360   51.1320 H   0  0  0  0  0  0  0  0  0  0  0  0
   33.3640   30.0290   49.7220 H   0  0  0  0  0  0  0  0  0  0  0  0
   35.2610   27.3880   49.8710 H   0  0  0  0  0  0  0  0  0  0  0  0
   36.8170   29.3990   49.6540 C   0  0  0  0  0  0  0  0  0  0  0  0
   36.7380   29.5090   50.7510 H   0  0  0  0  0  0  0  0  0  0  0  0
   37.3220   28.4550   49.4070 H   0  0  0  0  0  0  0  0  0  0  0  0
   38.3970   32.6950   49.3880 C   0  0  0  0  0  0  0  0  0  0  0  0
   38.8970   32.6950   48.0760 C   0  0  0  0  0  0  0  0  0  0  0  0
   38.6860   31.5510   47.2890 C   0  0  0  0  0  0  0  0  0  0  0  0
   38.0020   30.5030   47.8500 N   0  0  0  0  0  0  0  0  0  0  0  0
   37.5430   30.5450   49.1020 C   0  0  0  0  0  0  0  0  0  0  0  0
   37.7470   31.6470   49.8610 N   0  0  0  0  0  0  0  0  0  0  0  0
   38.5580   33.5740   49.9960 H   0  0  0  0  0  0  0  0  0  0  0  0
   39.4280   33.5100   47.6410 H   0  0  0  0  0  0  0  0  0  0  0  0
   39.0540   31.5160   46.2840 H   0  0  0  0  0  0  0  0  0  0  0  0
   33.5960   27.6720   48.4790 C   0  0  0  0  0  0  0  0  0  0  0  0
   34.0740   26.8160   47.6340 O   0  0  0  0  0  0  0  0  0  0  0  0
   32.2600   28.0260   48.3950 O   0  0  0  0  0  0  0  0  0  0  0  0
   31.5740   28.0040   47.1820 C   0  0  0  0  0  3  0  0  0  0  0  0
   30.2430   28.6120   47.0110 C   0  0  0  0  0  2  0  0  0  0  0  0
   31.4880   29.1650   46.2780 C   0  0  0  0  0  2  0  0  0  0  0  0
  1  4  1  6  0  0  0
  1  3  1  0  0  0  0
  1  8  1  0  0  0  0
  1  2  1  0  0  0  0
  2  5  1  0  0  0  0
  3  7  1  1  0  0  0
  3  2  1  0  0  0  0
  6  2  1  0  0  0  0
  8  9  1  0  0  0  0
 10  8  1  0  0  0  0
 11 16  1  0  0  0  0
 11 17  1  0  0  0  0
 12 11  2  0  0  0  0
 13 14  2  0  0  0  0
 13 12  1  0  0  0  0
 14 15  1  0  0  0  0
 15  8  1  0  0  0  0
 15 16  2  0  0  0  0
 18 12  1  0  0  0  0
 19 13  1  0  0  0  0
 20  3  1  0  0  0  0
 21 20  2  0  0  0  0
 22 20  1  0  0  0  0
 23 22  1  0  0  0  0
 24 23  1  0  0  0  0
 25 24  1  0  0  0  0
 25 23  1  0  0  0  0
M  END
>  <minimizedAffinity>
-4.61153173

>  <minimizedRMSD>
0.249256372

$$$$
