
 OpenBabel03252513533D

 35 37  0  0  1  0  0  0  0  0999 V2000
   37.5340   30.7370   46.7050 C   0  0  0  0  0  0  0  0  0  0  0  0
   37.9020   30.5720   47.8830 O   0  0  0  0  0  0  0  0  0  0  0  0
   38.4630   31.4380   45.8890 N   0  0  0  0  0  0  0  0  0  0  0  0
   38.7020   30.8730   44.5680 C   0  0  0  0  0  0  0  0  0  0  0  0
   39.9910   31.3890   43.9630 C   0  0  0  0  0  0  0  0  0  0  0  0
   40.8750   31.6140   45.0010 O   0  0  0  0  0  0  0  0  0  0  0  0
   40.4760   32.8070   45.6120 C   0  0  0  0  0  0  0  0  0  0  0  0
   39.1480   32.6360   46.3070 C   0  0  2  0  0  0  0  0  0  0  0  0
   37.8790   31.0320   43.8690 H   0  0  0  0  0  0  0  0  0  0  0  0
   38.8000   29.7600   44.7330 H   0  0  0  0  0  0  0  0  0  0  0  0
   40.4150   30.5500   43.3730 H   0  0  0  0  0  0  0  0  0  0  0  0
   39.8150   32.2800   43.3400 H   0  0  0  0  0  0  0  0  0  0  0  0
   40.2970   33.5200   44.7640 H   0  0  0  0  0  0  0  0  0  0  0  0
   41.2590   33.2630   46.2450 H   0  0  0  0  0  0  0  0  0  0  0  0
   38.5220   33.5200   46.1540 H   0  0  0  0  0  0  0  0  0  0  0  0
   34.0180   29.3800   46.7270 C   0  0  0  0  0  0  0  0  0  0  0  0
   35.2810   29.8830   47.2120 C   0  0  0  0  0  0  0  0  0  0  0  0
   36.2450   30.2240   46.2750 C   0  0  0  0  0  0  0  0  0  0  0  0
   35.9250   30.0580   44.9500 N   0  0  0  0  0  0  0  0  0  0  0  0
   34.7430   29.5870   44.5560 C   0  0  0  0  0  0  0  0  0  0  0  0
   33.8130   29.2570   45.4310 N   0  0  0  0  0  0  0  0  0  0  0  0
   35.4750   29.9930   48.2490 H   0  0  0  0  0  0  0  0  0  0  0  0
   34.5850   29.4760   43.0710 C   0  0  0  0  0  0  0  0  0  0  0  0
   35.0600   30.6200   42.4490 F   0  0  0  0  0  0  0  0  0  0  0  0
   35.3640   28.4250   42.5990 F   0  0  0  0  0  0  0  0  0  0  0  0
   33.2830   29.2010   42.6930 F   0  0  0  0  0  0  0  0  0  0  0  0
   33.0670   29.0440   47.6870 O   0  0  0  0  0  0  0  0  0  0  0  0
   33.2910   28.2110   48.7710 C   0  0  0  0  0  0  0  0  0  0  0  0
   34.1250   27.1420   48.4700 F   0  0  0  0  0  0  0  0  0  0  0  0
   33.7150   28.8520   49.8990 F   0  0  0  0  0  0  0  0  0  0  0  0
   32.0230   27.6760   49.0760 F   0  0  0  0  0  0  0  0  0  0  0  0
   39.4710   32.4370   47.6660 O   0  0  0  0  0  0  0  0  0  0  0  0
   39.0490   33.6310   48.2910 C   0  0  0  0  0  0  0  0  0  0  0  0
   38.0800   33.4870   49.4680 C   0  0  0  0  0  0  0  0  0  0  0  0
   39.5030   33.9320   49.6680 C   0  0  0  0  0  0  0  0  0  0  0  0
  1  2  2  0  0  0  0
  3  8  1  0  0  0  0
  3  1  1  0  0  0  0
  4 10  1  0  0  0  0
  4  3  1  0  0  0  0
  5  4  1  0  0  0  0
  5  6  1  0  0  0  0
  6  7  1  0  0  0  0
  7 14  1  0  0  0  0
  7  8  1  0  0  0  0
  8 15  1  6  0  0  0
  8 32  1  0  0  0  0
  9  4  1  0  0  0  0
 11  5  1  0  0  0  0
 12  5  1  0  0  0  0
 13  7  1  0  0  0  0
 16 17  1  0  0  0  0
 16 27  1  0  0  0  0
 17 22  1  0  0  0  0
 18  1  1  0  0  0  0
 18 17  2  0  0  0  0
 19 18  1  0  0  0  0
 20 19  2  0  0  0  0
 20 21  1  0  0  0  0
 21 16  2  0  0  0  0
 23 20  1  0  0  0  0
 24 23  1  0  0  0  0
 25 23  1  0  0  0  0
 26 23  1  0  0  0  0
 27 28  1  0  0  0  0
 28 31  1  0  0  0  0
 28 30  1  0  0  0  0
 29 28  1  0  0  0  0
 32 33  1  0  0  0  0
 33 34  1  0  0  0  0
 33 35  1  0  0  0  0
 34 35  1  0  0  0  0
M  END
>  <minimizedAffinity>
-5.20897102

>  <minimizedRMSD>
1.9365114

$$$$
