
 OpenBabel03252514043D

 31 33  0  0  1  0  0  0  0  0999 V2000
   35.2250   29.3530   48.8990 C   0  0  2  0  0  0  0  0  0  0  0  0
   34.1040   29.2680   49.8290 C   0  0  0  0  0  0  0  0  0  0  0  0
   34.4770   28.0190   49.2260 C   0  0  1  0  0  0  0  0  0  0  0  0
   35.1400   29.6820   47.8470 H   0  0  0  0  0  0  0  0  0  0  0  0
   33.1320   29.7930   49.6130 H   0  0  0  0  0  0  0  0  0  0  0  0
   34.3430   29.3920   50.9240 H   0  0  0  0  0  0  0  0  0  0  0  0
   35.1340   27.2480   49.6190 H   0  0  0  0  0  0  0  0  0  0  0  0
   36.6320   29.3340   49.5250 C   0  0  0  0  0  0  0  0  0  0  0  0
   37.1200   28.4010   49.1580 H   0  0  0  0  0  0  0  0  0  0  0  0
   36.5300   29.2740   50.6280 H   0  0  0  0  0  0  0  0  0  0  0  0
   37.7570   32.8120   49.5350 C   0  0  0  0  0  0  0  0  0  0  0  0
   38.5750   32.8720   48.4000 C   0  0  0  0  0  0  0  0  0  0  0  0
   38.7300   31.6940   47.6350 C   0  0  0  0  0  0  0  0  0  0  0  0
   38.0730   30.5620   48.0460 N   0  0  0  0  0  0  0  0  0  0  0  0
   37.3060   30.5640   49.1390 C   0  0  0  0  0  0  0  0  0  0  0  0
   37.1510   31.6960   49.8810 N   0  0  0  0  0  0  0  0  0  0  0  0
   37.6270   33.7060   50.1330 H   0  0  0  0  0  0  0  0  0  0  0  0
   39.0810   33.7940   48.1040 H   0  0  0  0  0  0  0  0  0  0  0  0
   39.3490   31.6910   46.7540 H   0  0  0  0  0  0  0  0  0  0  0  0
   33.5320   27.5180   48.1510 C   0  0  0  0  0  0  0  0  0  0  0  0
   33.8130   26.3130   47.7590 O   0  0  0  0  0  0  0  0  0  0  0  0
   32.4530   28.2120   47.6000 O   0  0  0  0  0  0  0  0  0  0  0  0
   31.1560   27.9910   47.9800 C   0  0  0  0  0  0  0  0  0  0  0  0
   30.7160   27.5670   49.3360 C   0  0  0  0  0  0  0  0  0  0  0  0
   29.3890   27.3990   49.5240 C   0  0  0  0  0  0  0  0  0  0  0  0
   28.4390   27.6090   48.5010 C   0  0  0  0  0  0  0  0  0  0  0  0
   29.5020   28.1130   47.0540 S   0  0  0  0  0  0  0  0  0  0  0  0
   31.4710   27.4260   50.0580 H   0  0  0  0  0  0  0  0  0  0  0  0
   28.9750   27.0930   50.4700 H   0  0  0  0  0  0  0  0  0  0  0  0
   26.7860   27.5000   48.3840 S   0  0  0  0  0  0  0  0  0  0  0  0
   26.2790   26.1920   48.5670 H   0  0  0  0  0  0  0  0  0  0  0  0
  1  4  1  6  0  0  0
  1  3  1  0  0  0  0
  1  8  1  0  0  0  0
  1  2  1  0  0  0  0
  2  6  1  0  0  0  0
  3  7  1  1  0  0  0
  3  2  1  0  0  0  0
  5  2  1  0  0  0  0
  8 10  1  0  0  0  0
  9  8  1  0  0  0  0
 11 16  1  0  0  0  0
 11 17  1  0  0  0  0
 12 11  2  0  0  0  0
 13 14  2  0  0  0  0
 13 12  1  0  0  0  0
 14 15  1  0  0  0  0
 15  8  1  0  0  0  0
 15 16  2  0  0  0  0
 18 12  1  0  0  0  0
 19 13  1  0  0  0  0
 20  3  1  0  0  0  0
 21 20  2  0  0  0  0
 22 23  1  0  0  0  0
 22 20  1  0  0  0  0
 23 24  2  0  0  0  0
 24 25  1  0  0  0  0
 24 28  1  0  0  0  0
 25 29  1  0  0  0  0
 26 25  2  0  0  0  0
 27 23  1  0  0  0  0
 27 26  1  0  0  0  0
 30 26  1  0  0  0  0
 30 31  1  0  0  0  0
M  END
>  <minimizedAffinity>
-5.41459131

>  <minimizedRMSD>
0.42864418

$$$$
