
 OpenBabel03252513543D

 18 19  0  0  0  0  0  0  0  0999 V2000
   37.5170   29.8950   51.2650 C   0  0  0  0  0  0  0  0  0  0  0  0
   37.9840   30.8650   50.3470 C   0  0  0  0  0  0  0  0  0  0  0  0
   37.0660   31.3980   49.4350 C   0  0  0  0  0  0  0  0  0  0  0  0
   35.7740   30.9480   49.4880 N   0  0  0  0  0  0  0  0  0  0  0  0
   35.3520   30.0280   50.3680 C   0  0  0  0  0  0  0  0  0  0  0  0
   36.2340   29.5050   51.2550 N   0  0  0  0  0  0  0  0  0  0  0  0
   38.1720   29.4290   52.0120 H   0  0  0  0  0  0  0  0  0  0  0  0
   39.0090   31.1370   50.3990 H   0  0  0  0  0  0  0  0  0  0  0  0
   37.4040   32.1250   48.7430 H   0  0  0  0  0  0  0  0  0  0  0  0
   33.9440   29.5860   50.3720 C   0  0  0  0  0  0  0  0  0  0  0  0
   33.6820   29.2660   51.4090 H   0  0  0  0  0  0  0  0  0  0  0  0
   33.3310   30.5180   50.2230 H   0  0  0  0  0  0  0  0  0  0  0  0
   33.6610   28.5550   49.3670 C   0  0  0  0  0  0  0  0  0  0  0  0
   34.5210   27.7430   48.6550 C   0  0  0  0  0  0  0  0  0  0  0  0
   33.7970   26.9360   47.8300 N   0  0  0  0  0  0  0  0  0  0  0  0
   32.4960   27.2510   48.0370 C   0  0  0  0  0  0  0  0  0  0  0  0
   32.4180   28.2360   48.9720 N   0  0  0  0  0  0  0  0  0  0  0  0
   31.5130   28.6300   49.2810 H   0  0  0  0  0  0  0  0  0  0  0  0
  1  7  1  0  0  0  0
  2  8  1  0  0  0  0
  2  1  2  0  0  0  0
  3  4  2  0  0  0  0
  3  2  1  0  0  0  0
  4  5  1  0  0  0  0
  5 10  1  0  0  0  0
  5  6  2  0  0  0  0
  6  1  1  0  0  0  0
  9  3  1  0  0  0  0
 10 11  1  0  0  0  0
 12 10  1  0  0  0  0
 13 10  1  0  0  0  0
 14 13  2  0  0  0  0
 15 16  2  0  0  0  0
 15 14  1  0  0  0  0
 16 17  1  0  0  0  0
 17 18  1  0  0  0  0
 17 13  1  0  0  0  0
M  END
>  <minimizedAffinity>
-4.05349159

>  <minimizedRMSD>
2.14845443

$$$$
