
 OpenBabel03252512303D

 32 34  0  0  1  0  0  0  0  0999 V2000
   34.7000   29.3650   48.6560 C   0  0  0  0  0  0  0  0  0  0  0  0
   33.9660   28.3770   49.3250 C   0  0  0  0  0  0  0  0  0  0  0  0
   32.8760   27.8930   48.7020 C   0  0  0  0  0  0  0  0  0  0  0  0
   32.5600   28.3690   47.5110 C   0  0  0  0  0  0  0  0  0  0  0  0
   33.8120   29.6190   47.0870 S   0  0  0  0  0  0  0  0  0  0  0  0
   34.3430   28.0720   50.3160 H   0  0  0  0  0  0  0  0  0  0  0  0
   32.2510   27.1270   49.1460 H   0  0  0  0  0  0  0  0  0  0  0  0
   37.4600   30.4450   50.8310 C   0  0  0  0  0  0  0  0  0  0  0  0
   38.2120   31.2890   49.9750 C   0  0  0  0  0  0  0  0  0  0  0  0
   37.7570   31.4730   48.6720 C   0  0  0  0  0  0  0  0  0  0  0  0
   36.6210   30.8300   48.3060 N   0  0  0  0  0  0  0  0  0  0  0  0
   35.9490   30.0560   49.1250 C   0  0  0  0  0  0  0  0  0  0  0  0
   36.3190   29.8190   50.4150 N   0  0  0  0  0  0  0  0  0  0  0  0
   37.7720   30.2710   51.8520 H   0  0  0  0  0  0  0  0  0  0  0  0
   39.1070   31.7560   50.3660 H   0  0  0  0  0  0  0  0  0  0  0  0
   38.3130   32.1110   48.0000 H   0  0  0  0  0  0  0  0  0  0  0  0
   31.4420   28.0340   46.5800 C   0  0  2  0  0  0  0  0  0  0  0  0
   31.2790   26.9400   46.6790 H   0  0  0  0  0  0  0  0  0  0  0  0
   31.8180   28.3800   45.2080 C   0  0  0  0  0  0  0  0  0  0  0  0
   31.4340   27.7450   44.3960 H   0  0  0  0  0  0  0  0  0  0  0  0
   32.9270   28.4070   45.1160 H   0  0  0  0  0  0  0  0  0  0  0  0
   31.4850   29.4260   44.9510 H   0  0  0  0  0  0  0  0  0  0  0  0
   30.1940   28.7250   47.0740 C   0  0  0  0  0  0  0  0  0  0  0  0
   30.4280   29.6120   47.6920 H   0  0  0  0  0  0  0  0  0  0  0  0
   29.6550   29.1290   46.1790 H   0  0  0  0  0  0  0  0  0  0  0  0
   29.3480   27.9310   47.7600 O   0  0  0  0  0  0  0  0  0  0  0  0
   28.0090   28.2200   47.7070 C   0  0  0  0  0  0  0  0  0  0  0  0
   27.1160   27.2130   48.3970 C   0  0  0  0  0  0  0  0  0  0  0  0
   27.8690   26.9060   49.6860 C   0  0  0  0  0  0  0  0  0  0  0  0
   28.0580   28.1330   50.5290 C   0  0  0  0  0  0  0  0  0  0  0  0
   27.8070   29.4390   49.9010 C   0  0  0  0  0  0  0  0  0  0  0  0
   27.7750   29.5350   48.4170 C   0  0  0  0  0  0  0  0  0  0  0  0
  1 12  1  0  0  0  0
  1  2  2  0  0  0  0
  2  6  1  0  0  0  0
  3  7  1  0  0  0  0
  3  2  1  0  0  0  0
  4  3  2  0  0  0  0
  5  4  1  0  0  0  0
  5  1  1  0  0  0  0
  8 14  1  0  0  0  0
  9 15  1  0  0  0  0
  9  8  2  0  0  0  0
 10  9  1  0  0  0  0
 11 10  2  0  0  0  0
 11 12  1  0  0  0  0
 12 13  2  0  0  0  0
 13  8  1  0  0  0  0
 16 10  1  0  0  0  0
 17 18  1  1  0  0  0
 17 23  1  0  0  0  0
 17  4  1  0  0  0  0
 19 17  1  0  0  0  0
 20 19  1  0  0  0  0
 21 19  1  0  0  0  0
 22 19  1  0  0  0  0
 23 24  1  0  0  0  0
 23 26  1  0  0  0  0
 25 23  1  0  0  0  0
 27 26  1  0  0  0  0
 27 28  1  0  0  0  0
 27 32  1  0  0  0  0
 28 29  1  0  0  0  0
 29 30  1  0  0  0  0
 31 30  1  0  0  0  0
 32 31  1  0  0  0  0
M  END
>  <minimizedAffinity>
-5.4504571

>  <minimizedRMSD>
2.31899381

$$$$
