
 OpenBabel03252512383D

 45 48  0  0  1  0  0  0  0  0999 V2000
   39.2560   30.8520   46.3560 C   0  0  2  0  0  0  0  0  0  0  0  0
   40.1310   31.8610   45.8020 C   0  0  0  0  0  0  0  0  0  0  0  0
   40.9700   31.3920   44.6600 C   0  0  0  0  0  0  0  0  0  0  0  0
   40.2200   30.6220   43.6480 C   0  0  0  0  0  0  0  0  0  0  0  0
   39.2410   29.6860   44.1900 C   0  0  0  0  0  0  0  0  0  0  0  0
   38.3440   30.3180   45.3190 C   0  0  2  0  0  0  0  0  0  0  0  0
   39.8630   29.9780   46.6990 H   0  0  0  0  0  0  0  0  0  0  0  0
   39.7860   32.8620   45.5780 H   0  0  0  0  0  0  0  0  0  0  0  0
   40.8930   32.0620   46.6250 H   0  0  0  0  0  0  0  0  0  0  0  0
   41.5200   32.2390   44.2100 H   0  0  0  0  0  0  0  0  0  0  0  0
   41.7630   30.6970   45.0690 H   0  0  0  0  0  0  0  0  0  0  0  0
   40.9260   30.0790   43.0210 H   0  0  0  0  0  0  0  0  0  0  0  0
   39.6950   31.3420   42.9560 H   0  0  0  0  0  0  0  0  0  0  0  0
   38.5030   29.3830   43.4170 H   0  0  0  0  0  0  0  0  0  0  0  0
   39.7290   28.7760   44.6440 H   0  0  0  0  0  0  0  0  0  0  0  0
   37.7300   29.4290   45.5880 H   0  0  0  0  0  0  0  0  0  0  0  0
   38.6310   32.5780   48.1590 C   0  0  0  0  0  0  0  0  0  0  0  0
   38.4980   31.2930   47.5250 C   0  0  0  0  0  0  0  0  0  0  0  0
   37.6020   30.4090   48.0140 C   0  0  0  0  0  0  0  0  0  0  0  0
   36.8580   30.7920   49.1060 N   0  0  0  0  0  0  0  0  0  0  0  0
   37.0070   32.0300   49.6940 C   0  0  0  0  0  0  0  0  0  0  0  0
   37.9120   32.9280   49.2020 N   0  0  0  0  0  0  0  0  0  0  0  0
   39.3720   33.2080   47.6930 H   0  0  0  0  0  0  0  0  0  0  0  0
   37.3800   29.4280   47.6700 H   0  0  0  0  0  0  0  0  0  0  0  0
   36.3820   32.2470   50.5460 H   0  0  0  0  0  0  0  0  0  0  0  0
   37.5540   31.3420   44.6460 C   0  0  0  0  0  0  0  0  0  0  0  0
   37.5310   32.5930   44.9300 O   0  0  0  0  0  0  0  0  0  0  0  0
   36.7840   30.8790   43.6340 O   0  0  0  0  0  0  0  0  0  0  0  0
   35.6300   31.6120   43.2600 C   0  0  0  0  0  0  0  0  0  0  0  0
   34.3320   31.1790   43.5740 C   0  0  0  0  0  0  0  0  0  0  0  0
   33.5120   32.1460   43.0490 C   0  0  0  0  0  0  0  0  0  0  0  0
   34.2620   33.1190   42.4460 N   0  0  0  0  0  0  0  0  0  0  0  0
   35.5260   32.7610   42.5960 N   0  0  0  0  0  0  0  0  0  0  0  0
   34.0490   30.2900   44.1060 H   0  0  0  0  0  0  0  0  0  0  0  0
   32.4280   32.1180   43.1160 H   0  0  0  0  0  0  0  0  0  0  0  0
   32.7020   36.5050   40.5600 C   0  0  0  0  0  0  0  0  0  0  0  0
   31.8690   35.6510   41.2450 C   0  0  0  0  0  0  0  0  0  0  0  0
   32.4090   34.5280   41.8670 C   0  0  0  0  0  0  0  0  0  0  0  0
   33.7690   34.2830   41.7900 C   0  0  0  0  0  0  0  0  0  0  0  0
   34.6380   35.1140   41.1140 C   0  0  0  0  0  0  0  0  0  0  0  0
   34.0460   36.2130   40.5170 C   0  0  0  0  0  0  0  0  0  0  0  0
   31.3160   37.6320   38.6970 H   0  0  0  0  0  0  0  0  0  0  0  0
   32.1730   37.9620   39.7240 S   0  0  0  0  0  0  0  0  0  0  0  0
   31.4740   38.9010   40.6520 O   0  0  0  0  0  0  0  0  0  0  0  0
   33.3700   38.6640   39.1310 O   0  0  0  0  0  0  0  0  0  0  0  0
  1  7  1  1  0  0  0
  1 18  1  0  0  0  0
  2  1  1  0  0  0  0
  2  9  1  0  0  0  0
  3 11  1  0  0  0  0
  3  2  1  0  0  0  0
  4  5  1  0  0  0  0
  4  3  1  0  0  0  0
  5 15  1  0  0  0  0
  5  6  1  0  0  0  0
  6 16  1  1  0  0  0
  6  1  1  0  0  0  0
  8  2  1  0  0  0  0
 10  3  1  0  0  0  0
 12  4  1  0  0  0  0
 13  4  1  0  0  0  0
 14  5  1  0  0  0  0
 17 22  1  0  0  0  0
 18 19  1  0  0  0  0
 18 17  2  0  0  0  0
 19 20  2  0  0  0  0
 20 21  1  0  0  0  0
 21 25  1  0  0  0  0
 22 21  2  0  0  0  0
 23 17  1  0  0  0  0
 24 19  1  0  0  0  0
 26 27  2  0  0  0  0
 26  6  1  0  0  0  0
 28 26  1  0  0  0  0
 29 30  1  0  0  0  0
 29 28  1  0  0  0  0
 30 34  1  0  0  0  0
 31 35  1  0  0  0  0
 31 30  2  0  0  0  0
 32 33  1  0  0  0  0
 32 31  1  0  0  0  0
 33 29  2  0  0  0  0
 36 37  1  0  0  0  0
 37 38  2  0  0  0  0
 39 38  1  0  0  0  0
 39 32  1  0  0  0  0
 40 39  2  0  0  0  0
 41 36  2  0  0  0  0
 41 40  1  0  0  0  0
 42 43  1  0  0  0  0
 43 36  1  0  0  0  0
 43 44  2  0  0  0  0
 45 43  2  0  0  0  0
M  END
>  <minimizedAffinity>
-5.85469961

>  <minimizedRMSD>
2.5391717

$$$$
