
 OpenBabel03252512003D

 21 22  0  0  0  0  0  0  0  0999 V2000
   38.4890   31.6720   49.8180 C   0  0  0  0  0  0  0  0  0  0  0  0
   39.2170   30.9970   49.3030 H   0  0  0  0  0  0  0  0  0  0  0  0
   38.9360   32.0270   50.7680 H   0  0  0  0  0  0  0  0  0  0  0  0
   37.2150   30.0880   51.1810 C   0  0  0  0  0  0  0  0  0  0  0  0
   37.2800   30.9230   50.0630 C   0  0  0  0  0  0  0  0  0  0  0  0
   36.1740   30.9950   49.2260 C   0  0  0  0  0  0  0  0  0  0  0  0
   35.0720   30.2450   49.5370 N   0  0  0  0  0  0  0  0  0  0  0  0
   35.0250   29.4400   50.6270 C   0  0  0  0  0  0  0  0  0  0  0  0
   36.1010   29.3660   51.4440 N   0  0  0  0  0  0  0  0  0  0  0  0
   38.0700   30.0210   51.8410 H   0  0  0  0  0  0  0  0  0  0  0  0
   36.1400   31.6120   48.3410 H   0  0  0  0  0  0  0  0  0  0  0  0
   34.0990   28.8940   50.7690 H   0  0  0  0  0  0  0  0  0  0  0  0
   38.1620   32.8600   48.9310 C   0  0  0  0  0  0  0  0  0  0  0  0
   38.5490   33.7920   49.3530 H   0  0  0  0  0  0  0  0  0  0  0  0
   37.0920   32.9250   48.7370 H   0  0  0  0  0  0  0  0  0  0  0  0
   38.9340   32.6000   47.6600 C   0  0  0  0  0  0  0  0  0  0  0  0
   39.1450   31.4370   46.9380 C   0  0  0  0  0  0  0  0  0  0  0  0
   39.9110   31.7560   45.8740 N   0  0  0  0  0  0  0  0  0  0  0  0
   40.2010   33.0570   45.8770 C   0  0  0  0  0  0  0  0  0  0  0  0
   39.6040   33.5540   46.9610 N   0  0  0  0  0  0  0  0  0  0  0  0
   39.6350   34.5700   47.2620 H   0  0  0  0  0  0  0  0  0  0  0  0
  1  5  1  0  0  0  0
  1  3  1  0  0  0  0
  2  1  1  0  0  0  0
  4  9  1  0  0  0  0
  4 10  1  0  0  0  0
  5  4  2  0  0  0  0
  6  7  2  0  0  0  0
  6  5  1  0  0  0  0
  7  8  1  0  0  0  0
  8 12  1  0  0  0  0
  8  9  2  0  0  0  0
 11  6  1  0  0  0  0
 13 14  1  0  0  0  0
 13  1  1  0  0  0  0
 15 13  1  0  0  0  0
 16 13  1  0  0  0  0
 17 16  2  0  0  0  0
 18 19  2  0  0  0  0
 18 17  1  0  0  0  0
 19 20  1  0  0  0  0
 20 21  1  0  0  0  0
 20 16  1  0  0  0  0
M  END
>  <minimizedAffinity>
-4.94753885

>  <minimizedRMSD>
2.2007854

$$$$
