
 OpenBabel03252514023D

 28 30  0  0  1  0  0  0  0  0999 V2000
   35.2250   29.4400   49.0590 C   0  0  2  0  0  0  0  0  0  0  0  0
   34.0810   29.2550   49.9630 C   0  0  0  0  0  0  0  0  0  0  0  0
   34.5150   28.0800   49.2140 C   0  0  1  0  0  0  0  0  0  0  0  0
   35.0830   29.9650   48.1140 H   0  0  0  0  0  0  0  0  0  0  0  0
   34.2090   29.1980   51.0670 H   0  0  0  0  0  0  0  0  0  0  0  0
   33.0910   29.7300   49.7190 H   0  0  0  0  0  0  0  0  0  0  0  0
   35.2040   27.2760   49.4890 H   0  0  0  0  0  0  0  0  0  0  0  0
   36.6190   29.4320   49.6820 C   0  0  0  0  0  0  0  0  0  0  0  0
   37.1470   28.4830   49.4970 H   0  0  0  0  0  0  0  0  0  0  0  0
   36.4770   29.5190   50.7780 H   0  0  0  0  0  0  0  0  0  0  0  0
   37.9040   32.8550   49.4410 C   0  0  0  0  0  0  0  0  0  0  0  0
   38.6760   32.8160   48.2690 C   0  0  0  0  0  0  0  0  0  0  0  0
   38.7460   31.6000   47.5680 C   0  0  0  0  0  0  0  0  0  0  0  0
   38.0550   30.5240   48.0720 N   0  0  0  0  0  0  0  0  0  0  0  0
   37.3340   30.6110   49.1920 C   0  0  0  0  0  0  0  0  0  0  0  0
   37.2640   31.7810   49.8690 N   0  0  0  0  0  0  0  0  0  0  0  0
   37.8900   33.8160   49.9330 H   0  0  0  0  0  0  0  0  0  0  0  0
   39.2350   33.6180   47.8270 H   0  0  0  0  0  0  0  0  0  0  0  0
   39.3000   31.4270   46.6550 H   0  0  0  0  0  0  0  0  0  0  0  0
   33.5970   27.6570   48.1030 C   0  0  0  0  0  0  0  0  0  0  0  0
   33.9200   26.5350   47.5470 O   0  0  0  0  0  0  0  0  0  0  0  0
   32.4800   28.3400   47.6560 O   0  0  0  0  0  0  0  0  0  0  0  0
   31.2080   27.7630   47.6380 C   0  0  0  0  0  0  0  0  0  0  0  0
   30.8550   27.1200   48.9560 C   0  0  0  0  0  0  0  0  0  0  0  0
   30.0300   27.9970   49.8580 C   0  0  0  0  0  0  0  0  0  0  0  0
   28.7560   28.4600   49.2260 C   0  0  0  0  0  0  0  0  0  0  0  0
   28.7650   28.3130   47.7220 C   0  0  0  0  0  0  0  0  0  0  0  0
   30.1160   28.6750   47.1340 C   0  0  0  0  0  0  0  0  0  0  0  0
  1  4  1  6  0  0  0
  1  3  1  0  0  0  0
  1  8  1  0  0  0  0
  1  2  1  0  0  0  0
  2  5  1  0  0  0  0
  3  7  1  1  0  0  0
  3  2  1  0  0  0  0
  6  2  1  0  0  0  0
  8 10  1  0  0  0  0
  9  8  1  0  0  0  0
 11 16  1  0  0  0  0
 11 17  1  0  0  0  0
 12 11  2  0  0  0  0
 13 14  2  0  0  0  0
 13 12  1  0  0  0  0
 14 15  1  0  0  0  0
 15  8  1  0  0  0  0
 15 16  2  0  0  0  0
 18 12  1  0  0  0  0
 19 13  1  0  0  0  0
 20  3  1  0  0  0  0
 21 20  2  0  0  0  0
 22 20  1  0  0  0  0
 23 22  1  0  0  0  0
 23 24  1  0  0  0  0
 24 25  1  0  0  0  0
 26 25  1  0  0  0  0
 27 26  1  0  0  0  0
 28 23  1  0  0  0  0
 28 27  1  0  0  0  0
M  END
>  <minimizedAffinity>
-5.45152473

>  <minimizedRMSD>
0.768462181

$$$$
