
 OpenBabel03252513083D

 40 42  0  0  0  0  0  0  0  0999 V2000
   37.2770   31.0680   45.2340 C   0  0  0  0  0  0  0  0  0  0  0  0
   37.2310   30.1140   44.6370 H   0  0  0  0  0  0  0  0  0  0  0  0
   36.2330   31.4610   45.2060 H   0  0  0  0  0  0  0  0  0  0  0  0
   40.0020   33.5460   44.4670 C   0  0  0  0  0  0  0  0  0  0  0  0
   39.1460   32.6490   45.1680 C   0  0  0  0  0  0  0  0  0  0  0  0
   38.1480   31.9780   44.5310 C   0  0  0  0  0  0  0  0  0  0  0  0
   38.0120   32.2130   43.1820 N   0  0  0  0  0  0  0  0  0  0  0  0
   38.8070   33.0450   42.5380 C   0  0  0  0  0  0  0  0  0  0  0  0
   39.7890   33.7140   43.1260 N   0  0  0  0  0  0  0  0  0  0  0  0
   40.7970   34.0950   44.9160 H   0  0  0  0  0  0  0  0  0  0  0  0
   39.3920   32.5910   46.1950 H   0  0  0  0  0  0  0  0  0  0  0  0
   38.6200   33.2710   41.0650 C   0  0  0  0  0  0  0  0  0  0  0  0
   39.1290   34.1690   40.7070 H   0  0  0  0  0  0  0  0  0  0  0  0
   39.0090   32.3760   40.5210 H   0  0  0  0  0  0  0  0  0  0  0  0
   37.1280   33.2900   40.7460 C   0  0  0  0  0  0  0  0  0  0  0  0
   36.7950   32.2450   40.6360 H   0  0  0  0  0  0  0  0  0  0  0  0
   36.6330   33.6810   41.6780 H   0  0  0  0  0  0  0  0  0  0  0  0
   36.8220   34.1410   39.5930 C   0  0  0  0  0  0  0  0  0  0  0  0
   35.5530   34.6440   39.3970 C   0  0  0  0  0  0  0  0  0  0  0  0
   35.5870   35.3880   38.2530 N   0  0  0  0  0  0  0  0  0  0  0  0
   36.8380   35.3440   37.7620 C   0  0  0  0  0  0  0  0  0  0  0  0
   37.5880   34.5880   38.5740 N   0  0  0  0  0  0  0  0  0  0  0  0
   38.5950   34.3600   38.4680 H   0  0  0  0  0  0  0  0  0  0  0  0
   37.6450   30.7520   46.6240 C   0  0  0  0  0  0  0  0  0  0  0  0
   38.3360   29.8550   46.5740 H   0  0  0  0  0  0  0  0  0  0  0  0
   38.3020   31.5510   47.0210 H   0  0  0  0  0  0  0  0  0  0  0  0
   36.6490   30.4300   47.5600 N   0  0  0  0  0  0  0  0  0  0  0  0
   35.3460   30.3160   47.3650 C   0  0  0  0  0  0  0  0  0  0  0  0
   34.4070   29.9880   48.3290 C   0  0  0  0  0  0  0  0  0  0  0  0
   34.8340   29.7560   49.6060 C   0  0  0  0  0  0  0  0  0  0  0  0
   34.0620   29.4570   50.5370 O   0  0  0  0  0  0  0  0  0  0  0  0
   36.1270   29.8650   49.8210 N   0  0  0  0  0  0  0  0  0  0  0  0
   37.0000   30.1800   48.8760 C   0  0  0  0  0  0  0  0  0  0  0  0
   38.2350   30.2620   49.1750 O   0  0  0  0  0  0  0  0  0  0  0  0
   34.9820   30.4980   46.3460 H   0  0  0  0  0  0  0  0  0  0  0  0
   33.3620   29.9220   48.0630 H   0  0  0  0  0  0  0  0  0  0  0  0
   36.6050   29.6210   51.1770 C   0  0  0  0  0  0  0  0  0  0  0  0
   37.5680   28.6290   51.1770 F   0  0  0  0  0  0  0  0  0  0  0  0
   35.5330   29.1970   51.9260 F   0  0  0  0  0  0  0  0  0  0  0  0
   37.1180   30.7910   51.6630 F   0  0  0  0  0  0  0  0  0  0  0  0
  1 24  1  0  0  0  0
  2  1  1  0  0  0  0
  3  1  1  0  0  0  0
  4 10  1  0  0  0  0
  4  5  1  0  0  0  0
  5 11  1  0  0  0  0
  6  5  2  0  0  0  0
  6  1  1  0  0  0  0
  7  6  1  0  0  0  0
  8  9  1  0  0  0  0
  8  7  2  0  0  0  0
  9  4  2  0  0  0  0
 12  8  1  0  0  0  0
 13 12  1  0  0  0  0
 14 12  1  0  0  0  0
 15 12  1  0  0  0  0
 15 17  1  0  0  0  0
 16 15  1  0  0  0  0
 18 15  1  0  0  0  0
 19 18  2  0  0  0  0
 20 19  1  0  0  0  0
 21 20  2  0  0  0  0
 21 22  1  0  0  0  0
 22 18  1  0  0  0  0
 23 22  1  0  0  0  0
 24 26  1  0  0  0  0
 24 27  1  0  0  0  0
 25 24  1  0  0  0  0
 27 33  1  0  0  0  0
 28 27  1  0  0  0  0
 28 29  2  0  0  0  0
 29 30  1  0  0  0  0
 30 32  1  0  0  0  0
 30 31  2  0  0  0  0
 32 37  1  0  0  0  0
 33 34  2  0  0  0  0
 33 32  1  0  0  0  0
 35 28  1  0  0  0  0
 36 29  1  0  0  0  0
 37 38  1  0  0  0  0
 37 40  1  0  0  0  0
 37 39  1  0  0  0  0
M  END
>  <minimizedAffinity>
-5.51868057

>  <minimizedRMSD>
10.3701363

$$$$
