
 OpenBabel03252511023D

 25 26  0  0  0  0  0  0  0  0999 V2000
   37.2830   31.4400   48.5520 C   0  0  0  0  0  0  0  0  0  0  0  0
   37.7800   32.3470   49.5020 C   0  0  0  0  0  0  0  0  0  0  0  0
   38.7520   33.2590   49.0860 C   0  0  0  0  0  0  0  0  0  0  0  0
   39.1540   33.2020   47.7690 N   0  0  0  0  0  0  0  0  0  0  0  0
   38.6490   32.3230   46.9130 C   0  0  0  0  0  0  0  0  0  0  0  0
   37.6920   31.4090   47.2840 N   0  0  0  0  0  0  0  0  0  0  0  0
   37.4600   32.3840   50.5290 H   0  0  0  0  0  0  0  0  0  0  0  0
   39.1970   33.9900   49.7240 H   0  0  0  0  0  0  0  0  0  0  0  0
   39.1050   32.2980   45.5220 C   0  0  0  0  0  0  0  0  0  0  0  0
   40.2200   31.6150   45.0960 C   0  0  0  0  0  0  0  0  0  0  0  0
   40.3530   31.8090   43.7240 C   0  0  0  0  0  0  0  0  0  0  0  0
   39.2720   32.6280   43.3900 C   0  0  0  0  0  0  0  0  0  0  0  0
   38.5920   32.8720   44.4740 O   0  0  0  0  0  0  0  0  0  0  0  0
   40.9050   31.0190   45.6840 H   0  0  0  0  0  0  0  0  0  0  0  0
   41.0900   31.4450   43.0230 H   0  0  0  0  0  0  0  0  0  0  0  0
   38.8370   33.2680   41.7590 S   0  0  0  0  0  0  0  0  0  0  0  0
   40.0250   33.6140   41.0530 H   0  0  0  0  0  0  0  0  0  0  0  0
   36.2720   30.4990   49.0080 C   0  0  0  0  0  0  0  0  0  0  0  0
   35.0490   30.6820   48.6800 O   0  0  0  0  0  0  0  0  0  0  0  0
   36.6430   29.4090   49.7990 O   0  0  0  0  0  0  0  0  0  0  0  0
   36.5690   29.4540   51.1910 C   0  0  0  0  0  0  0  0  0  0  0  0
   37.7030   29.7470   52.0030 N   0  0  0  0  0  0  0  0  0  0  0  0
   35.4210   29.2130   51.6410 O   0  0  0  0  0  0  0  0  0  0  0  0
   37.7610   30.5480   52.6860 H   0  0  0  0  0  0  0  0  0  0  0  0
   38.6440   29.2640   52.0840 H   0  0  0  0  0  0  0  0  0  0  0  0
  1 18  1  0  0  0  0
  1  2  1  0  0  0  0
  2  7  1  0  0  0  0
  3  2  2  0  0  0  0
  3  8  1  0  0  0  0
  4  3  1  0  0  0  0
  5  6  1  0  0  0  0
  5  4  2  0  0  0  0
  6  1  2  0  0  0  0
  9  5  1  0  0  0  0
 10  9  2  0  0  0  0
 10 14  1  0  0  0  0
 11 10  1  0  0  0  0
 12 11  2  0  0  0  0
 12 13  1  0  0  0  0
 13  9  1  0  0  0  0
 15 11  1  0  0  0  0
 16 12  1  0  0  0  0
 17 16  1  0  0  0  0
 18 20  1  0  0  0  0
 19 18  2  0  0  0  0
 20 21  1  0  0  0  0
 21 23  2  0  0  0  0
 21 22  1  0  0  0  0
 22 25  1  0  0  0  0
 22 24  1  0  0  0  0
M  END
>  <minimizedAffinity>
-5.53137827

>  <minimizedRMSD>
0.459078133

$$$$
