
 OpenBabel03252512573D

 26 29  0  0  0  0  0  0  0  0999 V2000
   38.5280   31.8920   47.4590 C   0  0  0  0  0  0  0  0  0  0  0  0
   39.3920   32.9200   47.4800 N   0  0  0  0  0  0  0  0  0  0  0  0
   39.8580   33.1350   46.2820 O   0  0  0  0  0  0  0  0  0  0  0  0
   39.3200   32.2700   45.4720 C   0  0  0  0  0  0  0  0  0  0  0  0
   38.4730   31.4620   46.1600 N   0  0  0  0  0  0  0  0  0  0  0  0
   39.5350   32.1270   44.0650 N   0  0  0  0  0  0  0  0  0  0  0  0
   39.1550   33.0510   43.1930 N   0  0  0  0  0  0  0  0  0  0  0  0
   39.4700   32.6800   41.9440 C   0  0  0  0  0  0  0  0  0  0  0  0
   40.0900   31.4250   42.0900 C   0  0  0  0  0  0  0  0  0  0  0  0
   40.1200   31.0980   43.4270 C   0  0  0  0  0  0  0  0  0  0  0  0
   39.3440   33.1190   40.9800 H   0  0  0  0  0  0  0  0  0  0  0  0
   40.5180   30.7210   41.3730 H   0  0  0  0  0  0  0  0  0  0  0  0
   40.5130   30.2220   43.9280 H   0  0  0  0  0  0  0  0  0  0  0  0
   37.2840   30.5820   50.7540 C   0  0  0  0  0  0  0  0  0  0  0  0
   38.1040   31.2400   49.8320 C   0  0  0  0  0  0  0  0  0  0  0  0
   37.7210   31.2250   48.4820 C   0  0  0  0  0  0  0  0  0  0  0  0
   36.5750   30.5760   48.1180 N   0  0  0  0  0  0  0  0  0  0  0  0
   35.8260   29.9590   49.0510 C   0  0  0  0  0  0  0  0  0  0  0  0
   36.1650   29.9550   50.3550 N   0  0  0  0  0  0  0  0  0  0  0  0
   37.6020   30.6100   51.7870 H   0  0  0  0  0  0  0  0  0  0  0  0
   39.0250   31.7650   50.1070 H   0  0  0  0  0  0  0  0  0  0  0  0
   34.6040   29.2670   48.6610 C   0  0  0  0  0  0  0  0  0  0  0  0
   33.8580   28.4020   49.3430 C   0  0  0  0  0  0  0  0  0  0  0  0
   32.7260   27.8540   48.7870 C   0  0  0  0  0  0  0  0  0  0  0  0
   32.4440   28.2800   47.4800 C   0  0  0  0  0  0  0  0  0  0  0  0
   33.8170   29.4500   47.1000 S   0  0  0  0  0  0  0  0  0  0  0  0
  1  2  2  0  0  0  0
  1 16  1  0  0  0  0
  3  2  1  0  0  0  0
  4  5  2  0  0  0  0
  4  3  1  0  0  0  0
  5  1  1  0  0  0  0
  6  4  1  0  0  0  0
  7  6  1  0  0  0  0
  8  9  1  0  0  0  0
  8  7  2  0  0  0  0
  9 10  2  0  0  0  0
 10 13  1  0  0  0  0
 10  6  1  0  0  0  0
 11  8  1  0  0  0  0
 12  9  1  0  0  0  0
 14 20  1  0  0  0  0
 15 21  1  0  0  0  0
 15 14  2  0  0  0  0
 16 15  1  0  0  0  0
 17 16  2  0  0  0  0
 17 18  1  0  0  0  0
 18 19  2  0  0  0  0
 19 14  1  0  0  0  0
 22 18  1  0  0  0  0
 22 23  2  0  0  0  0
 24 23  1  0  0  0  0
 25 24  2  0  0  0  0
 26 25  1  0  0  0  0
 26 22  1  0  0  0  0
M  END
>  <minimizedAffinity>
-6.08076906

>  <minimizedRMSD>
1.25391495

$$$$
