
 OpenBabel03252513573D

 24 26  0  0  1  0  0  0  0  0999 V2000
   36.8400   29.3740   49.7210 C   0  0  0  0  0  0  0  0  0  0  0  0
   37.3970   28.4310   49.5730 H   0  0  0  0  0  0  0  0  0  0  0  0
   36.7050   29.4840   50.8330 H   0  0  0  0  0  0  0  0  0  0  0  0
   38.4080   32.6940   49.3860 C   0  0  0  0  0  0  0  0  0  0  0  0
   38.8900   32.6820   48.0560 C   0  0  0  0  0  0  0  0  0  0  0  0
   38.6630   31.5300   47.3070 C   0  0  0  0  0  0  0  0  0  0  0  0
   37.9960   30.5020   47.9050 N   0  0  0  0  0  0  0  0  0  0  0  0
   37.5490   30.5480   49.1810 C   0  0  0  0  0  0  0  0  0  0  0  0
   37.7690   31.6580   49.9010 N   0  0  0  0  0  0  0  0  0  0  0  0
   38.5800   33.5920   49.9840 H   0  0  0  0  0  0  0  0  0  0  0  0
   39.4090   33.5040   47.6140 H   0  0  0  0  0  0  0  0  0  0  0  0
   39.0050   31.4530   46.2800 H   0  0  0  0  0  0  0  0  0  0  0  0
   35.4640   29.3680   49.1240 C   0  0  2  0  0  0  0  0  0  0  0  0
   34.2640   29.5030   49.9940 C   0  0  0  0  0  0  0  0  0  0  0  0
   34.6120   28.1530   49.4760 C   0  0  1  0  0  0  0  0  0  0  0  0
   35.3570   29.7850   48.0870 H   0  0  0  0  0  0  0  0  0  0  0  0
   33.3800   30.0360   49.5850 H   0  0  0  0  0  0  0  0  0  0  0  0
   34.4350   29.6100   51.0970 H   0  0  0  0  0  0  0  0  0  0  0  0
   35.0730   27.3920   50.1220 H   0  0  0  0  0  0  0  0  0  0  0  0
   33.6960   27.6200   48.4520 C   0  0  0  0  0  0  0  0  0  0  0  0
   33.9560   26.9660   47.3040 C   0  0  0  0  0  0  0  0  0  0  0  0
   32.9500   26.5560   46.4920 C   0  0  0  0  0  0  0  0  0  0  0  0
   31.6580   26.8550   46.9250 C   0  0  0  0  0  0  0  0  0  0  0  0
   31.9200   27.7350   48.5160 S   0  0  0  0  0  0  0  0  0  0  0  0
  1  3  1  0  0  0  0
  2  1  1  0  0  0  0
  4  9  1  0  0  0  0
  4 10  1  0  0  0  0
  5  4  2  0  0  0  0
  6  7  2  0  0  0  0
  6  5  1  0  0  0  0
  7  8  1  0  0  0  0
  8  1  1  0  0  0  0
  8  9  2  0  0  0  0
 11  5  1  0  0  0  0
 12  6  1  0  0  0  0
 13 16  1  6  0  0  0
 13 15  1  0  0  0  0
 13  1  1  0  0  0  0
 13 14  1  0  0  0  0
 14 18  1  0  0  0  0
 15 14  1  0  0  0  0
 15 19  1  1  0  0  0
 17 14  1  0  0  0  0
 20 24  1  0  0  0  0
 20 15  1  0  0  0  0
 21 20  2  0  0  0  0
 22 23  2  0  0  0  0
 22 21  1  0  0  0  0
 23 24  1  0  0  0  0
M  END
>  <minimizedAffinity>
-4.87572289

>  <minimizedRMSD>
0.539089382

$$$$
