
 OpenBabel03252513533D

 37 39  0  0  1  0  0  0  0  0999 V2000
   35.2130   29.9640   46.4450 C   0  0  0  0  0  0  0  0  0  0  0  0
   35.7250   29.7770   47.5740 O   0  0  0  0  0  0  0  0  0  0  0  0
   36.1420   30.2220   45.4110 N   0  0  0  0  0  0  0  0  0  0  0  0
   35.9170   29.4870   44.1730 C   0  0  0  0  0  0  0  0  0  0  0  0
   37.1540   29.4700   43.2980 C   0  0  0  0  0  0  0  0  0  0  0  0
   38.2570   29.4380   44.1520 O   0  0  0  0  0  0  0  0  0  0  0  0
   38.3990   30.7460   44.6280 C   0  0  0  0  0  0  0  0  0  0  0  0
   37.2460   31.1350   45.5320 C   0  0  2  0  0  0  0  0  0  0  0  0
   35.6270   28.4320   44.4090 H   0  0  0  0  0  0  0  0  0  0  0  0
   35.0770   29.9380   43.6300 H   0  0  0  0  0  0  0  0  0  0  0  0
   37.1530   28.5410   42.6670 H   0  0  0  0  0  0  0  0  0  0  0  0
   37.1920   30.3700   42.6460 H   0  0  0  0  0  0  0  0  0  0  0  0
   39.3790   30.9290   45.1090 H   0  0  0  0  0  0  0  0  0  0  0  0
   38.3570   31.3870   43.7240 H   0  0  0  0  0  0  0  0  0  0  0  0
   37.0130   32.1890   45.3450 H   0  0  0  0  0  0  0  0  0  0  0  0
   31.6310   28.8090   46.6640 C   0  0  0  0  0  0  0  0  0  0  0  0
   33.0560   28.8260   46.8300 C   0  0  0  0  0  0  0  0  0  0  0  0
   33.7690   29.8990   46.3050 C   0  0  0  0  0  0  0  0  0  0  0  0
   33.0460   30.8630   45.6640 N   0  0  0  0  0  0  0  0  0  0  0  0
   31.7250   30.8120   45.5300 C   0  0  0  0  0  0  0  0  0  0  0  0
   31.0280   29.8020   46.0210 N   0  0  0  0  0  0  0  0  0  0  0  0
   33.5910   28.0390   47.3470 H   0  0  0  0  0  0  0  0  0  0  0  0
   31.1170   31.9700   44.7930 C   0  0  0  0  0  0  0  0  0  0  0  0
   31.6460   33.1760   45.2680 F   0  0  0  0  0  0  0  0  0  0  0  0
   31.4740   31.9020   43.4580 F   0  0  0  0  0  0  0  0  0  0  0  0
   29.7330   31.9610   44.8340 F   0  0  0  0  0  0  0  0  0  0  0  0
   30.9320   27.7360   47.1910 O   0  0  0  0  0  0  0  0  0  0  0  0
   31.1910   27.1580   48.4260 C   0  0  0  0  0  0  0  0  0  0  0  0
   32.0740   26.0830   48.3460 F   0  0  0  0  0  0  0  0  0  0  0  0
   31.5780   28.0350   49.3970 F   0  0  0  0  0  0  0  0  0  0  0  0
   29.9460   26.6340   48.8410 F   0  0  0  0  0  0  0  0  0  0  0  0
   37.7580   30.9330   46.8450 O   0  0  0  0  0  0  0  0  0  0  0  0
   37.7520   32.1290   47.5510 C   0  0  0  0  0  0  0  0  0  0  0  0
   39.1270   32.7500   47.2390 C   0  0  0  0  0  0  0  0  0  0  0  0
   39.5010   33.5620   48.4600 C   0  0  0  0  0  0  0  0  0  0  0  0
   38.3760   33.3810   49.4460 C   0  0  0  0  0  0  0  0  0  0  0  0
   37.8300   32.0130   49.0300 C   0  0  0  0  0  0  0  0  0  0  0  0
  1  2  2  0  0  0  0
  3  8  1  0  0  0  0
  3  1  1  0  0  0  0
  4  9  1  0  0  0  0
  4  3  1  0  0  0  0
  5  6  1  0  0  0  0
  5  4  1  0  0  0  0
  6  7  1  0  0  0  0
  7 13  1  0  0  0  0
  7  8  1  0  0  0  0
  8 15  1  6  0  0  0
  8 32  1  0  0  0  0
 10  4  1  0  0  0  0
 11  5  1  0  0  0  0
 12  5  1  0  0  0  0
 14  7  1  0  0  0  0
 16 17  1  0  0  0  0
 16 27  1  0  0  0  0
 17 22  1  0  0  0  0
 18  1  1  0  0  0  0
 18 17  2  0  0  0  0
 19 18  1  0  0  0  0
 20 19  2  0  0  0  0
 20 21  1  0  0  0  0
 21 16  2  0  0  0  0
 23 26  1  0  0  0  0
 23 24  1  0  0  0  0
 23 20  1  0  0  0  0
 25 23  1  0  0  0  0
 27 28  1  0  0  0  0
 28 31  1  0  0  0  0
 28 30  1  0  0  0  0
 29 28  1  0  0  0  0
 32 33  1  0  0  0  0
 33 37  1  0  0  0  0
 34 33  1  0  0  0  0
 34 35  1  0  0  0  0
 35 36  1  0  0  0  0
 37 36  1  0  0  0  0
M  END
>  <minimizedAffinity>
-5.23424292

>  <minimizedRMSD>
3.83991289

$$$$
