
 OpenBabel03252514043D

 34 37  0  0  1  0  0  0  0  0999 V2000
   35.2540   29.1360   48.5190 C   0  0  2  0  0  0  0  0  0  0  0  0
   33.9980   29.3850   49.2180 C   0  0  0  0  0  0  0  0  0  0  0  0
   34.3180   27.9960   49.0410 C   0  0  1  0  0  0  0  0  0  0  0  0
   35.4050   29.2100   47.4450 H   0  0  0  0  0  0  0  0  0  0  0  0
   34.0770   29.8310   50.2530 H   0  0  0  0  0  0  0  0  0  0  0  0
   33.1820   29.8810   48.6300 H   0  0  0  0  0  0  0  0  0  0  0  0
   34.8190   27.3180   49.7300 H   0  0  0  0  0  0  0  0  0  0  0  0
   36.5330   29.2030   49.3670 C   0  0  0  0  0  0  0  0  0  0  0  0
   37.1510   28.3140   49.1990 H   0  0  0  0  0  0  0  0  0  0  0  0
   36.2480   29.1840   50.4370 H   0  0  0  0  0  0  0  0  0  0  0  0
   37.5580   32.7040   49.6040 C   0  0  0  0  0  0  0  0  0  0  0  0
   38.4460   32.8360   48.5240 C   0  0  0  0  0  0  0  0  0  0  0  0
   38.6810   31.6980   47.7200 C   0  0  0  0  0  0  0  0  0  0  0  0
   38.0320   30.5330   48.0370 N   0  0  0  0  0  0  0  0  0  0  0  0
   37.1890   30.4700   49.0910 C   0  0  0  0  0  0  0  0  0  0  0  0
   36.9620   31.5580   49.8620 N   0  0  0  0  0  0  0  0  0  0  0  0
   37.4550   33.6340   50.1490 H   0  0  0  0  0  0  0  0  0  0  0  0
   38.9910   33.7200   48.2160 H   0  0  0  0  0  0  0  0  0  0  0  0
   39.3300   31.6610   46.8710 H   0  0  0  0  0  0  0  0  0  0  0  0
   33.5040   27.2790   47.9790 C   0  0  0  0  0  0  0  0  0  0  0  0
   33.8940   26.0610   47.7860 O   0  0  0  0  0  0  0  0  0  0  0  0
   32.4350   27.7990   47.2540 O   0  0  0  0  0  0  0  0  0  0  0  0
   31.2050   28.0500   47.7950 C   0  0  0  0  0  0  0  0  0  0  0  0
   30.7590   27.6160   49.1380 C   0  0  0  0  0  0  0  0  0  0  0  0
   29.5100   27.9400   49.5360 C   0  0  0  0  0  0  0  0  0  0  0  0
   28.6470   28.6760   48.7010 C   0  0  0  0  0  0  0  0  0  0  0  0
   29.6620   28.9580   47.1840 S   0  0  0  0  0  0  0  0  0  0  0  0
   31.4460   27.0660   49.7260 H   0  0  0  0  0  0  0  0  0  0  0  0
   29.0860   27.6760   50.4870 H   0  0  0  0  0  0  0  0  0  0  0  0
   27.3410   29.1520   48.8220 C   0  0  0  0  0  0  0  0  0  0  0  0
   26.9530   30.4330   48.6930 C   0  0  0  0  0  3  0  0  0  0  0  0
   25.6380   30.7750   48.8350 C   0  0  0  0  0  3  0  0  0  0  0  0
   24.7340   29.6720   49.1260 C   0  0  0  0  0  3  0  0  0  0  0  0
   25.9480   28.2150   49.1610 S   0  0  0  0  0  0  0  0  0  0  0  0
  1  4  1  6  0  0  0
  1  3  1  0  0  0  0
  1  2  1  0  0  0  0
  1  8  1  0  0  0  0
  2  5  1  0  0  0  0
  3  2  1  0  0  0  0
  3  7  1  1  0  0  0
  6  2  1  0  0  0  0
  8 10  1  0  0  0  0
  9  8  1  0  0  0  0
 11 16  1  0  0  0  0
 11 17  1  0  0  0  0
 12 11  2  0  0  0  0
 13 14  2  0  0  0  0
 13 12  1  0  0  0  0
 14 15  1  0  0  0  0
 15  8  1  0  0  0  0
 15 16  2  0  0  0  0
 18 12  1  0  0  0  0
 19 13  1  0  0  0  0
 20  3  1  0  0  0  0
 21 20  2  0  0  0  0
 22 23  1  0  0  0  0
 22 20  1  0  0  0  0
 23 24  2  0  0  0  0
 24 25  1  0  0  0  0
 24 28  1  0  0  0  0
 25 29  1  0  0  0  0
 26 30  1  0  0  0  0
 26 25  2  0  0  0  0
 27 23  1  0  0  0  0
 27 26  1  0  0  0  0
 30 34  1  0  0  0  0
 31 30  2  0  0  0  0
 31 32  1  0  0  0  0
 32 33  2  0  0  0  0
 33 34  1  0  0  0  0
M  END
>  <minimizedAffinity>
-6.16531801

>  <minimizedRMSD>
1.82414246

$$$$
