
 OpenBabel03252514043D

 34 37  0  0  1  0  0  0  0  0999 V2000
   35.3540   29.4410   48.9950 C   0  0  2  0  0  0  0  0  0  0  0  0
   34.3180   29.5080   50.0200 C   0  0  0  0  0  0  0  0  0  0  0  0
   34.4780   28.2150   49.4150 C   0  0  1  0  0  0  0  0  0  0  0  0
   35.2570   29.8020   47.9740 H   0  0  0  0  0  0  0  0  0  0  0  0
   34.6690   29.6560   51.0830 H   0  0  0  0  0  0  0  0  0  0  0  0
   33.4300   30.1560   49.7990 H   0  0  0  0  0  0  0  0  0  0  0  0
   35.0700   27.3690   49.7610 H   0  0  0  0  0  0  0  0  0  0  0  0
   36.7960   29.2580   49.4920 C   0  0  0  0  0  0  0  0  0  0  0  0
   37.1660   28.2600   49.2360 H   0  0  0  0  0  0  0  0  0  0  0  0
   36.7980   29.3150   50.5980 H   0  0  0  0  0  0  0  0  0  0  0  0
   38.5130   32.4760   49.2360 C   0  0  0  0  0  0  0  0  0  0  0  0
   39.0940   32.4120   47.9590 C   0  0  0  0  0  0  0  0  0  0  0  0
   38.8800   31.2420   47.1950 C   0  0  0  0  0  0  0  0  0  0  0  0
   38.1230   30.2390   47.7410 N   0  0  0  0  0  0  0  0  0  0  0  0
   37.5910   30.3610   48.9770 C   0  0  0  0  0  0  0  0  0  0  0  0
   37.7940   31.4800   49.7100 N   0  0  0  0  0  0  0  0  0  0  0  0
   38.7420   33.4120   49.7290 H   0  0  0  0  0  0  0  0  0  0  0  0
   39.7010   33.1620   47.4670 H   0  0  0  0  0  0  0  0  0  0  0  0
   39.2620   31.0630   46.2130 H   0  0  0  0  0  0  0  0  0  0  0  0
   33.3860   27.8240   48.4360 C   0  0  0  0  0  0  0  0  0  0  0  0
   33.5150   26.6130   47.9990 O   0  0  0  0  0  0  0  0  0  0  0  0
   32.3230   28.6170   48.0100 O   0  0  0  0  0  0  0  0  0  0  0  0
   31.0610   28.5310   48.5280 C   0  0  0  0  0  0  0  0  0  0  0  0
   30.7050   28.7550   49.9470 C   0  0  0  0  0  0  0  0  0  0  0  0
   29.4100   28.6340   50.3100 C   0  0  0  0  0  0  0  0  0  0  0  0
   28.4150   28.3060   49.3680 C   0  0  0  0  0  0  0  0  0  0  0  0
   29.3640   28.1380   47.7910 S   0  0  0  0  0  0  0  0  0  0  0  0
   31.4880   29.0000   50.6140 H   0  0  0  0  0  0  0  0  0  0  0  0
   29.0420   28.7740   51.3100 H   0  0  0  0  0  0  0  0  0  0  0  0
   27.0340   28.1150   49.4300 C   0  0  0  0  0  0  0  0  0  0  0  0
   26.1570   28.3720   48.4440 C   0  0  0  0  0  3  0  0  0  0  0  0
   24.8230   28.1430   48.6280 C   0  0  0  0  0  3  0  0  0  0  0  0
   24.4550   27.6170   49.9340 C   0  0  0  0  0  3  0  0  0  0  0  0
   26.1540   27.5150   50.7710 S   0  0  0  0  0  0  0  0  0  0  0  0
  1  4  1  6  0  0  0
  1  3  1  0  0  0  0
  1  8  1  0  0  0  0
  1  2  1  0  0  0  0
  2  5  1  0  0  0  0
  3  7  1  1  0  0  0
  3  2  1  0  0  0  0
  6  2  1  0  0  0  0
  8 10  1  0  0  0  0
  9  8  1  0  0  0  0
 11 16  1  0  0  0  0
 11 17  1  0  0  0  0
 12 11  2  0  0  0  0
 13 14  2  0  0  0  0
 13 12  1  0  0  0  0
 14 15  1  0  0  0  0
 15  8  1  0  0  0  0
 15 16  2  0  0  0  0
 18 12  1  0  0  0  0
 19 13  1  0  0  0  0
 20  3  1  0  0  0  0
 21 20  2  0  0  0  0
 22 20  1  0  0  0  0
 22 23  1  0  0  0  0
 23 24  2  0  0  0  0
 24 25  1  0  0  0  0
 24 28  1  0  0  0  0
 25 29  1  0  0  0  0
 26 30  1  0  0  0  0
 26 25  2  0  0  0  0
 27 23  1  0  0  0  0
 27 26  1  0  0  0  0
 30 34  1  0  0  0  0
 31 32  1  0  0  0  0
 31 30  2  0  0  0  0
 32 33  2  0  0  0  0
 33 34  1  0  0  0  0
M  END
>  <minimizedAffinity>
-0.982176125

>  <minimizedRMSD>
1.158723

$$$$
