
 OpenBabel03252514043D

 34 37  0  0  1  0  0  0  0  0999 V2000
   35.2250   29.1640   48.5680 C   0  0  2  0  0  0  0  0  0  0  0  0
   33.9960   29.3910   49.3210 C   0  0  0  0  0  0  0  0  0  0  0  0
   34.3080   28.0080   49.0890 C   0  0  1  0  0  0  0  0  0  0  0  0
   35.3360   29.2710   47.4920 H   0  0  0  0  0  0  0  0  0  0  0  0
   34.1130   29.8050   50.3650 H   0  0  0  0  0  0  0  0  0  0  0  0
   33.1590   29.9050   48.7790 H   0  0  0  0  0  0  0  0  0  0  0  0
   34.8330   27.3090   49.7380 H   0  0  0  0  0  0  0  0  0  0  0  0
   36.5350   29.2050   49.3700 C   0  0  0  0  0  0  0  0  0  0  0  0
   37.1380   28.3140   49.1640 H   0  0  0  0  0  0  0  0  0  0  0  0
   36.2890   29.1700   50.4490 H   0  0  0  0  0  0  0  0  0  0  0  0
   37.5640   32.7060   49.6030 C   0  0  0  0  0  0  0  0  0  0  0  0
   38.4510   32.8360   48.5210 C   0  0  0  0  0  0  0  0  0  0  0  0
   38.6830   31.6970   47.7170 C   0  0  0  0  0  0  0  0  0  0  0  0
   38.0330   30.5330   48.0360 N   0  0  0  0  0  0  0  0  0  0  0  0
   37.1910   30.4710   49.0910 C   0  0  0  0  0  0  0  0  0  0  0  0
   36.9670   31.5610   49.8620 N   0  0  0  0  0  0  0  0  0  0  0  0
   37.4630   33.6360   50.1470 H   0  0  0  0  0  0  0  0  0  0  0  0
   38.9960   33.7190   48.2120 H   0  0  0  0  0  0  0  0  0  0  0  0
   39.3300   31.6580   46.8680 H   0  0  0  0  0  0  0  0  0  0  0  0
   33.4540   27.3240   48.0370 C   0  0  0  0  0  0  0  0  0  0  0  0
   33.8080   26.0980   47.8240 O   0  0  0  0  0  0  0  0  0  0  0  0
   32.3860   27.8800   47.3370 O   0  0  0  0  0  0  0  0  0  0  0  0
   31.1500   28.0840   47.8830 C   0  0  0  0  0  0  0  0  0  0  0  0
   30.7280   27.6390   49.2310 C   0  0  0  0  0  0  0  0  0  0  0  0
   29.4690   27.9140   49.6330 C   0  0  0  0  0  0  0  0  0  0  0  0
   28.5720   28.6090   48.7980 C   0  0  0  0  0  0  0  0  0  0  0  0
   29.5680   28.9240   47.2750 S   0  0  0  0  0  0  0  0  0  0  0  0
   31.4400   27.1220   49.8180 H   0  0  0  0  0  0  0  0  0  0  0  0
   29.0600   27.6390   50.5880 H   0  0  0  0  0  0  0  0  0  0  0  0
   27.2480   29.0320   48.9240 C   0  0  0  0  0  0  0  0  0  0  0  0
   26.2040   28.2620   49.2760 C   0  0  0  0  0  3  0  0  0  0  0  0
   24.9490   28.7970   49.3640 C   0  0  0  0  0  3  0  0  0  0  0  0
   24.8530   30.2150   49.0540 C   0  0  0  0  0  3  0  0  0  0  0  0
   26.6630   30.6180   48.6550 S   0  0  0  0  0  0  0  0  0  0  0  0
  1  4  1  6  0  0  0
  1  3  1  0  0  0  0
  1  2  1  0  0  0  0
  1  8  1  0  0  0  0
  2  5  1  0  0  0  0
  3  2  1  0  0  0  0
  3  7  1  1  0  0  0
  6  2  1  0  0  0  0
  8 10  1  0  0  0  0
  9  8  1  0  0  0  0
 11 16  1  0  0  0  0
 11 17  1  0  0  0  0
 12 11  2  0  0  0  0
 13 14  2  0  0  0  0
 13 12  1  0  0  0  0
 14 15  1  0  0  0  0
 15  8  1  0  0  0  0
 15 16  2  0  0  0  0
 18 12  1  0  0  0  0
 19 13  1  0  0  0  0
 20  3  1  0  0  0  0
 21 20  2  0  0  0  0
 22 23  1  0  0  0  0
 22 20  1  0  0  0  0
 23 24  2  0  0  0  0
 24 25  1  0  0  0  0
 24 28  1  0  0  0  0
 25 29  1  0  0  0  0
 26 30  1  0  0  0  0
 26 25  2  0  0  0  0
 27 23  1  0  0  0  0
 27 26  1  0  0  0  0
 30 31  2  0  0  0  0
 31 32  1  0  0  0  0
 33 32  2  0  0  0  0
 34 30  1  0  0  0  0
 34 33  1  0  0  0  0
M  END
>  <minimizedAffinity>
-6.32213354

>  <minimizedRMSD>
1.73467577

$$$$
