
 OpenBabel03252513513D

 36 39  0  0  1  0  0  0  0  0999 V2000
   37.3920   30.9920   46.5990 C   0  0  1  0  0  0  0  0  0  0  0  0
   37.5190   31.3030   47.7920 O   0  0  0  0  0  0  0  0  0  0  0  0
   38.5030   31.3140   45.7650 N   0  0  2  0  0  0  0  0  0  0  0  0
   38.9100   30.2780   44.8430 C   0  0  0  0  0  0  0  0  0  0  0  0
   40.2900   30.5360   44.2960 C   0  0  0  0  0  0  0  0  0  0  0  0
   41.0320   31.1280   45.3360 O   0  0  0  0  0  0  0  0  0  0  0  0
   40.6190   32.4680   45.3370 C   0  0  0  0  0  0  0  0  0  0  0  0
   39.1850   32.6010   45.8360 C   0  0  2  0  0  0  0  0  0  0  0  0
   38.7890   29.2650   45.2650 H   0  0  0  0  0  0  0  0  0  0  0  0
   38.1990   30.3340   43.9730 H   0  0  0  0  0  0  0  0  0  0  0  0
   40.7470   29.5740   44.0300 H   0  0  0  0  0  0  0  0  0  0  0  0
   40.2750   31.1470   43.3840 H   0  0  0  0  0  0  0  0  0  0  0  0
   41.3370   33.0070   45.9880 H   0  0  0  0  0  0  0  0  0  0  0  0
   40.7310   32.8510   44.3020 H   0  0  0  0  0  0  0  0  0  0  0  0
   38.6860   33.3410   45.2210 H   0  0  0  0  0  0  0  0  0  0  0  0
   34.0150   29.3060   46.6290 C   0  0  0  0  0  0  0  0  0  0  0  0
   35.2130   29.9380   47.1010 C   0  0  0  0  0  0  0  0  0  0  0  0
   36.1570   30.3440   46.1660 C   0  0  0  0  0  0  0  0  0  0  0  0
   35.8750   30.1100   44.8560 N   0  0  0  0  0  0  0  0  0  0  0  0
   34.7510   29.5190   44.4440 C   0  0  0  0  0  0  0  0  0  0  0  0
   33.8430   29.1270   45.3120 N   0  0  0  0  0  0  0  0  0  0  0  0
   35.3750   30.0940   48.1560 H   0  0  0  0  0  0  0  0  0  0  0  0
   34.6190   29.3480   42.9790 C   0  0  0  0  0  0  0  0  0  0  0  0
   34.4680   30.5900   42.3580 F   0  0  0  0  0  0  0  0  0  0  0  0
   35.7860   28.8200   42.4750 F   0  0  0  0  0  0  0  0  0  0  0  0
   33.6070   28.4700   42.6300 F   0  0  0  0  0  0  0  0  0  0  0  0
   33.0910   28.9130   47.5850 O   0  0  0  0  0  0  0  0  0  0  0  0
   33.3640   28.0410   48.6330 C   0  0  0  0  0  0  0  0  0  0  0  0
   34.2230   27.0060   48.2720 F   0  0  0  0  0  0  0  0  0  0  0  0
   33.7830   28.6400   49.7780 F   0  0  0  0  0  0  0  0  0  0  0  0
   32.1240   27.4340   48.9220 F   0  0  0  0  0  0  0  0  0  0  0  0
   39.2770   33.1250   47.2100 C   0  0  0  0  0  0  0  0  0  0  0  0
   39.9410   34.2740   47.6470 C   0  0  0  0  0  0  0  0  0  0  0  0
   39.9320   34.5810   48.9720 C   0  0  0  0  0  0  0  0  0  0  0  0
   39.2090   33.6510   49.8180 C   0  0  0  0  0  0  0  0  0  0  0  0
   38.5930   32.4070   48.6740 S   0  0  1  0  0  0  0  0  0  0  0  0
  1 18  1  1  0  0  0
  1  2  1  0  0  0  0
  2 36  1  0  0  0  0
  3  4  1  1  0  0  0
  3  8  1  0  0  0  0
  3  1  1  0  0  0  0
  4  9  1  0  0  0  0
  5  4  1  0  0  0  0
  5  6  1  0  0  0  0
  6  7  1  0  0  0  0
  7  8  1  0  0  0  0
  7 13  1  0  0  0  0
  8 15  1  6  0  0  0
  8 32  1  0  0  0  0
 10  4  1  0  0  0  0
 11  5  1  0  0  0  0
 12  5  1  0  0  0  0
 14  7  1  0  0  0  0
 16 17  1  0  0  0  0
 16 27  1  0  0  0  0
 17 22  1  0  0  0  0
 18 17  2  0  0  0  0
 19 18  1  0  0  0  0
 20 19  2  0  0  0  0
 20 21  1  0  0  0  0
 21 16  2  0  0  0  0
 23 20  1  0  0  0  0
 24 23  1  0  0  0  0
 25 23  1  0  0  0  0
 26 23  1  0  0  0  0
 27 28  1  0  0  0  0
 28 31  1  0  0  0  0
 28 30  1  0  0  0  0
 29 28  1  0  0  0  0
 32 33  2  0  0  0  0
 32 36  1  0  0  0  0
 33 34  1  0  0  0  0
 34 35  2  0  0  0  0
 36 35  1  1  0  0  0
M  END
>  <minimizedAffinity>
-5.20629597

>  <minimizedRMSD>
1.64950883

$$$$
