
 OpenBabel03252512083D

 37 39  0  0  0  0  0  0  0  0999 V2000
   37.1640   30.6960   50.1430 C   0  0  0  0  0  0  0  0  0  0  0  0
   37.2240   30.8830   51.2550 H   0  0  0  0  0  0  0  0  0  0  0  0
   38.0590   30.0900   49.8960 H   0  0  0  0  0  0  0  0  0  0  0  0
   35.9560   28.5910   49.7890 C   0  0  0  0  0  0  0  0  0  0  0  0
   35.9790   29.9930   49.8420 C   0  0  0  0  0  0  0  0  0  0  0  0
   34.8060   30.6430   49.5680 C   0  0  0  0  0  0  0  0  0  0  0  0
   33.6790   29.9500   49.2570 N   0  0  0  0  0  0  0  0  0  0  0  0
   33.6820   28.6150   49.2110 C   0  0  0  0  0  0  0  0  0  0  0  0
   34.7950   27.9780   49.4720 N   0  0  0  0  0  0  0  0  0  0  0  0
   36.8570   28.0270   49.9990 H   0  0  0  0  0  0  0  0  0  0  0  0
   34.6170   31.7030   49.5610 H   0  0  0  0  0  0  0  0  0  0  0  0
   32.4630   27.8630   48.8790 C   0  0  0  0  0  0  0  0  0  0  0  0
   32.4640   26.9940   47.9740 O   0  0  0  0  0  0  0  0  0  0  0  0
   31.2750   28.0910   49.5540 O   0  0  0  0  0  0  0  0  0  0  0  0
   30.0680   27.4450   49.1630 C   0  0  0  0  0  0  0  0  0  0  0  0
   29.2540   27.0280   50.3690 C   0  0  0  0  0  0  0  0  0  0  0  0
   28.1410   28.0120   50.5260 C   0  0  0  0  0  0  0  0  0  0  0  0
   28.2250   28.9820   49.3920 C   0  0  0  0  0  0  0  0  0  0  0  0
   29.2030   28.4240   48.3990 C   0  0  0  0  0  0  0  0  0  0  0  0
   37.2590   31.9890   49.4350 C   0  0  0  0  0  0  0  0  0  0  0  0
   36.3450   32.5390   49.2370 H   0  0  0  0  0  0  0  0  0  0  0  0
   37.8650   32.6740   50.1160 H   0  0  0  0  0  0  0  0  0  0  0  0
   37.9980   31.7650   48.1700 C   0  0  0  0  0  0  0  0  0  0  0  0
   37.9040   30.5790   47.5320 C   0  0  0  0  0  0  0  0  0  0  0  0
   38.6400   30.3650   46.3670 C   0  0  0  0  0  0  0  0  0  0  0  0
   39.4320   31.3770   45.9180 N   0  0  0  0  0  0  0  0  0  0  0  0
   39.5040   32.5280   46.5590 C   0  0  0  0  0  0  0  0  0  0  0  0
   38.8060   32.7590   47.6860 N   0  0  0  0  0  0  0  0  0  0  0  0
   37.3900   29.6640   47.6540 H   0  0  0  0  0  0  0  0  0  0  0  0
   38.7150   29.4950   45.7010 H   0  0  0  0  0  0  0  0  0  0  0  0
   40.3520   33.6280   46.0420 C   0  0  0  0  0  0  0  0  0  0  0  0
   40.0750   34.6010   46.5100 H   0  0  0  0  0  0  0  0  0  0  0  0
   41.4260   33.4780   46.2580 H   0  0  0  0  0  0  0  0  0  0  0  0
   40.1100   33.8020   44.5270 C   0  0  0  0  0  0  0  0  0  0  0  0
   41.0770   33.5480   44.0140 H   0  0  0  0  0  0  0  0  0  0  0  0
   39.7530   34.8120   44.2880 H   0  0  0  0  0  0  0  0  0  0  0  0
   39.2960   33.1100   44.2340 H   0  0  0  0  0  0  0  0  0  0  0  0
  1  2  1  0  0  0  0
  3  1  1  0  0  0  0
  4  5  1  0  0  0  0
  4 10  1  0  0  0  0
  5  1  1  0  0  0  0
  6  5  2  0  0  0  0
  7  6  1  0  0  0  0
  8  7  2  0  0  0  0
  8  9  1  0  0  0  0
  9  4  2  0  0  0  0
 11  6  1  0  0  0  0
 12  8  1  0  0  0  0
 12 14  1  0  0  0  0
 13 12  2  0  0  0  0
 15 14  1  0  0  0  0
 15 16  1  0  0  0  0
 16 17  1  0  0  0  0
 18 17  1  0  0  0  0
 19 15  1  0  0  0  0
 19 18  1  0  0  0  0
 20 22  1  0  0  0  0
 20  1  1  0  0  0  0
 21 20  1  0  0  0  0
 23 20  1  0  0  0  0
 24 29  1  0  0  0  0
 24 23  2  0  0  0  0
 25 24  1  0  0  0  0
 26 25  2  0  0  0  0
 26 27  1  0  0  0  0
 27 28  2  0  0  0  0
 28 23  1  0  0  0  0
 30 25  1  0  0  0  0
 31 33  1  0  0  0  0
 31 32  1  0  0  0  0
 31 27  1  0  0  0  0
 34 31  1  0  0  0  0
 35 34  1  0  0  0  0
 36 34  1  0  0  0  0
 37 34  1  0  0  0  0
M  END
>  <minimizedAffinity>
-5.63552523

>  <minimizedRMSD>
1.74563086

$$$$
