
 OpenBabel03252514043D

 34 37  0  0  1  0  0  0  0  0999 V2000
   35.2240   29.1640   48.5690 C   0  0  2  0  0  0  0  0  0  0  0  0
   33.9950   29.3880   49.3230 C   0  0  0  0  0  0  0  0  0  0  0  0
   34.3090   28.0060   49.0890 C   0  0  1  0  0  0  0  0  0  0  0  0
   35.3350   29.2730   47.4930 H   0  0  0  0  0  0  0  0  0  0  0  0
   34.1130   29.8010   50.3680 H   0  0  0  0  0  0  0  0  0  0  0  0
   33.1580   29.9020   48.7830 H   0  0  0  0  0  0  0  0  0  0  0  0
   34.8350   27.3070   49.7370 H   0  0  0  0  0  0  0  0  0  0  0  0
   36.5350   29.2050   49.3710 C   0  0  0  0  0  0  0  0  0  0  0  0
   37.1380   28.3140   49.1640 H   0  0  0  0  0  0  0  0  0  0  0  0
   36.2890   29.1700   50.4500 H   0  0  0  0  0  0  0  0  0  0  0  0
   37.5630   32.7050   49.6030 C   0  0  0  0  0  0  0  0  0  0  0  0
   38.4500   32.8360   48.5210 C   0  0  0  0  0  0  0  0  0  0  0  0
   38.6820   31.6970   47.7180 C   0  0  0  0  0  0  0  0  0  0  0  0
   38.0330   30.5320   48.0370 N   0  0  0  0  0  0  0  0  0  0  0  0
   37.1910   30.4710   49.0920 C   0  0  0  0  0  0  0  0  0  0  0  0
   36.9670   31.5600   49.8620 N   0  0  0  0  0  0  0  0  0  0  0  0
   37.4620   33.6360   50.1470 H   0  0  0  0  0  0  0  0  0  0  0  0
   38.9950   33.7190   48.2120 H   0  0  0  0  0  0  0  0  0  0  0  0
   39.3300   31.6580   46.8680 H   0  0  0  0  0  0  0  0  0  0  0  0
   33.4550   27.3230   48.0360 C   0  0  0  0  0  0  0  0  0  0  0  0
   33.8090   26.0970   47.8230 O   0  0  0  0  0  0  0  0  0  0  0  0
   32.3870   27.8800   47.3370 O   0  0  0  0  0  0  0  0  0  0  0  0
   31.1510   28.0830   47.8830 C   0  0  0  0  0  0  0  0  0  0  0  0
   30.7290   27.6380   49.2300 C   0  0  0  0  0  0  0  0  0  0  0  0
   29.4700   27.9130   49.6320 C   0  0  0  0  0  0  0  0  0  0  0  0
   28.5730   28.6080   48.7980 C   0  0  0  0  0  0  0  0  0  0  0  0
   29.5690   28.9240   47.2740 S   0  0  0  0  0  0  0  0  0  0  0  0
   31.4410   27.1200   49.8170 H   0  0  0  0  0  0  0  0  0  0  0  0
   29.0610   27.6370   50.5870 H   0  0  0  0  0  0  0  0  0  0  0  0
   27.2490   29.0310   48.9230 C   0  0  0  0  0  0  0  0  0  0  0  0
   26.2050   28.2620   49.2760 C   0  0  0  0  0  3  0  0  0  0  0  0
   24.9500   28.7960   49.3640 C   0  0  0  0  0  3  0  0  0  0  0  0
   24.8540   30.2150   49.0530 C   0  0  0  0  0  3  0  0  0  0  0  0
   26.6640   30.6190   48.6560 S   0  0  0  0  0  0  0  0  0  0  0  0
  1  4  1  6  0  0  0
  1  3  1  0  0  0  0
  1  2  1  0  0  0  0
  1  8  1  0  0  0  0
  2  5  1  0  0  0  0
  3  2  1  0  0  0  0
  3  7  1  1  0  0  0
  6  2  1  0  0  0  0
  8 10  1  0  0  0  0
  9  8  1  0  0  0  0
 11 16  1  0  0  0  0
 11 17  1  0  0  0  0
 12 11  2  0  0  0  0
 13 14  2  0  0  0  0
 13 12  1  0  0  0  0
 14 15  1  0  0  0  0
 15  8  1  0  0  0  0
 15 16  2  0  0  0  0
 18 12  1  0  0  0  0
 19 13  1  0  0  0  0
 20  3  1  0  0  0  0
 21 20  2  0  0  0  0
 22 23  1  0  0  0  0
 22 20  1  0  0  0  0
 23 24  2  0  0  0  0
 24 25  1  0  0  0  0
 24 28  1  0  0  0  0
 25 29  1  0  0  0  0
 26 30  1  0  0  0  0
 26 25  2  0  0  0  0
 27 23  1  0  0  0  0
 27 26  1  0  0  0  0
 30 31  2  0  0  0  0
 31 32  1  0  0  0  0
 33 32  2  0  0  0  0
 34 30  1  0  0  0  0
 34 33  1  0  0  0  0
M  END
>  <minimizedAffinity>
-6.32290983

>  <minimizedRMSD>
1.76183796

$$$$
