
 OpenBabel03252514023D

 27 29  0  0  1  0  0  0  0  0999 V2000
   35.2360   29.4770   49.0920 C   0  0  2  0  0  0  0  0  0  0  0  0
   34.1060   29.3740   50.0250 C   0  0  0  0  0  0  0  0  0  0  0  0
   34.4890   28.1490   49.3420 C   0  0  1  0  0  0  0  0  0  0  0  0
   35.1470   29.8370   48.0650 H   0  0  0  0  0  0  0  0  0  0  0  0
   34.3500   29.5760   51.0950 H   0  0  0  0  0  0  0  0  0  0  0  0
   33.1360   29.8860   49.7490 H   0  0  0  0  0  0  0  0  0  0  0  0
   35.1660   27.3830   49.7480 H   0  0  0  0  0  0  0  0  0  0  0  0
   36.6410   29.4610   49.7000 C   0  0  0  0  0  0  0  0  0  0  0  0
   37.1480   28.5000   49.4810 H   0  0  0  0  0  0  0  0  0  0  0  0
   36.5280   29.5470   50.7920 H   0  0  0  0  0  0  0  0  0  0  0  0
   37.9270   32.8810   49.4310 C   0  0  0  0  0  0  0  0  0  0  0  0
   38.6920   32.8400   48.2550 C   0  0  0  0  0  0  0  0  0  0  0  0
   38.7550   31.6180   47.5620 C   0  0  0  0  0  0  0  0  0  0  0  0
   38.0640   30.5380   48.0760 N   0  0  0  0  0  0  0  0  0  0  0  0
   37.3520   30.6390   49.2010 C   0  0  0  0  0  0  0  0  0  0  0  0
   37.2900   31.8130   49.8690 N   0  0  0  0  0  0  0  0  0  0  0  0
   37.8680   33.8080   49.9730 H   0  0  0  0  0  0  0  0  0  0  0  0
   39.1970   33.7150   47.9210 H   0  0  0  0  0  0  0  0  0  0  0  0
   39.3350   31.5480   46.6510 H   0  0  0  0  0  0  0  0  0  0  0  0
   33.5540   27.6760   48.2670 C   0  0  0  0  0  0  0  0  0  0  0  0
   33.9540   26.6280   47.6270 O   0  0  0  0  0  0  0  0  0  0  0  0
   32.3420   28.2650   47.9450 O   0  0  0  0  0  0  0  0  0  0  0  0
   31.1770   27.5210   47.7460 C   0  0  0  0  0  0  0  0  0  0  0  0
   30.7020   26.7840   48.9620 C   0  0  0  0  0  0  0  0  0  0  0  0
   29.9820   27.8820   49.7220 C   0  0  0  0  0  0  0  0  0  0  0  0
   29.1180   28.4720   48.6470 C   0  0  0  0  0  0  0  0  0  0  0  0
   30.0240   28.4520   47.4380 C   0  0  0  0  0  0  0  0  0  0  0  0
  1  4  1  6  0  0  0
  1  3  1  0  0  0  0
  1  8  1  0  0  0  0
  1  2  1  0  0  0  0
  2  5  1  0  0  0  0
  3  7  1  1  0  0  0
  3  2  1  0  0  0  0
  6  2  1  0  0  0  0
  8 10  1  0  0  0  0
  9  8  1  0  0  0  0
 11 16  1  0  0  0  0
 11 17  1  0  0  0  0
 12 11  2  0  0  0  0
 13 14  2  0  0  0  0
 13 12  1  0  0  0  0
 14 15  1  0  0  0  0
 15  8  1  0  0  0  0
 15 16  2  0  0  0  0
 18 12  1  0  0  0  0
 19 13  1  0  0  0  0
 20  3  1  0  0  0  0
 21 20  2  0  0  0  0
 22 20  1  0  0  0  0
 23 22  1  0  0  0  0
 23 24  1  0  0  0  0
 24 25  1  0  0  0  0
 26 25  1  0  0  0  0
 27 23  1  0  0  0  0
 27 26  1  0  0  0  0
M  END
>  <minimizedAffinity>
-5.22928953

>  <minimizedRMSD>
1.39397216

$$$$
