
 OpenBabel03252510583D

 21 22  0  0  0  0  0  0  0  0999 V2000
   37.2490   31.3780   48.5180 C   0  0  0  0  0  0  0  0  0  0  0  0
   37.7150   32.3860   49.3590 C   0  0  0  0  0  0  0  0  0  0  0  0
   38.7090   33.2550   48.9100 C   0  0  0  0  0  0  0  0  0  0  0  0
   39.1780   33.0550   47.6280 N   0  0  0  0  0  0  0  0  0  0  0  0
   38.7050   32.0800   46.8610 C   0  0  0  0  0  0  0  0  0  0  0  0
   37.7340   31.2240   47.2850 N   0  0  0  0  0  0  0  0  0  0  0  0
   37.3270   32.5150   50.3540 H   0  0  0  0  0  0  0  0  0  0  0  0
   39.1120   34.0520   49.5070 H   0  0  0  0  0  0  0  0  0  0  0  0
   39.2250   31.9010   45.5120 C   0  0  0  0  0  0  0  0  0  0  0  0
   40.2910   31.0410   45.1020 C   0  0  0  0  0  0  0  0  0  0  0  0
   40.6530   30.9920   43.7950 C   0  0  0  0  0  0  0  0  0  0  0  0
   39.9900   31.7810   42.8320 C   0  0  0  0  0  0  0  0  0  0  0  0
   38.7110   32.6940   43.8950 S   0  0  0  0  0  0  0  0  0  0  0  0
   36.2110   30.4910   49.0250 C   0  0  0  0  0  0  0  0  0  0  0  0
   34.9940   30.7110   48.7250 O   0  0  0  0  0  0  0  0  0  0  0  0
   36.5540   29.4160   49.8280 O   0  0  0  0  0  0  0  0  0  0  0  0
   36.5360   29.4690   51.2200 C   0  0  0  0  0  0  0  0  0  0  0  0
   37.6930   29.7860   51.9740 N   0  0  0  0  0  0  0  0  0  0  0  0
   35.4130   29.2130   51.7120 O   0  0  0  0  0  0  0  0  0  0  0  0
   37.8280   30.5770   52.6180 H   0  0  0  0  0  0  0  0  0  0  0  0
   38.6420   29.3530   52.0800 H   0  0  0  0  0  0  0  0  0  0  0  0
  1 14  1  0  0  0  0
  1  2  1  0  0  0  0
  2  7  1  0  0  0  0
  3  2  2  0  0  0  0
  3  8  1  0  0  0  0
  4  3  1  0  0  0  0
  5  6  1  0  0  0  0
  5  4  2  0  0  0  0
  6  1  2  0  0  0  0
  9  5  1  0  0  0  0
 10  9  2  0  0  0  0
 11 10  1  0  0  0  0
 12 11  2  0  0  0  0
 12 13  1  0  0  0  0
 13  9  1  0  0  0  0
 14 16  1  0  0  0  0
 15 14  2  0  0  0  0
 16 17  1  0  0  0  0
 17 19  2  0  0  0  0
 17 18  1  0  0  0  0
 18 21  1  0  0  0  0
 18 20  1  0  0  0  0
M  END
>  <minimizedAffinity>
-5.22533417

>  <minimizedRMSD>
1.24196982

$$$$
