
 OpenBabel03252514023D

 27 29  0  0  1  0  0  0  0  0999 V2000
   35.2260   29.4650   49.0630 C   0  0  2  0  0  0  0  0  0  0  0  0
   34.0920   29.2830   49.9790 C   0  0  0  0  0  0  0  0  0  0  0  0
   34.5090   28.1080   49.2310 C   0  0  1  0  0  0  0  0  0  0  0  0
   35.1360   29.8800   48.0570 H   0  0  0  0  0  0  0  0  0  0  0  0
   34.3240   29.4290   51.0600 H   0  0  0  0  0  0  0  0  0  0  0  0
   33.1130   29.7870   49.7230 H   0  0  0  0  0  0  0  0  0  0  0  0
   35.2010   27.3360   49.5980 H   0  0  0  0  0  0  0  0  0  0  0  0
   36.6270   29.4470   49.6800 C   0  0  0  0  0  0  0  0  0  0  0  0
   37.1360   28.4870   49.4610 H   0  0  0  0  0  0  0  0  0  0  0  0
   36.5060   29.5280   50.7720 H   0  0  0  0  0  0  0  0  0  0  0  0
   37.9150   32.8670   49.4370 C   0  0  0  0  0  0  0  0  0  0  0  0
   38.6870   32.8320   48.2660 C   0  0  0  0  0  0  0  0  0  0  0  0
   38.7540   31.6150   47.5660 C   0  0  0  0  0  0  0  0  0  0  0  0
   38.0590   30.5320   48.0700 N   0  0  0  0  0  0  0  0  0  0  0  0
   37.3410   30.6270   49.1920 C   0  0  0  0  0  0  0  0  0  0  0  0
   37.2750   31.7980   49.8670 N   0  0  0  0  0  0  0  0  0  0  0  0
   37.8550   33.7910   49.9840 H   0  0  0  0  0  0  0  0  0  0  0  0
   39.1940   33.7090   47.9390 H   0  0  0  0  0  0  0  0  0  0  0  0
   39.3380   31.5500   46.6570 H   0  0  0  0  0  0  0  0  0  0  0  0
   33.5930   27.6760   48.1220 C   0  0  0  0  0  0  0  0  0  0  0  0
   34.0160   26.6670   47.4350 O   0  0  0  0  0  0  0  0  0  0  0  0
   32.3750   28.2620   47.8160 O   0  0  0  0  0  0  0  0  0  0  0  0
   31.2090   27.5160   47.6380 C   0  0  0  0  0  3  0  0  0  0  0  0
   30.7830   26.7390   48.8460 C   0  0  0  0  0  2  0  0  0  0  0  0
   30.0830   27.8060   49.6640 C   0  0  0  0  0  2  0  0  0  0  0  0
   29.1770   28.4220   48.6380 C   0  0  0  0  0  2  0  0  0  0  0  0
   30.0390   28.4470   47.3970 C   0  0  0  0  0  2  0  0  0  0  0  0
  1  4  1  6  0  0  0
  1  3  1  0  0  0  0
  1  8  1  0  0  0  0
  1  2  1  0  0  0  0
  2  5  1  0  0  0  0
  3  7  1  1  0  0  0
  3  2  1  0  0  0  0
  6  2  1  0  0  0  0
  8 10  1  0  0  0  0
  9  8  1  0  0  0  0
 11 16  1  0  0  0  0
 11 17  1  0  0  0  0
 12 11  2  0  0  0  0
 13 14  2  0  0  0  0
 13 12  1  0  0  0  0
 14 15  1  0  0  0  0
 15  8  1  0  0  0  0
 15 16  2  0  0  0  0
 18 12  1  0  0  0  0
 19 13  1  0  0  0  0
 20  3  1  0  0  0  0
 21 20  2  0  0  0  0
 22 20  1  0  0  0  0
 23 22  1  0  0  0  0
 23 24  1  0  0  0  0
 24 25  1  0  0  0  0
 26 25  1  0  0  0  0
 27 23  1  0  0  0  0
 27 26  1  0  0  0  0
M  END
>  <minimizedAffinity>
-5.20906639

>  <minimizedRMSD>
0.741605282

$$$$
