
 OpenBabel03252513143D

 41 44  0  0  0  0  0  0  0  0999 V2000
   36.8620   30.7950   46.1080 C   0  0  0  0  0  0  0  0  0  0  0  0
   35.8380   30.0220   46.6690 C   0  0  0  0  0  0  0  0  0  0  0  0
   35.5310   29.9770   47.9920 C   0  0  0  0  0  0  0  0  0  0  0  0
   36.2550   30.7310   48.8850 C   0  0  0  0  0  0  0  0  0  0  0  0
   37.2510   31.4930   48.4030 C   0  0  0  0  0  0  0  0  0  0  0  0
   37.9800   32.2540   49.3090 C   0  0  0  0  0  0  0  0  0  0  0  0
   39.0080   33.0550   48.9090 C   0  0  0  0  0  0  0  0  0  0  0  0
   39.3140   33.0950   47.5570 C   0  0  0  0  0  0  0  0  0  0  0  0
   38.5730   32.3310   46.6970 C   0  0  0  0  0  0  0  0  0  0  0  0
   37.5530   31.5290   47.0560 C   0  0  0  0  0  0  0  0  0  0  0  0
   35.2370   29.4080   46.0060 H   0  0  0  0  0  0  0  0  0  0  0  0
   34.7230   29.3550   48.3580 H   0  0  0  0  0  0  0  0  0  0  0  0
   37.7980   32.2740   50.3750 H   0  0  0  0  0  0  0  0  0  0  0  0
   39.6120   33.6710   49.5700 H   0  0  0  0  0  0  0  0  0  0  0  0
   40.1220   33.7190   47.2060 H   0  0  0  0  0  0  0  0  0  0  0  0
   38.8460   32.3910   45.6410 H   0  0  0  0  0  0  0  0  0  0  0  0
   36.1160   31.3090   42.6310 C   0  0  0  0  0  0  0  0  0  0  0  0
   37.3040   30.9960   41.9300 C   0  0  0  0  0  0  0  0  0  0  0  0
   38.3730   30.6030   42.6540 C   0  0  0  0  0  0  0  0  0  0  0  0
   38.1970   30.5500   43.9710 N   0  0  0  0  0  0  0  0  0  0  0  0
   37.1560   30.8160   44.6910 C   0  0  0  0  0  0  0  0  0  0  0  0
   36.1280   31.1970   43.9480 N   0  0  0  0  0  0  0  0  0  0  0  0
   35.2230   31.6330   42.0790 H   0  0  0  0  0  0  0  0  0  0  0  0
   39.6270   30.2300   42.1230 N   0  0  0  0  0  0  0  0  0  0  0  0
   40.7540   29.9260   42.9190 C   0  0  0  0  0  0  0  0  0  0  0  0
   40.9570   30.6460   43.9800 N   0  0  0  0  0  0  0  0  0  0  0  0
   41.6230   28.8680   42.5690 N   0  0  0  0  0  0  0  0  0  0  0  0
   41.6990   30.5330   44.6660 H   0  0  0  0  0  0  0  0  0  0  0  0
   39.8810   30.1220   41.1010 H   0  0  0  0  0  0  0  0  0  0  0  0
   42.3520   28.7340   41.8510 H   0  0  0  0  0  0  0  0  0  0  0  0
   41.6010   27.9640   43.1040 H   0  0  0  0  0  0  0  0  0  0  0  0
   37.3700   31.0980   40.4760 C   0  0  0  0  0  0  0  0  0  0  0  0
   37.3870   32.2740   39.8530 C   0  0  0  0  0  0  0  0  0  0  0  0
   37.4450   32.4590   38.5300 C   0  0  0  0  0  0  0  0  0  0  0  0
   37.4900   31.2510   37.8030 C   0  0  0  0  0  0  0  0  0  0  0  0
   37.4420   29.9940   39.1130 S   0  0  0  0  0  0  0  0  0  0  0  0
   35.9290   30.6720   50.2200 O   0  0  0  0  0  0  0  0  0  0  0  0
   36.4220   29.6460   51.0420 C   0  0  0  0  0  0  0  0  0  0  0  0
   37.2410   28.7450   50.4250 F   0  0  0  0  0  0  0  0  0  0  0  0
   37.2060   30.2390   52.0350 F   0  0  0  0  0  0  0  0  0  0  0  0
   35.3130   29.0070   51.5930 F   0  0  0  0  0  0  0  0  0  0  0  0
  1  2  2  0  0  0  0
  1 10  1  0  0  0  0
  2  3  1  0  0  0  0
  3 12  1  0  0  0  0
  3  4  2  0  0  0  0
  4 37  1  0  0  0  0
  5  4  1  0  0  0  0
  5  6  1  0  0  0  0
  6 13  1  0  0  0  0
  7  6  2  0  0  0  0
  7 14  1  0  0  0  0
  8  7  1  0  0  0  0
  9 10  1  0  0  0  0
  9  8  2  0  0  0  0
 10  5  2  0  0  0  0
 11  2  1  0  0  0  0
 15  8  1  0  0  0  0
 16  9  1  0  0  0  0
 17 22  1  0  0  0  0
 18 17  2  0  0  0  0
 18 19  1  0  0  0  0
 19 20  2  0  0  0  0
 20 21  1  0  0  0  0
 21  1  1  0  0  0  0
 22 21  2  0  0  0  0
 23 17  1  0  0  0  0
 24 19  1  0  0  0  0
 24 25  1  0  0  0  0
 25 26  2  0  0  0  0
 26 28  1  0  0  0  0
 27 25  1  0  0  0  0
 27 31  1  0  0  0  0
 29 24  1  0  0  0  0
 30 27  1  0  0  0  0
 32 18  1  0  0  0  0
 33 32  2  0  0  0  0
 34 33  1  0  0  0  0
 35 34  2  0  0  0  0
 35 36  1  0  0  0  0
 36 32  1  0  0  0  0
 37 38  1  0  0  0  0
 38 41  1  0  0  0  0
 38 40  1  0  0  0  0
 39 38  1  0  0  0  0
M  END
>  <minimizedAffinity>
-7.36879492

>  <minimizedRMSD>
0.179521471

$$$$
