
 OpenBabel03252513053D

 35 38  0  0  0  0  0  0  0  0999 V2000
   39.2520   32.1920   46.6790 N   0  0  0  0  0  0  0  0  0  0  0  0
   39.7410   33.3600   46.2710 C   0  0  0  0  0  0  0  0  0  0  0  0
   39.9420   33.7310   44.9730 C   0  0  0  0  0  0  0  0  0  0  0  0
   39.6230   32.8520   43.9610 C   0  0  0  0  0  0  0  0  0  0  0  0
   39.7780   33.1190   42.7500 O   0  0  0  0  0  0  0  0  0  0  0  0
   39.1370   31.6910   44.3350 N   0  0  0  0  0  0  0  0  0  0  0  0
   38.9550   31.3620   45.6210 C   0  0  0  0  0  0  0  0  0  0  0  0
   38.4790   30.2150   45.8680 O   0  0  0  0  0  0  0  0  0  0  0  0
   39.9980   34.0670   47.0770 H   0  0  0  0  0  0  0  0  0  0  0  0
   40.3460   34.7080   44.7470 H   0  0  0  0  0  0  0  0  0  0  0  0
   38.7930   30.7470   43.3140 C   0  0  0  0  0  0  0  0  0  0  0  0
   37.4840   30.5660   42.9160 C   0  0  0  0  0  0  0  0  0  0  0  0
   37.4610   29.6280   41.9520 N   0  0  0  0  0  0  0  0  0  0  0  0
   38.7210   29.2020   41.7200 C   0  0  0  0  0  0  0  0  0  0  0  0
   39.2880   28.2770   40.8650 C   0  0  0  0  0  0  0  0  0  0  0  0
   40.6590   28.0540   40.8570 C   0  0  0  0  0  0  0  0  0  0  0  0
   41.4770   28.7780   41.7300 C   0  0  0  0  0  0  0  0  0  0  0  0
   40.9370   29.7180   42.6070 C   0  0  0  0  0  0  0  0  0  0  0  0
   39.5770   29.8830   42.5560 C   0  0  0  0  0  0  0  0  0  0  0  0
   36.6140   29.2680   41.4480 H   0  0  0  0  0  0  0  0  0  0  0  0
   39.0140   31.7290   47.9840 C   0  0  0  0  0  0  0  0  0  0  0  0
   39.9480   31.8630   48.6050 H   0  0  0  0  0  0  0  0  0  0  0  0
   38.9140   30.6060   47.9240 H   0  0  0  0  0  0  0  0  0  0  0  0
   37.8830   32.2570   48.7630 C   0  0  0  0  0  0  0  0  0  0  0  0
   38.2890   33.0580   49.4420 H   0  0  0  0  0  0  0  0  0  0  0  0
   37.1450   32.7590   48.1400 H   0  0  0  0  0  0  0  0  0  0  0  0
   35.3520   29.8030   50.1570 C   0  0  0  0  0  0  0  0  0  0  0  0
   35.9600   30.7630   49.3000 C   0  0  0  0  0  0  0  0  0  0  0  0
   37.2080   31.2650   49.6080 C   0  0  0  0  0  0  0  0  0  0  0  0
   37.8180   30.8070   50.7470 N   0  0  0  0  0  0  0  0  0  0  0  0
   37.2390   29.9120   51.5360 C   0  0  0  0  0  0  0  0  0  0  0  0
   36.0220   29.4050   51.2620 N   0  0  0  0  0  0  0  0  0  0  0  0
   34.3940   29.5000   49.8050 H   0  0  0  0  0  0  0  0  0  0  0  0
   35.4990   31.1290   48.4120 H   0  0  0  0  0  0  0  0  0  0  0  0
   37.6760   29.5230   52.4400 H   0  0  0  0  0  0  0  0  0  0  0  0
  1 21  1  0  0  0  0
  2  1  1  0  0  0  0
  2  9  1  0  0  0  0
  3  2  2  0  0  0  0
  4  6  1  0  0  0  0
  4  3  1  0  0  0  0
  5  4  2  0  0  0  0
  6  7  1  0  0  0  0
  7  8  2  0  0  0  0
  7  1  1  0  0  0  0
 10  3  1  0  0  0  0
 11  6  1  0  0  0  0
 12 11  2  0  0  0  0
 13 12  1  0  0  0  0
 14 13  1  0  0  0  0
 14 19  1  0  0  0  0
 15 14  2  0  0  0  0
 16 15  1  0  0  0  0
 16 17  2  0  0  0  0
 17 18  1  0  0  0  0
 19 18  2  0  0  0  0
 19 11  1  0  0  0  0
 20 13  1  0  0  0  0
 21 22  1  0  0  0  0
 21 24  1  0  0  0  0
 23 21  1  0  0  0  0
 24 25  1  0  0  0  0
 24 29  1  0  0  0  0
 26 24  1  0  0  0  0
 27 32  1  0  0  0  0
 28 29  1  0  0  0  0
 28 27  2  0  0  0  0
 29 30  2  0  0  0  0
 30 31  1  0  0  0  0
 31 35  1  0  0  0  0
 32 31  2  0  0  0  0
 33 27  1  0  0  0  0
 34 28  1  0  0  0  0
M  END
>  <minimizedAffinity>
-5.95722389

>  <minimizedRMSD>
2.92506576

$$$$
