
 OpenBabel03252512033D

 28 30  0  0  0  0  0  0  0  0999 V2000
   37.8790   32.0920   47.3280 C   0  0  0  0  0  0  0  0  0  0  0  0
   36.8350   31.8840   47.2460 H   0  0  0  0  0  0  0  0  0  0  0  0
   37.9410   33.1810   47.6500 H   0  0  0  0  0  0  0  0  0  0  0  0
   38.6560   32.0230   46.0370 C   0  0  0  0  0  0  0  0  0  0  0  0
   39.9350   31.5200   46.0020 C   0  0  0  0  0  0  0  0  0  0  0  0
   40.6590   31.4800   44.8320 C   0  0  0  0  0  0  0  0  0  0  0  0
   40.0640   31.9550   43.7100 N   0  0  0  0  0  0  0  0  0  0  0  0
   38.8200   32.4460   43.7330 C   0  0  0  0  0  0  0  0  0  0  0  0
   38.1100   32.4860   44.8790 N   0  0  0  0  0  0  0  0  0  0  0  0
   40.4030   31.1410   46.9060 H   0  0  0  0  0  0  0  0  0  0  0  0
   41.6640   31.0820   44.8200 H   0  0  0  0  0  0  0  0  0  0  0  0
   38.1540   32.9700   42.5120 C   0  0  0  0  0  0  0  0  0  0  0  0
   38.7960   33.5580   41.4300 C   0  0  0  0  0  0  0  0  0  0  0  0
   38.0790   33.9970   40.3770 C   0  0  0  0  0  0  0  0  0  0  0  0
   36.6480   33.8330   40.4190 C   0  0  0  0  0  0  0  0  0  0  0  0
   36.4070   32.9990   42.0910 S   0  0  0  0  0  0  0  0  0  0  0  0
   38.6910   31.3010   48.3220 C   0  0  0  0  0  0  0  0  0  0  0  0
   39.4030   30.5730   47.8260 H   0  0  0  0  0  0  0  0  0  0  0  0
   39.4110   31.9760   48.8770 H   0  0  0  0  0  0  0  0  0  0  0  0
   38.0410   30.8310   50.6450 C   0  0  0  0  0  0  0  0  0  0  0  0
   37.8570   30.6380   49.2730 C   0  0  0  0  0  0  0  0  0  0  0  0
   36.8370   29.7980   48.8860 C   0  0  0  0  0  0  0  0  0  0  0  0
   36.0520   29.1930   49.8310 N   0  0  0  0  0  0  0  0  0  0  0  0
   36.2490   29.3940   51.1360 C   0  0  0  0  0  0  0  0  0  0  0  0
   37.2310   30.2020   51.5190 N   0  0  0  0  0  0  0  0  0  0  0  0
   38.8450   31.4920   50.9390 H   0  0  0  0  0  0  0  0  0  0  0  0
   36.5150   29.4930   47.9070 H   0  0  0  0  0  0  0  0  0  0  0  0
   35.6770   28.9550   51.9260 H   0  0  0  0  0  0  0  0  0  0  0  0
  1  3  1  0  0  0  0
  1 17  1  0  0  0  0
  2  1  1  0  0  0  0
  4  1  1  0  0  0  0
  5  4  1  0  0  0  0
  5 10  1  0  0  0  0
  6  5  2  0  0  0  0
  7  8  2  0  0  0  0
  7  6  1  0  0  0  0
  8  9  1  0  0  0  0
  9  4  2  0  0  0  0
 11  6  1  0  0  0  0
 12  8  1  0  0  0  0
 13 12  2  0  0  0  0
 14 15  2  0  0  0  0
 14 13  1  0  0  0  0
 15 16  1  0  0  0  0
 16 12  1  0  0  0  0
 17 19  1  0  0  0  0
 17 21  1  0  0  0  0
 18 17  1  0  0  0  0
 20 26  1  0  0  0  0
 20 25  1  0  0  0  0
 21 20  2  0  0  0  0
 22 21  1  0  0  0  0
 22 23  2  0  0  0  0
 23 24  1  0  0  0  0
 24 25  2  0  0  0  0
 24 28  1  0  0  0  0
 27 22  1  0  0  0  0
M  END
>  <minimizedAffinity>
-5.21892977

>  <minimizedRMSD>
3.34591913

$$$$
