
 OpenBabel03252511303D

 19 20  0  0  0  0  0  0  0  0999 V2000
   37.3880   30.2860   50.0960 C   0  0  0  0  0  0  0  0  0  0  0  0
   38.2920   31.3410   50.1850 C   0  0  0  0  0  0  0  0  0  0  0  0
   38.5250   32.1280   49.0610 C   0  0  0  0  0  0  0  0  0  0  0  0
   37.8500   31.8240   47.9210 N   0  0  0  0  0  0  0  0  0  0  0  0
   36.9740   30.7940   47.8590 C   0  0  0  0  0  0  0  0  0  0  0  0
   36.7570   30.0390   48.9500 N   0  0  0  0  0  0  0  0  0  0  0  0
   38.8240   31.5800   51.0820 H   0  0  0  0  0  0  0  0  0  0  0  0
   39.2180   32.9610   49.0730 H   0  0  0  0  0  0  0  0  0  0  0  0
   36.2410   30.4560   46.6410 C   0  0  0  0  0  0  0  0  0  0  0  0
   34.9800   29.9070   46.6630 C   0  0  0  0  0  0  0  0  0  0  0  0
   34.2950   29.5910   45.4860 C   0  0  0  0  0  0  0  0  0  0  0  0
   34.9110   29.8410   44.2980 N   0  0  0  0  0  0  0  0  0  0  0  0
   36.1400   30.3770   44.2800 C   0  0  0  0  0  0  0  0  0  0  0  0
   36.6380   30.5790   43.3400 H   0  0  0  0  0  0  0  0  0  0  0  0
   36.7700   30.6680   45.4070 N   0  0  0  0  0  0  0  0  0  0  0  0
   37.1310   29.4310   51.3060 C   0  0  0  0  0  0  0  0  0  0  0  0
   35.7770   29.1920   51.4220 F   0  0  0  0  0  0  0  0  0  0  0  0
   37.9020   28.3130   51.2020 F   0  0  0  0  0  0  0  0  0  0  0  0
   37.5320   30.1730   52.4120 F   0  0  0  0  0  0  0  0  0  0  0  0
  1  2  1  0  0  0  0
  1 16  1  0  0  0  0
  2  7  1  0  0  0  0
  3  8  1  0  0  0  0
  3  2  2  0  0  0  0
  4  3  1  0  0  0  0
  5  4  2  0  0  0  0
  5  6  1  0  0  0  0
  6  1  2  0  0  0  0
  9 10  1  0  0  0  0
  9  5  1  0  0  0  0
 11 10  2  0  0  0  0
 12 11  1  0  0  0  0
 13 12  2  0  0  0  0
 13 15  1  0  0  0  0
 14 13  1  0  0  0  0
 15  9  2  0  0  0  0
 16 17  1  0  0  0  0
 16 19  1  0  0  0  0
 18 16  1  0  0  0  0
M  END
>  <minimizedAffinity>
-5.2065053

>  <minimizedRMSD>
0.348419726

$$$$
