
 OpenBabel03252514023D

 31 33  0  0  1  0  0  0  0  0999 V2000
   35.5140   29.5270   49.2060 C   0  0  2  0  0  0  0  0  0  0  0  0
   34.5050   29.4980   50.2730 C   0  0  0  0  0  0  0  0  0  0  0  0
   34.7660   28.2370   49.5900 C   0  0  1  0  0  0  0  0  0  0  0  0
   35.2700   29.9110   48.2160 H   0  0  0  0  0  0  0  0  0  0  0  0
   34.9000   29.5630   51.3240 H   0  0  0  0  0  0  0  0  0  0  0  0
   33.5100   29.9840   50.2010 H   0  0  0  0  0  0  0  0  0  0  0  0
   35.4730   27.4320   49.8620 H   0  0  0  0  0  0  0  0  0  0  0  0
   36.9800   29.4760   49.6280 C   0  0  0  0  0  0  0  0  0  0  0  0
   36.9940   29.5520   50.7330 H   0  0  0  0  0  0  0  0  0  0  0  0
   37.3900   28.5170   49.2920 H   0  0  0  0  0  0  0  0  0  0  0  0
   38.3790   32.8460   49.2720 C   0  0  0  0  0  0  0  0  0  0  0  0
   38.9070   32.8290   47.9710 C   0  0  0  0  0  0  0  0  0  0  0  0
   38.7750   31.6470   47.2260 C   0  0  0  0  0  0  0  0  0  0  0  0
   38.1360   30.5760   47.8140 N   0  0  0  0  0  0  0  0  0  0  0  0
   37.6510   30.6460   49.0550 C   0  0  0  0  0  0  0  0  0  0  0  0
   37.7760   31.7830   49.7780 N   0  0  0  0  0  0  0  0  0  0  0  0
   38.4770   33.7520   49.8540 H   0  0  0  0  0  0  0  0  0  0  0  0
   39.3940   33.7230   47.5950 H   0  0  0  0  0  0  0  0  0  0  0  0
   39.1770   31.6400   46.2440 H   0  0  0  0  0  0  0  0  0  0  0  0
   33.6720   27.7820   48.6620 C   0  0  0  0  0  0  0  0  0  0  0  0
   34.0740   27.0260   47.6890 O   0  0  0  0  0  0  0  0  0  0  0  0
   32.3230   28.0840   48.7640 O   0  0  0  0  0  0  0  0  0  0  0  0
   31.4260   27.5960   47.8240 C   0  0  0  0  0  0  0  0  0  0  0  0
   30.7960   26.3680   47.7890 C   0  0  0  0  0  0  0  0  0  0  0  0
   31.0470   25.7240   48.6060 H   0  0  0  0  0  0  0  0  0  0  0  0
   29.9270   26.0830   46.7450 C   0  0  0  0  0  3  0  0  0  0  0  0
   29.7000   27.0190   45.7570 C   0  0  0  0  0  0  0  0  0  0  0  0
   29.0100   26.7830   44.9350 H   0  0  0  0  0  0  0  0  0  0  0  0
   30.3230   28.2590   45.7710 C   0  0  0  0  0  0  0  0  0  0  0  0
   30.1220   28.9790   44.9730 H   0  0  0  0  0  0  0  0  0  0  0  0
   31.1990   28.5450   46.8240 C   0  0  0  0  0  3  0  0  0  0  0  0
  1  4  1  6  0  0  0
  1  3  1  0  0  0  0
  1  8  1  0  0  0  0
  1  2  1  0  0  0  0
  2  5  1  0  0  0  0
  3  7  1  1  0  0  0
  3  2  1  0  0  0  0
  6  2  1  0  0  0  0
  8  9  1  0  0  0  0
 10  8  1  0  0  0  0
 11 16  1  0  0  0  0
 11 17  1  0  0  0  0
 12 11  2  0  0  0  0
 13 14  2  0  0  0  0
 13 12  1  0  0  0  0
 14 15  1  0  0  0  0
 15  8  1  0  0  0  0
 15 16  2  0  0  0  0
 18 12  1  0  0  0  0
 19 13  1  0  0  0  0
 20 22  1  0  0  0  0
 20  3  1  0  0  0  0
 21 20  2  0  0  0  0
 23 22  1  0  0  0  0
 24 23  1  0  0  0  0
 24 25  1  0  0  0  0
 26 24  2  0  0  0  0
 27 29  2  0  0  0  0
 27 26  1  0  0  0  0
 28 27  1  0  0  0  0
 29 31  1  0  0  0  0
 30 29  1  0  0  0  0
 31 23  2  0  0  0  0
M  END
>  <minimizedAffinity>
-4.90464973

>  <minimizedRMSD>
0.349576086

$$$$
