
 OpenBabel03252513313D

 45 49  0  0  0  0  0  0  0  0999 V2000
   33.2810   27.9020   48.5950 C   0  0  0  0  0  0  0  0  0  0  0  0
   34.0480   27.6360   49.3430 H   0  0  0  0  0  0  0  0  0  0  0  0
   32.3800   28.1760   49.2220 H   0  0  0  0  0  0  0  0  0  0  0  0
   31.6700   26.3130   47.6320 C   0  0  0  0  0  0  0  0  0  0  0  0
   31.3810   25.1970   46.9380 C   0  0  0  0  0  0  0  0  0  0  0  0
   32.3410   24.3650   46.3950 C   0  0  0  0  0  0  0  0  0  0  0  0
   33.6590   24.7400   46.6030 C   0  0  0  0  0  0  0  0  0  0  0  0
   33.9730   25.8740   47.3070 C   0  0  0  0  0  0  0  0  0  0  0  0
   32.9830   26.6760   47.8320 C   0  0  0  0  0  0  0  0  0  0  0  0
   30.3180   24.9640   46.8140 H   0  0  0  0  0  0  0  0  0  0  0  0
   31.9720   23.5030   45.8620 H   0  0  0  0  0  0  0  0  0  0  0  0
   34.4050   24.0830   46.1740 H   0  0  0  0  0  0  0  0  0  0  0  0
   35.0220   26.1380   47.4510 H   0  0  0  0  0  0  0  0  0  0  0  0
   29.2670   27.8720   49.9560 C   0  0  0  0  0  0  0  0  0  0  0  0
   28.6250   28.8260   49.1270 C   0  0  0  0  0  0  0  0  0  0  0  0
   29.0440   28.9030   47.7920 C   0  0  0  0  0  0  0  0  0  0  0  0
   30.0410   28.0600   47.3580 N   0  0  0  0  0  0  0  0  0  0  0  0
   30.6190   27.1660   48.1900 C   0  0  0  0  0  0  0  0  0  0  0  0
   30.2240   27.0900   49.4610 N   0  0  0  0  0  0  0  0  0  0  0  0
   28.9590   27.7980   50.9840 H   0  0  0  0  0  0  0  0  0  0  0  0
   28.5960   29.6060   47.1190 H   0  0  0  0  0  0  0  0  0  0  0  0
   27.5540   29.7200   49.6230 C   0  0  0  0  0  0  0  0  0  0  0  0
   28.0050   30.6960   50.4680 F   0  0  0  0  0  0  0  0  0  0  0  0
   26.5680   29.0150   50.2870 F   0  0  0  0  0  0  0  0  0  0  0  0
   26.9510   30.3710   48.5260 F   0  0  0  0  0  0  0  0  0  0  0  0
   33.5650   29.1040   47.7680 C   0  0  0  0  0  0  0  0  0  0  0  0
   32.9330   29.9920   48.0480 H   0  0  0  0  0  0  0  0  0  0  0  0
   33.2880   28.9280   46.6870 H   0  0  0  0  0  0  0  0  0  0  0  0
   34.9590   29.5200   47.9240 C   0  0  0  0  0  0  0  0  0  0  0  0
   35.7450   29.1660   49.0070 C   0  0  0  0  0  0  0  0  0  0  0  0
   37.0010   29.7130   48.8570 C   0  0  0  0  0  0  0  0  0  0  0  0
   36.9350   30.3960   47.6640 N   0  0  0  0  0  0  0  0  0  0  0  0
   35.7370   30.2800   47.1180 N   0  0  0  0  0  0  0  0  0  0  0  0
   35.5900   28.5770   49.9010 H   0  0  0  0  0  0  0  0  0  0  0  0
   37.8990   29.6820   49.4660 H   0  0  0  0  0  0  0  0  0  0  0  0
   38.0380   31.1300   47.1060 C   0  0  0  0  0  0  0  0  0  0  0  0
   38.5540   30.6560   45.8950 C   0  0  0  0  0  0  0  0  0  0  0  0
   39.6120   31.2610   45.2470 C   0  0  0  0  0  0  0  0  0  0  0  0
   40.1620   32.3790   45.8410 C   0  0  0  0  0  0  0  0  0  0  0  0
   39.6810   32.8700   47.0280 C   0  0  0  0  0  0  0  0  0  0  0  0
   40.2490   33.9950   47.6090 C   0  0  0  0  0  0  0  0  0  0  0  0
   39.7340   34.4670   48.8180 C   0  0  0  0  0  0  0  0  0  0  0  0
   38.6680   33.8120   49.4180 C   0  0  0  0  0  0  0  0  0  0  0  0
   38.1200   32.7000   48.8280 C   0  0  0  0  0  0  0  0  0  0  0  0
   38.6280   32.2480   47.6510 C   0  0  0  0  0  0  0  0  0  0  0  0
  1  3  1  0  0  0  0
  1  2  1  0  0  0  0
  4  9  1  0  0  0  0
  4 18  1  0  0  0  0
  5  4  2  0  0  0  0
  6  7  2  0  0  0  0
  6  5  1  0  0  0  0
  7  8  1  0  0  0  0
  8 13  1  0  0  0  0
  8  9  2  0  0  0  0
  9  1  1  0  0  0  0
 10  5  1  0  0  0  0
 11  6  1  0  0  0  0
 12  7  1  0  0  0  0
 14 20  1  0  0  0  0
 15 22  1  0  0  0  0
 15 14  2  0  0  0  0
 16 15  1  0  0  0  0
 17 16  2  0  0  0  0
 17 18  1  0  0  0  0
 18 19  2  0  0  0  0
 19 14  1  0  0  0  0
 21 16  1  0  0  0  0
 22 24  1  0  0  0  0
 22 23  1  0  0  0  0
 25 22  1  0  0  0  0
 26 29  1  0  0  0  0
 26 27  1  0  0  0  0
 26  1  1  0  0  0  0
 28 26  1  0  0  0  0
 29 30  1  0  0  0  0
 30 34  1  0  0  0  0
 31 30  2  0  0  0  0
 31 35  1  0  0  0  0
 32 31  1  0  0  0  0
 33 32  1  0  0  0  0
 33 29  2  0  0  0  0
 36 45  1  0  0  0  0
 36 32  1  0  0  0  0
 37 36  2  0  0  0  0
 38 39  2  0  0  0  0
 38 37  1  0  0  0  0
 39 40  1  0  0  0  0
 40 41  2  0  0  0  0
 40 45  1  0  0  0  0
 41 42  1  0  0  0  0
 42 43  2  0  0  0  0
 44 43  1  0  0  0  0
 45 44  2  0  0  0  0
M  END
>  <minimizedAffinity>
-8.11972713

>  <minimizedRMSD>
2.64982915

$$$$
