
 OpenBabel03252514043D

 36 39  0  0  1  0  0  0  0  0999 V2000
   35.2410   29.1410   48.5330 C   0  0  2  0  0  0  0  0  0  0  0  0
   33.9960   29.3750   49.2580 C   0  0  0  0  0  0  0  0  0  0  0  0
   34.3130   27.9930   49.0530 C   0  0  1  0  0  0  0  0  0  0  0  0
   35.3090   29.2220   47.4480 H   0  0  0  0  0  0  0  0  0  0  0  0
   33.1690   29.9150   48.7140 H   0  0  0  0  0  0  0  0  0  0  0  0
   34.0780   29.7830   50.2980 H   0  0  0  0  0  0  0  0  0  0  0  0
   34.8160   27.3350   49.7610 H   0  0  0  0  0  0  0  0  0  0  0  0
   36.5300   29.1990   49.3710 C   0  0  0  0  0  0  0  0  0  0  0  0
   37.1000   28.2940   49.0710 H   0  0  0  0  0  0  0  0  0  0  0  0
   36.2800   29.1650   50.4440 H   0  0  0  0  0  0  0  0  0  0  0  0
   37.5450   32.6980   49.6110 C   0  0  0  0  0  0  0  0  0  0  0  0
   38.4420   32.8320   48.5270 C   0  0  0  0  0  0  0  0  0  0  0  0
   38.6820   31.6910   47.7260 C   0  0  0  0  0  0  0  0  0  0  0  0
   38.0280   30.5300   48.0490 N   0  0  0  0  0  0  0  0  0  0  0  0
   37.1900   30.4600   49.0840 C   0  0  0  0  0  0  0  0  0  0  0  0
   36.9570   31.5530   49.8580 N   0  0  0  0  0  0  0  0  0  0  0  0
   37.4250   33.6220   50.1660 H   0  0  0  0  0  0  0  0  0  0  0  0
   38.9380   33.7680   48.3060 H   0  0  0  0  0  0  0  0  0  0  0  0
   39.3660   31.7760   46.8930 H   0  0  0  0  0  0  0  0  0  0  0  0
   33.4900   27.2800   48.0000 C   0  0  0  0  0  0  0  0  0  0  0  0
   33.8490   26.0510   47.8230 O   0  0  0  0  0  0  0  0  0  0  0  0
   32.4390   27.8220   47.2720 O   0  0  0  0  0  0  0  0  0  0  0  0
   31.2020   28.0670   47.7840 C   0  0  0  0  0  0  0  0  0  0  0  0
   30.7500   27.6350   49.1190 C   0  0  0  0  0  0  0  0  0  0  0  0
   29.4970   27.9310   49.5420 C   0  0  0  0  0  0  0  0  0  0  0  0
   28.6260   28.6580   48.6870 C   0  0  0  0  0  0  0  0  0  0  0  0
   29.6560   28.9490   47.1630 S   0  0  0  0  0  0  0  0  0  0  0  0
   31.4520   27.0860   49.7260 H   0  0  0  0  0  0  0  0  0  0  0  0
   29.1050   27.6480   50.5010 H   0  0  0  0  0  0  0  0  0  0  0  0
   27.3460   29.0870   48.8400 C   0  0  0  0  0  0  0  0  0  0  0  0
   26.9650   30.3980   48.6240 C   0  0  0  0  0  3  0  0  0  0  0  0
   25.6660   30.8420   48.7770 C   0  0  0  0  0  3  0  0  0  0  0  0
   24.7510   29.9180   49.1580 N   0  0  0  0  0  0  0  0  0  0  0  0
   25.0880   28.6310   49.3780 C   0  0  0  0  0  0  0  0  0  0  0  0
   24.3180   27.9410   49.6790 H   0  0  0  0  0  0  0  0  0  0  0  0
   26.3690   28.2420   49.2150 N   0  0  0  0  0  0  0  0  0  0  0  0
  1  4  1  6  0  0  0
  1  3  1  0  0  0  0
  1  2  1  0  0  0  0
  1  8  1  0  0  0  0
  2  6  1  0  0  0  0
  3  2  1  0  0  0  0
  3  7  1  1  0  0  0
  5  2  1  0  0  0  0
  8 10  1  0  0  0  0
  9  8  1  0  0  0  0
 11 16  1  0  0  0  0
 11 17  1  0  0  0  0
 12 11  2  0  0  0  0
 13 14  2  0  0  0  0
 13 12  1  0  0  0  0
 14 15  1  0  0  0  0
 15  8  1  0  0  0  0
 15 16  2  0  0  0  0
 18 12  1  0  0  0  0
 19 13  1  0  0  0  0
 20  3  1  0  0  0  0
 21 20  2  0  0  0  0
 22 23  1  0  0  0  0
 22 20  1  0  0  0  0
 23 24  2  0  0  0  0
 24 25  1  0  0  0  0
 24 28  1  0  0  0  0
 25 29  1  0  0  0  0
 26 30  1  0  0  0  0
 26 25  2  0  0  0  0
 27 23  1  0  0  0  0
 27 26  1  0  0  0  0
 30 36  1  0  0  0  0
 31 32  1  0  0  0  0
 31 30  2  0  0  0  0
 32 33  2  0  0  0  0
 33 34  1  0  0  0  0
 34 35  1  0  0  0  0
 36 34  2  0  0  0  0
M  END
>  <minimizedAffinity>
-6.47616434

>  <minimizedRMSD>
1.88945043

$$$$
