
 OpenBabel03252513053D

 35 38  0  0  0  0  0  0  0  0999 V2000
   39.2970   32.1810   46.3730 N   0  0  0  0  0  0  0  0  0  0  0  0
   39.8610   33.3090   45.9660 C   0  0  0  0  0  0  0  0  0  0  0  0
   39.9820   33.7190   44.6680 C   0  0  0  0  0  0  0  0  0  0  0  0
   39.4940   32.9310   43.6660 C   0  0  0  0  0  0  0  0  0  0  0  0
   39.5660   33.2370   42.4580 O   0  0  0  0  0  0  0  0  0  0  0  0
   38.9250   31.7980   44.0320 N   0  0  0  0  0  0  0  0  0  0  0  0
   38.8220   31.4270   45.3180 C   0  0  0  0  0  0  0  0  0  0  0  0
   38.2590   30.3200   45.5600 O   0  0  0  0  0  0  0  0  0  0  0  0
   40.2560   33.9490   46.7690 H   0  0  0  0  0  0  0  0  0  0  0  0
   40.4620   34.6600   44.4600 H   0  0  0  0  0  0  0  0  0  0  0  0
   38.3980   30.9410   43.0110 C   0  0  0  0  0  0  0  0  0  0  0  0
   37.0540   31.0170   42.6820 C   0  0  0  0  0  0  0  0  0  0  0  0
   36.5840   30.1710   41.6890 C   0  0  0  0  0  0  0  0  0  0  0  0
   37.4540   29.3060   41.0790 C   0  0  0  0  0  0  0  0  0  0  0  0
   38.7820   29.2060   41.3790 C   0  0  0  0  0  0  0  0  0  0  0  0
   39.5870   28.3050   40.7160 C   0  0  0  0  0  0  0  0  0  0  0  0
   40.9070   28.3060   41.1130 C   0  0  0  0  0  0  0  0  0  0  0  0
   41.4440   29.1150   42.0900 C   0  0  0  0  0  0  0  0  0  0  0  0
   40.5920   29.9990   42.7230 C   0  0  0  0  0  0  0  0  0  0  0  0
   39.2460   30.0500   42.3700 C   0  0  0  0  0  0  0  0  0  0  0  0
   39.1250   31.6740   47.6730 C   0  0  0  0  0  0  0  0  0  0  0  0
   38.8720   30.5800   47.5740 H   0  0  0  0  0  0  0  0  0  0  0  0
   40.1140   31.6680   48.2110 H   0  0  0  0  0  0  0  0  0  0  0  0
   38.1300   32.2890   48.5650 C   0  0  0  0  0  0  0  0  0  0  0  0
   37.3920   32.9190   48.0270 H   0  0  0  0  0  0  0  0  0  0  0  0
   38.6590   33.0030   49.2520 H   0  0  0  0  0  0  0  0  0  0  0  0
   35.5410   29.9630   50.0160 C   0  0  0  0  0  0  0  0  0  0  0  0
   36.1610   30.8730   49.1330 C   0  0  0  0  0  0  0  0  0  0  0  0
   37.4130   31.3390   49.4300 C   0  0  0  0  0  0  0  0  0  0  0  0
   38.0030   30.8920   50.5780 N   0  0  0  0  0  0  0  0  0  0  0  0
   37.4210   30.0380   51.4060 C   0  0  0  0  0  0  0  0  0  0  0  0
   36.1970   29.5650   51.1430 N   0  0  0  0  0  0  0  0  0  0  0  0
   34.5580   29.6720   49.6700 H   0  0  0  0  0  0  0  0  0  0  0  0
   35.6970   31.2280   48.2240 H   0  0  0  0  0  0  0  0  0  0  0  0
   37.9250   29.7100   52.3050 H   0  0  0  0  0  0  0  0  0  0  0  0
  1 21  1  0  0  0  0
  2  1  1  0  0  0  0
  2  9  1  0  0  0  0
  3  2  2  0  0  0  0
  4  6  1  0  0  0  0
  4  3  1  0  0  0  0
  5  4  2  0  0  0  0
  6  7  1  0  0  0  0
  7  8  2  0  0  0  0
  7  1  1  0  0  0  0
 10  3  1  0  0  0  0
 11  6  1  0  0  0  0
 12 11  1  0  0  0  0
 13 12  2  0  0  0  0
 14 15  2  0  0  0  0
 14 13  1  0  0  0  0
 15 20  1  0  0  0  0
 16 17  2  0  0  0  0
 16 15  1  0  0  0  0
 17 18  1  0  0  0  0
 18 19  2  0  0  0  0
 20 19  1  0  0  0  0
 20 11  2  0  0  0  0
 21 23  1  0  0  0  0
 21 24  1  0  0  0  0
 22 21  1  0  0  0  0
 24 26  1  0  0  0  0
 24 29  1  0  0  0  0
 25 24  1  0  0  0  0
 27 32  1  0  0  0  0
 28 29  1  0  0  0  0
 28 27  2  0  0  0  0
 29 30  2  0  0  0  0
 30 31  1  0  0  0  0
 31 35  1  0  0  0  0
 32 31  2  0  0  0  0
 33 27  1  0  0  0  0
 34 28  1  0  0  0  0
M  END
>  <minimizedAffinity>
-6.14226723

>  <minimizedRMSD>
2.40890551

$$$$
