
 OpenBabel03252514013D

 31 33  0  0  1  0  0  0  0  0999 V2000
   35.5520   29.5020   49.0200 C   0  0  2  0  0  0  0  0  0  0  0  0
   34.5180   29.7090   50.0420 C   0  0  0  0  0  0  0  0  0  0  0  0
   34.7380   28.3350   49.6090 C   0  0  1  0  0  0  0  0  0  0  0  0
   35.3490   29.7070   47.9700 H   0  0  0  0  0  0  0  0  0  0  0  0
   34.8920   29.9500   51.0760 H   0  0  0  0  0  0  0  0  0  0  0  0
   33.5490   30.2130   49.8520 H   0  0  0  0  0  0  0  0  0  0  0  0
   35.4030   27.5660   50.0450 H   0  0  0  0  0  0  0  0  0  0  0  0
   37.0050   29.4710   49.4900 C   0  0  0  0  0  0  0  0  0  0  0  0
   36.9800   29.4810   50.5970 H   0  0  0  0  0  0  0  0  0  0  0  0
   37.4570   28.5460   49.1120 H   0  0  0  0  0  0  0  0  0  0  0  0
   38.2500   32.9170   49.3570 C   0  0  0  0  0  0  0  0  0  0  0  0
   38.8760   32.9740   48.1020 C   0  0  0  0  0  0  0  0  0  0  0  0
   38.8630   31.8160   47.3090 C   0  0  0  0  0  0  0  0  0  0  0  0
   38.2370   30.6940   47.8090 N   0  0  0  0  0  0  0  0  0  0  0  0
   37.6560   30.6930   49.0100 C   0  0  0  0  0  0  0  0  0  0  0  0
   37.6660   31.8070   49.7780 N   0  0  0  0  0  0  0  0  0  0  0  0
   38.2560   33.8040   49.9750 H   0  0  0  0  0  0  0  0  0  0  0  0
   39.3430   33.9040   47.7940 H   0  0  0  0  0  0  0  0  0  0  0  0
   39.3380   31.8650   46.3610 H   0  0  0  0  0  0  0  0  0  0  0  0
   33.6470   27.7620   48.7460 C   0  0  0  0  0  0  0  0  0  0  0  0
   34.0680   26.9950   47.7900 O   0  0  0  0  0  0  0  0  0  0  0  0
   32.2840   27.9700   48.8890 O   0  0  0  0  0  0  0  0  0  0  0  0
   31.4410   27.8460   47.7940 C   0  0  0  0  0  0  0  0  0  0  0  0
   31.3770   28.6300   46.6600 C   0  0  0  0  0  0  0  0  0  0  0  0
   32.0800   29.4360   46.6450 H   0  0  0  0  0  0  0  0  0  0  0  0
   30.4470   28.3240   45.6760 C   0  0  0  0  0  3  0  0  0  0  0  0
   29.5990   27.2460   45.8350 C   0  0  0  0  0  0  0  0  0  0  0  0
   28.8670   27.0110   45.0500 H   0  0  0  0  0  0  0  0  0  0  0  0
   29.6460   26.4430   46.9680 C   0  0  0  0  0  0  0  0  0  0  0  0
   28.9600   25.5970   47.0630 H   0  0  0  0  0  0  0  0  0  0  0  0
   30.5840   26.7530   47.9570 C   0  0  0  0  0  3  0  0  0  0  0  0
  1  4  1  6  0  0  0
  1  8  1  0  0  0  0
  1  3  1  0  0  0  0
  1  2  1  0  0  0  0
  2  5  1  0  0  0  0
  3  2  1  0  0  0  0
  3  7  1  1  0  0  0
  6  2  1  0  0  0  0
  8  9  1  0  0  0  0
 10  8  1  0  0  0  0
 11 16  1  0  0  0  0
 11 17  1  0  0  0  0
 12 11  2  0  0  0  0
 13 14  2  0  0  0  0
 13 12  1  0  0  0  0
 14 15  1  0  0  0  0
 15  8  1  0  0  0  0
 15 16  2  0  0  0  0
 18 12  1  0  0  0  0
 19 13  1  0  0  0  0
 20 22  1  0  0  0  0
 20  3  1  0  0  0  0
 21 20  2  0  0  0  0
 23 31  1  0  0  0  0
 23 22  1  0  0  0  0
 24 23  2  0  0  0  0
 25 24  1  0  0  0  0
 26 27  2  0  0  0  0
 26 24  1  0  0  0  0
 27 29  1  0  0  0  0
 28 27  1  0  0  0  0
 29 30  1  0  0  0  0
 29 31  2  0  0  0  0
M  END
>  <minimizedAffinity>
-4.93262959

>  <minimizedRMSD>
0.405488819

$$$$
