
 OpenBabel03252509453D

 16 17  0  0  0  0  0  0  0  0999 V2000
   37.5700   30.4410   50.8510 C   0  0  0  0  0  0  0  0  0  0  0  0
   38.3790   31.3510   50.1570 C   0  0  0  0  0  0  0  0  0  0  0  0
   37.9790   31.6740   48.8410 C   0  0  0  0  0  0  0  0  0  0  0  0
   36.8590   31.0890   48.3470 N   0  0  0  0  0  0  0  0  0  0  0  0
   36.1150   30.2200   49.0520 C   0  0  0  0  0  0  0  0  0  0  0  0
   36.4680   29.8940   50.3060 N   0  0  0  0  0  0  0  0  0  0  0  0
   37.9150   30.2280   51.8460 H   0  0  0  0  0  0  0  0  0  0  0  0
   39.2630   31.7900   50.5960 H   0  0  0  0  0  0  0  0  0  0  0  0
   38.5710   32.3780   48.2530 H   0  0  0  0  0  0  0  0  0  0  0  0
   34.9210   29.6310   48.4560 C   0  0  0  0  0  0  0  0  0  0  0  0
   34.3260   28.5320   49.0380 C   0  0  0  0  0  0  0  0  0  0  0  0
   33.1870   27.8890   48.5580 C   0  0  0  0  0  0  0  0  0  0  0  0
   32.6750   28.4340   47.4290 N   0  0  0  0  0  0  0  0  0  0  0  0
   33.2420   29.5040   46.8480 C   0  0  0  0  0  0  0  0  0  0  0  0
   32.7410   29.8480   45.9520 H   0  0  0  0  0  0  0  0  0  0  0  0
   34.3580   30.1240   47.3310 N   0  0  0  0  0  0  0  0  0  0  0  0
  1  7  1  0  0  0  0
  2  8  1  0  0  0  0
  2  1  2  0  0  0  0
  3  2  1  0  0  0  0
  4  3  2  0  0  0  0
  4  5  1  0  0  0  0
  5  6  2  0  0  0  0
  6  1  1  0  0  0  0
  9  3  1  0  0  0  0
 10 11  1  0  0  0  0
 10  5  1  0  0  0  0
 12 11  2  0  0  0  0
 13 12  1  0  0  0  0
 14 16  1  0  0  0  0
 14 13  2  0  0  0  0
 15 14  1  0  0  0  0
 16 10  2  0  0  0  0
M  END
>  <minimizedAffinity>
-4.01850319

>  <minimizedRMSD>
1.91807246

$$$$
