
 OpenBabel03252513393D

 26 27  0  0  0  0  0  0  0  0999 V2000
   36.9170   29.9250   49.8720 C   0  0  0  0  0  0  0  0  0  0  0  0
   38.0120   30.6480   49.4120 C   0  0  0  0  0  0  0  0  0  0  0  0
   38.0110   31.0820   48.0930 C   0  0  0  0  0  0  0  0  0  0  0  0
   36.9320   30.7710   47.3260 N   0  0  0  0  0  0  0  0  0  0  0  0
   35.8870   30.0680   47.8060 C   0  0  0  0  0  0  0  0  0  0  0  0
   35.8830   29.6500   49.0710 N   0  0  0  0  0  0  0  0  0  0  0  0
   39.0760   31.8140   47.5600 N   0  0  0  0  0  0  0  0  0  0  0  0
   38.9470   32.5710   46.3690 C   0  0  0  0  0  0  0  0  0  0  0  0
   37.8750   32.4150   45.6730 N   0  0  0  0  0  0  0  0  0  0  0  0
   39.9750   33.4720   45.9720 N   0  0  0  0  0  0  0  0  0  0  0  0
   37.7850   32.9410   44.7650 H   0  0  0  0  0  0  0  0  0  0  0  0
   38.8380   30.8710   50.0420 H   0  0  0  0  0  0  0  0  0  0  0  0
   40.0030   31.7940   48.0670 H   0  0  0  0  0  0  0  0  0  0  0  0
   40.4790   33.4220   45.0620 H   0  0  0  0  0  0  0  0  0  0  0  0
   40.1790   34.2080   46.7090 H   0  0  0  0  0  0  0  0  0  0  0  0
   34.7820   29.7940   46.8890 C   0  0  0  0  0  0  0  0  0  0  0  0
   34.9500   29.9950   45.5330 C   0  0  0  0  0  0  0  0  0  0  0  0
   33.8480   29.7100   44.7350 C   0  0  0  0  0  0  0  0  0  0  0  0
   32.7010   29.2650   45.2830 N   0  0  0  0  0  0  0  0  0  0  0  0
   32.5500   29.0750   46.5900 C   0  0  0  0  0  0  0  0  0  0  0  0
   31.6450   28.7190   47.0620 H   0  0  0  0  0  0  0  0  0  0  0  0
   33.6170   29.3470   47.3980 N   0  0  0  0  0  0  0  0  0  0  0  0
   36.9130   29.4480   51.3100 C   0  0  0  0  0  0  0  0  0  0  0  0
   35.6190   29.1660   51.6950 F   0  0  0  0  0  0  0  0  0  0  0  0
   37.7700   28.4160   51.4260 F   0  0  0  0  0  0  0  0  0  0  0  0
   37.3420   30.5360   52.0850 F   0  0  0  0  0  0  0  0  0  0  0  0
  1 23  1  0  0  0  0
  2  1  1  0  0  0  0
  2 12  1  0  0  0  0
  3  2  2  0  0  0  0
  4  5  2  0  0  0  0
  4  3  1  0  0  0  0
  5  6  1  0  0  0  0
  6  1  2  0  0  0  0
  7 13  1  0  0  0  0
  7  3  1  0  0  0  0
  8  7  1  0  0  0  0
  9  8  2  0  0  0  0
 10  8  1  0  0  0  0
 10 15  1  0  0  0  0
 11  9  1  0  0  0  0
 14 10  1  0  0  0  0
 16 22  1  0  0  0  0
 16  5  1  0  0  0  0
 17 16  2  0  0  0  0
 18 19  2  0  0  0  0
 18 17  1  0  0  0  0
 19 20  1  0  0  0  0
 20 21  1  0  0  0  0
 20 22  2  0  0  0  0
 23 25  1  0  0  0  0
 23 24  1  0  0  0  0
 23 26  1  0  0  0  0
M  END
>  <minimizedAffinity>
-6.61306

>  <minimizedRMSD>
0.451576382

$$$$
