
 OpenBabel03252512303D

 35 37  0  0  1  0  0  0  0  0999 V2000
   31.7330   28.0780   46.9170 C   0  0  2  0  0  0  0  0  0  0  0  0
   31.9770   27.1310   46.3510 H   0  0  0  0  0  0  0  0  0  0  0  0
   35.1560   29.5400   48.6070 C   0  0  0  0  0  0  0  0  0  0  0  0
   34.7140   28.3430   49.1770 C   0  0  0  0  0  0  0  0  0  0  0  0
   33.5860   27.8020   48.6730 C   0  0  0  0  0  0  0  0  0  0  0  0
   32.9640   28.4150   47.6820 C   0  0  0  0  0  0  0  0  0  0  0  0
   33.9410   29.9130   47.3170 S   0  0  0  0  0  0  0  0  0  0  0  0
   35.3220   27.9310   50.0010 H   0  0  0  0  0  0  0  0  0  0  0  0
   33.1690   26.8760   49.0520 H   0  0  0  0  0  0  0  0  0  0  0  0
   38.0250   30.8290   50.4960 C   0  0  0  0  0  0  0  0  0  0  0  0
   38.5750   31.7930   49.6380 C   0  0  0  0  0  0  0  0  0  0  0  0
   37.9520   31.9820   48.4300 C   0  0  0  0  0  0  0  0  0  0  0  0
   36.8640   31.2340   48.1560 N   0  0  0  0  0  0  0  0  0  0  0  0
   36.3670   30.3390   48.9740 C   0  0  0  0  0  0  0  0  0  0  0  0
   36.9150   30.0680   50.2130 N   0  0  0  0  0  0  0  0  0  0  0  0
   38.4550   30.6170   51.4710 H   0  0  0  0  0  0  0  0  0  0  0  0
   39.4460   32.3220   49.9780 H   0  0  0  0  0  0  0  0  0  0  0  0
   38.3490   32.7170   47.7440 H   0  0  0  0  0  0  0  0  0  0  0  0
   31.4360   29.1470   45.9590 C   0  0  0  0  0  0  0  0  0  0  0  0
   32.3100   29.8500   45.8350 H   0  0  0  0  0  0  0  0  0  0  0  0
   31.1030   28.8350   44.9630 H   0  0  0  0  0  0  0  0  0  0  0  0
   30.6370   29.8060   46.4070 H   0  0  0  0  0  0  0  0  0  0  0  0
   30.6290   27.7990   47.9120 C   0  0  0  0  0  0  0  0  0  0  0  0
   31.0360   27.7600   48.9420 H   0  0  0  0  0  0  0  0  0  0  0  0
   29.9720   28.7110   47.8910 H   0  0  0  0  0  0  0  0  0  0  0  0
   29.9000   26.7000   47.6030 O   0  0  0  0  0  0  0  0  0  0  0  0
   29.1320   26.4230   46.4940 C   0  0  0  0  0  0  0  0  0  0  0  0
   29.4120   25.1310   46.0340 C   0  0  0  0  0  0  0  0  0  0  0  0
   30.1250   24.4130   46.4600 H   0  0  0  0  0  0  0  0  0  0  0  0
   28.7570   24.6090   44.9120 C   0  0  0  0  0  0  0  0  0  0  0  0
   27.8280   25.3820   44.2590 C   0  0  0  0  0  0  0  0  0  0  0  0
   27.3090   25.0160   43.3970 H   0  0  0  0  0  0  0  0  0  0  0  0
   27.5570   26.6500   44.7140 C   0  0  0  0  0  0  0  0  0  0  0  0
   26.8330   27.3330   44.2540 H   0  0  0  0  0  0  0  0  0  0  0  0
   28.1950   27.1750   45.8170 C   0  0  0  0  0  0  0  0  0  0  0  0
  1  2  1  6  0  0  0
  1  6  1  0  0  0  0
  1 23  1  0  0  0  0
  3 14  1  0  0  0  0
  3  4  2  0  0  0  0
  4  8  1  0  0  0  0
  5  9  1  0  0  0  0
  5  4  1  0  0  0  0
  6  5  2  0  0  0  0
  7  6  1  0  0  0  0
  7  3  1  0  0  0  0
 10 16  1  0  0  0  0
 11 17  1  0  0  0  0
 11 10  2  0  0  0  0
 12 11  1  0  0  0  0
 13 12  2  0  0  0  0
 13 14  1  0  0  0  0
 14 15  2  0  0  0  0
 15 10  1  0  0  0  0
 18 12  1  0  0  0  0
 19 22  1  0  0  0  0
 19  1  1  0  0  0  0
 20 19  1  0  0  0  0
 21 19  1  0  0  0  0
 23 24  1  0  0  0  0
 25 23  1  0  0  0  0
 26 23  1  0  0  0  0
 27 26  1  0  0  0  0
 28 29  1  0  0  0  0
 28 27  1  0  0  0  0
 30 28  2  0  0  0  0
 31 33  2  0  0  0  0
 31 30  1  0  0  0  0
 32 31  1  0  0  0  0
 33 35  1  0  0  0  0
 34 33  1  0  0  0  0
 35 27  2  0  0  0  0
M  END
>  <minimizedAffinity>
-4.74430895

>  <minimizedRMSD>
1.10104859

$$$$
