
 OpenBabel03252513573D

 26 28  0  0  1  0  0  0  0  0999 V2000
   35.4920   29.4450   49.1700 C   0  0  2  0  0  0  0  0  0  0  0  0
   34.3920   29.5720   50.1670 C   0  0  0  0  0  0  0  0  0  0  0  0
   34.6620   28.2350   49.5540 C   0  0  1  0  0  0  0  0  0  0  0  0
   35.3040   29.9190   48.1940 H   0  0  0  0  0  0  0  0  0  0  0  0
   34.7360   29.7230   51.2170 H   0  0  0  0  0  0  0  0  0  0  0  0
   33.5050   30.1640   49.9090 H   0  0  0  0  0  0  0  0  0  0  0  0
   35.1240   27.4420   50.1810 H   0  0  0  0  0  0  0  0  0  0  0  0
   33.5870   27.7690   48.6400 C   0  0  0  0  0  0  0  0  0  0  0  0
   33.8650   27.1100   47.4500 C   0  0  0  0  0  0  0  0  0  0  0  0
   32.8170   26.6940   46.6280 C   0  0  0  0  0  0  0  0  0  0  0  0
   31.5370   26.9310   46.9860 N   0  0  0  0  0  0  0  0  0  0  0  0
   31.2720   27.5770   48.1530 C   0  0  0  0  0  0  0  0  0  0  0  0
   30.2920   27.8190   48.5370 H   0  0  0  0  0  0  0  0  0  0  0  0
   32.2860   27.9770   48.9430 N   0  0  0  0  0  0  0  0  0  0  0  0
   36.9310   29.3660   49.6370 C   0  0  0  0  0  0  0  0  0  0  0  0
   36.9130   29.4170   50.7430 H   0  0  0  0  0  0  0  0  0  0  0  0
   37.4240   28.4190   49.3070 H   0  0  0  0  0  0  0  0  0  0  0  0
   38.4190   32.7230   49.3650 C   0  0  0  0  0  0  0  0  0  0  0  0
   38.9130   32.7540   48.0610 C   0  0  0  0  0  0  0  0  0  0  0  0
   38.7270   31.6080   47.2840 C   0  0  0  0  0  0  0  0  0  0  0  0
   38.0750   30.5350   47.8510 N   0  0  0  0  0  0  0  0  0  0  0  0
   37.6180   30.5600   49.1140 C   0  0  0  0  0  0  0  0  0  0  0  0
   37.7970   31.6740   49.8750 N   0  0  0  0  0  0  0  0  0  0  0  0
   38.4970   33.5420   50.0700 H   0  0  0  0  0  0  0  0  0  0  0  0
   39.4090   33.6540   47.7250 H   0  0  0  0  0  0  0  0  0  0  0  0
   39.0990   31.6130   46.2820 H   0  0  0  0  0  0  0  0  0  0  0  0
  1  4  1  6  0  0  0
  1  3  1  0  0  0  0
  1 15  1  0  0  0  0
  1  2  1  0  0  0  0
  2  5  1  0  0  0  0
  3  2  1  0  0  0  0
  3  7  1  1  0  0  0
  6  2  1  0  0  0  0
  8 14  1  0  0  0  0
  8  3  1  0  0  0  0
  9  8  2  0  0  0  0
 10 11  2  0  0  0  0
 10  9  1  0  0  0  0
 11 12  1  0  0  0  0
 12 13  1  0  0  0  0
 12 14  2  0  0  0  0
 15 16  1  0  0  0  0
 17 15  1  0  0  0  0
 18 23  1  0  0  0  0
 18 24  1  0  0  0  0
 19 18  2  0  0  0  0
 20 21  2  0  0  0  0
 20 19  1  0  0  0  0
 21 22  1  0  0  0  0
 22 15  1  0  0  0  0
 22 23  2  0  0  0  0
 25 19  1  0  0  0  0
 26 20  1  0  0  0  0
M  END
>  <minimizedAffinity>
-5.08017826

>  <minimizedRMSD>
0.776106954

$$$$
