
 OpenBabel03252514023D

 31 33  0  0  1  0  0  0  0  0999 V2000
   35.5170   29.4760   49.1320 C   0  0  2  0  0  0  0  0  0  0  0  0
   34.4870   29.5810   50.1730 C   0  0  0  0  0  0  0  0  0  0  0  0
   34.7240   28.2510   49.6240 C   0  0  1  0  0  0  0  0  0  0  0  0
   35.3040   29.7680   48.1040 H   0  0  0  0  0  0  0  0  0  0  0  0
   34.8630   29.7380   51.2220 H   0  0  0  0  0  0  0  0  0  0  0  0
   33.5090   30.0840   50.0320 H   0  0  0  0  0  0  0  0  0  0  0  0
   35.4020   27.4580   49.9890 H   0  0  0  0  0  0  0  0  0  0  0  0
   36.9730   29.4280   49.5900 C   0  0  0  0  0  0  0  0  0  0  0  0
   36.9590   29.4900   50.6960 H   0  0  0  0  0  0  0  0  0  0  0  0
   37.3960   28.4740   49.2530 H   0  0  0  0  0  0  0  0  0  0  0  0
   38.4180   32.7870   49.3320 C   0  0  0  0  0  0  0  0  0  0  0  0
   38.9230   32.8090   48.0230 C   0  0  0  0  0  0  0  0  0  0  0  0
   38.7610   31.6580   47.2370 C   0  0  0  0  0  0  0  0  0  0  0  0
   38.1150   30.5760   47.7970 N   0  0  0  0  0  0  0  0  0  0  0  0
   37.6520   30.6070   49.0480 C   0  0  0  0  0  0  0  0  0  0  0  0
   37.8070   31.7150   49.8090 N   0  0  0  0  0  0  0  0  0  0  0  0
   38.5390   33.6700   49.9440 H   0  0  0  0  0  0  0  0  0  0  0  0
   39.4180   33.7090   47.6700 H   0  0  0  0  0  0  0  0  0  0  0  0
   39.1450   31.6800   46.2480 H   0  0  0  0  0  0  0  0  0  0  0  0
   33.6360   27.7380   48.7200 C   0  0  0  0  0  0  0  0  0  0  0  0
   34.0570   27.0140   47.7310 O   0  0  0  0  0  0  0  0  0  0  0  0
   32.2740   27.9580   48.8590 O   0  0  0  0  0  0  0  0  0  0  0  0
   31.4310   27.8220   47.7650 C   0  0  0  0  0  0  0  0  0  0  0  0
   31.3400   28.6200   46.6420 C   0  0  0  0  0  0  0  0  0  0  0  0
   32.0190   29.4470   46.6360 H   0  0  0  0  0  0  0  0  0  0  0  0
   30.4160   28.2980   45.6570 C   0  0  0  0  0  3  0  0  0  0  0  0
   29.6020   27.1940   45.8030 C   0  0  0  0  0  0  0  0  0  0  0  0
   28.8740   26.9490   45.0170 H   0  0  0  0  0  0  0  0  0  0  0  0
   29.6770   26.3770   46.9240 C   0  0  0  0  0  0  0  0  0  0  0  0
   29.0170   25.5090   47.0090 H   0  0  0  0  0  0  0  0  0  0  0  0
   30.6080   26.7030   47.9150 C   0  0  0  0  0  3  0  0  0  0  0  0
  1  4  1  6  0  0  0
  1  8  1  0  0  0  0
  1  3  1  0  0  0  0
  1  2  1  0  0  0  0
  2  5  1  0  0  0  0
  3  7  1  1  0  0  0
  3  2  1  0  0  0  0
  6  2  1  0  0  0  0
  8  9  1  0  0  0  0
 10  8  1  0  0  0  0
 11 16  1  0  0  0  0
 11 17  1  0  0  0  0
 12 11  2  0  0  0  0
 13 14  2  0  0  0  0
 13 12  1  0  0  0  0
 14 15  1  0  0  0  0
 15  8  1  0  0  0  0
 15 16  2  0  0  0  0
 18 12  1  0  0  0  0
 19 13  1  0  0  0  0
 20 22  1  0  0  0  0
 20  3  1  0  0  0  0
 21 20  2  0  0  0  0
 23 31  1  0  0  0  0
 23 22  1  0  0  0  0
 24 23  2  0  0  0  0
 25 24  1  0  0  0  0
 26 27  2  0  0  0  0
 26 24  1  0  0  0  0
 27 29  1  0  0  0  0
 28 27  1  0  0  0  0
 29 30  1  0  0  0  0
 29 31  2  0  0  0  0
M  END
>  <minimizedAffinity>
-4.94234371

>  <minimizedRMSD>
0.353742898

$$$$
