
 OpenBabel03252511503D

 43 48  0  0  1  0  0  0  0  0999 V2000
   35.4770   30.3320   47.2150 C   0  0  0  0  0  0  0  0  0  0  0  0
   36.5380   30.5400   48.0810 C   0  0  0  0  0  0  0  0  0  0  0  0
   36.6160   29.6020   49.1540 C   0  0  0  0  0  0  0  0  0  0  0  0
   35.6900   28.6090   49.2580 N   0  0  0  0  0  0  0  0  0  0  0  0
   34.6940   28.4720   48.3830 C   0  0  0  0  0  0  0  0  0  0  0  0
   34.5930   29.3360   47.3650 N   0  0  0  0  0  0  0  0  0  0  0  0
   35.4480   31.0540   46.4180 H   0  0  0  0  0  0  0  0  0  0  0  0
   37.3790   29.6290   49.9080 H   0  0  0  0  0  0  0  0  0  0  0  0
   37.5680   31.5550   48.0660 C   0  0  0  0  0  0  0  0  0  0  0  0
   37.5060   32.3460   49.1840 C   0  0  0  0  0  0  0  0  0  0  0  0
   38.4080   33.3940   49.3800 C   0  0  0  0  0  0  0  0  0  0  0  0
   39.3800   33.6390   48.4320 C   0  0  0  0  0  0  0  0  0  0  0  0
   39.4290   32.8320   47.3120 C   0  0  0  0  0  0  0  0  0  0  0  0
   40.3710   32.9910   46.2910 C   0  0  0  0  0  0  0  0  0  0  0  0
   40.3670   32.1560   45.2040 C   0  0  0  0  0  0  0  0  0  0  0  0
   39.4560   31.1440   45.0660 C   0  0  0  0  0  0  0  0  0  0  0  0
   38.5150   30.9740   46.0690 C   0  0  0  0  0  0  0  0  0  0  0  0
   38.5360   31.8160   47.1470 C   0  0  0  0  0  0  0  0  0  0  0  0
   36.8010   32.2700   50.0030 H   0  0  0  0  0  0  0  0  0  0  0  0
   38.3950   34.0430   50.2450 H   0  0  0  0  0  0  0  0  0  0  0  0
   40.1260   34.4240   48.4870 H   0  0  0  0  0  0  0  0  0  0  0  0
   41.1020   33.7950   46.3920 H   0  0  0  0  0  0  0  0  0  0  0  0
   41.0970   32.2710   44.4030 H   0  0  0  0  0  0  0  0  0  0  0  0
   39.4580   30.4800   44.1950 H   0  0  0  0  0  0  0  0  0  0  0  0
   37.7910   30.1550   45.9440 H   0  0  0  0  0  0  0  0  0  0  0  0
   33.7220   27.3560   48.5600 C   0  0  1  0  0  0  0  0  0  0  0  0
   32.2680   27.7050   48.6980 C   0  0  0  0  0  0  0  0  0  0  0  0
   32.7800   27.0240   47.4590 C   0  0  2  0  0  0  0  0  0  0  0  0
   34.0970   26.5120   49.1730 H   0  0  0  0  0  0  0  0  0  0  0  0
   32.0560   28.8060   48.6550 H   0  0  0  0  0  0  0  0  0  0  0  0
   31.7070   27.1180   49.4360 H   0  0  0  0  0  0  0  0  0  0  0  0
   32.8470   27.6870   46.5680 H   0  0  0  0  0  0  0  0  0  0  0  0
   32.4040   25.3090   47.1220 S   0  0  0  0  0  0  0  0  0  0  0  0
   33.8820   24.3150   46.8990 C   0  0  0  0  0  0  0  0  0  0  0  0
   34.1160   23.3870   47.8990 C   0  0  0  0  0  0  0  0  0  0  0  0
   35.2080   22.5750   47.8390 C   0  0  0  0  0  0  0  0  0  0  0  0
   36.0500   22.7220   46.7560 C   0  0  0  0  0  0  0  0  0  0  0  0
   35.8520   23.6280   45.7450 C   0  0  0  0  0  0  0  0  0  0  0  0
   36.7140   23.7550   44.6660 C   0  0  0  0  0  0  0  0  0  0  0  0
   36.4240   24.6970   43.7050 C   0  0  0  0  0  0  0  0  0  0  0  0
   35.2970   25.5110   43.7990 C   0  0  0  0  0  0  0  0  0  0  0  0
   34.4290   25.4010   44.8610 C   0  0  0  0  0  0  0  0  0  0  0  0
   34.7330   24.4560   45.8110 C   0  0  0  0  0  0  0  0  0  0  0  0
  1  6  2  0  0  0  0
  1  2  1  0  0  0  0
  2  3  2  0  0  0  0
  3  4  1  0  0  0  0
  3  8  1  0  0  0  0
  5 26  1  0  0  0  0
  5  4  2  0  0  0  0
  6  5  1  0  0  0  0
  7  1  1  0  0  0  0
  9  2  1  0  0  0  0
  9 10  1  0  0  0  0
 10 11  2  0  0  0  0
 10 19  1  0  0  0  0
 11 20  1  0  0  0  0
 12 21  1  0  0  0  0
 12 11  1  0  0  0  0
 13 12  2  0  0  0  0
 14 22  1  0  0  0  0
 14 13  1  0  0  0  0
 15 14  2  0  0  0  0
 16 15  1  0  0  0  0
 16 17  2  0  0  0  0
 17 18  1  0  0  0  0
 18 13  1  0  0  0  0
 18  9  2  0  0  0  0
 23 15  1  0  0  0  0
 24 16  1  0  0  0  0
 25 17  1  0  0  0  0
 26 27  1  0  0  0  0
 26 29  1  1  0  0  0
 27 31  1  0  0  0  0
 28 32  1  6  0  0  0
 28 26  1  0  0  0  0
 28 27  1  0  0  0  0
 30 27  1  0  0  0  0
 33 28  1  0  0  0  0
 34 33  1  0  0  0  0
 34 35  1  0  0  0  0
 36 35  2  0  0  0  0
 37 36  1  0  0  0  0
 38 43  1  0  0  0  0
 38 37  2  0  0  0  0
 39 38  1  0  0  0  0
 40 41  1  0  0  0  0
 40 39  2  0  0  0  0
 41 42  2  0  0  0  0
 42 43  1  0  0  0  0
 43 34  2  0  0  0  0
M  END
>  <minimizedAffinity>
-7.46648741

>  <minimizedRMSD>
0.649826825

$$$$
