
 OpenBabel03252510313D

 24 26  0  0  0  0  0  0  0  0999 V2000
   36.9210   31.2770   48.6640 C   0  0  0  0  0  0  0  0  0  0  0  0
   37.3840   32.1180   49.6470 C   0  0  0  0  0  0  0  0  0  0  0  0
   38.4430   32.9530   49.3310 C   0  0  0  0  0  0  0  0  0  0  0  0
   39.0330   32.9790   48.1210 N   0  0  0  0  0  0  0  0  0  0  0  0
   38.5380   32.1290   47.1810 C   0  0  0  0  0  0  0  0  0  0  0  0
   37.4920   31.2860   47.4500 N   0  0  0  0  0  0  0  0  0  0  0  0
   36.9160   32.1060   50.6250 H   0  0  0  0  0  0  0  0  0  0  0  0
   38.7650   33.5910   50.1430 H   0  0  0  0  0  0  0  0  0  0  0  0
   35.6790   29.7690   50.1320 C   0  0  0  0  0  0  0  0  0  0  0  0
   35.8180   30.3540   48.8630 C   0  0  0  0  0  0  0  0  0  0  0  0
   34.9000   30.0180   47.8890 C   0  0  0  0  0  0  0  0  0  0  0  0
   33.9070   29.1350   48.2080 N   0  0  0  0  0  0  0  0  0  0  0  0
   33.7940   28.5870   49.4320 C   0  0  0  0  0  0  0  0  0  0  0  0
   34.6800   28.9000   50.4040 N   0  0  0  0  0  0  0  0  0  0  0  0
   36.3830   30.0140   50.9130 H   0  0  0  0  0  0  0  0  0  0  0  0
   35.0020   30.4660   46.9100 H   0  0  0  0  0  0  0  0  0  0  0  0
   32.9560   27.9260   49.4810 H   0  0  0  0  0  0  0  0  0  0  0  0
   39.1100   32.0820   45.8360 C   0  0  0  0  0  0  0  0  0  0  0  0
   40.1760   31.2220   45.6030 C   0  0  0  0  0  0  0  0  0  0  0  0
   40.6700   31.2250   44.3120 C   0  0  0  0  0  0  0  0  0  0  0  0
   40.1810   31.9930   43.3200 N   0  0  0  0  0  0  0  0  0  0  0  0
   39.1390   32.8210   43.5790 C   0  0  0  0  0  0  0  0  0  0  0  0
   38.6570   33.4860   42.8730 H   0  0  0  0  0  0  0  0  0  0  0  0
   38.6540   32.8300   44.8140 N   0  0  0  0  0  0  0  0  0  0  0  0
  1 10  1  0  0  0  0
  1  2  1  0  0  0  0
  2  7  1  0  0  0  0
  3  2  2  0  0  0  0
  3  8  1  0  0  0  0
  4  3  1  0  0  0  0
  5  6  1  0  0  0  0
  5  4  2  0  0  0  0
  6  1  2  0  0  0  0
  9 14  1  0  0  0  0
  9 15  1  0  0  0  0
 10  9  2  0  0  0  0
 11 12  2  0  0  0  0
 11 10  1  0  0  0  0
 12 13  1  0  0  0  0
 13 17  1  0  0  0  0
 13 14  2  0  0  0  0
 16 11  1  0  0  0  0
 18  5  1  0  0  0  0
 19 18  1  0  0  0  0
 20 19  2  0  0  0  0
 21 22  2  0  0  0  0
 21 20  1  0  0  0  0
 22 24  1  0  0  0  0
 23 22  1  0  0  0  0
 24 18  2  0  0  0  0
M  END
>  <minimizedAffinity>
-5.95148897

>  <minimizedRMSD>
0.627088606

$$$$
