
 OpenBabel03252514043D

 36 39  0  0  1  0  0  0  0  0999 V2000
   35.2430   29.1410   48.5310 C   0  0  2  0  0  0  0  0  0  0  0  0
   33.9960   29.3800   49.2520 C   0  0  0  0  0  0  0  0  0  0  0  0
   34.3110   27.9970   49.0540 C   0  0  1  0  0  0  0  0  0  0  0  0
   35.3140   29.2170   47.4460 H   0  0  0  0  0  0  0  0  0  0  0  0
   33.1720   29.9190   48.7040 H   0  0  0  0  0  0  0  0  0  0  0  0
   34.0760   29.7920   50.2900 H   0  0  0  0  0  0  0  0  0  0  0  0
   34.8110   27.3410   49.7650 H   0  0  0  0  0  0  0  0  0  0  0  0
   36.5300   29.2010   49.3720 C   0  0  0  0  0  0  0  0  0  0  0  0
   37.1000   28.2950   49.0760 H   0  0  0  0  0  0  0  0  0  0  0  0
   36.2770   29.1690   50.4450 H   0  0  0  0  0  0  0  0  0  0  0  0
   37.5490   32.6980   49.6100 C   0  0  0  0  0  0  0  0  0  0  0  0
   38.4450   32.8320   48.5250 C   0  0  0  0  0  0  0  0  0  0  0  0
   38.6810   31.6910   47.7240 C   0  0  0  0  0  0  0  0  0  0  0  0
   38.0270   30.5300   48.0480 N   0  0  0  0  0  0  0  0  0  0  0  0
   37.1910   30.4610   49.0840 C   0  0  0  0  0  0  0  0  0  0  0  0
   36.9600   31.5540   49.8590 N   0  0  0  0  0  0  0  0  0  0  0  0
   37.4310   33.6230   50.1660 H   0  0  0  0  0  0  0  0  0  0  0  0
   38.9410   33.7670   48.3030 H   0  0  0  0  0  0  0  0  0  0  0  0
   39.3640   31.7750   46.8890 H   0  0  0  0  0  0  0  0  0  0  0  0
   33.4900   27.2810   48.0020 C   0  0  0  0  0  0  0  0  0  0  0  0
   33.8510   26.0520   47.8270 O   0  0  0  0  0  0  0  0  0  0  0  0
   32.4380   27.8190   47.2720 O   0  0  0  0  0  0  0  0  0  0  0  0
   31.2010   28.0650   47.7850 C   0  0  0  0  0  0  0  0  0  0  0  0
   30.7480   27.6330   49.1190 C   0  0  0  0  0  0  0  0  0  0  0  0
   29.4950   27.9290   49.5420 C   0  0  0  0  0  0  0  0  0  0  0  0
   28.6260   28.6570   48.6870 C   0  0  0  0  0  0  0  0  0  0  0  0
   29.6560   28.9480   47.1640 S   0  0  0  0  0  0  0  0  0  0  0  0
   31.4500   27.0830   49.7260 H   0  0  0  0  0  0  0  0  0  0  0  0
   29.1030   27.6460   50.5010 H   0  0  0  0  0  0  0  0  0  0  0  0
   27.3460   29.0870   48.8400 C   0  0  0  0  0  0  0  0  0  0  0  0
   26.9650   30.3970   48.6210 C   0  0  0  0  0  3  0  0  0  0  0  0
   25.6660   30.8420   48.7750 C   0  0  0  0  0  3  0  0  0  0  0  0
   24.7510   29.9200   49.1600 N   0  0  0  0  0  0  0  0  0  0  0  0
   25.0870   28.6330   49.3820 C   0  0  0  0  0  0  0  0  0  0  0  0
   24.3180   27.9440   49.6870 H   0  0  0  0  0  0  0  0  0  0  0  0
   26.3690   28.2430   49.2190 N   0  0  0  0  0  0  0  0  0  0  0  0
  1  4  1  6  0  0  0
  1  3  1  0  0  0  0
  1  2  1  0  0  0  0
  1  8  1  0  0  0  0
  2  6  1  0  0  0  0
  3  2  1  0  0  0  0
  3  7  1  1  0  0  0
  5  2  1  0  0  0  0
  8 10  1  0  0  0  0
  9  8  1  0  0  0  0
 11 16  1  0  0  0  0
 11 17  1  0  0  0  0
 12 11  2  0  0  0  0
 13 14  2  0  0  0  0
 13 12  1  0  0  0  0
 14 15  1  0  0  0  0
 15  8  1  0  0  0  0
 15 16  2  0  0  0  0
 18 12  1  0  0  0  0
 19 13  1  0  0  0  0
 20  3  1  0  0  0  0
 21 20  2  0  0  0  0
 22 23  1  0  0  0  0
 22 20  1  0  0  0  0
 23 24  2  0  0  0  0
 24 25  1  0  0  0  0
 24 28  1  0  0  0  0
 25 29  1  0  0  0  0
 26 30  1  0  0  0  0
 26 25  2  0  0  0  0
 27 23  1  0  0  0  0
 27 26  1  0  0  0  0
 30 36  1  0  0  0  0
 31 32  1  0  0  0  0
 31 30  2  0  0  0  0
 32 33  2  0  0  0  0
 33 34  1  0  0  0  0
 34 35  1  0  0  0  0
 36 34  2  0  0  0  0
M  END
>  <minimizedAffinity>
-6.47537422

>  <minimizedRMSD>
1.89780462

$$$$
