
 OpenBabel03252514023D

 31 33  0  0  1  0  0  0  0  0999 V2000
   35.8530   29.8720   49.8460 C   0  0  2  0  0  0  0  0  0  0  0  0
   35.0930   29.1580   50.8800 C   0  0  0  0  0  0  0  0  0  0  0  0
   35.1300   28.5430   49.5590 C   0  0  1  0  0  0  0  0  0  0  0  0
   35.4280   30.7350   49.3360 H   0  0  0  0  0  0  0  0  0  0  0  0
   35.7050   28.6370   51.6670 H   0  0  0  0  0  0  0  0  0  0  0  0
   34.1350   29.5190   51.3080 H   0  0  0  0  0  0  0  0  0  0  0  0
   35.8310   27.7850   49.1630 H   0  0  0  0  0  0  0  0  0  0  0  0
   37.3700   29.7000   49.8490 C   0  0  0  0  0  0  0  0  0  0  0  0
   37.6860   29.6910   50.9110 H   0  0  0  0  0  0  0  0  0  0  0  0
   37.5970   28.7450   49.3610 H   0  0  0  0  0  0  0  0  0  0  0  0
   38.6890   33.0730   49.2780 C   0  0  0  0  0  0  0  0  0  0  0  0
   39.0450   33.0420   47.9200 C   0  0  0  0  0  0  0  0  0  0  0  0
   38.8260   31.8510   47.2110 C   0  0  0  0  0  0  0  0  0  0  0  0
   38.2750   30.7840   47.8880 N   0  0  0  0  0  0  0  0  0  0  0  0
   37.9540   30.8660   49.1810 C   0  0  0  0  0  0  0  0  0  0  0  0
   38.1630   32.0120   49.8690 N   0  0  0  0  0  0  0  0  0  0  0  0
   38.8550   33.9860   49.8320 H   0  0  0  0  0  0  0  0  0  0  0  0
   39.4740   33.9340   47.4730 H   0  0  0  0  0  0  0  0  0  0  0  0
   39.0980   31.8340   46.1850 H   0  0  0  0  0  0  0  0  0  0  0  0
   33.8400   28.6230   48.7880 C   0  0  0  0  0  0  0  0  0  0  0  0
   33.9450   29.1830   47.6230 O   0  0  0  0  0  0  0  0  0  0  0  0
   32.6010   28.1580   49.1990 O   0  0  0  0  0  0  0  0  0  0  0  0
   31.8550   27.3340   48.3680 C   0  0  0  0  0  0  0  0  0  0  0  0
   32.2430   26.1740   47.7280 C   0  0  0  0  0  0  0  0  0  0  0  0
   33.2590   25.8920   47.9110 H   0  0  0  0  0  0  0  0  0  0  0  0
   31.3260   25.4980   46.9350 C   0  0  0  0  0  0  0  0  0  0  0  0
   30.0420   25.9850   46.7920 C   0  0  0  0  0  0  0  0  0  0  0  0
   29.3240   25.4420   46.1620 H   0  0  0  0  0  0  0  0  0  0  0  0
   29.6300   27.1500   47.4270 C   0  0  0  0  0  0  0  0  0  0  0  0
   28.6050   27.5070   47.2920 H   0  0  0  0  0  0  0  0  0  0  0  0
   30.5560   27.8280   48.2250 C   0  0  0  0  0  0  0  0  0  0  0  0
  1  4  1  6  0  0  0
  1  8  1  0  0  0  0
  1  2  1  0  0  0  0
  2  6  1  0  0  0  0
  2  5  1  0  0  0  0
  3  7  1  6  0  0  0
  3  1  1  0  0  0  0
  3  2  1  0  0  0  0
  8  9  1  0  0  0  0
 10  8  1  0  0  0  0
 11 17  1  0  0  0  0
 11 16  1  0  0  0  0
 12 11  2  0  0  0  0
 13 14  2  0  0  0  0
 13 12  1  0  0  0  0
 14 15  1  0  0  0  0
 15  8  1  0  0  0  0
 15 16  2  0  0  0  0
 18 12  1  0  0  0  0
 19 13  1  0  0  0  0
 20 22  1  0  0  0  0
 20  3  1  0  0  0  0
 21 20  2  0  0  0  0
 23 22  1  0  0  0  0
 24 25  1  0  0  0  0
 24 23  2  0  0  0  0
 26 24  1  0  0  0  0
 27 26  2  0  0  0  0
 27 29  1  0  0  0  0
 28 27  1  0  0  0  0
 29 31  2  0  0  0  0
 30 29  1  0  0  0  0
 31 23  1  0  0  0  0
M  END
>  <minimizedAffinity>
-5.07003689

>  <minimizedRMSD>
1.13643837

$$$$
