
 OpenBabel03252514023D

 32 34  0  0  1  0  0  0  0  0999 V2000
   35.4630   29.4580   49.1420 C   0  0  2  0  0  0  0  0  0  0  0  0
   34.4780   29.4710   50.2330 C   0  0  0  0  0  0  0  0  0  0  0  0
   34.6670   28.2000   49.5450 C   0  0  1  0  0  0  0  0  0  0  0  0
   35.2110   29.8140   48.1410 H   0  0  0  0  0  0  0  0  0  0  0  0
   34.8960   29.5950   51.2560 H   0  0  0  0  0  0  0  0  0  0  0  0
   33.5180   30.0530   50.1260 H   0  0  0  0  0  0  0  0  0  0  0  0
   35.3080   27.3620   49.8020 H   0  0  0  0  0  0  0  0  0  0  0  0
   36.9380   29.3460   49.5300 C   0  0  0  0  0  0  0  0  0  0  0  0
   37.4070   28.4310   49.1210 H   0  0  0  0  0  0  0  0  0  0  0  0
   36.9780   29.3520   50.6320 H   0  0  0  0  0  0  0  0  0  0  0  0
   38.3790   32.7140   49.3890 C   0  0  0  0  0  0  0  0  0  0  0  0
   38.8990   32.7730   48.0870 C   0  0  0  0  0  0  0  0  0  0  0  0
   38.7470   31.6450   47.2640 C   0  0  0  0  0  0  0  0  0  0  0  0
   38.0990   30.5520   47.7830 N   0  0  0  0  0  0  0  0  0  0  0  0
   37.6210   30.5400   49.0280 C   0  0  0  0  0  0  0  0  0  0  0  0
   37.7650   31.6250   49.8240 N   0  0  0  0  0  0  0  0  0  0  0  0
   38.5420   33.6170   49.9400 H   0  0  0  0  0  0  0  0  0  0  0  0
   39.4030   33.6080   47.6640 H   0  0  0  0  0  0  0  0  0  0  0  0
   39.1220   31.6180   46.2490 H   0  0  0  0  0  0  0  0  0  0  0  0
   33.5450   27.7820   48.6470 C   0  0  0  0  0  0  0  0  0  0  0  0
   33.8880   27.0170   47.6720 O   0  0  0  0  0  0  0  0  0  0  0  0
   32.2170   28.1250   48.7740 O   0  0  0  0  0  0  0  0  0  0  0  0
   29.2640   27.2010   46.0550 C   0  0  0  0  0  0  0  0  0  0  0  0
   29.4470   26.3970   47.1460 C   0  0  0  0  0  3  0  0  0  0  0  0
   30.4360   26.6890   48.0770 C   0  0  0  0  0  3  0  0  0  0  0  0
   31.2390   27.8030   47.8910 C   0  0  0  0  0  0  0  0  0  0  0  0
   31.0630   28.6250   46.7900 C   0  0  0  0  0  3  0  0  0  0  0  0
   30.0680   28.2940   45.8940 C   0  0  0  0  0  3  0  0  0  0  0  0
   26.7950   26.9620   45.6400 H   0  0  0  0  0  0  0  0  0  0  0  0
   27.9870   26.7140   44.9730 S   0  0  0  0  0  0  0  0  0  0  0  0
   28.0430   25.2610   44.6540 O   0  0  0  0  0  0  0  0  0  0  0  0
   27.9850   27.5680   43.7490 O   0  0  0  0  0  0  0  0  0  0  0  0
  1  4  1  6  0  0  0
  1  8  1  0  0  0  0
  1  3  1  0  0  0  0
  1  2  1  0  0  0  0
  2  5  1  0  0  0  0
  3  7  1  1  0  0  0
  3  2  1  0  0  0  0
  6  2  1  0  0  0  0
  8 10  1  0  0  0  0
  9  8  1  0  0  0  0
 11 16  1  0  0  0  0
 11 17  1  0  0  0  0
 12 11  2  0  0  0  0
 13 14  2  0  0  0  0
 13 12  1  0  0  0  0
 14 15  1  0  0  0  0
 15  8  1  0  0  0  0
 15 16  2  0  0  0  0
 18 12  1  0  0  0  0
 19 13  1  0  0  0  0
 20 22  1  0  0  0  0
 20  3  1  0  0  0  0
 21 20  2  0  0  0  0
 23 24  1  0  0  0  0
 24 25  2  0  0  0  0
 26 25  1  0  0  0  0
 26 22  1  0  0  0  0
 27 26  2  0  0  0  0
 28 23  2  0  0  0  0
 28 27  1  0  0  0  0
 30 29  1  0  0  0  0
 30 23  1  0  0  0  0
 31 30  2  0  0  0  0
 32 30  2  0  0  0  0
M  END
>  <minimizedAffinity>
-5.03301477

>  <minimizedRMSD>
0.307699293

$$$$
