
 OpenBabel03252512383D

 43 46  0  0  1  0  0  0  0  0999 V2000
   39.2740   30.8470   46.3410 C   0  0  2  0  0  0  0  0  0  0  0  0
   40.1710   31.8430   45.8000 C   0  0  0  0  0  0  0  0  0  0  0  0
   41.0010   31.3760   44.6490 C   0  0  0  0  0  0  0  0  0  0  0  0
   40.2470   30.6160   43.6390 C   0  0  0  0  0  0  0  0  0  0  0  0
   39.2410   29.6990   44.1670 C   0  0  0  0  0  0  0  0  0  0  0  0
   38.3550   30.3410   45.2980 C   0  0  2  0  0  0  0  0  0  0  0  0
   39.8690   29.9490   46.6690 H   0  0  0  0  0  0  0  0  0  0  0  0
   39.8370   32.8600   45.6310 H   0  0  0  0  0  0  0  0  0  0  0  0
   40.9550   31.9900   46.6130 H   0  0  0  0  0  0  0  0  0  0  0  0
   41.4480   32.2680   44.1530 H   0  0  0  0  0  0  0  0  0  0  0  0
   41.8800   30.7640   44.9610 H   0  0  0  0  0  0  0  0  0  0  0  0
   40.9510   30.0510   43.0220 H   0  0  0  0  0  0  0  0  0  0  0  0
   39.7480   31.3360   42.9350 H   0  0  0  0  0  0  0  0  0  0  0  0
   38.5640   29.3630   43.3470 H   0  0  0  0  0  0  0  0  0  0  0  0
   39.7120   28.8280   44.6740 H   0  0  0  0  0  0  0  0  0  0  0  0
   37.7320   29.4460   45.5700 H   0  0  0  0  0  0  0  0  0  0  0  0
   38.6670   32.5780   48.1470 C   0  0  0  0  0  0  0  0  0  0  0  0
   38.5220   31.2960   47.5120 C   0  0  0  0  0  0  0  0  0  0  0  0
   37.6180   30.4180   48.0010 C   0  0  0  0  0  0  0  0  0  0  0  0
   36.8780   30.8060   49.0930 N   0  0  0  0  0  0  0  0  0  0  0  0
   37.0380   32.0420   49.6830 C   0  0  0  0  0  0  0  0  0  0  0  0
   37.9520   32.9330   49.1900 N   0  0  0  0  0  0  0  0  0  0  0  0
   39.4210   33.1830   47.6600 H   0  0  0  0  0  0  0  0  0  0  0  0
   37.4360   29.4360   47.5960 H   0  0  0  0  0  0  0  0  0  0  0  0
   36.4100   32.2680   50.5450 H   0  0  0  0  0  0  0  0  0  0  0  0
   37.5880   31.3870   44.6300 C   0  0  0  0  0  0  0  0  0  0  0  0
   37.5600   32.6280   44.9490 O   0  0  0  0  0  0  0  0  0  0  0  0
   36.8480   30.9550   43.5820 O   0  0  0  0  0  0  0  0  0  0  0  0
   35.8550   31.8150   43.0460 C   0  0  0  0  0  0  0  0  0  0  0  0
   34.4870   31.5990   43.2720 C   0  0  0  0  0  0  0  0  0  0  0  0
   33.8640   32.6210   42.6020 C   0  0  0  0  0  0  0  0  0  0  0  0
   34.7950   33.4190   42.0000 N   0  0  0  0  0  0  0  0  0  0  0  0
   35.9770   32.8970   42.2930 N   0  0  0  0  0  0  0  0  0  0  0  0
   34.0220   30.8010   43.8490 H   0  0  0  0  0  0  0  0  0  0  0  0
   32.7880   32.8140   42.5290 H   0  0  0  0  0  0  0  0  0  0  0  0
   34.5190   34.5750   41.2180 C   0  0  0  0  0  0  0  0  0  0  0  0
   34.1580   35.7570   41.8580 C   0  0  0  0  0  0  0  0  0  0  0  0
   33.8890   36.8870   41.0840 C   0  0  0  0  0  0  0  0  0  0  0  0
   33.5990   37.8570   41.5010 H   0  0  0  0  0  0  0  0  0  0  0  0
   33.9860   36.8130   39.7090 C   0  0  0  0  0  0  0  0  0  0  0  0
   34.3470   35.6410   39.0370 C   0  0  0  0  0  0  0  0  0  0  0  0
   34.4120   35.6220   37.9630 H   0  0  0  0  0  0  0  0  0  0  0  0
   34.6070   34.5370   39.8260 C   0  0  0  0  0  0  0  0  0  0  0  0
  1  7  1  1  0  0  0
  1 18  1  0  0  0  0
  2  1  1  0  0  0  0
  2  9  1  0  0  0  0
  3 11  1  0  0  0  0
  3  2  1  0  0  0  0
  4  5  1  0  0  0  0
  4  3  1  0  0  0  0
  5 15  1  0  0  0  0
  5  6  1  0  0  0  0
  6 16  1  1  0  0  0
  6  1  1  0  0  0  0
  8  2  1  0  0  0  0
 10  3  1  0  0  0  0
 12  4  1  0  0  0  0
 13  4  1  0  0  0  0
 14  5  1  0  0  0  0
 17 22  1  0  0  0  0
 18 19  1  0  0  0  0
 18 17  2  0  0  0  0
 19 20  2  0  0  0  0
 20 21  1  0  0  0  0
 21 25  1  0  0  0  0
 22 21  2  0  0  0  0
 23 17  1  0  0  0  0
 24 19  1  0  0  0  0
 26 27  2  0  0  0  0
 26  6  1  0  0  0  0
 28 26  1  0  0  0  0
 29 30  1  0  0  0  0
 29 28  1  0  0  0  0
 30 34  1  0  0  0  0
 31 30  2  0  0  0  0
 32 33  1  0  0  0  0
 32 31  1  0  0  0  0
 33 29  2  0  0  0  0
 35 31  1  0  0  0  0
 36 37  1  0  0  0  0
 36 32  1  0  0  0  0
 38 39  1  0  0  0  0
 38 37  2  0  0  0  0
 40 38  1  0  0  0  0
 41 40  2  0  0  0  0
 41 43  1  0  0  0  0
 42 41  1  0  0  0  0
 43 36  2  0  0  0  0
M  END
>  <minimizedAffinity>
-5.54988003

>  <minimizedRMSD>
1.27913046

$$$$
