
 OpenBabel03252514013D

 32 34  0  0  1  0  0  0  0  0999 V2000
   35.4400   29.4850   49.0600 C   0  0  2  0  0  0  0  0  0  0  0  0
   34.4890   29.5230   50.1790 C   0  0  0  0  0  0  0  0  0  0  0  0
   34.6680   28.2330   49.5240 C   0  0  1  0  0  0  0  0  0  0  0  0
   35.1550   29.8080   48.0560 H   0  0  0  0  0  0  0  0  0  0  0  0
   34.9360   29.6820   51.1840 H   0  0  0  0  0  0  0  0  0  0  0  0
   33.5200   30.0940   50.0830 H   0  0  0  0  0  0  0  0  0  0  0  0
   35.3240   27.4090   49.7880 H   0  0  0  0  0  0  0  0  0  0  0  0
   36.9270   29.3970   49.4050 C   0  0  0  0  0  0  0  0  0  0  0  0
   37.4180   28.5350   48.9160 H   0  0  0  0  0  0  0  0  0  0  0  0
   36.9930   29.3190   50.5030 H   0  0  0  0  0  0  0  0  0  0  0  0
   37.9890   32.9060   49.3830 C   0  0  0  0  0  0  0  0  0  0  0  0
   38.7310   32.9970   48.1960 C   0  0  0  0  0  0  0  0  0  0  0  0
   38.8610   31.8400   47.4090 C   0  0  0  0  0  0  0  0  0  0  0  0
   38.2520   30.6920   47.8480 N   0  0  0  0  0  0  0  0  0  0  0  0
   37.5550   30.6510   48.9850 C   0  0  0  0  0  0  0  0  0  0  0  0
   37.4280   31.7630   49.7470 N   0  0  0  0  0  0  0  0  0  0  0  0
   37.9460   33.8340   49.9150 H   0  0  0  0  0  0  0  0  0  0  0  0
   39.2110   33.8750   47.8370 H   0  0  0  0  0  0  0  0  0  0  0  0
   39.4180   31.8350   46.4810 H   0  0  0  0  0  0  0  0  0  0  0  0
   33.5240   27.7780   48.6740 C   0  0  0  0  0  0  0  0  0  0  0  0
   33.8540   27.0560   47.6620 O   0  0  0  0  0  0  0  0  0  0  0  0
   32.1880   28.0490   48.8780 O   0  0  0  0  0  0  0  0  0  0  0  0
   29.1690   27.3400   46.1660 C   0  0  0  0  0  0  0  0  0  0  0  0
   30.0280   28.3850   45.9590 C   0  0  0  0  0  3  0  0  0  0  0  0
   31.0530   28.6430   46.8590 C   0  0  0  0  0  3  0  0  0  0  0  0
   31.2010   27.8320   47.9730 C   0  0  0  0  0  0  0  0  0  0  0  0
   30.3380   26.7720   48.1950 C   0  0  0  0  0  3  0  0  0  0  0  0
   29.3360   26.5550   47.2740 C   0  0  0  0  0  3  0  0  0  0  0  0
   28.3770   27.8060   43.8270 H   0  0  0  0  0  0  0  0  0  0  0  0
   27.9310   27.1350   44.9560 S   0  0  0  0  0  0  0  0  0  0  0  0
   26.6350   27.7400   45.3700 O   0  0  0  0  0  0  0  0  0  0  0  0
   27.7970   25.6970   44.5840 O   0  0  0  0  0  0  0  0  0  0  0  0
  1  4  1  6  0  0  0
  1  8  1  0  0  0  0
  1  3  1  0  0  0  0
  1  2  1  0  0  0  0
  2  5  1  0  0  0  0
  3  7  1  1  0  0  0
  3  2  1  0  0  0  0
  6  2  1  0  0  0  0
  8 10  1  0  0  0  0
  9  8  1  0  0  0  0
 11 16  1  0  0  0  0
 11 17  1  0  0  0  0
 12 11  2  0  0  0  0
 13 14  2  0  0  0  0
 13 12  1  0  0  0  0
 14 15  1  0  0  0  0
 15  8  1  0  0  0  0
 15 16  2  0  0  0  0
 18 12  1  0  0  0  0
 19 13  1  0  0  0  0
 20 22  1  0  0  0  0
 20  3  1  0  0  0  0
 21 20  2  0  0  0  0
 23 28  1  0  0  0  0
 24 23  2  0  0  0  0
 24 25  1  0  0  0  0
 25 26  2  0  0  0  0
 26 27  1  0  0  0  0
 26 22  1  0  0  0  0
 28 27  2  0  0  0  0
 29 30  1  0  0  0  0
 30 31  2  0  0  0  0
 30 23  1  0  0  0  0
 32 30  2  0  0  0  0
M  END
>  <minimizedAffinity>
-5.15784502

>  <minimizedRMSD>
0.707638621

$$$$
