
 OpenBabel03252514043D

 36 39  0  0  1  0  0  0  0  0999 V2000
   35.3360   29.4340   48.9880 C   0  0  2  0  0  0  0  0  0  0  0  0
   34.2910   29.4580   50.0080 C   0  0  0  0  0  0  0  0  0  0  0  0
   34.4950   28.1780   49.3920 C   0  0  1  0  0  0  0  0  0  0  0  0
   35.2270   29.7000   47.9370 H   0  0  0  0  0  0  0  0  0  0  0  0
   34.6210   29.6740   51.0680 H   0  0  0  0  0  0  0  0  0  0  0  0
   33.3460   30.0410   49.8070 H   0  0  0  0  0  0  0  0  0  0  0  0
   35.1170   27.3450   49.7310 H   0  0  0  0  0  0  0  0  0  0  0  0
   36.7760   29.3020   49.5120 C   0  0  0  0  0  0  0  0  0  0  0  0
   36.7860   29.2850   50.6040 H   0  0  0  0  0  0  0  0  0  0  0  0
   37.1420   28.3280   49.0790 H   0  0  0  0  0  0  0  0  0  0  0  0
   38.3890   32.5710   49.2690 C   0  0  0  0  0  0  0  0  0  0  0  0
   38.9920   32.5220   47.9960 C   0  0  0  0  0  0  0  0  0  0  0  0
   38.8280   31.3420   47.2360 C   0  0  0  0  0  0  0  0  0  0  0  0
   38.0950   30.3190   47.7780 N   0  0  0  0  0  0  0  0  0  0  0  0
   37.5450   30.4190   48.9890 C   0  0  0  0  0  0  0  0  0  0  0  0
   37.6970   31.5510   49.7300 N   0  0  0  0  0  0  0  0  0  0  0  0
   38.4630   33.4360   49.9220 H   0  0  0  0  0  0  0  0  0  0  0  0
   39.5540   33.3800   47.6500 H   0  0  0  0  0  0  0  0  0  0  0  0
   39.2860   31.3070   46.2700 H   0  0  0  0  0  0  0  0  0  0  0  0
   33.4260   27.7570   48.4040 C   0  0  0  0  0  0  0  0  0  0  0  0
   33.6160   26.5690   47.9280 O   0  0  0  0  0  0  0  0  0  0  0  0
   32.3260   28.5030   48.0070 O   0  0  0  0  0  0  0  0  0  0  0  0
   31.0640   28.3170   48.4840 C   0  0  0  0  0  0  0  0  0  0  0  0
   30.6770   28.4650   49.8970 C   0  0  0  0  0  0  0  0  0  0  0  0
   29.3980   28.2650   50.2890 C   0  0  0  0  0  0  0  0  0  0  0  0
   28.4270   27.9080   49.3160 C   0  0  0  0  0  0  0  0  0  0  0  0
   29.4010   27.8510   47.7280 S   0  0  0  0  0  0  0  0  0  0  0  0
   31.4550   28.7380   50.5950 H   0  0  0  0  0  0  0  0  0  0  0  0
   29.0550   28.3600   51.3030 H   0  0  0  0  0  0  0  0  0  0  0  0
   27.0530   27.6480   49.4610 C   0  0  0  0  0  0  0  0  0  0  0  0
   26.0810   28.3970   48.8300 C   0  0  0  0  0  3  0  0  0  0  0  0
   24.7620   28.0560   49.0420 C   0  0  0  0  0  3  0  0  0  0  0  0
   24.4270   26.9900   49.8640 C   0  0  0  0  0  0  0  0  0  0  0  0
   23.3630   26.8260   49.9460 H   0  0  0  0  0  0  0  0  0  0  0  0
   25.4290   26.2630   50.4790 C   0  0  0  0  0  3  0  0  0  0  0  0
   26.7040   26.6230   50.2500 N   0  0  0  0  0  0  0  0  0  0  0  0
  1  4  1  6  0  0  0
  1  3  1  0  0  0  0
  1  8  1  0  0  0  0
  1  2  1  0  0  0  0
  2  5  1  0  0  0  0
  3  7  1  1  0  0  0
  3  2  1  0  0  0  0
  6  2  1  0  0  0  0
  8  9  1  0  0  0  0
 10  8  1  0  0  0  0
 11 16  1  0  0  0  0
 11 17  1  0  0  0  0
 12 11  2  0  0  0  0
 13 14  2  0  0  0  0
 13 12  1  0  0  0  0
 14 15  1  0  0  0  0
 15  8  1  0  0  0  0
 15 16  2  0  0  0  0
 18 12  1  0  0  0  0
 19 13  1  0  0  0  0
 20  3  1  0  0  0  0
 21 20  2  0  0  0  0
 22 20  1  0  0  0  0
 22 23  1  0  0  0  0
 23 24  2  0  0  0  0
 24 25  1  0  0  0  0
 24 28  1  0  0  0  0
 25 29  1  0  0  0  0
 26 30  1  0  0  0  0
 26 25  2  0  0  0  0
 27 23  1  0  0  0  0
 27 26  1  0  0  0  0
 30 36  1  0  0  0  0
 31 32  1  0  0  0  0
 31 30  2  0  0  0  0
 32 33  2  0  0  0  0
 33 34  1  0  0  0  0
 33 35  1  0  0  0  0
 36 35  2  0  0  0  0
M  END
>  <minimizedAffinity>
2.21378708

>  <minimizedRMSD>
0.904901505

$$$$
