
 OpenBabel03252514023D

 32 34  0  0  1  0  0  0  0  0999 V2000
   35.4650   29.4640   49.1510 C   0  0  2  0  0  0  0  0  0  0  0  0
   34.4690   29.4740   50.2320 C   0  0  0  0  0  0  0  0  0  0  0  0
   34.6700   28.2030   49.5480 C   0  0  1  0  0  0  0  0  0  0  0  0
   35.2220   29.8170   48.1470 H   0  0  0  0  0  0  0  0  0  0  0  0
   34.8760   29.6030   51.2590 H   0  0  0  0  0  0  0  0  0  0  0  0
   33.5070   30.0520   50.1140 H   0  0  0  0  0  0  0  0  0  0  0  0
   35.3120   27.3680   49.8140 H   0  0  0  0  0  0  0  0  0  0  0  0
   36.9360   29.3590   49.5540 C   0  0  0  0  0  0  0  0  0  0  0  0
   37.4100   28.4390   49.1640 H   0  0  0  0  0  0  0  0  0  0  0  0
   36.9660   29.3820   50.6560 H   0  0  0  0  0  0  0  0  0  0  0  0
   38.3940   32.7190   49.3820 C   0  0  0  0  0  0  0  0  0  0  0  0
   38.9070   32.7660   48.0760 C   0  0  0  0  0  0  0  0  0  0  0  0
   38.7460   31.6320   47.2620 C   0  0  0  0  0  0  0  0  0  0  0  0
   38.0950   30.5470   47.7930 N   0  0  0  0  0  0  0  0  0  0  0  0
   37.6230   30.5460   49.0400 C   0  0  0  0  0  0  0  0  0  0  0  0
   37.7760   31.6360   49.8280 N   0  0  0  0  0  0  0  0  0  0  0  0
   38.5640   33.6250   49.9250 H   0  0  0  0  0  0  0  0  0  0  0  0
   39.4140   33.5950   47.6450 H   0  0  0  0  0  0  0  0  0  0  0  0
   39.1150   31.5960   46.2460 H   0  0  0  0  0  0  0  0  0  0  0  0
   33.5590   27.7780   48.6400 C   0  0  0  0  0  0  0  0  0  0  0  0
   33.9080   26.9790   47.6940 O   0  0  0  0  0  0  0  0  0  0  0  0
   32.2360   28.1480   48.7290 O   0  0  0  0  0  0  0  0  0  0  0  0
   29.3140   27.1660   45.9960 C   0  0  0  0  0  0  0  0  0  0  0  0
   29.4740   26.3950   47.1140 C   0  0  0  0  0  3  0  0  0  0  0  0
   30.4520   26.7060   48.0500 C   0  0  0  0  0  3  0  0  0  0  0  0
   31.2680   27.8070   47.8410 C   0  0  0  0  0  0  0  0  0  0  0  0
   31.1160   28.5960   46.7130 C   0  0  0  0  0  3  0  0  0  0  0  0
   30.1320   28.2470   45.8130 C   0  0  0  0  0  3  0  0  0  0  0  0
   26.8530   27.0220   45.5090 H   0  0  0  0  0  0  0  0  0  0  0  0
   28.0500   26.6570   44.9100 S   0  0  0  0  0  0  0  0  0  0  0  0
   28.0370   25.1820   44.7140 O   0  0  0  0  0  0  0  0  0  0  0  0
   28.1360   27.4030   43.6210 O   0  0  0  0  0  0  0  0  0  0  0  0
  1  4  1  6  0  0  0
  1  3  1  0  0  0  0
  1  8  1  0  0  0  0
  1  2  1  0  0  0  0
  2  5  1  0  0  0  0
  3  7  1  1  0  0  0
  3  2  1  0  0  0  0
  6  2  1  0  0  0  0
  8 10  1  0  0  0  0
  9  8  1  0  0  0  0
 11 16  1  0  0  0  0
 11 17  1  0  0  0  0
 12 11  2  0  0  0  0
 13 14  2  0  0  0  0
 13 12  1  0  0  0  0
 14 15  1  0  0  0  0
 15  8  1  0  0  0  0
 15 16  2  0  0  0  0
 18 12  1  0  0  0  0
 19 13  1  0  0  0  0
 20 22  1  0  0  0  0
 20  3  1  0  0  0  0
 21 20  2  0  0  0  0
 23 24  1  0  0  0  0
 24 25  2  0  0  0  0
 26 25  1  0  0  0  0
 26 22  1  0  0  0  0
 27 26  2  0  0  0  0
 28 23  2  0  0  0  0
 28 27  1  0  0  0  0
 30 29  1  0  0  0  0
 30 23  1  0  0  0  0
 31 30  2  0  0  0  0
 32 30  2  0  0  0  0
M  END
>  <minimizedAffinity>
-5.02628994

>  <minimizedRMSD>
0.330411851

$$$$
