
 OpenBabel03252513313D

 43 46  0  0  0  0  0  0  0  0999 V2000
   31.7380   26.2330   47.6090 C   0  0  0  0  0  0  0  0  0  0  0  0
   31.4600   25.0990   46.9330 C   0  0  0  0  0  0  0  0  0  0  0  0
   32.4230   24.2990   46.3490 C   0  0  0  0  0  0  0  0  0  0  0  0
   33.7320   24.7260   46.4920 C   0  0  0  0  0  0  0  0  0  0  0  0
   34.0350   25.8770   47.1770 C   0  0  0  0  0  0  0  0  0  0  0  0
   33.0450   26.6470   47.7450 C   0  0  0  0  0  0  0  0  0  0  0  0
   30.4050   24.8200   46.8570 H   0  0  0  0  0  0  0  0  0  0  0  0
   32.0800   23.4210   45.8370 H   0  0  0  0  0  0  0  0  0  0  0  0
   34.4810   24.0910   46.0290 H   0  0  0  0  0  0  0  0  0  0  0  0
   35.0720   26.1750   47.2650 H   0  0  0  0  0  0  0  0  0  0  0  0
   29.3460   27.6830   50.0130 C   0  0  0  0  0  0  0  0  0  0  0  0
   28.6770   28.6530   49.2210 C   0  0  0  0  0  0  0  0  0  0  0  0
   29.0730   28.7720   47.8900 C   0  0  0  0  0  0  0  0  0  0  0  0
   30.0760   27.9590   47.4150 N   0  0  0  0  0  0  0  0  0  0  0  0
   30.6840   27.0490   48.2120 C   0  0  0  0  0  0  0  0  0  0  0  0
   30.3120   26.9280   49.4850 N   0  0  0  0  0  0  0  0  0  0  0  0
   29.0240   27.6070   51.0420 H   0  0  0  0  0  0  0  0  0  0  0  0
   28.6140   29.4850   47.2230 H   0  0  0  0  0  0  0  0  0  0  0  0
   27.6010   29.5110   49.7650 C   0  0  0  0  0  0  0  0  0  0  0  0
   28.0660   30.6050   50.4400 F   0  0  0  0  0  0  0  0  0  0  0  0
   26.7770   28.8110   50.6340 F   0  0  0  0  0  0  0  0  0  0  0  0
   26.8050   29.9760   48.7070 F   0  0  0  0  0  0  0  0  0  0  0  0
   33.3300   27.8900   48.4880 C   0  0  0  0  0  0  0  0  0  0  0  0
   33.9460   27.6250   49.3700 H   0  0  0  0  0  0  0  0  0  0  0  0
   32.3680   28.2700   48.9470 H   0  0  0  0  0  0  0  0  0  0  0  0
   33.8370   29.0120   47.6560 C   0  0  0  0  0  0  0  0  0  0  0  0
   33.9940   28.6870   46.5980 H   0  0  0  0  0  0  0  0  0  0  0  0
   33.1280   29.8870   47.5870 H   0  0  0  0  0  0  0  0  0  0  0  0
   35.0840   29.5400   48.2090 C   0  0  0  0  0  0  0  0  0  0  0  0
   35.7640   28.9490   49.2570 C   0  0  0  0  0  0  0  0  0  0  0  0
   36.8960   29.6870   49.5420 C   0  0  0  0  0  0  0  0  0  0  0  0
   36.8610   30.7240   48.6370 N   0  0  0  0  0  0  0  0  0  0  0  0
   35.7990   30.6370   47.8570 N   0  0  0  0  0  0  0  0  0  0  0  0
   35.6070   28.0720   49.8700 H   0  0  0  0  0  0  0  0  0  0  0  0
   37.6830   29.5740   50.2700 H   0  0  0  0  0  0  0  0  0  0  0  0
   37.8020   31.7840   48.4960 C   0  0  0  0  0  0  0  0  0  0  0  0
   38.4810   31.8100   47.2940 C   0  0  0  0  0  0  0  0  0  0  0  0
   39.4200   32.7730   47.0120 C   0  0  0  0  0  0  0  0  0  0  0  0
   39.9490   32.7890   46.0680 H   0  0  0  0  0  0  0  0  0  0  0  0
   39.6740   33.7340   47.9810 C   0  0  0  0  0  0  0  0  0  0  0  0
   38.9870   33.7040   49.1940 C   0  0  0  0  0  0  0  0  0  0  0  0
   39.1960   34.4640   49.9480 H   0  0  0  0  0  0  0  0  0  0  0  0
   38.0360   32.7260   49.4760 C   0  0  0  0  0  0  0  0  0  0  0  0
  1  6  1  0  0  0  0
  1 15  1  0  0  0  0
  2  1  2  0  0  0  0
  3  4  2  0  0  0  0
  3  2  1  0  0  0  0
  4  5  1  0  0  0  0
  5 10  1  0  0  0  0
  5  6  2  0  0  0  0
  6 23  1  0  0  0  0
  7  2  1  0  0  0  0
  8  3  1  0  0  0  0
  9  4  1  0  0  0  0
 11 17  1  0  0  0  0
 12 19  1  0  0  0  0
 12 11  2  0  0  0  0
 13 12  1  0  0  0  0
 14 13  2  0  0  0  0
 14 15  1  0  0  0  0
 15 16  2  0  0  0  0
 16 11  1  0  0  0  0
 18 13  1  0  0  0  0
 19 20  1  0  0  0  0
 19 21  1  0  0  0  0
 22 19  1  0  0  0  0
 23 25  1  0  0  0  0
 23 24  1  0  0  0  0
 26 29  1  0  0  0  0
 26 23  1  0  0  0  0
 27 26  1  0  0  0  0
 28 26  1  0  0  0  0
 29 30  1  0  0  0  0
 30 31  2  0  0  0  0
 30 34  1  0  0  0  0
 31 35  1  0  0  0  0
 32 31  1  0  0  0  0
 33 29  2  0  0  0  0
 33 32  1  0  0  0  0
 36 32  1  0  0  0  0
 36 43  1  0  0  0  0
 37 36  2  0  0  0  0
 38 37  1  0  0  0  0
 38 40  2  0  0  0  0
 39 38  1  0  0  0  0
 40 41  1  0  0  0  0
 41 43  2  0  0  0  0
 41 42  1  0  0  0  0
M  END
>  <minimizedAffinity>
-7.31206322

>  <minimizedRMSD>
1.26452529

$$$$
