
 OpenBabel03252513573D

 26 28  0  0  1  0  0  0  0  0999 V2000
   35.4940   29.3690   49.0880 C   0  0  2  0  0  0  0  0  0  0  0  0
   34.3790   29.7000   50.0240 C   0  0  0  0  0  0  0  0  0  0  0  0
   34.5980   28.2770   49.6210 C   0  0  1  0  0  0  0  0  0  0  0  0
   35.3280   29.6990   48.0310 H   0  0  0  0  0  0  0  0  0  0  0  0
   34.7030   30.0280   51.0360 H   0  0  0  0  0  0  0  0  0  0  0  0
   33.4930   30.2660   49.6490 H   0  0  0  0  0  0  0  0  0  0  0  0
   35.0050   27.6000   50.4020 H   0  0  0  0  0  0  0  0  0  0  0  0
   33.5860   27.7360   48.6730 C   0  0  0  0  0  0  0  0  0  0  0  0
   33.9910   26.9710   47.5920 C   0  0  0  0  0  0  0  0  0  0  0  0
   33.0380   26.4640   46.7010 C   0  0  0  0  0  0  0  0  0  0  0  0
   31.7320   26.7920   47.0070 C   0  0  0  0  0  0  0  0  0  0  0  0
   30.9640   26.4080   46.3250 H   0  0  0  0  0  0  0  0  0  0  0  0
   31.3060   27.5620   48.0920 C   0  0  0  0  0  0  0  0  0  0  0  0
   32.2940   28.0200   48.9150 N   0  0  0  0  0  0  0  0  0  0  0  0
   36.9170   29.3110   49.5950 C   0  0  0  0  0  0  0  0  0  0  0  0
   37.4320   28.3830   49.2830 H   0  0  0  0  0  0  0  0  0  0  0  0
   36.9450   29.3550   50.7130 H   0  0  0  0  0  0  0  0  0  0  0  0
   38.4090   32.6690   49.3920 C   0  0  0  0  0  0  0  0  0  0  0  0
   38.9020   32.7290   48.0730 C   0  0  0  0  0  0  0  0  0  0  0  0
   38.7080   31.5930   47.2680 C   0  0  0  0  0  0  0  0  0  0  0  0
   38.0600   30.5250   47.8210 N   0  0  0  0  0  0  0  0  0  0  0  0
   37.6050   30.5130   49.0900 C   0  0  0  0  0  0  0  0  0  0  0  0
   37.7890   31.6030   49.8680 N   0  0  0  0  0  0  0  0  0  0  0  0
   38.5350   33.5320   50.0630 H   0  0  0  0  0  0  0  0  0  0  0  0
   39.4020   33.6040   47.7060 H   0  0  0  0  0  0  0  0  0  0  0  0
   39.0640   31.5780   46.2460 H   0  0  0  0  0  0  0  0  0  0  0  0
  1  4  1  6  0  0  0
  1 15  1  0  0  0  0
  1  3  1  0  0  0  0
  1  2  1  0  0  0  0
  2  5  1  0  0  0  0
  3  2  1  0  0  0  0
  3  7  1  1  0  0  0
  6  2  1  0  0  0  0
  8 14  1  0  0  0  0
  8  3  1  0  0  0  0
  9  8  2  0  0  0  0
 10 11  2  0  0  0  0
 10  9  1  0  0  0  0
 11 13  1  0  0  0  0
 12 11  1  0  0  0  0
 13 14  2  0  0  0  0
 15 17  1  0  0  0  0
 16 15  1  0  0  0  0
 18 23  1  0  0  0  0
 18 24  1  0  0  0  0
 19 18  2  0  0  0  0
 20 21  2  0  0  0  0
 20 19  1  0  0  0  0
 21 22  1  0  0  0  0
 22 15  1  0  0  0  0
 22 23  2  0  0  0  0
 25 19  1  0  0  0  0
 26 20  1  0  0  0  0
M  END
>  <minimizedAffinity>
-5.08675337

>  <minimizedRMSD>
0.400899321

$$$$
