
 OpenBabel03252511123D

 33 35  0  0  0  0  0  0  0  0999 V2000
   32.5170   28.2760   47.7500 C   0  0  0  0  0  0  0  0  0  0  0  0
   33.1980   29.0830   46.8430 C   0  0  0  0  0  0  0  0  0  0  0  0
   34.3580   29.6900   47.2760 C   0  0  0  0  0  0  0  0  0  0  0  0
   34.9020   29.5700   48.5260 C   0  0  0  0  0  0  0  0  0  0  0  0
   34.1690   28.7500   49.3790 C   0  0  0  0  0  0  0  0  0  0  0  0
   33.0030   28.1080   49.0240 C   0  0  0  0  0  0  0  0  0  0  0  0
   32.8050   29.2060   45.8440 H   0  0  0  0  0  0  0  0  0  0  0  0
   34.8560   30.3070   46.5400 H   0  0  0  0  0  0  0  0  0  0  0  0
   34.5230   28.5930   50.4000 H   0  0  0  0  0  0  0  0  0  0  0  0
   32.4850   27.4790   49.7540 H   0  0  0  0  0  0  0  0  0  0  0  0
   37.6150   30.7190   50.6530 C   0  0  0  0  0  0  0  0  0  0  0  0
   38.4460   31.4260   49.7350 C   0  0  0  0  0  0  0  0  0  0  0  0
   38.0360   31.4850   48.3860 C   0  0  0  0  0  0  0  0  0  0  0  0
   36.8750   30.8720   48.0260 N   0  0  0  0  0  0  0  0  0  0  0  0
   36.1140   30.2070   48.9460 C   0  0  0  0  0  0  0  0  0  0  0  0
   36.4820   30.1360   50.2320 N   0  0  0  0  0  0  0  0  0  0  0  0
   37.9650   30.6970   51.6780 H   0  0  0  0  0  0  0  0  0  0  0  0
   39.3550   31.9160   49.9750 H   0  0  0  0  0  0  0  0  0  0  0  0
   38.8320   32.1950   47.3540 C   0  0  0  0  0  0  0  0  0  0  0  0
   38.0750   32.6270   46.3030 F   0  0  0  0  0  0  0  0  0  0  0  0
   39.4300   33.3300   47.8850 F   0  0  0  0  0  0  0  0  0  0  0  0
   39.7970   31.3430   46.8300 F   0  0  0  0  0  0  0  0  0  0  0  0
   31.0110   27.4980   47.3400 S   0  0  0  0  0  0  0  0  0  0  0  0
   30.3910   28.1380   46.1830 O   0  0  0  0  0  0  0  0  0  0  0  0
   30.0880   27.6080   48.5600 O   0  0  0  0  0  0  0  0  0  0  0  0
   31.2990   25.7980   47.0200 C   0  0  0  0  0  0  0  0  0  0  0  0
   30.4080   25.2080   46.1200 C   0  0  0  0  0  0  0  0  0  0  0  0
   30.5360   23.8630   45.7880 C   0  0  0  0  0  0  0  0  0  0  0  0
   29.8180   23.4330   45.0780 H   0  0  0  0  0  0  0  0  0  0  0  0
   31.5520   23.1010   46.3530 C   0  0  0  0  0  0  0  0  0  0  0  0
   32.4170   23.7210   47.2410 C   0  0  0  0  0  0  0  0  0  0  0  0
   33.2050   23.1210   47.6740 H   0  0  0  0  0  0  0  0  0  0  0  0
   32.3020   25.0540   47.5790 C   0  0  0  0  0  0  0  0  0  0  0  0
  1  6  1  0  0  0  0
  2  3  1  0  0  0  0
  2  1  2  0  0  0  0
  3  4  2  0  0  0  0
  4 15  1  0  0  0  0
  4  5  1  0  0  0  0
  5  9  1  0  0  0  0
  6  5  2  0  0  0  0
  6 10  1  0  0  0  0
  7  2  1  0  0  0  0
  8  3  1  0  0  0  0
 11 17  1  0  0  0  0
 12 18  1  0  0  0  0
 12 11  2  0  0  0  0
 13 12  1  0  0  0  0
 14 13  2  0  0  0  0
 14 15  1  0  0  0  0
 15 16  2  0  0  0  0
 16 11  1  0  0  0  0
 19 21  1  0  0  0  0
 19 13  1  0  0  0  0
 20 19  1  0  0  0  0
 22 19  1  0  0  0  0
 23  1  1  0  0  0  0
 23 25  2  0  0  0  0
 24 23  2  0  0  0  0
 26 23  1  0  0  0  0
 26 33  1  0  0  0  0
 27 26  2  0  0  0  0
 28 27  1  0  0  0  0
 28 30  2  0  0  0  0
 29 28  1  0  0  0  0
 30 31  1  0  0  0  0
 31 33  2  0  0  0  0
 31 32  1  0  0  0  0
M  END
>  <minimizedAffinity>
-6.14350986

>  <minimizedRMSD>
1.72569418

$$$$
