
 OpenBabel03252514043D

 36 39  0  0  1  0  0  0  0  0999 V2000
   35.2580   29.1490   48.5660 C   0  0  2  0  0  0  0  0  0  0  0  0
   34.0200   29.3300   49.3200 C   0  0  0  0  0  0  0  0  0  0  0  0
   34.3630   27.9620   49.0540 C   0  0  1  0  0  0  0  0  0  0  0  0
   35.3710   29.1790   47.4830 H   0  0  0  0  0  0  0  0  0  0  0  0
   34.1160   29.7840   50.3510 H   0  0  0  0  0  0  0  0  0  0  0  0
   33.1330   29.8030   48.8070 H   0  0  0  0  0  0  0  0  0  0  0  0
   34.9070   27.2550   49.6880 H   0  0  0  0  0  0  0  0  0  0  0  0
   36.5550   29.2110   49.3900 C   0  0  0  0  0  0  0  0  0  0  0  0
   36.3370   29.1170   50.4550 H   0  0  0  0  0  0  0  0  0  0  0  0
   37.1660   28.3430   49.0130 H   0  0  0  0  0  0  0  0  0  0  0  0
   37.5640   32.7160   49.6040 C   0  0  0  0  0  0  0  0  0  0  0  0
   38.4530   32.8470   48.5170 C   0  0  0  0  0  0  0  0  0  0  0  0
   38.6890   31.7040   47.7200 C   0  0  0  0  0  0  0  0  0  0  0  0
   38.0440   30.5400   48.0490 N   0  0  0  0  0  0  0  0  0  0  0  0
   37.2130   30.4720   49.0900 C   0  0  0  0  0  0  0  0  0  0  0  0
   36.9780   31.5680   49.8640 N   0  0  0  0  0  0  0  0  0  0  0  0
   37.3240   33.5410   50.2700 H   0  0  0  0  0  0  0  0  0  0  0  0
   38.9170   33.8080   48.3340 H   0  0  0  0  0  0  0  0  0  0  0  0
   39.3630   31.8060   46.8970 H   0  0  0  0  0  0  0  0  0  0  0  0
   33.5320   27.2820   47.9850 C   0  0  0  0  0  0  0  0  0  0  0  0
   33.8650   26.0460   47.7940 O   0  0  0  0  0  0  0  0  0  0  0  0
   32.5010   27.8510   47.2520 O   0  0  0  0  0  0  0  0  0  0  0  0
   31.2520   28.0850   47.7420 C   0  0  0  0  0  0  0  0  0  0  0  0
   30.7780   27.6380   49.0620 C   0  0  0  0  0  0  0  0  0  0  0  0
   29.5200   27.9150   49.4760 C   0  0  0  0  0  0  0  0  0  0  0  0
   28.6560   28.6440   48.6150 C   0  0  0  0  0  0  0  0  0  0  0  0
   29.7080   28.9610   47.1080 S   0  0  0  0  0  0  0  0  0  0  0  0
   31.4750   27.0870   49.6750 H   0  0  0  0  0  0  0  0  0  0  0  0
   29.1180   27.6180   50.4270 H   0  0  0  0  0  0  0  0  0  0  0  0
   27.3260   29.0540   48.8040 C   0  0  0  0  0  0  0  0  0  0  0  0
   26.3250   28.1880   49.1920 C   0  0  0  0  0  3  0  0  0  0  0  0
   25.0530   28.6960   49.3470 C   0  0  0  0  0  3  0  0  0  0  0  0
   24.7920   30.0400   49.1190 C   0  0  0  0  0  0  0  0  0  0  0  0
   23.7580   30.3110   49.2760 H   0  0  0  0  0  0  0  0  0  0  0  0
   25.8200   30.8770   48.7320 C   0  0  0  0  0  3  0  0  0  0  0  0
   27.0470   30.3470   48.5900 N   0  0  0  0  0  0  0  0  0  0  0  0
  1  4  1  6  0  0  0
  1  3  1  0  0  0  0
  1  2  1  0  0  0  0
  1  8  1  0  0  0  0
  2  5  1  0  0  0  0
  3  2  1  0  0  0  0
  3  7  1  1  0  0  0
  6  2  1  0  0  0  0
  8  9  1  0  0  0  0
 10  8  1  0  0  0  0
 11 16  1  0  0  0  0
 11 17  1  0  0  0  0
 12 11  2  0  0  0  0
 13 14  2  0  0  0  0
 13 12  1  0  0  0  0
 14 15  1  0  0  0  0
 15  8  1  0  0  0  0
 15 16  2  0  0  0  0
 18 12  1  0  0  0  0
 19 13  1  0  0  0  0
 20  3  1  0  0  0  0
 21 20  2  0  0  0  0
 22 23  1  0  0  0  0
 22 20  1  0  0  0  0
 23 24  2  0  0  0  0
 24 25  1  0  0  0  0
 24 28  1  0  0  0  0
 25 29  1  0  0  0  0
 26 30  1  0  0  0  0
 26 25  2  0  0  0  0
 27 23  1  0  0  0  0
 27 26  1  0  0  0  0
 30 31  1  0  0  0  0
 31 32  2  0  0  0  0
 33 34  1  0  0  0  0
 33 32  1  0  0  0  0
 35 33  2  0  0  0  0
 36 35  1  0  0  0  0
 36 30  2  0  0  0  0
M  END
>  <minimizedAffinity>
-6.68465853

>  <minimizedRMSD>
1.84927261

$$$$
