
 OpenBabel03252513173D

 28 30  0  0  1  0  0  0  0  0999 V2000
   37.0050   30.6320   45.7660 N   0  0  0  0  0  0  0  0  0  0  0  0
   37.5790   31.2200   44.5520 C   0  0  0  0  0  0  0  0  0  0  0  0
   38.1980   32.4690   45.0920 C   0  0  0  0  0  0  0  0  0  0  0  0
   38.8710   31.9720   46.3250 C   0  0  0  0  0  0  0  0  0  0  0  0
   38.0960   30.7240   46.6940 C   0  0  1  0  0  0  0  0  0  0  0  0
   36.8620   31.3530   43.7450 H   0  0  0  0  0  0  0  0  0  0  0  0
   38.3760   30.4750   44.2550 H   0  0  0  0  0  0  0  0  0  0  0  0
   37.3730   33.1870   45.2930 H   0  0  0  0  0  0  0  0  0  0  0  0
   38.8880   32.8950   44.3410 H   0  0  0  0  0  0  0  0  0  0  0  0
   39.9540   31.7760   46.1900 H   0  0  0  0  0  0  0  0  0  0  0  0
   38.7780   32.6790   47.1800 H   0  0  0  0  0  0  0  0  0  0  0  0
   38.7650   29.8600   46.5280 H   0  0  0  0  0  0  0  0  0  0  0  0
   35.6760   30.1160   45.8990 C   0  0  0  0  0  0  0  0  0  0  0  0
   35.0590   29.3500   44.9020 C   0  0  0  0  0  0  0  0  0  0  0  0
   33.7550   28.8890   45.1110 C   0  0  0  0  0  0  0  0  0  0  0  0
   33.1580   29.2160   46.2790 N   0  0  0  0  0  0  0  0  0  0  0  0
   33.7730   29.9580   47.2300 C   0  0  0  0  0  0  0  0  0  0  0  0
   35.0300   30.3990   47.0210 N   0  0  0  0  0  0  0  0  0  0  0  0
   35.6340   29.1510   44.0070 H   0  0  0  0  0  0  0  0  0  0  0  0
   33.3000   28.3040   44.3370 H   0  0  0  0  0  0  0  0  0  0  0  0
   33.2050   30.1670   48.1360 H   0  0  0  0  0  0  0  0  0  0  0  0
   37.6980   30.7470   48.1230 C   0  0  0  0  0  0  0  0  0  0  0  0
   37.6240   29.6540   48.9580 C   0  0  0  0  0  0  0  0  0  0  0  0
   37.2540   29.7310   50.2820 C   0  0  0  0  0  0  0  0  0  0  0  0
   36.9300   30.9480   50.8460 C   0  0  0  0  0  0  0  0  0  0  0  0
   36.6340   31.1040   51.8570 H   0  0  0  0  0  0  0  0  0  0  0  0
   37.0110   32.0270   49.9920 C   0  0  0  0  0  0  0  0  0  0  0  0
   37.3710   31.9250   48.7200 N   0  0  0  0  0  0  0  0  0  0  0  0
  1 13  1  0  0  0  0
  1  5  1  0  0  0  0
  2  3  1  0  0  0  0
  2  1  1  0  0  0  0
  3  8  1  0  0  0  0
  3  4  1  0  0  0  0
  4  5  1  0  0  0  0
  4 11  1  0  0  0  0
  5 12  1  6  0  0  0
  5 22  1  0  0  0  0
  6  2  1  0  0  0  0
  7  2  1  0  0  0  0
  9  3  1  0  0  0  0
 10  4  1  0  0  0  0
 13 18  1  0  0  0  0
 14 15  1  0  0  0  0
 14 13  2  0  0  0  0
 15 16  2  0  0  0  0
 16 17  1  0  0  0  0
 17 21  1  0  0  0  0
 18 17  2  0  0  0  0
 19 14  1  0  0  0  0
 20 15  1  0  0  0  0
 22 28  2  0  0  0  0
 22 23  1  0  0  0  0
 23 24  2  0  0  0  0
 24 25  1  0  0  0  0
 25 26  1  0  0  0  0
 27 25  2  0  0  0  0
 28 27  1  0  0  0  0
M  END
>  <minimizedAffinity>
-4.40613365

>  <minimizedRMSD>
3.91512823

$$$$
