
 OpenBabel03252513083D

 41 43  0  0  0  0  0  0  0  0999 V2000
   32.3330   28.1230   46.7030 C   0  0  0  0  0  0  0  0  0  0  0  0
   32.9480   28.7560   45.5850 C   0  0  0  0  0  0  0  0  0  0  0  0
   34.0030   29.6020   45.7470 C   0  0  0  0  0  0  0  0  0  0  0  0
   34.4270   29.7990   47.0400 N   0  0  0  0  0  0  0  0  0  0  0  0
   33.8550   29.2130   48.0680 C   0  0  0  0  0  0  0  0  0  0  0  0
   32.8320   28.3870   47.9420 N   0  0  0  0  0  0  0  0  0  0  0  0
   31.5100   27.4550   46.6250 H   0  0  0  0  0  0  0  0  0  0  0  0
   32.4850   28.4880   44.6480 H   0  0  0  0  0  0  0  0  0  0  0  0
   34.6360   30.2510   44.6270 C   0  0  0  0  0  0  0  0  0  0  0  0
   33.8780   30.2920   43.7900 H   0  0  0  0  0  0  0  0  0  0  0  0
   34.8280   31.3240   44.8540 H   0  0  0  0  0  0  0  0  0  0  0  0
   35.8360   29.5860   44.0850 C   0  0  0  0  0  0  0  0  0  0  0  0
   35.8090   28.5250   44.4830 H   0  0  0  0  0  0  0  0  0  0  0  0
   35.7190   29.4450   42.9950 H   0  0  0  0  0  0  0  0  0  0  0  0
   37.1140   30.0900   44.3800 N   0  0  0  0  0  0  0  0  0  0  0  0
   37.5680   30.5800   45.5300 C   0  0  0  0  0  0  0  0  0  0  0  0
   38.8330   31.0550   45.7510 C   0  0  0  0  0  0  0  0  0  0  0  0
   39.7410   31.0440   44.7320 C   0  0  0  0  0  0  0  0  0  0  0  0
   40.9090   31.4550   44.8450 O   0  0  0  0  0  0  0  0  0  0  0  0
   39.3120   30.5620   43.5850 N   0  0  0  0  0  0  0  0  0  0  0  0
   38.0820   30.1080   43.3960 C   0  0  0  0  0  0  0  0  0  0  0  0
   37.7610   29.6610   42.2470 O   0  0  0  0  0  0  0  0  0  0  0  0
   36.8490   30.5970   46.3640 H   0  0  0  0  0  0  0  0  0  0  0  0
   39.1030   31.4370   46.7360 H   0  0  0  0  0  0  0  0  0  0  0  0
   40.2600   30.5360   42.4730 C   0  0  0  0  0  0  0  0  0  0  0  0
   39.8010   29.6980   41.4710 F   0  0  0  0  0  0  0  0  0  0  0  0
   41.4490   30.0220   42.9500 F   0  0  0  0  0  0  0  0  0  0  0  0
   40.4070   31.8100   42.0050 F   0  0  0  0  0  0  0  0  0  0  0  0
   34.3410   29.4560   49.4590 C   0  0  0  0  0  0  0  0  0  0  0  0
   33.4850   29.2100   50.1530 H   0  0  0  0  0  0  0  0  0  0  0  0
   34.6140   30.5100   49.6480 H   0  0  0  0  0  0  0  0  0  0  0  0
   35.4700   28.5200   49.7960 C   0  0  0  0  0  0  0  0  0  0  0  0
   35.7580   27.8860   48.9240 H   0  0  0  0  0  0  0  0  0  0  0  0
   35.1180   27.7920   50.5690 H   0  0  0  0  0  0  0  0  0  0  0  0
   36.6060   29.3230   50.3070 C   0  0  0  0  0  0  0  0  0  0  0  0
   37.1770   30.0890   49.2950 C   0  0  0  0  0  0  0  0  0  0  0  0
   38.2420   30.8240   49.8280 C   0  0  0  0  0  0  0  0  0  0  0  0
   38.9640   31.5330   49.4490 H   0  0  0  0  0  0  0  0  0  0  0  0
   38.2900   30.4880   51.1410 N   0  0  0  0  0  0  0  0  0  0  0  0
   37.3270   29.6190   51.3750 N   0  0  0  0  0  0  0  0  0  0  0  0
   38.9150   30.7860   51.9220 H   0  0  0  0  0  0  0  0  0  0  0  0
  1  6  1  0  0  0  0
  2  3  1  0  0  0  0
  2  1  2  0  0  0  0
  3  4  2  0  0  0  0
  4  5  1  0  0  0  0
  5 29  1  0  0  0  0
  6  5  2  0  0  0  0
  7  1  1  0  0  0  0
  8  2  1  0  0  0  0
  9 11  1  0  0  0  0
  9  3  1  0  0  0  0
 10  9  1  0  0  0  0
 12 15  1  0  0  0  0
 12 13  1  0  0  0  0
 12  9  1  0  0  0  0
 14 12  1  0  0  0  0
 15 16  1  0  0  0  0
 16 17  2  0  0  0  0
 16 23  1  0  0  0  0
 17 24  1  0  0  0  0
 18 19  2  0  0  0  0
 18 17  1  0  0  0  0
 20 18  1  0  0  0  0
 21 20  1  0  0  0  0
 21 15  1  0  0  0  0
 22 21  2  0  0  0  0
 25 27  1  0  0  0  0
 25 20  1  0  0  0  0
 26 25  1  0  0  0  0
 28 25  1  0  0  0  0
 29 31  1  0  0  0  0
 29 32  1  0  0  0  0
 29 30  1  0  0  0  0
 32 35  1  0  0  0  0
 32 34  1  0  0  0  0
 33 32  1  0  0  0  0
 35 40  2  0  0  0  0
 36 37  2  0  0  0  0
 36 35  1  0  0  0  0
 37 39  1  0  0  0  0
 38 37  1  0  0  0  0
 39 40  1  0  0  0  0
 39 41  1  0  0  0  0
M  END
>  <minimizedAffinity>
-5.49606991

>  <minimizedRMSD>
3.95663047

$$$$
