
 OpenBabel03252513383D

 26 27  0  0  0  0  0  0  0  0999 V2000
   36.9140   29.9380   49.8800 C   0  0  0  0  0  0  0  0  0  0  0  0
   38.0130   30.6600   49.4380 C   0  0  0  0  0  0  0  0  0  0  0  0
   38.0170   31.0880   48.1020 C   0  0  0  0  0  0  0  0  0  0  0  0
   36.9600   30.7750   47.3300 N   0  0  0  0  0  0  0  0  0  0  0  0
   35.9000   30.0620   47.8090 C   0  0  0  0  0  0  0  0  0  0  0  0
   35.8970   29.6580   49.0710 N   0  0  0  0  0  0  0  0  0  0  0  0
   39.1010   31.8260   47.5860 N   0  0  0  0  0  0  0  0  0  0  0  0
   38.9740   32.5650   46.3860 C   0  0  0  0  0  0  0  0  0  0  0  0
   37.8680   32.4880   45.7090 N   0  0  0  0  0  0  0  0  0  0  0  0
   40.0640   33.3740   45.9500 N   0  0  0  0  0  0  0  0  0  0  0  0
   37.8440   32.9490   44.7740 H   0  0  0  0  0  0  0  0  0  0  0  0
   38.8340   30.8800   50.1050 H   0  0  0  0  0  0  0  0  0  0  0  0
   40.0290   31.8410   48.0860 H   0  0  0  0  0  0  0  0  0  0  0  0
   40.0540   34.3850   45.6660 H   0  0  0  0  0  0  0  0  0  0  0  0
   41.0010   32.8750   45.9140 H   0  0  0  0  0  0  0  0  0  0  0  0
   34.7900   29.7630   46.9080 C   0  0  0  0  0  0  0  0  0  0  0  0
   34.9030   29.9640   45.5530 C   0  0  0  0  0  0  0  0  0  0  0  0
   33.8500   29.6820   44.6840 C   0  0  0  0  0  0  0  0  0  0  0  0
   32.7040   29.1930   45.2810 C   0  0  0  0  0  0  0  0  0  0  0  0
   31.8560   28.9590   44.6400 H   0  0  0  0  0  0  0  0  0  0  0  0
   32.5570   28.9780   46.6540 C   0  0  0  0  0  0  0  0  0  0  0  0
   33.6260   29.2830   47.3840 N   0  0  0  0  0  0  0  0  0  0  0  0
   36.8930   29.4640   51.3200 C   0  0  0  0  0  0  0  0  0  0  0  0
   35.5990   29.1620   51.6900 F   0  0  0  0  0  0  0  0  0  0  0  0
   37.7610   28.4160   51.4220 F   0  0  0  0  0  0  0  0  0  0  0  0
   37.3400   30.5240   52.0960 F   0  0  0  0  0  0  0  0  0  0  0  0
  1 23  1  0  0  0  0
  2  1  1  0  0  0  0
  2 12  1  0  0  0  0
  3  2  2  0  0  0  0
  4  5  2  0  0  0  0
  4  3  1  0  0  0  0
  5  6  1  0  0  0  0
  6  1  2  0  0  0  0
  7 13  1  0  0  0  0
  7  3  1  0  0  0  0
  8  7  1  0  0  0  0
  9  8  2  0  0  0  0
 10  8  1  0  0  0  0
 11  9  1  0  0  0  0
 14 10  1  0  0  0  0
 15 10  1  0  0  0  0
 16 22  1  0  0  0  0
 16  5  1  0  0  0  0
 17 16  2  0  0  0  0
 18 19  2  0  0  0  0
 18 17  1  0  0  0  0
 19 21  1  0  0  0  0
 20 19  1  0  0  0  0
 21 22  2  0  0  0  0
 23 25  1  0  0  0  0
 23 24  1  0  0  0  0
 23 26  1  0  0  0  0
M  END
>  <minimizedAffinity>
-6.60675621

>  <minimizedRMSD>
0.402043611

$$$$
