
 OpenBabel03252512573D

 28 31  0  0  0  0  0  0  0  0999 V2000
   36.7780   29.7230   51.6510 C   0  0  0  0  0  0  0  0  0  0  0  0
   37.5880   30.5390   50.8510 C   0  0  0  0  0  0  0  0  0  0  0  0
   37.2860   30.6580   49.5020 C   0  0  0  0  0  0  0  0  0  0  0  0
   36.2210   29.9850   49.0030 N   0  0  0  0  0  0  0  0  0  0  0  0
   35.4590   29.2060   49.7990 C   0  0  0  0  0  0  0  0  0  0  0  0
   35.7310   29.0700   51.1280 N   0  0  0  0  0  0  0  0  0  0  0  0
   37.0250   29.6400   52.6990 H   0  0  0  0  0  0  0  0  0  0  0  0
   38.4360   31.0720   51.2630 H   0  0  0  0  0  0  0  0  0  0  0  0
   38.0760   31.4870   48.5900 C   0  0  0  0  0  0  0  0  0  0  0  0
   38.7320   32.6650   48.7790 N   0  0  0  0  0  0  0  0  0  0  0  0
   39.2970   33.0150   47.6550 O   0  0  0  0  0  0  0  0  0  0  0  0
   39.0300   32.1110   46.7560 C   0  0  0  0  0  0  0  0  0  0  0  0
   38.2570   31.1190   47.2950 N   0  0  0  0  0  0  0  0  0  0  0  0
   39.4400   32.0770   45.3810 N   0  0  0  0  0  0  0  0  0  0  0  0
   38.9670   32.9710   44.4920 N   0  0  0  0  0  0  0  0  0  0  0  0
   39.5140   32.7080   43.2840 C   0  0  0  0  0  0  0  0  0  0  0  0
   40.3510   31.6080   43.4720 C   0  0  0  0  0  0  0  0  0  0  0  0
   40.2890   31.2240   44.8030 C   0  0  0  0  0  0  0  0  0  0  0  0
   39.3670   33.2180   42.3400 H   0  0  0  0  0  0  0  0  0  0  0  0
   40.9720   31.0860   42.7500 H   0  0  0  0  0  0  0  0  0  0  0  0
   40.7770   30.4290   45.3590 H   0  0  0  0  0  0  0  0  0  0  0  0
   34.3150   28.4860   49.2490 C   0  0  0  0  0  0  0  0  0  0  0  0
   34.5170   27.5370   48.2690 C   0  0  0  0  0  0  0  0  0  0  0  0
   33.4770   26.8010   47.6870 C   0  0  0  0  0  0  0  0  0  0  0  0
   32.2450   27.1280   48.1980 C   0  0  0  0  0  0  0  0  0  0  0  0
   31.3780   26.6000   47.7980 H   0  0  0  0  0  0  0  0  0  0  0  0
   32.0300   28.0650   49.1690 C   0  0  0  0  0  0  0  0  0  0  0  0
   33.0670   28.7300   49.6800 N   0  0  0  0  0  0  0  0  0  0  0  0
  1  7  1  0  0  0  0
  2  8  1  0  0  0  0
  2  1  2  0  0  0  0
  3  2  1  0  0  0  0
  4  3  2  0  0  0  0
  4  5  1  0  0  0  0
  5  6  2  0  0  0  0
  6  1  1  0  0  0  0
  9 10  2  0  0  0  0
  9  3  1  0  0  0  0
 11 10  1  0  0  0  0
 12 13  2  0  0  0  0
 12 11  1  0  0  0  0
 13  9  1  0  0  0  0
 14 12  1  0  0  0  0
 15 14  1  0  0  0  0
 16 17  1  0  0  0  0
 16 15  2  0  0  0  0
 17 18  2  0  0  0  0
 18 21  1  0  0  0  0
 18 14  1  0  0  0  0
 19 16  1  0  0  0  0
 20 17  1  0  0  0  0
 22 28  1  0  0  0  0
 22  5  1  0  0  0  0
 23 22  2  0  0  0  0
 24 25  2  0  0  0  0
 24 23  1  0  0  0  0
 25 27  1  0  0  0  0
 26 25  1  0  0  0  0
 27 28  2  0  0  0  0
M  END
>  <minimizedAffinity>
-6.34866571

>  <minimizedRMSD>
0.854470313

$$$$
