
 OpenBabel03252513223D

 19 20  0  0  0  0  0  0  0  0999 V2000
   36.6340   29.5340   50.1050 C   0  0  0  0  0  0  0  0  0  0  0  0
   36.9470   30.5820   49.2320 C   0  0  0  0  0  0  0  0  0  0  0  0
   36.1690   30.7400   48.0760 C   0  0  0  0  0  0  0  0  0  0  0  0
   35.1420   29.8570   47.8650 N   0  0  0  0  0  0  0  0  0  0  0  0
   34.8650   28.8480   48.7350 C   0  0  0  0  0  0  0  0  0  0  0  0
   35.6130   28.7110   49.8290 N   0  0  0  0  0  0  0  0  0  0  0  0
   37.2450   29.4240   50.9940 H   0  0  0  0  0  0  0  0  0  0  0  0
   36.3430   31.5270   47.3460 H   0  0  0  0  0  0  0  0  0  0  0  0
   33.7550   27.9290   48.4640 C   0  0  0  0  0  0  0  0  0  0  0  0
   33.9870   26.8030   47.6910 C   0  0  0  0  0  0  0  0  0  0  0  0
   32.8810   25.9910   47.4860 C   0  0  0  0  0  0  0  0  0  0  0  0
   31.6270   26.2760   48.0120 C   0  0  0  0  0  0  0  0  0  0  0  0
   30.8540   25.5660   47.7780 H   0  0  0  0  0  0  0  0  0  0  0  0
   31.4490   27.4190   48.7800 C   0  0  0  0  0  0  0  0  0  0  0  0
   32.5400   28.1980   48.9680 N   0  0  0  0  0  0  0  0  0  0  0  0
   38.0650   31.5380   49.4690 C   0  0  0  0  0  0  0  0  0  0  0  0
   38.9470   31.6390   48.4380 F   0  0  0  0  0  0  0  0  0  0  0  0
   38.7880   31.1840   50.5890 F   0  0  0  0  0  0  0  0  0  0  0  0
   37.5420   32.8120   49.6850 F   0  0  0  0  0  0  0  0  0  0  0  0
  1  7  1  0  0  0  0
  2 16  1  0  0  0  0
  2  1  2  0  0  0  0
  3  2  1  0  0  0  0
  4  3  2  0  0  0  0
  4  5  1  0  0  0  0
  5  6  2  0  0  0  0
  6  1  1  0  0  0  0
  8  3  1  0  0  0  0
  9  5  1  0  0  0  0
  9 15  1  0  0  0  0
 10  9  2  0  0  0  0
 11 10  1  0  0  0  0
 11 12  2  0  0  0  0
 12 14  1  0  0  0  0
 13 12  1  0  0  0  0
 14 15  2  0  0  0  0
 16 19  1  0  0  0  0
 16 18  1  0  0  0  0
 17 16  1  0  0  0  0
M  END
>  <minimizedAffinity>
-5.24033833

>  <minimizedRMSD>
1.51856637

$$$$
