
 OpenBabel03252513143D

 43 46  0  0  0  0  0  0  0  0999 V2000
   36.1580   31.4280   42.6150 C   0  0  0  0  0  0  0  0  0  0  0  0
   37.3230   31.0930   41.9270 C   0  0  0  0  0  0  0  0  0  0  0  0
   38.3820   30.6440   42.6570 C   0  0  0  0  0  0  0  0  0  0  0  0
   38.1940   30.5720   43.9630 N   0  0  0  0  0  0  0  0  0  0  0  0
   37.1590   30.8600   44.6830 C   0  0  0  0  0  0  0  0  0  0  0  0
   36.1430   31.2940   43.9400 N   0  0  0  0  0  0  0  0  0  0  0  0
   35.2400   31.8010   42.1420 H   0  0  0  0  0  0  0  0  0  0  0  0
   36.8560   30.8190   46.0990 C   0  0  0  0  0  0  0  0  0  0  0  0
   35.8230   30.0460   46.6380 C   0  0  0  0  0  0  0  0  0  0  0  0
   35.5040   29.9860   47.9580 C   0  0  0  0  0  0  0  0  0  0  0  0
   36.2280   30.7250   48.8710 C   0  0  0  0  0  0  0  0  0  0  0  0
   37.2320   31.4860   48.4040 C   0  0  0  0  0  0  0  0  0  0  0  0
   37.9570   32.2290   49.3280 C   0  0  0  0  0  0  0  0  0  0  0  0
   38.9910   33.0270   48.9490 C   0  0  0  0  0  0  0  0  0  0  0  0
   39.3120   33.0850   47.6000 C   0  0  0  0  0  0  0  0  0  0  0  0
   38.5730   32.3380   46.7230 C   0  0  0  0  0  0  0  0  0  0  0  0
   37.5460   31.5390   47.0650 C   0  0  0  0  0  0  0  0  0  0  0  0
   35.2320   29.4510   45.9520 H   0  0  0  0  0  0  0  0  0  0  0  0
   34.6860   29.3590   48.2910 H   0  0  0  0  0  0  0  0  0  0  0  0
   37.7640   32.2340   50.3920 H   0  0  0  0  0  0  0  0  0  0  0  0
   39.5820   33.6260   49.6480 H   0  0  0  0  0  0  0  0  0  0  0  0
   40.1280   33.7070   47.2500 H   0  0  0  0  0  0  0  0  0  0  0  0
   38.8530   32.4070   45.6690 H   0  0  0  0  0  0  0  0  0  0  0  0
   35.8910   30.6510   50.2030 O   0  0  0  0  0  0  0  0  0  0  0  0
   36.4070   29.6180   51.0190 C   0  0  0  0  0  0  0  0  0  0  0  0
   37.2280   28.7270   50.3910 F   0  0  0  0  0  0  0  0  0  0  0  0
   37.1880   30.2230   51.9960 F   0  0  0  0  0  0  0  0  0  0  0  0
   35.3130   28.9670   51.5810 F   0  0  0  0  0  0  0  0  0  0  0  0
   39.6220   30.2500   42.1160 N   0  0  0  0  0  0  0  0  0  0  0  0
   40.7470   29.9270   42.9100 C   0  0  0  0  0  0  0  0  0  0  0  0
   40.9730   30.6430   43.9730 N   0  0  0  0  0  0  0  0  0  0  0  0
   41.6060   28.8480   42.5690 N   0  0  0  0  0  0  0  0  0  0  0  0
   41.7040   30.5090   44.6600 H   0  0  0  0  0  0  0  0  0  0  0  0
   39.8900   30.1260   41.0950 H   0  0  0  0  0  0  0  0  0  0  0  0
   41.3980   27.8520   42.3400 H   0  0  0  0  0  0  0  0  0  0  0  0
   42.6410   29.0820   42.5400 H   0  0  0  0  0  0  0  0  0  0  0  0
   37.3860   31.2310   40.4920 C   0  0  0  0  0  0  0  0  0  0  0  0
   36.7800   32.2950   39.8750 C   0  0  0  0  0  0  0  0  0  0  0  0
   36.7680   32.5390   38.5130 C   0  0  0  0  0  0  0  0  0  0  0  0
   37.4100   31.6620   37.6640 C   0  0  0  0  0  0  0  0  0  0  0  0
   37.5150   31.6730   36.5890 H   0  0  0  0  0  0  0  0  0  0  0  0
   38.0190   30.5930   38.2800 C   0  0  0  0  0  0  0  0  0  0  0  0
   37.9750   30.4440   39.5980 N   0  0  0  0  0  0  0  0  0  0  0  0
  1  6  1  0  0  0  0
  2  1  2  0  0  0  0
  2  3  1  0  0  0  0
  3  4  2  0  0  0  0
  4  5  1  0  0  0  0
  5  8  1  0  0  0  0
  6  5  2  0  0  0  0
  7  1  1  0  0  0  0
  8  9  2  0  0  0  0
  8 17  1  0  0  0  0
  9 10  1  0  0  0  0
 10 19  1  0  0  0  0
 10 11  2  0  0  0  0
 11 24  1  0  0  0  0
 12 11  1  0  0  0  0
 12 13  1  0  0  0  0
 13 20  1  0  0  0  0
 14 13  2  0  0  0  0
 14 21  1  0  0  0  0
 15 14  1  0  0  0  0
 16 17  1  0  0  0  0
 16 15  2  0  0  0  0
 17 12  2  0  0  0  0
 18  9  1  0  0  0  0
 22 15  1  0  0  0  0
 23 16  1  0  0  0  0
 24 25  1  0  0  0  0
 25 28  1  0  0  0  0
 25 27  1  0  0  0  0
 26 25  1  0  0  0  0
 29  3  1  0  0  0  0
 29 30  1  0  0  0  0
 30 31  2  0  0  0  0
 31 33  1  0  0  0  0
 32 30  1  0  0  0  0
 34 29  1  0  0  0  0
 35 32  1  0  0  0  0
 36 32  1  0  0  0  0
 37  2  1  0  0  0  0
 38 37  1  0  0  0  0
 39 38  2  0  0  0  0
 40 42  2  0  0  0  0
 40 39  1  0  0  0  0
 41 40  1  0  0  0  0
 42 43  1  0  0  0  0
 43 37  2  0  0  0  0
M  END
>  <minimizedAffinity>
-7.40723848

>  <minimizedRMSD>
0.255688995

$$$$
