
 OpenBabel03252514043D

 36 39  0  0  1  0  0  0  0  0999 V2000
   36.6650   30.5140   49.1190 C   0  0  2  0  0  0  0  0  0  0  0  0
   36.7510   30.1660   50.5340 C   0  0  0  0  0  0  0  0  0  0  0  0
   36.3060   29.1000   49.6830 C   0  0  1  0  0  0  0  0  0  0  0  0
   35.8280   30.9970   48.6150 H   0  0  0  0  0  0  0  0  0  0  0  0
   37.7820   30.1750   50.9980 H   0  0  0  0  0  0  0  0  0  0  0  0
   36.0340   30.6510   51.2590 H   0  0  0  0  0  0  0  0  0  0  0  0
   36.8930   28.3000   49.2220 H   0  0  0  0  0  0  0  0  0  0  0  0
   37.9880   30.4550   48.3370 C   0  0  0  0  0  0  0  0  0  0  0  0
   38.6570   29.7100   48.7720 H   0  0  0  0  0  0  0  0  0  0  0  0
   37.6810   30.1750   47.2890 H   0  0  0  0  0  0  0  0  0  0  0  0
   39.0550   33.7380   49.5330 C   0  0  0  0  0  0  0  0  0  0  0  0
   39.6940   34.2850   48.4020 C   0  0  0  0  0  0  0  0  0  0  0  0
   39.7450   33.4960   47.2300 C   0  0  0  0  0  0  0  0  0  0  0  0
   39.1720   32.2510   47.2630 N   0  0  0  0  0  0  0  0  0  0  0  0
   38.5800   31.7820   48.3620 C   0  0  0  0  0  0  0  0  0  0  0  0
   38.5250   32.5350   49.4960 N   0  0  0  0  0  0  0  0  0  0  0  0
   38.9700   34.2720   50.4750 H   0  0  0  0  0  0  0  0  0  0  0  0
   40.1180   35.2780   48.4700 H   0  0  0  0  0  0  0  0  0  0  0  0
   40.2290   33.9120   46.3730 H   0  0  0  0  0  0  0  0  0  0  0  0
   34.8270   28.7800   49.7640 C   0  0  0  0  0  0  0  0  0  0  0  0
   34.1850   29.5570   50.5760 O   0  0  0  0  0  0  0  0  0  0  0  0
   34.1560   27.7860   49.0680 O   0  0  0  0  0  0  0  0  0  0  0  0
   32.9650   27.9680   48.4320 C   0  0  0  0  0  0  0  0  0  0  0  0
   32.8120   28.6230   47.1220 C   0  0  0  0  0  0  0  0  0  0  0  0
   31.5900   28.7620   46.5560 C   0  0  0  0  0  0  0  0  0  0  0  0
   30.4510   28.2670   47.2460 C   0  0  0  0  0  0  0  0  0  0  0  0
   31.1660   27.5520   48.8130 S   0  0  0  0  0  0  0  0  0  0  0  0
   33.7100   28.9810   46.6420 H   0  0  0  0  0  0  0  0  0  0  0  0
   31.4150   29.2270   45.6040 H   0  0  0  0  0  0  0  0  0  0  0  0
   29.0940   28.2860   46.8820 C   0  0  0  0  0  0  0  0  0  0  0  0
   28.5640   27.4400   45.9310 C   0  0  0  0  0  3  0  0  0  0  0  0
   27.2170   27.5420   45.6500 C   0  0  0  0  0  3  0  0  0  0  0  0
   26.4250   28.4710   46.3080 C   0  0  0  0  0  0  0  0  0  0  0  0
   25.3900   28.4510   45.9990 H   0  0  0  0  0  0  0  0  0  0  0  0
   26.9910   29.3010   47.2550 C   0  0  0  0  0  3  0  0  0  0  0  0
   28.3070   29.1740   47.5040 N   0  0  0  0  0  0  0  0  0  0  0  0
  1  4  1  6  0  0  0
  1  3  1  0  0  0  0
  1  2  1  0  0  0  0
  2  5  1  0  0  0  0
  2  6  1  0  0  0  0
  3  7  1  6  0  0  0
  3 20  1  0  0  0  0
  3  2  1  0  0  0  0
  8 15  1  0  0  0  0
  8  9  1  0  0  0  0
  8  1  1  0  0  0  0
 10  8  1  0  0  0  0
 11 17  1  0  0  0  0
 12 18  1  0  0  0  0
 12 11  2  0  0  0  0
 13 14  2  0  0  0  0
 13 12  1  0  0  0  0
 14 15  1  0  0  0  0
 15 16  2  0  0  0  0
 16 11  1  0  0  0  0
 19 13  1  0  0  0  0
 20 21  2  0  0  0  0
 22 20  1  0  0  0  0
 23 27  1  0  0  0  0
 23 22  1  0  0  0  0
 24 23  2  0  0  0  0
 25 24  1  0  0  0  0
 25 26  2  0  0  0  0
 26 27  1  0  0  0  0
 28 24  1  0  0  0  0
 29 25  1  0  0  0  0
 30 26  1  0  0  0  0
 30 36  1  0  0  0  0
 31 30  2  0  0  0  0
 32 31  1  0  0  0  0
 32 33  2  0  0  0  0
 33 35  1  0  0  0  0
 34 33  1  0  0  0  0
 35 36  2  0  0  0  0
M  END
>  <minimizedAffinity>
-5.82044029

>  <minimizedRMSD>
2.99146628

$$$$
