
 OpenBabel03252513543D

 15 16  0  0  0  0  0  0  0  0999 V2000
   38.4110   32.6990   49.3930 C   0  0  0  0  0  0  0  0  0  0  0  0
   38.9070   32.7010   48.0800 C   0  0  0  0  0  0  0  0  0  0  0  0
   38.6980   31.5570   47.2940 C   0  0  0  0  0  0  0  0  0  0  0  0
   38.0190   30.5090   47.8620 N   0  0  0  0  0  0  0  0  0  0  0  0
   37.5560   30.5490   49.1330 C   0  0  0  0  0  0  0  0  0  0  0  0
   37.7580   31.6510   49.8900 N   0  0  0  0  0  0  0  0  0  0  0  0
   38.6010   33.6090   49.9550 H   0  0  0  0  0  0  0  0  0  0  0  0
   39.4460   33.5100   47.6040 H   0  0  0  0  0  0  0  0  0  0  0  0
   39.0210   31.4150   46.2720 H   0  0  0  0  0  0  0  0  0  0  0  0
   36.8350   29.3760   49.6680 C   0  0  0  0  0  0  0  0  0  0  0  0
   36.8570   29.4250   50.7970 H   0  0  0  0  0  0  0  0  0  0  0  0
   37.3160   28.4370   49.3200 H   0  0  0  0  0  0  0  0  0  0  0  0
   35.4120   29.4600   49.1710 C   0  0  0  0  0  0  0  0  0  0  0  0
   34.2750   29.4380   50.1250 C   0  0  0  0  0  0  0  0  0  0  0  0
   34.6010   28.1960   49.3770 C   0  0  0  0  0  0  0  0  0  0  0  0
  1  6  1  0  0  0  0
  1  7  1  0  0  0  0
  2  1  2  0  0  0  0
  3  4  2  0  0  0  0
  3  2  1  0  0  0  0
  4  5  1  0  0  0  0
  5 10  1  0  0  0  0
  5  6  2  0  0  0  0
  8  2  1  0  0  0  0
  9  3  1  0  0  0  0
 10 11  1  0  0  0  0
 12 10  1  0  0  0  0
 13 15  1  0  0  0  0
 13 10  1  0  0  0  0
 13 14  1  0  0  0  0
 15 14  1  0  0  0  0
M  END
>  <minimizedAffinity>
-4.13476706

>  <minimizedRMSD>
2.48046088

$$$$
