
 OpenBabel03252514043D

 35 38  0  0  1  0  0  0  0  0999 V2000
   35.2920   29.1870   48.5880 C   0  0  2  0  0  0  0  0  0  0  0  0
   34.0570   29.3200   49.3540 C   0  0  0  0  0  0  0  0  0  0  0  0
   34.4300   27.9680   49.0530 C   0  0  1  0  0  0  0  0  0  0  0  0
   35.3740   29.2910   47.5040 H   0  0  0  0  0  0  0  0  0  0  0  0
   33.1730   29.8210   48.8810 H   0  0  0  0  0  0  0  0  0  0  0  0
   34.1630   29.6680   50.4240 H   0  0  0  0  0  0  0  0  0  0  0  0
   34.9840   27.2680   49.6760 H   0  0  0  0  0  0  0  0  0  0  0  0
   36.6010   29.2530   49.3940 C   0  0  0  0  0  0  0  0  0  0  0  0
   36.3790   29.1460   50.4760 H   0  0  0  0  0  0  0  0  0  0  0  0
   37.2050   28.3690   49.0330 H   0  0  0  0  0  0  0  0  0  0  0  0
   37.6820   32.7360   49.5500 C   0  0  0  0  0  0  0  0  0  0  0  0
   38.5260   32.8500   48.4330 C   0  0  0  0  0  0  0  0  0  0  0  0
   38.7140   31.7010   47.6320 C   0  0  0  0  0  0  0  0  0  0  0  0
   38.0620   30.5490   47.9880 N   0  0  0  0  0  0  0  0  0  0  0  0
   37.2700   30.4980   49.0610 C   0  0  0  0  0  0  0  0  0  0  0  0
   37.0840   31.5990   49.8410 N   0  0  0  0  0  0  0  0  0  0  0  0
   37.6130   33.6580   50.0810 H   0  0  0  0  0  0  0  0  0  0  0  0
   39.0730   33.6930   48.0750 H   0  0  0  0  0  0  0  0  0  0  0  0
   39.3250   31.6340   46.7530 H   0  0  0  0  0  0  0  0  0  0  0  0
   33.6110   27.2930   47.9710 C   0  0  0  0  0  0  0  0  0  0  0  0
   33.9810   26.0750   47.7420 O   0  0  0  0  0  0  0  0  0  0  0  0
   32.5530   27.8510   47.2570 O   0  0  0  0  0  0  0  0  0  0  0  0
   31.3080   28.0550   47.7920 C   0  0  0  0  0  0  0  0  0  0  0  0
   30.8550   27.5650   49.1160 C   0  0  0  0  0  0  0  0  0  0  0  0
   29.5930   27.8550   49.4940 C   0  0  0  0  0  0  0  0  0  0  0  0
   28.7270   28.5940   48.6750 C   0  0  0  0  0  0  0  0  0  0  0  0
   29.7550   28.9510   47.1710 S   0  0  0  0  0  0  0  0  0  0  0  0
   31.5680   27.0070   49.6940 H   0  0  0  0  0  0  0  0  0  0  0  0
   29.1840   27.5390   50.4380 H   0  0  0  0  0  0  0  0  0  0  0  0
   27.4270   29.0260   48.7990 C   0  0  0  0  0  0  0  0  0  0  0  0
   26.3950   28.0880   49.1660 C   0  0  0  0  0  3  0  0  0  0  0  0
   24.9170   29.1400   49.1890 S   0  0  0  0  0  0  0  0  0  0  0  0
   25.9240   30.6780   48.7020 C   0  0  0  0  0  0  0  0  0  0  0  0
   25.5900   31.7920   48.5260 H   0  0  0  0  0  0  0  0  0  0  0  0
   26.9590   30.2460   48.6220 N   0  0  0  0  0  0  0  0  0  0  0  0
  1  4  1  6  0  0  0
  1  3  1  0  0  0  0
  1  2  1  0  0  0  0
  1  8  1  0  0  0  0
  2  6  1  0  0  0  0
  3  2  1  0  0  0  0
  3  7  1  1  0  0  0
  5  2  1  0  0  0  0
  8  9  1  0  0  0  0
 10  8  1  0  0  0  0
 11 16  1  0  0  0  0
 11 17  1  0  0  0  0
 12 11  2  0  0  0  0
 13 14  2  0  0  0  0
 13 12  1  0  0  0  0
 14 15  1  0  0  0  0
 15  8  1  0  0  0  0
 15 16  2  0  0  0  0
 18 12  1  0  0  0  0
 19 13  1  0  0  0  0
 20  3  1  0  0  0  0
 21 20  2  0  0  0  0
 22 23  1  0  0  0  0
 22 20  1  0  0  0  0
 23 24  2  0  0  0  0
 24 25  1  0  0  0  0
 24 28  1  0  0  0  0
 25 29  1  0  0  0  0
 26 30  1  0  0  0  0
 26 25  2  0  0  0  0
 27 23  1  0  0  0  0
 27 26  1  0  0  0  0
 30 31  2  0  0  0  0
 31 32  1  0  0  0  0
 33 32  1  0  0  0  0
 34 33  1  0  0  0  0
 35 33  2  0  0  0  0
 35 30  1  0  0  0  0
M  END
>  <minimizedAffinity>
-6.14228106

>  <minimizedRMSD>
1.69266057

$$$$
