
 OpenBabel03252514023D

 32 35  0  0  1  0  0  0  0  0999 V2000
   35.6530   29.5860   49.2930 C   0  0  2  0  0  0  0  0  0  0  0  0
   34.7260   29.4690   50.4250 C   0  0  0  0  0  0  0  0  0  0  0  0
   34.9360   28.2640   49.6350 C   0  0  1  0  0  0  0  0  0  0  0  0
   35.3730   30.0670   48.3480 H   0  0  0  0  0  0  0  0  0  0  0  0
   33.7200   29.9820   50.3890 H   0  0  0  0  0  0  0  0  0  0  0  0
   35.1700   29.5720   51.4440 H   0  0  0  0  0  0  0  0  0  0  0  0
   35.6360   27.4420   49.8050 H   0  0  0  0  0  0  0  0  0  0  0  0
   37.1510   29.5020   49.5880 C   0  0  0  0  0  0  0  0  0  0  0  0
   37.2550   29.4840   50.6900 H   0  0  0  0  0  0  0  0  0  0  0  0
   37.5780   28.5750   49.1890 H   0  0  0  0  0  0  0  0  0  0  0  0
   38.4410   32.9250   49.3660 C   0  0  0  0  0  0  0  0  0  0  0  0
   38.9460   32.9840   48.0580 C   0  0  0  0  0  0  0  0  0  0  0  0
   38.8350   31.8340   47.2590 C   0  0  0  0  0  0  0  0  0  0  0  0
   38.2430   30.7200   47.8010 N   0  0  0  0  0  0  0  0  0  0  0  0
   37.7760   30.7130   49.0540 C   0  0  0  0  0  0  0  0  0  0  0  0
   37.8820   31.8220   49.8250 N   0  0  0  0  0  0  0  0  0  0  0  0
   38.5800   33.8630   49.8850 H   0  0  0  0  0  0  0  0  0  0  0  0
   39.4240   33.8150   47.5550 H   0  0  0  0  0  0  0  0  0  0  0  0
   39.2020   31.7960   46.2350 H   0  0  0  0  0  0  0  0  0  0  0  0
   33.7830   27.8650   48.7590 C   0  0  0  0  0  0  0  0  0  0  0  0
   34.0920   27.0700   47.7840 O   0  0  0  0  0  0  0  0  0  0  0  0
   32.4660   28.2590   48.9140 O   0  0  0  0  0  0  0  0  0  0  0  0
   31.4230   27.7160   48.1770 C   0  0  0  0  0  0  0  0  0  0  0  0
   30.6180   26.5970   48.3910 C   0  0  0  0  0  3  0  0  0  0  0  0
   29.7410   26.4960   47.3720 N   0  0  0  0  0  0  0  0  0  0  0  0
   29.9610   27.5150   46.5180 C   0  0  0  0  0  0  0  0  0  0  0  0
   29.2880   27.8060   45.3250 C   0  0  0  0  0  3  0  0  0  0  0  0
   29.6910   28.9180   44.6000 C   0  0  0  0  0  3  0  0  0  0  0  0
   30.7370   29.7120   45.0610 C   0  0  0  0  0  3  0  0  0  0  0  0
   31.3830   29.4030   46.2390 C   0  0  0  0  0  3  0  0  0  0  0  0
   30.9990   28.2900   46.9890 C   0  0  0  0  0  0  0  0  0  0  0  0
   29.0230   25.7280   47.3060 H   0  0  0  0  0  0  0  0  0  0  0  0
  1  4  1  6  0  0  0
  1  8  1  0  0  0  0
  1  3  1  0  0  0  0
  1  2  1  0  0  0  0
  2  6  1  0  0  0  0
  3  7  1  1  0  0  0
  3  2  1  0  0  0  0
  5  2  1  0  0  0  0
  8  9  1  0  0  0  0
 10  8  1  0  0  0  0
 11 16  1  0  0  0  0
 11 17  1  0  0  0  0
 12 11  2  0  0  0  0
 13 14  2  0  0  0  0
 13 12  1  0  0  0  0
 14 15  1  0  0  0  0
 15  8  1  0  0  0  0
 15 16  2  0  0  0  0
 18 12  1  0  0  0  0
 19 13  1  0  0  0  0
 20 22  1  0  0  0  0
 20  3  1  0  0  0  0
 21 20  2  0  0  0  0
 23 24  2  0  0  0  0
 23 22  1  0  0  0  0
 25 24  1  0  0  0  0
 26 31  1  0  0  0  0
 26 25  1  0  0  0  0
 27 26  2  0  0  0  0
 28 29  2  0  0  0  0
 28 27  1  0  0  0  0
 29 30  1  0  0  0  0
 30 31  2  0  0  0  0
 31 23  1  0  0  0  0
 32 25  1  0  0  0  0
M  END
>  <minimizedAffinity>
-5.18252945

>  <minimizedRMSD>
0.793640792

$$$$
