
 OpenBabel03252512473D

 27 29  0  0  1  0  0  0  0  0999 V2000
   38.4730   31.2110   47.8230 C   0  0  0  0  0  0  0  0  0  0  0  0
   38.8580   32.5650   47.8990 C   0  0  0  0  0  0  0  0  0  0  0  0
   39.7020   32.8700   46.2910 S   0  0  0  0  0  0  0  0  0  0  0  0
   39.3690   31.0510   45.7970 C   0  0  0  0  0  0  0  0  0  0  0  0
   38.8350   30.6700   46.6880 N   0  0  0  0  0  0  0  0  0  0  0  0
   38.6850   33.2660   48.7320 H   0  0  0  0  0  0  0  0  0  0  0  0
   38.1370   30.8970   50.2500 C   0  0  0  0  0  0  0  0  0  0  0  0
   37.7570   30.6020   48.9360 C   0  0  0  0  0  0  0  0  0  0  0  0
   36.6870   29.7230   48.7960 C   0  0  0  0  0  0  0  0  0  0  0  0
   36.0850   29.2110   49.8930 N   0  0  0  0  0  0  0  0  0  0  0  0
   36.4880   29.5270   51.1340 C   0  0  0  0  0  0  0  0  0  0  0  0
   37.5140   30.3700   51.3080 N   0  0  0  0  0  0  0  0  0  0  0  0
   38.9660   31.5790   50.4160 H   0  0  0  0  0  0  0  0  0  0  0  0
   36.3780   29.4800   47.7890 H   0  0  0  0  0  0  0  0  0  0  0  0
   35.8730   29.0120   51.8740 H   0  0  0  0  0  0  0  0  0  0  0  0
   39.7920   30.4810   44.4790 C   0  0  2  0  0  0  0  0  0  0  0  0
   40.7530   29.9780   44.7010 H   0  0  0  0  0  0  0  0  0  0  0  0
   39.9150   31.6110   43.5100 C   0  0  0  0  0  0  0  0  0  0  0  0
   40.2300   32.5560   43.9900 H   0  0  0  0  0  0  0  0  0  0  0  0
   40.7190   31.3290   42.7790 H   0  0  0  0  0  0  0  0  0  0  0  0
   38.9810   31.7210   42.9020 H   0  0  0  0  0  0  0  0  0  0  0  0
   38.7490   29.4800   44.0210 C   0  0  0  0  0  0  0  0  0  0  0  0
   37.8270   29.9590   43.6780 H   0  0  0  0  0  0  0  0  0  0  0  0
   38.4870   28.8130   44.8820 H   0  0  0  0  0  0  0  0  0  0  0  0
   39.3650   28.6130   42.9540 C   0  0  0  0  0  0  0  0  0  0  0  0
   39.2140   27.1360   43.0210 C   0  0  0  0  0  0  0  0  0  0  0  0
   38.3260   27.8630   42.1040 C   0  0  0  0  0  0  0  0  0  0  0  0
  1  2  2  0  0  0  0
  1  8  1  0  0  0  0
  2  6  1  0  0  0  0
  3  2  1  0  0  0  0
  4  3  1  0  0  0  0
  4  5  2  0  0  0  0
  5  1  1  0  0  0  0
  7 13  1  0  0  0  0
  7 12  1  0  0  0  0
  8  7  2  0  0  0  0
  9  8  1  0  0  0  0
  9 10  2  0  0  0  0
 10 11  1  0  0  0  0
 11 12  2  0  0  0  0
 11 15  1  0  0  0  0
 14  9  1  0  0  0  0
 16 17  1  1  0  0  0
 16  4  1  0  0  0  0
 18 19  1  0  0  0  0
 18 16  1  0  0  0  0
 20 18  1  0  0  0  0
 21 18  1  0  0  0  0
 22 16  1  0  0  0  0
 22 24  1  0  0  0  0
 23 22  1  0  0  0  0
 25 26  1  0  0  0  0
 25 22  1  0  0  0  0
 27 25  1  0  0  0  0
 27 26  1  0  0  0  0
M  END
>  <minimizedAffinity>
-4.92053795

>  <minimizedRMSD>
1.38626444

$$$$
