
 OpenBabel03252513083D

 37 39  0  0  0  0  0  0  0  0999 V2000
   39.7640   32.1550   46.3610 C   0  0  0  0  0  0  0  0  0  0  0  0
   39.5090   32.9990   45.6610 H   0  0  0  0  0  0  0  0  0  0  0  0
   40.8070   32.4180   46.7000 H   0  0  0  0  0  0  0  0  0  0  0  0
   38.0660   33.1290   49.5370 C   0  0  0  0  0  0  0  0  0  0  0  0
   38.9800   33.1150   48.4560 C   0  0  0  0  0  0  0  0  0  0  0  0
   38.8430   32.1890   47.4590 C   0  0  0  0  0  0  0  0  0  0  0  0
   37.7940   31.2850   47.5480 N   0  0  0  0  0  0  0  0  0  0  0  0
   36.9570   31.3230   48.5650 C   0  0  0  0  0  0  0  0  0  0  0  0
   37.0470   32.1970   49.5530 N   0  0  0  0  0  0  0  0  0  0  0  0
   38.1470   33.8500   50.3410 H   0  0  0  0  0  0  0  0  0  0  0  0
   39.7450   33.8770   48.5220 H   0  0  0  0  0  0  0  0  0  0  0  0
   35.8330   30.3630   48.6660 C   0  0  0  0  0  0  0  0  0  0  0  0
   34.9170   30.8650   49.0240 H   0  0  0  0  0  0  0  0  0  0  0  0
   35.5840   30.0570   47.6110 H   0  0  0  0  0  0  0  0  0  0  0  0
   36.2190   29.1770   49.5060 C   0  0  0  0  0  0  0  0  0  0  0  0
   36.9530   28.5940   48.8910 H   0  0  0  0  0  0  0  0  0  0  0  0
   36.6370   29.5340   50.4460 H   0  0  0  0  0  0  0  0  0  0  0  0
   34.9990   28.2960   49.7090 C   0  0  0  0  0  0  0  0  0  0  0  0
   34.3240   27.7400   48.5050 C   0  0  0  0  0  0  0  0  0  0  0  0
   33.6400   28.7440   49.3870 C   0  0  0  0  0  0  0  0  0  0  0  0
   39.8200   30.9250   45.5620 C   0  0  0  0  0  0  0  0  0  0  0  0
   39.2140   30.1390   46.0440 H   0  0  0  0  0  0  0  0  0  0  0  0
   40.8780   30.5300   45.6540 H   0  0  0  0  0  0  0  0  0  0  0  0
   39.5420   30.9700   44.1850 N   0  0  0  0  0  0  0  0  0  0  0  0
   40.3070   31.4300   43.1970 C   0  0  0  0  0  0  0  0  0  0  0  0
   39.9770   31.4400   41.8580 C   0  0  0  0  0  0  0  0  0  0  0  0
   38.7590   30.9380   41.4760 C   0  0  0  0  0  0  0  0  0  0  0  0
   38.3790   30.9060   40.2890 O   0  0  0  0  0  0  0  0  0  0  0  0
   37.9950   30.4810   42.4340 N   0  0  0  0  0  0  0  0  0  0  0  0
   38.3390   30.4850   43.7120 C   0  0  0  0  0  0  0  0  0  0  0  0
   37.5260   30.0180   44.5730 O   0  0  0  0  0  0  0  0  0  0  0  0
   41.2860   31.8350   43.4990 H   0  0  0  0  0  0  0  0  0  0  0  0
   40.6720   31.8400   41.1200 H   0  0  0  0  0  0  0  0  0  0  0  0
   36.6910   29.9390   42.0580 C   0  0  0  0  0  0  0  0  0  0  0  0
   36.2280   29.0710   43.0300 F   0  0  0  0  0  0  0  0  0  0  0  0
   36.8670   29.2240   40.8890 F   0  0  0  0  0  0  0  0  0  0  0  0
   35.8240   30.9790   41.8840 F   0  0  0  0  0  0  0  0  0  0  0  0
  1  3  1  0  0  0  0
  1  6  1  0  0  0  0
  2  1  1  0  0  0  0
  4  9  1  0  0  0  0
  4 10  1  0  0  0  0
  5 11  1  0  0  0  0
  5  4  2  0  0  0  0
  6  7  2  0  0  0  0
  6  5  1  0  0  0  0
  7  8  1  0  0  0  0
  8 12  1  0  0  0  0
  8  9  2  0  0  0  0
 12 13  1  0  0  0  0
 12 15  1  0  0  0  0
 14 12  1  0  0  0  0
 15 18  1  0  0  0  0
 15 17  1  0  0  0  0
 16 15  1  0  0  0  0
 19 20  1  0  0  0  0
 19 18  1  0  0  0  0
 20 18  1  0  0  0  0
 21 23  1  0  0  0  0
 21 22  1  0  0  0  0
 21  1  1  0  0  0  0
 24 21  1  0  0  0  0
 25 32  1  0  0  0  0
 25 24  1  0  0  0  0
 26 25  2  0  0  0  0
 27 26  1  0  0  0  0
 27 29  1  0  0  0  0
 28 27  2  0  0  0  0
 29 30  1  0  0  0  0
 30 24  1  0  0  0  0
 30 31  2  0  0  0  0
 33 26  1  0  0  0  0
 34 29  1  0  0  0  0
 34 35  1  0  0  0  0
 36 34  1  0  0  0  0
 37 34  1  0  0  0  0
M  END
>  <minimizedAffinity>
-5.39588881

>  <minimizedRMSD>
3.66595793

$$$$
