
 OpenBabel03252511573D

 34 37  0  0  0  0  0  0  0  0999 V2000
   36.3470   30.2850   47.6390 N   0  0  0  0  0  0  0  0  0  0  0  0
   35.0980   29.9650   47.2150 C   0  0  0  0  0  0  0  0  0  0  0  0
   34.7500   30.0670   45.8820 C   0  0  0  0  0  0  0  0  0  0  0  0
   35.7560   30.5070   45.0660 C   0  0  0  0  0  0  0  0  0  0  0  0
   35.4770   30.6150   43.8250 O   0  0  0  0  0  0  0  0  0  0  0  0
   37.0220   30.8420   45.4220 N   0  0  0  0  0  0  0  0  0  0  0  0
   37.2520   30.7030   46.7530 C   0  0  0  0  0  0  0  0  0  0  0  0
   38.3940   30.9890   47.1590 O   0  0  0  0  0  0  0  0  0  0  0  0
   34.3490   29.6230   47.9270 H   0  0  0  0  0  0  0  0  0  0  0  0
   33.7800   29.8310   45.4830 H   0  0  0  0  0  0  0  0  0  0  0  0
   37.0970   31.3520   49.5940 C   0  0  0  0  0  0  0  0  0  0  0  0
   36.6220   30.1580   48.9990 C   0  0  0  0  0  0  0  0  0  0  0  0
   36.4970   29.0330   49.8000 C   0  0  0  0  0  0  0  0  0  0  0  0
   36.8270   29.1030   51.1110 N   0  0  0  0  0  0  0  0  0  0  0  0
   37.2840   30.2620   51.6640 C   0  0  0  0  0  0  0  0  0  0  0  0
   37.4160   31.3870   50.8940 N   0  0  0  0  0  0  0  0  0  0  0  0
   37.2820   32.3570   49.2510 H   0  0  0  0  0  0  0  0  0  0  0  0
   36.1280   28.1650   49.2750 H   0  0  0  0  0  0  0  0  0  0  0  0
   37.4910   30.1190   52.7070 H   0  0  0  0  0  0  0  0  0  0  0  0
   37.9530   31.2830   44.4810 C   0  0  0  0  0  0  0  0  0  0  0  0
   38.3960   32.5550   44.2650 C   0  0  0  0  0  0  0  0  0  0  0  0
   39.3130   32.9040   43.3190 C   0  0  0  0  0  0  0  0  0  0  0  0
   39.8330   31.9090   42.5230 C   0  0  0  0  0  0  0  0  0  0  0  0
   39.3930   30.5920   42.7250 C   0  0  0  0  0  0  0  0  0  0  0  0
   38.4820   30.3310   43.6830 N   0  0  0  0  0  0  0  0  0  0  0  0
   37.9720   33.3250   44.9070 H   0  0  0  0  0  0  0  0  0  0  0  0
   39.6250   33.9260   43.1960 H   0  0  0  0  0  0  0  0  0  0  0  0
   40.5530   32.1600   41.7750 H   0  0  0  0  0  0  0  0  0  0  0  0
   39.9370   29.5000   41.8780 C   0  0  0  0  0  0  0  0  0  0  0  0
   39.1290   28.4220   41.4870 C   0  0  0  0  0  0  0  0  0  0  0  0
   40.2610   27.3910   40.4820 S   0  0  0  0  0  0  0  0  0  0  0  0
   41.6740   28.6300   40.7700 C   0  0  0  0  0  0  0  0  0  0  0  0
   42.8120   28.7320   40.4560 H   0  0  0  0  0  0  0  0  0  0  0  0
   41.1780   29.4110   41.4120 N   0  0  0  0  0  0  0  0  0  0  0  0
  1 12  1  0  0  0  0
  2  1  1  0  0  0  0
  2  9  1  0  0  0  0
  3  2  2  0  0  0  0
  4  6  1  0  0  0  0
  4  3  1  0  0  0  0
  5  4  2  0  0  0  0
  6  7  1  0  0  0  0
  7  8  2  0  0  0  0
  7  1  1  0  0  0  0
 10  3  1  0  0  0  0
 11 16  1  0  0  0  0
 12 11  2  0  0  0  0
 12 13  1  0  0  0  0
 13 14  2  0  0  0  0
 14 15  1  0  0  0  0
 15 19  1  0  0  0  0
 16 15  2  0  0  0  0
 17 11  1  0  0  0  0
 18 13  1  0  0  0  0
 20  6  1  0  0  0  0
 21 20  1  0  0  0  0
 21 26  1  0  0  0  0
 22 21  2  0  0  0  0
 23 24  2  0  0  0  0
 23 22  1  0  0  0  0
 24 25  1  0  0  0  0
 25 20  2  0  0  0  0
 27 22  1  0  0  0  0
 28 23  1  0  0  0  0
 29 24  1  0  0  0  0
 30 29  2  0  0  0  0
 31 32  1  0  0  0  0
 31 30  1  0  0  0  0
 32 34  2  0  0  0  0
 33 32  1  0  0  0  0
 34 29  1  0  0  0  0
M  END
>  <minimizedAffinity>
-5.43406296

>  <minimizedRMSD>
0.610657871

$$$$
