
 OpenBabel03252514023D

 32 35  0  0  1  0  0  0  0  0999 V2000
   35.4720   29.4300   49.0040 C   0  0  2  0  0  0  0  0  0  0  0  0
   34.3890   29.5990   49.9800 C   0  0  0  0  0  0  0  0  0  0  0  0
   34.6370   28.2400   49.5200 C   0  0  1  0  0  0  0  0  0  0  0  0
   35.3570   29.6880   47.9440 H   0  0  0  0  0  0  0  0  0  0  0  0
   33.4300   30.1140   49.6790 H   0  0  0  0  0  0  0  0  0  0  0  0
   34.6900   29.9210   51.0060 H   0  0  0  0  0  0  0  0  0  0  0  0
   35.2560   27.4610   49.9720 H   0  0  0  0  0  0  0  0  0  0  0  0
   36.9050   29.3780   49.5330 C   0  0  0  0  0  0  0  0  0  0  0  0
   36.8370   29.4330   50.6360 H   0  0  0  0  0  0  0  0  0  0  0  0
   37.3880   28.4310   49.2670 H   0  0  0  0  0  0  0  0  0  0  0  0
   38.3970   32.7210   49.3750 C   0  0  0  0  0  0  0  0  0  0  0  0
   38.9230   32.7680   48.0750 C   0  0  0  0  0  0  0  0  0  0  0  0
   38.7560   31.6370   47.2580 C   0  0  0  0  0  0  0  0  0  0  0  0
   38.0920   30.5530   47.7770 N   0  0  0  0  0  0  0  0  0  0  0  0
   37.6080   30.5570   49.0240 C   0  0  0  0  0  0  0  0  0  0  0  0
   37.7680   31.6470   49.8110 N   0  0  0  0  0  0  0  0  0  0  0  0
   38.5840   33.6420   49.9090 H   0  0  0  0  0  0  0  0  0  0  0  0
   39.4560   33.5760   47.5900 H   0  0  0  0  0  0  0  0  0  0  0  0
   39.1330   31.5910   46.2390 H   0  0  0  0  0  0  0  0  0  0  0  0
   33.5980   27.6800   48.5920 C   0  0  0  0  0  0  0  0  0  0  0  0
   34.0150   26.7220   47.8240 O   0  0  0  0  0  0  0  0  0  0  0  0
   32.2780   28.0850   48.5030 O   0  0  0  0  0  0  0  0  0  0  0  0
   31.5600   28.0670   47.3160 C   0  0  0  0  0  0  0  0  0  0  0  0
   30.5690   27.2090   46.8410 C   0  0  0  0  0  3  0  0  0  0  0  0
   30.1880   27.6240   45.6180 N   0  0  0  0  0  0  0  0  0  0  0  0
   30.9030   28.7210   45.2980 C   0  0  0  0  0  0  0  0  0  0  0  0
   30.8400   29.4850   44.1270 C   0  0  0  0  0  3  0  0  0  0  0  0
   31.6800   30.5840   44.0160 C   0  0  0  0  0  3  0  0  0  0  0  0
   32.5550   30.9020   45.0500 C   0  0  0  0  0  3  0  0  0  0  0  0
   32.5970   30.1320   46.1910 C   0  0  0  0  0  3  0  0  0  0  0  0
   31.7640   29.0220   46.3320 C   0  0  0  0  0  0  0  0  0  0  0  0
   29.4470   27.1360   45.0490 H   0  0  0  0  0  0  0  0  0  0  0  0
  1  4  1  6  0  0  0
  1  3  1  0  0  0  0
  1  8  1  0  0  0  0
  1  2  1  0  0  0  0
  2  6  1  0  0  0  0
  3  7  1  1  0  0  0
  3  2  1  0  0  0  0
  5  2  1  0  0  0  0
  8  9  1  0  0  0  0
 10  8  1  0  0  0  0
 11 16  1  0  0  0  0
 11 17  1  0  0  0  0
 12 11  2  0  0  0  0
 13 14  2  0  0  0  0
 13 12  1  0  0  0  0
 14 15  1  0  0  0  0
 15  8  1  0  0  0  0
 15 16  2  0  0  0  0
 18 12  1  0  0  0  0
 19 13  1  0  0  0  0
 20  3  1  0  0  0  0
 21 20  2  0  0  0  0
 22 20  1  0  0  0  0
 23 22  1  0  0  0  0
 24 23  2  0  0  0  0
 25 24  1  0  0  0  0
 26 25  1  0  0  0  0
 26 31  1  0  0  0  0
 27 26  2  0  0  0  0
 28 27  1  0  0  0  0
 28 29  2  0  0  0  0
 29 30  1  0  0  0  0
 30 31  2  0  0  0  0
 31 23  1  0  0  0  0
 32 25  1  0  0  0  0
M  END
>  <minimizedAffinity>
-5.15477657

>  <minimizedRMSD>
1.43787646

$$$$
