
 OpenBabel03252513483D

 22 23  0  0  0  0  0  0  0  0999 V2000
   36.8270   29.6810   48.9580 C   0  0  0  0  0  0  0  0  0  0  0  0
   37.8140   30.3340   48.1760 C   0  0  0  0  0  0  0  0  0  0  0  0
   37.4670   30.7780   46.9020 C   0  0  0  0  0  0  0  0  0  0  0  0
   36.1830   30.5450   46.5010 N   0  0  0  0  0  0  0  0  0  0  0  0
   35.2790   29.9290   47.2610 C   0  0  0  0  0  0  0  0  0  0  0  0
   35.6100   29.5090   48.4650 N   0  0  0  0  0  0  0  0  0  0  0  0
   38.7900   30.4750   48.5640 H   0  0  0  0  0  0  0  0  0  0  0  0
   38.4580   31.4660   46.0410 C   0  0  0  0  0  0  0  0  0  0  0  0
   39.7980   31.2420   46.1760 C   0  0  0  0  0  0  0  0  0  0  0  0
   40.5480   32.3150   44.9030 S   0  0  0  0  0  0  0  0  0  0  0  0
   38.8200   32.9130   44.3820 C   0  0  0  0  0  0  0  0  0  0  0  0
   38.4750   33.6500   43.5790 H   0  0  0  0  0  0  0  0  0  0  0  0
   38.1350   32.3350   45.0910 N   0  0  0  0  0  0  0  0  0  0  0  0
   33.9280   29.7690   46.6420 C   0  0  0  0  0  0  0  0  0  0  0  0
   33.1770   30.9350   46.8260 F   0  0  0  0  0  0  0  0  0  0  0  0
   34.0480   29.5990   45.2890 F   0  0  0  0  0  0  0  0  0  0  0  0
   33.2550   28.6620   47.1450 F   0  0  0  0  0  0  0  0  0  0  0  0
   37.2110   29.2580   50.2110 O   0  0  0  0  0  0  0  0  0  0  0  0
   36.9640   29.9140   51.4040 C   0  0  0  0  0  0  0  0  0  0  0  0
   37.8750   29.5950   52.4000 F   0  0  0  0  0  0  0  0  0  0  0  0
   36.8720   31.2850   51.2910 F   0  0  0  0  0  0  0  0  0  0  0  0
   35.7160   29.4700   51.8500 F   0  0  0  0  0  0  0  0  0  0  0  0
  1 18  1  0  0  0  0
  2  7  1  0  0  0  0
  2  1  2  0  0  0  0
  3  2  1  0  0  0  0
  4  3  2  0  0  0  0
  4  5  1  0  0  0  0
  5  6  2  0  0  0  0
  6  1  1  0  0  0  0
  8  9  2  0  0  0  0
  8  3  1  0  0  0  0
 10  9  1  0  0  0  0
 11 10  1  0  0  0  0
 11 13  2  0  0  0  0
 12 11  1  0  0  0  0
 13  8  1  0  0  0  0
 14 15  1  0  0  0  0
 14 17  1  0  0  0  0
 14  5  1  0  0  0  0
 16 14  1  0  0  0  0
 18 19  1  0  0  0  0
 19 22  1  0  0  0  0
 19 20  1  0  0  0  0
 21 19  1  0  0  0  0
M  END
>  <minimizedAffinity>
-5.70778036

>  <minimizedRMSD>
4.70634985

$$$$
