
 OpenBabel03252514023D

 32 35  0  0  1  0  0  0  0  0999 V2000
   35.1550   29.2620   48.9490 C   0  0  2  0  0  0  0  0  0  0  0  0
   34.0190   29.1880   49.8760 C   0  0  0  0  0  0  0  0  0  0  0  0
   34.4050   27.9430   49.2270 C   0  0  1  0  0  0  0  0  0  0  0  0
   35.0650   29.6750   47.9360 H   0  0  0  0  0  0  0  0  0  0  0  0
   33.0330   29.6670   49.6040 H   0  0  0  0  0  0  0  0  0  0  0  0
   34.2460   29.3670   50.9550 H   0  0  0  0  0  0  0  0  0  0  0  0
   35.0700   27.1540   49.5890 H   0  0  0  0  0  0  0  0  0  0  0  0
   36.5630   29.2410   49.5450 C   0  0  0  0  0  0  0  0  0  0  0  0
   36.4400   29.2140   50.6440 H   0  0  0  0  0  0  0  0  0  0  0  0
   37.1050   28.3390   49.2390 H   0  0  0  0  0  0  0  0  0  0  0  0
   37.6360   32.7450   49.5490 C   0  0  0  0  0  0  0  0  0  0  0  0
   38.4710   32.8180   48.4240 C   0  0  0  0  0  0  0  0  0  0  0  0
   38.6580   31.6480   47.6680 C   0  0  0  0  0  0  0  0  0  0  0  0
   38.0160   30.5040   48.0730 N   0  0  0  0  0  0  0  0  0  0  0  0
   37.2280   30.4850   49.1540 C   0  0  0  0  0  0  0  0  0  0  0  0
   37.0480   31.6120   49.8820 N   0  0  0  0  0  0  0  0  0  0  0  0
   37.5660   33.7000   50.0510 H   0  0  0  0  0  0  0  0  0  0  0  0
   39.0120   33.6720   48.0370 H   0  0  0  0  0  0  0  0  0  0  0  0
   39.2900   31.6180   46.7830 H   0  0  0  0  0  0  0  0  0  0  0  0
   33.4610   27.4570   48.1660 C   0  0  0  0  0  0  0  0  0  0  0  0
   33.9360   27.4880   46.9600 O   0  0  0  0  0  0  0  0  0  0  0  0
   32.1760   26.9860   48.3690 O   0  0  0  0  0  0  0  0  0  0  0  0
   31.0440   27.7580   48.1530 C   0  0  0  0  0  0  0  0  0  0  0  0
   30.7080   28.6530   47.1380 C   0  0  0  0  0  0  0  0  0  0  0  0
   29.4820   29.1510   47.3880 N   0  0  0  0  0  0  0  0  0  0  0  0
   29.0240   28.6000   48.5320 C   0  0  0  0  0  0  0  0  0  0  0  0
   27.7990   28.8250   49.1710 C   0  0  0  0  0  0  0  0  0  0  0  0
   27.5410   28.1410   50.3500 C   0  0  0  0  0  0  0  0  0  0  0  0
   28.4860   27.2600   50.8680 C   0  0  0  0  0  0  0  0  0  0  0  0
   29.6840   27.0580   50.2180 C   0  0  0  0  0  0  0  0  0  0  0  0
   29.9710   27.7310   49.0310 C   0  0  0  0  0  0  0  0  0  0  0  0
   29.0060   29.8500   46.7620 H   0  0  0  0  0  0  0  0  0  0  0  0
  1  4  1  6  0  0  0
  1  3  1  0  0  0  0
  1  8  1  0  0  0  0
  1  2  1  0  0  0  0
  2  6  1  0  0  0  0
  3  7  1  1  0  0  0
  3  2  1  0  0  0  0
  5  2  1  0  0  0  0
  8  9  1  0  0  0  0
 10  8  1  0  0  0  0
 11 16  1  0  0  0  0
 11 17  1  0  0  0  0
 12 11  2  0  0  0  0
 13 14  2  0  0  0  0
 13 12  1  0  0  0  0
 14 15  1  0  0  0  0
 15  8  1  0  0  0  0
 15 16  2  0  0  0  0
 18 12  1  0  0  0  0
 19 13  1  0  0  0  0
 20 22  1  0  0  0  0
 20  3  1  0  0  0  0
 21 20  2  0  0  0  0
 23 22  1  0  0  0  0
 23 31  1  0  0  0  0
 24 25  1  0  0  0  0
 24 23  2  0  0  0  0
 25 26  1  0  0  0  0
 26 31  2  0  0  0  0
 26 27  1  0  0  0  0
 27 28  2  0  0  0  0
 28 29  1  0  0  0  0
 30 29  2  0  0  0  0
 31 30  1  0  0  0  0
 32 25  1  0  0  0  0
M  END
>  <minimizedAffinity>
-6.45704985

>  <minimizedRMSD>
2.16743684

$$$$
