
 OpenBabel03252513453D

 19 20  0  0  0  0  0  0  0  0999 V2000
   37.5280   30.3960   49.0540 C   0  0  0  0  0  0  0  0  0  0  0  0
   37.6870   31.4440   49.9880 C   0  0  0  0  0  0  0  0  0  0  0  0
   38.3940   32.5850   49.5940 C   0  0  0  0  0  0  0  0  0  0  0  0
   38.9000   32.6280   48.3170 N   0  0  0  0  0  0  0  0  0  0  0  0
   38.7100   31.5900   47.4750 C   0  0  0  0  0  0  0  0  0  0  0  0
   38.0420   30.4980   47.8240 N   0  0  0  0  0  0  0  0  0  0  0  0
   37.2910   31.4190   51.0010 H   0  0  0  0  0  0  0  0  0  0  0  0
   38.5720   33.4380   50.2280 H   0  0  0  0  0  0  0  0  0  0  0  0
   39.2860   31.7170   46.1190 C   0  0  0  0  0  0  0  0  0  0  0  0
   39.4830   30.5690   45.3350 C   0  0  0  0  0  0  0  0  0  0  0  0
   40.2150   31.3580   43.7800 S   0  0  0  0  0  0  0  0  0  0  0  0
   40.0840   33.0900   44.5560 C   0  0  0  0  0  0  0  0  0  0  0  0
   40.3810   34.0750   44.1030 H   0  0  0  0  0  0  0  0  0  0  0  0
   39.6410   32.8890   45.5750 N   0  0  0  0  0  0  0  0  0  0  0  0
   36.8310   29.2990   49.4760 O   0  0  0  0  0  0  0  0  0  0  0  0
   35.5930   29.3220   50.1240 C   0  0  0  0  0  0  0  0  0  0  0  0
   35.6790   29.3140   51.5010 F   0  0  0  0  0  0  0  0  0  0  0  0
   34.7720   30.3410   49.7020 F   0  0  0  0  0  0  0  0  0  0  0  0
   34.9440   28.1290   49.7560 F   0  0  0  0  0  0  0  0  0  0  0  0
  1 15  1  0  0  0  0
  1  2  1  0  0  0  0
  2  7  1  0  0  0  0
  3  2  2  0  0  0  0
  3  8  1  0  0  0  0
  4  3  1  0  0  0  0
  5  6  1  0  0  0  0
  5  4  2  0  0  0  0
  6  1  2  0  0  0  0
  9  5  1  0  0  0  0
 10  9  2  0  0  0  0
 11 12  1  0  0  0  0
 11 10  1  0  0  0  0
 12 14  2  0  0  0  0
 13 12  1  0  0  0  0
 14  9  1  0  0  0  0
 15 16  1  0  0  0  0
 16 17  1  0  0  0  0
 18 16  1  0  0  0  0
 19 16  1  0  0  0  0
M  END
>  <minimizedAffinity>
-5.58625603

>  <minimizedRMSD>
1.3488853

$$$$
