
 OpenBabel03252514013D

 32 35  0  0  1  0  0  0  0  0999 V2000
   35.2860   29.4050   49.0150 C   0  0  2  0  0  0  0  0  0  0  0  0
   34.2390   29.4240   50.0450 C   0  0  0  0  0  0  0  0  0  0  0  0
   34.4780   28.1450   49.3850 C   0  0  1  0  0  0  0  0  0  0  0  0
   35.1240   29.8370   48.0350 H   0  0  0  0  0  0  0  0  0  0  0  0
   33.2790   29.9840   49.8700 H   0  0  0  0  0  0  0  0  0  0  0  0
   34.5120   29.4760   51.1340 H   0  0  0  0  0  0  0  0  0  0  0  0
   35.1270   27.3090   49.6670 H   0  0  0  0  0  0  0  0  0  0  0  0
   36.7350   29.3110   49.4930 C   0  0  0  0  0  0  0  0  0  0  0  0
   36.7090   29.3030   50.5940 H   0  0  0  0  0  0  0  0  0  0  0  0
   37.2170   28.3840   49.1240 H   0  0  0  0  0  0  0  0  0  0  0  0
   38.0470   32.7340   49.4250 C   0  0  0  0  0  0  0  0  0  0  0  0
   38.7310   32.7740   48.2000 C   0  0  0  0  0  0  0  0  0  0  0  0
   38.7370   31.6190   47.4050 C   0  0  0  0  0  0  0  0  0  0  0  0
   38.0690   30.5100   47.8730 N   0  0  0  0  0  0  0  0  0  0  0  0
   37.4310   30.5180   49.0450 C   0  0  0  0  0  0  0  0  0  0  0  0
   37.4270   31.6340   49.8120 N   0  0  0  0  0  0  0  0  0  0  0  0
   37.9990   33.5780   50.0850 H   0  0  0  0  0  0  0  0  0  0  0  0
   39.2210   33.7020   47.9330 H   0  0  0  0  0  0  0  0  0  0  0  0
   39.2570   31.6560   46.4800 H   0  0  0  0  0  0  0  0  0  0  0  0
   33.4070   27.7140   48.4230 C   0  0  0  0  0  0  0  0  0  0  0  0
   33.6450   26.5890   47.8300 O   0  0  0  0  0  0  0  0  0  0  0  0
   32.2350   28.3960   48.1470 O   0  0  0  0  0  0  0  0  0  0  0  0
   31.1640   27.8510   47.5040 C   0  0  0  0  0  0  0  0  0  0  0  0
   31.0770   27.6040   46.1390 C   0  0  0  0  0  3  0  0  0  0  0  0
   29.9070   27.0400   45.6230 C   0  0  0  0  0  3  0  0  0  0  0  0
   28.8460   26.7290   46.4520 C   0  0  0  0  0  3  0  0  0  0  0  0
   28.9180   26.9710   47.8170 C   0  0  0  0  0  0  0  0  0  0  0  0
   27.8430   26.6490   48.6050 C   0  0  0  0  0  3  0  0  0  0  0  0
   27.9090   26.8890   49.9790 C   0  0  0  0  0  3  0  0  0  0  0  0
   29.0600   27.4510   50.5310 C   0  0  0  0  0  3  0  0  0  0  0  0
   30.1000   27.7500   49.6840 C   0  0  0  0  0  3  0  0  0  0  0  0
   30.0790   27.5290   48.3140 C   0  0  0  0  0  0  0  0  0  0  0  0
  1  4  1  6  0  0  0
  1  3  1  0  0  0  0
  1  8  1  0  0  0  0
  1  2  1  0  0  0  0
  2  6  1  0  0  0  0
  3  7  1  1  0  0  0
  3  2  1  0  0  0  0
  5  2  1  0  0  0  0
  8  9  1  0  0  0  0
 10  8  1  0  0  0  0
 11 16  1  0  0  0  0
 11 17  1  0  0  0  0
 12 11  2  0  0  0  0
 13 14  2  0  0  0  0
 13 12  1  0  0  0  0
 14 15  1  0  0  0  0
 15  8  1  0  0  0  0
 15 16  2  0  0  0  0
 18 12  1  0  0  0  0
 19 13  1  0  0  0  0
 20  3  1  0  0  0  0
 21 20  2  0  0  0  0
 22 20  1  0  0  0  0
 23 22  1  0  0  0  0
 23 32  1  0  0  0  0
 24 23  2  0  0  0  0
 25 24  1  0  0  0  0
 25 26  2  0  0  0  0
 26 27  1  0  0  0  0
 27 32  2  0  0  0  0
 27 28  1  0  0  0  0
 28 29  2  0  0  0  0
 29 30  1  0  0  0  0
 31 30  2  0  0  0  0
 32 31  1  0  0  0  0
M  END
>  <minimizedAffinity>
-6.17350006

>  <minimizedRMSD>
0.910569966

$$$$
