
 OpenBabel03252511213D

 40 43  0  0  1  0  0  0  0  0999 V2000
   38.6860   31.7900   48.1700 C   0  0  1  0  0  0  0  0  0  0  0  0
   39.7560   31.6840   48.6210 H   0  0  0  0  0  0  0  0  0  0  0  0
   37.8760   31.0510   49.1260 C   0  0  0  0  0  0  0  0  0  0  0  0
   38.3160   30.8800   50.3660 N   0  0  0  0  0  0  0  0  0  0  0  0
   37.6260   30.1970   51.2950 C   0  0  0  0  0  0  0  0  0  0  0  0
   36.4480   29.6350   51.0520 N   0  0  0  0  0  0  0  0  0  0  0  0
   35.8850   29.7340   49.8380 C   0  0  0  0  0  0  0  0  0  0  0  0
   34.6830   29.1610   49.5450 C   0  0  0  0  0  0  0  0  0  0  0  0
   34.1270   29.2560   48.3150 C   0  0  0  0  0  0  0  0  0  0  0  0
   34.8450   29.9700   47.3660 C   0  0  0  0  0  0  0  0  0  0  0  0
   36.0540   30.5350   47.6980 C   0  0  0  0  0  0  0  0  0  0  0  0
   36.6270   30.4470   48.9140 C   0  0  0  0  0  0  0  0  0  0  0  0
   38.0400   30.0850   52.3170 H   0  0  0  0  0  0  0  0  0  0  0  0
   34.1640   28.6150   50.3260 H   0  0  0  0  0  0  0  0  0  0  0  0
   33.1790   28.7940   48.1090 H   0  0  0  0  0  0  0  0  0  0  0  0
   34.4430   30.0790   46.3640 H   0  0  0  0  0  0  0  0  0  0  0  0
   36.5370   31.1140   46.9250 H   0  0  0  0  0  0  0  0  0  0  0  0
   39.0410   31.5570   46.8030 C   0  0  0  0  0  0  0  0  0  0  0  0
   39.8170   32.6390   46.3100 C   0  0  0  0  0  0  0  0  0  0  0  0
   40.3690   32.5620   44.9880 C   0  0  0  0  0  0  0  0  0  0  0  0
   40.1000   31.4490   44.3110 N   0  0  0  0  0  0  0  0  0  0  0  0
   39.3490   30.4320   44.8200 C   0  0  0  0  0  0  0  0  0  0  0  0
   38.8410   30.4960   46.0310 N   0  0  0  0  0  0  0  0  0  0  0  0
   40.1630   33.5890   46.6630 H   0  0  0  0  0  0  0  0  0  0  0  0
   40.9580   33.2710   44.4840 H   0  0  0  0  0  0  0  0  0  0  0  0
   39.0330   29.2110   44.0150 C   0  0  0  0  0  0  0  0  0  0  0  0
   39.8450   29.0010   43.2980 H   0  0  0  0  0  0  0  0  0  0  0  0
   38.9170   28.3530   44.6770 H   0  0  0  0  0  0  0  0  0  0  0  0
   37.7340   29.5510   43.2790 C   0  0  0  0  0  0  0  0  0  0  0  0
   38.0670   30.3080   42.0190 C   0  0  0  0  0  0  0  0  0  0  0  0
   36.8220   31.0460   41.5560 C   0  0  0  0  0  0  0  0  0  0  0  0
   35.5750   30.2820   41.9450 C   0  0  0  0  0  0  0  0  0  0  0  0
   35.4480   30.3690   43.4490 C   0  0  0  0  0  0  0  0  0  0  0  0
   36.8090   30.3770   44.1290 C   0  0  0  0  0  0  0  0  0  0  0  0
   38.4150   33.0900   48.5600 O   0  0  0  0  0  0  0  0  0  0  0  0
   39.2470   34.0260   49.1350 C   0  0  0  0  0  0  0  0  0  0  0  0
   39.7310   35.1890   48.3920 N   0  0  0  0  0  0  0  0  0  0  0  0
   39.6290   33.9230   50.3270 O   0  0  0  0  0  0  0  0  0  0  0  0
   40.7620   35.2710   48.1760 H   0  0  0  0  0  0  0  0  0  0  0  0
   38.8880   35.7970   48.1840 H   0  0  0  0  0  0  0  0  0  0  0  0
  1 35  1  0  0  0  0
  1  2  1  1  0  0  0
  1  3  1  0  0  0  0
  3  4  1  0  0  0  0
  4  5  2  0  0  0  0
  5 13  1  0  0  0  0
  6  5  1  0  0  0  0
  7  6  2  0  0  0  0
  8  7  1  0  0  0  0
  8 14  1  0  0  0  0
  9  8  2  0  0  0  0
 10 11  2  0  0  0  0
 10  9  1  0  0  0  0
 11 12  1  0  0  0  0
 12  3  2  0  0  0  0
 12  7  1  0  0  0  0
 15  9  1  0  0  0  0
 16 10  1  0  0  0  0
 17 11  1  0  0  0  0
 18  1  1  0  0  0  0
 19 24  1  0  0  0  0
 19 18  1  0  0  0  0
 20 19  2  0  0  0  0
 21 22  2  0  0  0  0
 21 20  1  0  0  0  0
 22 23  1  0  0  0  0
 23 18  2  0  0  0  0
 25 20  1  0  0  0  0
 26 28  1  0  0  0  0
 26 22  1  0  0  0  0
 27 26  1  0  0  0  0
 29 26  1  0  0  0  0
 29 34  1  0  0  0  0
 30 29  1  0  0  0  0
 31 32  1  0  0  0  0
 31 30  1  0  0  0  0
 32 33  1  0  0  0  0
 33 34  1  0  0  0  0
 35 36  1  0  0  0  0
 36 38  2  0  0  0  0
 37 36  1  0  0  0  0
 39 37  1  0  0  0  0
 40 37  1  0  0  0  0
M  END
>  <minimizedAffinity>
-6.99912643

>  <minimizedRMSD>
0.160580054

$$$$
