
 OpenBabel03252511433D

 31 34  0  0  0  0  0  0  0  0999 V2000
   37.0410   31.2370   48.1310 C   0  0  0  0  0  0  0  0  0  0  0  0
   36.9580   31.8090   49.3940 C   0  0  0  0  0  0  0  0  0  0  0  0
   37.8570   32.7970   49.8040 C   0  0  0  0  0  0  0  0  0  0  0  0
   38.8520   33.2170   48.9390 C   0  0  0  0  0  0  0  0  0  0  0  0
   38.9290   32.6430   47.6810 C   0  0  0  0  0  0  0  0  0  0  0  0
   39.8890   33.0040   46.7580 C   0  0  0  0  0  0  0  0  0  0  0  0
   39.9040   32.3820   45.5090 C   0  0  0  0  0  0  0  0  0  0  0  0
   38.9930   31.4110   45.1470 C   0  0  0  0  0  0  0  0  0  0  0  0
   38.0390   31.0580   46.0760 C   0  0  0  0  0  0  0  0  0  0  0  0
   38.0400   31.6770   47.2950 C   0  0  0  0  0  0  0  0  0  0  0  0
   36.2320   31.5700   50.1610 H   0  0  0  0  0  0  0  0  0  0  0  0
   37.8180   33.2600   50.7800 H   0  0  0  0  0  0  0  0  0  0  0  0
   39.5630   33.9670   49.2020 H   0  0  0  0  0  0  0  0  0  0  0  0
   40.6200   33.7560   46.9950 H   0  0  0  0  0  0  0  0  0  0  0  0
   40.6370   32.6270   44.7420 H   0  0  0  0  0  0  0  0  0  0  0  0
   39.0220   30.9380   44.1660 H   0  0  0  0  0  0  0  0  0  0  0  0
   37.3140   30.2830   45.7840 H   0  0  0  0  0  0  0  0  0  0  0  0
   35.1090   30.1100   46.8910 C   0  0  0  0  0  0  0  0  0  0  0  0
   36.0180   30.2450   47.9330 C   0  0  0  0  0  0  0  0  0  0  0  0
   35.9060   29.2590   48.9560 C   0  0  0  0  0  0  0  0  0  0  0  0
   34.9570   28.2860   48.8570 N   0  0  0  0  0  0  0  0  0  0  0  0
   34.1170   28.2220   47.8220 C   0  0  0  0  0  0  0  0  0  0  0  0
   34.2020   29.1440   46.8370 N   0  0  0  0  0  0  0  0  0  0  0  0
   35.2190   30.8690   46.1330 H   0  0  0  0  0  0  0  0  0  0  0  0
   36.5560   29.2420   49.8350 H   0  0  0  0  0  0  0  0  0  0  0  0
   33.1570   27.1210   47.8630 C   0  0  0  0  0  0  0  0  0  0  0  0
   33.2880   25.8110   47.4550 C   0  0  0  0  0  0  0  0  0  0  0  0
   32.0600   25.1960   47.7240 C   0  0  0  0  0  0  0  0  0  0  0  0
   31.2620   26.1790   48.2790 C   0  0  0  0  0  0  0  0  0  0  0  0
   30.2500   25.9370   48.5750 H   0  0  0  0  0  0  0  0  0  0  0  0
   31.9400   27.3030   48.3470 O   0  0  0  0  0  0  0  0  0  0  0  0
  1  2  1  0  0  0  0
  2  3  2  0  0  0  0
  2 11  1  0  0  0  0
  3 12  1  0  0  0  0
  4 13  1  0  0  0  0
  4  3  1  0  0  0  0
  5  4  2  0  0  0  0
  6 14  1  0  0  0  0
  6  5  1  0  0  0  0
  7  6  2  0  0  0  0
  8  7  1  0  0  0  0
  8  9  2  0  0  0  0
  9 10  1  0  0  0  0
 10  5  1  0  0  0  0
 10  1  2  0  0  0  0
 15  7  1  0  0  0  0
 16  8  1  0  0  0  0
 17  9  1  0  0  0  0
 18 19  1  0  0  0  0
 19  1  1  0  0  0  0
 19 20  2  0  0  0  0
 20 25  1  0  0  0  0
 21 20  1  0  0  0  0
 22 26  1  0  0  0  0
 22 21  2  0  0  0  0
 23 18  2  0  0  0  0
 23 22  1  0  0  0  0
 24 18  1  0  0  0  0
 26 31  1  0  0  0  0
 27 28  1  0  0  0  0
 27 26  2  0  0  0  0
 28 29  2  0  0  0  0
 29 31  1  0  0  0  0
 29 30  1  0  0  0  0
M  END
>  <minimizedAffinity>
-6.58491039

>  <minimizedRMSD>
3.24647522

$$$$
