
 OpenBabel03252514023D

 32 35  0  0  1  0  0  0  0  0999 V2000
   35.2600   29.2310   48.9270 C   0  0  2  0  0  0  0  0  0  0  0  0
   34.1080   29.2690   49.8380 C   0  0  0  0  0  0  0  0  0  0  0  0
   34.4870   27.9570   49.3240 C   0  0  1  0  0  0  0  0  0  0  0  0
   35.1810   29.5680   47.9000 H   0  0  0  0  0  0  0  0  0  0  0  0
   33.1440   29.7500   49.5150 H   0  0  0  0  0  0  0  0  0  0  0  0
   34.2600   29.4300   50.9400 H   0  0  0  0  0  0  0  0  0  0  0  0
   35.1460   27.1910   49.7450 H   0  0  0  0  0  0  0  0  0  0  0  0
   36.6520   29.2700   49.5570 C   0  0  0  0  0  0  0  0  0  0  0  0
   36.5090   29.2960   50.6490 H   0  0  0  0  0  0  0  0  0  0  0  0
   37.2400   28.3740   49.2800 H   0  0  0  0  0  0  0  0  0  0  0  0
   37.7150   32.7790   49.4960 C   0  0  0  0  0  0  0  0  0  0  0  0
   38.5030   32.8380   48.3360 C   0  0  0  0  0  0  0  0  0  0  0  0
   38.6670   31.6670   47.5830 C   0  0  0  0  0  0  0  0  0  0  0  0
   38.0400   30.5230   48.0250 N   0  0  0  0  0  0  0  0  0  0  0  0
   37.2980   30.5140   49.1340 C   0  0  0  0  0  0  0  0  0  0  0  0
   37.1430   31.6450   49.8610 N   0  0  0  0  0  0  0  0  0  0  0  0
   37.5460   33.6330   50.1200 H   0  0  0  0  0  0  0  0  0  0  0  0
   38.9480   33.7920   48.0850 H   0  0  0  0  0  0  0  0  0  0  0  0
   39.2650   31.7180   46.7080 H   0  0  0  0  0  0  0  0  0  0  0  0
   33.5510   27.3790   48.3000 C   0  0  0  0  0  0  0  0  0  0  0  0
   34.1370   26.7140   47.3590 O   0  0  0  0  0  0  0  0  0  0  0  0
   32.1720   27.4930   48.2990 O   0  0  0  0  0  0  0  0  0  0  0  0
   31.4680   28.2860   47.4420 C   0  0  0  0  0  0  0  0  0  0  0  0
   32.0150   29.2010   46.5480 C   0  0  0  0  0  3  0  0  0  0  0  0
   31.1610   29.9450   45.7300 C   0  0  0  0  0  3  0  0  0  0  0  0
   29.7910   29.7800   45.8010 C   0  0  0  0  0  3  0  0  0  0  0  0
   29.2300   28.8700   46.6870 C   0  0  0  0  0  0  0  0  0  0  0  0
   27.8670   28.7360   46.7270 C   0  0  0  0  0  3  0  0  0  0  0  0
   27.2960   27.8230   47.6160 C   0  0  0  0  0  3  0  0  0  0  0  0
   28.1170   27.0620   48.4500 C   0  0  0  0  0  3  0  0  0  0  0  0
   29.4740   27.2470   48.3590 C   0  0  0  0  0  3  0  0  0  0  0  0
   30.0850   28.1400   47.4910 C   0  0  0  0  0  0  0  0  0  0  0  0
  1  4  1  6  0  0  0
  1  3  1  0  0  0  0
  1  8  1  0  0  0  0
  1  2  1  0  0  0  0
  2  6  1  0  0  0  0
  3  7  1  1  0  0  0
  3  2  1  0  0  0  0
  5  2  1  0  0  0  0
  8  9  1  0  0  0  0
 10  8  1  0  0  0  0
 11 16  1  0  0  0  0
 11 17  1  0  0  0  0
 12 11  2  0  0  0  0
 13 14  2  0  0  0  0
 13 12  1  0  0  0  0
 14 15  1  0  0  0  0
 15  8  1  0  0  0  0
 15 16  2  0  0  0  0
 18 12  1  0  0  0  0
 19 13  1  0  0  0  0
 20  3  1  0  0  0  0
 21 20  2  0  0  0  0
 22 20  1  0  0  0  0
 23 32  1  0  0  0  0
 23 22  1  0  0  0  0
 24 23  2  0  0  0  0
 25 26  2  0  0  0  0
 25 24  1  0  0  0  0
 26 27  1  0  0  0  0
 27 28  2  0  0  0  0
 27 32  1  0  0  0  0
 28 29  1  0  0  0  0
 29 30  2  0  0  0  0
 31 30  1  0  0  0  0
 32 31  2  0  0  0  0
M  END
>  <minimizedAffinity>
-5.71512794

>  <minimizedRMSD>
1.95851648

$$$$
