
 OpenBabel03252513543D

 18 19  0  0  0  0  0  0  0  0999 V2000
   37.2640   30.2250   51.4280 C   0  0  0  0  0  0  0  0  0  0  0  0
   38.1240   30.8890   50.5420 C   0  0  0  0  0  0  0  0  0  0  0  0
   38.0060   30.6480   49.1700 C   0  0  0  0  0  0  0  0  0  0  0  0
   37.0420   29.7670   48.7780 N   0  0  0  0  0  0  0  0  0  0  0  0
   36.2260   29.1380   49.6320 C   0  0  0  0  0  0  0  0  0  0  0  0
   36.3500   29.3780   50.9590 N   0  0  0  0  0  0  0  0  0  0  0  0
   37.3620   30.4150   52.4740 H   0  0  0  0  0  0  0  0  0  0  0  0
   38.8810   31.5890   50.9150 H   0  0  0  0  0  0  0  0  0  0  0  0
   38.6490   31.1420   48.4630 H   0  0  0  0  0  0  0  0  0  0  0  0
   35.2030   28.1950   49.1350 C   0  0  0  0  0  0  0  0  0  0  0  0
   35.5630   27.8130   48.1470 H   0  0  0  0  0  0  0  0  0  0  0  0
   35.0610   27.3580   49.8480 H   0  0  0  0  0  0  0  0  0  0  0  0
   33.9290   28.9620   48.8720 C   0  0  0  0  0  3  0  0  0  0  0  0
   34.0480   29.7960   47.6360 C   0  0  0  0  0  2  0  0  0  0  0  0
   33.6350   29.1060   46.3740 C   0  0  0  0  0  2  0  0  0  0  0  0
   32.5640   28.0660   46.5280 C   0  0  0  0  0  2  0  0  0  0  0  0
   32.7810   27.1600   47.7250 C   0  0  0  0  0  2  0  0  0  0  0  0
   32.7370   28.0790   48.9190 C   0  0  0  0  0  2  0  0  0  0  0  0
  1  7  1  0  0  0  0
  2  8  1  0  0  0  0
  2  1  2  0  0  0  0
  3  2  1  0  0  0  0
  4  3  2  0  0  0  0
  4  5  1  0  0  0  0
  5  6  2  0  0  0  0
  6  1  1  0  0  0  0
  9  3  1  0  0  0  0
 10  5  1  0  0  0  0
 10 12  1  0  0  0  0
 11 10  1  0  0  0  0
 13 18  1  0  0  0  0
 13 10  1  0  0  0  0
 14 13  1  0  0  0  0
 15 16  1  0  0  0  0
 15 14  1  0  0  0  0
 16 17  1  0  0  0  0
 17 18  1  0  0  0  0
M  END
>  <minimizedAffinity>
-4.27112436

>  <minimizedRMSD>
1.86701274

$$$$
