
 OpenBabel03252514043D

 35 38  0  0  1  0  0  0  0  0999 V2000
   35.2480   29.1950   48.6010 C   0  0  2  0  0  0  0  0  0  0  0  0
   34.0310   29.3210   49.3960 C   0  0  0  0  0  0  0  0  0  0  0  0
   34.3850   27.9740   49.0610 C   0  0  1  0  0  0  0  0  0  0  0  0
   35.2350   29.4450   47.5450 H   0  0  0  0  0  0  0  0  0  0  0  0
   33.1220   29.8040   48.9300 H   0  0  0  0  0  0  0  0  0  0  0  0
   34.1490   29.6950   50.4410 H   0  0  0  0  0  0  0  0  0  0  0  0
   34.9420   27.2830   49.6940 H   0  0  0  0  0  0  0  0  0  0  0  0
   36.5730   29.2340   49.3800 C   0  0  0  0  0  0  0  0  0  0  0  0
   37.1850   28.3250   49.1440 H   0  0  0  0  0  0  0  0  0  0  0  0
   36.3520   29.2020   50.4600 H   0  0  0  0  0  0  0  0  0  0  0  0
   37.6250   32.7260   49.5640 C   0  0  0  0  0  0  0  0  0  0  0  0
   38.4940   32.8470   48.4650 C   0  0  0  0  0  0  0  0  0  0  0  0
   38.7030   31.6970   47.6670 C   0  0  0  0  0  0  0  0  0  0  0  0
   38.0510   30.5420   48.0110 N   0  0  0  0  0  0  0  0  0  0  0  0
   37.2380   30.4870   49.0660 C   0  0  0  0  0  0  0  0  0  0  0  0
   37.0330   31.5890   49.8360 N   0  0  0  0  0  0  0  0  0  0  0  0
   37.5300   33.6550   50.1120 H   0  0  0  0  0  0  0  0  0  0  0  0
   39.0450   33.7240   48.1300 H   0  0  0  0  0  0  0  0  0  0  0  0
   39.3480   31.6650   46.7950 H   0  0  0  0  0  0  0  0  0  0  0  0
   33.5390   27.3230   47.9840 C   0  0  0  0  0  0  0  0  0  0  0  0
   33.8760   26.0930   47.7570 O   0  0  0  0  0  0  0  0  0  0  0  0
   32.4930   27.9200   47.2800 O   0  0  0  0  0  0  0  0  0  0  0  0
   31.2370   28.0770   47.8060 C   0  0  0  0  0  0  0  0  0  0  0  0
   30.7950   27.5930   49.1350 C   0  0  0  0  0  0  0  0  0  0  0  0
   29.5200   27.8320   49.5000 C   0  0  0  0  0  0  0  0  0  0  0  0
   28.6200   28.5160   48.6640 C   0  0  0  0  0  0  0  0  0  0  0  0
   29.6490   28.8900   47.1620 S   0  0  0  0  0  0  0  0  0  0  0  0
   31.5290   27.0790   49.7260 H   0  0  0  0  0  0  0  0  0  0  0  0
   29.1230   27.5120   50.4480 H   0  0  0  0  0  0  0  0  0  0  0  0
   27.3000   28.8840   48.7880 C   0  0  0  0  0  0  0  0  0  0  0  0
   26.2070   28.0540   48.8940 C   0  0  0  0  0  3  0  0  0  0  0  0
   25.0800   28.8790   48.9980 C   0  0  0  0  0  3  0  0  0  0  0  0
   25.5890   30.1830   48.9450 C   0  0  0  0  0  0  0  0  0  0  0  0
   24.9930   31.1040   48.9970 H   0  0  0  0  0  0  0  0  0  0  0  0
   26.8940   30.1280   48.8210 O   0  0  0  0  0  0  0  0  0  0  0  0
  1  4  1  6  0  0  0
  1  3  1  0  0  0  0
  1  8  1  0  0  0  0
  1  2  1  0  0  0  0
  2  6  1  0  0  0  0
  3  2  1  0  0  0  0
  3  7  1  1  0  0  0
  5  2  1  0  0  0  0
  8 10  1  0  0  0  0
  9  8  1  0  0  0  0
 11 16  1  0  0  0  0
 11 17  1  0  0  0  0
 12 11  2  0  0  0  0
 13 14  2  0  0  0  0
 13 12  1  0  0  0  0
 14 15  1  0  0  0  0
 15  8  1  0  0  0  0
 15 16  2  0  0  0  0
 18 12  1  0  0  0  0
 19 13  1  0  0  0  0
 20  3  1  0  0  0  0
 21 20  2  0  0  0  0
 22 23  1  0  0  0  0
 22 20  1  0  0  0  0
 23 24  2  0  0  0  0
 24 25  1  0  0  0  0
 24 28  1  0  0  0  0
 25 29  1  0  0  0  0
 26 30  1  0  0  0  0
 26 25  2  0  0  0  0
 27 23  1  0  0  0  0
 27 26  1  0  0  0  0
 30 35  1  0  0  0  0
 30 31  2  0  0  0  0
 31 32  1  0  0  0  0
 33 34  1  0  0  0  0
 33 32  2  0  0  0  0
 35 33  1  0  0  0  0
M  END
>  <minimizedAffinity>
-6.29298449

>  <minimizedRMSD>
1.61249983

$$$$
