
 OpenBabel03252514043D

 35 38  0  0  1  0  0  0  0  0999 V2000
   35.2470   29.1930   48.6010 C   0  0  2  0  0  0  0  0  0  0  0  0
   34.0300   29.3180   49.3970 C   0  0  0  0  0  0  0  0  0  0  0  0
   34.3850   27.9720   49.0600 C   0  0  1  0  0  0  0  0  0  0  0  0
   35.2340   29.4440   47.5450 H   0  0  0  0  0  0  0  0  0  0  0  0
   33.1210   29.8020   48.9320 H   0  0  0  0  0  0  0  0  0  0  0  0
   34.1490   29.6920   50.4420 H   0  0  0  0  0  0  0  0  0  0  0  0
   34.9420   27.2800   49.6920 H   0  0  0  0  0  0  0  0  0  0  0  0
   36.5730   29.2310   49.3790 C   0  0  0  0  0  0  0  0  0  0  0  0
   37.1860   28.3240   49.1380 H   0  0  0  0  0  0  0  0  0  0  0  0
   36.3520   29.1950   50.4580 H   0  0  0  0  0  0  0  0  0  0  0  0
   37.6150   32.7260   49.5690 C   0  0  0  0  0  0  0  0  0  0  0  0
   38.4870   32.8500   48.4750 C   0  0  0  0  0  0  0  0  0  0  0  0
   38.7030   31.7020   47.6760 C   0  0  0  0  0  0  0  0  0  0  0  0
   38.0530   30.5440   48.0160 N   0  0  0  0  0  0  0  0  0  0  0  0
   37.2360   30.4870   49.0680 C   0  0  0  0  0  0  0  0  0  0  0  0
   37.0240   31.5870   49.8380 N   0  0  0  0  0  0  0  0  0  0  0  0
   37.5140   33.6550   50.1170 H   0  0  0  0  0  0  0  0  0  0  0  0
   39.0370   33.7290   48.1420 H   0  0  0  0  0  0  0  0  0  0  0  0
   39.3520   31.6720   46.8070 H   0  0  0  0  0  0  0  0  0  0  0  0
   33.5380   27.3210   47.9830 C   0  0  0  0  0  0  0  0  0  0  0  0
   33.8730   26.0910   47.7560 O   0  0  0  0  0  0  0  0  0  0  0  0
   32.4920   27.9200   47.2790 O   0  0  0  0  0  0  0  0  0  0  0  0
   31.2360   28.0770   47.8060 C   0  0  0  0  0  0  0  0  0  0  0  0
   30.7940   27.5940   49.1350 C   0  0  0  0  0  0  0  0  0  0  0  0
   29.5190   27.8330   49.5000 C   0  0  0  0  0  0  0  0  0  0  0  0
   28.6190   28.5160   48.6640 C   0  0  0  0  0  0  0  0  0  0  0  0
   29.6480   28.8900   47.1620 S   0  0  0  0  0  0  0  0  0  0  0  0
   31.5290   27.0800   49.7270 H   0  0  0  0  0  0  0  0  0  0  0  0
   29.1220   27.5140   50.4490 H   0  0  0  0  0  0  0  0  0  0  0  0
   27.2990   28.8840   48.7880 C   0  0  0  0  0  0  0  0  0  0  0  0
   26.2060   28.0540   48.8930 C   0  0  0  0  0  3  0  0  0  0  0  0
   25.0800   28.8800   48.9970 C   0  0  0  0  0  3  0  0  0  0  0  0
   25.5880   30.1830   48.9450 C   0  0  0  0  0  0  0  0  0  0  0  0
   24.9930   31.1060   48.9990 H   0  0  0  0  0  0  0  0  0  0  0  0
   26.8930   30.1290   48.8220 O   0  0  0  0  0  0  0  0  0  0  0  0
  1  4  1  6  0  0  0
  1  3  1  0  0  0  0
  1  8  1  0  0  0  0
  1  2  1  0  0  0  0
  2  6  1  0  0  0  0
  3  2  1  0  0  0  0
  3  7  1  1  0  0  0
  5  2  1  0  0  0  0
  8 10  1  0  0  0  0
  9  8  1  0  0  0  0
 11 16  1  0  0  0  0
 11 17  1  0  0  0  0
 12 11  2  0  0  0  0
 13 14  2  0  0  0  0
 13 12  1  0  0  0  0
 14 15  1  0  0  0  0
 15  8  1  0  0  0  0
 15 16  2  0  0  0  0
 18 12  1  0  0  0  0
 19 13  1  0  0  0  0
 20  3  1  0  0  0  0
 21 20  2  0  0  0  0
 22 23  1  0  0  0  0
 22 20  1  0  0  0  0
 23 24  2  0  0  0  0
 24 25  1  0  0  0  0
 24 28  1  0  0  0  0
 25 29  1  0  0  0  0
 26 30  1  0  0  0  0
 26 25  2  0  0  0  0
 27 23  1  0  0  0  0
 27 26  1  0  0  0  0
 30 35  1  0  0  0  0
 30 31  2  0  0  0  0
 31 32  1  0  0  0  0
 33 32  2  0  0  0  0
 33 34  1  0  0  0  0
 35 33  1  0  0  0  0
M  END
>  <minimizedAffinity>
-6.2948103

>  <minimizedRMSD>
1.58830738

$$$$
