
 OpenBabel03252514023D

 32 35  0  0  1  0  0  0  0  0999 V2000
   35.2820   29.4060   49.0190 C   0  0  2  0  0  0  0  0  0  0  0  0
   34.2340   29.4190   50.0480 C   0  0  0  0  0  0  0  0  0  0  0  0
   34.4770   28.1440   49.3840 C   0  0  1  0  0  0  0  0  0  0  0  0
   35.1200   29.8420   48.0400 H   0  0  0  0  0  0  0  0  0  0  0  0
   33.2730   29.9780   49.8740 H   0  0  0  0  0  0  0  0  0  0  0  0
   34.5060   29.4690   51.1380 H   0  0  0  0  0  0  0  0  0  0  0  0
   35.1260   27.3080   49.6640 H   0  0  0  0  0  0  0  0  0  0  0  0
   36.7310   29.3140   49.4980 C   0  0  0  0  0  0  0  0  0  0  0  0
   36.7040   29.3070   50.5990 H   0  0  0  0  0  0  0  0  0  0  0  0
   37.2130   28.3870   49.1310 H   0  0  0  0  0  0  0  0  0  0  0  0
   38.0390   32.7380   49.4250 C   0  0  0  0  0  0  0  0  0  0  0  0
   38.7260   32.7760   48.2010 C   0  0  0  0  0  0  0  0  0  0  0  0
   38.7360   31.6190   47.4090 C   0  0  0  0  0  0  0  0  0  0  0  0
   38.0680   30.5100   47.8780 N   0  0  0  0  0  0  0  0  0  0  0  0
   37.4270   30.5200   49.0480 C   0  0  0  0  0  0  0  0  0  0  0  0
   37.4200   31.6380   49.8120 N   0  0  0  0  0  0  0  0  0  0  0  0
   37.9890   33.5830   50.0820 H   0  0  0  0  0  0  0  0  0  0  0  0
   39.2160   33.7030   47.9330 H   0  0  0  0  0  0  0  0  0  0  0  0
   39.2580   31.6540   46.4850 H   0  0  0  0  0  0  0  0  0  0  0  0
   33.4070   27.7130   48.4200 C   0  0  0  0  0  0  0  0  0  0  0  0
   33.6450   26.5880   47.8280 O   0  0  0  0  0  0  0  0  0  0  0  0
   32.2370   28.3970   48.1400 O   0  0  0  0  0  0  0  0  0  0  0  0
   31.1650   27.8530   47.4980 C   0  0  0  0  0  0  0  0  0  0  0  0
   31.0760   27.6060   46.1330 C   0  0  0  0  0  3  0  0  0  0  0  0
   29.9050   27.0410   45.6190 C   0  0  0  0  0  3  0  0  0  0  0  0
   28.8450   26.7310   46.4490 C   0  0  0  0  0  3  0  0  0  0  0  0
   28.9190   26.9720   47.8140 C   0  0  0  0  0  0  0  0  0  0  0  0
   27.8460   26.6510   48.6050 C   0  0  0  0  0  3  0  0  0  0  0  0
   27.9130   26.8900   49.9780 C   0  0  0  0  0  3  0  0  0  0  0  0
   29.0660   27.4520   50.5280 C   0  0  0  0  0  3  0  0  0  0  0  0
   30.1040   27.7510   49.6800 C   0  0  0  0  0  3  0  0  0  0  0  0
   30.0810   27.5300   48.3110 C   0  0  0  0  0  0  0  0  0  0  0  0
  1  4  1  6  0  0  0
  1  3  1  0  0  0  0
  1  8  1  0  0  0  0
  1  2  1  0  0  0  0
  2  6  1  0  0  0  0
  3  7  1  1  0  0  0
  3  2  1  0  0  0  0
  5  2  1  0  0  0  0
  8  9  1  0  0  0  0
 10  8  1  0  0  0  0
 11 16  1  0  0  0  0
 11 17  1  0  0  0  0
 12 11  2  0  0  0  0
 13 14  2  0  0  0  0
 13 12  1  0  0  0  0
 14 15  1  0  0  0  0
 15  8  1  0  0  0  0
 15 16  2  0  0  0  0
 18 12  1  0  0  0  0
 19 13  1  0  0  0  0
 20  3  1  0  0  0  0
 21 20  2  0  0  0  0
 22 20  1  0  0  0  0
 23 22  1  0  0  0  0
 23 32  1  0  0  0  0
 24 23  2  0  0  0  0
 25 24  1  0  0  0  0
 25 26  2  0  0  0  0
 26 27  1  0  0  0  0
 27 32  2  0  0  0  0
 27 28  1  0  0  0  0
 28 29  2  0  0  0  0
 29 30  1  0  0  0  0
 31 30  2  0  0  0  0
 32 31  1  0  0  0  0
M  END
>  <minimizedAffinity>
-6.18076754

>  <minimizedRMSD>
0.608348131

$$$$
