
 OpenBabel03252514043D

 35 38  0  0  1  0  0  0  0  0999 V2000
   35.2340   29.1800   48.5900 C   0  0  2  0  0  0  0  0  0  0  0  0
   34.0150   29.3530   49.3730 C   0  0  0  0  0  0  0  0  0  0  0  0
   34.3450   27.9900   49.0800 C   0  0  1  0  0  0  0  0  0  0  0  0
   35.2320   29.3990   47.5260 H   0  0  0  0  0  0  0  0  0  0  0  0
   33.1190   29.8390   48.8880 H   0  0  0  0  0  0  0  0  0  0  0  0
   34.1350   29.7560   50.4080 H   0  0  0  0  0  0  0  0  0  0  0  0
   34.8850   27.3080   49.7370 H   0  0  0  0  0  0  0  0  0  0  0  0
   36.5550   29.2160   49.3750 C   0  0  0  0  0  0  0  0  0  0  0  0
   37.1720   28.3120   49.1320 H   0  0  0  0  0  0  0  0  0  0  0  0
   36.3300   29.1730   50.4530 H   0  0  0  0  0  0  0  0  0  0  0  0
   37.5840   32.7140   49.5890 C   0  0  0  0  0  0  0  0  0  0  0  0
   38.4660   32.8450   48.5030 C   0  0  0  0  0  0  0  0  0  0  0  0
   38.6940   31.7010   47.7020 C   0  0  0  0  0  0  0  0  0  0  0  0
   38.0440   30.5400   48.0320 N   0  0  0  0  0  0  0  0  0  0  0  0
   37.2170   30.4750   49.0750 C   0  0  0  0  0  0  0  0  0  0  0  0
   36.9950   31.5720   49.8480 N   0  0  0  0  0  0  0  0  0  0  0  0
   37.4750   33.6400   50.1400 H   0  0  0  0  0  0  0  0  0  0  0  0
   39.0170   33.7280   48.1790 H   0  0  0  0  0  0  0  0  0  0  0  0
   39.3510   31.6760   46.8390 H   0  0  0  0  0  0  0  0  0  0  0  0
   33.4930   27.3230   48.0180 C   0  0  0  0  0  0  0  0  0  0  0  0
   33.8300   26.0920   47.8040 O   0  0  0  0  0  0  0  0  0  0  0  0
   32.4390   27.9100   47.3150 O   0  0  0  0  0  0  0  0  0  0  0  0
   31.1890   28.0760   47.8520 C   0  0  0  0  0  0  0  0  0  0  0  0
   30.7590   27.6090   49.1920 C   0  0  0  0  0  0  0  0  0  0  0  0
   29.4880   27.8550   49.5660 C   0  0  0  0  0  0  0  0  0  0  0  0
   28.5810   28.5310   48.7300 C   0  0  0  0  0  0  0  0  0  0  0  0
   29.5970   28.8840   47.2140 S   0  0  0  0  0  0  0  0  0  0  0  0
   31.4980   27.1010   49.7820 H   0  0  0  0  0  0  0  0  0  0  0  0
   29.0990   27.5480   50.5220 H   0  0  0  0  0  0  0  0  0  0  0  0
   27.2640   28.9030   48.8630 C   0  0  0  0  0  0  0  0  0  0  0  0
   26.7470   30.1790   48.8190 C   0  0  0  0  0  3  0  0  0  0  0  0
   25.3630   30.0610   49.0000 C   0  0  0  0  0  3  0  0  0  0  0  0
   25.1400   28.6870   49.1440 C   0  0  0  0  0  0  0  0  0  0  0  0
   24.1620   28.2110   49.3050 H   0  0  0  0  0  0  0  0  0  0  0  0
   26.2850   28.0540   49.0550 O   0  0  0  0  0  0  0  0  0  0  0  0
  1  4  1  6  0  0  0
  1  3  1  0  0  0  0
  1  2  1  0  0  0  0
  1  8  1  0  0  0  0
  2  6  1  0  0  0  0
  3  2  1  0  0  0  0
  3  7  1  1  0  0  0
  5  2  1  0  0  0  0
  8 10  1  0  0  0  0
  9  8  1  0  0  0  0
 11 16  1  0  0  0  0
 11 17  1  0  0  0  0
 12 11  2  0  0  0  0
 13 14  2  0  0  0  0
 13 12  1  0  0  0  0
 14 15  1  0  0  0  0
 15  8  1  0  0  0  0
 15 16  2  0  0  0  0
 18 12  1  0  0  0  0
 19 13  1  0  0  0  0
 20  3  1  0  0  0  0
 21 20  2  0  0  0  0
 22 23  1  0  0  0  0
 22 20  1  0  0  0  0
 23 24  2  0  0  0  0
 24 25  1  0  0  0  0
 24 28  1  0  0  0  0
 25 29  1  0  0  0  0
 26 30  1  0  0  0  0
 26 25  2  0  0  0  0
 27 23  1  0  0  0  0
 27 26  1  0  0  0  0
 30 35  1  0  0  0  0
 31 30  2  0  0  0  0
 31 32  1  0  0  0  0
 32 33  2  0  0  0  0
 33 34  1  0  0  0  0
 35 33  1  0  0  0  0
M  END
>  <minimizedAffinity>
-6.24314356

>  <minimizedRMSD>
1.5995822

$$$$
