
 OpenBabel03252513013D

 21 22  0  0  0  0  0  0  0  0999 V2000
   37.9280   30.5790   47.5730 C   0  0  0  0  0  0  0  0  0  0  0  0
   37.0860   30.5200   46.8420 H   0  0  0  0  0  0  0  0  0  0  0  0
   38.7780   29.9100   47.3200 H   0  0  0  0  0  0  0  0  0  0  0  0
   37.3730   30.2250   51.3080 C   0  0  0  0  0  0  0  0  0  0  0  0
   37.9880   30.6380   50.1060 C   0  0  0  0  0  0  0  0  0  0  0  0
   37.4130   30.2360   48.9120 C   0  0  0  0  0  0  0  0  0  0  0  0
   36.2870   29.4640   48.9650 N   0  0  0  0  0  0  0  0  0  0  0  0
   35.7250   29.0870   50.1170 C   0  0  0  0  0  0  0  0  0  0  0  0
   36.2650   29.4660   51.2910 N   0  0  0  0  0  0  0  0  0  0  0  0
   37.8610   30.5650   52.2180 H   0  0  0  0  0  0  0  0  0  0  0  0
   38.8690   31.2420   50.0630 H   0  0  0  0  0  0  0  0  0  0  0  0
   34.8350   28.4780   50.1250 H   0  0  0  0  0  0  0  0  0  0  0  0
   38.4460   31.9940   47.5000 C   0  0  0  0  0  0  0  0  0  0  0  0
   37.7570   32.5880   46.8370 H   0  0  0  0  0  0  0  0  0  0  0  0
   38.5940   32.4750   48.4610 H   0  0  0  0  0  0  0  0  0  0  0  0
   39.7430   31.9160   46.6850 C   0  0  0  0  0  0  0  0  0  0  0  0
   40.0270   33.2140   45.9810 C   0  0  0  0  0  0  0  0  0  0  0  0
   39.4820   33.2180   44.5570 C   0  0  0  0  0  0  0  0  0  0  0  0
   40.1240   32.1370   43.7190 C   0  0  0  0  0  0  0  0  0  0  0  0
   40.7010   31.0600   44.6130 C   0  0  0  0  0  0  0  0  0  0  0  0
   39.6320   30.7890   45.6780 C   0  0  0  0  0  0  0  0  0  0  0  0
  1  6  1  0  0  0  0
  2  1  1  0  0  0  0
  3  1  1  0  0  0  0
  4 10  1  0  0  0  0
  5  4  2  0  0  0  0
  6  7  2  0  0  0  0
  6  5  1  0  0  0  0
  7  8  1  0  0  0  0
  8 12  1  0  0  0  0
  8  9  2  0  0  0  0
  9  4  1  0  0  0  0
 11  5  1  0  0  0  0
 13  1  1  0  0  0  0
 13 15  1  0  0  0  0
 14 13  1  0  0  0  0
 16 13  1  0  0  0  0
 17 16  1  0  0  0  0
 18 17  1  0  0  0  0
 19 18  1  0  0  0  0
 19 20  1  0  0  0  0
 20 21  1  0  0  0  0
 21 16  1  0  0  0  0
M  END
>  <minimizedAffinity>
-5.3145771

>  <minimizedRMSD>
1.02011287

$$$$
