
 OpenBabel03252511573D

 34 37  0  0  0  0  0  0  0  0999 V2000
   36.3810   30.2990   47.4990 N   0  0  0  0  0  0  0  0  0  0  0  0
   35.1300   29.9740   47.0840 C   0  0  0  0  0  0  0  0  0  0  0  0
   34.7720   30.0740   45.7540 C   0  0  0  0  0  0  0  0  0  0  0  0
   35.7750   30.5200   44.9320 C   0  0  0  0  0  0  0  0  0  0  0  0
   35.4800   30.6250   43.6940 O   0  0  0  0  0  0  0  0  0  0  0  0
   37.0390   30.8570   45.2900 N   0  0  0  0  0  0  0  0  0  0  0  0
   37.2790   30.7200   46.6150 C   0  0  0  0  0  0  0  0  0  0  0  0
   38.4230   31.0120   47.0100 O   0  0  0  0  0  0  0  0  0  0  0  0
   34.3790   29.6260   47.7960 H   0  0  0  0  0  0  0  0  0  0  0  0
   33.8020   29.8320   45.3770 H   0  0  0  0  0  0  0  0  0  0  0  0
   36.9210   31.3980   49.5070 C   0  0  0  0  0  0  0  0  0  0  0  0
   36.6750   30.1720   48.8670 C   0  0  0  0  0  0  0  0  0  0  0  0
   36.7520   28.9910   49.6030 C   0  0  0  0  0  0  0  0  0  0  0  0
   37.0660   29.0690   50.9210 N   0  0  0  0  0  0  0  0  0  0  0  0
   37.3020   30.2690   51.5260 C   0  0  0  0  0  0  0  0  0  0  0  0
   37.2270   31.4320   50.8080 N   0  0  0  0  0  0  0  0  0  0  0  0
   36.9170   32.4320   49.2070 H   0  0  0  0  0  0  0  0  0  0  0  0
   36.5520   28.1070   49.0460 H   0  0  0  0  0  0  0  0  0  0  0  0
   37.5360   30.1360   52.5730 H   0  0  0  0  0  0  0  0  0  0  0  0
   37.9630   31.3010   44.3370 C   0  0  0  0  0  0  0  0  0  0  0  0
   38.3170   32.6140   44.0840 C   0  0  0  0  0  0  0  0  0  0  0  0
   39.2290   32.9720   43.1340 C   0  0  0  0  0  0  0  0  0  0  0  0
   39.8340   31.9910   42.3830 C   0  0  0  0  0  0  0  0  0  0  0  0
   39.4730   30.6830   42.6450 C   0  0  0  0  0  0  0  0  0  0  0  0
   38.5650   30.3430   43.5930 N   0  0  0  0  0  0  0  0  0  0  0  0
   37.8160   33.3640   44.6980 H   0  0  0  0  0  0  0  0  0  0  0  0
   39.4670   34.0170   42.9790 H   0  0  0  0  0  0  0  0  0  0  0  0
   40.5620   32.2450   41.6220 H   0  0  0  0  0  0  0  0  0  0  0  0
   40.0880   29.5850   41.8720 C   0  0  0  0  0  0  0  0  0  0  0  0
   41.2920   29.6670   41.1920 C   0  0  0  0  0  0  0  0  0  0  0  0
   41.5020   28.4340   40.6080 C   0  0  0  0  0  0  0  0  0  0  0  0
   40.4180   27.6540   40.9570 C   0  0  0  0  0  0  0  0  0  0  0  0
   40.3590   26.6320   40.6090 H   0  0  0  0  0  0  0  0  0  0  0  0
   39.6030   28.3560   41.7000 O   0  0  0  0  0  0  0  0  0  0  0  0
  1 12  1  0  0  0  0
  2  1  1  0  0  0  0
  2  9  1  0  0  0  0
  3  2  2  0  0  0  0
  4  6  1  0  0  0  0
  4  3  1  0  0  0  0
  5  4  2  0  0  0  0
  6  7  1  0  0  0  0
  7  8  2  0  0  0  0
  7  1  1  0  0  0  0
 10  3  1  0  0  0  0
 11 16  1  0  0  0  0
 12 11  2  0  0  0  0
 12 13  1  0  0  0  0
 13 14  2  0  0  0  0
 14 15  1  0  0  0  0
 15 19  1  0  0  0  0
 16 15  2  0  0  0  0
 17 11  1  0  0  0  0
 18 13  1  0  0  0  0
 20  6  1  0  0  0  0
 21 20  1  0  0  0  0
 21 26  1  0  0  0  0
 22 21  2  0  0  0  0
 23 24  2  0  0  0  0
 23 22  1  0  0  0  0
 24 25  1  0  0  0  0
 25 20  2  0  0  0  0
 27 22  1  0  0  0  0
 28 23  1  0  0  0  0
 29 24  1  0  0  0  0
 30 29  2  0  0  0  0
 31 32  2  0  0  0  0
 31 30  1  0  0  0  0
 32 34  1  0  0  0  0
 33 32  1  0  0  0  0
 34 29  1  0  0  0  0
M  END
>  <minimizedAffinity>
-5.40404177

>  <minimizedRMSD>
0.618498206

$$$$
