
 OpenBabel03252512533D

 20 22  0  0  0  0  0  0  0  0999 V2000
   38.4040   31.5110   48.1620 C   0  0  0  0  0  0  0  0  0  0  0  0
   39.0280   32.7080   48.1670 N   0  0  0  0  0  0  0  0  0  0  0  0
   39.4740   33.0050   46.9980 O   0  0  0  0  0  0  0  0  0  0  0  0
   39.1550   32.0080   46.1890 C   0  0  0  0  0  0  0  0  0  0  0  0
   38.4900   31.0710   46.8940 N   0  0  0  0  0  0  0  0  0  0  0  0
   37.3310   30.1320   51.4830 C   0  0  0  0  0  0  0  0  0  0  0  0
   38.0180   30.9190   50.5590 C   0  0  0  0  0  0  0  0  0  0  0  0
   37.7430   30.7410   49.2010 C   0  0  0  0  0  0  0  0  0  0  0  0
   36.8200   29.8110   48.8350 N   0  0  0  0  0  0  0  0  0  0  0  0
   36.1740   29.0650   49.7740 C   0  0  0  0  0  0  0  0  0  0  0  0
   36.4230   29.2190   51.0880 N   0  0  0  0  0  0  0  0  0  0  0  0
   37.6130   30.3440   52.5160 H   0  0  0  0  0  0  0  0  0  0  0  0
   38.7560   31.6670   50.8010 H   0  0  0  0  0  0  0  0  0  0  0  0
   35.4420   28.3280   49.4710 H   0  0  0  0  0  0  0  0  0  0  0  0
   39.4720   31.9360   44.7660 C   0  0  0  0  0  0  0  0  0  0  0  0
   40.2710   30.9640   44.1540 C   0  0  0  0  0  0  0  0  0  0  0  0
   40.2860   31.3020   42.8020 C   0  0  0  0  0  0  0  0  0  0  0  0
   39.5140   32.4360   42.6530 C   0  0  0  0  0  0  0  0  0  0  0  0
   39.3080   32.9720   41.7330 H   0  0  0  0  0  0  0  0  0  0  0  0
   39.0600   32.7650   43.8400 O   0  0  0  0  0  0  0  0  0  0  0  0
  1  2  2  0  0  0  0
  1  8  1  0  0  0  0
  3  2  1  0  0  0  0
  4  5  2  0  0  0  0
  4  3  1  0  0  0  0
  5  1  1  0  0  0  0
  6 12  1  0  0  0  0
  7 13  1  0  0  0  0
  7  6  2  0  0  0  0
  8  7  1  0  0  0  0
  9  8  2  0  0  0  0
  9 10  1  0  0  0  0
 10 11  2  0  0  0  0
 11  6  1  0  0  0  0
 14 10  1  0  0  0  0
 15  4  1  0  0  0  0
 16 15  2  0  0  0  0
 17 16  1  0  0  0  0
 18 17  2  0  0  0  0
 18 20  1  0  0  0  0
 19 18  1  0  0  0  0
 20 15  1  0  0  0  0
M  END
>  <minimizedAffinity>
-5.26061726

>  <minimizedRMSD>
0.466853768

$$$$
