
 OpenBabel03252513543D

 18 19  0  0  0  0  0  0  0  0999 V2000
   37.3620   30.3180   51.3890 C   0  0  0  0  0  0  0  0  0  0  0  0
   38.2070   30.9610   50.4740 C   0  0  0  0  0  0  0  0  0  0  0  0
   38.0640   30.6900   49.1090 C   0  0  0  0  0  0  0  0  0  0  0  0
   37.0920   29.8020   48.7540 N   0  0  0  0  0  0  0  0  0  0  0  0
   36.2910   29.1940   49.6360 C   0  0  0  0  0  0  0  0  0  0  0  0
   36.4390   29.4620   50.9550 N   0  0  0  0  0  0  0  0  0  0  0  0
   37.4800   30.5310   52.4280 H   0  0  0  0  0  0  0  0  0  0  0  0
   38.9720   31.6670   50.8170 H   0  0  0  0  0  0  0  0  0  0  0  0
   38.6950   31.1670   48.3800 H   0  0  0  0  0  0  0  0  0  0  0  0
   35.2580   28.2410   49.1790 C   0  0  0  0  0  0  0  0  0  0  0  0
   35.5810   27.8650   48.1760 H   0  0  0  0  0  0  0  0  0  0  0  0
   35.1530   27.4010   49.8940 H   0  0  0  0  0  0  0  0  0  0  0  0
   33.9670   28.9960   48.9690 C   0  0  0  0  0  0  0  0  0  0  0  0
   34.0970   29.9900   47.8580 C   0  0  0  0  0  0  0  0  0  0  0  0
   33.7520   29.4610   46.5020 C   0  0  0  0  0  0  0  0  0  0  0  0
   32.7140   28.3780   46.4780 C   0  0  0  0  0  0  0  0  0  0  0  0
   32.9220   27.3280   47.5530 C   0  0  0  0  0  0  0  0  0  0  0  0
   32.8060   28.0780   48.8550 C   0  0  0  0  0  0  0  0  0  0  0  0
  1  7  1  0  0  0  0
  2  8  1  0  0  0  0
  2  1  2  0  0  0  0
  3  2  1  0  0  0  0
  4  3  2  0  0  0  0
  4  5  1  0  0  0  0
  5  6  2  0  0  0  0
  6  1  1  0  0  0  0
  9  3  1  0  0  0  0
 10  5  1  0  0  0  0
 10 12  1  0  0  0  0
 11 10  1  0  0  0  0
 13 10  1  0  0  0  0
 14 13  1  0  0  0  0
 15 14  1  0  0  0  0
 16 15  1  0  0  0  0
 16 17  1  0  0  0  0
 17 18  1  0  0  0  0
 18 13  1  0  0  0  0
M  END
>  <minimizedAffinity>
-4.29452085

>  <minimizedRMSD>
1.8687942

$$$$
