
 OpenBabel03252514023D

 32 35  0  0  1  0  0  0  0  0999 V2000
   35.4680   29.4620   49.1410 C   0  0  2  0  0  0  0  0  0  0  0  0
   34.4320   29.4710   50.1830 C   0  0  0  0  0  0  0  0  0  0  0  0
   34.6800   28.1940   49.5230 C   0  0  1  0  0  0  0  0  0  0  0  0
   35.2890   29.8900   48.1610 H   0  0  0  0  0  0  0  0  0  0  0  0
   33.4640   30.0190   50.0160 H   0  0  0  0  0  0  0  0  0  0  0  0
   34.7170   29.5310   51.2680 H   0  0  0  0  0  0  0  0  0  0  0  0
   35.3420   27.3670   49.8000 H   0  0  0  0  0  0  0  0  0  0  0  0
   36.9230   29.3880   49.6020 C   0  0  0  0  0  0  0  0  0  0  0  0
   36.9140   29.4480   50.7020 H   0  0  0  0  0  0  0  0  0  0  0  0
   37.3930   28.4370   49.2840 H   0  0  0  0  0  0  0  0  0  0  0  0
   38.4200   32.7280   49.3790 C   0  0  0  0  0  0  0  0  0  0  0  0
   38.9190   32.7510   48.0680 C   0  0  0  0  0  0  0  0  0  0  0  0
   38.7400   31.6130   47.2680 C   0  0  0  0  0  0  0  0  0  0  0  0
   38.0800   30.5360   47.8170 N   0  0  0  0  0  0  0  0  0  0  0  0
   37.6200   30.5600   49.0700 C   0  0  0  0  0  0  0  0  0  0  0  0
   37.7960   31.6590   49.8410 N   0  0  0  0  0  0  0  0  0  0  0  0
   38.5200   33.5590   50.0480 H   0  0  0  0  0  0  0  0  0  0  0  0
   39.4220   33.6520   47.7420 H   0  0  0  0  0  0  0  0  0  0  0  0
   39.1210   31.6370   46.2770 H   0  0  0  0  0  0  0  0  0  0  0  0
   33.6030   27.7460   48.5750 C   0  0  0  0  0  0  0  0  0  0  0  0
   33.9630   26.8010   47.7690 O   0  0  0  0  0  0  0  0  0  0  0  0
   32.3130   28.2420   48.5130 O   0  0  0  0  0  0  0  0  0  0  0  0
   31.3490   27.7710   47.6710 C   0  0  0  0  0  0  0  0  0  0  0  0
   30.5600   26.6470   47.8870 C   0  0  0  0  0  3  0  0  0  0  0  0
   29.6100   26.2890   46.9260 C   0  0  0  0  0  3  0  0  0  0  0  0
   29.4500   27.0380   45.7750 C   0  0  0  0  0  3  0  0  0  0  0  0
   30.2310   28.1620   45.5460 C   0  0  0  0  0  0  0  0  0  0  0  0
   30.0420   28.8780   44.3920 C   0  0  0  0  0  3  0  0  0  0  0  0
   30.8230   30.0110   44.1560 C   0  0  0  0  0  3  0  0  0  0  0  0
   31.7820   30.4000   45.0910 C   0  0  0  0  0  3  0  0  0  0  0  0
   31.9190   29.6380   46.2260 C   0  0  0  0  0  3  0  0  0  0  0  0
   31.1670   28.5060   46.5030 C   0  0  0  0  0  0  0  0  0  0  0  0
  1  4  1  6  0  0  0
  1  3  1  0  0  0  0
  1  8  1  0  0  0  0
  1  2  1  0  0  0  0
  2  6  1  0  0  0  0
  3  7  1  1  0  0  0
  3  2  1  0  0  0  0
  5  2  1  0  0  0  0
  8  9  1  0  0  0  0
 10  8  1  0  0  0  0
 11 16  1  0  0  0  0
 11 17  1  0  0  0  0
 12 11  2  0  0  0  0
 13 14  2  0  0  0  0
 13 12  1  0  0  0  0
 14 15  1  0  0  0  0
 15  8  1  0  0  0  0
 15 16  2  0  0  0  0
 18 12  1  0  0  0  0
 19 13  1  0  0  0  0
 20  3  1  0  0  0  0
 21 20  2  0  0  0  0
 22 20  1  0  0  0  0
 23 24  1  0  0  0  0
 23 22  1  0  0  0  0
 25 24  2  0  0  0  0
 26 25  1  0  0  0  0
 27 26  2  0  0  0  0
 27 32  1  0  0  0  0
 28 27  1  0  0  0  0
 29 28  2  0  0  0  0
 29 30  1  0  0  0  0
 30 31  2  0  0  0  0
 31 32  1  0  0  0  0
 32 23  2  0  0  0  0
M  END
>  <minimizedAffinity>
-5.25656557

>  <minimizedRMSD>
0.886371791

$$$$
