
 OpenBabel03252512563D

 27 30  0  0  0  0  0  0  0  0999 V2000
   37.0050   29.8540   51.6100 C   0  0  0  0  0  0  0  0  0  0  0  0
   37.8150   30.6440   50.7800 C   0  0  0  0  0  0  0  0  0  0  0  0
   37.4310   30.7380   49.4390 C   0  0  0  0  0  0  0  0  0  0  0  0
   36.3140   30.0830   48.9750 N   0  0  0  0  0  0  0  0  0  0  0  0
   35.5860   29.3380   49.8460 C   0  0  0  0  0  0  0  0  0  0  0  0
   35.9170   29.2180   51.1510 N   0  0  0  0  0  0  0  0  0  0  0  0
   37.3310   29.8040   52.6390 H   0  0  0  0  0  0  0  0  0  0  0  0
   38.6880   31.1610   51.1270 H   0  0  0  0  0  0  0  0  0  0  0  0
   38.1900   31.5360   48.4720 C   0  0  0  0  0  0  0  0  0  0  0  0
   38.8500   32.7190   48.5880 N   0  0  0  0  0  0  0  0  0  0  0  0
   39.3820   33.0440   47.4480 O   0  0  0  0  0  0  0  0  0  0  0  0
   39.0880   32.1080   46.5930 C   0  0  0  0  0  0  0  0  0  0  0  0
   38.3370   31.1320   47.1880 N   0  0  0  0  0  0  0  0  0  0  0  0
   39.4550   32.0250   45.2020 N   0  0  0  0  0  0  0  0  0  0  0  0
   38.9690   32.8910   44.2940 N   0  0  0  0  0  0  0  0  0  0  0  0
   39.4740   32.5800   43.0960 C   0  0  0  0  0  0  0  0  0  0  0  0
   40.3020   31.4800   43.2800 C   0  0  0  0  0  0  0  0  0  0  0  0
   40.2830   31.1320   44.6330 C   0  0  0  0  0  0  0  0  0  0  0  0
   39.3310   33.0300   42.1140 H   0  0  0  0  0  0  0  0  0  0  0  0
   40.8900   30.9380   42.5470 H   0  0  0  0  0  0  0  0  0  0  0  0
   40.7830   30.3460   45.1880 H   0  0  0  0  0  0  0  0  0  0  0  0
   34.4170   28.6770   49.2720 C   0  0  0  0  0  0  0  0  0  0  0  0
   34.5110   27.9430   48.0920 C   0  0  0  0  0  0  0  0  0  0  0  0
   33.2130   27.4750   47.8690 C   0  0  0  0  0  0  0  0  0  0  0  0
   32.4220   27.9490   48.9150 C   0  0  0  0  0  0  0  0  0  0  0  0
   31.3730   27.6920   48.9240 H   0  0  0  0  0  0  0  0  0  0  0  0
   33.1890   28.6430   49.6970 O   0  0  0  0  0  0  0  0  0  0  0  0
  1  7  1  0  0  0  0
  2  8  1  0  0  0  0
  2  1  2  0  0  0  0
  3  2  1  0  0  0  0
  4  3  2  0  0  0  0
  4  5  1  0  0  0  0
  5  6  2  0  0  0  0
  6  1  1  0  0  0  0
  9 10  2  0  0  0  0
  9  3  1  0  0  0  0
 11 10  1  0  0  0  0
 12 13  2  0  0  0  0
 12 11  1  0  0  0  0
 13  9  1  0  0  0  0
 14 12  1  0  0  0  0
 15 14  1  0  0  0  0
 16 17  1  0  0  0  0
 16 15  2  0  0  0  0
 17 18  2  0  0  0  0
 18 21  1  0  0  0  0
 18 14  1  0  0  0  0
 19 16  1  0  0  0  0
 20 17  1  0  0  0  0
 22 27  1  0  0  0  0
 22  5  1  0  0  0  0
 23 22  2  0  0  0  0
 24 23  1  0  0  0  0
 24 25  2  0  0  0  0
 25 26  1  0  0  0  0
 25 27  1  0  0  0  0
M  END
>  <minimizedAffinity>
-6.50850487

>  <minimizedRMSD>
0.922206223

$$$$
