
 OpenBabel03252509533D

 25 26  0  0  0  0  0  0  0  0999 V2000
   40.5400   32.0630   45.6750 C   0  0  0  0  0  0  0  0  0  0  0  0
   40.1640   32.7020   44.4620 C   0  0  0  0  0  0  0  0  0  0  0  0
   38.8010   32.8010   44.1910 C   0  0  0  0  0  0  0  0  0  0  0  0
   37.9080   32.2860   45.0920 N   0  0  0  0  0  0  0  0  0  0  0  0
   38.2950   31.6900   46.2230 C   0  0  0  0  0  0  0  0  0  0  0  0
   39.5910   31.5880   46.4970 N   0  0  0  0  0  0  0  0  0  0  0  0
   37.3190   31.1720   47.1260 N   0  0  0  0  0  0  0  0  0  0  0  0
   36.1890   30.6120   46.6800 C   0  0  0  0  0  0  0  0  0  0  0  0
   35.2280   30.1040   47.5270 C   0  0  0  0  0  0  0  0  0  0  0  0
   35.5260   30.2170   48.8540 C   0  0  0  0  0  0  0  0  0  0  0  0
   34.7010   29.7750   49.7050 O   0  0  0  0  0  0  0  0  0  0  0  0
   36.6360   30.7630   49.3650 N   0  0  0  0  0  0  0  0  0  0  0  0
   37.5420   31.2460   48.4590 C   0  0  0  0  0  0  0  0  0  0  0  0
   38.5960   31.7670   48.9050 O   0  0  0  0  0  0  0  0  0  0  0  0
   41.5960   31.9760   45.9010 H   0  0  0  0  0  0  0  0  0  0  0  0
   40.9150   33.0900   43.7880 H   0  0  0  0  0  0  0  0  0  0  0  0
   38.4560   33.2800   43.2800 H   0  0  0  0  0  0  0  0  0  0  0  0
   36.0140   30.5550   45.5980 H   0  0  0  0  0  0  0  0  0  0  0  0
   33.9670   29.4780   47.0780 C   0  0  0  0  0  0  0  0  0  0  0  0
   33.2870   30.3010   46.7500 H   0  0  0  0  0  0  0  0  0  0  0  0
   33.5440   28.8570   47.8730 H   0  0  0  0  0  0  0  0  0  0  0  0
   34.1950   28.8800   46.1560 H   0  0  0  0  0  0  0  0  0  0  0  0
   36.9010   30.8570   50.7930 C   0  0  0  0  0  0  0  0  0  0  0  0
   37.4610   29.5850   51.3570 C   0  0  0  0  0  0  0  0  0  0  0  0
   36.6220   28.9980   51.8010 H   0  0  0  0  0  0  0  0  0  0  0  0
  1 15  1  0  0  0  0
  1  6  1  0  0  0  0
  2  1  2  0  0  0  0
  3  2  1  0  0  0  0
  3  4  2  0  0  0  0
  4  5  1  0  0  0  0
  5  6  2  0  0  0  0
  5  7  1  0  0  0  0
  7 13  1  0  0  0  0
  8  7  1  0  0  0  0
  8  9  2  0  0  0  0
  9 10  1  0  0  0  0
 10 12  1  0  0  0  0
 10 11  2  0  0  0  0
 12 23  1  0  0  0  0
 13 14  2  0  0  0  0
 13 12  1  0  0  0  0
 16  2  1  0  0  0  0
 17  3  1  0  0  0  0
 18  8  1  0  0  0  0
 19  9  1  0  0  0  0
 19 21  1  0  0  0  0
 20 19  1  0  0  0  0
 22 19  1  0  0  0  0
 23 24  1  0  0  0  0
 24 25  1  0  0  0  0
M  END
>  <minimizedAffinity>
-5.60560131

>  <minimizedRMSD>
4.45866871

$$$$
