
 OpenBabel03252510203D

 16 16  0  0  0  0  0  0  0  0999 V2000
   37.3090   31.3600   49.9090 C   0  0  0  0  0  0  0  0  0  0  0  0
   36.0380   31.0190   49.4210 C   0  0  0  0  0  0  0  0  0  0  0  0
   35.3800   29.9460   50.0470 C   0  0  0  0  0  0  0  0  0  0  0  0
   36.0060   29.3100   51.0770 N   0  0  0  0  0  0  0  0  0  0  0  0
   37.2210   29.6770   51.5050 C   0  0  0  0  0  0  0  0  0  0  0  0
   37.8790   30.7100   50.9160 N   0  0  0  0  0  0  0  0  0  0  0  0
   35.6360   31.5860   48.6030 H   0  0  0  0  0  0  0  0  0  0  0  0
   34.4280   29.7490   49.6230 H   0  0  0  0  0  0  0  0  0  0  0  0
   37.6330   29.1090   52.3280 H   0  0  0  0  0  0  0  0  0  0  0  0
   38.0030   32.4770   49.2610 C   0  0  0  0  0  0  0  0  0  0  0  0
   37.5990   33.6530   49.4010 O   0  0  0  0  0  0  0  0  0  0  0  0
   39.1230   32.2200   48.4830 O   0  0  0  0  0  0  0  0  0  0  0  0
   38.8900   31.8240   47.1520 C   0  0  0  0  0  0  0  0  0  0  0  0
   37.8740   32.1850   46.5020 O   0  0  0  0  0  0  0  0  0  0  0  0
   39.8830   31.0020   46.6260 O   0  0  0  0  0  0  0  0  0  0  0  0
   39.9060   30.8610   45.6260 H   0  0  0  0  0  0  0  0  0  0  0  0
  1  6  1  0  0  0  0
  2  1  2  0  0  0  0
  2  3  1  0  0  0  0
  3  4  2  0  0  0  0
  4  5  1  0  0  0  0
  5  9  1  0  0  0  0
  6  5  2  0  0  0  0
  7  2  1  0  0  0  0
  8  3  1  0  0  0  0
 10 11  2  0  0  0  0
 10  1  1  0  0  0  0
 12 10  1  0  0  0  0
 13 12  1  0  0  0  0
 14 13  2  0  0  0  0
 15 13  1  0  0  0  0
 16 15  1  0  0  0  0
M  END
>  <minimizedAffinity>
-4.20128012

>  <minimizedRMSD>
4.96178865

$$$$
