
 OpenBabel03252509473D

 19 20  0  0  0  0  0  0  0  0999 V2000
   36.1370   30.4400   49.1910 C   0  0  0  0  0  0  0  0  0  0  0  0
   36.0570   29.8750   50.4720 C   0  0  0  0  0  0  0  0  0  0  0  0
   35.0010   28.9840   50.5080 C   0  0  0  0  0  0  0  0  0  0  0  0
   34.4650   29.0240   49.2630 N   0  0  0  0  0  0  0  0  0  0  0  0
   35.1220   29.8680   48.4980 N   0  0  0  0  0  0  0  0  0  0  0  0
   36.7040   30.0730   51.3390 H   0  0  0  0  0  0  0  0  0  0  0  0
   34.6910   28.3950   51.3590 H   0  0  0  0  0  0  0  0  0  0  0  0
   38.3640   33.3920   49.2170 C   0  0  0  0  0  0  0  0  0  0  0  0
   39.1620   33.1180   48.1090 C   0  0  0  0  0  0  0  0  0  0  0  0
   38.9230   31.9510   47.3950 C   0  0  0  0  0  0  0  0  0  0  0  0
   37.9160   31.1110   47.7970 N   0  0  0  0  0  0  0  0  0  0  0  0
   37.1630   31.4130   48.8790 C   0  0  0  0  0  0  0  0  0  0  0  0
   37.3860   32.5430   49.5790 N   0  0  0  0  0  0  0  0  0  0  0  0
   38.4450   34.2520   49.8460 H   0  0  0  0  0  0  0  0  0  0  0  0
   39.9380   33.8370   47.8590 H   0  0  0  0  0  0  0  0  0  0  0  0
   39.5380   31.7300   46.5340 H   0  0  0  0  0  0  0  0  0  0  0  0
   33.3240   28.2050   48.9330 C   0  0  0  0  0  0  0  0  0  0  0  0
   33.7660   27.1340   47.9760 C   0  0  0  0  0  0  0  0  0  0  0  0
   34.3000   27.6160   47.1310 H   0  0  0  0  0  0  0  0  0  0  0  0
  1  2  1  0  0  0  0
  2  3  2  0  0  0  0
  2  6  1  0  0  0  0
  3  7  1  0  0  0  0
  4  3  1  0  0  0  0
  5  1  2  0  0  0  0
  5  4  1  0  0  0  0
  8 13  1  0  0  0  0
  8 14  1  0  0  0  0
  9  8  2  0  0  0  0
 10 11  2  0  0  0  0
 10  9  1  0  0  0  0
 11 12  1  0  0  0  0
 12  1  1  0  0  0  0
 12 13  2  0  0  0  0
 15  9  1  0  0  0  0
 16 10  1  0  0  0  0
 17  4  1  0  0  0  0
 18 17  1  0  0  0  0
 19 18  1  0  0  0  0
M  END
>  <minimizedAffinity>
-4.37731123

>  <minimizedRMSD>
0.965241134

$$$$
