
 OpenBabel03252513023D

 28 29  0  0  0  0  0  0  0  0999 V2000
   37.5590   31.2260   46.9810 C   0  0  0  0  0  0  0  0  0  0  0  0
   37.3400   30.1540   46.7020 H   0  0  0  0  0  0  0  0  0  0  0  0
   36.5340   31.6680   47.1310 H   0  0  0  0  0  0  0  0  0  0  0  0
   38.1590   31.8670   45.8850 N   0  0  0  0  0  0  0  0  0  0  0  0
   39.2590   32.5990   45.8280 C   0  0  0  0  0  0  0  0  0  0  0  0
   39.7710   33.1900   44.7020 C   0  0  0  0  0  0  0  0  0  0  0  0
   39.1210   33.0360   43.5100 C   0  0  0  0  0  0  0  0  0  0  0  0
   39.5140   33.5370   42.4380 O   0  0  0  0  0  0  0  0  0  0  0  0
   38.0180   32.3120   43.5300 N   0  0  0  0  0  0  0  0  0  0  0  0
   37.5490   31.7500   44.6530 C   0  0  0  0  0  0  0  0  0  0  0  0
   36.4840   31.0770   44.5560 O   0  0  0  0  0  0  0  0  0  0  0  0
   39.7900   32.7280   46.7820 H   0  0  0  0  0  0  0  0  0  0  0  0
   40.6780   33.7670   44.7670 H   0  0  0  0  0  0  0  0  0  0  0  0
   37.2920   32.1240   42.2740 C   0  0  0  0  0  0  0  0  0  0  0  0
   36.2700   33.1880   42.0490 C   0  0  0  0  0  0  0  0  0  0  0  0
   36.3930   34.0730   42.7010 H   0  0  0  0  0  0  0  0  0  0  0  0
   38.2350   31.2080   48.2860 C   0  0  0  0  0  0  0  0  0  0  0  0
   38.5020   32.2300   48.6250 H   0  0  0  0  0  0  0  0  0  0  0  0
   39.2310   30.6980   48.1440 H   0  0  0  0  0  0  0  0  0  0  0  0
   35.6700   29.1960   50.2140 C   0  0  0  0  0  0  0  0  0  0  0  0
   36.3420   29.8090   49.1210 C   0  0  0  0  0  0  0  0  0  0  0  0
   37.4830   30.5440   49.3620 C   0  0  0  0  0  0  0  0  0  0  0  0
   37.9020   30.6400   50.6480 N   0  0  0  0  0  0  0  0  0  0  0  0
   37.2810   30.0720   51.6710 C   0  0  0  0  0  0  0  0  0  0  0  0
   36.1720   29.3540   51.4570 N   0  0  0  0  0  0  0  0  0  0  0  0
   34.7680   28.6160   50.0130 H   0  0  0  0  0  0  0  0  0  0  0  0
   35.9590   29.6950   48.1230 H   0  0  0  0  0  0  0  0  0  0  0  0
   37.7180   30.2240   52.6510 H   0  0  0  0  0  0  0  0  0  0  0  0
  1  3  1  0  0  0  0
  1 17  1  0  0  0  0
  2  1  1  0  0  0  0
  4  1  1  0  0  0  0
  5  4  1  0  0  0  0
  5 12  1  0  0  0  0
  6 13  1  0  0  0  0
  6  5  2  0  0  0  0
  7  9  1  0  0  0  0
  7  6  1  0  0  0  0
  8  7  2  0  0  0  0
  9 10  1  0  0  0  0
 10  4  1  0  0  0  0
 11 10  2  0  0  0  0
 14  9  1  0  0  0  0
 15 14  1  0  0  0  0
 15 16  1  0  0  0  0
 17 18  1  0  0  0  0
 17 22  1  0  0  0  0
 19 17  1  0  0  0  0
 20 25  1  0  0  0  0
 21 22  1  0  0  0  0
 21 20  2  0  0  0  0
 22 23  2  0  0  0  0
 23 24  1  0  0  0  0
 24 28  1  0  0  0  0
 25 24  2  0  0  0  0
 26 20  1  0  0  0  0
 27 21  1  0  0  0  0
M  END
>  <minimizedAffinity>
-4.90689135

>  <minimizedRMSD>
1.08364403

$$$$
