
 OpenBabel03252514023D

 30 32  0  0  1  0  0  0  0  0999 V2000
   35.4910   29.4750   49.1690 C   0  0  2  0  0  0  0  0  0  0  0  0
   34.4580   29.4900   50.2150 C   0  0  0  0  0  0  0  0  0  0  0  0
   34.7000   28.2120   49.5650 C   0  0  1  0  0  0  0  0  0  0  0  0
   35.3380   29.7750   48.1460 H   0  0  0  0  0  0  0  0  0  0  0  0
   33.5330   30.0860   49.9590 H   0  0  0  0  0  0  0  0  0  0  0  0
   34.7420   29.6850   51.2810 H   0  0  0  0  0  0  0  0  0  0  0  0
   35.3680   27.4230   49.9470 H   0  0  0  0  0  0  0  0  0  0  0  0
   36.9460   29.4140   49.6340 C   0  0  0  0  0  0  0  0  0  0  0  0
   36.9440   29.4790   50.7410 H   0  0  0  0  0  0  0  0  0  0  0  0
   37.4140   28.4370   49.3800 H   0  0  0  0  0  0  0  0  0  0  0  0
   38.4170   32.7570   49.3600 C   0  0  0  0  0  0  0  0  0  0  0  0
   38.9230   32.7760   48.0510 C   0  0  0  0  0  0  0  0  0  0  0  0
   38.7480   31.6190   47.2710 C   0  0  0  0  0  0  0  0  0  0  0  0
   38.1010   30.5560   47.8330 N   0  0  0  0  0  0  0  0  0  0  0  0
   37.6350   30.5850   49.0870 C   0  0  0  0  0  0  0  0  0  0  0  0
   37.7970   31.6920   49.8460 N   0  0  0  0  0  0  0  0  0  0  0  0
   38.5710   33.6570   49.9230 H   0  0  0  0  0  0  0  0  0  0  0  0
   39.4380   33.6140   47.5990 H   0  0  0  0  0  0  0  0  0  0  0  0
   39.1010   31.5370   46.2570 H   0  0  0  0  0  0  0  0  0  0  0  0
   33.6320   27.7450   48.6200 C   0  0  0  0  0  0  0  0  0  0  0  0
   34.0600   27.0080   47.6510 O   0  0  0  0  0  0  0  0  0  0  0  0
   32.2820   28.0350   48.7300 O   0  0  0  0  0  0  0  0  0  0  0  0
   31.3770   27.6040   47.8000 C   0  0  0  0  0  0  0  0  0  0  0  0
   31.1360   28.5670   46.8120 C   0  0  0  0  0  3  0  0  0  0  0  0
   30.2360   28.2940   45.7780 C   0  0  0  0  0  0  0  0  0  0  0  0
   30.0260   29.0160   44.9970 H   0  0  0  0  0  0  0  0  0  0  0  0
   29.5860   27.0760   45.7360 C   0  0  0  0  0  3  0  0  0  0  0  0
   29.8220   26.1240   46.7120 C   0  0  0  0  0  0  0  0  0  0  0  0
   29.3620   25.1500   46.7570 H   0  0  0  0  0  0  0  0  0  0  0  0
   30.7200   26.4120   47.7310 C   0  0  0  0  0  3  0  0  0  0  0  0
  1  4  1  6  0  0  0
  1  3  1  0  0  0  0
  1  8  1  0  0  0  0
  1  2  1  0  0  0  0
  2  6  1  0  0  0  0
  3  7  1  1  0  0  0
  3  2  1  0  0  0  0
  5  2  1  0  0  0  0
  8  9  1  0  0  0  0
 10  8  1  0  0  0  0
 11 16  1  0  0  0  0
 11 17  1  0  0  0  0
 12 11  2  0  0  0  0
 13 14  2  0  0  0  0
 13 12  1  0  0  0  0
 14 15  1  0  0  0  0
 15  8  1  0  0  0  0
 15 16  2  0  0  0  0
 18 12  1  0  0  0  0
 19 13  1  0  0  0  0
 20 22  1  0  0  0  0
 20  3  1  0  0  0  0
 21 20  2  0  0  0  0
 23 22  1  0  0  0  0
 24 23  2  0  0  0  0
 25 24  1  0  0  0  0
 26 25  1  0  0  0  0
 27 25  2  0  0  0  0
 27 28  1  0  0  0  0
 28 29  1  0  0  0  0
 28 30  2  0  0  0  0
 30 23  1  0  0  0  0
M  END
>  <minimizedAffinity>
-4.92545652

>  <minimizedRMSD>
0.378089458

$$$$
