
 OpenBabel03252512013D

 20 21  0  0  0  0  0  0  0  0999 V2000
   38.3550   31.4010   49.9130 C   0  0  0  0  0  0  0  0  0  0  0  0
   39.1280   30.6550   49.5790 H   0  0  0  0  0  0  0  0  0  0  0  0
   38.6850   31.8390   50.8750 H   0  0  0  0  0  0  0  0  0  0  0  0
   36.8850   29.8570   51.1120 C   0  0  0  0  0  0  0  0  0  0  0  0
   37.0720   30.7520   50.0560 C   0  0  0  0  0  0  0  0  0  0  0  0
   36.0130   30.9760   49.1870 C   0  0  0  0  0  0  0  0  0  0  0  0
   34.8340   30.3110   49.4020 N   0  0  0  0  0  0  0  0  0  0  0  0
   34.6760   29.4460   50.4330 C   0  0  0  0  0  0  0  0  0  0  0  0
   35.7010   29.2260   51.2800 N   0  0  0  0  0  0  0  0  0  0  0  0
   37.6550   29.6230   51.8370 H   0  0  0  0  0  0  0  0  0  0  0  0
   36.0700   31.6480   48.3460 H   0  0  0  0  0  0  0  0  0  0  0  0
   33.6930   28.9860   50.4910 H   0  0  0  0  0  0  0  0  0  0  0  0
   38.2400   32.5110   48.8930 C   0  0  0  0  0  0  0  0  0  0  0  0
   37.1710   32.6610   48.5920 H   0  0  0  0  0  0  0  0  0  0  0  0
   38.5800   33.4650   49.3670 H   0  0  0  0  0  0  0  0  0  0  0  0
   38.9910   32.2680   47.6260 C   0  0  0  0  0  0  0  0  0  0  0  0
   38.1300   32.0500   46.4100 C   0  0  0  0  0  0  0  0  0  0  0  0
   39.0620   32.2950   45.2410 C   0  0  0  0  0  0  0  0  0  0  0  0
   40.2290   33.1020   45.7610 C   0  0  0  0  0  0  0  0  0  0  0  0
   39.8360   33.4430   47.2030 C   0  0  0  0  0  0  0  0  0  0  0  0
  1  5  1  0  0  0  0
  1  3  1  0  0  0  0
  2  1  1  0  0  0  0
  4  9  1  0  0  0  0
  4 10  1  0  0  0  0
  5  4  2  0  0  0  0
  6  7  2  0  0  0  0
  6  5  1  0  0  0  0
  7  8  1  0  0  0  0
  8 12  1  0  0  0  0
  8  9  2  0  0  0  0
 11  6  1  0  0  0  0
 13 15  1  0  0  0  0
 13  1  1  0  0  0  0
 14 13  1  0  0  0  0
 16 13  1  0  0  0  0
 17 16  1  0  0  0  0
 18 19  1  0  0  0  0
 18 17  1  0  0  0  0
 19 20  1  0  0  0  0
 20 16  1  0  0  0  0
M  END
>  <minimizedAffinity>
-4.80942535

>  <minimizedRMSD>
2.28970432

$$$$
