
 OpenBabel03252514023D

 30 32  0  0  1  0  0  0  0  0999 V2000
   35.5320   29.5010   49.1500 C   0  0  2  0  0  0  0  0  0  0  0  0
   34.5060   29.5680   50.2020 C   0  0  0  0  0  0  0  0  0  0  0  0
   34.7460   28.2580   49.6180 C   0  0  1  0  0  0  0  0  0  0  0  0
   35.3720   29.7460   48.1140 H   0  0  0  0  0  0  0  0  0  0  0  0
   33.5790   30.1500   49.9220 H   0  0  0  0  0  0  0  0  0  0  0  0
   34.7970   29.8200   51.2540 H   0  0  0  0  0  0  0  0  0  0  0  0
   35.4180   27.4910   50.0360 H   0  0  0  0  0  0  0  0  0  0  0  0
   36.9910   29.4650   49.6080 C   0  0  0  0  0  0  0  0  0  0  0  0
   36.9930   29.5440   50.7140 H   0  0  0  0  0  0  0  0  0  0  0  0
   37.4700   28.4930   49.3630 H   0  0  0  0  0  0  0  0  0  0  0  0
   38.3890   32.8340   49.2750 C   0  0  0  0  0  0  0  0  0  0  0  0
   38.9110   32.8350   47.9720 C   0  0  0  0  0  0  0  0  0  0  0  0
   38.7720   31.6570   47.2170 C   0  0  0  0  0  0  0  0  0  0  0  0
   38.1420   30.5930   47.7950 N   0  0  0  0  0  0  0  0  0  0  0  0
   37.6590   30.6390   49.0420 C   0  0  0  0  0  0  0  0  0  0  0  0
   37.7870   31.7660   49.7780 N   0  0  0  0  0  0  0  0  0  0  0  0
   38.5150   33.7500   49.8190 H   0  0  0  0  0  0  0  0  0  0  0  0
   39.4120   33.6740   47.5070 H   0  0  0  0  0  0  0  0  0  0  0  0
   39.1390   31.5600   46.2090 H   0  0  0  0  0  0  0  0  0  0  0  0
   33.6720   27.7410   48.7070 C   0  0  0  0  0  0  0  0  0  0  0  0
   34.1010   26.9950   47.7440 O   0  0  0  0  0  0  0  0  0  0  0  0
   32.3170   27.9960   48.8390 O   0  0  0  0  0  0  0  0  0  0  0  0
   31.4520   27.8420   47.7910 C   0  0  0  0  0  0  0  0  0  0  0  0
   30.6060   26.7400   47.9620 C   0  0  0  0  0  3  0  0  0  0  0  0
   29.6570   26.4320   46.9820 C   0  0  0  0  0  0  0  0  0  0  0  0
   28.9870   25.5860   47.0820 H   0  0  0  0  0  0  0  0  0  0  0  0
   29.5570   27.2170   45.8500 C   0  0  0  0  0  3  0  0  0  0  0  0
   30.3920   28.3080   45.6810 C   0  0  0  0  0  0  0  0  0  0  0  0
   30.3840   28.9730   44.8320 H   0  0  0  0  0  0  0  0  0  0  0  0
   31.3290   28.5980   46.6630 C   0  0  0  0  0  3  0  0  0  0  0  0
  1  4  1  6  0  0  0
  1  8  1  0  0  0  0
  1  3  1  0  0  0  0
  1  2  1  0  0  0  0
  2  6  1  0  0  0  0
  3  7  1  1  0  0  0
  3  2  1  0  0  0  0
  5  2  1  0  0  0  0
  8  9  1  0  0  0  0
 10  8  1  0  0  0  0
 11 16  1  0  0  0  0
 11 17  1  0  0  0  0
 12 11  2  0  0  0  0
 13 14  2  0  0  0  0
 13 12  1  0  0  0  0
 14 15  1  0  0  0  0
 15  8  1  0  0  0  0
 15 16  2  0  0  0  0
 18 12  1  0  0  0  0
 19 13  1  0  0  0  0
 20 22  1  0  0  0  0
 20  3  1  0  0  0  0
 21 20  2  0  0  0  0
 23 24  1  0  0  0  0
 23 22  1  0  0  0  0
 25 26  1  0  0  0  0
 25 24  2  0  0  0  0
 27 25  1  0  0  0  0
 28 27  2  0  0  0  0
 28 30  1  0  0  0  0
 29 28  1  0  0  0  0
 30 23  2  0  0  0  0
M  END
>  <minimizedAffinity>
-4.93649197

>  <minimizedRMSD>
0.431271672

$$$$
