
 OpenBabel03252511413D

 33 35  0  0  1  0  0  0  0  0999 V2000
   35.4950   29.0580   48.3960 C   0  0  0  0  0  0  0  0  0  0  0  0
   35.1360   28.1240   48.9220 H   0  0  0  0  0  0  0  0  0  0  0  0
   36.5740   28.7550   48.1820 H   0  0  0  0  0  0  0  0  0  0  0  0
   34.9050   29.2790   47.1230 C   0  0  0  0  0  0  0  0  0  0  0  0
   34.9550   30.2140   46.1270 C   0  0  0  0  0  0  0  0  0  0  0  0
   34.1480   29.8980   45.0820 N   0  0  0  0  0  0  0  0  0  0  0  0
   33.5580   28.7390   45.3880 C   0  0  0  0  0  0  0  0  0  0  0  0
   34.0260   28.3780   46.6250 N   0  0  0  0  0  0  0  0  0  0  0  0
   35.6040   31.1000   46.2380 H   0  0  0  0  0  0  0  0  0  0  0  0
   32.8590   28.2320   44.7550 H   0  0  0  0  0  0  0  0  0  0  0  0
   33.5470   27.1180   47.2130 C   0  0  0  0  0  0  0  0  0  0  0  0
   33.9630   26.2400   46.6740 H   0  0  0  0  0  0  0  0  0  0  0  0
   33.8890   26.9790   48.2550 H   0  0  0  0  0  0  0  0  0  0  0  0
   32.0570   26.9890   47.2180 C   0  0  0  0  0  0  0  0  0  0  0  0
   31.5160   28.2550   47.8710 C   0  0  0  0  0  0  0  0  0  0  0  0
   30.9920   27.7590   49.2020 C   0  0  0  0  0  0  0  0  0  0  0  0
   30.3260   26.4500   48.7560 C   0  0  0  0  0  0  0  0  0  0  0  0
   31.5030   25.8400   47.9820 C   0  0  0  0  0  0  0  0  0  0  0  0
   35.5850   30.1430   49.3600 C   0  0  2  0  0  0  0  0  0  0  0  0
   34.6820   30.7510   49.4120 H   0  0  0  0  0  0  0  0  0  0  0  0
   36.7640   31.0540   49.0950 C   0  0  0  0  0  0  0  0  0  0  0  0
   36.8150   32.2500   49.8050 C   0  0  0  0  0  0  0  0  0  0  0  0
   37.9190   33.0780   49.5090 C   0  0  0  0  0  0  0  0  0  0  0  0
   38.8300   32.6780   48.5880 N   0  0  0  0  0  0  0  0  0  0  0  0
   38.7350   31.4910   47.9150 C   0  0  0  0  0  0  0  0  0  0  0  0
   37.6840   30.6650   48.1740 N   0  0  0  0  0  0  0  0  0  0  0  0
   36.0450   32.4920   50.5240 H   0  0  0  0  0  0  0  0  0  0  0  0
   37.9980   34.0090   50.0340 H   0  0  0  0  0  0  0  0  0  0  0  0
   39.4870   31.2330   47.2000 H   0  0  0  0  0  0  0  0  0  0  0  0
   35.8140   29.4970   50.7800 C   0  0  0  0  0  0  0  0  0  0  0  0
   35.7400   28.4120   50.7150 H   0  0  0  0  0  0  0  0  0  0  0  0
   35.1300   29.9780   51.4840 H   0  0  0  0  0  0  0  0  0  0  0  0
   36.8430   29.7670   51.1280 H   0  0  0  0  0  0  0  0  0  0  0  0
  1  2  1  0  0  0  0
  1 19  1  0  0  0  0
  3  1  1  0  0  0  0
  4  1  1  0  0  0  0
  5  9  1  0  0  0  0
  5  4  2  0  0  0  0
  6  7  2  0  0  0  0
  6  5  1  0  0  0  0
  7  8  1  0  0  0  0
  8  4  1  0  0  0  0
  8 11  1  0  0  0  0
 10  7  1  0  0  0  0
 11 14  1  0  0  0  0
 11 13  1  0  0  0  0
 12 11  1  0  0  0  0
 14 15  1  0  0  0  0
 14 18  1  0  0  0  0
 15 16  1  0  0  0  0
 17 16  1  0  0  0  0
 18 17  1  0  0  0  0
 19 20  1  6  0  0  0
 19 30  1  0  0  0  0
 21 19  1  0  0  0  0
 21 22  1  0  0  0  0
 22 27  1  0  0  0  0
 23 22  2  0  0  0  0
 23 28  1  0  0  0  0
 24 23  1  0  0  0  0
 25 26  1  0  0  0  0
 25 24  2  0  0  0  0
 26 21  2  0  0  0  0
 29 25  1  0  0  0  0
 30 33  1  0  0  0  0
 30 32  1  0  0  0  0
 31 30  1  0  0  0  0
M  END
>  <minimizedAffinity>
-4.26441383

>  <minimizedRMSD>
2.22054124

$$$$
