
 OpenBabel03252513083D

 39 41  0  0  0  0  0  0  0  0999 V2000
   36.6650   30.8380   44.6670 C   0  0  0  0  0  0  0  0  0  0  0  0
   36.2040   31.4590   43.8510 H   0  0  0  0  0  0  0  0  0  0  0  0
   37.1400   31.5830   45.3650 H   0  0  0  0  0  0  0  0  0  0  0  0
   33.5570   28.9040   45.5380 C   0  0  0  0  0  0  0  0  0  0  0  0
   34.5660   29.5750   44.7930 C   0  0  0  0  0  0  0  0  0  0  0  0
   35.6340   30.1530   45.4100 C   0  0  0  0  0  0  0  0  0  0  0  0
   35.6800   30.0550   46.7760 N   0  0  0  0  0  0  0  0  0  0  0  0
   34.7460   29.4330   47.4640 C   0  0  0  0  0  0  0  0  0  0  0  0
   33.6960   28.8590   46.9050 N   0  0  0  0  0  0  0  0  0  0  0  0
   32.7030   28.4370   45.0730 H   0  0  0  0  0  0  0  0  0  0  0  0
   34.3740   29.5590   43.7510 H   0  0  0  0  0  0  0  0  0  0  0  0
   34.8290   29.3440   48.9630 C   0  0  0  0  0  0  0  0  0  0  0  0
   33.9810   28.7490   49.3660 H   0  0  0  0  0  0  0  0  0  0  0  0
   35.7800   28.8500   49.1820 H   0  0  0  0  0  0  0  0  0  0  0  0
   34.7440   30.7190   49.5720 C   0  0  0  0  0  0  0  0  0  0  0  0
   34.7650   31.5210   48.8050 H   0  0  0  0  0  0  0  0  0  0  0  0
   33.8590   30.8420   50.2040 H   0  0  0  0  0  0  0  0  0  0  0  0
   35.9670   30.9290   50.4360 C   0  0  0  0  0  0  0  0  0  0  0  0
   36.8990   31.9830   49.9510 C   0  0  0  0  0  0  0  0  0  0  0  0
   38.2440   31.3460   49.8010 C   0  0  0  0  0  0  0  0  0  0  0  0
   38.0520   29.8690   49.8740 C   0  0  0  0  0  0  0  0  0  0  0  0
   36.7530   29.6380   50.5730 C   0  0  0  0  0  0  0  0  0  0  0  0
   37.7360   29.9970   44.1150 C   0  0  0  0  0  0  0  0  0  0  0  0
   38.5220   29.9240   44.9300 H   0  0  0  0  0  0  0  0  0  0  0  0
   37.3860   28.9620   44.0070 H   0  0  0  0  0  0  0  0  0  0  0  0
   38.4230   30.4110   42.9590 N   0  0  0  0  0  0  0  0  0  0  0  0
   38.1630   31.4480   42.1590 C   0  0  0  0  0  0  0  0  0  0  0  0
   38.8830   31.7990   41.0470 C   0  0  0  0  0  0  0  0  0  0  0  0
   39.9670   31.0490   40.6920 C   0  0  0  0  0  0  0  0  0  0  0  0
   40.6720   31.2990   39.7000 O   0  0  0  0  0  0  0  0  0  0  0  0
   40.2430   30.0220   41.4660 N   0  0  0  0  0  0  0  0  0  0  0  0
   39.5350   29.6990   42.5360 C   0  0  0  0  0  0  0  0  0  0  0  0
   39.8760   28.6850   43.2260 O   0  0  0  0  0  0  0  0  0  0  0  0
   37.2910   32.0500   42.4470 H   0  0  0  0  0  0  0  0  0  0  0  0
   38.5820   32.6650   40.4660 H   0  0  0  0  0  0  0  0  0  0  0  0
   41.4010   29.2050   41.1080 C   0  0  0  0  0  0  0  0  0  0  0  0
   42.0880   28.8230   42.2460 F   0  0  0  0  0  0  0  0  0  0  0  0
   42.2350   29.9740   40.3330 F   0  0  0  0  0  0  0  0  0  0  0  0
   40.9540   28.1130   40.4250 F   0  0  0  0  0  0  0  0  0  0  0  0
  1  3  1  0  0  0  0
  1  6  1  0  0  0  0
  2  1  1  0  0  0  0
  4  9  1  0  0  0  0
  5  6  1  0  0  0  0
  5  4  2  0  0  0  0
  6  7  2  0  0  0  0
  7  8  1  0  0  0  0
  8 12  1  0  0  0  0
  9  8  2  0  0  0  0
 10  4  1  0  0  0  0
 11  5  1  0  0  0  0
 12 14  1  0  0  0  0
 12 13  1  0  0  0  0
 12 15  1  0  0  0  0
 15 17  1  0  0  0  0
 15 18  1  0  0  0  0
 16 15  1  0  0  0  0
 18 22  1  0  0  0  0
 19 18  1  0  0  0  0
 20 21  1  0  0  0  0
 20 19  1  0  0  0  0
 21 22  1  0  0  0  0
 23  1  1  0  0  0  0
 23 24  1  0  0  0  0
 25 23  1  0  0  0  0
 26 23  1  0  0  0  0
 27 34  1  0  0  0  0
 27 26  1  0  0  0  0
 28 27  2  0  0  0  0
 29 28  1  0  0  0  0
 29 31  1  0  0  0  0
 30 29  2  0  0  0  0
 31 32  1  0  0  0  0
 32 26  1  0  0  0  0
 32 33  2  0  0  0  0
 35 28  1  0  0  0  0
 36 31  1  0  0  0  0
 36 37  1  0  0  0  0
 38 36  1  0  0  0  0
 39 36  1  0  0  0  0
M  END
>  <minimizedAffinity>
-5.31413031

>  <minimizedRMSD>
4.25729465

$$$$
