
 OpenBabel03252514023D

 30 32  0  0  1  0  0  0  0  0999 V2000
   35.4690   29.4400   49.1070 C   0  0  2  0  0  0  0  0  0  0  0  0
   34.4660   29.5260   50.1800 C   0  0  0  0  0  0  0  0  0  0  0  0
   34.6500   28.2180   49.5720 C   0  0  1  0  0  0  0  0  0  0  0  0
   35.2990   29.7060   48.0780 H   0  0  0  0  0  0  0  0  0  0  0  0
   33.5550   30.1440   49.9260 H   0  0  0  0  0  0  0  0  0  0  0  0
   34.7860   29.7520   51.2290 H   0  0  0  0  0  0  0  0  0  0  0  0
   35.3030   27.4220   49.9660 H   0  0  0  0  0  0  0  0  0  0  0  0
   36.9340   29.3470   49.5370 C   0  0  0  0  0  0  0  0  0  0  0  0
   36.9570   29.3560   50.6450 H   0  0  0  0  0  0  0  0  0  0  0  0
   37.3900   28.3830   49.2230 H   0  0  0  0  0  0  0  0  0  0  0  0
   38.3740   32.7120   49.3820 C   0  0  0  0  0  0  0  0  0  0  0  0
   38.8970   32.7750   48.0810 C   0  0  0  0  0  0  0  0  0  0  0  0
   38.7440   31.6410   47.2650 C   0  0  0  0  0  0  0  0  0  0  0  0
   38.1010   30.5550   47.7860 N   0  0  0  0  0  0  0  0  0  0  0  0
   37.6180   30.5410   49.0330 C   0  0  0  0  0  0  0  0  0  0  0  0
   37.7590   31.6260   49.8280 N   0  0  0  0  0  0  0  0  0  0  0  0
   38.5110   33.5970   49.9740 H   0  0  0  0  0  0  0  0  0  0  0  0
   39.4080   33.6320   47.6610 H   0  0  0  0  0  0  0  0  0  0  0  0
   39.1110   31.5930   46.2530 H   0  0  0  0  0  0  0  0  0  0  0  0
   33.5420   27.7520   48.6740 C   0  0  0  0  0  0  0  0  0  0  0  0
   33.9310   27.0430   47.6680 O   0  0  0  0  0  0  0  0  0  0  0  0
   32.1950   28.0160   48.8590 O   0  0  0  0  0  0  0  0  0  0  0  0
   31.2870   27.8570   47.8500 C   0  0  0  0  0  0  0  0  0  0  0  0
   30.4370   26.7660   48.0700 C   0  0  0  0  0  3  0  0  0  0  0  0
   29.4440   26.4560   47.1360 C   0  0  0  0  0  0  0  0  0  0  0  0
   28.7700   25.6190   47.2750 H   0  0  0  0  0  0  0  0  0  0  0  0
   29.3040   27.2280   45.9990 C   0  0  0  0  0  3  0  0  0  0  0  0
   30.1420   28.3070   45.7810 C   0  0  0  0  0  0  0  0  0  0  0  0
   30.1060   28.9630   44.9250 H   0  0  0  0  0  0  0  0  0  0  0  0
   31.1240   28.6010   46.7200 C   0  0  0  0  0  3  0  0  0  0  0  0
  1  4  1  6  0  0  0
  1  8  1  0  0  0  0
  1  3  1  0  0  0  0
  1  2  1  0  0  0  0
  2  6  1  0  0  0  0
  3  7  1  1  0  0  0
  3  2  1  0  0  0  0
  5  2  1  0  0  0  0
  8  9  1  0  0  0  0
 10  8  1  0  0  0  0
 11 16  1  0  0  0  0
 11 17  1  0  0  0  0
 12 11  2  0  0  0  0
 13 14  2  0  0  0  0
 13 12  1  0  0  0  0
 14 15  1  0  0  0  0
 15  8  1  0  0  0  0
 15 16  2  0  0  0  0
 18 12  1  0  0  0  0
 19 13  1  0  0  0  0
 20 22  1  0  0  0  0
 20  3  1  0  0  0  0
 21 20  2  0  0  0  0
 23 24  1  0  0  0  0
 23 22  1  0  0  0  0
 25 26  1  0  0  0  0
 25 24  2  0  0  0  0
 27 25  1  0  0  0  0
 28 27  2  0  0  0  0
 28 30  1  0  0  0  0
 29 28  1  0  0  0  0
 30 23  2  0  0  0  0
M  END
>  <minimizedAffinity>
-4.97480726

>  <minimizedRMSD>
0.668787479

$$$$
