
 OpenBabel03252514023D

 30 32  0  0  1  0  0  0  0  0999 V2000
   35.4900   29.4770   49.1720 C   0  0  2  0  0  0  0  0  0  0  0  0
   34.4580   29.4860   50.2190 C   0  0  0  0  0  0  0  0  0  0  0  0
   34.7010   28.2110   49.5640 C   0  0  1  0  0  0  0  0  0  0  0  0
   35.3370   29.7800   48.1500 H   0  0  0  0  0  0  0  0  0  0  0  0
   33.5330   30.0830   49.9660 H   0  0  0  0  0  0  0  0  0  0  0  0
   34.7430   29.6780   51.2850 H   0  0  0  0  0  0  0  0  0  0  0  0
   35.3700   27.4210   49.9420 H   0  0  0  0  0  0  0  0  0  0  0  0
   36.9460   29.4150   49.6360 C   0  0  0  0  0  0  0  0  0  0  0  0
   36.9450   29.4800   50.7420 H   0  0  0  0  0  0  0  0  0  0  0  0
   37.4130   28.4380   49.3820 H   0  0  0  0  0  0  0  0  0  0  0  0
   38.4190   32.7570   49.3590 C   0  0  0  0  0  0  0  0  0  0  0  0
   38.9240   32.7750   48.0490 C   0  0  0  0  0  0  0  0  0  0  0  0
   38.7470   31.6180   47.2700 C   0  0  0  0  0  0  0  0  0  0  0  0
   38.1000   30.5560   47.8330 N   0  0  0  0  0  0  0  0  0  0  0  0
   37.6350   30.5850   49.0870 C   0  0  0  0  0  0  0  0  0  0  0  0
   37.7990   31.6920   49.8460 N   0  0  0  0  0  0  0  0  0  0  0  0
   38.5740   33.6580   49.9220 H   0  0  0  0  0  0  0  0  0  0  0  0
   39.4380   33.6130   47.5970 H   0  0  0  0  0  0  0  0  0  0  0  0
   39.0990   31.5360   46.2560 H   0  0  0  0  0  0  0  0  0  0  0  0
   33.6330   27.7470   48.6180 C   0  0  0  0  0  0  0  0  0  0  0  0
   34.0610   27.0150   47.6450 O   0  0  0  0  0  0  0  0  0  0  0  0
   32.2820   28.0360   48.7290 O   0  0  0  0  0  0  0  0  0  0  0  0
   31.3770   27.6040   47.8010 C   0  0  0  0  0  0  0  0  0  0  0  0
   31.1330   28.5670   46.8130 C   0  0  0  0  0  3  0  0  0  0  0  0
   30.2330   28.2940   45.7800 C   0  0  0  0  0  0  0  0  0  0  0  0
   30.0210   29.0150   45.0000 H   0  0  0  0  0  0  0  0  0  0  0  0
   29.5860   27.0750   45.7370 C   0  0  0  0  0  3  0  0  0  0  0  0
   29.8240   26.1220   46.7120 C   0  0  0  0  0  0  0  0  0  0  0  0
   29.3660   25.1460   46.7580 H   0  0  0  0  0  0  0  0  0  0  0  0
   30.7230   26.4110   47.7310 C   0  0  0  0  0  3  0  0  0  0  0  0
  1  4  1  6  0  0  0
  1  3  1  0  0  0  0
  1  8  1  0  0  0  0
  1  2  1  0  0  0  0
  2  6  1  0  0  0  0
  3  7  1  1  0  0  0
  3  2  1  0  0  0  0
  5  2  1  0  0  0  0
  8  9  1  0  0  0  0
 10  8  1  0  0  0  0
 11 16  1  0  0  0  0
 11 17  1  0  0  0  0
 12 11  2  0  0  0  0
 13 14  2  0  0  0  0
 13 12  1  0  0  0  0
 14 15  1  0  0  0  0
 15  8  1  0  0  0  0
 15 16  2  0  0  0  0
 18 12  1  0  0  0  0
 19 13  1  0  0  0  0
 20 22  1  0  0  0  0
 20  3  1  0  0  0  0
 21 20  2  0  0  0  0
 23 22  1  0  0  0  0
 24 23  2  0  0  0  0
 25 24  1  0  0  0  0
 26 25  1  0  0  0  0
 27 25  2  0  0  0  0
 27 28  1  0  0  0  0
 28 29  1  0  0  0  0
 28 30  2  0  0  0  0
 30 23  1  0  0  0  0
M  END
>  <minimizedAffinity>
-4.92575788

>  <minimizedRMSD>
0.461983711

$$$$
