
 OpenBabel03252513583D

 31 34  0  0  1  0  0  0  0  0999 V2000
   35.9450   30.0810   49.8560 C   0  0  2  0  0  0  0  0  0  0  0  0
   35.0480   29.2140   50.6510 C   0  0  0  0  0  0  0  0  0  0  0  0
   35.4210   28.7560   49.3030 C   0  0  1  0  0  0  0  0  0  0  0  0
   35.4940   31.0310   49.5160 H   0  0  0  0  0  0  0  0  0  0  0  0
   35.4930   28.6100   51.4940 H   0  0  0  0  0  0  0  0  0  0  0  0
   34.0280   29.5480   50.8710 H   0  0  0  0  0  0  0  0  0  0  0  0
   36.1440   27.9290   49.1610 H   0  0  0  0  0  0  0  0  0  0  0  0
   34.5700   28.9600   48.1070 C   0  0  0  0  0  0  0  0  0  0  0  0
   35.2710   29.6570   47.1670 N   0  0  0  0  0  0  0  0  0  0  0  0
   34.6650   30.0030   45.9930 C   0  0  0  0  0  0  0  0  0  0  0  0
   33.3670   29.6580   45.7570 N   0  0  0  0  0  0  0  0  0  0  0  0
   32.6530   28.9710   46.6640 C   0  0  0  0  0  0  0  0  0  0  0  0
   31.3480   28.5630   46.5210 C   0  0  0  0  0  0  0  0  0  0  0  0
   30.7150   27.8420   47.5280 C   0  0  0  0  0  0  0  0  0  0  0  0
   29.6800   27.5670   47.3180 H   0  0  0  0  0  0  0  0  0  0  0  0
   31.3680   27.5040   48.7150 C   0  0  0  0  0  0  0  0  0  0  0  0
   30.8200   26.9430   49.4580 H   0  0  0  0  0  0  0  0  0  0  0  0
   32.6800   27.9200   48.8470 C   0  0  0  0  0  0  0  0  0  0  0  0
   33.2720   28.6340   47.8280 C   0  0  0  0  0  0  0  0  0  0  0  0
   37.4340   30.0700   50.1470 C   0  0  0  0  0  0  0  0  0  0  0  0
   37.8170   29.0490   49.9910 H   0  0  0  0  0  0  0  0  0  0  0  0
   37.5810   30.3690   51.2070 H   0  0  0  0  0  0  0  0  0  0  0  0
   38.8600   33.2240   48.8750 C   0  0  0  0  0  0  0  0  0  0  0  0
   39.1630   32.9070   47.5480 C   0  0  0  0  0  0  0  0  0  0  0  0
   38.8830   31.6220   47.0830 C   0  0  0  0  0  0  0  0  0  0  0  0
   38.3190   30.7390   47.9780 N   0  0  0  0  0  0  0  0  0  0  0  0
   38.0420   31.0880   49.2550 C   0  0  0  0  0  0  0  0  0  0  0  0
   38.3190   32.3400   49.6940 N   0  0  0  0  0  0  0  0  0  0  0  0
   39.0540   34.2120   49.2980 H   0  0  0  0  0  0  0  0  0  0  0  0
   39.6090   33.6680   46.9070 H   0  0  0  0  0  0  0  0  0  0  0  0
   39.1030   31.3450   46.0730 H   0  0  0  0  0  0  0  0  0  0  0  0
  1  4  1  6  0  0  0
  1 20  1  0  0  0  0
  1  2  1  0  0  0  0
  2  6  1  0  0  0  0
  2  5  1  0  0  0  0
  3  7  1  6  0  0  0
  3  1  1  0  0  0  0
  3  2  1  0  0  0  0
  8  3  1  0  0  0  0
  9  8  2  0  0  0  0
 10  9  1  0  0  0  0
 11 10  2  0  0  0  0
 11 12  1  0  0  0  0
 12 19  1  0  0  0  0
 13 12  2  0  0  0  0
 13 14  1  0  0  0  0
 14 16  2  0  0  0  0
 15 14  1  0  0  0  0
 16 18  1  0  0  0  0
 16 17  1  0  0  0  0
 19  8  1  0  0  0  0
 19 18  2  0  0  0  0
 20 22  1  0  0  0  0
 21 20  1  0  0  0  0
 23 29  1  0  0  0  0
 23 28  1  0  0  0  0
 24 23  2  0  0  0  0
 25 24  1  0  0  0  0
 25 26  2  0  0  0  0
 26 27  1  0  0  0  0
 27 28  2  0  0  0  0
 27 20  1  0  0  0  0
 30 24  1  0  0  0  0
 31 25  1  0  0  0  0
M  END
>  <minimizedAffinity>
-5.84073353

>  <minimizedRMSD>
1.55024695

$$$$
