
 OpenBabel03252514043D

 41 45  0  0  1  0  0  0  0  0999 V2000
   33.2020   27.5070   47.9620 C   0  0  0  0  0  0  0  0  0  0  0  0
   33.7700   26.3500   47.8500 O   0  0  0  0  0  0  0  0  0  0  0  0
   35.2830   29.0500   48.2720 C   0  0  2  0  0  0  0  0  0  0  0  0
   34.0450   29.8080   48.4140 C   0  0  0  0  0  0  0  0  0  0  0  0
   33.9660   28.4530   48.8690 C   0  0  1  0  0  0  0  0  0  0  0  0
   35.5970   28.6560   47.3010 H   0  0  0  0  0  0  0  0  0  0  0  0
   34.0560   30.6590   49.1550 H   0  0  0  0  0  0  0  0  0  0  0  0
   33.4950   30.1330   47.4810 H   0  0  0  0  0  0  0  0  0  0  0  0
   34.0850   28.1100   49.8930 H   0  0  0  0  0  0  0  0  0  0  0  0
   36.3300   29.2450   49.3840 C   0  0  0  0  0  0  0  0  0  0  0  0
   37.0120   28.3540   49.4130 H   0  0  0  0  0  0  0  0  0  0  0  0
   35.8200   29.3100   50.3580 H   0  0  0  0  0  0  0  0  0  0  0  0
   37.5350   32.6850   49.6100 C   0  0  0  0  0  0  0  0  0  0  0  0
   38.4430   32.7640   48.5310 C   0  0  0  0  0  0  0  0  0  0  0  0
   38.6240   31.6060   47.7360 C   0  0  0  0  0  0  0  0  0  0  0  0
   37.9100   30.4800   48.0580 N   0  0  0  0  0  0  0  0  0  0  0  0
   37.0570   30.4700   49.1010 C   0  0  0  0  0  0  0  0  0  0  0  0
   36.8810   31.5760   49.8650 N   0  0  0  0  0  0  0  0  0  0  0  0
   37.3640   33.5420   50.2420 H   0  0  0  0  0  0  0  0  0  0  0  0
   38.9800   33.6570   48.3140 H   0  0  0  0  0  0  0  0  0  0  0  0
   39.3170   31.6500   46.9070 H   0  0  0  0  0  0  0  0  0  0  0  0
   32.0100   27.7740   47.2910 O   0  0  0  0  0  0  0  0  0  0  0  0
   30.8320   28.0480   47.9260 C   0  0  0  0  0  0  0  0  0  0  0  0
   30.5790   27.8520   49.3840 C   0  0  0  0  0  0  0  0  0  0  0  0
   29.3560   28.1750   49.8560 C   0  0  0  0  0  0  0  0  0  0  0  0
   28.3470   28.6790   49.0270 C   0  0  0  0  0  0  0  0  0  0  0  0
   29.1640   28.7200   47.3690 S   0  0  0  0  0  0  0  0  0  0  0  0
   31.4340   27.4610   49.9120 H   0  0  0  0  0  0  0  0  0  0  0  0
   29.2380   27.9730   50.8990 H   0  0  0  0  0  0  0  0  0  0  0  0
   27.0350   29.0580   49.0850 C   0  0  0  0  0  0  0  0  0  0  0  0
   26.1270   28.3210   49.8010 N   0  0  0  0  0  0  0  0  0  0  0  0
   24.8620   28.6370   50.0120 C   0  0  0  0  0  0  0  0  0  0  0  0
   24.3460   29.7600   49.5170 N   0  0  0  0  0  0  0  0  0  0  0  0
   25.0970   30.6050   48.7840 C   0  0  0  0  0  0  0  0  0  0  0  0
   24.5840   31.7520   48.2370 C   0  0  0  0  0  0  0  0  0  0  0  0
   25.3680   32.5790   47.4610 C   0  0  0  0  0  0  0  0  0  0  0  0
   24.8460   33.4390   47.0970 H   0  0  0  0  0  0  0  0  0  0  0  0
   26.6790   32.1850   47.2740 C   0  0  0  0  0  0  0  0  0  0  0  0
   27.2500   32.8780   46.6500 H   0  0  0  0  0  0  0  0  0  0  0  0
   27.1570   31.0280   47.8410 C   0  0  0  0  0  0  0  0  0  0  0  0
   26.3980   30.1870   48.6210 C   0  0  0  0  0  0  0  0  0  0  0  0
  1  5  1  0  0  0  0
  2  1  2  0  0  0  0
  3  6  1  6  0  0  0
  3  4  1  0  0  0  0
  3  5  1  0  0  0  0
  3 10  1  0  0  0  0
  4  5  1  0  0  0  0
  4  7  1  0  0  0  0
  5  9  1  1  0  0  0
  8  4  1  0  0  0  0
 10 11  1  0  0  0  0
 10 12  1  0  0  0  0
 13 18  1  0  0  0  0
 13 19  1  0  0  0  0
 14 13  2  0  0  0  0
 15 16  2  0  0  0  0
 15 14  1  0  0  0  0
 16 17  1  0  0  0  0
 17 10  1  0  0  0  0
 17 18  2  0  0  0  0
 20 14  1  0  0  0  0
 21 15  1  0  0  0  0
 22 23  1  0  0  0  0
 22  1  1  0  0  0  0
 23 24  2  0  0  0  0
 24 25  1  0  0  0  0
 24 28  1  0  0  0  0
 25 29  1  0  0  0  0
 26 30  1  0  0  0  0
 26 25  2  0  0  0  0
 27 23  1  0  0  0  0
 27 26  1  0  0  0  0
 30 31  1  0  0  0  0
 31 32  2  0  0  0  0
 33 32  1  0  0  0  0
 34 33  2  0  0  0  0
 35 34  1  0  0  0  0
 36 35  2  0  0  0  0
 37 36  1  0  0  0  0
 38 36  1  0  0  0  0
 38 40  2  0  0  0  0
 39 38  1  0  0  0  0
 40 41  1  0  0  0  0
 41 34  1  0  0  0  0
 41 30  2  0  0  0  0
M  END
>  <minimizedAffinity>
-6.34676695

>  <minimizedRMSD>
2.66103506

$$$$
