
 OpenBabel03252513483D

 28 30  0  0  0  0  0  0  0  0999 V2000
   36.8630   29.9380   48.6960 C   0  0  0  0  0  0  0  0  0  0  0  0
   37.7180   30.7010   47.8640 C   0  0  0  0  0  0  0  0  0  0  0  0
   37.2630   31.0750   46.5880 C   0  0  0  0  0  0  0  0  0  0  0  0
   36.0220   30.6640   46.2620 N   0  0  0  0  0  0  0  0  0  0  0  0
   35.2260   29.9470   47.0520 C   0  0  0  0  0  0  0  0  0  0  0  0
   35.6550   29.5980   48.2470 N   0  0  0  0  0  0  0  0  0  0  0  0
   38.6880   30.9630   48.2500 H   0  0  0  0  0  0  0  0  0  0  0  0
   38.2270   31.8500   45.8440 C   0  0  0  0  0  0  0  0  0  0  0  0
   39.3080   32.3950   46.4250 N   0  0  0  0  0  0  0  0  0  0  0  0
   40.2260   33.1200   45.7890 C   0  0  0  0  0  0  0  0  0  0  0  0
   40.1470   33.3730   44.4870 N   0  0  0  0  0  0  0  0  0  0  0  0
   39.1050   32.8800   43.7870 C   0  0  0  0  0  0  0  0  0  0  0  0
   38.9980   33.1250   42.4520 C   0  0  0  0  0  0  0  0  0  0  0  0
   37.9270   32.6230   41.7220 C   0  0  0  0  0  0  0  0  0  0  0  0
   37.8790   32.8410   40.6650 H   0  0  0  0  0  0  0  0  0  0  0  0
   36.9910   31.8750   42.4090 C   0  0  0  0  0  0  0  0  0  0  0  0
   36.1590   31.4910   41.8140 H   0  0  0  0  0  0  0  0  0  0  0  0
   37.1460   31.6580   43.7540 C   0  0  0  0  0  0  0  0  0  0  0  0
   38.1900   32.1390   44.5010 C   0  0  0  0  0  0  0  0  0  0  0  0
   33.8980   29.6080   46.4890 C   0  0  0  0  0  0  0  0  0  0  0  0
   33.0260   30.7030   46.6060 F   0  0  0  0  0  0  0  0  0  0  0  0
   33.9960   29.3330   45.1540 F   0  0  0  0  0  0  0  0  0  0  0  0
   33.3390   28.4920   47.1080 F   0  0  0  0  0  0  0  0  0  0  0  0
   37.3380   29.5870   49.9430 O   0  0  0  0  0  0  0  0  0  0  0  0
   37.6150   30.4730   50.9750 C   0  0  0  0  0  0  0  0  0  0  0  0
   38.8990   31.0070   50.9060 F   0  0  0  0  0  0  0  0  0  0  0  0
   36.6950   31.4750   51.1200 F   0  0  0  0  0  0  0  0  0  0  0  0
   37.5650   29.7020   52.1440 F   0  0  0  0  0  0  0  0  0  0  0  0
  1 24  1  0  0  0  0
  2  7  1  0  0  0  0
  2  1  2  0  0  0  0
  3  2  1  0  0  0  0
  4  3  2  0  0  0  0
  4  5  1  0  0  0  0
  5  6  2  0  0  0  0
  6  1  1  0  0  0  0
  8  9  1  0  0  0  0
  8  3  1  0  0  0  0
 10  9  2  0  0  0  0
 11 10  1  0  0  0  0
 12 11  2  0  0  0  0
 12 19  1  0  0  0  0
 13 12  1  0  0  0  0
 14 16  1  0  0  0  0
 14 13  2  0  0  0  0
 15 14  1  0  0  0  0
 16 18  2  0  0  0  0
 17 16  1  0  0  0  0
 18 19  1  0  0  0  0
 19  8  2  0  0  0  0
 20 21  1  0  0  0  0
 20  5  1  0  0  0  0
 20 23  1  0  0  0  0
 22 20  1  0  0  0  0
 24 25  1  0  0  0  0
 25 27  1  0  0  0  0
 25 28  1  0  0  0  0
 26 25  1  0  0  0  0
M  END
>  <minimizedAffinity>
-6.31523514

>  <minimizedRMSD>
6.13280487

$$$$
