
 OpenBabel03252514023D

 30 32  0  0  1  0  0  0  0  0999 V2000
   35.7970   29.8250   49.7310 C   0  0  2  0  0  0  0  0  0  0  0  0
   35.0630   29.1300   50.7990 C   0  0  0  0  0  0  0  0  0  0  0  0
   35.0260   28.5120   49.4830 C   0  0  1  0  0  0  0  0  0  0  0  0
   35.4210   30.6580   49.1640 H   0  0  0  0  0  0  0  0  0  0  0  0
   34.1580   29.6830   51.1880 H   0  0  0  0  0  0  0  0  0  0  0  0
   35.6190   28.6780   51.6600 H   0  0  0  0  0  0  0  0  0  0  0  0
   35.6990   27.7090   49.1410 H   0  0  0  0  0  0  0  0  0  0  0  0
   37.3130   29.6200   49.6880 C   0  0  0  0  0  0  0  0  0  0  0  0
   37.6650   29.5280   50.7340 H   0  0  0  0  0  0  0  0  0  0  0  0
   37.5800   28.6650   49.1840 H   0  0  0  0  0  0  0  0  0  0  0  0
   38.5820   33.0310   49.2850 C   0  0  0  0  0  0  0  0  0  0  0  0
   39.0070   33.0570   47.9470 C   0  0  0  0  0  0  0  0  0  0  0  0
   38.8480   31.8810   47.1940 C   0  0  0  0  0  0  0  0  0  0  0  0
   38.2940   30.7940   47.8060 N   0  0  0  0  0  0  0  0  0  0  0  0
   37.9030   30.8170   49.0860 C   0  0  0  0  0  0  0  0  0  0  0  0
   38.0500   31.9420   49.8200 N   0  0  0  0  0  0  0  0  0  0  0  0
   38.7200   33.9480   49.8270 H   0  0  0  0  0  0  0  0  0  0  0  0
   39.4480   33.9150   47.4550 H   0  0  0  0  0  0  0  0  0  0  0  0
   39.1440   31.8030   46.1610 H   0  0  0  0  0  0  0  0  0  0  0  0
   33.7210   28.6100   48.7500 C   0  0  0  0  0  0  0  0  0  0  0  0
   33.7940   29.2020   47.6050 O   0  0  0  0  0  0  0  0  0  0  0  0
   32.5080   28.1170   49.2030 O   0  0  0  0  0  0  0  0  0  0  0  0
   31.6470   27.4550   48.3730 C   0  0  0  0  0  0  0  0  0  0  0  0
   32.2010   26.2720   47.8710 C   0  0  0  0  0  3  0  0  0  0  0  0
   31.4570   25.4670   47.0040 C   0  0  0  0  0  0  0  0  0  0  0  0
   31.8550   24.5440   46.5980 H   0  0  0  0  0  0  0  0  0  0  0  0
   30.1780   25.8420   46.6440 C   0  0  0  0  0  3  0  0  0  0  0  0
   29.6290   27.0130   47.1380 C   0  0  0  0  0  0  0  0  0  0  0  0
   28.6420   27.3820   46.9110 H   0  0  0  0  0  0  0  0  0  0  0  0
   30.3820   27.8000   47.9990 C   0  0  0  0  0  3  0  0  0  0  0  0
  1  4  1  6  0  0  0
  1  2  1  0  0  0  0
  2  5  1  0  0  0  0
  2  6  1  0  0  0  0
  3  7  1  6  0  0  0
  3  1  1  0  0  0  0
  3  2  1  0  0  0  0
  8  1  1  0  0  0  0
  8  9  1  0  0  0  0
 10  8  1  0  0  0  0
 11 16  1  0  0  0  0
 11 17  1  0  0  0  0
 12 11  2  0  0  0  0
 13 14  2  0  0  0  0
 13 12  1  0  0  0  0
 14 15  1  0  0  0  0
 15  8  1  0  0  0  0
 15 16  2  0  0  0  0
 18 12  1  0  0  0  0
 19 13  1  0  0  0  0
 20 22  1  0  0  0  0
 20  3  1  0  0  0  0
 21 20  2  0  0  0  0
 23 22  1  0  0  0  0
 24 23  2  0  0  0  0
 25 24  1  0  0  0  0
 26 25  1  0  0  0  0
 27 25  2  0  0  0  0
 27 28  1  0  0  0  0
 28 30  2  0  0  0  0
 29 28  1  0  0  0  0
 30 23  1  0  0  0  0
M  END
>  <minimizedAffinity>
-5.04114199

>  <minimizedRMSD>
1.02412069

$$$$
