
 OpenBabel03252513453D

 19 20  0  0  0  0  0  0  0  0999 V2000
   38.0220   31.0770   49.3550 C   0  0  0  0  0  0  0  0  0  0  0  0
   38.1580   32.4160   49.7810 C   0  0  0  0  0  0  0  0  0  0  0  0
   38.7270   33.3370   48.9090 C   0  0  0  0  0  0  0  0  0  0  0  0
   39.1260   32.8960   47.6820 N   0  0  0  0  0  0  0  0  0  0  0  0
   38.9830   31.6220   47.3110 C   0  0  0  0  0  0  0  0  0  0  0  0
   38.4400   30.7040   48.1200 N   0  0  0  0  0  0  0  0  0  0  0  0
   37.8360   32.7540   50.7610 H   0  0  0  0  0  0  0  0  0  0  0  0
   38.8400   34.3710   49.2180 H   0  0  0  0  0  0  0  0  0  0  0  0
   39.4300   31.2120   45.9840 C   0  0  0  0  0  0  0  0  0  0  0  0
   38.8510   30.2510   45.1660 C   0  0  0  0  0  3  0  0  0  0  0  0
   39.5640   30.1600   44.0070 N   0  0  0  0  0  0  0  0  0  0  0  0
   40.5870   31.0530   44.0810 C   0  0  0  0  0  3  0  0  0  0  0  0
   40.4650   31.6550   45.2770 N   0  0  0  0  0  0  0  0  0  0  0  0
   41.1530   32.3950   45.5660 H   0  0  0  0  0  0  0  0  0  0  0  0
   37.4620   30.1640   50.2070 O   0  0  0  0  0  0  0  0  0  0  0  0
   36.1220   29.8080   50.2510 C   0  0  0  0  0  0  0  0  0  0  0  0
   35.7220   29.3410   51.4910 F   0  0  0  0  0  0  0  0  0  0  0  0
   35.2670   30.7890   49.8190 F   0  0  0  0  0  0  0  0  0  0  0  0
   35.9760   28.7570   49.3470 F   0  0  0  0  0  0  0  0  0  0  0  0
  1  2  1  0  0  0  0
  1 15  1  0  0  0  0
  2  7  1  0  0  0  0
  3  8  1  0  0  0  0
  3  2  2  0  0  0  0
  4  3  1  0  0  0  0
  5  4  2  0  0  0  0
  5  6  1  0  0  0  0
  6  1  2  0  0  0  0
  9  5  1  0  0  0  0
 10  9  2  0  0  0  0
 11 12  2  0  0  0  0
 11 10  1  0  0  0  0
 12 13  1  0  0  0  0
 13 14  1  0  0  0  0
 13  9  1  0  0  0  0
 15 16  1  0  0  0  0
 16 17  1  0  0  0  0
 18 16  1  0  0  0  0
 19 16  1  0  0  0  0
M  END
>  <minimizedAffinity>
-5.27804661

>  <minimizedRMSD>
0.833622217

$$$$
