
 OpenBabel03252510283D

 43 45  0  0  1  0  0  0  0  0999 V2000
   35.8140   30.1130   48.1710 C   0  0  0  0  0  0  0  0  0  0  0  0
   37.0350   30.3130   47.5820 C   0  0  0  0  0  0  0  0  0  0  0  0
   37.0680   30.5890   46.1860 C   0  0  0  0  0  0  0  0  0  0  0  0
   35.8770   30.6330   45.5350 N   0  0  0  0  0  0  0  0  0  0  0  0
   34.7110   30.4360   46.1280 C   0  0  0  0  0  0  0  0  0  0  0  0
   34.6860   30.1750   47.4530 N   0  0  0  0  0  0  0  0  0  0  0  0
   33.5060   30.4970   45.3840 N   0  0  0  0  0  0  0  0  0  0  0  0
   33.4280   29.8210   44.1250 C   0  0  0  0  0  0  0  0  0  0  0  0
   34.2320   28.8230   43.8560 N   0  0  0  0  0  0  0  0  0  0  0  0
   32.4400   30.2920   43.1970 N   0  0  0  0  0  0  0  0  0  0  0  0
   34.1650   28.3520   42.9260 H   0  0  0  0  0  0  0  0  0  0  0  0
   38.3290   30.8010   45.5560 N   0  0  0  0  0  0  0  0  0  0  0  0
   38.3380   30.7490   44.1190 C   0  0  0  0  0  0  0  0  0  0  0  0
   39.7360   30.7130   43.5360 C   0  0  0  0  0  0  0  0  0  0  0  0
   40.5270   31.7610   44.3190 C   0  0  0  0  0  0  0  0  0  0  0  0
   40.7570   31.2060   45.6880 C   0  0  0  0  0  0  0  0  0  0  0  0
   39.4620   31.0440   46.3950 C   0  0  1  0  0  0  0  0  0  0  0  0
   37.9080   30.2590   48.1720 H   0  0  0  0  0  0  0  0  0  0  0  0
   32.6490   31.0160   45.7020 H   0  0  0  0  0  0  0  0  0  0  0  0
   32.6850   30.2080   42.1800 H   0  0  0  0  0  0  0  0  0  0  0  0
   31.5470   30.6850   43.5380 H   0  0  0  0  0  0  0  0  0  0  0  0
   37.8490   31.6620   43.7100 H   0  0  0  0  0  0  0  0  0  0  0  0
   37.7610   29.8830   43.7160 H   0  0  0  0  0  0  0  0  0  0  0  0
   40.2030   29.7430   43.7080 H   0  0  0  0  0  0  0  0  0  0  0  0
   39.7180   31.0600   42.4890 H   0  0  0  0  0  0  0  0  0  0  0  0
   41.4650   32.0270   43.7910 H   0  0  0  0  0  0  0  0  0  0  0  0
   39.8850   32.6510   44.3680 H   0  0  0  0  0  0  0  0  0  0  0  0
   41.3100   30.2270   45.5860 H   0  0  0  0  0  0  0  0  0  0  0  0
   41.4610   31.8410   46.2810 H   0  0  0  0  0  0  0  0  0  0  0  0
   39.5760   30.1090   47.0220 H   0  0  0  0  0  0  0  0  0  0  0  0
   39.3120   32.2170   47.2980 C   0  0  0  0  0  0  0  0  0  0  0  0
   39.9660   33.4060   47.0480 C   0  0  0  0  0  0  0  0  0  0  0  0
   39.6830   34.3260   48.0010 N   0  0  0  0  0  0  0  0  0  0  0  0
   38.8390   33.7060   48.8650 C   0  0  0  0  0  0  0  0  0  0  0  0
   38.6150   32.4470   48.4480 N   0  0  0  0  0  0  0  0  0  0  0  0
   38.0320   31.6660   48.8360 H   0  0  0  0  0  0  0  0  0  0  0  0
   35.7480   29.8330   49.5870 C   0  0  0  0  0  0  0  0  0  0  0  0
   35.0960   28.8550   50.0350 O   0  0  0  0  0  0  0  0  0  0  0  0
   36.4330   30.6800   50.4790 O   0  0  0  0  0  0  0  0  0  0  0  0
   37.5300   30.1180   51.1550 C   0  0  0  0  0  0  0  0  0  0  0  0
   37.2860   29.9590   52.4980 F   0  0  0  0  0  0  0  0  0  0  0  0
   38.6430   30.9330   50.9340 F   0  0  0  0  0  0  0  0  0  0  0  0
   37.8570   28.8890   50.6240 F   0  0  0  0  0  0  0  0  0  0  0  0
  1 37  1  0  0  0  0
  2  1  1  0  0  0  0
  2 18  1  0  0  0  0
  3  2  2  0  0  0  0
  4  5  2  0  0  0  0
  4  3  1  0  0  0  0
  5  6  1  0  0  0  0
  6  1  2  0  0  0  0
  7 19  1  0  0  0  0
  7  5  1  0  0  0  0
  8  7  1  0  0  0  0
  9  8  2  0  0  0  0
 10 21  1  0  0  0  0
 10  8  1  0  0  0  0
 11  9  1  0  0  0  0
 12  3  1  0  0  0  0
 12 17  1  0  0  0  0
 13 12  1  0  0  0  0
 14 24  1  0  0  0  0
 14 13  1  0  0  0  0
 14 15  1  0  0  0  0
 15 27  1  0  0  0  0
 15 16  1  0  0  0  0
 16 29  1  0  0  0  0
 16 17  1  0  0  0  0
 17 30  1  1  0  0  0
 17 31  1  0  0  0  0
 20 10  1  0  0  0  0
 22 13  1  0  0  0  0
 23 13  1  0  0  0  0
 25 14  1  0  0  0  0
 26 15  1  0  0  0  0
 28 16  1  0  0  0  0
 31 35  1  0  0  0  0
 32 31  2  0  0  0  0
 32 33  1  0  0  0  0
 33 34  2  0  0  0  0
 35 36  1  0  0  0  0
 35 34  1  0  0  0  0
 37 38  2  0  0  0  0
 37 39  1  0  0  0  0
 39 40  1  0  0  0  0
 40 41  1  0  0  0  0
 42 40  1  0  0  0  0
 43 40  1  0  0  0  0
M  END
>  <minimizedAffinity>
-6.57431459

>  <minimizedRMSD>
1.32602489

$$$$
