
 OpenBabel03252513453D

 19 20  0  0  0  0  0  0  0  0999 V2000
   37.2470   30.5230   49.1510 C   0  0  0  0  0  0  0  0  0  0  0  0
   37.0480   31.6720   49.9470 C   0  0  0  0  0  0  0  0  0  0  0  0
   37.6890   32.8510   49.5830 C   0  0  0  0  0  0  0  0  0  0  0  0
   38.4780   32.8360   48.4720 N   0  0  0  0  0  0  0  0  0  0  0  0
   38.6440   31.7310   47.7410 C   0  0  0  0  0  0  0  0  0  0  0  0
   38.0460   30.5750   48.0560 N   0  0  0  0  0  0  0  0  0  0  0  0
   36.4170   31.6700   50.8290 H   0  0  0  0  0  0  0  0  0  0  0  0
   37.5480   33.7450   50.1830 H   0  0  0  0  0  0  0  0  0  0  0  0
   39.5030   31.7800   46.5630 C   0  0  0  0  0  0  0  0  0  0  0  0
   39.7200   32.8710   45.7310 C   0  0  0  0  0  0  0  0  0  0  0  0
   40.5870   32.5150   44.7410 N   0  0  0  0  0  0  0  0  0  0  0  0
   40.9220   31.2110   44.9350 C   0  0  0  0  0  0  0  0  0  0  0  0
   40.2500   30.8180   46.0320 N   0  0  0  0  0  0  0  0  0  0  0  0
   40.3500   29.8330   46.3850 H   0  0  0  0  0  0  0  0  0  0  0  0
   36.6200   29.3580   49.5000 O   0  0  0  0  0  0  0  0  0  0  0  0
   35.4010   29.2550   50.1550 C   0  0  0  0  0  0  0  0  0  0  0  0
   35.5230   29.2370   51.5350 F   0  0  0  0  0  0  0  0  0  0  0  0
   34.4800   30.1970   49.7760 F   0  0  0  0  0  0  0  0  0  0  0  0
   34.8640   28.0270   49.7720 F   0  0  0  0  0  0  0  0  0  0  0  0
  1 15  1  0  0  0  0
  1  2  1  0  0  0  0
  2  7  1  0  0  0  0
  3  2  2  0  0  0  0
  3  8  1  0  0  0  0
  4  3  1  0  0  0  0
  5  6  1  0  0  0  0
  5  4  2  0  0  0  0
  6  1  2  0  0  0  0
  9  5  1  0  0  0  0
 10  9  2  0  0  0  0
 11 12  2  0  0  0  0
 11 10  1  0  0  0  0
 12 13  1  0  0  0  0
 13 14  1  0  0  0  0
 13  9  1  0  0  0  0
 15 16  1  0  0  0  0
 16 17  1  0  0  0  0
 18 16  1  0  0  0  0
 19 16  1  0  0  0  0
M  END
>  <minimizedAffinity>
-5.92628241

>  <minimizedRMSD>
1.68317628

$$$$
