
 OpenBabel03252513283D

 37 39  0  0  0  0  0  0  0  0999 V2000
   31.7340   26.5540   47.9300 C   0  0  0  0  0  0  0  0  0  0  0  0
   31.5420   25.2710   47.5140 C   0  0  0  0  0  0  0  0  0  0  0  0
   32.5550   24.4180   47.1230 C   0  0  0  0  0  0  0  0  0  0  0  0
   33.8300   24.9370   47.1710 C   0  0  0  0  0  0  0  0  0  0  0  0
   34.0690   26.2230   47.5820 C   0  0  0  0  0  0  0  0  0  0  0  0
   33.0300   27.0450   47.9650 C   0  0  0  0  0  0  0  0  0  0  0  0
   30.5100   24.8990   47.4920 H   0  0  0  0  0  0  0  0  0  0  0  0
   32.3140   23.4000   46.8020 H   0  0  0  0  0  0  0  0  0  0  0  0
   34.6320   24.2680   46.8630 H   0  0  0  0  0  0  0  0  0  0  0  0
   35.0750   26.5750   47.6000 H   0  0  0  0  0  0  0  0  0  0  0  0
   29.1960   28.3090   49.9150 C   0  0  0  0  0  0  0  0  0  0  0  0
   28.5310   29.0890   48.9330 C   0  0  0  0  0  0  0  0  0  0  0  0
   28.9840   28.9760   47.6340 C   0  0  0  0  0  0  0  0  0  0  0  0
   30.0370   28.1340   47.3480 N   0  0  0  0  0  0  0  0  0  0  0  0
   30.6350   27.4120   48.3310 C   0  0  0  0  0  0  0  0  0  0  0  0
   30.2130   27.5050   49.5930 N   0  0  0  0  0  0  0  0  0  0  0  0
   28.8240   28.4150   50.9130 H   0  0  0  0  0  0  0  0  0  0  0  0
   28.5000   29.5560   46.8640 H   0  0  0  0  0  0  0  0  0  0  0  0
   27.4010   29.9880   49.2600 C   0  0  0  0  0  0  0  0  0  0  0  0
   27.7350   30.9880   50.1170 F   0  0  0  0  0  0  0  0  0  0  0  0
   26.3440   29.2960   49.8350 F   0  0  0  0  0  0  0  0  0  0  0  0
   26.9270   30.5840   48.0790 F   0  0  0  0  0  0  0  0  0  0  0  0
   33.2260   28.4190   48.4110 C   0  0  0  0  0  0  0  0  0  0  0  0
   33.1960   28.4530   49.5370 H   0  0  0  0  0  0  0  0  0  0  0  0
   32.3770   29.0390   48.0590 H   0  0  0  0  0  0  0  0  0  0  0  0
   34.5200   29.0590   48.0060 C   0  0  0  0  0  0  0  0  0  0  0  0
   35.0150   28.4810   47.2010 H   0  0  0  0  0  0  0  0  0  0  0  0
   34.2750   30.0490   47.5410 H   0  0  0  0  0  0  0  0  0  0  0  0
   35.4470   29.3400   49.1100 C   0  0  0  0  0  0  0  0  0  0  0  0
   35.1730   29.1670   50.4560 C   0  0  0  0  0  0  0  0  0  0  0  0
   34.1930   28.7920   50.7130 H   0  0  0  0  0  0  0  0  0  0  0  0
   36.1350   29.4700   51.3900 C   0  0  0  0  0  0  0  0  0  0  0  0
   37.3600   29.9420   51.0120 C   0  0  0  0  0  0  0  0  0  0  0  0
   38.1290   30.1840   51.7620 H   0  0  0  0  0  0  0  0  0  0  0  0
   37.7100   30.1420   49.6850 C   0  0  0  0  0  0  0  0  0  0  0  0
   38.6620   30.5110   49.3320 H   0  0  0  0  0  0  0  0  0  0  0  0
   36.7040   29.8210   48.7760 C   0  0  0  0  0  0  0  0  0  0  0  0
  1  6  1  0  0  0  0
  1 15  1  0  0  0  0
  2  1  2  0  0  0  0
  3  4  2  0  0  0  0
  3  2  1  0  0  0  0
  4  5  1  0  0  0  0
  5 10  1  0  0  0  0
  5  6  2  0  0  0  0
  6 23  1  0  0  0  0
  7  2  1  0  0  0  0
  8  3  1  0  0  0  0
  9  4  1  0  0  0  0
 11 17  1  0  0  0  0
 12 19  1  0  0  0  0
 12 11  2  0  0  0  0
 13 12  1  0  0  0  0
 14 13  2  0  0  0  0
 14 15  1  0  0  0  0
 15 16  2  0  0  0  0
 16 11  1  0  0  0  0
 18 13  1  0  0  0  0
 19 21  1  0  0  0  0
 19 20  1  0  0  0  0
 22 19  1  0  0  0  0
 23 24  1  0  0  0  0
 25 23  1  0  0  0  0
 26 23  1  0  0  0  0
 26 29  1  0  0  0  0
 27 26  1  0  0  0  0
 28 26  1  0  0  0  0
 29 30  1  0  0  0  0
 30 31  1  0  0  0  0
 30 32  2  0  0  0  0
 33 32  1  0  0  0  0
 33 34  1  0  0  0  0
 35 33  2  0  0  0  0
 36 35  1  0  0  0  0
 37 29  2  0  0  0  0
 37 35  1  0  0  0  0
M  END
>  <minimizedAffinity>
-6.81209946

>  <minimizedRMSD>
6.81103754

$$$$
