
 OpenBabel03252514043D

 35 38  0  0  1  0  0  0  0  0999 V2000
   35.2130   29.2000   48.6210 C   0  0  2  0  0  0  0  0  0  0  0  0
   34.0090   29.3900   49.4260 C   0  0  0  0  0  0  0  0  0  0  0  0
   34.3170   28.0210   49.1260 C   0  0  1  0  0  0  0  0  0  0  0  0
   35.2610   29.2610   47.5300 H   0  0  0  0  0  0  0  0  0  0  0  0
   34.1600   29.8210   50.4570 H   0  0  0  0  0  0  0  0  0  0  0  0
   33.1560   29.9180   48.9240 H   0  0  0  0  0  0  0  0  0  0  0  0
   34.8740   27.3040   49.7390 H   0  0  0  0  0  0  0  0  0  0  0  0
   36.5480   29.2210   49.3830 C   0  0  0  0  0  0  0  0  0  0  0  0
   37.1590   28.3550   49.0170 H   0  0  0  0  0  0  0  0  0  0  0  0
   36.3670   29.0270   50.4440 H   0  0  0  0  0  0  0  0  0  0  0  0
   37.5910   32.7160   49.5820 C   0  0  0  0  0  0  0  0  0  0  0  0
   38.4710   32.8380   48.4930 C   0  0  0  0  0  0  0  0  0  0  0  0
   38.6950   31.6930   47.6960 C   0  0  0  0  0  0  0  0  0  0  0  0
   38.0430   30.5370   48.0310 N   0  0  0  0  0  0  0  0  0  0  0  0
   37.2150   30.4760   49.0780 C   0  0  0  0  0  0  0  0  0  0  0  0
   36.9920   31.5720   49.8530 N   0  0  0  0  0  0  0  0  0  0  0  0
   37.3880   33.5590   50.2170 H   0  0  0  0  0  0  0  0  0  0  0  0
   38.9570   33.7580   48.2700 H   0  0  0  0  0  0  0  0  0  0  0  0
   39.3600   31.7290   46.8490 H   0  0  0  0  0  0  0  0  0  0  0  0
   33.4400   27.3640   48.0850 C   0  0  0  0  0  0  0  0  0  0  0  0
   33.7530   26.1350   47.8460 O   0  0  0  0  0  0  0  0  0  0  0  0
   32.3840   27.9440   47.4120 O   0  0  0  0  0  0  0  0  0  0  0  0
   31.1310   28.0930   47.9230 C   0  0  0  0  0  0  0  0  0  0  0  0
   30.7200   27.6200   49.2600 C   0  0  0  0  0  0  0  0  0  0  0  0
   29.4470   27.8180   49.6860 C   0  0  0  0  0  0  0  0  0  0  0  0
   28.5240   28.4790   48.8330 C   0  0  0  0  0  0  0  0  0  0  0  0
   29.5160   28.8520   47.3200 S   0  0  0  0  0  0  0  0  0  0  0  0
   31.4580   27.1230   49.8690 H   0  0  0  0  0  0  0  0  0  0  0  0
   29.0690   27.5080   50.6420 H   0  0  0  0  0  0  0  0  0  0  0  0
   27.2000   28.8160   48.9810 C   0  0  0  0  0  0  0  0  0  0  0  0
   26.5920   29.9900   48.6600 C   0  0  0  0  0  3  0  0  0  0  0  0
   25.2670   29.8830   48.9770 N   0  0  0  0  0  0  0  0  0  0  0  0
   25.0660   28.6360   49.4940 C   0  0  0  0  0  3  0  0  0  0  0  0
   26.2780   28.0080   49.4810 N   0  0  0  0  0  0  0  0  0  0  0  0
   26.3790   27.0320   49.8320 H   0  0  0  0  0  0  0  0  0  0  0  0
  1  4  1  6  0  0  0
  1  3  1  0  0  0  0
  1  8  1  0  0  0  0
  1  2  1  0  0  0  0
  2  5  1  0  0  0  0
  3  2  1  0  0  0  0
  3  7  1  1  0  0  0
  6  2  1  0  0  0  0
  8 10  1  0  0  0  0
  9  8  1  0  0  0  0
 11 16  1  0  0  0  0
 11 17  1  0  0  0  0
 12 11  2  0  0  0  0
 13 14  2  0  0  0  0
 13 12  1  0  0  0  0
 14 15  1  0  0  0  0
 15  8  1  0  0  0  0
 15 16  2  0  0  0  0
 18 12  1  0  0  0  0
 19 13  1  0  0  0  0
 20  3  1  0  0  0  0
 21 20  2  0  0  0  0
 22 23  1  0  0  0  0
 22 20  1  0  0  0  0
 23 24  2  0  0  0  0
 24 25  1  0  0  0  0
 24 28  1  0  0  0  0
 25 29  1  0  0  0  0
 26 30  1  0  0  0  0
 26 25  2  0  0  0  0
 27 23  1  0  0  0  0
 27 26  1  0  0  0  0
 30 34  1  0  0  0  0
 31 32  1  0  0  0  0
 31 30  2  0  0  0  0
 32 33  2  0  0  0  0
 34 33  1  0  0  0  0
 34 35  1  0  0  0  0
M  END
>  <minimizedAffinity>
-6.26421213

>  <minimizedRMSD>
1.53426754

$$$$
