
 OpenBabel03252513083D

 43 45  0  0  0  0  0  0  0  0999 V2000
   31.5900   28.2670   46.9580 C   0  0  0  0  0  0  0  0  0  0  0  0
   32.2580   28.6840   45.7840 C   0  0  0  0  0  0  0  0  0  0  0  0
   33.6040   28.8870   45.7660 C   0  0  0  0  0  0  0  0  0  0  0  0
   34.2820   28.6670   46.9460 N   0  0  0  0  0  0  0  0  0  0  0  0
   33.6560   28.2810   48.0320 C   0  0  0  0  0  0  0  0  0  0  0  0
   32.3330   28.0700   48.0890 N   0  0  0  0  0  0  0  0  0  0  0  0
   30.5220   28.0960   47.0080 H   0  0  0  0  0  0  0  0  0  0  0  0
   31.5670   28.8070   44.9670 H   0  0  0  0  0  0  0  0  0  0  0  0
   34.3010   29.3080   44.5750 C   0  0  0  0  0  0  0  0  0  0  0  0
   35.0970   30.0420   44.8890 H   0  0  0  0  0  0  0  0  0  0  0  0
   34.8170   28.4290   44.1280 H   0  0  0  0  0  0  0  0  0  0  0  0
   33.4760   29.9670   43.5520 C   0  0  0  0  0  0  0  0  0  0  0  0
   32.4080   29.7650   43.7650 H   0  0  0  0  0  0  0  0  0  0  0  0
   33.6520   29.4060   42.5830 H   0  0  0  0  0  0  0  0  0  0  0  0
   33.6630   31.3310   43.2640 N   0  0  0  0  0  0  0  0  0  0  0  0
   34.7420   31.9430   42.8160 C   0  0  0  0  0  0  0  0  0  0  0  0
   34.8560   33.2890   42.5510 C   0  0  0  0  0  0  0  0  0  0  0  0
   33.7750   34.1010   42.7580 C   0  0  0  0  0  0  0  0  0  0  0  0
   33.7940   35.3240   42.5450 O   0  0  0  0  0  0  0  0  0  0  0  0
   32.6910   33.5100   43.2050 N   0  0  0  0  0  0  0  0  0  0  0  0
   32.6090   32.2120   43.4510 C   0  0  0  0  0  0  0  0  0  0  0  0
   31.5110   31.7310   43.8830 O   0  0  0  0  0  0  0  0  0  0  0  0
   35.6250   31.3060   42.6430 H   0  0  0  0  0  0  0  0  0  0  0  0
   35.7990   33.6900   42.1820 H   0  0  0  0  0  0  0  0  0  0  0  0
   31.5150   34.3510   43.4370 C   0  0  0  0  0  0  0  0  0  0  0  0
   30.3600   33.5980   43.3220 F   0  0  0  0  0  0  0  0  0  0  0  0
   31.5000   35.3170   42.4580 F   0  0  0  0  0  0  0  0  0  0  0  0
   31.6300   34.9020   44.6820 F   0  0  0  0  0  0  0  0  0  0  0  0
   34.4180   28.0530   49.3070 C   0  0  0  0  0  0  0  0  0  0  0  0
   35.4760   27.8600   49.0390 H   0  0  0  0  0  0  0  0  0  0  0  0
   34.0090   27.2210   49.9050 H   0  0  0  0  0  0  0  0  0  0  0  0
   34.4200   29.3470   50.1110 C   0  0  0  0  0  0  0  0  0  0  0  0
   33.9250   29.2020   51.0730 H   0  0  0  0  0  0  0  0  0  0  0  0
   33.7680   30.0390   49.5040 H   0  0  0  0  0  0  0  0  0  0  0  0
   35.7570   29.9340   50.2250 C   0  0  0  0  0  0  0  0  0  0  0  0
   36.0000   30.9080   49.2520 C   0  0  0  0  0  0  0  0  0  0  0  0
   35.2910   31.2150   48.4830 H   0  0  0  0  0  0  0  0  0  0  0  0
   37.2300   31.5710   49.2170 C   0  0  0  0  0  0  0  0  0  0  0  0
   38.2180   31.2800   50.1320 C   0  0  0  0  0  0  0  0  0  0  0  0
   39.1580   31.8090   50.0790 H   0  0  0  0  0  0  0  0  0  0  0  0
   37.9350   30.3140   51.0730 C   0  0  0  0  0  0  0  0  0  0  0  0
   38.7080   30.0750   51.8010 H   0  0  0  0  0  0  0  0  0  0  0  0
   36.7420   29.6380   51.1440 C   0  0  0  0  0  0  0  0  0  0  0  0
  1  7  1  0  0  0  0
  1  6  1  0  0  0  0
  2  1  2  0  0  0  0
  3  2  1  0  0  0  0
  3  4  2  0  0  0  0
  4  5  1  0  0  0  0
  5  6  2  0  0  0  0
  5 29  1  0  0  0  0
  8  2  1  0  0  0  0
  9 10  1  0  0  0  0
  9  3  1  0  0  0  0
 11  9  1  0  0  0  0
 12 13  1  0  0  0  0
 12  9  1  0  0  0  0
 14 12  1  0  0  0  0
 15 21  1  0  0  0  0
 15 12  1  0  0  0  0
 16 15  1  0  0  0  0
 17 18  1  0  0  0  0
 17 16  2  0  0  0  0
 18 20  1  0  0  0  0
 19 18  2  0  0  0  0
 20 25  1  0  0  0  0
 20 21  1  0  0  0  0
 21 22  2  0  0  0  0
 23 16  1  0  0  0  0
 24 17  1  0  0  0  0
 25 28  1  0  0  0  0
 26 25  1  0  0  0  0
 27 25  1  0  0  0  0
 29 31  1  0  0  0  0
 29 32  1  0  0  0  0
 30 29  1  0  0  0  0
 32 35  1  0  0  0  0
 32 33  1  0  0  0  0
 34 32  1  0  0  0  0
 35 43  1  0  0  0  0
 36 35  2  0  0  0  0
 37 36  1  0  0  0  0
 38 36  1  0  0  0  0
 38 39  2  0  0  0  0
 39 41  1  0  0  0  0
 40 39  1  0  0  0  0
 41 43  2  0  0  0  0
 41 42  1  0  0  0  0
M  END
>  <minimizedAffinity>
-6.00724602

>  <minimizedRMSD>
4.17338228

$$$$
