
 OpenBabel03252514043D

 35 38  0  0  1  0  0  0  0  0999 V2000
   35.2250   29.1920   48.6050 C   0  0  2  0  0  0  0  0  0  0  0  0
   34.0120   29.3970   49.3910 C   0  0  0  0  0  0  0  0  0  0  0  0
   34.3210   28.0230   49.1180 C   0  0  1  0  0  0  0  0  0  0  0  0
   35.2870   29.2350   47.5140 H   0  0  0  0  0  0  0  0  0  0  0  0
   34.1500   29.8440   50.4170 H   0  0  0  0  0  0  0  0  0  0  0  0
   33.1670   29.9180   48.8710 H   0  0  0  0  0  0  0  0  0  0  0  0
   34.8680   27.3140   49.7490 H   0  0  0  0  0  0  0  0  0  0  0  0
   36.5510   29.2230   49.3830 C   0  0  0  0  0  0  0  0  0  0  0  0
   37.1680   28.3550   49.0320 H   0  0  0  0  0  0  0  0  0  0  0  0
   36.3570   29.0370   50.4430 H   0  0  0  0  0  0  0  0  0  0  0  0
   37.5990   32.7160   49.5800 C   0  0  0  0  0  0  0  0  0  0  0  0
   38.4760   32.8370   48.4880 C   0  0  0  0  0  0  0  0  0  0  0  0
   38.6950   31.6920   47.6890 C   0  0  0  0  0  0  0  0  0  0  0  0
   38.0420   30.5370   48.0260 N   0  0  0  0  0  0  0  0  0  0  0  0
   37.2180   30.4770   49.0760 C   0  0  0  0  0  0  0  0  0  0  0  0
   37.0000   31.5730   49.8520 N   0  0  0  0  0  0  0  0  0  0  0  0
   37.4010   33.5590   50.2160 H   0  0  0  0  0  0  0  0  0  0  0  0
   38.9620   33.7560   48.2630 H   0  0  0  0  0  0  0  0  0  0  0  0
   39.3570   31.7270   46.8390 H   0  0  0  0  0  0  0  0  0  0  0  0
   33.4550   27.3510   48.0760 C   0  0  0  0  0  0  0  0  0  0  0  0
   33.7810   26.1240   47.8470 O   0  0  0  0  0  0  0  0  0  0  0  0
   32.3970   27.9170   47.3940 O   0  0  0  0  0  0  0  0  0  0  0  0
   31.1450   28.0750   47.9060 C   0  0  0  0  0  0  0  0  0  0  0  0
   30.7340   27.6170   49.2480 C   0  0  0  0  0  0  0  0  0  0  0  0
   29.4630   27.8230   49.6730 C   0  0  0  0  0  0  0  0  0  0  0  0
   28.5410   28.4790   48.8150 C   0  0  0  0  0  0  0  0  0  0  0  0
   29.5310   28.8330   47.2970 S   0  0  0  0  0  0  0  0  0  0  0  0
   31.4710   27.1240   49.8600 H   0  0  0  0  0  0  0  0  0  0  0  0
   29.0840   27.5250   50.6330 H   0  0  0  0  0  0  0  0  0  0  0  0
   27.2170   28.8220   48.9610 C   0  0  0  0  0  0  0  0  0  0  0  0
   26.6420   30.0410   48.7780 C   0  0  0  0  0  3  0  0  0  0  0  0
   25.3050   29.9210   49.0320 N   0  0  0  0  0  0  0  0  0  0  0  0
   25.0630   28.6220   49.3740 C   0  0  0  0  0  3  0  0  0  0  0  0
   26.2650   27.9760   49.3190 N   0  0  0  0  0  0  0  0  0  0  0  0
   26.3360   26.9610   49.5410 H   0  0  0  0  0  0  0  0  0  0  0  0
  1  4  1  6  0  0  0
  1  3  1  0  0  0  0
  1  8  1  0  0  0  0
  1  2  1  0  0  0  0
  2  5  1  0  0  0  0
  3  2  1  0  0  0  0
  3  7  1  1  0  0  0
  6  2  1  0  0  0  0
  8 10  1  0  0  0  0
  9  8  1  0  0  0  0
 11 16  1  0  0  0  0
 11 17  1  0  0  0  0
 12 11  2  0  0  0  0
 13 14  2  0  0  0  0
 13 12  1  0  0  0  0
 14 15  1  0  0  0  0
 15  8  1  0  0  0  0
 15 16  2  0  0  0  0
 18 12  1  0  0  0  0
 19 13  1  0  0  0  0
 20  3  1  0  0  0  0
 21 20  2  0  0  0  0
 22 23  1  0  0  0  0
 22 20  1  0  0  0  0
 23 24  2  0  0  0  0
 24 25  1  0  0  0  0
 24 28  1  0  0  0  0
 25 29  1  0  0  0  0
 26 30  1  0  0  0  0
 26 25  2  0  0  0  0
 27 23  1  0  0  0  0
 27 26  1  0  0  0  0
 30 34  1  0  0  0  0
 31 30  2  0  0  0  0
 31 32  1  0  0  0  0
 32 33  2  0  0  0  0
 34 33  1  0  0  0  0
 34 35  1  0  0  0  0
M  END
>  <minimizedAffinity>
-6.27741957

>  <minimizedRMSD>
1.54201353

$$$$
