
 OpenBabel03252510403D

 34 37  0  0  0  0  0  0  0  0999 V2000
   36.8120   28.9990   49.9890 C   0  0  0  0  0  0  0  0  0  0  0  0
   37.6110   29.7340   49.0910 C   0  0  0  0  0  0  0  0  0  0  0  0
   37.0270   30.8370   48.4180 C   0  0  0  0  0  0  0  0  0  0  0  0
   35.6910   31.1030   48.7060 N   0  0  0  0  0  0  0  0  0  0  0  0
   34.9730   30.3790   49.5650 C   0  0  0  0  0  0  0  0  0  0  0  0
   35.5120   29.3400   50.2040 N   0  0  0  0  0  0  0  0  0  0  0  0
   37.7440   31.6270   47.5010 N   0  0  0  0  0  0  0  0  0  0  0  0
   38.7100   32.6150   48.0350 C   0  0  0  0  0  0  0  0  0  0  0  0
   39.7230   32.9490   47.0120 C   0  0  0  0  0  0  0  0  0  0  0  0
   39.1250   33.2490   45.7070 N   0  0  0  0  0  0  0  0  0  0  0  0
   38.2170   32.2780   45.1990 C   0  0  0  0  0  0  0  0  0  0  0  0
   37.4790   31.4130   46.1250 C   0  0  0  0  0  0  0  0  0  0  0  0
   37.2860   28.1810   50.4740 H   0  0  0  0  0  0  0  0  0  0  0  0
   38.6450   29.4890   48.8980 H   0  0  0  0  0  0  0  0  0  0  0  0
   33.9400   30.6660   49.7240 H   0  0  0  0  0  0  0  0  0  0  0  0
   39.2060   32.2230   48.9270 H   0  0  0  0  0  0  0  0  0  0  0  0
   38.0980   33.5120   48.3220 H   0  0  0  0  0  0  0  0  0  0  0  0
   40.4570   32.1200   46.9260 H   0  0  0  0  0  0  0  0  0  0  0  0
   40.2750   33.8490   47.3270 H   0  0  0  0  0  0  0  0  0  0  0  0
   39.2790   34.0820   45.0970 H   0  0  0  0  0  0  0  0  0  0  0  0
   38.0450   32.1470   44.1600 H   0  0  0  0  0  0  0  0  0  0  0  0
   36.6440   30.5330   45.4830 N   0  0  0  0  0  0  0  0  0  0  0  0
   35.3880   30.2430   45.8560 C   0  0  0  0  0  0  0  0  0  0  0  0
   34.7800   29.3330   45.0220 C   0  0  0  0  0  0  0  0  0  0  0  0
   35.7060   29.0380   44.0750 N   0  0  0  0  0  0  0  0  0  0  0  0
   36.8170   29.7870   44.3950 C   0  0  0  0  0  0  0  0  0  0  0  0
   34.8760   30.6720   46.7290 H   0  0  0  0  0  0  0  0  0  0  0  0
   33.7900   28.9200   45.0710 H   0  0  0  0  0  0  0  0  0  0  0  0
   38.0120   29.6970   43.5640 C   0  0  0  0  0  0  0  0  0  0  0  0
   38.2590   30.1790   42.2980 C   0  0  0  0  0  0  0  0  0  0  0  0
   39.5230   29.8520   41.9390 N   0  0  0  0  0  0  0  0  0  0  0  0
   40.1040   29.1640   42.9540 C   0  0  0  0  0  0  0  0  0  0  0  0
   39.1630   29.0960   43.9020 N   0  0  0  0  0  0  0  0  0  0  0  0
   39.4140   28.5930   44.7920 H   0  0  0  0  0  0  0  0  0  0  0  0
  1  6  1  0  0  0  0
  1 13  1  0  0  0  0
  2  1  2  0  0  0  0
  3  4  2  0  0  0  0
  3  2  1  0  0  0  0
  4  5  1  0  0  0  0
  5 15  1  0  0  0  0
  5  6  2  0  0  0  0
  7  8  1  0  0  0  0
  7  3  1  0  0  0  0
  8 17  1  0  0  0  0
  8 16  1  0  0  0  0
  9 19  1  0  0  0  0
  9  8  1  0  0  0  0
 10  9  1  0  0  0  0
 11 10  1  0  0  0  0
 11 12  2  0  0  0  0
 12  7  1  0  0  0  0
 14  2  1  0  0  0  0
 18  9  1  0  0  0  0
 20 10  1  0  0  0  0
 21 11  1  0  0  0  0
 22 23  1  0  0  0  0
 22 12  1  0  0  0  0
 23 27  1  0  0  0  0
 24 28  1  0  0  0  0
 24 23  2  0  0  0  0
 25 26  2  0  0  0  0
 25 24  1  0  0  0  0
 26 22  1  0  0  0  0
 29 33  1  0  0  0  0
 29 26  1  0  0  0  0
 30 29  2  0  0  0  0
 31 30  1  0  0  0  0
 31 32  2  0  0  0  0
 32 33  1  0  0  0  0
 33 34  1  0  0  0  0
M  END
>  <minimizedAffinity>
-5.05435276

>  <minimizedRMSD>
3.17261958

$$$$
