
 OpenBabel03252510533D

 33 37  0  0  1  0  0  0  0  0999 V2000
   35.8680   30.4360   47.0950 C   0  0  0  0  0  0  0  0  0  0  0  0
   37.0280   30.5530   47.8710 C   0  0  0  0  0  0  0  0  0  0  0  0
   37.1130   29.7990   49.0190 C   0  0  0  0  0  0  0  0  0  0  0  0
   36.0530   28.9740   49.3340 N   0  0  0  0  0  0  0  0  0  0  0  0
   34.9700   28.8830   48.5810 C   0  0  0  0  0  0  0  0  0  0  0  0
   34.8880   29.6050   47.4830 N   0  0  0  0  0  0  0  0  0  0  0  0
   35.7820   31.0190   46.1940 H   0  0  0  0  0  0  0  0  0  0  0  0
   37.9660   29.8420   49.6520 H   0  0  0  0  0  0  0  0  0  0  0  0
   38.0540   31.4130   47.4810 N   0  0  0  0  0  0  0  0  0  0  0  0
   38.4660   32.5170   48.1500 C   0  0  0  0  0  0  0  0  0  0  0  0
   39.4730   33.1340   47.5230 N   0  0  0  0  0  0  0  0  0  0  0  0
   39.7330   32.4080   46.4000 C   0  0  0  0  0  0  0  0  0  0  0  0
   40.6240   32.5320   45.3880 C   0  0  0  0  0  0  0  0  0  0  0  0
   40.6970   31.6580   44.3480 N   0  0  0  0  0  0  0  0  0  0  0  0
   39.8110   30.6300   44.3740 C   0  0  0  0  0  0  0  0  0  0  0  0
   38.9370   30.5190   45.3780 N   0  0  0  0  0  0  0  0  0  0  0  0
   38.8350   31.3400   46.3990 C   0  0  0  0  0  0  0  0  0  0  0  0
   38.0270   32.8560   49.0830 H   0  0  0  0  0  0  0  0  0  0  0  0
   41.2940   33.3810   45.4460 H   0  0  0  0  0  0  0  0  0  0  0  0
   39.8050   29.8840   43.5750 H   0  0  0  0  0  0  0  0  0  0  0  0
   33.8650   27.9830   48.9850 C   0  0  2  0  0  0  0  0  0  0  0  0
   33.6900   26.7420   48.0470 C   0  0  0  0  0  0  0  0  0  0  0  0
   32.6600   27.7780   48.1550 C   0  0  2  0  0  0  0  0  0  0  0  0
   33.8410   27.6890   50.0570 H   0  0  0  0  0  0  0  0  0  0  0  0
   33.5180   25.7780   48.5270 H   0  0  0  0  0  0  0  0  0  0  0  0
   34.3320   26.6990   47.1530 H   0  0  0  0  0  0  0  0  0  0  0  0
   31.7240   27.6330   48.7800 H   0  0  0  0  0  0  0  0  0  0  0  0
   32.3970   28.5220   46.9030 C   0  0  0  0  0  0  0  0  0  0  0  0
   32.4510   28.1750   45.5470 C   0  0  0  0  0  0  0  0  0  0  0  0
   32.1330   29.2140   44.7800 N   0  0  0  0  0  0  0  0  0  0  0  0
   31.8660   30.2540   45.5620 C   0  0  0  0  0  0  0  0  0  0  0  0
   32.0300   29.8170   46.8230 N   0  0  0  0  0  0  0  0  0  0  0  0
   31.8740   30.4620   47.6330 H   0  0  0  0  0  0  0  0  0  0  0  0
  1  6  2  0  0  0  0
  1  2  1  0  0  0  0
  2  3  2  0  0  0  0
  3  4  1  0  0  0  0
  3  8  1  0  0  0  0
  5 21  1  0  0  0  0
  5  4  2  0  0  0  0
  6  5  1  0  0  0  0
  7  1  1  0  0  0  0
  9  2  1  0  0  0  0
  9 10  1  0  0  0  0
 10 18  1  0  0  0  0
 11 10  2  0  0  0  0
 12 11  1  0  0  0  0
 13 19  1  0  0  0  0
 13 12  2  0  0  0  0
 14 15  2  0  0  0  0
 14 13  1  0  0  0  0
 15 16  1  0  0  0  0
 16 17  2  0  0  0  0
 17 12  1  0  0  0  0
 17  9  1  0  0  0  0
 20 15  1  0  0  0  0
 21 24  1  1  0  0  0
 22 23  1  0  0  0  0
 22 25  1  0  0  0  0
 22 21  1  0  0  0  0
 23 27  1  1  0  0  0
 23 21  1  0  0  0  0
 26 22  1  0  0  0  0
 28 23  1  0  0  0  0
 29 28  2  0  0  0  0
 30 29  1  0  0  0  0
 30 31  2  0  0  0  0
 31 32  1  0  0  0  0
 32 28  1  0  0  0  0
 32 33  1  0  0  0  0
M  END
>  <minimizedAffinity>
-5.96310568

>  <minimizedRMSD>
0.326662242

$$$$
