
 OpenBabel03252512233D

 22 24  0  0  0  0  0  0  0  0999 V2000
   34.9240   29.3100   48.6800 C   0  0  0  0  0  0  0  0  0  0  0  0
   34.3090   28.1260   49.1520 C   0  0  0  0  0  0  0  0  0  0  0  0
   33.2040   27.7040   48.4790 C   0  0  0  0  0  0  0  0  0  0  0  0
   32.7630   28.4140   47.4310 C   0  0  0  0  0  0  0  0  0  0  0  0
   33.9080   29.8070   47.2770 S   0  0  0  0  0  0  0  0  0  0  0  0
   34.7430   27.6090   50.0220 H   0  0  0  0  0  0  0  0  0  0  0  0
   32.6610   26.8100   48.7600 H   0  0  0  0  0  0  0  0  0  0  0  0
   37.4990   30.3760   51.1020 C   0  0  0  0  0  0  0  0  0  0  0  0
   38.3870   31.1140   50.2860 C   0  0  0  0  0  0  0  0  0  0  0  0
   38.0790   31.2240   48.9320 C   0  0  0  0  0  0  0  0  0  0  0  0
   36.9500   30.6290   48.4420 N   0  0  0  0  0  0  0  0  0  0  0  0
   36.1300   29.9330   49.2690 C   0  0  0  0  0  0  0  0  0  0  0  0
   36.3790   29.7910   50.5940 N   0  0  0  0  0  0  0  0  0  0  0  0
   37.7640   30.3090   52.1440 H   0  0  0  0  0  0  0  0  0  0  0  0
   39.2700   31.5700   50.7050 H   0  0  0  0  0  0  0  0  0  0  0  0
   38.7190   31.7760   48.2590 H   0  0  0  0  0  0  0  0  0  0  0  0
   31.6250   28.1990   46.5430 C   0  0  0  0  0  0  0  0  0  0  0  0
   31.3000   27.1220   45.8050 N   0  0  0  0  0  0  0  0  0  0  0  0
   30.1960   27.3580   45.1570 O   0  0  0  0  0  0  0  0  0  0  0  0
   29.7540   28.5660   45.4280 C   0  0  0  0  0  0  0  0  0  0  0  0
   28.8980   29.1440   45.1120 H   0  0  0  0  0  0  0  0  0  0  0  0
   30.6430   29.1020   46.2960 N   0  0  0  0  0  0  0  0  0  0  0  0
  1  2  2  0  0  0  0
  1 12  1  0  0  0  0
  2  6  1  0  0  0  0
  3  7  1  0  0  0  0
  3  2  1  0  0  0  0
  4  3  2  0  0  0  0
  5  4  1  0  0  0  0
  5  1  1  0  0  0  0
  8 14  1  0  0  0  0
  9 15  1  0  0  0  0
  9  8  2  0  0  0  0
 10  9  1  0  0  0  0
 11 10  2  0  0  0  0
 11 12  1  0  0  0  0
 12 13  2  0  0  0  0
 13  8  1  0  0  0  0
 16 10  1  0  0  0  0
 17  4  1  0  0  0  0
 18 17  2  0  0  0  0
 19 20  1  0  0  0  0
 19 18  1  0  0  0  0
 20 22  2  0  0  0  0
 21 20  1  0  0  0  0
 22 17  1  0  0  0  0
M  END
>  <minimizedAffinity>
-4.31502581

>  <minimizedRMSD>
0.263688266

$$$$
