
 OpenBabel03252513143D

 42 45  0  0  0  0  0  0  0  0999 V2000
   36.8560   30.8110   46.0840 C   0  0  0  0  0  0  0  0  0  0  0  0
   35.8300   30.0470   46.6380 C   0  0  0  0  0  0  0  0  0  0  0  0
   35.5130   29.9910   47.9570 C   0  0  0  0  0  0  0  0  0  0  0  0
   36.2300   30.7270   48.8590 C   0  0  0  0  0  0  0  0  0  0  0  0
   37.2370   31.4910   48.3980 C   0  0  0  0  0  0  0  0  0  0  0  0
   37.9550   32.2300   49.3140 C   0  0  0  0  0  0  0  0  0  0  0  0
   38.9890   33.0270   48.9280 C   0  0  0  0  0  0  0  0  0  0  0  0
   39.3070   33.0790   47.5800 C   0  0  0  0  0  0  0  0  0  0  0  0
   38.5720   32.3330   46.7050 C   0  0  0  0  0  0  0  0  0  0  0  0
   37.5460   31.5350   47.0520 C   0  0  0  0  0  0  0  0  0  0  0  0
   35.2250   29.4390   45.9620 H   0  0  0  0  0  0  0  0  0  0  0  0
   34.6970   29.3680   48.3030 H   0  0  0  0  0  0  0  0  0  0  0  0
   37.7600   32.2380   50.3770 H   0  0  0  0  0  0  0  0  0  0  0  0
   39.5780   33.6220   49.6110 H   0  0  0  0  0  0  0  0  0  0  0  0
   40.1200   33.7010   47.2340 H   0  0  0  0  0  0  0  0  0  0  0  0
   38.8500   32.3980   45.6540 H   0  0  0  0  0  0  0  0  0  0  0  0
   36.1560   31.3660   42.6030 C   0  0  0  0  0  0  0  0  0  0  0  0
   37.3280   31.0430   41.9180 C   0  0  0  0  0  0  0  0  0  0  0  0
   38.3940   30.6210   42.6590 C   0  0  0  0  0  0  0  0  0  0  0  0
   38.2030   30.5640   43.9580 N   0  0  0  0  0  0  0  0  0  0  0  0
   37.1600   30.8420   44.6740 C   0  0  0  0  0  0  0  0  0  0  0  0
   36.1420   31.2480   43.9250 N   0  0  0  0  0  0  0  0  0  0  0  0
   35.2760   31.7120   42.0210 H   0  0  0  0  0  0  0  0  0  0  0  0
   39.6400   30.2520   42.1140 N   0  0  0  0  0  0  0  0  0  0  0  0
   40.7600   29.9240   42.9140 C   0  0  0  0  0  0  0  0  0  0  0  0
   40.9770   30.6320   43.9820 N   0  0  0  0  0  0  0  0  0  0  0  0
   41.6140   28.8500   42.5610 N   0  0  0  0  0  0  0  0  0  0  0  0
   41.7070   30.4950   44.6680 H   0  0  0  0  0  0  0  0  0  0  0  0
   39.8610   30.1780   41.0740 H   0  0  0  0  0  0  0  0  0  0  0  0
   41.6360   27.9900   43.1550 H   0  0  0  0  0  0  0  0  0  0  0  0
   42.3110   28.5990   41.8220 H   0  0  0  0  0  0  0  0  0  0  0  0
   37.4050   31.1550   40.4700 C   0  0  0  0  0  0  0  0  0  0  0  0
   37.9220   30.1770   39.7100 N   0  0  0  0  0  0  0  0  0  0  0  0
   37.9000   30.4660   38.4480 O   0  0  0  0  0  0  0  0  0  0  0  0
   37.3650   31.6540   38.3070 C   0  0  0  0  0  0  0  0  0  0  0  0
   37.1080   32.3650   37.5060 H   0  0  0  0  0  0  0  0  0  0  0  0
   37.0690   32.0610   39.5480 N   0  0  0  0  0  0  0  0  0  0  0  0
   35.8880   30.6530   50.1920 O   0  0  0  0  0  0  0  0  0  0  0  0
   36.4090   29.6310   51.0170 C   0  0  0  0  0  0  0  0  0  0  0  0
   37.2260   28.7290   50.3920 F   0  0  0  0  0  0  0  0  0  0  0  0
   37.1890   30.2340   51.9910 F   0  0  0  0  0  0  0  0  0  0  0  0
   35.3090   28.9740   51.5790 F   0  0  0  0  0  0  0  0  0  0  0  0
  1  2  2  0  0  0  0
  1 10  1  0  0  0  0
  2  3  1  0  0  0  0
  3 12  1  0  0  0  0
  3  4  2  0  0  0  0
  4 38  1  0  0  0  0
  5  4  1  0  0  0  0
  5  6  1  0  0  0  0
  6 13  1  0  0  0  0
  7  6  2  0  0  0  0
  7 14  1  0  0  0  0
  8  7  1  0  0  0  0
  9 10  1  0  0  0  0
  9  8  2  0  0  0  0
 10  5  2  0  0  0  0
 11  2  1  0  0  0  0
 15  8  1  0  0  0  0
 16  9  1  0  0  0  0
 17 22  1  0  0  0  0
 18 17  2  0  0  0  0
 18 19  1  0  0  0  0
 19 20  2  0  0  0  0
 20 21  1  0  0  0  0
 21  1  1  0  0  0  0
 22 21  2  0  0  0  0
 23 17  1  0  0  0  0
 24 19  1  0  0  0  0
 24 25  1  0  0  0  0
 25 26  2  0  0  0  0
 26 28  1  0  0  0  0
 27 25  1  0  0  0  0
 27 30  1  0  0  0  0
 29 24  1  0  0  0  0
 31 27  1  0  0  0  0
 32 18  1  0  0  0  0
 33 32  2  0  0  0  0
 34 33  1  0  0  0  0
 35 34  1  0  0  0  0
 35 37  2  0  0  0  0
 36 35  1  0  0  0  0
 37 32  1  0  0  0  0
 38 39  1  0  0  0  0
 39 42  1  0  0  0  0
 39 41  1  0  0  0  0
 40 39  1  0  0  0  0
M  END
>  <minimizedAffinity>
-7.3636322

>  <minimizedRMSD>
0.109168619

$$$$
