
 OpenBabel03252512053D

 35 37  0  0  0  0  0  0  0  0999 V2000
   37.8230   32.4410   48.1020 C   0  0  0  0  0  0  0  0  0  0  0  0
   37.1250   32.4530   47.2000 H   0  0  0  0  0  0  0  0  0  0  0  0
   37.6950   33.4160   48.5490 H   0  0  0  0  0  0  0  0  0  0  0  0
   37.3410   31.2980   48.9570 C   0  0  0  0  0  0  0  0  0  0  0  0
   37.8270   31.0940   50.2150 C   0  0  0  0  0  0  0  0  0  0  0  0
   37.3860   30.0370   50.9770 C   0  0  0  0  0  0  0  0  0  0  0  0
   36.4530   29.2100   50.4310 N   0  0  0  0  0  0  0  0  0  0  0  0
   35.9790   29.4060   49.2090 C   0  0  0  0  0  0  0  0  0  0  0  0
   36.4060   30.4330   48.4680 N   0  0  0  0  0  0  0  0  0  0  0  0
   38.5500   31.7170   50.6760 H   0  0  0  0  0  0  0  0  0  0  0  0
   37.7600   29.8600   51.9760 H   0  0  0  0  0  0  0  0  0  0  0  0
   34.9540   28.4900   48.6230 C   0  0  0  0  0  0  0  0  0  0  0  0
   35.3810   27.4770   48.6550 H   0  0  0  0  0  0  0  0  0  0  0  0
   34.7120   28.7720   47.5790 H   0  0  0  0  0  0  0  0  0  0  0  0
   33.6540   28.5730   49.4180 C   0  0  0  0  0  0  0  0  0  0  0  0
   33.9180   28.7900   50.4730 H   0  0  0  0  0  0  0  0  0  0  0  0
   33.1910   27.5640   49.3880 H   0  0  0  0  0  0  0  0  0  0  0  0
   32.9780   29.3450   49.0070 H   0  0  0  0  0  0  0  0  0  0  0  0
   39.2050   32.0560   47.6760 C   0  0  0  0  0  0  0  0  0  0  0  0
   39.9640   32.6490   48.2420 H   0  0  0  0  0  0  0  0  0  0  0  0
   39.3520   31.0140   48.1110 H   0  0  0  0  0  0  0  0  0  0  0  0
   40.4750   31.3950   45.6940 C   0  0  0  0  0  0  0  0  0  0  0  0
   39.3420   31.9510   46.2690 C   0  0  0  0  0  0  0  0  0  0  0  0
   38.3550   32.3690   45.4280 C   0  0  0  0  0  0  0  0  0  0  0  0
   38.4770   32.2450   44.0670 N   0  0  0  0  0  0  0  0  0  0  0  0
   39.5880   31.7000   43.5270 C   0  0  0  0  0  0  0  0  0  0  0  0
   40.5420   31.2960   44.3420 N   0  0  0  0  0  0  0  0  0  0  0  0
   41.2730   31.0560   46.3420 H   0  0  0  0  0  0  0  0  0  0  0  0
   37.4070   32.8310   45.6470 H   0  0  0  0  0  0  0  0  0  0  0  0
   39.7480   31.5510   42.0820 C   0  0  0  0  0  0  0  0  0  0  0  0
   40.6000   30.7840   41.3440 N   0  0  0  0  0  0  0  0  0  0  0  0
   40.3650   30.9920   40.0800 O   0  0  0  0  0  0  0  0  0  0  0  0
   39.4050   31.8550   39.9230 C   0  0  0  0  0  0  0  0  0  0  0  0
   38.8680   32.3350   39.1160 H   0  0  0  0  0  0  0  0  0  0  0  0
   39.0090   32.2140   41.1610 N   0  0  0  0  0  0  0  0  0  0  0  0
  1  3  1  0  0  0  0
  1  4  1  0  0  0  0
  2  1  1  0  0  0  0
  4  5  1  0  0  0  0
  5 10  1  0  0  0  0
  5  6  2  0  0  0  0
  6 11  1  0  0  0  0
  7  6  1  0  0  0  0
  8  7  2  0  0  0  0
  9  4  2  0  0  0  0
  9  8  1  0  0  0  0
 12 13  1  0  0  0  0
 12  8  1  0  0  0  0
 12 15  1  0  0  0  0
 14 12  1  0  0  0  0
 15 16  1  0  0  0  0
 17 15  1  0  0  0  0
 18 15  1  0  0  0  0
 19  1  1  0  0  0  0
 19 21  1  0  0  0  0
 19 20  1  0  0  0  0
 22 23  1  0  0  0  0
 22 28  1  0  0  0  0
 23 19  1  0  0  0  0
 24 29  1  0  0  0  0
 24 23  2  0  0  0  0
 25 24  1  0  0  0  0
 26 25  2  0  0  0  0
 26 27  1  0  0  0  0
 27 22  2  0  0  0  0
 30 26  1  0  0  0  0
 31 30  2  0  0  0  0
 32 31  1  0  0  0  0
 33 32  1  0  0  0  0
 33 35  2  0  0  0  0
 34 33  1  0  0  0  0
 35 30  1  0  0  0  0
M  END
>  <minimizedAffinity>
-5.38475323

>  <minimizedRMSD>
8.36713028

$$$$
