
 OpenBabel03252514043D

 35 38  0  0  1  0  0  0  0  0999 V2000
   35.2630   29.2650   48.7240 C   0  0  2  0  0  0  0  0  0  0  0  0
   34.0940   29.2980   49.5970 C   0  0  0  0  0  0  0  0  0  0  0  0
   34.4600   27.9890   49.1420 C   0  0  1  0  0  0  0  0  0  0  0  0
   35.2430   29.4990   47.6550 H   0  0  0  0  0  0  0  0  0  0  0  0
   33.1940   29.8480   49.2180 H   0  0  0  0  0  0  0  0  0  0  0  0
   34.2600   29.5690   50.6820 H   0  0  0  0  0  0  0  0  0  0  0  0
   35.0840   27.2480   49.6520 H   0  0  0  0  0  0  0  0  0  0  0  0
   36.6310   29.2800   49.4300 C   0  0  0  0  0  0  0  0  0  0  0  0
   36.4890   29.1740   50.5240 H   0  0  0  0  0  0  0  0  0  0  0  0
   37.2640   28.4410   49.0960 H   0  0  0  0  0  0  0  0  0  0  0  0
   37.7160   32.7650   49.5460 C   0  0  0  0  0  0  0  0  0  0  0  0
   38.5550   32.8650   48.4140 C   0  0  0  0  0  0  0  0  0  0  0  0
   38.7320   31.7070   47.6210 C   0  0  0  0  0  0  0  0  0  0  0  0
   38.0780   30.5620   48.0030 N   0  0  0  0  0  0  0  0  0  0  0  0
   37.2970   30.5250   49.0840 C   0  0  0  0  0  0  0  0  0  0  0  0
   37.1230   31.6380   49.8510 N   0  0  0  0  0  0  0  0  0  0  0  0
   37.6140   33.6780   50.1180 H   0  0  0  0  0  0  0  0  0  0  0  0
   39.0320   33.8050   48.1850 H   0  0  0  0  0  0  0  0  0  0  0  0
   39.3680   31.7650   46.7540 H   0  0  0  0  0  0  0  0  0  0  0  0
   33.5640   27.3980   48.0790 C   0  0  0  0  0  0  0  0  0  0  0  0
   33.8470   26.1790   47.7690 O   0  0  0  0  0  0  0  0  0  0  0  0
   32.5150   28.0080   47.4410 O   0  0  0  0  0  0  0  0  0  0  0  0
   31.2360   28.0680   47.9030 C   0  0  0  0  0  0  0  0  0  0  0  0
   30.8020   27.5760   49.2170 C   0  0  0  0  0  0  0  0  0  0  0  0
   29.5130   27.6760   49.6090 C   0  0  0  0  0  0  0  0  0  0  0  0
   28.5720   28.2650   48.7310 C   0  0  0  0  0  0  0  0  0  0  0  0
   29.6050   28.7160   47.2190 S   0  0  0  0  0  0  0  0  0  0  0  0
   31.5560   27.1330   49.8520 H   0  0  0  0  0  0  0  0  0  0  0  0
   29.1330   27.3370   50.5530 H   0  0  0  0  0  0  0  0  0  0  0  0
   27.1740   28.4880   48.9000 C   0  0  0  0  0  0  0  0  0  0  0  0
   26.2510   28.7640   47.9570 N   0  0  0  0  0  0  0  0  0  0  0  0
   25.0870   28.8960   48.5410 O   0  0  0  0  0  0  0  0  0  0  0  0
   25.2020   28.7170   49.8360 C   0  0  0  0  0  0  0  0  0  0  0  0
   24.2390   28.8250   50.3270 H   0  0  0  0  0  0  0  0  0  0  0  0
   26.5040   28.4610   50.0690 N   0  0  0  0  0  0  0  0  0  0  0  0
  1  4  1  6  0  0  0
  1  3  1  0  0  0  0
  1  8  1  0  0  0  0
  1  2  1  0  0  0  0
  2  6  1  0  0  0  0
  3  2  1  0  0  0  0
  3  7  1  1  0  0  0
  5  2  1  0  0  0  0
  8  9  1  0  0  0  0
 10  8  1  0  0  0  0
 11 16  1  0  0  0  0
 11 17  1  0  0  0  0
 12 11  2  0  0  0  0
 13 14  2  0  0  0  0
 13 12  1  0  0  0  0
 14 15  1  0  0  0  0
 15  8  1  0  0  0  0
 15 16  2  0  0  0  0
 18 12  1  0  0  0  0
 19 13  1  0  0  0  0
 20  3  1  0  0  0  0
 21 20  2  0  0  0  0
 22 23  1  0  0  0  0
 22 20  1  0  0  0  0
 23 24  2  0  0  0  0
 24 25  1  0  0  0  0
 24 28  1  0  0  0  0
 25 29  1  0  0  0  0
 26 30  1  0  0  0  0
 26 25  2  0  0  0  0
 27 23  1  0  0  0  0
 27 26  1  0  0  0  0
 30 35  1  0  0  0  0
 31 32  1  0  0  0  0
 31 30  2  0  0  0  0
 32 33  1  0  0  0  0
 33 35  2  0  0  0  0
 33 34  1  0  0  0  0
M  END
>  <minimizedAffinity>
-6.14403057

>  <minimizedRMSD>
1.33027112

$$$$
