
 OpenBabel03252513483D

 22 23  0  0  0  0  0  0  0  0999 V2000
   36.4960   30.4520   47.3290 C   0  0  0  0  0  0  0  0  0  0  0  0
   37.2190   31.3430   48.1850 C   0  0  0  0  0  0  0  0  0  0  0  0
   38.1080   32.2150   47.5810 C   0  0  0  0  0  0  0  0  0  0  0  0
   38.2460   32.1820   46.2370 N   0  0  0  0  0  0  0  0  0  0  0  0
   37.5480   31.3280   45.4610 C   0  0  0  0  0  0  0  0  0  0  0  0
   36.6860   30.4770   46.0060 N   0  0  0  0  0  0  0  0  0  0  0  0
   37.0940   31.3530   49.2610 H   0  0  0  0  0  0  0  0  0  0  0  0
   38.8900   33.1590   48.3550 C   0  0  0  0  0  0  0  0  0  0  0  0
   38.8580   33.2710   49.6770 N   0  0  0  0  0  0  0  0  0  0  0  0
   39.6740   34.2070   50.0480 O   0  0  0  0  0  0  0  0  0  0  0  0
   40.2370   34.7080   48.9910 C   0  0  0  0  0  0  0  0  0  0  0  0
   40.9700   35.5100   48.9640 H   0  0  0  0  0  0  0  0  0  0  0  0
   39.7540   34.0570   47.9010 N   0  0  0  0  0  0  0  0  0  0  0  0
   37.8130   31.4150   43.9970 C   0  0  0  0  0  0  0  0  0  0  0  0
   37.5720   32.7160   43.5510 F   0  0  0  0  0  0  0  0  0  0  0  0
   39.1410   31.1700   43.7560 F   0  0  0  0  0  0  0  0  0  0  0  0
   37.0740   30.4960   43.2720 F   0  0  0  0  0  0  0  0  0  0  0  0
   35.6020   29.5730   47.9270 O   0  0  0  0  0  0  0  0  0  0  0  0
   34.3170   29.9240   48.3550 C   0  0  0  0  0  0  0  0  0  0  0  0
   34.3070   30.5030   49.6050 F   0  0  0  0  0  0  0  0  0  0  0  0
   33.6010   30.6830   47.4650 F   0  0  0  0  0  0  0  0  0  0  0  0
   33.6240   28.7190   48.4810 F   0  0  0  0  0  0  0  0  0  0  0  0
  1 18  1  0  0  0  0
  1  2  1  0  0  0  0
  2  7  1  0  0  0  0
  3  2  2  0  0  0  0
  3  8  1  0  0  0  0
  4  3  1  0  0  0  0
  5  6  1  0  0  0  0
  5  4  2  0  0  0  0
  6  1  2  0  0  0  0
  8  9  2  0  0  0  0
  9 10  1  0  0  0  0
 11 10  1  0  0  0  0
 12 11  1  0  0  0  0
 13  8  1  0  0  0  0
 13 11  2  0  0  0  0
 14  5  1  0  0  0  0
 15 14  1  0  0  0  0
 16 14  1  0  0  0  0
 17 14  1  0  0  0  0
 18 19  1  0  0  0  0
 19 22  1  0  0  0  0
 19 20  1  0  0  0  0
 21 19  1  0  0  0  0
M  END
>  <minimizedAffinity>
-4.30683947

>  <minimizedRMSD>
2.29049897

$$$$
