
 OpenBabel03252511573D

 34 37  0  0  0  0  0  0  0  0999 V2000
   36.3590   30.2950   47.5150 N   0  0  0  0  0  0  0  0  0  0  0  0
   35.1110   29.9640   47.0980 C   0  0  0  0  0  0  0  0  0  0  0  0
   34.7590   30.0560   45.7650 C   0  0  0  0  0  0  0  0  0  0  0  0
   35.7520   30.4950   44.9400 C   0  0  0  0  0  0  0  0  0  0  0  0
   35.4720   30.5950   43.7020 O   0  0  0  0  0  0  0  0  0  0  0  0
   37.0170   30.8410   45.3000 N   0  0  0  0  0  0  0  0  0  0  0  0
   37.2670   30.7180   46.6200 C   0  0  0  0  0  0  0  0  0  0  0  0
   38.4030   31.0140   47.0240 O   0  0  0  0  0  0  0  0  0  0  0  0
   34.3660   29.6190   47.8200 H   0  0  0  0  0  0  0  0  0  0  0  0
   33.7770   29.8030   45.3880 H   0  0  0  0  0  0  0  0  0  0  0  0
   36.8550   31.4000   49.5290 C   0  0  0  0  0  0  0  0  0  0  0  0
   36.6570   30.1800   48.8750 C   0  0  0  0  0  0  0  0  0  0  0  0
   36.7820   29.0020   49.6110 C   0  0  0  0  0  0  0  0  0  0  0  0
   37.0910   29.0710   50.9270 N   0  0  0  0  0  0  0  0  0  0  0  0
   37.2810   30.2730   51.5420 C   0  0  0  0  0  0  0  0  0  0  0  0
   37.1590   31.4370   50.8300 N   0  0  0  0  0  0  0  0  0  0  0  0
   36.8120   32.4370   49.2370 H   0  0  0  0  0  0  0  0  0  0  0  0
   36.6150   28.0990   49.0410 H   0  0  0  0  0  0  0  0  0  0  0  0
   37.5160   30.1250   52.5780 H   0  0  0  0  0  0  0  0  0  0  0  0
   37.9450   31.2840   44.3460 C   0  0  0  0  0  0  0  0  0  0  0  0
   38.2600   32.5980   44.0520 C   0  0  0  0  0  0  0  0  0  0  0  0
   39.1750   32.9610   43.1070 C   0  0  0  0  0  0  0  0  0  0  0  0
   39.8260   31.9760   42.4020 C   0  0  0  0  0  0  0  0  0  0  0  0
   39.5070   30.6640   42.7000 C   0  0  0  0  0  0  0  0  0  0  0  0
   38.5910   30.3220   43.6470 N   0  0  0  0  0  0  0  0  0  0  0  0
   37.7270   33.3320   44.6280 H   0  0  0  0  0  0  0  0  0  0  0  0
   39.4040   33.9970   42.8960 H   0  0  0  0  0  0  0  0  0  0  0  0
   40.5630   32.2210   41.6400 H   0  0  0  0  0  0  0  0  0  0  0  0
   40.1990   29.6180   41.9500 C   0  0  0  0  0  0  0  0  0  0  0  0
   41.5280   29.4720   41.7990 N   0  0  0  0  0  0  0  0  0  0  0  0
   41.8100   28.4470   41.0790 O   0  0  0  0  0  0  0  0  0  0  0  0
   40.6760   27.8830   40.7330 C   0  0  0  0  0  0  0  0  0  0  0  0
   40.7720   26.9870   40.1100 H   0  0  0  0  0  0  0  0  0  0  0  0
   39.6400   28.5830   41.2570 N   0  0  0  0  0  0  0  0  0  0  0  0
  1 12  1  0  0  0  0
  2  1  1  0  0  0  0
  2  9  1  0  0  0  0
  3  2  2  0  0  0  0
  4  6  1  0  0  0  0
  4  3  1  0  0  0  0
  5  4  2  0  0  0  0
  6  7  1  0  0  0  0
  7  8  2  0  0  0  0
  7  1  1  0  0  0  0
 10  3  1  0  0  0  0
 11 16  1  0  0  0  0
 12 11  2  0  0  0  0
 12 13  1  0  0  0  0
 13 14  2  0  0  0  0
 14 15  1  0  0  0  0
 15 19  1  0  0  0  0
 16 15  2  0  0  0  0
 17 11  1  0  0  0  0
 18 13  1  0  0  0  0
 20  6  1  0  0  0  0
 21 20  1  0  0  0  0
 21 26  1  0  0  0  0
 22 21  2  0  0  0  0
 23 24  2  0  0  0  0
 23 22  1  0  0  0  0
 24 25  1  0  0  0  0
 25 20  2  0  0  0  0
 27 22  1  0  0  0  0
 28 23  1  0  0  0  0
 29 24  1  0  0  0  0
 30 29  2  0  0  0  0
 31 30  1  0  0  0  0
 32 31  1  0  0  0  0
 32 34  2  0  0  0  0
 33 32  1  0  0  0  0
 34 29  1  0  0  0  0
M  END
>  <minimizedAffinity>
-5.47584581

>  <minimizedRMSD>
0.582906961

$$$$
