
 OpenBabel03252513483D

 22 23  0  0  0  0  0  0  0  0999 V2000
   36.5530   29.9140   48.5720 C   0  0  0  0  0  0  0  0  0  0  0  0
   37.4070   30.9650   49.0340 C   0  0  0  0  0  0  0  0  0  0  0  0
   37.9160   31.8300   48.0820 C   0  0  0  0  0  0  0  0  0  0  0  0
   37.5860   31.6420   46.7850 N   0  0  0  0  0  0  0  0  0  0  0  0
   36.7770   30.6400   46.3840 C   0  0  0  0  0  0  0  0  0  0  0  0
   36.2700   29.7910   47.2710 N   0  0  0  0  0  0  0  0  0  0  0  0
   37.6600   31.0980   50.0800 H   0  0  0  0  0  0  0  0  0  0  0  0
   38.7910   32.9280   48.4430 C   0  0  0  0  0  0  0  0  0  0  0  0
   38.9120   33.4370   49.6630 N   0  0  0  0  0  0  0  0  0  0  0  0
   39.7730   34.4040   49.6410 O   0  0  0  0  0  0  0  0  0  0  0  0
   40.2170   34.5360   48.4280 C   0  0  0  0  0  0  0  0  0  0  0  0
   40.9500   35.2590   48.0800 H   0  0  0  0  0  0  0  0  0  0  0  0
   39.6050   33.6080   47.6470 N   0  0  0  0  0  0  0  0  0  0  0  0
   36.5090   30.5670   44.9200 C   0  0  0  0  0  0  0  0  0  0  0  0
   36.8390   31.7830   44.3190 F   0  0  0  0  0  0  0  0  0  0  0  0
   37.3280   29.6260   44.3500 F   0  0  0  0  0  0  0  0  0  0  0  0
   35.1990   30.2130   44.6410 F   0  0  0  0  0  0  0  0  0  0  0  0
   36.0380   29.0420   49.5220 O   0  0  0  0  0  0  0  0  0  0  0  0
   34.8760   29.2790   50.2650 C   0  0  0  0  0  0  0  0  0  0  0  0
   35.0670   29.1310   51.6210 F   0  0  0  0  0  0  0  0  0  0  0  0
   34.2510   30.4680   49.9920 F   0  0  0  0  0  0  0  0  0  0  0  0
   33.9810   28.2760   49.8890 F   0  0  0  0  0  0  0  0  0  0  0  0
  1  2  1  0  0  0  0
  1 18  1  0  0  0  0
  2  7  1  0  0  0  0
  3  8  1  0  0  0  0
  3  2  2  0  0  0  0
  4  3  1  0  0  0  0
  5  4  2  0  0  0  0
  5  6  1  0  0  0  0
  6  1  2  0  0  0  0
  8  9  2  0  0  0  0
 10  9  1  0  0  0  0
 11 10  1  0  0  0  0
 12 11  1  0  0  0  0
 13 11  2  0  0  0  0
 13  8  1  0  0  0  0
 14  5  1  0  0  0  0
 15 14  1  0  0  0  0
 16 14  1  0  0  0  0
 17 14  1  0  0  0  0
 18 19  1  0  0  0  0
 19 20  1  0  0  0  0
 21 19  1  0  0  0  0
 22 19  1  0  0  0  0
M  END
>  <minimizedAffinity>
-4.83177996

>  <minimizedRMSD>
2.22234964

$$$$
