
 OpenBabel03252513583D

 26 28  0  0  1  0  0  0  0  0999 V2000
   35.4060   29.4370   49.1180 C   0  0  2  0  0  0  0  0  0  0  0  0
   34.3740   29.6670   50.1510 C   0  0  0  0  0  0  0  0  0  0  0  0
   34.5230   28.2990   49.6170 C   0  0  1  0  0  0  0  0  0  0  0  0
   35.2230   29.8150   48.0850 H   0  0  0  0  0  0  0  0  0  0  0  0
   34.6440   29.8970   51.2010 H   0  0  0  0  0  0  0  0  0  0  0  0
   33.4860   30.2490   49.8170 H   0  0  0  0  0  0  0  0  0  0  0  0
   34.9740   27.5500   50.3000 H   0  0  0  0  0  0  0  0  0  0  0  0
   33.5340   27.7310   48.6530 C   0  0  0  0  0  0  0  0  0  0  0  0
   33.9250   26.8970   47.6220 C   0  0  0  0  0  3  0  0  0  0  0  0
   32.9540   26.4140   46.7750 C   0  0  0  0  0  0  0  0  0  0  0  0
   33.1760   25.7600   45.9480 H   0  0  0  0  0  0  0  0  0  0  0  0
   31.6310   26.7040   46.8880 N   0  0  0  0  0  0  0  0  0  0  0  0
   31.2830   27.5270   47.9160 C   0  0  0  0  0  3  0  0  0  0  0  0
   32.2240   28.0030   48.7470 N   0  0  0  0  0  0  0  0  0  0  0  0
   36.8590   29.2970   49.5110 C   0  0  0  0  0  0  0  0  0  0  0  0
   36.8930   29.2750   50.6340 H   0  0  0  0  0  0  0  0  0  0  0  0
   37.3080   28.3390   49.1450 H   0  0  0  0  0  0  0  0  0  0  0  0
   38.3640   32.6500   49.3960 C   0  0  0  0  0  0  0  0  0  0  0  0
   38.8870   32.7200   48.1050 C   0  0  0  0  0  0  0  0  0  0  0  0
   38.7180   31.6070   47.2710 C   0  0  0  0  0  0  0  0  0  0  0  0
   38.0550   30.5210   47.7710 N   0  0  0  0  0  0  0  0  0  0  0  0
   37.5650   30.5020   49.0370 C   0  0  0  0  0  0  0  0  0  0  0  0
   37.7210   31.5660   49.8460 N   0  0  0  0  0  0  0  0  0  0  0  0
   38.4800   33.5010   50.0690 H   0  0  0  0  0  0  0  0  0  0  0  0
   39.4080   33.5870   47.7280 H   0  0  0  0  0  0  0  0  0  0  0  0
   39.0960   31.5770   46.2470 H   0  0  0  0  0  0  0  0  0  0  0  0
  1  4  1  6  0  0  0
  1 15  1  0  0  0  0
  1  3  1  0  0  0  0
  1  2  1  0  0  0  0
  2  5  1  0  0  0  0
  3  2  1  0  0  0  0
  3  7  1  1  0  0  0
  6  2  1  0  0  0  0
  8 14  1  0  0  0  0
  8  3  1  0  0  0  0
  9  8  2  0  0  0  0
 10 12  2  0  0  0  0
 10  9  1  0  0  0  0
 11 10  1  0  0  0  0
 12 13  1  0  0  0  0
 13 14  2  0  0  0  0
 15 16  1  0  0  0  0
 17 15  1  0  0  0  0
 18 23  1  0  0  0  0
 18 24  1  0  0  0  0
 19 18  2  0  0  0  0
 20 21  2  0  0  0  0
 20 19  1  0  0  0  0
 21 22  1  0  0  0  0
 22 15  1  0  0  0  0
 22 23  2  0  0  0  0
 25 19  1  0  0  0  0
 26 20  1  0  0  0  0
M  END
>  <minimizedAffinity>
-5.00223541

>  <minimizedRMSD>
0.637423933

$$$$
