
 OpenBabel03252513143D

 43 46  0  0  0  0  0  0  0  0999 V2000
   37.6970   32.6940   43.1140 C   0  0  0  0  0  0  0  0  0  0  0  0
   38.2630   31.7370   42.2660 C   0  0  0  0  0  0  0  0  0  0  0  0
   38.5380   30.5150   42.8000 C   0  0  0  0  0  0  0  0  0  0  0  0
   38.2390   30.3550   44.0870 N   0  0  0  0  0  0  0  0  0  0  0  0
   37.7190   31.1820   44.9350 C   0  0  0  0  0  0  0  0  0  0  0  0
   37.4610   32.3640   44.3840 N   0  0  0  0  0  0  0  0  0  0  0  0
   37.4320   33.7100   42.7980 H   0  0  0  0  0  0  0  0  0  0  0  0
   37.3600   31.1100   46.3340 C   0  0  0  0  0  0  0  0  0  0  0  0
   36.3690   30.2530   46.8260 C   0  0  0  0  0  0  0  0  0  0  0  0
   35.9970   30.1580   48.1300 C   0  0  0  0  0  0  0  0  0  0  0  0
   36.6190   30.9480   49.0730 C   0  0  0  0  0  0  0  0  0  0  0  0
   37.5770   31.7880   48.6550 C   0  0  0  0  0  0  0  0  0  0  0  0
   38.2000   32.5850   49.6120 C   0  0  0  0  0  0  0  0  0  0  0  0
   39.1830   33.4680   49.2780 C   0  0  0  0  0  0  0  0  0  0  0  0
   39.5540   33.5560   47.9480 C   0  0  0  0  0  0  0  0  0  0  0  0
   38.9200   32.7590   47.0360 C   0  0  0  0  0  0  0  0  0  0  0  0
   37.9460   31.8780   47.3330 C   0  0  0  0  0  0  0  0  0  0  0  0
   35.8640   29.6190   46.1050 H   0  0  0  0  0  0  0  0  0  0  0  0
   35.2190   29.4630   48.4120 H   0  0  0  0  0  0  0  0  0  0  0  0
   37.9620   32.5690   50.6670 H   0  0  0  0  0  0  0  0  0  0  0  0
   39.6900   34.1030   49.9970 H   0  0  0  0  0  0  0  0  0  0  0  0
   40.3280   34.2400   47.6330 H   0  0  0  0  0  0  0  0  0  0  0  0
   39.2380   32.8570   45.9990 H   0  0  0  0  0  0  0  0  0  0  0  0
   36.2290   30.8390   50.3900 O   0  0  0  0  0  0  0  0  0  0  0  0
   36.6490   29.7440   51.1770 C   0  0  0  0  0  0  0  0  0  0  0  0
   37.4590   28.8500   50.5500 F   0  0  0  0  0  0  0  0  0  0  0  0
   37.3950   30.2540   52.2380 F   0  0  0  0  0  0  0  0  0  0  0  0
   35.4840   29.1190   51.6300 F   0  0  0  0  0  0  0  0  0  0  0  0
   39.0890   29.4310   42.0890 N   0  0  0  0  0  0  0  0  0  0  0  0
   40.2910   28.7880   42.4620 C   0  0  0  0  0  0  0  0  0  0  0  0
   41.2670   29.5210   42.9130 N   0  0  0  0  0  0  0  0  0  0  0  0
   40.4330   27.3760   42.3580 N   0  0  0  0  0  0  0  0  0  0  0  0
   42.1670   29.2040   43.2530 H   0  0  0  0  0  0  0  0  0  0  0  0
   38.7180   28.9400   41.2270 H   0  0  0  0  0  0  0  0  0  0  0  0
   40.5090   26.8180   43.2570 H   0  0  0  0  0  0  0  0  0  0  0  0
   40.4340   27.1540   41.3320 H   0  0  0  0  0  0  0  0  0  0  0  0
   38.5510   32.0490   40.8720 C   0  0  0  0  0  0  0  0  0  0  0  0
   37.7000   32.9000   40.2090 C   0  0  0  0  0  0  0  0  0  0  0  0
   37.8330   33.2930   38.8920 C   0  0  0  0  0  0  0  0  0  0  0  0
   37.2170   33.9500   38.3060 H   0  0  0  0  0  0  0  0  0  0  0  0
   38.9090   32.7790   38.2120 N   0  0  0  0  0  0  0  0  0  0  0  0
   39.7460   31.9330   38.8870 C   0  0  0  0  0  0  0  0  0  0  0  0
   39.5620   31.5980   40.1460 N   0  0  0  0  0  0  0  0  0  0  0  0
  1  6  1  0  0  0  0
  2  3  1  0  0  0  0
  2  1  2  0  0  0  0
  3  4  2  0  0  0  0
  4  5  1  0  0  0  0
  5  8  1  0  0  0  0
  6  5  2  0  0  0  0
  7  1  1  0  0  0  0
  8  9  2  0  0  0  0
  8 17  1  0  0  0  0
  9 10  1  0  0  0  0
 10 19  1  0  0  0  0
 10 11  2  0  0  0  0
 11 24  1  0  0  0  0
 12 11  1  0  0  0  0
 12 13  1  0  0  0  0
 13 20  1  0  0  0  0
 14 13  2  0  0  0  0
 14 21  1  0  0  0  0
 15 14  1  0  0  0  0
 16 17  1  0  0  0  0
 16 15  2  0  0  0  0
 17 12  2  0  0  0  0
 18  9  1  0  0  0  0
 22 15  1  0  0  0  0
 23 16  1  0  0  0  0
 24 25  1  0  0  0  0
 25 28  1  0  0  0  0
 25 27  1  0  0  0  0
 26 25  1  0  0  0  0
 29 30  1  0  0  0  0
 29  3  1  0  0  0  0
 30 31  2  0  0  0  0
 31 33  1  0  0  0  0
 32 30  1  0  0  0  0
 32 35  1  0  0  0  0
 34 29  1  0  0  0  0
 36 32  1  0  0  0  0
 37  2  1  0  0  0  0
 38 37  1  0  0  0  0
 39 38  2  0  0  0  0
 40 39  1  0  0  0  0
 41 42  2  0  0  0  0
 41 39  1  0  0  0  0
 42 43  1  0  0  0  0
 43 37  2  0  0  0  0
M  END
>  <minimizedAffinity>
-7.6694088

>  <minimizedRMSD>
1.4313947

$$$$
