
 OpenBabel03252514043D

 36 39  0  0  1  0  0  0  0  0999 V2000
   36.2760   30.1840   50.0770 C   0  0  2  0  0  0  0  0  0  0  0  0
   35.6450   29.3430   51.0900 C   0  0  0  0  0  0  0  0  0  0  0  0
   35.6120   28.8010   49.7630 C   0  0  1  0  0  0  0  0  0  0  0  0
   35.8340   31.0330   49.5610 H   0  0  0  0  0  0  0  0  0  0  0  0
   34.7180   29.6910   51.6030 H   0  0  0  0  0  0  0  0  0  0  0  0
   36.3310   28.8610   51.8470 H   0  0  0  0  0  0  0  0  0  0  0  0
   36.3100   28.0880   49.3190 H   0  0  0  0  0  0  0  0  0  0  0  0
   37.8060   30.0720   49.9630 C   0  0  0  0  0  0  0  0  0  0  0  0
   38.0230   29.1260   49.4050 H   0  0  0  0  0  0  0  0  0  0  0  0
   38.2870   30.0300   50.9660 H   0  0  0  0  0  0  0  0  0  0  0  0
   38.9190   33.4840   49.2850 C   0  0  0  0  0  0  0  0  0  0  0  0
   39.1980   33.4480   47.9010 C   0  0  0  0  0  0  0  0  0  0  0  0
   38.9930   32.2230   47.2220 C   0  0  0  0  0  0  0  0  0  0  0  0
   38.5380   31.1520   47.9400 N   0  0  0  0  0  0  0  0  0  0  0  0
   38.2890   31.2490   49.2590 C   0  0  0  0  0  0  0  0  0  0  0  0
   38.4830   32.4160   49.9160 N   0  0  0  0  0  0  0  0  0  0  0  0
   39.0530   34.3890   49.8680 H   0  0  0  0  0  0  0  0  0  0  0  0
   39.5500   34.3240   47.4080 H   0  0  0  0  0  0  0  0  0  0  0  0
   39.1990   32.1670   46.1630 H   0  0  0  0  0  0  0  0  0  0  0  0
   34.2690   28.8590   49.0660 C   0  0  0  0  0  0  0  0  0  0  0  0
   33.2720   28.7380   49.8830 O   0  0  0  0  0  0  0  0  0  0  0  0
   34.0540   29.0310   47.6960 O   0  0  0  0  0  0  0  0  0  0  0  0
   32.9530   28.5630   47.0430 C   0  0  0  0  0  0  0  0  0  0  0  0
   32.0600   29.4020   46.2190 C   0  0  0  0  0  0  0  0  0  0  0  0
   30.9880   28.8350   45.6090 C   0  0  0  0  0  0  0  0  0  0  0  0
   30.7340   27.4460   45.7690 C   0  0  0  0  0  0  0  0  0  0  0  0
   32.1200   26.8780   46.8720 S   0  0  0  0  0  0  0  0  0  0  0  0
   32.2830   30.4420   46.1220 H   0  0  0  0  0  0  0  0  0  0  0  0
   30.2780   29.3490   44.9900 H   0  0  0  0  0  0  0  0  0  0  0  0
   29.7820   26.5700   45.3190 C   0  0  0  0  0  0  0  0  0  0  0  0
   29.5830   25.3670   45.9630 C   0  0  0  0  0  3  0  0  0  0  0  0
   28.6010   24.4960   45.4760 C   0  0  0  0  0  0  0  0  0  0  0  0
   28.4290   23.5470   45.9660 H   0  0  0  0  0  0  0  0  0  0  0  0
   27.8900   24.8890   44.3810 N   0  0  0  0  0  0  0  0  0  0  0  0
   28.0930   26.0670   43.7600 C   0  0  0  0  0  3  0  0  0  0  0  0
   29.0540   26.9100   44.2450 N   0  0  0  0  0  0  0  0  0  0  0  0
  1  4  1  6  0  0  0
  1  2  1  0  0  0  0
  2  5  1  0  0  0  0
  2  6  1  0  0  0  0
  3  7  1  6  0  0  0
  3  1  1  0  0  0  0
  3  2  1  0  0  0  0
  8  1  1  0  0  0  0
  8 10  1  0  0  0  0
  9  8  1  0  0  0  0
 11 17  1  0  0  0  0
 11 16  1  0  0  0  0
 12 11  2  0  0  0  0
 13 12  1  0  0  0  0
 13 14  2  0  0  0  0
 14 15  1  0  0  0  0
 15 16  2  0  0  0  0
 15  8  1  0  0  0  0
 18 12  1  0  0  0  0
 19 13  1  0  0  0  0
 20  3  1  0  0  0  0
 20 21  2  0  0  0  0
 22 20  1  0  0  0  0
 23 22  1  0  0  0  0
 24 23  2  0  0  0  0
 25 26  2  0  0  0  0
 25 24  1  0  0  0  0
 26 27  1  0  0  0  0
 27 23  1  0  0  0  0
 28 24  1  0  0  0  0
 29 25  1  0  0  0  0
 30 26  1  0  0  0  0
 30 31  1  0  0  0  0
 32 31  2  0  0  0  0
 32 33  1  0  0  0  0
 34 32  1  0  0  0  0
 35 36  1  0  0  0  0
 35 34  2  0  0  0  0
 36 30  2  0  0  0  0
M  END
>  <minimizedAffinity>
-4.89903498

>  <minimizedRMSD>
3.06475043

$$$$
