
 OpenBabel03252512013D

 25 27  0  0  0  0  0  0  0  0999 V2000
   36.4060   30.8680   49.1730 C   0  0  0  0  0  0  0  0  0  0  0  0
   36.7180   31.1600   50.1760 H   0  0  0  0  0  0  0  0  0  0  0  0
   35.4630   31.3530   48.8660 H   0  0  0  0  0  0  0  0  0  0  0  0
   37.4620   31.3540   48.2200 C   0  0  0  0  0  0  0  0  0  0  0  0
   37.7750   30.7790   46.9850 C   0  0  0  0  0  0  0  0  0  0  0  0
   38.7570   31.4270   46.3600 N   0  0  0  0  0  0  0  0  0  0  0  0
   39.1090   32.4290   47.1510 C   0  0  0  0  0  0  0  0  0  0  0  0
   40.0660   33.4080   47.0010 C   0  0  0  0  0  0  0  0  0  0  0  0
   40.2310   34.3590   48.0110 C   0  0  0  0  0  0  0  0  0  0  0  0
   39.4430   34.3280   49.1590 C   0  0  0  0  0  0  0  0  0  0  0  0
   38.4880   33.3450   49.3030 C   0  0  0  0  0  0  0  0  0  0  0  0
   38.3470   32.4220   48.2930 C   0  0  0  0  0  0  0  0  0  0  0  0
   39.1180   31.1330   45.4260 H   0  0  0  0  0  0  0  0  0  0  0  0
   36.3190   29.3400   49.0450 C   0  0  0  0  0  0  0  0  0  0  0  0
   36.4770   28.8840   50.0210 H   0  0  0  0  0  0  0  0  0  0  0  0
   37.1000   29.0520   48.2950 H   0  0  0  0  0  0  0  0  0  0  0  0
   34.3220   27.9190   49.0470 C   0  0  0  0  0  0  0  0  0  0  0  0
   35.0130   29.0240   48.5090 C   0  0  0  0  0  0  0  0  0  0  0  0
   34.3810   29.7360   47.4950 C   0  0  0  0  0  0  0  0  0  0  0  0
   33.1440   29.3290   47.0870 N   0  0  0  0  0  0  0  0  0  0  0  0
   32.5070   28.2690   47.6180 C   0  0  0  0  0  0  0  0  0  0  0  0
   33.0950   27.5680   48.5950 N   0  0  0  0  0  0  0  0  0  0  0  0
   34.7230   27.3120   49.8270 H   0  0  0  0  0  0  0  0  0  0  0  0
   34.8570   30.5740   47.0570 H   0  0  0  0  0  0  0  0  0  0  0  0
   31.5260   27.9550   47.2840 H   0  0  0  0  0  0  0  0  0  0  0  0
  1  2  1  0  0  0  0
  3  1  1  0  0  0  0
  4 12  1  0  0  0  0
  4  1  1  0  0  0  0
  5  4  2  0  0  0  0
  6  5  1  0  0  0  0
  6  7  1  0  0  0  0
  7 12  1  0  0  0  0
  8  7  2  0  0  0  0
  8  9  1  0  0  0  0
  9 10  2  0  0  0  0
 10 11  1  0  0  0  0
 12 11  2  0  0  0  0
 13  6  1  0  0  0  0
 14  1  1  0  0  0  0
 14 15  1  0  0  0  0
 16 14  1  0  0  0  0
 17 23  1  0  0  0  0
 18 14  1  0  0  0  0
 18 17  2  0  0  0  0
 19 18  1  0  0  0  0
 20 19  2  0  0  0  0
 20 21  1  0  0  0  0
 21 22  2  0  0  0  0
 22 17  1  0  0  0  0
 24 19  1  0  0  0  0
 25 21  1  0  0  0  0
M  END
>  <minimizedAffinity>
-5.51765394

>  <minimizedRMSD>
3.74902439

$$$$
