
 OpenBabel03252514053D

 36 39  0  0  1  0  0  0  0  0999 V2000
   35.2220   29.1320   48.4920 C   0  0  2  0  0  0  0  0  0  0  0  0
   33.9670   29.4590   49.1630 C   0  0  0  0  0  0  0  0  0  0  0  0
   34.2370   28.0550   49.0560 C   0  0  1  0  0  0  0  0  0  0  0  0
   35.3990   29.0780   47.4210 H   0  0  0  0  0  0  0  0  0  0  0  0
   33.1390   29.9410   48.5910 H   0  0  0  0  0  0  0  0  0  0  0  0
   34.0470   29.9420   50.1800 H   0  0  0  0  0  0  0  0  0  0  0  0
   34.7010   27.4080   49.8030 H   0  0  0  0  0  0  0  0  0  0  0  0
   36.4890   29.1950   49.3630 C   0  0  0  0  0  0  0  0  0  0  0  0
   37.1170   28.3100   49.0870 H   0  0  0  0  0  0  0  0  0  0  0  0
   36.2420   29.1520   50.4470 H   0  0  0  0  0  0  0  0  0  0  0  0
   37.5440   32.6830   49.6120 C   0  0  0  0  0  0  0  0  0  0  0  0
   38.4430   32.8120   48.5290 C   0  0  0  0  0  0  0  0  0  0  0  0
   38.6680   31.6700   47.7250 C   0  0  0  0  0  0  0  0  0  0  0  0
   38.0060   30.5150   48.0390 N   0  0  0  0  0  0  0  0  0  0  0  0
   37.1620   30.4540   49.0840 C   0  0  0  0  0  0  0  0  0  0  0  0
   36.9400   31.5410   49.8590 N   0  0  0  0  0  0  0  0  0  0  0  0
   37.3240   33.5170   50.2700 H   0  0  0  0  0  0  0  0  0  0  0  0
   38.9210   33.7460   48.3460 H   0  0  0  0  0  0  0  0  0  0  0  0
   39.3500   31.7400   46.8900 H   0  0  0  0  0  0  0  0  0  0  0  0
   33.4180   27.3080   48.0240 C   0  0  0  0  0  0  0  0  0  0  0  0
   33.8080   26.0830   47.8620 O   0  0  0  0  0  0  0  0  0  0  0  0
   32.3410   27.8190   47.2940 O   0  0  0  0  0  0  0  0  0  0  0  0
   31.1160   28.0660   47.8370 C   0  0  0  0  0  0  0  0  0  0  0  0
   30.7080   27.6390   49.1910 C   0  0  0  0  0  0  0  0  0  0  0  0
   29.4610   27.9390   49.6370 C   0  0  0  0  0  0  0  0  0  0  0  0
   28.5630   28.6560   48.8020 C   0  0  0  0  0  0  0  0  0  0  0  0
   29.5490   28.9400   47.2500 S   0  0  0  0  0  0  0  0  0  0  0  0
   31.4100   27.1010   49.7890 H   0  0  0  0  0  0  0  0  0  0  0  0
   29.0630   27.6780   50.5990 H   0  0  0  0  0  0  0  0  0  0  0  0
   27.2770   29.1140   48.9180 C   0  0  0  0  0  0  0  0  0  0  0  0
   26.9800   30.4320   48.6490 C   0  0  0  0  0  3  0  0  0  0  0  0
   25.6550   30.8640   48.7770 C   0  0  0  0  0  0  0  0  0  0  0  0
   25.4000   31.8950   48.5700 H   0  0  0  0  0  0  0  0  0  0  0  0
   24.7220   29.9490   49.1660 N   0  0  0  0  0  0  0  0  0  0  0  0
   25.0240   28.6610   49.4260 C   0  0  0  0  0  3  0  0  0  0  0  0
   26.3210   28.2510   49.2970 N   0  0  0  0  0  0  0  0  0  0  0  0
  1  4  1  6  0  0  0
  1  3  1  0  0  0  0
  1  2  1  0  0  0  0
  1  8  1  0  0  0  0
  2  6  1  0  0  0  0
  3  2  1  0  0  0  0
  3  7  1  1  0  0  0
  5  2  1  0  0  0  0
  8 10  1  0  0  0  0
  9  8  1  0  0  0  0
 11 16  1  0  0  0  0
 11 17  1  0  0  0  0
 12 11  2  0  0  0  0
 13 14  2  0  0  0  0
 13 12  1  0  0  0  0
 14 15  1  0  0  0  0
 15  8  1  0  0  0  0
 15 16  2  0  0  0  0
 18 12  1  0  0  0  0
 19 13  1  0  0  0  0
 20  3  1  0  0  0  0
 21 20  2  0  0  0  0
 22 23  1  0  0  0  0
 22 20  1  0  0  0  0
 23 24  2  0  0  0  0
 24 25  1  0  0  0  0
 24 28  1  0  0  0  0
 25 29  1  0  0  0  0
 26 30  1  0  0  0  0
 26 25  2  0  0  0  0
 27 23  1  0  0  0  0
 27 26  1  0  0  0  0
 30 36  1  0  0  0  0
 31 32  1  0  0  0  0
 31 30  2  0  0  0  0
 32 34  2  0  0  0  0
 33 32  1  0  0  0  0
 34 35  1  0  0  0  0
 36 35  2  0  0  0  0
M  END
>  <minimizedAffinity>
-6.46780586

>  <minimizedRMSD>
1.96430171

$$$$
