
 OpenBabel03252511313D

 19 20  0  0  0  0  0  0  0  0999 V2000
   37.4010   30.2770   50.0280 C   0  0  0  0  0  0  0  0  0  0  0  0
   38.2980   31.3480   50.1480 C   0  0  0  0  0  0  0  0  0  0  0  0
   38.5400   32.1430   49.0240 C   0  0  0  0  0  0  0  0  0  0  0  0
   37.8870   31.8310   47.8680 N   0  0  0  0  0  0  0  0  0  0  0  0
   37.0290   30.7880   47.7920 C   0  0  0  0  0  0  0  0  0  0  0  0
   36.7920   30.0240   48.8560 N   0  0  0  0  0  0  0  0  0  0  0  0
   38.8130   31.5920   51.0690 H   0  0  0  0  0  0  0  0  0  0  0  0
   39.2260   32.9940   49.0470 H   0  0  0  0  0  0  0  0  0  0  0  0
   36.3690   30.5160   46.5200 C   0  0  0  0  0  0  0  0  0  0  0  0
   35.1370   29.9510   46.4510 C   0  0  0  0  0  0  0  0  0  0  0  0
   34.4190   29.6500   45.3110 C   0  0  0  0  0  0  0  0  0  0  0  0
   33.4400   29.1970   45.3900 H   0  0  0  0  0  0  0  0  0  0  0  0
   35.0690   29.9790   44.1580 N   0  0  0  0  0  0  0  0  0  0  0  0
   36.2860   30.5380   44.1790 C   0  0  0  0  0  0  0  0  0  0  0  0
   36.9480   30.8140   45.3260 N   0  0  0  0  0  0  0  0  0  0  0  0
   37.1410   29.4250   51.2290 C   0  0  0  0  0  0  0  0  0  0  0  0
   35.7770   29.1920   51.3400 F   0  0  0  0  0  0  0  0  0  0  0  0
   37.8940   28.3070   51.1410 F   0  0  0  0  0  0  0  0  0  0  0  0
   37.5080   30.1790   52.3470 F   0  0  0  0  0  0  0  0  0  0  0  0
  1  2  1  0  0  0  0
  1 16  1  0  0  0  0
  2  7  1  0  0  0  0
  3  8  1  0  0  0  0
  3  2  2  0  0  0  0
  4  3  1  0  0  0  0
  5  4  2  0  0  0  0
  5  6  1  0  0  0  0
  6  1  2  0  0  0  0
  9  5  1  0  0  0  0
 10  9  1  0  0  0  0
 11 12  1  0  0  0  0
 11 10  2  0  0  0  0
 13 14  2  0  0  0  0
 13 11  1  0  0  0  0
 14 15  1  0  0  0  0
 15  9  2  0  0  0  0
 16 17  1  0  0  0  0
 16 19  1  0  0  0  0
 18 16  1  0  0  0  0
M  END
>  <minimizedAffinity>
-5.19078493

>  <minimizedRMSD>
0.650842488

$$$$
