
 OpenBabel03252512423D

 22 24  0  0  0  0  0  0  0  0999 V2000
   38.3610   31.0900   47.8270 C   0  0  0  0  0  0  0  0  0  0  0  0
   38.8150   32.4460   47.8510 C   0  0  0  0  0  0  0  0  0  0  0  0
   39.6040   32.6690   46.2030 S   0  0  0  0  0  0  0  0  0  0  0  0
   39.1740   30.8780   45.7780 C   0  0  0  0  0  0  0  0  0  0  0  0
   38.6480   30.4800   46.6790 N   0  0  0  0  0  0  0  0  0  0  0  0
   38.6860   33.1360   48.6960 H   0  0  0  0  0  0  0  0  0  0  0  0
   38.1230   30.8790   50.2760 C   0  0  0  0  0  0  0  0  0  0  0  0
   37.6680   30.5230   48.9910 C   0  0  0  0  0  0  0  0  0  0  0  0
   36.5960   29.6570   48.9040 C   0  0  0  0  0  0  0  0  0  0  0  0
   36.0240   29.1840   50.0340 N   0  0  0  0  0  0  0  0  0  0  0  0
   36.4830   29.5440   51.2530 C   0  0  0  0  0  0  0  0  0  0  0  0
   37.5300   30.3900   51.3700 N   0  0  0  0  0  0  0  0  0  0  0  0
   38.9430   31.5420   50.4250 H   0  0  0  0  0  0  0  0  0  0  0  0
   36.2680   29.4010   47.9020 H   0  0  0  0  0  0  0  0  0  0  0  0
   35.9030   29.0680   52.0290 H   0  0  0  0  0  0  0  0  0  0  0  0
   39.5440   30.2950   44.4590 C   0  0  0  0  0  0  0  0  0  0  0  0
   40.5110   30.8600   43.6530 C   0  0  0  0  0  0  0  0  0  0  0  0
   40.7680   30.2320   42.4540 C   0  0  0  0  0  0  0  0  0  0  0  0
   41.5400   30.7260   41.8610 H   0  0  0  0  0  0  0  0  0  0  0  0
   40.1070   29.1200   42.0920 N   0  0  0  0  0  0  0  0  0  0  0  0
   39.1620   28.5600   42.8730 C   0  0  0  0  0  0  0  0  0  0  0  0
   38.9050   29.1680   44.0450 N   0  0  0  0  0  0  0  0  0  0  0  0
  1  2  2  0  0  0  0
  1  8  1  0  0  0  0
  2  6  1  0  0  0  0
  3  2  1  0  0  0  0
  4  3  1  0  0  0  0
  4  5  2  0  0  0  0
  5  1  1  0  0  0  0
  7 13  1  0  0  0  0
  7 12  1  0  0  0  0
  8  7  2  0  0  0  0
  9  8  1  0  0  0  0
  9 10  2  0  0  0  0
 10 11  1  0  0  0  0
 11 12  2  0  0  0  0
 11 15  1  0  0  0  0
 14  9  1  0  0  0  0
 16  4  1  0  0  0  0
 17 16  2  0  0  0  0
 18 17  1  0  0  0  0
 19 18  1  0  0  0  0
 20 18  2  0  0  0  0
 20 21  1  0  0  0  0
 21 22  2  0  0  0  0
 22 16  1  0  0  0  0
M  END
>  <minimizedAffinity>
-5.36191463

>  <minimizedRMSD>
0.605057061

$$$$
