
 OpenBabel03252514053D

 36 39  0  0  1  0  0  0  0  0999 V2000
   36.5460   30.6070   48.5010 C   0  0  2  0  0  0  0  0  0  0  0  0
   36.3310   31.0330   49.8810 C   0  0  0  0  0  0  0  0  0  0  0  0
   36.2610   29.6160   49.6790 C   0  0  1  0  0  0  0  0  0  0  0  0
   35.8140   30.5900   47.6980 H   0  0  0  0  0  0  0  0  0  0  0  0
   35.4280   31.6320   50.1440 H   0  0  0  0  0  0  0  0  0  0  0  0
   37.2270   31.4510   50.4270 H   0  0  0  0  0  0  0  0  0  0  0  0
   37.0590   28.8840   49.8180 H   0  0  0  0  0  0  0  0  0  0  0  0
   38.0130   30.4850   48.0520 C   0  0  0  0  0  0  0  0  0  0  0  0
   38.2240   29.3920   47.9260 H   0  0  0  0  0  0  0  0  0  0  0  0
   38.7080   30.9120   48.8100 H   0  0  0  0  0  0  0  0  0  0  0  0
   39.3240   32.7660   45.5190 C   0  0  0  0  0  0  0  0  0  0  0  0
   38.4150   32.5960   44.4510 C   0  0  0  0  0  0  0  0  0  0  0  0
   37.3520   31.6800   44.6340 C   0  0  0  0  0  0  0  0  0  0  0  0
   37.2660   31.0160   45.8270 N   0  0  0  0  0  0  0  0  0  0  0  0
   38.1630   31.2210   46.8080 C   0  0  0  0  0  0  0  0  0  0  0  0
   39.1830   32.0960   46.6420 N   0  0  0  0  0  0  0  0  0  0  0  0
   40.1610   33.4510   45.4490 H   0  0  0  0  0  0  0  0  0  0  0  0
   38.5460   33.1490   43.5500 H   0  0  0  0  0  0  0  0  0  0  0  0
   36.6420   31.5300   43.8330 H   0  0  0  0  0  0  0  0  0  0  0  0
   34.8700   29.0180   49.7130 C   0  0  0  0  0  0  0  0  0  0  0  0
   34.1510   29.4710   50.6910 O   0  0  0  0  0  0  0  0  0  0  0  0
   34.3480   28.0830   48.8150 O   0  0  0  0  0  0  0  0  0  0  0  0
   33.1300   28.2140   48.2170 C   0  0  0  0  0  0  0  0  0  0  0  0
   32.9120   28.8920   46.9230 C   0  0  0  0  0  0  0  0  0  0  0  0
   31.6550   28.9670   46.4130 C   0  0  0  0  0  0  0  0  0  0  0  0
   30.5660   28.3970   47.1270 C   0  0  0  0  0  0  0  0  0  0  0  0
   31.3690   27.6890   48.6490 S   0  0  0  0  0  0  0  0  0  0  0  0
   33.7540   29.3090   46.4170 H   0  0  0  0  0  0  0  0  0  0  0  0
   31.3840   29.4340   45.4860 H   0  0  0  0  0  0  0  0  0  0  0  0
   29.2160   28.2890   46.9230 C   0  0  0  0  0  0  0  0  0  0  0  0
   28.7270   27.5500   45.8680 C   0  0  0  0  0  3  0  0  0  0  0  0
   27.3410   27.4610   45.6900 C   0  0  0  0  0  0  0  0  0  0  0  0
   26.9380   26.8850   44.8680 H   0  0  0  0  0  0  0  0  0  0  0  0
   26.5450   28.1180   46.5790 N   0  0  0  0  0  0  0  0  0  0  0  0
   27.0330   28.8390   47.6070 C   0  0  0  0  0  3  0  0  0  0  0  0
   28.3870   28.9180   47.7710 N   0  0  0  0  0  0  0  0  0  0  0  0
  1  4  1  6  0  0  0
  1  3  1  0  0  0  0
  1  2  1  0  0  0  0
  2  5  1  0  0  0  0
  2  6  1  0  0  0  0
  3 20  1  0  0  0  0
  3  7  1  1  0  0  0
  3  2  1  0  0  0  0
  8  1  1  0  0  0  0
  8 10  1  0  0  0  0
  9  8  1  0  0  0  0
 11 16  1  0  0  0  0
 12 13  1  0  0  0  0
 12 11  2  0  0  0  0
 13 14  2  0  0  0  0
 14 15  1  0  0  0  0
 15  8  1  0  0  0  0
 16 15  2  0  0  0  0
 17 11  1  0  0  0  0
 18 12  1  0  0  0  0
 19 13  1  0  0  0  0
 20 21  2  0  0  0  0
 22 20  1  0  0  0  0
 23 27  1  0  0  0  0
 23 22  1  0  0  0  0
 24 23  2  0  0  0  0
 25 24  1  0  0  0  0
 25 26  2  0  0  0  0
 26 27  1  0  0  0  0
 28 24  1  0  0  0  0
 29 25  1  0  0  0  0
 30 26  1  0  0  0  0
 30 36  1  0  0  0  0
 31 30  2  0  0  0  0
 32 31  1  0  0  0  0
 32 34  2  0  0  0  0
 33 32  1  0  0  0  0
 34 35  1  0  0  0  0
 35 36  2  0  0  0  0
M  END
>  <minimizedAffinity>
-5.41289234

>  <minimizedRMSD>
3.26573777

$$$$
