
 OpenBabel03252510163D

 16 17  0  0  0  0  0  0  0  0999 V2000
   36.0040   29.2470   49.5370 C   0  0  0  0  0  0  0  0  0  0  0  0
   35.9350   30.2520   48.5620 C   0  0  0  0  0  0  0  0  0  0  0  0
   34.8730   30.2320   47.6650 C   0  0  0  0  0  0  0  0  0  0  0  0
   33.9460   29.2440   47.7700 N   0  0  0  0  0  0  0  0  0  0  0  0
   34.0330   28.2820   48.7220 C   0  0  0  0  0  0  0  0  0  0  0  0
   35.0510   28.2830   49.5960 N   0  0  0  0  0  0  0  0  0  0  0  0
   36.7900   29.1860   50.2690 H   0  0  0  0  0  0  0  0  0  0  0  0
   34.8080   30.9860   46.9230 H   0  0  0  0  0  0  0  0  0  0  0  0
   33.2090   27.5840   48.6500 H   0  0  0  0  0  0  0  0  0  0  0  0
   36.9890   31.2590   48.5490 C   0  0  0  0  0  0  0  0  0  0  0  0
   37.2460   32.0830   49.6090 C   0  0  0  0  0  0  0  0  0  0  0  0
   38.2800   33.0010   49.4680 C   0  0  0  0  0  0  0  0  0  0  0  0
   38.5350   33.6800   50.2670 H   0  0  0  0  0  0  0  0  0  0  0  0
   39.0250   33.1130   48.3540 N   0  0  0  0  0  0  0  0  0  0  0  0
   38.7340   32.2730   47.3220 C   0  0  0  0  0  0  0  0  0  0  0  0
   37.7260   31.3610   47.4320 N   0  0  0  0  0  0  0  0  0  0  0  0
  1  6  1  0  0  0  0
  1  7  1  0  0  0  0
  2  1  2  0  0  0  0
  3  4  2  0  0  0  0
  3  2  1  0  0  0  0
  4  5  1  0  0  0  0
  5  6  2  0  0  0  0
  8  3  1  0  0  0  0
  9  5  1  0  0  0  0
 10  2  1  0  0  0  0
 10 11  1  0  0  0  0
 12 11  2  0  0  0  0
 12 13  1  0  0  0  0
 14 12  1  0  0  0  0
 15 16  1  0  0  0  0
 15 14  2  0  0  0  0
 16 10  2  0  0  0  0
M  END
>  <minimizedAffinity>
-4.42882204

>  <minimizedRMSD>
3.33426356

$$$$
