
 OpenBabel03252513573D

 26 28  0  0  1  0  0  0  0  0999 V2000
   35.4190   29.4530   49.1540 C   0  0  2  0  0  0  0  0  0  0  0  0
   34.3620   29.5830   50.1780 C   0  0  0  0  0  0  0  0  0  0  0  0
   34.5630   28.2590   49.5560 C   0  0  1  0  0  0  0  0  0  0  0  0
   35.2450   29.8960   48.1450 H   0  0  0  0  0  0  0  0  0  0  0  0
   34.6050   29.7490   51.2460 H   0  0  0  0  0  0  0  0  0  0  0  0
   33.4630   30.1600   49.8650 H   0  0  0  0  0  0  0  0  0  0  0  0
   35.0240   27.4790   50.1960 H   0  0  0  0  0  0  0  0  0  0  0  0
   33.6090   27.7290   48.5360 C   0  0  0  0  0  0  0  0  0  0  0  0
   32.2420   27.8670   48.6830 C   0  0  0  0  0  3  0  0  0  0  0  0
   31.4300   27.3490   47.6990 C   0  0  0  0  0  0  0  0  0  0  0  0
   30.3550   27.4160   47.7390 H   0  0  0  0  0  0  0  0  0  0  0  0
   31.8860   26.7110   46.5900 N   0  0  0  0  0  0  0  0  0  0  0  0
   33.2390   26.5940   46.4790 C   0  0  0  0  0  3  0  0  0  0  0  0
   34.0390   27.0960   47.4350 N   0  0  0  0  0  0  0  0  0  0  0  0
   36.8680   29.3300   49.5660 C   0  0  0  0  0  0  0  0  0  0  0  0
   36.8900   29.3370   50.6890 H   0  0  0  0  0  0  0  0  0  0  0  0
   37.3250   28.3650   49.2290 H   0  0  0  0  0  0  0  0  0  0  0  0
   38.3800   32.6780   49.3880 C   0  0  0  0  0  0  0  0  0  0  0  0
   38.8980   32.7250   48.0940 C   0  0  0  0  0  0  0  0  0  0  0  0
   38.7250   31.5970   47.2800 C   0  0  0  0  0  0  0  0  0  0  0  0
   38.0610   30.5220   47.8010 N   0  0  0  0  0  0  0  0  0  0  0  0
   37.5750   30.5250   49.0690 C   0  0  0  0  0  0  0  0  0  0  0  0
   37.7360   31.6030   49.8590 N   0  0  0  0  0  0  0  0  0  0  0  0
   38.4990   33.5400   50.0450 H   0  0  0  0  0  0  0  0  0  0  0  0
   39.4190   33.5840   47.7000 H   0  0  0  0  0  0  0  0  0  0  0  0
   39.0980   31.5490   46.2550 H   0  0  0  0  0  0  0  0  0  0  0  0
  1  4  1  6  0  0  0
  1  3  1  0  0  0  0
  1 15  1  0  0  0  0
  1  2  1  0  0  0  0
  2  5  1  0  0  0  0
  3  2  1  0  0  0  0
  3  7  1  1  0  0  0
  6  2  1  0  0  0  0
  8  9  1  0  0  0  0
  8  3  1  0  0  0  0
 10 11  1  0  0  0  0
 10  9  2  0  0  0  0
 12 10  1  0  0  0  0
 13 12  2  0  0  0  0
 13 14  1  0  0  0  0
 14  8  2  0  0  0  0
 15 16  1  0  0  0  0
 17 15  1  0  0  0  0
 18 23  1  0  0  0  0
 18 24  1  0  0  0  0
 19 18  2  0  0  0  0
 20 21  2  0  0  0  0
 20 19  1  0  0  0  0
 21 22  1  0  0  0  0
 22 15  1  0  0  0  0
 22 23  2  0  0  0  0
 25 19  1  0  0  0  0
 26 20  1  0  0  0  0
M  END
>  <minimizedAffinity>
-4.962183

>  <minimizedRMSD>
0.318642616

$$$$
