
 OpenBabel03252514053D

 36 39  0  0  1  0  0  0  0  0999 V2000
   35.2290   29.1320   48.4990 C   0  0  2  0  0  0  0  0  0  0  0  0
   33.9740   29.4390   49.1800 C   0  0  0  0  0  0  0  0  0  0  0  0
   34.2560   28.0390   49.0550 C   0  0  1  0  0  0  0  0  0  0  0  0
   35.4010   29.0930   47.4260 H   0  0  0  0  0  0  0  0  0  0  0  0
   33.1390   29.9200   48.6190 H   0  0  0  0  0  0  0  0  0  0  0  0
   34.0550   29.9100   50.2030 H   0  0  0  0  0  0  0  0  0  0  0  0
   34.7300   27.3870   49.7910 H   0  0  0  0  0  0  0  0  0  0  0  0
   36.5000   29.1960   49.3640 C   0  0  0  0  0  0  0  0  0  0  0  0
   37.1280   28.3120   49.0840 H   0  0  0  0  0  0  0  0  0  0  0  0
   36.2580   29.1500   50.4490 H   0  0  0  0  0  0  0  0  0  0  0  0
   37.5460   32.6870   49.6110 C   0  0  0  0  0  0  0  0  0  0  0  0
   38.4430   32.8180   48.5280 C   0  0  0  0  0  0  0  0  0  0  0  0
   38.6700   31.6760   47.7230 C   0  0  0  0  0  0  0  0  0  0  0  0
   38.0120   30.5190   48.0380 N   0  0  0  0  0  0  0  0  0  0  0  0
   37.1690   30.4570   49.0840 C   0  0  0  0  0  0  0  0  0  0  0  0
   36.9450   31.5430   49.8590 N   0  0  0  0  0  0  0  0  0  0  0  0
   37.3240   33.5200   50.2690 H   0  0  0  0  0  0  0  0  0  0  0  0
   38.9190   33.7520   48.3440 H   0  0  0  0  0  0  0  0  0  0  0  0
   39.3520   31.7480   46.8880 H   0  0  0  0  0  0  0  0  0  0  0  0
   33.4390   27.2970   48.0170 C   0  0  0  0  0  0  0  0  0  0  0  0
   33.8260   26.0720   47.8530 O   0  0  0  0  0  0  0  0  0  0  0  0
   32.3660   27.8130   47.2850 O   0  0  0  0  0  0  0  0  0  0  0  0
   31.1400   28.0620   47.8250 C   0  0  0  0  0  0  0  0  0  0  0  0
   30.7250   27.6300   49.1740 C   0  0  0  0  0  0  0  0  0  0  0  0
   29.4770   27.9320   49.6170 C   0  0  0  0  0  0  0  0  0  0  0  0
   28.5840   28.6560   48.7820 C   0  0  0  0  0  0  0  0  0  0  0  0
   29.5780   28.9440   47.2350 S   0  0  0  0  0  0  0  0  0  0  0  0
   31.4230   27.0880   49.7730 H   0  0  0  0  0  0  0  0  0  0  0  0
   29.0750   27.6680   50.5760 H   0  0  0  0  0  0  0  0  0  0  0  0
   27.3000   29.1170   48.8950 C   0  0  0  0  0  0  0  0  0  0  0  0
   26.2840   28.2620   49.2680 C   0  0  0  0  0  3  0  0  0  0  0  0
   24.9820   28.7680   49.3740 C   0  0  0  0  0  0  0  0  0  0  0  0
   24.1720   28.1140   49.6650 H   0  0  0  0  0  0  0  0  0  0  0  0
   24.7900   30.0890   49.0990 N   0  0  0  0  0  0  0  0  0  0  0  0
   25.7910   30.9150   48.7350 C   0  0  0  0  0  3  0  0  0  0  0  0
   27.0570   30.4110   48.6350 N   0  0  0  0  0  0  0  0  0  0  0  0
  1  4  1  6  0  0  0
  1  3  1  0  0  0  0
  1  2  1  0  0  0  0
  1  8  1  0  0  0  0
  2  6  1  0  0  0  0
  3  2  1  0  0  0  0
  3  7  1  1  0  0  0
  5  2  1  0  0  0  0
  8 10  1  0  0  0  0
  9  8  1  0  0  0  0
 11 16  1  0  0  0  0
 11 17  1  0  0  0  0
 12 11  2  0  0  0  0
 13 14  2  0  0  0  0
 13 12  1  0  0  0  0
 14 15  1  0  0  0  0
 15  8  1  0  0  0  0
 15 16  2  0  0  0  0
 18 12  1  0  0  0  0
 19 13  1  0  0  0  0
 20  3  1  0  0  0  0
 21 20  2  0  0  0  0
 22 23  1  0  0  0  0
 22 20  1  0  0  0  0
 23 24  2  0  0  0  0
 24 25  1  0  0  0  0
 24 28  1  0  0  0  0
 25 29  1  0  0  0  0
 26 30  1  0  0  0  0
 26 25  2  0  0  0  0
 27 23  1  0  0  0  0
 27 26  1  0  0  0  0
 30 31  1  0  0  0  0
 31 32  2  0  0  0  0
 32 33  1  0  0  0  0
 34 32  1  0  0  0  0
 35 34  2  0  0  0  0
 36 35  1  0  0  0  0
 36 30  2  0  0  0  0
M  END
>  <minimizedAffinity>
-6.49874163

>  <minimizedRMSD>
1.99520063

$$$$
