
 OpenBabel03252513223D

 19 20  0  0  0  0  0  0  0  0999 V2000
   35.8270   29.5350   50.3930 C   0  0  0  0  0  0  0  0  0  0  0  0
   36.3780   30.4480   49.4810 C   0  0  0  0  0  0  0  0  0  0  0  0
   35.8930   30.4070   48.1640 C   0  0  0  0  0  0  0  0  0  0  0  0
   34.9280   29.5010   47.8290 N   0  0  0  0  0  0  0  0  0  0  0  0
   34.4330   28.6370   48.7690 C   0  0  0  0  0  0  0  0  0  0  0  0
   34.8860   28.6690   50.0180 N   0  0  0  0  0  0  0  0  0  0  0  0
   36.2260   29.5980   51.3990 H   0  0  0  0  0  0  0  0  0  0  0  0
   36.2790   31.0820   47.4240 H   0  0  0  0  0  0  0  0  0  0  0  0
   33.4010   27.6660   48.4170 C   0  0  0  0  0  0  0  0  0  0  0  0
   33.7010   26.5360   47.6840 C   0  0  0  0  0  0  0  0  0  0  0  0
   32.7820   25.5680   47.3070 C   0  0  0  0  0  0  0  0  0  0  0  0
   33.0780   24.7170   46.7400 H   0  0  0  0  0  0  0  0  0  0  0  0
   31.4990   25.7840   47.7110 N   0  0  0  0  0  0  0  0  0  0  0  0
   31.1850   26.8740   48.4240 C   0  0  0  0  0  0  0  0  0  0  0  0
   32.1120   27.8100   48.7780 N   0  0  0  0  0  0  0  0  0  0  0  0
   37.4340   31.4430   49.8350 C   0  0  0  0  0  0  0  0  0  0  0  0
   38.2930   31.7140   48.8080 F   0  0  0  0  0  0  0  0  0  0  0  0
   38.1760   31.0030   50.8960 F   0  0  0  0  0  0  0  0  0  0  0  0
   36.8370   32.6400   50.1900 F   0  0  0  0  0  0  0  0  0  0  0  0
  1  7  1  0  0  0  0
  2 16  1  0  0  0  0
  2  1  2  0  0  0  0
  3  2  1  0  0  0  0
  4  3  2  0  0  0  0
  4  5  1  0  0  0  0
  5  6  2  0  0  0  0
  6  1  1  0  0  0  0
  8  3  1  0  0  0  0
  9  5  1  0  0  0  0
  9 15  1  0  0  0  0
 10  9  2  0  0  0  0
 11 10  1  0  0  0  0
 11 13  2  0  0  0  0
 12 11  1  0  0  0  0
 13 14  1  0  0  0  0
 14 15  2  0  0  0  0
 16 19  1  0  0  0  0
 16 18  1  0  0  0  0
 17 16  1  0  0  0  0
M  END
>  <minimizedAffinity>
-5.05835104

>  <minimizedRMSD>
1.27376258

$$$$
