
 OpenBabel03252513583D

 26 28  0  0  1  0  0  0  0  0999 V2000
   35.3870   29.4530   49.1660 C   0  0  2  0  0  0  0  0  0  0  0  0
   34.2940   29.5380   50.1570 C   0  0  0  0  0  0  0  0  0  0  0  0
   34.5220   28.2490   49.4890 C   0  0  1  0  0  0  0  0  0  0  0  0
   35.2160   29.9910   48.2020 H   0  0  0  0  0  0  0  0  0  0  0  0
   34.5600   29.6170   51.2440 H   0  0  0  0  0  0  0  0  0  0  0  0
   33.3720   30.0950   49.8950 H   0  0  0  0  0  0  0  0  0  0  0  0
   34.9790   27.4200   50.0590 H   0  0  0  0  0  0  0  0  0  0  0  0
   33.6930   27.7990   48.3470 C   0  0  0  0  0  0  0  0  0  0  0  0
   33.8950   26.6000   47.6530 C   0  0  0  0  0  3  0  0  0  0  0  0
   32.9410   26.5140   46.6600 C   0  0  0  0  0  0  0  0  0  0  0  0
   32.7950   25.7190   45.9270 H   0  0  0  0  0  0  0  0  0  0  0  0
   32.1800   27.6360   46.7500 N   0  0  0  0  0  0  0  0  0  0  0  0
   32.6360   28.3800   47.7490 N   0  0  0  0  0  0  0  0  0  0  0  0
   31.3590   27.9160   46.1590 H   0  0  0  0  0  0  0  0  0  0  0  0
   36.8250   29.3250   49.6170 C   0  0  0  0  0  0  0  0  0  0  0  0
   37.2150   28.4050   49.1790 H   0  0  0  0  0  0  0  0  0  0  0  0
   36.8730   29.3210   50.7370 H   0  0  0  0  0  0  0  0  0  0  0  0
   38.4110   32.6500   49.4000 C   0  0  0  0  0  0  0  0  0  0  0  0
   38.9010   32.6780   48.0920 C   0  0  0  0  0  0  0  0  0  0  0  0
   38.6820   31.5450   47.2860 C   0  0  0  0  0  0  0  0  0  0  0  0
   38.0050   30.5050   47.8500 N   0  0  0  0  0  0  0  0  0  0  0  0
   37.5470   30.5120   49.1150 C   0  0  0  0  0  0  0  0  0  0  0  0
   37.7590   31.5960   49.8750 N   0  0  0  0  0  0  0  0  0  0  0  0
   38.6240   33.5570   49.9410 H   0  0  0  0  0  0  0  0  0  0  0  0
   39.4410   33.4740   47.5990 H   0  0  0  0  0  0  0  0  0  0  0  0
   38.9990   31.4170   46.2560 H   0  0  0  0  0  0  0  0  0  0  0  0
  1  4  1  6  0  0  0
  1  3  1  0  0  0  0
  1 15  1  0  0  0  0
  1  2  1  0  0  0  0
  2  5  1  0  0  0  0
  3  7  1  1  0  0  0
  3  2  1  0  0  0  0
  6  2  1  0  0  0  0
  8  3  1  0  0  0  0
  9  8  1  0  0  0  0
 10 12  1  0  0  0  0
 10  9  2  0  0  0  0
 11 10  1  0  0  0  0
 12 13  1  0  0  0  0
 13  8  2  0  0  0  0
 14 12  1  0  0  0  0
 15 17  1  0  0  0  0
 16 15  1  0  0  0  0
 18 23  1  0  0  0  0
 18 24  1  0  0  0  0
 19 18  2  0  0  0  0
 20 21  2  0  0  0  0
 20 19  1  0  0  0  0
 21 22  1  0  0  0  0
 22 15  1  0  0  0  0
 22 23  2  0  0  0  0
 25 19  1  0  0  0  0
 26 20  1  0  0  0  0
M  END
>  <minimizedAffinity>
-4.83380413

>  <minimizedRMSD>
0.254636645

$$$$
