
 OpenBabel03252513233D

 19 20  0  0  0  0  0  0  0  0999 V2000
   35.4710   29.0800   50.4600 C   0  0  0  0  0  0  0  0  0  0  0  0
   36.2510   30.0680   49.8420 C   0  0  0  0  0  0  0  0  0  0  0  0
   36.0560   30.2670   48.4660 C   0  0  0  0  0  0  0  0  0  0  0  0
   35.1380   29.5120   47.7930 N   0  0  0  0  0  0  0  0  0  0  0  0
   34.4070   28.5620   48.4480 C   0  0  0  0  0  0  0  0  0  0  0  0
   34.5860   28.3700   49.7510 N   0  0  0  0  0  0  0  0  0  0  0  0
   35.6670   28.9740   51.5200 H   0  0  0  0  0  0  0  0  0  0  0  0
   36.6300   31.0110   47.9520 H   0  0  0  0  0  0  0  0  0  0  0  0
   33.4150   27.7340   47.7690 C   0  0  0  0  0  0  0  0  0  0  0  0
   33.3320   26.3770   47.5270 C   0  0  0  0  0  0  0  0  0  0  0  0
   32.1390   26.2010   46.8290 C   0  0  0  0  0  0  0  0  0  0  0  0
   31.8200   25.2160   46.5050 H   0  0  0  0  0  0  0  0  0  0  0  0
   31.5410   27.3950   46.6640 N   0  0  0  0  0  0  0  0  0  0  0  0
   32.3220   28.3130   47.2370 N   0  0  0  0  0  0  0  0  0  0  0  0
   30.6280   27.5570   46.1730 H   0  0  0  0  0  0  0  0  0  0  0  0
   37.2590   30.9040   50.5570 C   0  0  0  0  0  0  0  0  0  0  0  0
   38.5220   30.8000   50.0610 F   0  0  0  0  0  0  0  0  0  0  0  0
   37.3110   30.5550   51.8940 F   0  0  0  0  0  0  0  0  0  0  0  0
   36.8880   32.2430   50.4780 F   0  0  0  0  0  0  0  0  0  0  0  0
  1  7  1  0  0  0  0
  2  1  1  0  0  0  0
  2 16  1  0  0  0  0
  3  2  2  0  0  0  0
  4  5  2  0  0  0  0
  4  3  1  0  0  0  0
  5  6  1  0  0  0  0
  6  1  2  0  0  0  0
  8  3  1  0  0  0  0
  9  5  1  0  0  0  0
 10  9  1  0  0  0  0
 11 10  2  0  0  0  0
 12 11  1  0  0  0  0
 13 11  1  0  0  0  0
 13 14  1  0  0  0  0
 14  9  2  0  0  0  0
 15 13  1  0  0  0  0
 16 18  1  0  0  0  0
 17 16  1  0  0  0  0
 19 16  1  0  0  0  0
M  END
>  <minimizedAffinity>
-4.76923037

>  <minimizedRMSD>
0.448193759

$$$$
