
 OpenBabel03252514053D

 36 39  0  0  1  0  0  0  0  0999 V2000
   35.2510   29.1800   48.5910 C   0  0  2  0  0  0  0  0  0  0  0  0
   34.0300   29.3290   49.3770 C   0  0  0  0  0  0  0  0  0  0  0  0
   34.3760   27.9730   49.0680 C   0  0  1  0  0  0  0  0  0  0  0  0
   35.3220   29.2390   47.5040 H   0  0  0  0  0  0  0  0  0  0  0  0
   33.1300   29.8080   48.8930 H   0  0  0  0  0  0  0  0  0  0  0  0
   34.1500   29.7650   50.4120 H   0  0  0  0  0  0  0  0  0  0  0  0
   34.9330   27.2610   49.6770 H   0  0  0  0  0  0  0  0  0  0  0  0
   36.5690   29.2260   49.3830 C   0  0  0  0  0  0  0  0  0  0  0  0
   36.3480   29.2110   50.4660 H   0  0  0  0  0  0  0  0  0  0  0  0
   37.2200   28.3710   49.1230 H   0  0  0  0  0  0  0  0  0  0  0  0
   37.6110   32.7240   49.5680 C   0  0  0  0  0  0  0  0  0  0  0  0
   38.4840   32.8450   48.4680 C   0  0  0  0  0  0  0  0  0  0  0  0
   38.6970   31.6940   47.6730 C   0  0  0  0  0  0  0  0  0  0  0  0
   38.0490   30.5390   48.0160 N   0  0  0  0  0  0  0  0  0  0  0  0
   37.2320   30.4810   49.0690 C   0  0  0  0  0  0  0  0  0  0  0  0
   37.0190   31.5830   49.8410 N   0  0  0  0  0  0  0  0  0  0  0  0
   37.4020   33.5570   50.2160 H   0  0  0  0  0  0  0  0  0  0  0  0
   38.9390   33.8030   48.2950 H   0  0  0  0  0  0  0  0  0  0  0  0
   39.3580   31.7980   46.8470 H   0  0  0  0  0  0  0  0  0  0  0  0
   33.5270   27.3140   47.9960 C   0  0  0  0  0  0  0  0  0  0  0  0
   33.8810   26.0930   47.7540 O   0  0  0  0  0  0  0  0  0  0  0  0
   32.4620   27.8920   47.3080 O   0  0  0  0  0  0  0  0  0  0  0  0
   31.2180   28.0610   47.8540 C   0  0  0  0  0  0  0  0  0  0  0  0
   30.8010   27.5800   49.1960 C   0  0  0  0  0  0  0  0  0  0  0  0
   29.5320   27.8330   49.5820 C   0  0  0  0  0  0  0  0  0  0  0  0
   28.6250   28.5250   48.7560 C   0  0  0  0  0  0  0  0  0  0  0  0
   29.6260   28.8870   47.2380 S   0  0  0  0  0  0  0  0  0  0  0  0
   31.5370   27.0600   49.7790 H   0  0  0  0  0  0  0  0  0  0  0  0
   29.1380   27.5250   50.5340 H   0  0  0  0  0  0  0  0  0  0  0  0
   27.3380   28.9220   48.8450 C   0  0  0  0  0  0  0  0  0  0  0  0
   26.2240   28.1130   48.9060 C   0  0  0  0  0  3  0  0  0  0  0  0
   25.0770   28.9130   48.9920 C   0  0  0  0  0  0  0  0  0  0  0  0
   24.0130   28.7680   49.0590 H   0  0  0  0  0  0  0  0  0  0  0  0
   25.5480   30.1950   48.9800 N   0  0  0  0  0  0  0  0  0  0  0  0
   26.8820   30.1860   48.8930 N   0  0  0  0  0  0  0  0  0  0  0  0
   24.9970   31.1040   49.0280 H   0  0  0  0  0  0  0  0  0  0  0  0
  1  4  1  6  0  0  0
  1  3  1  0  0  0  0
  1  2  1  0  0  0  0
  1  8  1  0  0  0  0
  2  6  1  0  0  0  0
  3  2  1  0  0  0  0
  3  7  1  1  0  0  0
  5  2  1  0  0  0  0
  8  9  1  0  0  0  0
 10  8  1  0  0  0  0
 11 16  1  0  0  0  0
 11 17  1  0  0  0  0
 12 11  2  0  0  0  0
 13 14  2  0  0  0  0
 13 12  1  0  0  0  0
 14 15  1  0  0  0  0
 15  8  1  0  0  0  0
 15 16  2  0  0  0  0
 18 12  1  0  0  0  0
 19 13  1  0  0  0  0
 20  3  1  0  0  0  0
 21 20  2  0  0  0  0
 22 23  1  0  0  0  0
 22 20  1  0  0  0  0
 23 24  2  0  0  0  0
 24 25  1  0  0  0  0
 24 28  1  0  0  0  0
 25 29  1  0  0  0  0
 26 30  1  0  0  0  0
 26 25  2  0  0  0  0
 27 23  1  0  0  0  0
 27 26  1  0  0  0  0
 30 35  2  0  0  0  0
 30 31  1  0  0  0  0
 31 32  2  0  0  0  0
 32 33  1  0  0  0  0
 34 32  1  0  0  0  0
 34 36  1  0  0  0  0
 35 34  1  0  0  0  0
M  END
>  <minimizedAffinity>
-6.22831106

>  <minimizedRMSD>
1.62125683

$$$$
