
 OpenBabel03252514053D

 36 39  0  0  1  0  0  0  0  0999 V2000
   35.2490   29.1820   48.5950 C   0  0  2  0  0  0  0  0  0  0  0  0
   34.0300   29.3250   49.3840 C   0  0  0  0  0  0  0  0  0  0  0  0
   34.3780   27.9710   49.0690 C   0  0  1  0  0  0  0  0  0  0  0  0
   35.3190   29.2450   47.5080 H   0  0  0  0  0  0  0  0  0  0  0  0
   33.1280   29.8040   48.9040 H   0  0  0  0  0  0  0  0  0  0  0  0
   34.1510   29.7580   50.4200 H   0  0  0  0  0  0  0  0  0  0  0  0
   34.9380   27.2580   49.6740 H   0  0  0  0  0  0  0  0  0  0  0  0
   36.5690   29.2280   49.3850 C   0  0  0  0  0  0  0  0  0  0  0  0
   36.3500   29.2150   50.4690 H   0  0  0  0  0  0  0  0  0  0  0  0
   37.2180   28.3710   49.1260 H   0  0  0  0  0  0  0  0  0  0  0  0
   37.6200   32.7230   49.5630 C   0  0  0  0  0  0  0  0  0  0  0  0
   38.4880   32.8410   48.4590 C   0  0  0  0  0  0  0  0  0  0  0  0
   38.6960   31.6890   47.6650 C   0  0  0  0  0  0  0  0  0  0  0  0
   38.0460   30.5360   48.0110 N   0  0  0  0  0  0  0  0  0  0  0  0
   37.2340   30.4810   49.0670 C   0  0  0  0  0  0  0  0  0  0  0  0
   37.0260   31.5840   49.8390 N   0  0  0  0  0  0  0  0  0  0  0  0
   37.4150   33.5580   50.2110 H   0  0  0  0  0  0  0  0  0  0  0  0
   38.9440   33.7990   48.2830 H   0  0  0  0  0  0  0  0  0  0  0  0
   39.3530   31.7910   46.8350 H   0  0  0  0  0  0  0  0  0  0  0  0
   33.5280   27.3140   47.9960 C   0  0  0  0  0  0  0  0  0  0  0  0
   33.8820   26.0930   47.7530 O   0  0  0  0  0  0  0  0  0  0  0  0
   32.4640   27.8950   47.3090 O   0  0  0  0  0  0  0  0  0  0  0  0
   31.2200   28.0630   47.8540 C   0  0  0  0  0  0  0  0  0  0  0  0
   30.8030   27.5820   49.1960 C   0  0  0  0  0  0  0  0  0  0  0  0
   29.5340   27.8340   49.5820 C   0  0  0  0  0  0  0  0  0  0  0  0
   28.6260   28.5260   48.7560 C   0  0  0  0  0  0  0  0  0  0  0  0
   29.6280   28.8880   47.2380 S   0  0  0  0  0  0  0  0  0  0  0  0
   31.5390   27.0630   49.7790 H   0  0  0  0  0  0  0  0  0  0  0  0
   29.1400   27.5260   50.5340 H   0  0  0  0  0  0  0  0  0  0  0  0
   27.3400   28.9220   48.8450 C   0  0  0  0  0  0  0  0  0  0  0  0
   26.2240   28.1120   48.8990 C   0  0  0  0  0  3  0  0  0  0  0  0
   25.0790   28.9120   48.9870 C   0  0  0  0  0  0  0  0  0  0  0  0
   24.0140   28.7660   49.0510 H   0  0  0  0  0  0  0  0  0  0  0  0
   25.5490   30.1940   48.9810 N   0  0  0  0  0  0  0  0  0  0  0  0
   26.8840   30.1860   48.8970 N   0  0  0  0  0  0  0  0  0  0  0  0
   24.9970   31.1020   49.0330 H   0  0  0  0  0  0  0  0  0  0  0  0
  1  4  1  6  0  0  0
  1  3  1  0  0  0  0
  1  2  1  0  0  0  0
  1  8  1  0  0  0  0
  2  6  1  0  0  0  0
  3  2  1  0  0  0  0
  3  7  1  1  0  0  0
  5  2  1  0  0  0  0
  8  9  1  0  0  0  0
 10  8  1  0  0  0  0
 11 16  1  0  0  0  0
 11 17  1  0  0  0  0
 12 11  2  0  0  0  0
 13 14  2  0  0  0  0
 13 12  1  0  0  0  0
 14 15  1  0  0  0  0
 15  8  1  0  0  0  0
 15 16  2  0  0  0  0
 18 12  1  0  0  0  0
 19 13  1  0  0  0  0
 20  3  1  0  0  0  0
 21 20  2  0  0  0  0
 22 23  1  0  0  0  0
 22 20  1  0  0  0  0
 23 24  2  0  0  0  0
 24 25  1  0  0  0  0
 24 28  1  0  0  0  0
 25 29  1  0  0  0  0
 26 30  1  0  0  0  0
 26 25  2  0  0  0  0
 27 23  1  0  0  0  0
 27 26  1  0  0  0  0
 30 35  2  0  0  0  0
 30 31  1  0  0  0  0
 31 32  2  0  0  0  0
 32 33  1  0  0  0  0
 34 32  1  0  0  0  0
 34 36  1  0  0  0  0
 35 34  1  0  0  0  0
M  END
>  <minimizedAffinity>
-6.22782183

>  <minimizedRMSD>
1.62765062

$$$$
