
 OpenBabel03252513443D

 20 21  0  0  0  0  0  0  0  0999 V2000
   37.2610   30.5480   49.1330 C   0  0  0  0  0  0  0  0  0  0  0  0
   37.0720   31.6890   49.9510 C   0  0  0  0  0  0  0  0  0  0  0  0
   37.7060   32.8650   49.5710 C   0  0  0  0  0  0  0  0  0  0  0  0
   38.4810   32.8840   48.4370 N   0  0  0  0  0  0  0  0  0  0  0  0
   38.6230   31.7740   47.7010 C   0  0  0  0  0  0  0  0  0  0  0  0
   38.0340   30.6240   48.0260 N   0  0  0  0  0  0  0  0  0  0  0  0
   36.4550   31.6540   50.8440 H   0  0  0  0  0  0  0  0  0  0  0  0
   37.5950   33.7720   50.1640 H   0  0  0  0  0  0  0  0  0  0  0  0
   39.4760   31.9480   46.5270 C   0  0  0  0  0  0  0  0  0  0  0  0
   39.8180   30.8410   45.7650 C   0  0  0  0  0  0  0  0  0  0  0  0
   40.6270   31.3200   44.7270 C   0  0  0  0  0  0  0  0  0  0  0  0
   41.0800   30.7090   43.9300 H   0  0  0  0  0  0  0  0  0  0  0  0
   40.7450   32.6680   44.8930 N   0  0  0  0  0  0  0  0  0  0  0  0
   40.0490   33.0240   45.9750 N   0  0  0  0  0  0  0  0  0  0  0  0
   41.2960   33.2890   44.2600 H   0  0  0  0  0  0  0  0  0  0  0  0
   36.6470   29.3850   49.4870 O   0  0  0  0  0  0  0  0  0  0  0  0
   35.4200   29.2770   50.1560 C   0  0  0  0  0  0  0  0  0  0  0  0
   35.5380   29.2450   51.5350 F   0  0  0  0  0  0  0  0  0  0  0  0
   34.4940   30.2160   49.7740 F   0  0  0  0  0  0  0  0  0  0  0  0
   34.9060   28.0310   49.7670 F   0  0  0  0  0  0  0  0  0  0  0  0
  1 16  1  0  0  0  0
  1  2  1  0  0  0  0
  2  7  1  0  0  0  0
  3  2  2  0  0  0  0
  3  8  1  0  0  0  0
  4  3  1  0  0  0  0
  5  6  1  0  0  0  0
  5  4  2  0  0  0  0
  6  1  2  0  0  0  0
  9  5  1  0  0  0  0
 10  9  1  0  0  0  0
 11 13  1  0  0  0  0
 11 10  2  0  0  0  0
 12 11  1  0  0  0  0
 13 14  1  0  0  0  0
 14  9  2  0  0  0  0
 15 13  1  0  0  0  0
 16 17  1  0  0  0  0
 17 18  1  0  0  0  0
 19 17  1  0  0  0  0
 20 17  1  0  0  0  0
M  END
>  <minimizedAffinity>
-5.84284735

>  <minimizedRMSD>
1.65087366

$$$$
