
 OpenBabel03252511353D

 29 31  0  0  0  0  0  0  0  0999 V2000
   36.5110   30.6140   46.5400 C   0  0  0  0  0  0  0  0  0  0  0  0
   35.2430   30.0370   46.4770 C   0  0  0  0  0  0  0  0  0  0  0  0
   34.6160   29.7310   45.2960 C   0  0  0  0  0  0  0  0  0  0  0  0
   35.2470   29.9970   44.1000 C   0  0  0  0  0  0  0  0  0  0  0  0
   36.5160   30.5750   44.1390 C   0  0  0  0  0  0  0  0  0  0  0  0
   37.1360   30.8780   45.3460 C   0  0  0  0  0  0  0  0  0  0  0  0
   34.7280   29.8200   47.3960 H   0  0  0  0  0  0  0  0  0  0  0  0
   33.6320   29.2830   45.2430 H   0  0  0  0  0  0  0  0  0  0  0  0
   34.8650   29.8070   43.1140 H   0  0  0  0  0  0  0  0  0  0  0  0
   37.1310   30.8400   43.2970 H   0  0  0  0  0  0  0  0  0  0  0  0
   37.4470   30.3450   50.0570 C   0  0  0  0  0  0  0  0  0  0  0  0
   38.2350   31.4730   50.2640 C   0  0  0  0  0  0  0  0  0  0  0  0
   38.4420   32.3320   49.1770 C   0  0  0  0  0  0  0  0  0  0  0  0
   37.8690   32.0180   47.9960 N   0  0  0  0  0  0  0  0  0  0  0  0
   37.1070   30.9070   47.8390 C   0  0  0  0  0  0  0  0  0  0  0  0
   36.9120   30.0920   48.8720 N   0  0  0  0  0  0  0  0  0  0  0  0
   38.6950   31.7210   51.2160 H   0  0  0  0  0  0  0  0  0  0  0  0
   39.0550   33.2340   49.2870 H   0  0  0  0  0  0  0  0  0  0  0  0
   37.2210   29.4150   51.2300 C   0  0  0  0  0  0  0  0  0  0  0  0
   35.8700   29.1760   51.3680 F   0  0  0  0  0  0  0  0  0  0  0  0
   37.9450   28.2900   51.0250 F   0  0  0  0  0  0  0  0  0  0  0  0
   37.6630   30.0830   52.3760 F   0  0  0  0  0  0  0  0  0  0  0  0
   38.4610   31.4810   45.4530 C   0  0  0  0  0  0  0  0  0  0  0  0
   39.4970   30.5440   45.4640 C   0  0  0  0  0  0  0  0  0  0  0  0
   40.6970   31.2510   45.5680 C   0  0  0  0  0  0  0  0  0  0  0  0
   41.7500   30.9630   45.6130 H   0  0  0  0  0  0  0  0  0  0  0  0
   40.3420   32.5650   45.6150 N   0  0  0  0  0  0  0  0  0  0  0  0
   39.0260   32.6790   45.5450 N   0  0  0  0  0  0  0  0  0  0  0  0
   40.9710   33.4020   45.6930 H   0  0  0  0  0  0  0  0  0  0  0  0
  1 15  1  0  0  0  0
  2  1  1  0  0  0  0
  2  7  1  0  0  0  0
  3  2  2  0  0  0  0
  4  5  2  0  0  0  0
  4  3  1  0  0  0  0
  5  6  1  0  0  0  0
  6 23  1  0  0  0  0
  6  1  2  0  0  0  0
  8  3  1  0  0  0  0
  9  4  1  0  0  0  0
 10  5  1  0  0  0  0
 11 12  1  0  0  0  0
 11 19  1  0  0  0  0
 12 17  1  0  0  0  0
 13 18  1  0  0  0  0
 13 12  2  0  0  0  0
 14 13  1  0  0  0  0
 15 14  2  0  0  0  0
 15 16  1  0  0  0  0
 16 11  2  0  0  0  0
 19 20  1  0  0  0  0
 19 22  1  0  0  0  0
 21 19  1  0  0  0  0
 23 24  1  0  0  0  0
 23 28  2  0  0  0  0
 24 25  2  0  0  0  0
 25 26  1  0  0  0  0
 25 27  1  0  0  0  0
 27 29  1  0  0  0  0
 28 27  1  0  0  0  0
M  END
>  <minimizedAffinity>
-6.59304333

>  <minimizedRMSD>
0.215004161

$$$$
