
 OpenBabel03252510273D

 29 30  0  0  0  0  0  0  0  0999 V2000
   36.0950   30.1930   47.8880 C   0  0  0  0  0  0  0  0  0  0  0  0
   37.1720   31.0370   47.6030 C   0  0  0  0  0  0  0  0  0  0  0  0
   37.3590   31.3590   46.2440 C   0  0  0  0  0  0  0  0  0  0  0  0
   36.5220   30.8590   45.3060 N   0  0  0  0  0  0  0  0  0  0  0  0
   35.4950   30.0460   45.6360 C   0  0  0  0  0  0  0  0  0  0  0  0
   35.2920   29.7210   46.9270 N   0  0  0  0  0  0  0  0  0  0  0  0
   34.6310   29.5350   44.6300 N   0  0  0  0  0  0  0  0  0  0  0  0
   35.1890   29.0130   43.4340 C   0  0  0  0  0  0  0  0  0  0  0  0
   36.4180   28.5820   43.4210 N   0  0  0  0  0  0  0  0  0  0  0  0
   34.3380   28.9940   42.2810 N   0  0  0  0  0  0  0  0  0  0  0  0
   36.8290   28.2020   42.5320 H   0  0  0  0  0  0  0  0  0  0  0  0
   37.7920   31.3960   48.3860 H   0  0  0  0  0  0  0  0  0  0  0  0
   33.5870   29.5390   44.7650 H   0  0  0  0  0  0  0  0  0  0  0  0
   34.6680   29.3710   41.3520 H   0  0  0  0  0  0  0  0  0  0  0  0
   33.3660   28.6150   42.2910 H   0  0  0  0  0  0  0  0  0  0  0  0
   38.4690   32.2350   45.9090 C   0  0  0  0  0  0  0  0  0  0  0  0
   38.8530   32.6290   44.6450 C   0  0  0  0  0  0  0  0  0  0  0  0
   39.9560   33.4540   44.8730 C   0  0  0  0  0  0  0  0  0  0  0  0
   40.5650   33.9780   44.1390 H   0  0  0  0  0  0  0  0  0  0  0  0
   40.2000   33.5330   46.2140 N   0  0  0  0  0  0  0  0  0  0  0  0
   39.2800   32.7820   46.8310 N   0  0  0  0  0  0  0  0  0  0  0  0
   40.9370   34.0570   46.7300 H   0  0  0  0  0  0  0  0  0  0  0  0
   35.8590   29.8300   49.2800 C   0  0  0  0  0  0  0  0  0  0  0  0
   35.2340   28.7860   49.5760 O   0  0  0  0  0  0  0  0  0  0  0  0
   36.3350   30.6560   50.2960 O   0  0  0  0  0  0  0  0  0  0  0  0
   37.5110   30.2130   50.9740 C   0  0  0  0  0  0  0  0  0  0  0  0
   37.2690   30.1270   52.3400 F   0  0  0  0  0  0  0  0  0  0  0  0
   38.5370   31.0990   50.7000 F   0  0  0  0  0  0  0  0  0  0  0  0
   37.8960   28.9810   50.5290 F   0  0  0  0  0  0  0  0  0  0  0  0
  1 23  1  0  0  0  0
  2  1  1  0  0  0  0
  2 12  1  0  0  0  0
  3  2  2  0  0  0  0
  4  5  2  0  0  0  0
  4  3  1  0  0  0  0
  5  6  1  0  0  0  0
  6  1  2  0  0  0  0
  7 13  1  0  0  0  0
  7  5  1  0  0  0  0
  8  7  1  0  0  0  0
  9  8  2  0  0  0  0
 10 15  1  0  0  0  0
 10  8  1  0  0  0  0
 11  9  1  0  0  0  0
 14 10  1  0  0  0  0
 16  3  1  0  0  0  0
 16 21  2  0  0  0  0
 17 18  2  0  0  0  0
 17 16  1  0  0  0  0
 18 20  1  0  0  0  0
 19 18  1  0  0  0  0
 20 22  1  0  0  0  0
 20 21  1  0  0  0  0
 23 24  2  0  0  0  0
 23 25  1  0  0  0  0
 25 26  1  0  0  0  0
 26 27  1  0  0  0  0
 28 26  1  0  0  0  0
 29 26  1  0  0  0  0
M  END
>  <minimizedAffinity>
-5.81726217

>  <minimizedRMSD>
3.75128174

$$$$
