
 OpenBabel03252513573D

 26 28  0  0  1  0  0  0  0  0999 V2000
   35.3850   29.4530   49.1670 C   0  0  2  0  0  0  0  0  0  0  0  0
   34.2910   29.5380   50.1560 C   0  0  0  0  0  0  0  0  0  0  0  0
   34.5200   28.2490   49.4890 C   0  0  1  0  0  0  0  0  0  0  0  0
   35.2150   29.9910   48.2020 H   0  0  0  0  0  0  0  0  0  0  0  0
   34.5570   29.6170   51.2440 H   0  0  0  0  0  0  0  0  0  0  0  0
   33.3700   30.0950   49.8940 H   0  0  0  0  0  0  0  0  0  0  0  0
   34.9770   27.4200   50.0590 H   0  0  0  0  0  0  0  0  0  0  0  0
   33.6910   27.7990   48.3460 C   0  0  0  0  0  0  0  0  0  0  0  0
   33.8940   26.6000   47.6530 C   0  0  0  0  0  3  0  0  0  0  0  0
   32.9400   26.5140   46.6580 C   0  0  0  0  0  0  0  0  0  0  0  0
   32.7950   25.7190   45.9260 H   0  0  0  0  0  0  0  0  0  0  0  0
   32.1800   27.6360   46.7480 N   0  0  0  0  0  0  0  0  0  0  0  0
   32.6360   28.3800   47.7470 N   0  0  0  0  0  0  0  0  0  0  0  0
   31.3600   27.9160   46.1560 H   0  0  0  0  0  0  0  0  0  0  0  0
   36.8230   29.3250   49.6190 C   0  0  0  0  0  0  0  0  0  0  0  0
   37.2120   28.4050   49.1810 H   0  0  0  0  0  0  0  0  0  0  0  0
   36.8700   29.3220   50.7380 H   0  0  0  0  0  0  0  0  0  0  0  0
   38.4110   32.6490   49.4000 C   0  0  0  0  0  0  0  0  0  0  0  0
   38.9010   32.6770   48.0920 C   0  0  0  0  0  0  0  0  0  0  0  0
   38.6800   31.5430   47.2860 C   0  0  0  0  0  0  0  0  0  0  0  0
   38.0020   30.5040   47.8500 N   0  0  0  0  0  0  0  0  0  0  0  0
   37.5450   30.5110   49.1160 C   0  0  0  0  0  0  0  0  0  0  0  0
   37.7600   31.5950   49.8760 N   0  0  0  0  0  0  0  0  0  0  0  0
   38.6260   33.5550   49.9410 H   0  0  0  0  0  0  0  0  0  0  0  0
   39.4410   33.4720   47.5980 H   0  0  0  0  0  0  0  0  0  0  0  0
   38.9960   31.4150   46.2550 H   0  0  0  0  0  0  0  0  0  0  0  0
  1  4  1  6  0  0  0
  1  3  1  0  0  0  0
  1 15  1  0  0  0  0
  1  2  1  0  0  0  0
  2  5  1  0  0  0  0
  3  7  1  1  0  0  0
  3  2  1  0  0  0  0
  6  2  1  0  0  0  0
  8  3  1  0  0  0  0
  9  8  1  0  0  0  0
 10 12  1  0  0  0  0
 10  9  2  0  0  0  0
 11 10  1  0  0  0  0
 12 13  1  0  0  0  0
 13  8  2  0  0  0  0
 14 12  1  0  0  0  0
 15 17  1  0  0  0  0
 16 15  1  0  0  0  0
 18 23  1  0  0  0  0
 18 24  1  0  0  0  0
 19 18  2  0  0  0  0
 20 21  2  0  0  0  0
 20 19  1  0  0  0  0
 21 22  1  0  0  0  0
 22 15  1  0  0  0  0
 22 23  2  0  0  0  0
 25 19  1  0  0  0  0
 26 20  1  0  0  0  0
M  END
>  <minimizedAffinity>
-4.83082628

>  <minimizedRMSD>
0.186736673

$$$$
