
 OpenBabel03252512433D

 22 24  0  0  0  0  0  0  0  0999 V2000
   38.2710   31.0750   47.9350 C   0  0  0  0  0  0  0  0  0  0  0  0
   38.6900   32.4430   47.9950 C   0  0  0  0  0  0  0  0  0  0  0  0
   39.5480   32.6790   46.3690 S   0  0  0  0  0  0  0  0  0  0  0  0
   39.1750   30.8810   45.9200 C   0  0  0  0  0  0  0  0  0  0  0  0
   38.6140   30.4880   46.8190 N   0  0  0  0  0  0  0  0  0  0  0  0
   38.5150   33.1330   48.8320 H   0  0  0  0  0  0  0  0  0  0  0  0
   37.9410   30.8110   50.3790 C   0  0  0  0  0  0  0  0  0  0  0  0
   37.5400   30.4950   49.0680 C   0  0  0  0  0  0  0  0  0  0  0  0
   36.4630   29.6400   48.9390 C   0  0  0  0  0  0  0  0  0  0  0  0
   35.8560   29.1560   50.0390 N   0  0  0  0  0  0  0  0  0  0  0  0
   36.2700   29.4820   51.2830 C   0  0  0  0  0  0  0  0  0  0  0  0
   37.3120   30.3090   51.4410 N   0  0  0  0  0  0  0  0  0  0  0  0
   38.7800   31.4760   50.5850 H   0  0  0  0  0  0  0  0  0  0  0  0
   36.1340   29.3800   47.9540 H   0  0  0  0  0  0  0  0  0  0  0  0
   35.7320   29.0550   52.1210 H   0  0  0  0  0  0  0  0  0  0  0  0
   39.6670   30.4430   44.5970 C   0  0  0  0  0  0  0  0  0  0  0  0
   40.5180   31.0350   43.7210 C   0  0  0  0  0  0  0  0  0  0  0  0
   40.6070   30.1530   42.6390 C   0  0  0  0  0  0  0  0  0  0  0  0
   41.2150   30.3350   41.7620 H   0  0  0  0  0  0  0  0  0  0  0  0
   39.8140   29.1030   42.9320 N   0  0  0  0  0  0  0  0  0  0  0  0
   39.2420   29.2700   44.1120 N   0  0  0  0  0  0  0  0  0  0  0  0
   39.7220   28.2960   42.2490 H   0  0  0  0  0  0  0  0  0  0  0  0
  1  2  2  0  0  0  0
  1  8  1  0  0  0  0
  2  6  1  0  0  0  0
  3  2  1  0  0  0  0
  4  3  1  0  0  0  0
  4  5  2  0  0  0  0
  5  1  1  0  0  0  0
  7 13  1  0  0  0  0
  7 12  1  0  0  0  0
  8  7  2  0  0  0  0
  9  8  1  0  0  0  0
  9 10  2  0  0  0  0
 10 11  1  0  0  0  0
 11 12  2  0  0  0  0
 11 15  1  0  0  0  0
 14  9  1  0  0  0  0
 16  4  1  0  0  0  0
 17 16  1  0  0  0  0
 18 20  1  0  0  0  0
 18 17  2  0  0  0  0
 19 18  1  0  0  0  0
 20 21  1  0  0  0  0
 21 16  2  0  0  0  0
 22 20  1  0  0  0  0
M  END
>  <minimizedAffinity>
-5.25163889

>  <minimizedRMSD>
0.582362413

$$$$
