
 OpenBabel03252510543D

 34 38  0  0  1  0  0  0  0  0999 V2000
   35.7860   30.4650   47.0760 C   0  0  0  0  0  0  0  0  0  0  0  0
   36.9470   30.5420   47.8380 C   0  0  0  0  0  0  0  0  0  0  0  0
   37.0100   29.7860   48.9840 C   0  0  0  0  0  0  0  0  0  0  0  0
   35.9180   29.0030   49.2980 N   0  0  0  0  0  0  0  0  0  0  0  0
   34.8280   28.9510   48.5510 C   0  0  0  0  0  0  0  0  0  0  0  0
   34.7530   29.6840   47.4280 N   0  0  0  0  0  0  0  0  0  0  0  0
   35.7020   31.0490   46.1610 H   0  0  0  0  0  0  0  0  0  0  0  0
   37.8690   29.7790   49.6410 H   0  0  0  0  0  0  0  0  0  0  0  0
   37.9960   31.3560   47.4460 N   0  0  0  0  0  0  0  0  0  0  0  0
   38.4460   32.4580   48.1000 C   0  0  0  0  0  0  0  0  0  0  0  0
   39.4750   33.0360   47.4740 N   0  0  0  0  0  0  0  0  0  0  0  0
   39.7150   32.2970   46.3690 C   0  0  0  0  0  0  0  0  0  0  0  0
   40.6170   32.3730   45.3480 C   0  0  0  0  0  0  0  0  0  0  0  0
   40.6600   31.4860   44.3250 N   0  0  0  0  0  0  0  0  0  0  0  0
   39.7390   30.4870   44.3580 C   0  0  0  0  0  0  0  0  0  0  0  0
   38.8650   30.4180   45.3530 N   0  0  0  0  0  0  0  0  0  0  0  0
   38.7850   31.2570   46.3710 C   0  0  0  0  0  0  0  0  0  0  0  0
   38.0900   32.9010   49.0210 H   0  0  0  0  0  0  0  0  0  0  0  0
   41.3480   33.1740   45.3300 H   0  0  0  0  0  0  0  0  0  0  0  0
   39.6510   29.7070   43.6110 H   0  0  0  0  0  0  0  0  0  0  0  0
   33.6900   28.0690   48.9870 C   0  0  2  0  0  0  0  0  0  0  0  0
   33.4760   26.8670   48.0000 C   0  0  0  0  0  0  0  0  0  0  0  0
   32.4870   27.9500   48.1480 C   0  0  1  0  0  0  0  0  0  0  0  0
   33.7110   27.7880   50.0450 H   0  0  0  0  0  0  0  0  0  0  0  0
   34.1550   26.7930   47.1460 H   0  0  0  0  0  0  0  0  0  0  0  0
   33.3350   25.8930   48.5120 H   0  0  0  0  0  0  0  0  0  0  0  0
   32.4840   28.6750   47.2820 H   0  0  0  0  0  0  0  0  0  0  0  0
   31.1620   27.6670   48.6880 C   0  0  0  0  0  0  0  0  0  0  0  0
   30.1650   26.9220   48.0510 C   0  0  0  0  0  0  0  0  0  0  0  0
   29.0910   26.9100   48.9140 C   0  0  0  0  0  0  0  0  0  0  0  0
   28.1750   26.3830   48.6390 H   0  0  0  0  0  0  0  0  0  0  0  0
   29.4110   27.6050   50.0120 N   0  0  0  0  0  0  0  0  0  0  0  0
   30.6660   28.0620   49.8700 N   0  0  0  0  0  0  0  0  0  0  0  0
   28.7440   27.7270   50.8010 H   0  0  0  0  0  0  0  0  0  0  0  0
  1  6  2  0  0  0  0
  1  2  1  0  0  0  0
  2  3  2  0  0  0  0
  3  4  1  0  0  0  0
  3  8  1  0  0  0  0
  5 21  1  0  0  0  0
  5  4  2  0  0  0  0
  6  5  1  0  0  0  0
  7  1  1  0  0  0  0
  9  2  1  0  0  0  0
  9 10  1  0  0  0  0
 10 18  1  0  0  0  0
 11 10  2  0  0  0  0
 12 17  1  0  0  0  0
 12 11  1  0  0  0  0
 13 12  2  0  0  0  0
 14 15  2  0  0  0  0
 14 13  1  0  0  0  0
 15 16  1  0  0  0  0
 16 17  2  0  0  0  0
 17  9  1  0  0  0  0
 19 13  1  0  0  0  0
 20 15  1  0  0  0  0
 21 24  1  1  0  0  0
 22 23  1  0  0  0  0
 22 26  1  0  0  0  0
 22 21  1  0  0  0  0
 23 27  1  6  0  0  0
 23 28  1  0  0  0  0
 23 21  1  0  0  0  0
 25 22  1  0  0  0  0
 28 33  2  0  0  0  0
 29 28  1  0  0  0  0
 29 30  2  0  0  0  0
 30 32  1  0  0  0  0
 31 30  1  0  0  0  0
 32 34  1  0  0  0  0
 33 32  1  0  0  0  0
M  END
>  <minimizedAffinity>
-6.22930479

>  <minimizedRMSD>
0.324431449

$$$$
