
 OpenBabel03252514053D

 36 39  0  0  1  0  0  0  0  0999 V2000
   35.2500   29.1820   48.5940 C   0  0  2  0  0  0  0  0  0  0  0  0
   34.0300   29.3280   49.3820 C   0  0  0  0  0  0  0  0  0  0  0  0
   34.3770   27.9730   49.0690 C   0  0  1  0  0  0  0  0  0  0  0  0
   35.3200   29.2440   47.5070 H   0  0  0  0  0  0  0  0  0  0  0  0
   33.1290   29.8070   48.9000 H   0  0  0  0  0  0  0  0  0  0  0  0
   34.1510   29.7620   50.4170 H   0  0  0  0  0  0  0  0  0  0  0  0
   34.9360   27.2600   49.6760 H   0  0  0  0  0  0  0  0  0  0  0  0
   36.5700   29.2290   49.3850 C   0  0  0  0  0  0  0  0  0  0  0  0
   36.3500   29.2150   50.4680 H   0  0  0  0  0  0  0  0  0  0  0  0
   37.2190   28.3710   49.1260 H   0  0  0  0  0  0  0  0  0  0  0  0
   37.6190   32.7240   49.5630 C   0  0  0  0  0  0  0  0  0  0  0  0
   38.4890   32.8430   48.4600 C   0  0  0  0  0  0  0  0  0  0  0  0
   38.6970   31.6910   47.6660 C   0  0  0  0  0  0  0  0  0  0  0  0
   38.0470   30.5370   48.0110 N   0  0  0  0  0  0  0  0  0  0  0  0
   37.2340   30.4810   49.0670 C   0  0  0  0  0  0  0  0  0  0  0  0
   37.0260   31.5850   49.8400 N   0  0  0  0  0  0  0  0  0  0  0  0
   37.4140   33.5580   50.2120 H   0  0  0  0  0  0  0  0  0  0  0  0
   38.9450   33.8000   48.2850 H   0  0  0  0  0  0  0  0  0  0  0  0
   39.3550   31.7920   46.8370 H   0  0  0  0  0  0  0  0  0  0  0  0
   33.5280   27.3150   47.9970 C   0  0  0  0  0  0  0  0  0  0  0  0
   33.8820   26.0940   47.7540 O   0  0  0  0  0  0  0  0  0  0  0  0
   32.4630   27.8950   47.3100 O   0  0  0  0  0  0  0  0  0  0  0  0
   31.2190   28.0630   47.8550 C   0  0  0  0  0  0  0  0  0  0  0  0
   30.8020   27.5790   49.1960 C   0  0  0  0  0  0  0  0  0  0  0  0
   29.5320   27.8310   49.5820 C   0  0  0  0  0  0  0  0  0  0  0  0
   28.6250   28.5250   48.7560 C   0  0  0  0  0  0  0  0  0  0  0  0
   29.6280   28.8900   47.2400 S   0  0  0  0  0  0  0  0  0  0  0  0
   31.5370   27.0580   49.7780 H   0  0  0  0  0  0  0  0  0  0  0  0
   29.1380   27.5210   50.5330 H   0  0  0  0  0  0  0  0  0  0  0  0
   27.3390   28.9210   48.8460 C   0  0  0  0  0  0  0  0  0  0  0  0
   26.2240   28.1120   48.9080 C   0  0  0  0  0  3  0  0  0  0  0  0
   25.0780   28.9110   48.9920 C   0  0  0  0  0  0  0  0  0  0  0  0
   24.0140   28.7660   49.0600 H   0  0  0  0  0  0  0  0  0  0  0  0
   25.5480   30.1940   48.9780 N   0  0  0  0  0  0  0  0  0  0  0  0
   26.8830   30.1850   48.8910 N   0  0  0  0  0  0  0  0  0  0  0  0
   24.9960   31.1010   49.0260 H   0  0  0  0  0  0  0  0  0  0  0  0
  1  4  1  6  0  0  0
  1  3  1  0  0  0  0
  1  2  1  0  0  0  0
  1  8  1  0  0  0  0
  2  6  1  0  0  0  0
  3  2  1  0  0  0  0
  3  7  1  1  0  0  0
  5  2  1  0  0  0  0
  8  9  1  0  0  0  0
 10  8  1  0  0  0  0
 11 16  1  0  0  0  0
 11 17  1  0  0  0  0
 12 11  2  0  0  0  0
 13 14  2  0  0  0  0
 13 12  1  0  0  0  0
 14 15  1  0  0  0  0
 15  8  1  0  0  0  0
 15 16  2  0  0  0  0
 18 12  1  0  0  0  0
 19 13  1  0  0  0  0
 20  3  1  0  0  0  0
 21 20  2  0  0  0  0
 22 23  1  0  0  0  0
 22 20  1  0  0  0  0
 23 24  2  0  0  0  0
 24 25  1  0  0  0  0
 24 28  1  0  0  0  0
 25 29  1  0  0  0  0
 26 30  1  0  0  0  0
 26 25  2  0  0  0  0
 27 23  1  0  0  0  0
 27 26  1  0  0  0  0
 30 35  2  0  0  0  0
 30 31  1  0  0  0  0
 31 32  2  0  0  0  0
 32 33  1  0  0  0  0
 34 32  1  0  0  0  0
 34 36  1  0  0  0  0
 35 34  1  0  0  0  0
M  END
>  <minimizedAffinity>
-6.2263813

>  <minimizedRMSD>
1.61994648

$$$$
