
 OpenBabel03252514053D

 32 35  0  0  1  0  0  0  0  0999 V2000
   35.3640   29.2770   48.6840 C   0  0  2  0  0  0  0  0  0  0  0  0
   34.1700   29.3310   49.5210 C   0  0  0  0  0  0  0  0  0  0  0  0
   34.5510   28.0110   49.1100 C   0  0  1  0  0  0  0  0  0  0  0  0
   35.4250   29.5080   47.6200 H   0  0  0  0  0  0  0  0  0  0  0  0
   33.2690   29.8360   49.0790 H   0  0  0  0  0  0  0  0  0  0  0  0
   34.2730   29.6420   50.5970 H   0  0  0  0  0  0  0  0  0  0  0  0
   35.1560   27.2850   49.6610 H   0  0  0  0  0  0  0  0  0  0  0  0
   36.7090   29.3160   49.4280 C   0  0  0  0  0  0  0  0  0  0  0  0
   36.5160   29.3970   50.5160 H   0  0  0  0  0  0  0  0  0  0  0  0
   37.2740   28.3790   49.2770 H   0  0  0  0  0  0  0  0  0  0  0  0
   38.0370   32.7220   49.4170 C   0  0  0  0  0  0  0  0  0  0  0  0
   38.7450   32.7670   48.1970 C   0  0  0  0  0  0  0  0  0  0  0  0
   38.7510   31.6040   47.3920 C   0  0  0  0  0  0  0  0  0  0  0  0
   38.0700   30.5060   47.8430 N   0  0  0  0  0  0  0  0  0  0  0  0
   37.4160   30.5180   49.0080 C   0  0  0  0  0  0  0  0  0  0  0  0
   37.4060   31.6330   49.7890 N   0  0  0  0  0  0  0  0  0  0  0  0
   38.0670   33.6380   49.9920 H   0  0  0  0  0  0  0  0  0  0  0  0
   39.2770   33.6370   47.8520 H   0  0  0  0  0  0  0  0  0  0  0  0
   39.2860   31.6170   46.4540 H   0  0  0  0  0  0  0  0  0  0  0  0
   33.6890   27.3850   48.0350 C   0  0  0  0  0  0  0  0  0  0  0  0
   33.9990   26.1520   47.7930 O   0  0  0  0  0  0  0  0  0  0  0  0
   32.6510   28.0100   47.3440 O   0  0  0  0  0  0  0  0  0  0  0  0
   31.3850   28.1290   47.8290 C   0  0  0  0  0  0  0  0  0  0  0  0
   30.9560   27.6360   49.1520 C   0  0  0  0  0  0  0  0  0  0  0  0
   29.6740   27.8000   49.5570 C   0  0  0  0  0  0  0  0  0  0  0  0
   28.7450   28.4490   48.6970 C   0  0  0  0  0  0  0  0  0  0  0  0
   29.7670   28.8630   47.1950 S   0  0  0  0  0  0  0  0  0  0  0  0
   31.6870   27.1470   49.7760 H   0  0  0  0  0  0  0  0  0  0  0  0
   29.2660   27.4800   50.4960 H   0  0  0  0  0  0  0  0  0  0  0  0
   27.4190   28.8060   48.7080 C   0  0  0  0  0  3  0  0  0  0  0  0
   26.4860   28.2880   49.7510 C   0  0  0  0  0  2  0  0  0  0  0  0
   26.3740   27.6890   48.4000 C   0  0  0  0  0  2  0  0  0  0  0  0
  1  4  1  6  0  0  0
  1  3  1  0  0  0  0
  1  8  1  0  0  0  0
  1  2  1  0  0  0  0
  2  6  1  0  0  0  0
  3  2  1  0  0  0  0
  3  7  1  1  0  0  0
  5  2  1  0  0  0  0
  8  9  1  0  0  0  0
 10  8  1  0  0  0  0
 11 16  1  0  0  0  0
 11 17  1  0  0  0  0
 12 11  2  0  0  0  0
 13 14  2  0  0  0  0
 13 12  1  0  0  0  0
 14 15  1  0  0  0  0
 15  8  1  0  0  0  0
 15 16  2  0  0  0  0
 18 12  1  0  0  0  0
 19 13  1  0  0  0  0
 20  3  1  0  0  0  0
 21 20  2  0  0  0  0
 22 23  1  0  0  0  0
 22 20  1  0  0  0  0
 23 24  2  0  0  0  0
 24 25  1  0  0  0  0
 24 28  1  0  0  0  0
 25 29  1  0  0  0  0
 26 30  1  0  0  0  0
 26 25  2  0  0  0  0
 27 23  1  0  0  0  0
 27 26  1  0  0  0  0
 30 31  1  0  0  0  0
 32 30  1  0  0  0  0
 32 31  1  0  0  0  0
M  END
>  <minimizedAffinity>
-5.69193411

>  <minimizedRMSD>
1.03395629

$$$$
