
 OpenBabel03252514063D

 25 28  0  0  0  0  0  0  0  0999 V2000
   37.8350   31.8520   49.0140 N   0  0  0  0  0  0  0  0  0  0  0  0
   38.2900   33.0230   49.5260 C   0  0  0  0  0  0  0  0  0  0  0  0
   39.1890   33.5380   48.6420 N   0  0  0  0  0  0  0  0  0  0  0  0
   39.2680   32.6910   47.6230 C   0  0  0  0  0  0  0  0  0  0  0  0
   40.0030   32.6780   46.4460 C   0  0  0  0  0  0  0  0  0  0  0  0
   39.8860   31.6590   45.5570 N   0  0  0  0  0  0  0  0  0  0  0  0
   39.0560   30.6180   45.7780 C   0  0  0  0  0  0  0  0  0  0  0  0
   38.3470   30.6420   46.9260 N   0  0  0  0  0  0  0  0  0  0  0  0
   38.4280   31.6240   47.8340 C   0  0  0  0  0  0  0  0  0  0  0  0
   40.8840   33.7370   46.1630 N   0  0  0  0  0  0  0  0  0  0  0  0
   38.0370   33.5260   50.4560 H   0  0  0  0  0  0  0  0  0  0  0  0
   39.0020   29.8320   45.0360 H   0  0  0  0  0  0  0  0  0  0  0  0
   41.7330   33.7580   46.7680 H   0  0  0  0  0  0  0  0  0  0  0  0
   40.8110   34.5060   45.4350 H   0  0  0  0  0  0  0  0  0  0  0  0
   35.5840   30.9100   49.0870 C   0  0  0  0  0  0  0  0  0  0  0  0
   36.8710   31.0250   49.6710 C   0  0  0  0  0  0  0  0  0  0  0  0
   37.0860   30.3140   50.8440 C   0  0  0  0  0  0  0  0  0  0  0  0
   36.0830   29.5590   51.3700 N   0  0  0  0  0  0  0  0  0  0  0  0
   34.8770   29.4800   50.7790 C   0  0  0  0  0  0  0  0  0  0  0  0
   34.6220   30.1560   49.6340 N   0  0  0  0  0  0  0  0  0  0  0  0
   35.3370   31.4370   48.1650 H   0  0  0  0  0  0  0  0  0  0  0  0
   38.0640   30.4010   51.2890 H   0  0  0  0  0  0  0  0  0  0  0  0
   33.7650   28.6590   51.3410 C   0  0  0  0  0  3  0  0  0  0  0  0
   32.3630   29.0560   50.9250 C   0  0  0  0  0  2  0  0  0  0  0  0
   32.9900   27.8300   50.3690 C   0  0  0  0  0  2  0  0  0  0  0  0
  1  2  1  0  0  0  0
  1 16  1  0  0  0  0
  2 11  1  0  0  0  0
  3  2  2  0  0  0  0
  4  9  1  0  0  0  0
  4  3  1  0  0  0  0
  5  4  2  0  0  0  0
  6  7  2  0  0  0  0
  6  5  1  0  0  0  0
  7  8  1  0  0  0  0
  8  9  2  0  0  0  0
  9  1  1  0  0  0  0
 10  5  1  0  0  0  0
 10 13  1  0  0  0  0
 12  7  1  0  0  0  0
 14 10  1  0  0  0  0
 15 20  2  0  0  0  0
 15 16  1  0  0  0  0
 16 17  2  0  0  0  0
 17 22  1  0  0  0  0
 17 18  1  0  0  0  0
 19 23  1  0  0  0  0
 19 18  2  0  0  0  0
 20 19  1  0  0  0  0
 21 15  1  0  0  0  0
 24 23  1  0  0  0  0
 25 24  1  0  0  0  0
 25 23  1  0  0  0  0
M  END
>  <minimizedAffinity>
1.5562104

>  <minimizedRMSD>
0.522201598

$$$$
