
 OpenBabel03252514053D

 32 35  0  0  1  0  0  0  0  0999 V2000
   35.1860   29.3370   48.8550 C   0  0  2  0  0  0  0  0  0  0  0  0
   34.0790   29.2920   49.8050 C   0  0  0  0  0  0  0  0  0  0  0  0
   34.4090   28.0280   49.2120 C   0  0  1  0  0  0  0  0  0  0  0  0
   35.1460   29.6870   47.8230 H   0  0  0  0  0  0  0  0  0  0  0  0
   33.1430   29.8410   49.5120 H   0  0  0  0  0  0  0  0  0  0  0  0
   34.2880   29.4800   50.8940 H   0  0  0  0  0  0  0  0  0  0  0  0
   35.0590   27.2470   49.6170 H   0  0  0  0  0  0  0  0  0  0  0  0
   36.5970   29.2970   49.4650 C   0  0  0  0  0  0  0  0  0  0  0  0
   36.5110   29.2650   50.5690 H   0  0  0  0  0  0  0  0  0  0  0  0
   37.1340   28.3800   49.1640 H   0  0  0  0  0  0  0  0  0  0  0  0
   37.7090   32.7780   49.5380 C   0  0  0  0  0  0  0  0  0  0  0  0
   38.5490   32.8520   48.4060 C   0  0  0  0  0  0  0  0  0  0  0  0
   38.7170   31.6810   47.6300 C   0  0  0  0  0  0  0  0  0  0  0  0
   38.0560   30.5490   48.0220 N   0  0  0  0  0  0  0  0  0  0  0  0
   37.2740   30.5350   49.1040 C   0  0  0  0  0  0  0  0  0  0  0  0
   37.1070   31.6570   49.8570 N   0  0  0  0  0  0  0  0  0  0  0  0
   37.6180   33.7020   50.0940 H   0  0  0  0  0  0  0  0  0  0  0  0
   39.0630   33.7480   48.1070 H   0  0  0  0  0  0  0  0  0  0  0  0
   39.3550   31.7160   46.7590 H   0  0  0  0  0  0  0  0  0  0  0  0
   33.4420   27.5250   48.1630 C   0  0  0  0  0  0  0  0  0  0  0  0
   33.7490   26.3490   47.7160 O   0  0  0  0  0  0  0  0  0  0  0  0
   32.3170   28.1990   47.6870 O   0  0  0  0  0  0  0  0  0  0  0  0
   31.0510   27.9520   48.1190 C   0  0  0  0  0  0  0  0  0  0  0  0
   30.7150   27.5030   49.4840 C   0  0  0  0  0  0  0  0  0  0  0  0
   29.4230   27.2850   49.8310 C   0  0  0  0  0  0  0  0  0  0  0  0
   28.3960   27.4880   48.8680 C   0  0  0  0  0  0  0  0  0  0  0  0
   29.3290   28.0360   47.3520 S   0  0  0  0  0  0  0  0  0  0  0  0
   31.5190   27.3580   50.1860 H   0  0  0  0  0  0  0  0  0  0  0  0
   29.0780   26.9600   50.7930 H   0  0  0  0  0  0  0  0  0  0  0  0
   27.0280   27.3900   48.7970 C   0  0  0  0  0  3  0  0  0  0  0  0
   26.2140   28.4050   48.0650 C   0  0  0  0  0  2  0  0  0  0  0  0
   26.1910   28.4740   49.5450 C   0  0  0  0  0  2  0  0  0  0  0  0
  1  4  1  6  0  0  0
  1  3  1  0  0  0  0
  1  8  1  0  0  0  0
  1  2  1  0  0  0  0
  2  6  1  0  0  0  0
  3  7  1  1  0  0  0
  3  2  1  0  0  0  0
  5  2  1  0  0  0  0
  8  9  1  0  0  0  0
 10  8  1  0  0  0  0
 11 16  1  0  0  0  0
 11 17  1  0  0  0  0
 12 11  2  0  0  0  0
 13 14  2  0  0  0  0
 13 12  1  0  0  0  0
 14 15  1  0  0  0  0
 15  8  1  0  0  0  0
 15 16  2  0  0  0  0
 18 12  1  0  0  0  0
 19 13  1  0  0  0  0
 20  3  1  0  0  0  0
 21 20  2  0  0  0  0
 22 23  1  0  0  0  0
 22 20  1  0  0  0  0
 23 24  2  0  0  0  0
 24 25  1  0  0  0  0
 24 28  1  0  0  0  0
 25 29  1  0  0  0  0
 26 25  2  0  0  0  0
 27 23  1  0  0  0  0
 27 26  1  0  0  0  0
 30 26  1  0  0  0  0
 30 32  1  0  0  0  0
 31 30  1  0  0  0  0
 31 32  1  0  0  0  0
M  END
>  <minimizedAffinity>
-5.84621525

>  <minimizedRMSD>
0.626118362

$$$$
