
 OpenBabel03252513173D

 24 26  0  0  1  0  0  0  0  0999 V2000
   37.3930   31.2450   48.1530 N   0  0  0  0  0  0  0  0  0  0  0  0
   38.6860   31.6300   47.6580 C   0  0  0  0  0  0  0  0  0  0  0  0
   38.8760   32.9960   48.2320 C   0  0  0  0  0  0  0  0  0  0  0  0
   38.4770   32.7740   49.6530 C   0  0  0  0  0  0  0  0  0  0  0  0
   37.5530   31.5610   49.5340 C   0  0  2  0  0  0  0  0  0  0  0  0
   38.5780   31.7780   46.5420 H   0  0  0  0  0  0  0  0  0  0  0  0
   39.5060   30.9510   47.8690 H   0  0  0  0  0  0  0  0  0  0  0  0
   38.1420   33.6940   47.7840 H   0  0  0  0  0  0  0  0  0  0  0  0
   39.9290   33.3730   48.1420 H   0  0  0  0  0  0  0  0  0  0  0  0
   38.0000   33.6310   50.1490 H   0  0  0  0  0  0  0  0  0  0  0  0
   39.3970   32.5260   50.2280 H   0  0  0  0  0  0  0  0  0  0  0  0
   36.5730   31.9070   49.9130 H   0  0  0  0  0  0  0  0  0  0  0  0
   36.2950   30.7060   47.4400 C   0  0  0  0  0  0  0  0  0  0  0  0
   36.3840   30.4290   46.0570 C   0  0  0  0  0  0  0  0  0  0  0  0
   35.2280   29.8780   45.4480 C   0  0  0  0  0  0  0  0  0  0  0  0
   34.1140   29.6490   46.2100 N   0  0  0  0  0  0  0  0  0  0  0  0
   34.0860   29.9340   47.5280 C   0  0  0  0  0  0  0  0  0  0  0  0
   35.1760   30.4600   48.1310 N   0  0  0  0  0  0  0  0  0  0  0  0
   37.2920   30.6340   45.5170 H   0  0  0  0  0  0  0  0  0  0  0  0
   35.2660   29.6570   44.3990 H   0  0  0  0  0  0  0  0  0  0  0  0
   33.2260   29.7660   48.1600 H   0  0  0  0  0  0  0  0  0  0  0  0
   38.0450   30.4360   50.3930 C   0  0  0  0  0  0  0  0  0  0  0  0
   37.2290   30.1300   51.6390 C   0  0  0  0  0  0  0  0  0  0  0  0
   37.3830   29.1430   50.5370 C   0  0  0  0  0  0  0  0  0  0  0  0
  1  5  1  0  0  0  0
  2  7  1  0  0  0  0
  2  1  1  0  0  0  0
  2  3  1  0  0  0  0
  3  4  1  0  0  0  0
  4 10  1  0  0  0  0
  4 11  1  0  0  0  0
  5  4  1  0  0  0  0
  5 12  1  1  0  0  0
  5 22  1  0  0  0  0
  6  2  1  0  0  0  0
  8  3  1  0  0  0  0
  9  3  1  0  0  0  0
 13 18  1  0  0  0  0
 13  1  1  0  0  0  0
 14 13  2  0  0  0  0
 15 14  1  0  0  0  0
 15 16  2  0  0  0  0
 16 17  1  0  0  0  0
 17 18  2  0  0  0  0
 17 21  1  0  0  0  0
 19 14  1  0  0  0  0
 20 15  1  0  0  0  0
 22 24  1  0  0  0  0
 22 23  1  0  0  0  0
 24 23  1  0  0  0  0
M  END
>  <minimizedAffinity>
-5.08735371

>  <minimizedRMSD>
2.4565804

$$$$
