
 OpenBabel03252514063D

 25 28  0  0  0  0  0  0  0  0999 V2000
   38.2650   31.7440   46.8490 N   0  0  0  0  0  0  0  0  0  0  0  0
   39.2680   32.4780   47.3910 C   0  0  0  0  0  0  0  0  0  0  0  0
   39.8530   33.1850   46.3840 N   0  0  0  0  0  0  0  0  0  0  0  0
   39.2090   32.8790   45.2640 C   0  0  0  0  0  0  0  0  0  0  0  0
   39.3500   33.2770   43.9420 C   0  0  0  0  0  0  0  0  0  0  0  0
   38.5330   32.7920   42.9730 N   0  0  0  0  0  0  0  0  0  0  0  0
   37.5540   31.9050   43.2500 C   0  0  0  0  0  0  0  0  0  0  0  0
   37.4280   31.5250   44.5380 N   0  0  0  0  0  0  0  0  0  0  0  0
   38.2080   31.9750   45.5300 C   0  0  0  0  0  0  0  0  0  0  0  0
   40.3520   34.2000   43.5960 N   0  0  0  0  0  0  0  0  0  0  0  0
   39.6080   32.5470   48.4220 H   0  0  0  0  0  0  0  0  0  0  0  0
   36.9320   31.5500   42.4390 H   0  0  0  0  0  0  0  0  0  0  0  0
   41.3210   33.8180   43.6500 H   0  0  0  0  0  0  0  0  0  0  0  0
   40.2680   35.2140   43.2920 H   0  0  0  0  0  0  0  0  0  0  0  0
   36.1670   30.5130   47.0620 C   0  0  0  0  0  0  0  0  0  0  0  0
   37.4250   30.8710   47.6100 C   0  0  0  0  0  0  0  0  0  0  0  0
   37.7350   30.3360   48.8520 C   0  0  0  0  0  0  0  0  0  0  0  0
   36.8470   29.5150   49.4760 N   0  0  0  0  0  0  0  0  0  0  0  0
   35.6640   29.2030   48.9160 C   0  0  0  0  0  0  0  0  0  0  0  0
   35.3190   29.7020   47.7050 N   0  0  0  0  0  0  0  0  0  0  0  0
   35.8510   30.8920   46.0890 H   0  0  0  0  0  0  0  0  0  0  0  0
   38.6910   30.6070   49.2710 H   0  0  0  0  0  0  0  0  0  0  0  0
   34.6770   28.3050   49.5830 C   0  0  0  0  0  3  0  0  0  0  0  0
   33.4850   28.9830   50.2280 C   0  0  0  0  0  2  0  0  0  0  0  0
   33.3200   28.2240   48.9630 C   0  0  0  0  0  2  0  0  0  0  0  0
  1  2  1  0  0  0  0
  1 16  1  0  0  0  0
  2 11  1  0  0  0  0
  3  2  2  0  0  0  0
  4  9  1  0  0  0  0
  4  3  1  0  0  0  0
  5  4  2  0  0  0  0
  6  7  2  0  0  0  0
  6  5  1  0  0  0  0
  7  8  1  0  0  0  0
  8  9  2  0  0  0  0
  9  1  1  0  0  0  0
 10 13  1  0  0  0  0
 10  5  1  0  0  0  0
 12  7  1  0  0  0  0
 14 10  1  0  0  0  0
 15 16  2  0  0  0  0
 15 20  1  0  0  0  0
 16 17  1  0  0  0  0
 17 22  1  0  0  0  0
 17 18  2  0  0  0  0
 19 18  1  0  0  0  0
 19 23  1  0  0  0  0
 20 19  2  0  0  0  0
 21 15  1  0  0  0  0
 23 24  1  0  0  0  0
 25 23  1  0  0  0  0
 25 24  1  0  0  0  0
M  END
>  <minimizedAffinity>
-4.70897961

>  <minimizedRMSD>
2.57044721

$$$$
