
 OpenBabel03252514063D

 25 28  0  0  0  0  0  0  0  0999 V2000
   37.8330   31.8540   49.0150 N   0  0  0  0  0  0  0  0  0  0  0  0
   38.2950   33.0230   49.5250 C   0  0  0  0  0  0  0  0  0  0  0  0
   39.1940   33.5330   48.6390 N   0  0  0  0  0  0  0  0  0  0  0  0
   39.2670   32.6850   47.6200 C   0  0  0  0  0  0  0  0  0  0  0  0
   39.9990   32.6680   46.4410 C   0  0  0  0  0  0  0  0  0  0  0  0
   39.8750   31.6490   45.5530 N   0  0  0  0  0  0  0  0  0  0  0  0
   39.0410   30.6120   45.7760 C   0  0  0  0  0  0  0  0  0  0  0  0
   38.3350   30.6400   46.9260 N   0  0  0  0  0  0  0  0  0  0  0  0
   38.4220   31.6220   47.8330 C   0  0  0  0  0  0  0  0  0  0  0  0
   40.8840   33.7230   46.1560 N   0  0  0  0  0  0  0  0  0  0  0  0
   38.0460   33.5270   50.4560 H   0  0  0  0  0  0  0  0  0  0  0  0
   38.9820   29.8260   45.0360 H   0  0  0  0  0  0  0  0  0  0  0  0
   41.7350   33.7410   46.7580 H   0  0  0  0  0  0  0  0  0  0  0  0
   40.8120   34.4920   45.4270 H   0  0  0  0  0  0  0  0  0  0  0  0
   35.5770   30.9240   49.0970 C   0  0  0  0  0  0  0  0  0  0  0  0
   36.8670   31.0310   49.6740 C   0  0  0  0  0  0  0  0  0  0  0  0
   37.0830   30.3170   50.8450 C   0  0  0  0  0  0  0  0  0  0  0  0
   36.0780   29.5670   51.3750 N   0  0  0  0  0  0  0  0  0  0  0  0
   34.8700   29.4960   50.7890 C   0  0  0  0  0  0  0  0  0  0  0  0
   34.6130   30.1760   49.6460 N   0  0  0  0  0  0  0  0  0  0  0  0
   35.3290   31.4540   48.1760 H   0  0  0  0  0  0  0  0  0  0  0  0
   38.0640   30.3970   51.2860 H   0  0  0  0  0  0  0  0  0  0  0  0
   33.7550   28.6800   51.3550 C   0  0  0  0  0  3  0  0  0  0  0  0
   32.4020   28.8470   50.6920 C   0  0  0  0  0  2  0  0  0  0  0  0
   33.1970   27.6110   50.4740 C   0  0  0  0  0  2  0  0  0  0  0  0
  1  2  1  0  0  0  0
  1 16  1  0  0  0  0
  2 11  1  0  0  0  0
  3  2  2  0  0  0  0
  4  9  1  0  0  0  0
  4  3  1  0  0  0  0
  5  4  2  0  0  0  0
  6  7  2  0  0  0  0
  6  5  1  0  0  0  0
  7  8  1  0  0  0  0
  8  9  2  0  0  0  0
  9  1  1  0  0  0  0
 10  5  1  0  0  0  0
 10 13  1  0  0  0  0
 12  7  1  0  0  0  0
 14 10  1  0  0  0  0
 15 20  2  0  0  0  0
 15 16  1  0  0  0  0
 16 17  2  0  0  0  0
 17 22  1  0  0  0  0
 17 18  1  0  0  0  0
 19 23  1  0  0  0  0
 19 18  2  0  0  0  0
 20 19  1  0  0  0  0
 21 15  1  0  0  0  0
 24 23  1  0  0  0  0
 25 24  1  0  0  0  0
 25 23  1  0  0  0  0
M  END
>  <minimizedAffinity>
1.77391648

>  <minimizedRMSD>
0.525372326

$$$$
