
 OpenBabel03252514063D

 25 28  0  0  0  0  0  0  0  0999 V2000
   36.7370   31.2290   48.7530 N   0  0  0  0  0  0  0  0  0  0  0  0
   36.8410   32.0780   49.8060 C   0  0  0  0  0  0  0  0  0  0  0  0
   37.8430   32.9590   49.5280 N   0  0  0  0  0  0  0  0  0  0  0  0
   38.3250   32.6410   48.3330 C   0  0  0  0  0  0  0  0  0  0  0  0
   39.3340   33.1670   47.5390 C   0  0  0  0  0  0  0  0  0  0  0  0
   39.6250   32.6300   46.3260 N   0  0  0  0  0  0  0  0  0  0  0  0
   38.9500   31.5670   45.8420 C   0  0  0  0  0  0  0  0  0  0  0  0
   37.9720   31.0640   46.6240 N   0  0  0  0  0  0  0  0  0  0  0  0
   37.6480   31.5570   47.8260 C   0  0  0  0  0  0  0  0  0  0  0  0
   40.0700   34.2760   47.9920 N   0  0  0  0  0  0  0  0  0  0  0  0
   36.2740   32.1180   50.7330 H   0  0  0  0  0  0  0  0  0  0  0  0
   39.2240   31.1780   44.8700 H   0  0  0  0  0  0  0  0  0  0  0  0
   40.7160   34.0650   48.7830 H   0  0  0  0  0  0  0  0  0  0  0  0
   40.0640   35.2820   47.6510 H   0  0  0  0  0  0  0  0  0  0  0  0
   34.7520   30.2490   47.7240 C   0  0  0  0  0  0  0  0  0  0  0  0
   35.7860   30.1630   48.6900 C   0  0  0  0  0  0  0  0  0  0  0  0
   35.7850   29.0360   49.5000 C   0  0  0  0  0  0  0  0  0  0  0  0
   34.8210   28.0880   49.3390 N   0  0  0  0  0  0  0  0  0  0  0  0
   33.8590   28.2140   48.4070 C   0  0  0  0  0  0  0  0  0  0  0  0
   33.8200   29.2970   47.5940 N   0  0  0  0  0  0  0  0  0  0  0  0
   34.6850   31.1040   47.0490 H   0  0  0  0  0  0  0  0  0  0  0  0
   36.5700   28.9680   50.2360 H   0  0  0  0  0  0  0  0  0  0  0  0
   32.7930   27.1870   48.2160 C   0  0  0  0  0  3  0  0  0  0  0  0
   31.4280   27.5270   48.7780 C   0  0  0  0  0  2  0  0  0  0  0  0
   31.6620   27.5580   47.3120 C   0  0  0  0  0  2  0  0  0  0  0  0
  1  2  1  0  0  0  0
  2 11  1  0  0  0  0
  3  2  2  0  0  0  0
  4  3  1  0  0  0  0
  5 10  1  0  0  0  0
  5  4  2  0  0  0  0
  6  5  1  0  0  0  0
  7  6  2  0  0  0  0
  7  8  1  0  0  0  0
  8  9  2  0  0  0  0
  9  4  1  0  0  0  0
  9  1  1  0  0  0  0
 10 13  1  0  0  0  0
 12  7  1  0  0  0  0
 14 10  1  0  0  0  0
 15 16  1  0  0  0  0
 16  1  1  0  0  0  0
 16 17  2  0  0  0  0
 17 22  1  0  0  0  0
 18 17  1  0  0  0  0
 19 18  2  0  0  0  0
 20 15  2  0  0  0  0
 20 19  1  0  0  0  0
 21 15  1  0  0  0  0
 23 19  1  0  0  0  0
 23 24  1  0  0  0  0
 25 23  1  0  0  0  0
 25 24  1  0  0  0  0
M  END
>  <minimizedAffinity>
-5.6362443

>  <minimizedRMSD>
2.39832211

$$$$
