
 OpenBabel03252513583D

 22 24  0  0  1  0  0  0  0  0999 V2000
   36.9880   29.6820   49.7840 C   0  0  0  0  0  0  0  0  0  0  0  0
   37.4370   28.6960   49.5400 H   0  0  0  0  0  0  0  0  0  0  0  0
   37.0230   29.8700   50.8940 H   0  0  0  0  0  0  0  0  0  0  0  0
   38.6050   32.9230   49.1040 C   0  0  0  0  0  0  0  0  0  0  0  0
   39.0630   32.7850   47.7950 C   0  0  0  0  0  0  0  0  0  0  0  0
   38.8070   31.5570   47.1440 C   0  0  0  0  0  0  0  0  0  0  0  0
   38.1330   30.5920   47.8390 N   0  0  0  0  0  0  0  0  0  0  0  0
   37.7090   30.7750   49.1070 C   0  0  0  0  0  0  0  0  0  0  0  0
   37.9550   31.9440   49.7190 N   0  0  0  0  0  0  0  0  0  0  0  0
   38.8370   33.8950   49.5430 H   0  0  0  0  0  0  0  0  0  0  0  0
   39.5980   33.5390   47.2320 H   0  0  0  0  0  0  0  0  0  0  0  0
   39.1390   31.4050   46.1430 H   0  0  0  0  0  0  0  0  0  0  0  0
   35.5340   29.7770   49.3600 C   0  0  2  0  0  0  0  0  0  0  0  0
   34.4630   29.3730   50.2970 C   0  0  0  0  0  0  0  0  0  0  0  0
   34.8470   28.4420   49.2030 C   0  0  1  0  0  0  0  0  0  0  0  0
   35.3310   30.4910   48.5240 H   0  0  0  0  0  0  0  0  0  0  0  0
   33.5580   30.0010   50.2690 H   0  0  0  0  0  0  0  0  0  0  0  0
   34.7720   29.1160   51.3380 H   0  0  0  0  0  0  0  0  0  0  0  0
   35.3910   27.5140   49.5340 H   0  0  0  0  0  0  0  0  0  0  0  0
   33.8140   28.1960   48.1700 C   0  0  0  0  0  0  0  0  0  0  0  0
   32.5740   27.4310   48.3920 C   0  0  0  0  0  0  0  0  0  0  0  0
   33.7050   26.7190   47.7470 C   0  0  0  0  0  0  0  0  0  0  0  0
  1  3  1  0  0  0  0
  2  1  1  0  0  0  0
  4 10  1  0  0  0  0
  4  9  1  0  0  0  0
  5  4  2  0  0  0  0
  6  5  1  0  0  0  0
  6  7  2  0  0  0  0
  7  8  1  0  0  0  0
  8  9  2  0  0  0  0
  8  1  1  0  0  0  0
 11  5  1  0  0  0  0
 12  6  1  0  0  0  0
 13 16  1  6  0  0  0
 13  1  1  0  0  0  0
 13 14  1  0  0  0  0
 14 18  1  0  0  0  0
 15 13  1  0  0  0  0
 15 19  1  1  0  0  0
 15 14  1  0  0  0  0
 17 14  1  0  0  0  0
 20 21  1  0  0  0  0
 20 15  1  0  0  0  0
 22 20  1  0  0  0  0
 22 21  1  0  0  0  0
M  END
>  <minimizedAffinity>
-4.80413532

>  <minimizedRMSD>
0.90399617

$$$$
