
 OpenBabel03252512183D

 37 41  0  0  0  0  0  0  0  0999 V2000
   32.2240   30.1060   46.0880 C   0  0  0  0  0  0  0  0  0  0  0  0
   31.8580   28.7560   46.1020 C   0  0  0  0  0  0  0  0  0  0  0  0
   32.7570   27.8440   46.6670 C   0  0  0  0  0  0  0  0  0  0  0  0
   33.9320   28.2930   47.1740 N   0  0  0  0  0  0  0  0  0  0  0  0
   34.2620   29.6240   47.1450 C   0  0  0  0  0  0  0  0  0  0  0  0
   33.4040   30.5130   46.6030 N   0  0  0  0  0  0  0  0  0  0  0  0
   31.5350   30.8170   45.6530 H   0  0  0  0  0  0  0  0  0  0  0  0
   30.9240   28.4590   45.6910 H   0  0  0  0  0  0  0  0  0  0  0  0
   35.5360   30.0110   47.7090 C   0  0  0  0  0  0  0  0  0  0  0  0
   36.5740   30.5600   46.9730 C   0  0  0  0  0  0  0  0  0  0  0  0
   37.6180   30.8090   47.7760 N   0  0  0  0  0  0  0  0  0  0  0  0
   37.2820   30.4320   49.0350 C   0  0  0  0  0  0  0  0  0  0  0  0
   37.9980   30.4790   50.2190 C   0  0  0  0  0  0  0  0  0  0  0  0
   37.3680   30.0060   51.3750 C   0  0  0  0  0  0  0  0  0  0  0  0
   36.0740   29.5110   51.3210 C   0  0  0  0  0  0  0  0  0  0  0  0
   35.3430   29.4600   50.1310 C   0  0  0  0  0  0  0  0  0  0  0  0
   35.9950   29.9370   48.9980 C   0  0  0  0  0  0  0  0  0  0  0  0
   36.5670   30.7640   45.9130 H   0  0  0  0  0  0  0  0  0  0  0  0
   38.5470   31.2210   47.5270 H   0  0  0  0  0  0  0  0  0  0  0  0
   38.9990   30.8540   50.2950 H   0  0  0  0  0  0  0  0  0  0  0  0
   37.8640   30.0080   52.3500 H   0  0  0  0  0  0  0  0  0  0  0  0
   35.6170   29.1550   52.2290 H   0  0  0  0  0  0  0  0  0  0  0  0
   34.3450   29.0830   50.0700 H   0  0  0  0  0  0  0  0  0  0  0  0
   32.4220   26.4220   46.7060 C   0  0  0  0  0  0  0  0  0  0  0  0
   33.1970   25.5750   47.4640 C   0  0  0  0  0  0  0  0  0  0  0  0
   32.8200   24.2480   47.4520 C   0  0  0  0  0  0  0  0  0  0  0  0
   31.7630   23.8020   46.7460 N   0  0  0  0  0  0  0  0  0  0  0  0
   31.0150   24.6780   46.0020 C   0  0  0  0  0  0  0  0  0  0  0  0
   31.3770   25.9810   46.0080 N   0  0  0  0  0  0  0  0  0  0  0  0
   34.0360   25.9280   48.0240 H   0  0  0  0  0  0  0  0  0  0  0  0
   33.4220   23.5650   48.0450 H   0  0  0  0  0  0  0  0  0  0  0  0
   29.8600   24.2180   45.2260 C   0  0  0  0  0  0  0  0  0  0  0  0
   29.3710   22.8420   45.6030 C   0  0  0  0  0  0  0  0  0  0  0  0
   28.1970   22.5080   44.7080 C   0  0  0  0  0  0  0  0  0  0  0  0
   27.9810   23.5250   43.6100 C   0  0  0  0  0  0  0  0  0  0  0  0
   27.7990   24.9200   44.1640 C   0  0  0  0  0  0  0  0  0  0  0  0
   28.6700   25.1570   45.3800 C   0  0  0  0  0  0  0  0  0  0  0  0
  1  2  2  0  0  0  0
  1  6  1  0  0  0  0
  2  3  1  0  0  0  0
  3 24  1  0  0  0  0
  3  4  2  0  0  0  0
  5  4  1  0  0  0  0
  5  9  1  0  0  0  0
  6  5  2  0  0  0  0
  7  1  1  0  0  0  0
  8  2  1  0  0  0  0
  9 17  1  0  0  0  0
 10  9  2  0  0  0  0
 10 11  1  0  0  0  0
 11 12  1  0  0  0  0
 12 13  1  0  0  0  0
 13 20  1  0  0  0  0
 13 14  2  0  0  0  0
 14 21  1  0  0  0  0
 15 14  1  0  0  0  0
 15 22  1  0  0  0  0
 16 15  2  0  0  0  0
 17 12  2  0  0  0  0
 17 16  1  0  0  0  0
 18 10  1  0  0  0  0
 19 11  1  0  0  0  0
 23 16  1  0  0  0  0
 24 25  1  0  0  0  0
 25 30  1  0  0  0  0
 26 25  2  0  0  0  0
 26 31  1  0  0  0  0
 27 26  1  0  0  0  0
 28 29  1  0  0  0  0
 28 27  2  0  0  0  0
 29 24  2  0  0  0  0
 32 37  1  0  0  0  0
 32 33  1  0  0  0  0
 32 28  1  0  0  0  0
 34 33  1  0  0  0  0
 35 36  1  0  0  0  0
 35 34  1  0  0  0  0
 36 37  1  0  0  0  0
M  END
>  <minimizedAffinity>
-6.51120901

>  <minimizedRMSD>
0.655874729

$$$$
