
 OpenBabel03252513353D

 18 19  0  0  0  0  0  0  0  0999 V2000
   36.7110   29.9400   49.6730 C   0  0  0  0  0  0  0  0  0  0  0  0
   37.8920   30.3000   48.9960 C   0  0  0  0  0  0  0  0  0  0  0  0
   37.7810   30.6810   47.6510 C   0  0  0  0  0  0  0  0  0  0  0  0
   36.5390   30.6800   47.0730 N   0  0  0  0  0  0  0  0  0  0  0  0
   35.4410   30.3240   47.7740 C   0  0  0  0  0  0  0  0  0  0  0  0
   35.5180   29.9600   49.0500 N   0  0  0  0  0  0  0  0  0  0  0  0
   38.8170   30.2740   49.5200 H   0  0  0  0  0  0  0  0  0  0  0  0
   34.5100   30.3610   47.2110 H   0  0  0  0  0  0  0  0  0  0  0  0
   39.0030   31.0690   46.8980 C   0  0  0  0  0  0  0  0  0  0  0  0
   38.9010   30.4820   45.5260 C   0  0  0  0  0  0  0  0  0  0  0  0
   39.9330   30.9860   44.5670 C   0  0  0  0  0  0  0  0  0  0  0  0
   40.8270   32.0460   45.1430 C   0  0  0  0  0  0  0  0  0  0  0  0
   40.1050   33.1050   45.9220 C   0  0  0  0  0  0  0  0  0  0  0  0
   39.1160   32.5630   46.9100 C   0  0  0  0  0  0  0  0  0  0  0  0
   36.8240   29.5330   51.1120 C   0  0  0  0  0  0  0  0  0  0  0  0
   35.5660   29.1970   51.6010 F   0  0  0  0  0  0  0  0  0  0  0  0
   37.7370   28.5280   51.2080 F   0  0  0  0  0  0  0  0  0  0  0  0
   37.2440   30.6510   51.8260 F   0  0  0  0  0  0  0  0  0  0  0  0
  1 15  1  0  0  0  0
  2  7  1  0  0  0  0
  2  1  2  0  0  0  0
  3  2  1  0  0  0  0
  4  3  2  0  0  0  0
  4  5  1  0  0  0  0
  5  6  2  0  0  0  0
  6  1  1  0  0  0  0
  8  5  1  0  0  0  0
  9 14  1  0  0  0  0
  9  3  1  0  0  0  0
 10  9  1  0  0  0  0
 11 12  1  0  0  0  0
 11 10  1  0  0  0  0
 12 13  1  0  0  0  0
 13 14  1  0  0  0  0
 15 17  1  0  0  0  0
 15 16  1  0  0  0  0
 15 18  1  0  0  0  0
M  END
>  <minimizedAffinity>
-6.26563358

>  <minimizedRMSD>
2.60236073

$$$$
