
 OpenBabel03252512573D

 27 30  0  0  0  0  0  0  0  0999 V2000
   37.3020   30.1840   51.1990 C   0  0  0  0  0  0  0  0  0  0  0  0
   38.0420   30.9460   50.2890 C   0  0  0  0  0  0  0  0  0  0  0  0
   37.7380   30.8570   48.9400 C   0  0  0  0  0  0  0  0  0  0  0  0
   36.7230   30.0270   48.5360 N   0  0  0  0  0  0  0  0  0  0  0  0
   36.0390   29.3150   49.4570 C   0  0  0  0  0  0  0  0  0  0  0  0
   36.3150   29.3820   50.7790 N   0  0  0  0  0  0  0  0  0  0  0  0
   37.5930   30.3040   52.2340 H   0  0  0  0  0  0  0  0  0  0  0  0
   38.8320   31.5890   50.6180 H   0  0  0  0  0  0  0  0  0  0  0  0
   38.4550   31.6130   47.9170 C   0  0  0  0  0  0  0  0  0  0  0  0
   39.1670   32.7690   47.9790 N   0  0  0  0  0  0  0  0  0  0  0  0
   39.6300   33.0590   46.7940 O   0  0  0  0  0  0  0  0  0  0  0  0
   39.2340   32.1160   45.9720 C   0  0  0  0  0  0  0  0  0  0  0  0
   38.4950   31.1880   46.6260 N   0  0  0  0  0  0  0  0  0  0  0  0
   39.5070   32.0160   44.5600 N   0  0  0  0  0  0  0  0  0  0  0  0
   39.0000   32.8840   43.6790 N   0  0  0  0  0  0  0  0  0  0  0  0
   39.4130   32.5570   42.4420 C   0  0  0  0  0  0  0  0  0  0  0  0
   40.2200   31.4170   42.5990 C   0  0  0  0  0  0  0  0  0  0  0  0
   40.2640   31.0940   43.9550 C   0  0  0  0  0  0  0  0  0  0  0  0
   39.2100   33.0230   41.4800 H   0  0  0  0  0  0  0  0  0  0  0  0
   40.7340   30.8590   41.8340 H   0  0  0  0  0  0  0  0  0  0  0  0
   40.7730   30.2930   44.4810 H   0  0  0  0  0  0  0  0  0  0  0  0
   34.9510   28.4290   48.9930 C   0  0  0  0  0  0  0  0  0  0  0  0
   34.6770   28.8300   47.5370 C   0  0  0  0  0  0  0  0  0  0  0  0
   33.8930   27.6870   46.9390 C   0  0  0  0  0  0  0  0  0  0  0  0
   32.8480   27.1430   47.8730 C   0  0  0  0  0  0  0  0  0  0  0  0
   32.4960   28.0780   48.9900 C   0  0  0  0  0  0  0  0  0  0  0  0
   33.6810   28.5910   49.7520 C   0  0  0  0  0  0  0  0  0  0  0  0
  1  7  1  0  0  0  0
  2  8  1  0  0  0  0
  2  1  2  0  0  0  0
  3  2  1  0  0  0  0
  4  3  2  0  0  0  0
  4  5  1  0  0  0  0
  5  6  2  0  0  0  0
  6  1  1  0  0  0  0
  9 10  2  0  0  0  0
  9  3  1  0  0  0  0
 11 10  1  0  0  0  0
 12 13  2  0  0  0  0
 12 11  1  0  0  0  0
 13  9  1  0  0  0  0
 14 12  1  0  0  0  0
 15 14  1  0  0  0  0
 16 17  1  0  0  0  0
 16 15  2  0  0  0  0
 17 18  2  0  0  0  0
 18 21  1  0  0  0  0
 18 14  1  0  0  0  0
 19 16  1  0  0  0  0
 20 17  1  0  0  0  0
 22  5  1  0  0  0  0
 22 27  1  0  0  0  0
 23 22  1  0  0  0  0
 24 23  1  0  0  0  0
 24 25  1  0  0  0  0
 25 26  1  0  0  0  0
 26 27  1  0  0  0  0
M  END
>  <minimizedAffinity>
-6.83110189

>  <minimizedRMSD>
0.54525876

$$$$
