
 OpenBabel03252512543D

 20 22  0  0  0  0  0  0  0  0999 V2000
   38.0240   31.7860   48.9540 C   0  0  0  0  0  0  0  0  0  0  0  0
   38.5850   32.9880   49.2050 N   0  0  0  0  0  0  0  0  0  0  0  0
   39.2490   33.4030   48.1710 O   0  0  0  0  0  0  0  0  0  0  0  0
   39.1320   32.4820   47.2290 C   0  0  0  0  0  0  0  0  0  0  0  0
   38.3740   31.4660   47.6920 N   0  0  0  0  0  0  0  0  0  0  0  0
   36.7500   29.5660   51.7010 C   0  0  0  0  0  0  0  0  0  0  0  0
   37.6200   30.3860   50.9870 C   0  0  0  0  0  0  0  0  0  0  0  0
   37.1950   30.9170   49.7810 C   0  0  0  0  0  0  0  0  0  0  0  0
   35.9330   30.6160   49.3320 N   0  0  0  0  0  0  0  0  0  0  0  0
   35.1080   29.8120   50.0540 C   0  0  0  0  0  0  0  0  0  0  0  0
   35.5070   29.2860   51.2320 N   0  0  0  0  0  0  0  0  0  0  0  0
   37.0590   29.1380   52.6490 H   0  0  0  0  0  0  0  0  0  0  0  0
   38.6160   30.6200   51.3460 H   0  0  0  0  0  0  0  0  0  0  0  0
   34.1240   29.6320   49.6130 H   0  0  0  0  0  0  0  0  0  0  0  0
   39.7080   32.4860   45.8580 C   0  0  0  0  0  0  0  0  0  0  0  0
   38.6810   32.8200   44.8130 C   0  0  0  0  0  0  0  0  0  0  0  0
   39.3610   32.8390   43.4770 C   0  0  0  0  0  0  0  0  0  0  0  0
   40.0730   31.5800   43.1220 C   0  0  0  0  0  0  0  0  0  0  0  0
   40.8700   30.9630   44.2420 C   0  0  0  0  0  0  0  0  0  0  0  0
   40.1870   31.0830   45.5770 C   0  0  0  0  0  0  0  0  0  0  0  0
  1  2  2  0  0  0  0
  1  8  1  0  0  0  0
  3  2  1  0  0  0  0
  4  5  2  0  0  0  0
  4  3  1  0  0  0  0
  5  1  1  0  0  0  0
  6 12  1  0  0  0  0
  7 13  1  0  0  0  0
  7  6  2  0  0  0  0
  8  7  1  0  0  0  0
  9  8  2  0  0  0  0
  9 10  1  0  0  0  0
 10 11  2  0  0  0  0
 11  6  1  0  0  0  0
 14 10  1  0  0  0  0
 15  4  1  0  0  0  0
 16 15  1  0  0  0  0
 17 16  1  0  0  0  0
 18 17  1  0  0  0  0
 18 19  1  0  0  0  0
 19 20  1  0  0  0  0
 20 15  1  0  0  0  0
M  END
>  <minimizedAffinity>
-5.86301517

>  <minimizedRMSD>
1.60198748

$$$$
