
 OpenBabel03252513173D

 27 29  0  0  1  0  0  0  0  0999 V2000
   37.8340   31.1890   46.8070 N   0  0  0  0  0  0  0  0  0  0  0  0
   39.2270   31.5280   46.9520 C   0  0  0  0  0  0  0  0  0  0  0  0
   39.1530   32.8640   47.6450 C   0  0  0  0  0  0  0  0  0  0  0  0
   38.1010   32.6170   48.6880 C   0  0  0  0  0  0  0  0  0  0  0  0
   37.3460   31.4230   48.1560 C   0  0  2  0  0  0  0  0  0  0  0  0
   39.6320   31.7010   45.9430 H   0  0  0  0  0  0  0  0  0  0  0  0
   39.8330   30.7970   47.4840 H   0  0  0  0  0  0  0  0  0  0  0  0
   40.1160   33.0510   48.1550 H   0  0  0  0  0  0  0  0  0  0  0  0
   38.9480   33.6780   46.9490 H   0  0  0  0  0  0  0  0  0  0  0  0
   37.3790   33.4820   48.6200 H   0  0  0  0  0  0  0  0  0  0  0  0
   38.4870   32.5130   49.6990 H   0  0  0  0  0  0  0  0  0  0  0  0
   36.2550   31.5760   48.0770 H   0  0  0  0  0  0  0  0  0  0  0  0
   37.1350   30.7420   45.6410 C   0  0  0  0  0  0  0  0  0  0  0  0
   37.7810   30.7560   44.3870 C   0  0  0  0  0  0  0  0  0  0  0  0
   37.0340   30.3000   43.2710 C   0  0  0  0  0  0  0  0  0  0  0  0
   35.7590   29.8850   43.4840 N   0  0  0  0  0  0  0  0  0  0  0  0
   35.1830   29.8900   44.7060 C   0  0  0  0  0  0  0  0  0  0  0  0
   35.8650   30.3170   45.7880 N   0  0  0  0  0  0  0  0  0  0  0  0
   38.7850   31.0920   44.2740 H   0  0  0  0  0  0  0  0  0  0  0  0
   37.4800   30.2890   42.2850 H   0  0  0  0  0  0  0  0  0  0  0  0
   34.1760   29.5630   44.8800 H   0  0  0  0  0  0  0  0  0  0  0  0
   37.5780   30.2290   49.0460 C   0  0  0  0  0  0  0  0  0  0  0  0
   37.7980   30.7510   50.4500 C   0  0  0  0  0  0  0  0  0  0  0  0
   37.4090   29.7160   51.5070 C   0  0  0  0  0  0  0  0  0  0  0  0
   35.9220   29.4720   51.4860 C   0  0  0  0  0  0  0  0  0  0  0  0
   35.3940   29.6670   50.1050 C   0  0  0  0  0  0  0  0  0  0  0  0
   36.4100   29.2980   49.0460 C   0  0  0  0  0  0  0  0  0  0  0  0
  1  2  1  0  0  0  0
  1  5  1  0  0  0  0
  2  7  1  0  0  0  0
  2  3  1  0  0  0  0
  3  8  1  0  0  0  0
  3  4  1  0  0  0  0
  4 11  1  0  0  0  0
  5 12  1  6  0  0  0
  5  4  1  0  0  0  0
  5 22  1  0  0  0  0
  6  2  1  0  0  0  0
  9  3  1  0  0  0  0
 10  4  1  0  0  0  0
 13 18  1  0  0  0  0
 13  1  1  0  0  0  0
 14 13  2  0  0  0  0
 15 16  2  0  0  0  0
 15 14  1  0  0  0  0
 16 17  1  0  0  0  0
 17 21  1  0  0  0  0
 17 18  2  0  0  0  0
 19 14  1  0  0  0  0
 20 15  1  0  0  0  0
 22 27  1  0  0  0  0
 22 23  1  0  0  0  0
 23 24  1  0  0  0  0
 25 24  1  0  0  0  0
 26 25  1  0  0  0  0
 27 26  1  0  0  0  0
M  END
>  <minimizedAffinity>
-5.67390776

>  <minimizedRMSD>
3.8924098

$$$$
