
 OpenBabel03252510363D

 29 32  0  0  0  0  0  0  0  0999 V2000
   36.9200   31.2200   48.5640 C   0  0  0  0  0  0  0  0  0  0  0  0
   37.0950   32.0060   49.6930 C   0  0  0  0  0  0  0  0  0  0  0  0
   38.1610   32.9120   49.6660 C   0  0  0  0  0  0  0  0  0  0  0  0
   38.9920   33.0410   48.6220 N   0  0  0  0  0  0  0  0  0  0  0  0
   38.7710   32.2470   47.5460 C   0  0  0  0  0  0  0  0  0  0  0  0
   37.7510   31.3490   47.5170 N   0  0  0  0  0  0  0  0  0  0  0  0
   39.6310   32.3490   46.4080 N   0  0  0  0  0  0  0  0  0  0  0  0
   40.1050   33.3520   45.6450 C   0  0  0  0  0  0  0  0  0  0  0  0
   40.8870   32.8060   44.7000 N   0  0  0  0  0  0  0  0  0  0  0  0
   40.8810   31.4520   44.9020 C   0  0  0  0  0  0  0  0  0  0  0  0
   40.0920   31.1610   45.9760 N   0  0  0  0  0  0  0  0  0  0  0  0
   36.4340   31.9170   50.5500 H   0  0  0  0  0  0  0  0  0  0  0  0
   38.2690   33.5050   50.5570 H   0  0  0  0  0  0  0  0  0  0  0  0
   39.8140   34.3550   45.8800 H   0  0  0  0  0  0  0  0  0  0  0  0
   41.4220   30.7020   44.3040 H   0  0  0  0  0  0  0  0  0  0  0  0
   35.8610   29.1690   49.3290 C   0  0  0  0  0  0  0  0  0  0  0  0
   35.8550   30.2510   48.4740 C   0  0  0  0  0  0  0  0  0  0  0  0
   34.8080   30.3500   47.5580 C   0  0  0  0  0  0  0  0  0  0  0  0
   33.8480   29.3750   47.5560 N   0  0  0  0  0  0  0  0  0  0  0  0
   33.8870   28.3240   48.4130 C   0  0  0  0  0  0  0  0  0  0  0  0
   34.8950   28.2260   49.2990 N   0  0  0  0  0  0  0  0  0  0  0  0
   36.6400   29.0250   50.0650 H   0  0  0  0  0  0  0  0  0  0  0  0
   34.7770   31.1880   46.8750 H   0  0  0  0  0  0  0  0  0  0  0  0
   32.8180   27.2810   48.3780 C   0  0  0  0  0  0  0  0  0  0  0  0
   31.5440   27.8920   47.8340 C   0  0  0  0  0  0  0  0  0  0  0  0
   30.3410   27.0500   48.2070 C   0  0  0  0  0  0  0  0  0  0  0  0
   30.6950   25.6280   47.8580 C   0  0  0  0  0  0  0  0  0  0  0  0
   31.8870   25.5230   46.9340 C   0  0  0  0  0  0  0  0  0  0  0  0
   33.1440   26.1090   47.5130 C   0  0  0  0  0  0  0  0  0  0  0  0
  1  2  1  0  0  0  0
  2 12  1  0  0  0  0
  3  2  2  0  0  0  0
  3 13  1  0  0  0  0
  4  3  1  0  0  0  0
  5  4  2  0  0  0  0
  6  5  1  0  0  0  0
  6  1  2  0  0  0  0
  7  5  1  0  0  0  0
  8 14  1  0  0  0  0
  8  7  1  0  0  0  0
  9 10  1  0  0  0  0
  9  8  2  0  0  0  0
 10 11  2  0  0  0  0
 11  7  1  0  0  0  0
 15 10  1  0  0  0  0
 16 22  1  0  0  0  0
 17  1  1  0  0  0  0
 17 16  2  0  0  0  0
 18 17  1  0  0  0  0
 19 18  2  0  0  0  0
 19 20  1  0  0  0  0
 20 21  2  0  0  0  0
 21 16  1  0  0  0  0
 23 18  1  0  0  0  0
 24 20  1  0  0  0  0
 25 26  1  0  0  0  0
 25 24  1  0  0  0  0
 27 26  1  0  0  0  0
 28 29  1  0  0  0  0
 28 27  1  0  0  0  0
 29 24  1  0  0  0  0
M  END
>  <minimizedAffinity>
-6.53647852

>  <minimizedRMSD>
0.413492203

$$$$
