
 OpenBabel03252511523D

 26 29  0  0  0  0  0  0  0  0999 V2000
   37.5370   31.1840   48.2730 N   0  0  0  0  0  0  0  0  0  0  0  0
   38.5680   32.0610   48.2830 C   0  0  0  0  0  0  0  0  0  0  0  0
   38.8780   32.4700   47.0430 N   0  0  0  0  0  0  0  0  0  0  0  0
   38.0270   31.8400   46.1990 C   0  0  0  0  0  0  0  0  0  0  0  0
   37.8390   31.8350   44.8480 C   0  0  0  0  0  0  0  0  0  0  0  0
   36.8930   31.0990   44.2210 N   0  0  0  0  0  0  0  0  0  0  0  0
   36.1110   30.3410   45.0160 C   0  0  0  0  0  0  0  0  0  0  0  0
   36.2940   30.3440   46.3410 N   0  0  0  0  0  0  0  0  0  0  0  0
   37.2110   31.0510   47.0010 C   0  0  0  0  0  0  0  0  0  0  0  0
   39.1160   32.4310   49.1400 H   0  0  0  0  0  0  0  0  0  0  0  0
   35.3150   29.7060   44.6250 H   0  0  0  0  0  0  0  0  0  0  0  0
   35.6650   30.1020   49.3580 C   0  0  0  0  0  0  0  0  0  0  0  0
   36.9780   30.5760   49.4040 C   0  0  0  0  0  0  0  0  0  0  0  0
   37.6900   30.4270   50.5820 C   0  0  0  0  0  0  0  0  0  0  0  0
   37.0670   29.8220   51.6380 N   0  0  0  0  0  0  0  0  0  0  0  0
   35.7980   29.3750   51.5650 C   0  0  0  0  0  0  0  0  0  0  0  0
   35.1020   29.5150   50.4300 N   0  0  0  0  0  0  0  0  0  0  0  0
   35.1010   30.2170   48.4340 H   0  0  0  0  0  0  0  0  0  0  0  0
   38.7270   30.7830   50.6710 H   0  0  0  0  0  0  0  0  0  0  0  0
   35.3060   28.8970   52.4010 H   0  0  0  0  0  0  0  0  0  0  0  0
   38.7510   32.7070   44.0400 C   0  0  0  0  0  0  0  0  0  0  0  0
   38.2600   32.8790   42.6190 C   0  0  0  0  0  0  0  0  0  0  0  0
   39.3740   32.6170   41.6300 C   0  0  0  0  0  0  0  0  0  0  0  0
   39.7910   31.1580   41.8210 C   0  0  0  0  0  0  0  0  0  0  0  0
   40.3850   30.9790   43.1900 C   0  0  0  0  0  0  0  0  0  0  0  0
   40.1670   32.1820   44.0630 C   0  0  0  0  0  0  0  0  0  0  0  0
  1  2  1  0  0  0  0
  1 13  1  0  0  0  0
  2 10  1  0  0  0  0
  3  2  2  0  0  0  0
  4  9  1  0  0  0  0
  4  3  1  0  0  0  0
  5  4  2  0  0  0  0
  6  5  1  0  0  0  0
  6  7  2  0  0  0  0
  7  8  1  0  0  0  0
  8  9  2  0  0  0  0
  9  1  1  0  0  0  0
 11  7  1  0  0  0  0
 12 13  2  0  0  0  0
 12 17  1  0  0  0  0
 13 14  1  0  0  0  0
 14 19  1  0  0  0  0
 14 15  2  0  0  0  0
 16 15  1  0  0  0  0
 16 20  1  0  0  0  0
 17 16  2  0  0  0  0
 18 12  1  0  0  0  0
 21 26  1  0  0  0  0
 21  5  1  0  0  0  0
 22 21  1  0  0  0  0
 23 24  1  0  0  0  0
 23 22  1  0  0  0  0
 24 25  1  0  0  0  0
 25 26  1  0  0  0  0
M  END
>  <minimizedAffinity>
-5.66484451

>  <minimizedRMSD>
2.70565629

$$$$
