
 OpenBabel03252511353D

 27 29  0  0  0  0  0  0  0  0999 V2000
   36.6120   30.6510   46.6210 C   0  0  0  0  0  0  0  0  0  0  0  0
   35.3580   30.0350   46.5230 C   0  0  0  0  0  0  0  0  0  0  0  0
   34.7460   29.7320   45.3270 C   0  0  0  0  0  0  0  0  0  0  0  0
   35.3920   30.0480   44.1500 C   0  0  0  0  0  0  0  0  0  0  0  0
   36.6290   30.6540   44.2320 C   0  0  0  0  0  0  0  0  0  0  0  0
   37.2630   30.9680   45.4470 C   0  0  0  0  0  0  0  0  0  0  0  0
   34.8550   29.7900   47.4640 H   0  0  0  0  0  0  0  0  0  0  0  0
   33.7770   29.2570   45.3860 H   0  0  0  0  0  0  0  0  0  0  0  0
   34.9140   29.8110   43.2100 H   0  0  0  0  0  0  0  0  0  0  0  0
   37.0620   30.8680   43.2660 H   0  0  0  0  0  0  0  0  0  0  0  0
   37.4460   30.3290   50.1580 C   0  0  0  0  0  0  0  0  0  0  0  0
   38.2090   31.4590   50.4110 C   0  0  0  0  0  0  0  0  0  0  0  0
   38.4370   32.3460   49.3410 C   0  0  0  0  0  0  0  0  0  0  0  0
   37.8960   32.0330   48.1460 N   0  0  0  0  0  0  0  0  0  0  0  0
   37.1580   30.9180   47.9420 C   0  0  0  0  0  0  0  0  0  0  0  0
   36.9430   30.0800   48.9560 N   0  0  0  0  0  0  0  0  0  0  0  0
   38.6270   31.6760   51.3890 H   0  0  0  0  0  0  0  0  0  0  0  0
   39.0300   33.2510   49.4820 H   0  0  0  0  0  0  0  0  0  0  0  0
   37.1950   29.3900   51.3130 C   0  0  0  0  0  0  0  0  0  0  0  0
   35.8240   29.1630   51.4190 F   0  0  0  0  0  0  0  0  0  0  0  0
   37.9020   28.2580   51.1130 F   0  0  0  0  0  0  0  0  0  0  0  0
   37.5800   30.0500   52.4840 F   0  0  0  0  0  0  0  0  0  0  0  0
   38.5640   31.6140   45.4500 C   0  0  0  0  0  0  0  0  0  0  0  0
   39.7030   30.7670   44.9120 C   0  0  0  0  0  0  0  0  0  0  0  0
   40.8020   31.8340   44.8550 C   0  0  0  0  0  0  0  0  0  0  0  0
   40.0540   33.1400   44.5560 C   0  0  0  0  0  0  0  0  0  0  0  0
   38.5980   32.6920   44.3380 C   0  0  0  0  0  0  0  0  0  0  0  0
  1 15  1  0  0  0  0
  2  1  1  0  0  0  0
  2  7  1  0  0  0  0
  3  8  1  0  0  0  0
  3  2  2  0  0  0  0
  4  5  2  0  0  0  0
  4  3  1  0  0  0  0
  5  6  1  0  0  0  0
  6 23  1  0  0  0  0
  6  1  2  0  0  0  0
  9  4  1  0  0  0  0
 10  5  1  0  0  0  0
 11 12  1  0  0  0  0
 11 19  1  0  0  0  0
 12 17  1  0  0  0  0
 13 18  1  0  0  0  0
 13 12  2  0  0  0  0
 14 13  1  0  0  0  0
 15 14  2  0  0  0  0
 15 16  1  0  0  0  0
 16 11  2  0  0  0  0
 19 20  1  0  0  0  0
 19 22  1  0  0  0  0
 21 19  1  0  0  0  0
 24 23  1  0  0  0  0
 25 24  1  0  0  0  0
 26 25  1  0  0  0  0
 27 26  1  0  0  0  0
 27 23  1  0  0  0  0
M  END
>  <minimizedAffinity>
-6.75237656

>  <minimizedRMSD>
0.481588632

$$$$
