
 OpenBabel03252513583D

 24 26  0  0  1  0  0  0  0  0999 V2000
   36.6330   29.4440   49.3860 C   0  0  0  0  0  0  0  0  0  0  0  0
   36.7240   29.2410   50.4740 H   0  0  0  0  0  0  0  0  0  0  0  0
   36.9810   28.5870   48.7910 H   0  0  0  0  0  0  0  0  0  0  0  0
   37.9420   32.8780   49.4210 C   0  0  0  0  0  0  0  0  0  0  0  0
   38.7790   32.9160   48.2820 C   0  0  0  0  0  0  0  0  0  0  0  0
   38.8710   31.7480   47.5260 C   0  0  0  0  0  0  0  0  0  0  0  0
   38.1650   30.6470   47.9110 N   0  0  0  0  0  0  0  0  0  0  0  0
   37.3700   30.6600   49.0180 C   0  0  0  0  0  0  0  0  0  0  0  0
   37.2770   31.7810   49.7520 N   0  0  0  0  0  0  0  0  0  0  0  0
   37.9030   33.8130   49.9800 H   0  0  0  0  0  0  0  0  0  0  0  0
   39.3290   33.8030   47.9980 H   0  0  0  0  0  0  0  0  0  0  0  0
   39.4970   31.7280   46.6460 H   0  0  0  0  0  0  0  0  0  0  0  0
   35.1650   29.7090   49.1150 C   0  0  2  0  0  0  0  0  0  0  0  0
   34.1480   29.2560   50.0930 C   0  0  0  0  0  0  0  0  0  0  0  0
   34.3360   28.4750   48.8620 C   0  0  1  0  0  0  0  0  0  0  0  0
   34.9360   30.5320   48.3960 H   0  0  0  0  0  0  0  0  0  0  0  0
   33.3570   29.9860   50.2790 H   0  0  0  0  0  0  0  0  0  0  0  0
   34.5480   28.8400   51.0630 H   0  0  0  0  0  0  0  0  0  0  0  0
   34.8400   27.4770   49.0040 H   0  0  0  0  0  0  0  0  0  0  0  0
   33.3310   28.4590   47.7420 C   0  0  0  0  0  3  0  0  0  0  0  0
   32.0050   27.8360   48.1350 C   0  0  0  0  0  2  0  0  0  0  0  0
   32.1990   26.3590   48.0080 C   0  0  0  0  0  2  0  0  0  0  0  0
   33.6120   26.1580   47.4560 C   0  0  0  0  0  2  0  0  0  0  0  0
   33.7910   27.4580   46.7030 C   0  0  0  0  0  2  0  0  0  0  0  0
  1  2  1  0  0  0  0
  3  1  1  0  0  0  0
  4  9  1  0  0  0  0
  4 10  1  0  0  0  0
  5  4  2  0  0  0  0
  6  7  2  0  0  0  0
  6  5  1  0  0  0  0
  7  8  1  0  0  0  0
  8  1  1  0  0  0  0
  8  9  2  0  0  0  0
 11  5  1  0  0  0  0
 12  6  1  0  0  0  0
 13 16  1  6  0  0  0
 13  1  1  0  0  0  0
 13 14  1  0  0  0  0
 14 17  1  0  0  0  0
 14 18  1  0  0  0  0
 15 19  1  1  0  0  0
 15 13  1  0  0  0  0
 15 14  1  0  0  0  0
 20 21  1  0  0  0  0
 20 15  1  0  0  0  0
 22 21  1  0  0  0  0
 23 22  1  0  0  0  0
 24 23  1  0  0  0  0
 24 20  1  0  0  0  0
M  END
>  <minimizedAffinity>
-4.96627903

>  <minimizedRMSD>
1.2671572

$$$$
