
 OpenBabel03252513353D

 17 18  0  0  0  0  0  0  0  0999 V2000
   36.6500   29.8140   49.5250 C   0  0  0  0  0  0  0  0  0  0  0  0
   37.5430   30.5030   48.7020 C   0  0  0  0  0  0  0  0  0  0  0  0
   37.1520   30.7750   47.3880 C   0  0  0  0  0  0  0  0  0  0  0  0
   35.9330   30.3590   46.9840 N   0  0  0  0  0  0  0  0  0  0  0  0
   35.0880   29.6880   47.8160 C   0  0  0  0  0  0  0  0  0  0  0  0
   35.4580   29.4270   49.0730 N   0  0  0  0  0  0  0  0  0  0  0  0
   38.5090   30.8270   49.0380 H   0  0  0  0  0  0  0  0  0  0  0  0
   34.1100   29.3470   47.5120 H   0  0  0  0  0  0  0  0  0  0  0  0
   38.0190   31.5010   46.4220 C   0  0  0  0  0  0  0  0  0  0  0  0
   38.9770   30.5770   45.7000 C   0  0  0  0  0  0  0  0  0  0  0  0
   40.3210   31.2550   45.7580 C   0  0  0  0  0  0  0  0  0  0  0  0
   39.9960   32.7110   46.1200 C   0  0  0  0  0  0  0  0  0  0  0  0
   38.9290   32.4520   47.1840 C   0  0  0  0  0  0  0  0  0  0  0  0
   37.0760   29.5250   50.9380 C   0  0  0  0  0  0  0  0  0  0  0  0
   35.9480   29.3860   51.7400 F   0  0  0  0  0  0  0  0  0  0  0  0
   37.8670   28.4190   50.9330 F   0  0  0  0  0  0  0  0  0  0  0  0
   37.7750   30.6250   51.4000 F   0  0  0  0  0  0  0  0  0  0  0  0
  1 14  1  0  0  0  0
  2  7  1  0  0  0  0
  2  1  2  0  0  0  0
  3  2  1  0  0  0  0
  4  3  2  0  0  0  0
  4  5  1  0  0  0  0
  5  6  2  0  0  0  0
  6  1  1  0  0  0  0
  8  5  1  0  0  0  0
  9 13  1  0  0  0  0
  9  3  1  0  0  0  0
 10 11  1  0  0  0  0
 10  9  1  0  0  0  0
 11 12  1  0  0  0  0
 12 13  1  0  0  0  0
 14 17  1  0  0  0  0
 14 15  1  0  0  0  0
 16 14  1  0  0  0  0
M  END
>  <minimizedAffinity>
-5.78325844

>  <minimizedRMSD>
2.70977807

$$$$
