
 OpenBabel03252513153D

 41 44  0  0  0  0  0  0  0  0999 V2000
   37.1680   31.0190   46.2520 C   0  0  0  0  0  0  0  0  0  0  0  0
   36.1370   30.1850   46.7000 C   0  0  0  0  0  0  0  0  0  0  0  0
   35.7420   30.0770   47.9970 C   0  0  0  0  0  0  0  0  0  0  0  0
   36.3610   30.8090   48.9690 C   0  0  0  0  0  0  0  0  0  0  0  0
   37.3600   31.6290   48.6000 C   0  0  0  0  0  0  0  0  0  0  0  0
   37.9890   32.3730   49.5880 C   0  0  0  0  0  0  0  0  0  0  0  0
   39.0080   33.2260   49.3000 C   0  0  0  0  0  0  0  0  0  0  0  0
   39.4130   33.3390   47.9770 C   0  0  0  0  0  0  0  0  0  0  0  0
   38.7680   32.5890   47.0320 C   0  0  0  0  0  0  0  0  0  0  0  0
   37.7550   31.7350   47.2850 C   0  0  0  0  0  0  0  0  0  0  0  0
   35.6130   29.5820   45.9660 H   0  0  0  0  0  0  0  0  0  0  0  0
   34.9260   29.4020   48.2780 H   0  0  0  0  0  0  0  0  0  0  0  0
   37.7260   32.3360   50.6350 H   0  0  0  0  0  0  0  0  0  0  0  0
   39.5230   33.8260   50.0590 H   0  0  0  0  0  0  0  0  0  0  0  0
   40.2220   34.0110   47.7200 H   0  0  0  0  0  0  0  0  0  0  0  0
   39.1060   32.6970   45.9990 H   0  0  0  0  0  0  0  0  0  0  0  0
   37.5450   32.6440   43.0600 C   0  0  0  0  0  0  0  0  0  0  0  0
   38.1600   31.7120   42.2150 C   0  0  0  0  0  0  0  0  0  0  0  0
   38.4540   30.4890   42.7560 C   0  0  0  0  0  0  0  0  0  0  0  0
   38.1270   30.3190   44.0210 N   0  0  0  0  0  0  0  0  0  0  0  0
   37.5610   31.1150   44.8720 C   0  0  0  0  0  0  0  0  0  0  0  0
   37.2840   32.2970   44.3230 N   0  0  0  0  0  0  0  0  0  0  0  0
   37.2830   33.6520   42.6830 H   0  0  0  0  0  0  0  0  0  0  0  0
   39.0690   29.4500   42.0270 N   0  0  0  0  0  0  0  0  0  0  0  0
   40.2620   28.8230   42.4740 C   0  0  0  0  0  0  0  0  0  0  0  0
   41.1910   29.5720   42.9870 N   0  0  0  0  0  0  0  0  0  0  0  0
   40.4450   27.4120   42.3680 N   0  0  0  0  0  0  0  0  0  0  0  0
   42.0870   29.2820   43.3500 H   0  0  0  0  0  0  0  0  0  0  0  0
   38.6770   29.0770   41.1080 H   0  0  0  0  0  0  0  0  0  0  0  0
   41.3400   27.0070   41.9700 H   0  0  0  0  0  0  0  0  0  0  0  0
   39.8270   26.6090   42.6220 H   0  0  0  0  0  0  0  0  0  0  0  0
   38.4780   32.0220   40.8070 C   0  0  0  0  0  0  0  0  0  0  0  0
   38.6660   33.5240   40.6000 C   0  0  0  0  0  0  0  0  0  0  0  0
   37.3310   34.0170   40.0950 C   0  0  0  0  0  0  0  0  0  0  0  0
   36.6300   32.8490   39.4880 C   0  0  0  0  0  0  0  0  0  0  0  0
   37.3910   31.6170   39.8360 C   0  0  0  0  0  0  0  0  0  0  0  0
   35.9360   30.6730   50.2680 O   0  0  0  0  0  0  0  0  0  0  0  0
   36.4210   29.6190   51.0820 C   0  0  0  0  0  0  0  0  0  0  0  0
   37.2440   28.7270   50.4620 F   0  0  0  0  0  0  0  0  0  0  0  0
   37.1780   30.1960   52.0910 F   0  0  0  0  0  0  0  0  0  0  0  0
   35.3050   28.9790   51.6070 F   0  0  0  0  0  0  0  0  0  0  0  0
  1  2  2  0  0  0  0
  1 10  1  0  0  0  0
  2  3  1  0  0  0  0
  3 12  1  0  0  0  0
  3  4  2  0  0  0  0
  4 37  1  0  0  0  0
  5  4  1  0  0  0  0
  5  6  1  0  0  0  0
  6 13  1  0  0  0  0
  7  6  2  0  0  0  0
  7 14  1  0  0  0  0
  8  7  1  0  0  0  0
  9 10  1  0  0  0  0
  9  8  2  0  0  0  0
 10  5  2  0  0  0  0
 11  2  1  0  0  0  0
 15  8  1  0  0  0  0
 16  9  1  0  0  0  0
 17 22  1  0  0  0  0
 18 19  1  0  0  0  0
 18 17  2  0  0  0  0
 19 20  2  0  0  0  0
 20 21  1  0  0  0  0
 21  1  1  0  0  0  0
 22 21  2  0  0  0  0
 23 17  1  0  0  0  0
 24 25  1  0  0  0  0
 24 19  1  0  0  0  0
 25 26  2  0  0  0  0
 26 28  1  0  0  0  0
 27 25  1  0  0  0  0
 27 31  1  0  0  0  0
 29 24  1  0  0  0  0
 30 27  1  0  0  0  0
 32 18  1  0  0  0  0
 33 32  1  0  0  0  0
 34 33  1  0  0  0  0
 35 36  1  0  0  0  0
 35 34  1  0  0  0  0
 36 32  1  0  0  0  0
 37 38  1  0  0  0  0
 38 41  1  0  0  0  0
 38 40  1  0  0  0  0
 39 38  1  0  0  0  0
M  END
>  <minimizedAffinity>
-7.63223505

>  <minimizedRMSD>
1.53780794

$$$$
