
 OpenBabel03252512433D

 20 22  0  0  0  0  0  0  0  0999 V2000
   38.3530   31.0670   47.8140 C   0  0  0  0  0  0  0  0  0  0  0  0
   38.8510   32.3960   47.8450 C   0  0  0  0  0  0  0  0  0  0  0  0
   39.6040   32.6250   46.1780 S   0  0  0  0  0  0  0  0  0  0  0  0
   39.0990   30.8550   45.7390 C   0  0  0  0  0  0  0  0  0  0  0  0
   38.5860   30.4740   46.6560 N   0  0  0  0  0  0  0  0  0  0  0  0
   38.7620   33.0910   48.7370 H   0  0  0  0  0  0  0  0  0  0  0  0
   38.1310   30.8780   50.2670 C   0  0  0  0  0  0  0  0  0  0  0  0
   37.6740   30.5060   48.9890 C   0  0  0  0  0  0  0  0  0  0  0  0
   36.6090   29.6300   48.9270 C   0  0  0  0  0  0  0  0  0  0  0  0
   36.0660   29.1780   50.0870 N   0  0  0  0  0  0  0  0  0  0  0  0
   36.5200   29.5480   51.2900 C   0  0  0  0  0  0  0  0  0  0  0  0
   37.5460   30.3930   51.3660 N   0  0  0  0  0  0  0  0  0  0  0  0
   38.9560   31.5580   50.3510 H   0  0  0  0  0  0  0  0  0  0  0  0
   36.2480   29.3360   47.9500 H   0  0  0  0  0  0  0  0  0  0  0  0
   35.9390   29.0680   52.0650 H   0  0  0  0  0  0  0  0  0  0  0  0
   39.4020   30.2330   44.3800 C   0  0  0  0  0  0  0  0  0  0  0  0
   40.5050   31.0740   43.7910 C   0  0  0  0  0  0  0  0  0  0  0  0
   39.9750   31.6360   42.4850 C   0  0  0  0  0  0  0  0  0  0  0  0
   38.8300   30.6840   42.1440 C   0  0  0  0  0  0  0  0  0  0  0  0
   38.2160   30.3650   43.4670 C   0  0  0  0  0  0  0  0  0  0  0  0
  1  2  2  0  0  0  0
  1  8  1  0  0  0  0
  2  6  1  0  0  0  0
  3  2  1  0  0  0  0
  4  3  1  0  0  0  0
  4  5  2  0  0  0  0
  5  1  1  0  0  0  0
  7 13  1  0  0  0  0
  7 12  1  0  0  0  0
  8  7  2  0  0  0  0
  9  8  1  0  0  0  0
  9 10  2  0  0  0  0
 10 11  1  0  0  0  0
 11 12  2  0  0  0  0
 11 15  1  0  0  0  0
 14  9  1  0  0  0  0
 16  4  1  0  0  0  0
 17 16  1  0  0  0  0
 18 17  1  0  0  0  0
 19 18  1  0  0  0  0
 19 20  1  0  0  0  0
 20 16  1  0  0  0  0
M  END
>  <minimizedAffinity>
-5.24028158

>  <minimizedRMSD>
0.695000112

$$$$
