
 OpenBabel03252511023D

 28 30  0  0  0  0  0  0  0  0999 V2000
   37.2220   31.2780   48.4850 C   0  0  0  0  0  0  0  0  0  0  0  0
   37.6530   32.3350   49.3060 C   0  0  0  0  0  0  0  0  0  0  0  0
   38.6590   33.1520   48.8150 C   0  0  0  0  0  0  0  0  0  0  0  0
   39.1680   32.8700   47.5570 N   0  0  0  0  0  0  0  0  0  0  0  0
   38.7180   31.8540   46.8280 C   0  0  0  0  0  0  0  0  0  0  0  0
   37.7270   31.0220   47.2710 N   0  0  0  0  0  0  0  0  0  0  0  0
   37.2250   32.5120   50.2770 H   0  0  0  0  0  0  0  0  0  0  0  0
   39.0420   33.9800   49.3830 H   0  0  0  0  0  0  0  0  0  0  0  0
   39.2830   31.5880   45.4990 C   0  0  0  0  0  0  0  0  0  0  0  0
   40.1030   32.4750   44.8400 C   0  0  0  0  0  0  0  0  0  0  0  0
   40.4410   31.8900   43.6200 C   0  0  0  0  0  0  0  0  0  0  0  0
   39.7960   30.6710   43.6200 C   0  0  0  0  0  0  0  0  0  0  0  0
   39.1210   30.5210   44.7400 O   0  0  0  0  0  0  0  0  0  0  0  0
   40.4570   33.4640   45.1580 H   0  0  0  0  0  0  0  0  0  0  0  0
   41.0670   32.2700   42.8190 H   0  0  0  0  0  0  0  0  0  0  0  0
   39.8100   29.6400   42.5660 C   0  0  0  0  0  0  0  0  0  0  0  0
   39.3810   28.2790   43.0010 C   0  0  0  0  0  0  0  0  0  0  0  0
   39.8750   27.4070   41.8650 C   0  0  0  0  0  0  0  0  0  0  0  0
   40.9650   28.2170   41.1510 C   0  0  0  0  0  0  0  0  0  0  0  0
   41.2540   29.3700   42.1220 C   0  0  0  0  0  0  0  0  0  0  0  0
   36.1570   30.4240   49.0180 C   0  0  0  0  0  0  0  0  0  0  0  0
   34.9480   30.6600   48.7350 O   0  0  0  0  0  0  0  0  0  0  0  0
   36.4880   29.3540   49.8360 O   0  0  0  0  0  0  0  0  0  0  0  0
   36.5180   29.4510   51.2360 C   0  0  0  0  0  0  0  0  0  0  0  0
   37.6820   29.7700   51.9570 N   0  0  0  0  0  0  0  0  0  0  0  0
   35.3970   29.2210   51.7640 O   0  0  0  0  0  0  0  0  0  0  0  0
   38.2990   28.9320   52.1000 H   0  0  0  0  0  0  0  0  0  0  0  0
   38.3350   30.3860   52.4650 H   0  0  0  0  0  0  0  0  0  0  0  0
  1 21  1  0  0  0  0
  1  2  1  0  0  0  0
  2  7  1  0  0  0  0
  3  2  2  0  0  0  0
  3  8  1  0  0  0  0
  4  3  1  0  0  0  0
  5  6  1  0  0  0  0
  5  4  2  0  0  0  0
  6  1  2  0  0  0  0
  9  5  1  0  0  0  0
 10 14  1  0  0  0  0
 10  9  2  0  0  0  0
 11 12  2  0  0  0  0
 11 10  1  0  0  0  0
 12 13  1  0  0  0  0
 13  9  1  0  0  0  0
 15 11  1  0  0  0  0
 16 17  1  0  0  0  0
 16 12  1  0  0  0  0
 18 17  1  0  0  0  0
 19 18  1  0  0  0  0
 19 20  1  0  0  0  0
 20 16  1  0  0  0  0
 21 23  1  0  0  0  0
 22 21  2  0  0  0  0
 23 24  1  0  0  0  0
 24 26  2  0  0  0  0
 24 25  1  0  0  0  0
 25 27  1  0  0  0  0
 25 28  1  0  0  0  0
M  END
>  <minimizedAffinity>
-5.88384533

>  <minimizedRMSD>
2.79070783

$$$$
