
 OpenBabel03252514053D

 34 37  0  0  1  0  0  0  0  0999 V2000
   35.2940   29.2670   48.7700 C   0  0  2  0  0  0  0  0  0  0  0  0
   34.0960   29.1430   49.5920 C   0  0  0  0  0  0  0  0  0  0  0  0
   34.5780   27.9040   49.0500 C   0  0  1  0  0  0  0  0  0  0  0  0
   35.2980   29.5320   47.7090 H   0  0  0  0  0  0  0  0  0  0  0  0
   33.1320   29.5830   49.2550 H   0  0  0  0  0  0  0  0  0  0  0  0
   34.2180   29.3050   50.7030 H   0  0  0  0  0  0  0  0  0  0  0  0
   35.2430   27.1620   49.5000 H   0  0  0  0  0  0  0  0  0  0  0  0
   36.6300   29.3340   49.5300 C   0  0  0  0  0  0  0  0  0  0  0  0
   37.2080   28.4120   49.3380 H   0  0  0  0  0  0  0  0  0  0  0  0
   36.4280   29.3770   50.6180 H   0  0  0  0  0  0  0  0  0  0  0  0
   37.7450   32.8120   49.5410 C   0  0  0  0  0  0  0  0  0  0  0  0
   38.5730   32.8750   48.3990 C   0  0  0  0  0  0  0  0  0  0  0  0
   38.7310   31.6930   47.6380 C   0  0  0  0  0  0  0  0  0  0  0  0
   38.0760   30.5620   48.0500 N   0  0  0  0  0  0  0  0  0  0  0  0
   37.3030   30.5630   49.1420 C   0  0  0  0  0  0  0  0  0  0  0  0
   37.1440   31.6950   49.8800 N   0  0  0  0  0  0  0  0  0  0  0  0
   37.6940   33.7690   50.0470 H   0  0  0  0  0  0  0  0  0  0  0  0
   39.1180   33.7320   48.0190 H   0  0  0  0  0  0  0  0  0  0  0  0
   39.3500   31.6660   46.7520 H   0  0  0  0  0  0  0  0  0  0  0  0
   33.7620   27.3470   47.8980 C   0  0  0  0  0  0  0  0  0  0  0  0
   33.8910   26.0690   47.7520 O   0  0  0  0  0  0  0  0  0  0  0  0
   32.9310   28.0590   47.0420 O   0  0  0  0  0  0  0  0  0  0  0  0
   31.6030   28.2810   47.2790 C   0  0  0  0  0  0  0  0  0  0  0  0
   30.8430   27.7510   48.4400 C   0  0  0  0  0  0  0  0  0  0  0  0
   29.5320   28.0630   48.5330 C   0  0  0  0  0  0  0  0  0  0  0  0
   28.8940   28.8630   47.5690 C   0  0  0  0  0  0  0  0  0  0  0  0
   30.2560   29.2510   46.3590 S   0  0  0  0  0  0  0  0  0  0  0  0
   31.4000   27.1490   49.1320 H   0  0  0  0  0  0  0  0  0  0  0  0
   28.9360   27.7060   49.3560 H   0  0  0  0  0  0  0  0  0  0  0  0
   27.6120   29.3350   47.3940 C   0  0  0  0  0  3  0  0  0  0  0  0
   26.6070   28.2220   47.2380 C   0  0  0  0  0  2  0  0  0  0  0  0
   26.1690   27.9110   48.6220 C   0  0  0  0  0  2  0  0  0  0  0  0
   26.2360   29.2160   49.3650 C   0  0  0  0  0  2  0  0  0  0  0  0
   27.0330   30.1680   48.5110 C   0  0  0  0  0  2  0  0  0  0  0  0
  1  4  1  6  0  0  0
  1  3  1  0  0  0  0
  1  8  1  0  0  0  0
  1  2  1  0  0  0  0
  2  6  1  0  0  0  0
  3  7  1  1  0  0  0
  3  2  1  0  0  0  0
  5  2  1  0  0  0  0
  8 10  1  0  0  0  0
  9  8  1  0  0  0  0
 11 16  1  0  0  0  0
 11 17  1  0  0  0  0
 12 11  2  0  0  0  0
 13 14  2  0  0  0  0
 13 12  1  0  0  0  0
 14 15  1  0  0  0  0
 15  8  1  0  0  0  0
 15 16  2  0  0  0  0
 18 12  1  0  0  0  0
 19 13  1  0  0  0  0
 20  3  1  0  0  0  0
 21 20  2  0  0  0  0
 22 23  1  0  0  0  0
 22 20  1  0  0  0  0
 23 24  2  0  0  0  0
 24 25  1  0  0  0  0
 24 28  1  0  0  0  0
 25 29  1  0  0  0  0
 26 25  2  0  0  0  0
 27 23  1  0  0  0  0
 27 26  1  0  0  0  0
 30 26  1  0  0  0  0
 30 34  1  0  0  0  0
 31 30  1  0  0  0  0
 31 32  1  0  0  0  0
 32 33  1  0  0  0  0
 34 33  1  0  0  0  0
M  END
>  <minimizedAffinity>
-6.1339159

>  <minimizedRMSD>
1.93309963

$$$$
