
 OpenBabel03252513233D

 17 18  0  0  0  0  0  0  0  0999 V2000
   35.3980   29.1070   50.4620 C   0  0  0  0  0  0  0  0  0  0  0  0
   36.1930   30.0720   49.8330 C   0  0  0  0  0  0  0  0  0  0  0  0
   35.9970   30.2730   48.4590 C   0  0  0  0  0  0  0  0  0  0  0  0
   35.0460   29.5220   47.8090 N   0  0  0  0  0  0  0  0  0  0  0  0
   34.3020   28.6000   48.4590 C   0  0  0  0  0  0  0  0  0  0  0  0
   34.4870   28.4060   49.7770 N   0  0  0  0  0  0  0  0  0  0  0  0
   35.5460   28.9450   51.5340 H   0  0  0  0  0  0  0  0  0  0  0  0
   36.5760   31.0030   47.9050 H   0  0  0  0  0  0  0  0  0  0  0  0
   33.2870   27.8130   47.7180 C   0  0  0  0  0  0  0  0  0  0  0  0
   31.9990   27.6590   48.4880 C   0  0  0  0  0  0  0  0  0  0  0  0
   31.4510   26.2940   48.1190 C   0  0  0  0  0  0  0  0  0  0  0  0
   32.5620   25.5060   47.5050 C   0  0  0  0  0  0  0  0  0  0  0  0
   33.7670   26.4230   47.4380 C   0  0  0  0  0  0  0  0  0  0  0  0
   37.2190   30.8800   50.5440 C   0  0  0  0  0  0  0  0  0  0  0  0
   38.4760   30.7710   50.0190 F   0  0  0  0  0  0  0  0  0  0  0  0
   37.2870   30.5380   51.8670 F   0  0  0  0  0  0  0  0  0  0  0  0
   36.8740   32.2340   50.4560 F   0  0  0  0  0  0  0  0  0  0  0  0
  1  7  1  0  0  0  0
  2  1  1  0  0  0  0
  2 14  1  0  0  0  0
  3  2  2  0  0  0  0
  4  3  1  0  0  0  0
  4  5  2  0  0  0  0
  5  6  1  0  0  0  0
  6  1  2  0  0  0  0
  8  3  1  0  0  0  0
  9  5  1  0  0  0  0
  9 10  1  0  0  0  0
 11 10  1  0  0  0  0
 12 11  1  0  0  0  0
 13 12  1  0  0  0  0
 13  9  1  0  0  0  0
 14 16  1  0  0  0  0
 15 14  1  0  0  0  0
 17 14  1  0  0  0  0
M  END
>  <minimizedAffinity>
-5.27910233

>  <minimizedRMSD>
0.802691698

$$$$
