
 OpenBabel03252514053D

 34 37  0  0  1  0  0  0  0  0999 V2000
   35.4940   29.4130   48.7390 C   0  0  2  0  0  0  0  0  0  0  0  0
   34.3340   29.4790   49.6200 C   0  0  0  0  0  0  0  0  0  0  0  0
   34.6830   28.1540   49.1920 C   0  0  1  0  0  0  0  0  0  0  0  0
   35.4660   29.5670   47.6570 H   0  0  0  0  0  0  0  0  0  0  0  0
   33.3940   29.9650   49.2790 H   0  0  0  0  0  0  0  0  0  0  0  0
   34.5260   29.7430   50.7020 H   0  0  0  0  0  0  0  0  0  0  0  0
   35.3070   27.4070   49.6900 H   0  0  0  0  0  0  0  0  0  0  0  0
   36.8680   29.4400   49.4300 C   0  0  0  0  0  0  0  0  0  0  0  0
   37.4130   28.5060   49.2030 H   0  0  0  0  0  0  0  0  0  0  0  0
   36.7230   29.4800   50.5280 H   0  0  0  0  0  0  0  0  0  0  0  0
   38.1240   32.8700   49.4410 C   0  0  0  0  0  0  0  0  0  0  0  0
   38.8400   32.9410   48.2250 C   0  0  0  0  0  0  0  0  0  0  0  0
   38.8740   31.7810   47.4160 C   0  0  0  0  0  0  0  0  0  0  0  0
   38.2140   30.6630   47.8550 N   0  0  0  0  0  0  0  0  0  0  0  0
   37.5520   30.6550   49.0160 C   0  0  0  0  0  0  0  0  0  0  0  0
   37.5130   31.7660   49.8020 N   0  0  0  0  0  0  0  0  0  0  0  0
   38.1630   33.8100   49.9790 H   0  0  0  0  0  0  0  0  0  0  0  0
   39.3810   33.7890   47.8210 H   0  0  0  0  0  0  0  0  0  0  0  0
   39.4030   31.7610   46.4730 H   0  0  0  0  0  0  0  0  0  0  0  0
   33.7660   27.5560   48.1420 C   0  0  0  0  0  0  0  0  0  0  0  0
   34.1860   26.4220   47.6830 O   0  0  0  0  0  0  0  0  0  0  0  0
   32.5770   28.0940   47.6680 O   0  0  0  0  0  0  0  0  0  0  0  0
   31.3500   27.8280   48.2110 C   0  0  0  0  0  0  0  0  0  0  0  0
   30.9790   28.0500   49.6310 C   0  0  0  0  0  0  0  0  0  0  0  0
   29.7220   27.7380   50.0130 C   0  0  0  0  0  0  0  0  0  0  0  0
   28.7830   27.2190   49.1040 C   0  0  0  0  0  0  0  0  0  0  0  0
   29.7310   27.1360   47.5020 S   0  0  0  0  0  0  0  0  0  0  0  0
   31.7500   28.4500   50.2620 H   0  0  0  0  0  0  0  0  0  0  0  0
   29.4010   27.8820   51.0300 H   0  0  0  0  0  0  0  0  0  0  0  0
   27.4680   26.8150   49.1910 C   0  0  0  0  0  3  0  0  0  0  0  0
   26.9190   26.9440   50.5880 C   0  0  0  0  0  2  0  0  0  0  0  0
   26.3680   28.3210   50.6520 C   0  0  0  0  0  2  0  0  0  0  0  0
   25.8810   28.6210   49.2640 C   0  0  0  0  0  2  0  0  0  0  0  0
   26.4660   27.5700   48.3550 C   0  0  0  0  0  2  0  0  0  0  0  0
  1  4  1  6  0  0  0
  1  3  1  0  0  0  0
  1  8  1  0  0  0  0
  1  2  1  0  0  0  0
  2  6  1  0  0  0  0
  3  2  1  0  0  0  0
  3  7  1  1  0  0  0
  5  2  1  0  0  0  0
  8 10  1  0  0  0  0
  9  8  1  0  0  0  0
 11 16  1  0  0  0  0
 11 17  1  0  0  0  0
 12 11  2  0  0  0  0
 13 14  2  0  0  0  0
 13 12  1  0  0  0  0
 14 15  1  0  0  0  0
 15  8  1  0  0  0  0
 15 16  2  0  0  0  0
 18 12  1  0  0  0  0
 19 13  1  0  0  0  0
 20  3  1  0  0  0  0
 21 20  2  0  0  0  0
 22 20  1  0  0  0  0
 22 23  1  0  0  0  0
 23 24  2  0  0  0  0
 24 25  1  0  0  0  0
 24 28  1  0  0  0  0
 25 29  1  0  0  0  0
 26 30  1  0  0  0  0
 26 25  2  0  0  0  0
 27 23  1  0  0  0  0
 27 26  1  0  0  0  0
 30 31  1  0  0  0  0
 31 32  1  0  0  0  0
 33 32  1  0  0  0  0
 34 30  1  0  0  0  0
 34 33  1  0  0  0  0
M  END
>  <minimizedAffinity>
-6.10142326

>  <minimizedRMSD>
0.436804444

$$$$
