
 OpenBabel03252511583D

 33 36  0  0  0  0  0  0  0  0999 V2000
   36.3090   30.1750   47.8260 N   0  0  0  0  0  0  0  0  0  0  0  0
   35.0930   29.8090   47.3460 C   0  0  0  0  0  0  0  0  0  0  0  0
   34.7960   29.9020   46.0000 C   0  0  0  0  0  0  0  0  0  0  0  0
   35.8190   30.3860   45.2300 C   0  0  0  0  0  0  0  0  0  0  0  0
   35.5880   30.4900   43.9770 O   0  0  0  0  0  0  0  0  0  0  0  0
   37.0580   30.7690   45.6500 N   0  0  0  0  0  0  0  0  0  0  0  0
   37.2420   30.6360   46.9800 C   0  0  0  0  0  0  0  0  0  0  0  0
   38.3600   30.9680   47.4420 O   0  0  0  0  0  0  0  0  0  0  0  0
   34.3330   29.4330   48.0300 H   0  0  0  0  0  0  0  0  0  0  0  0
   33.8580   29.6300   45.5670 H   0  0  0  0  0  0  0  0  0  0  0  0
   37.6960   30.7150   49.6430 C   0  0  0  0  0  0  0  0  0  0  0  0
   36.5410   30.0550   49.1970 C   0  0  0  0  0  0  0  0  0  0  0  0
   35.7720   29.3610   50.1250 C   0  0  0  0  0  0  0  0  0  0  0  0
   36.1650   29.3440   51.4250 N   0  0  0  0  0  0  0  0  0  0  0  0
   37.2930   29.9930   51.8350 C   0  0  0  0  0  0  0  0  0  0  0  0
   38.0560   30.6800   50.9280 N   0  0  0  0  0  0  0  0  0  0  0  0
   38.4560   31.3260   49.1790 H   0  0  0  0  0  0  0  0  0  0  0  0
   34.9070   28.8800   49.7230 H   0  0  0  0  0  0  0  0  0  0  0  0
   37.4150   29.8520   52.8890 H   0  0  0  0  0  0  0  0  0  0  0  0
   38.0110   31.2510   44.7450 C   0  0  0  0  0  0  0  0  0  0  0  0
   38.2310   32.5620   44.4070 C   0  0  0  0  0  0  0  0  0  0  0  0
   39.1820   32.9610   43.5140 C   0  0  0  0  0  0  0  0  0  0  0  0
   39.9730   32.0140   42.9080 C   0  0  0  0  0  0  0  0  0  0  0  0
   39.7420   30.6930   43.2570 C   0  0  0  0  0  0  0  0  0  0  0  0
   38.7920   30.3190   44.1490 N   0  0  0  0  0  0  0  0  0  0  0  0
   37.5970   33.3020   44.8940 H   0  0  0  0  0  0  0  0  0  0  0  0
   39.3450   33.9960   43.2550 H   0  0  0  0  0  0  0  0  0  0  0  0
   40.7450   32.2700   42.1890 H   0  0  0  0  0  0  0  0  0  0  0  0
   40.5660   29.6170   42.6370 C   0  0  0  0  0  0  0  0  0  0  0  0
   39.8180   28.3250   42.4810 C   0  0  0  0  0  0  0  0  0  0  0  0
   40.3460   27.7020   41.1990 C   0  0  0  0  0  0  0  0  0  0  0  0
   41.5140   28.5770   40.7920 C   0  0  0  0  0  0  0  0  0  0  0  0
   41.0490   29.9500   41.2520 C   0  0  0  0  0  0  0  0  0  0  0  0
  1 12  1  0  0  0  0
  2  1  1  0  0  0  0
  2  9  1  0  0  0  0
  3  2  2  0  0  0  0
  4  6  1  0  0  0  0
  4  3  1  0  0  0  0
  5  4  2  0  0  0  0
  6  7  1  0  0  0  0
  7  8  2  0  0  0  0
  7  1  1  0  0  0  0
 10  3  1  0  0  0  0
 11 16  1  0  0  0  0
 12 11  2  0  0  0  0
 12 13  1  0  0  0  0
 13 14  2  0  0  0  0
 14 15  1  0  0  0  0
 15 19  1  0  0  0  0
 16 15  2  0  0  0  0
 17 11  1  0  0  0  0
 18 13  1  0  0  0  0
 20  6  1  0  0  0  0
 21 20  1  0  0  0  0
 21 26  1  0  0  0  0
 22 21  2  0  0  0  0
 23 24  2  0  0  0  0
 23 22  1  0  0  0  0
 24 25  1  0  0  0  0
 25 20  2  0  0  0  0
 27 22  1  0  0  0  0
 28 23  1  0  0  0  0
 29 24  1  0  0  0  0
 30 29  1  0  0  0  0
 31 30  1  0  0  0  0
 32 31  1  0  0  0  0
 32 33  1  0  0  0  0
 33 29  1  0  0  0  0
M  END
>  <minimizedAffinity>
-6.12823391

>  <minimizedRMSD>
0.40630883

$$$$
