
 OpenBabel03252512233D

 25 27  0  0  0  0  0  0  0  0999 V2000
   35.0140   29.4120   48.6170 C   0  0  0  0  0  0  0  0  0  0  0  0
   34.4880   28.2020   49.1260 C   0  0  0  0  0  0  0  0  0  0  0  0
   33.3650   27.7270   48.5210 C   0  0  0  0  0  0  0  0  0  0  0  0
   32.8260   28.4100   47.5000 C   0  0  0  0  0  0  0  0  0  0  0  0
   33.8890   29.8520   47.2790 S   0  0  0  0  0  0  0  0  0  0  0  0
   35.0030   27.7300   49.9560 H   0  0  0  0  0  0  0  0  0  0  0  0
   32.8900   26.8080   48.8420 H   0  0  0  0  0  0  0  0  0  0  0  0
   37.7160   30.5610   50.8530 C   0  0  0  0  0  0  0  0  0  0  0  0
   38.4520   31.4280   49.9980 C   0  0  0  0  0  0  0  0  0  0  0  0
   38.0020   31.5970   48.6790 C   0  0  0  0  0  0  0  0  0  0  0  0
   36.8850   30.9230   48.2820 N   0  0  0  0  0  0  0  0  0  0  0  0
   36.2190   30.1150   49.1140 C   0  0  0  0  0  0  0  0  0  0  0  0
   36.6090   29.9150   50.3970 N   0  0  0  0  0  0  0  0  0  0  0  0
   38.0050   30.3850   51.8780 H   0  0  0  0  0  0  0  0  0  0  0  0
   39.3330   31.9290   50.3940 H   0  0  0  0  0  0  0  0  0  0  0  0
   38.5440   32.2470   48.0210 H   0  0  0  0  0  0  0  0  0  0  0  0
   31.6480   28.1300   46.6940 C   0  0  0  0  0  0  0  0  0  0  0  0
   31.1810   26.8330   46.6480 C   0  0  0  0  0  0  0  0  0  0  0  0
   31.6790   26.0460   47.2000 H   0  0  0  0  0  0  0  0  0  0  0  0
   30.0530   26.5340   45.8810 C   0  0  0  0  0  0  0  0  0  0  0  0
   29.4790   27.5940   45.2110 C   0  0  0  0  0  0  0  0  0  0  0  0
   28.5920   27.3620   44.6080 H   0  0  0  0  0  0  0  0  0  0  0  0
   29.9190   28.9010   45.2340 C   0  0  0  0  0  0  0  0  0  0  0  0
   29.4150   29.6800   44.6800 H   0  0  0  0  0  0  0  0  0  0  0  0
   31.0480   29.1620   46.0100 C   0  0  0  0  0  0  0  0  0  0  0  0
  1 12  1  0  0  0  0
  1  2  2  0  0  0  0
  2  6  1  0  0  0  0
  3  7  1  0  0  0  0
  3  2  1  0  0  0  0
  4  3  2  0  0  0  0
  5  4  1  0  0  0  0
  5  1  1  0  0  0  0
  8 14  1  0  0  0  0
  9 15  1  0  0  0  0
  9  8  2  0  0  0  0
 10  9  1  0  0  0  0
 11 10  2  0  0  0  0
 11 12  1  0  0  0  0
 12 13  2  0  0  0  0
 13  8  1  0  0  0  0
 16 10  1  0  0  0  0
 17  4  1  0  0  0  0
 18 17  1  0  0  0  0
 18 19  1  0  0  0  0
 20 18  2  0  0  0  0
 21 23  2  0  0  0  0
 21 20  1  0  0  0  0
 22 21  1  0  0  0  0
 23 25  1  0  0  0  0
 24 23  1  0  0  0  0
 25 17  2  0  0  0  0
M  END
>  <minimizedAffinity>
-4.42972231

>  <minimizedRMSD>
0.472909659

$$$$
