
 OpenBabel03252513583D

 28 30  0  0  1  0  0  0  0  0999 V2000
   35.3790   29.4500   49.1380 C   0  0  2  0  0  0  0  0  0  0  0  0
   34.3560   29.6100   50.1900 C   0  0  0  0  0  0  0  0  0  0  0  0
   34.5160   28.2740   49.5810 C   0  0  1  0  0  0  0  0  0  0  0  0
   35.1650   29.8700   48.1130 H   0  0  0  0  0  0  0  0  0  0  0  0
   33.4890   30.2450   49.9440 H   0  0  0  0  0  0  0  0  0  0  0  0
   34.6800   29.7440   51.2530 H   0  0  0  0  0  0  0  0  0  0  0  0
   35.0000   27.4890   50.2100 H   0  0  0  0  0  0  0  0  0  0  0  0
   33.5300   27.7320   48.6050 C   0  0  0  0  0  0  0  0  0  0  0  0
   34.0290   26.9970   47.5280 C   0  0  0  0  0  0  0  0  0  0  0  0
   35.0830   26.8090   47.3770 H   0  0  0  0  0  0  0  0  0  0  0  0
   33.1220   26.4860   46.6120 C   0  0  0  0  0  3  0  0  0  0  0  0
   31.7820   26.7190   46.7940 C   0  0  0  0  0  0  0  0  0  0  0  0
   31.0170   26.3490   46.1150 H   0  0  0  0  0  0  0  0  0  0  0  0
   31.2570   27.4490   47.8580 C   0  0  0  0  0  0  0  0  0  0  0  0
   30.1960   27.6220   47.9860 H   0  0  0  0  0  0  0  0  0  0  0  0
   32.1730   27.9590   48.7750 C   0  0  0  0  0  3  0  0  0  0  0  0
   36.8370   29.3180   49.4940 C   0  0  0  0  0  0  0  0  0  0  0  0
   37.2460   28.4250   48.9620 H   0  0  0  0  0  0  0  0  0  0  0  0
   36.9420   29.1550   50.5840 H   0  0  0  0  0  0  0  0  0  0  0  0
   38.1830   32.7390   49.4810 C   0  0  0  0  0  0  0  0  0  0  0  0
   38.8070   32.8210   48.2190 C   0  0  0  0  0  0  0  0  0  0  0  0
   38.7550   31.7020   47.3920 C   0  0  0  0  0  0  0  0  0  0  0  0
   38.1030   30.5890   47.8550 N   0  0  0  0  0  0  0  0  0  0  0  0
   37.5200   30.5490   49.0660 C   0  0  0  0  0  0  0  0  0  0  0  0
   37.5700   31.6350   49.8670 N   0  0  0  0  0  0  0  0  0  0  0  0
   38.2790   33.6610   50.0450 H   0  0  0  0  0  0  0  0  0  0  0  0
   39.3310   33.6950   47.8290 H   0  0  0  0  0  0  0  0  0  0  0  0
   39.2140   31.7120   46.4210 H   0  0  0  0  0  0  0  0  0  0  0  0
  1  4  1  6  0  0  0
  1 17  1  0  0  0  0
  1  3  1  0  0  0  0
  1  2  1  0  0  0  0
  2  6  1  0  0  0  0
  3  2  1  0  0  0  0
  3  7  1  1  0  0  0
  5  2  1  0  0  0  0
  8 16  1  0  0  0  0
  8  3  1  0  0  0  0
  9  8  2  0  0  0  0
 10  9  1  0  0  0  0
 11 12  2  0  0  0  0
 11  9  1  0  0  0  0
 12 14  1  0  0  0  0
 13 12  1  0  0  0  0
 14 15  1  0  0  0  0
 14 16  2  0  0  0  0
 17 19  1  0  0  0  0
 18 17  1  0  0  0  0
 20 25  1  0  0  0  0
 20 26  1  0  0  0  0
 21 20  2  0  0  0  0
 22 23  2  0  0  0  0
 22 21  1  0  0  0  0
 23 24  1  0  0  0  0
 24 17  1  0  0  0  0
 24 25  2  0  0  0  0
 27 21  1  0  0  0  0
 28 22  1  0  0  0  0
M  END
>  <minimizedAffinity>
-5.19935513

>  <minimizedRMSD>
0.763974786

$$$$
