
 OpenBabel03252513593D

 28 30  0  0  1  0  0  0  0  0999 V2000
   35.4210   29.4350   49.1060 C   0  0  2  0  0  0  0  0  0  0  0  0
   34.3660   29.6680   50.1120 C   0  0  0  0  0  0  0  0  0  0  0  0
   34.5340   28.2950   49.5930 C   0  0  1  0  0  0  0  0  0  0  0  0
   35.2430   29.7900   48.0490 H   0  0  0  0  0  0  0  0  0  0  0  0
   33.5120   30.2910   49.7980 H   0  0  0  0  0  0  0  0  0  0  0  0
   34.6560   29.8670   51.1740 H   0  0  0  0  0  0  0  0  0  0  0  0
   34.9910   27.5480   50.2860 H   0  0  0  0  0  0  0  0  0  0  0  0
   33.5760   27.6980   48.6230 C   0  0  0  0  0  0  0  0  0  0  0  0
   32.2180   27.9490   48.8230 C   0  0  0  0  0  0  0  0  0  0  0  0
   31.8390   28.5480   49.6400 H   0  0  0  0  0  0  0  0  0  0  0  0
   31.3140   27.3990   47.9260 C   0  0  0  0  0  3  0  0  0  0  0  0
   31.7830   26.6370   46.8850 C   0  0  0  0  0  0  0  0  0  0  0  0
   31.1310   26.1770   46.1460 H   0  0  0  0  0  0  0  0  0  0  0  0
   33.1310   26.3710   46.6610 C   0  0  0  0  0  0  0  0  0  0  0  0
   33.4820   25.7670   45.8340 H   0  0  0  0  0  0  0  0  0  0  0  0
   34.0330   26.9260   47.5650 C   0  0  0  0  0  3  0  0  0  0  0  0
   36.8660   29.3170   49.5170 C   0  0  0  0  0  0  0  0  0  0  0  0
   37.2850   28.3900   49.0550 H   0  0  0  0  0  0  0  0  0  0  0  0
   36.9340   29.2220   50.6180 H   0  0  0  0  0  0  0  0  0  0  0  0
   38.3640   32.6720   49.3930 C   0  0  0  0  0  0  0  0  0  0  0  0
   38.8960   32.7250   48.0880 C   0  0  0  0  0  0  0  0  0  0  0  0
   38.7320   31.6090   47.2710 C   0  0  0  0  0  0  0  0  0  0  0  0
   38.0650   30.5280   47.7840 N   0  0  0  0  0  0  0  0  0  0  0  0
   37.5710   30.5150   49.0360 C   0  0  0  0  0  0  0  0  0  0  0  0
   37.7310   31.5970   49.8270 N   0  0  0  0  0  0  0  0  0  0  0  0
   38.5450   33.5880   49.9460 H   0  0  0  0  0  0  0  0  0  0  0  0
   39.4300   33.5730   47.6570 H   0  0  0  0  0  0  0  0  0  0  0  0
   39.1170   31.5990   46.2690 H   0  0  0  0  0  0  0  0  0  0  0  0
  1  4  1  6  0  0  0
  1 17  1  0  0  0  0
  1  3  1  0  0  0  0
  1  2  1  0  0  0  0
  2  6  1  0  0  0  0
  3  2  1  0  0  0  0
  3  7  1  1  0  0  0
  5  2  1  0  0  0  0
  8  9  1  0  0  0  0
  8  3  1  0  0  0  0
  9 10  1  0  0  0  0
 11  9  2  0  0  0  0
 12 11  1  0  0  0  0
 13 12  1  0  0  0  0
 14 12  2  0  0  0  0
 14 16  1  0  0  0  0
 15 14  1  0  0  0  0
 16  8  2  0  0  0  0
 17 19  1  0  0  0  0
 18 17  1  0  0  0  0
 20 25  1  0  0  0  0
 20 26  1  0  0  0  0
 21 20  2  0  0  0  0
 22 23  2  0  0  0  0
 22 21  1  0  0  0  0
 23 24  1  0  0  0  0
 24 17  1  0  0  0  0
 24 25  2  0  0  0  0
 27 21  1  0  0  0  0
 28 22  1  0  0  0  0
M  END
>  <minimizedAffinity>
-5.22171402

>  <minimizedRMSD>
0.877646983

$$$$
