
 OpenBabel03252513583D

 28 30  0  0  1  0  0  0  0  0999 V2000
   35.4070   29.4500   49.1490 C   0  0  2  0  0  0  0  0  0  0  0  0
   34.3800   29.6210   50.1960 C   0  0  0  0  0  0  0  0  0  0  0  0
   34.5320   28.2810   49.5910 C   0  0  1  0  0  0  0  0  0  0  0  0
   35.2010   29.8680   48.1210 H   0  0  0  0  0  0  0  0  0  0  0  0
   33.5190   30.2610   49.9430 H   0  0  0  0  0  0  0  0  0  0  0  0
   34.6990   29.7550   51.2600 H   0  0  0  0  0  0  0  0  0  0  0  0
   35.0070   27.4950   50.2250 H   0  0  0  0  0  0  0  0  0  0  0  0
   33.5470   27.7440   48.6130 C   0  0  0  0  0  0  0  0  0  0  0  0
   34.0460   27.0100   47.5350 C   0  0  0  0  0  0  0  0  0  0  0  0
   35.1000   26.8190   47.3840 H   0  0  0  0  0  0  0  0  0  0  0  0
   33.1410   26.5030   46.6150 C   0  0  0  0  0  3  0  0  0  0  0  0
   31.8000   26.7390   46.7960 C   0  0  0  0  0  0  0  0  0  0  0  0
   31.0360   26.3730   46.1150 H   0  0  0  0  0  0  0  0  0  0  0  0
   31.2740   27.4680   47.8610 C   0  0  0  0  0  0  0  0  0  0  0  0
   30.2140   27.6430   47.9860 H   0  0  0  0  0  0  0  0  0  0  0  0
   32.1900   27.9740   48.7800 C   0  0  0  0  0  3  0  0  0  0  0  0
   36.8620   29.3070   49.5120 C   0  0  0  0  0  0  0  0  0  0  0  0
   37.2560   28.3860   49.0190 H   0  0  0  0  0  0  0  0  0  0  0  0
   36.9630   29.1890   50.6080 H   0  0  0  0  0  0  0  0  0  0  0  0
   38.3530   32.6660   49.3960 C   0  0  0  0  0  0  0  0  0  0  0  0
   38.8880   32.7220   48.0920 C   0  0  0  0  0  0  0  0  0  0  0  0
   38.7280   31.6070   47.2730 C   0  0  0  0  0  0  0  0  0  0  0  0
   38.0620   30.5240   47.7840 N   0  0  0  0  0  0  0  0  0  0  0  0
   37.5660   30.5080   49.0340 C   0  0  0  0  0  0  0  0  0  0  0  0
   37.7210   31.5890   49.8270 N   0  0  0  0  0  0  0  0  0  0  0  0
   38.5300   33.5820   49.9500 H   0  0  0  0  0  0  0  0  0  0  0  0
   39.4210   33.5720   47.6640 H   0  0  0  0  0  0  0  0  0  0  0  0
   39.1160   31.5980   46.2720 H   0  0  0  0  0  0  0  0  0  0  0  0
  1  4  1  6  0  0  0
  1 17  1  0  0  0  0
  1  3  1  0  0  0  0
  1  2  1  0  0  0  0
  2  6  1  0  0  0  0
  3  2  1  0  0  0  0
  3  7  1  1  0  0  0
  5  2  1  0  0  0  0
  8 16  1  0  0  0  0
  8  3  1  0  0  0  0
  9  8  2  0  0  0  0
 10  9  1  0  0  0  0
 11 12  2  0  0  0  0
 11  9  1  0  0  0  0
 12 14  1  0  0  0  0
 13 12  1  0  0  0  0
 14 15  1  0  0  0  0
 14 16  2  0  0  0  0
 17 19  1  0  0  0  0
 18 17  1  0  0  0  0
 20 25  1  0  0  0  0
 20 26  1  0  0  0  0
 21 20  2  0  0  0  0
 22 23  2  0  0  0  0
 22 21  1  0  0  0  0
 23 24  1  0  0  0  0
 24 17  1  0  0  0  0
 24 25  2  0  0  0  0
 27 21  1  0  0  0  0
 28 22  1  0  0  0  0
M  END
>  <minimizedAffinity>
-5.19540596

>  <minimizedRMSD>
0.866600513

$$$$
