
 OpenBabel03252512353D

 42 45  0  0  1  0  0  0  0  0999 V2000
   31.9000   27.8610   47.0070 C   0  0  2  0  0  0  0  0  0  0  0  0
   32.0870   26.7930   46.7290 H   0  0  0  0  0  0  0  0  0  0  0  0
   35.2140   29.5330   48.6800 C   0  0  0  0  0  0  0  0  0  0  0  0
   34.8150   28.3330   49.2910 C   0  0  0  0  0  0  0  0  0  0  0  0
   33.7160   27.7320   48.7920 C   0  0  0  0  0  0  0  0  0  0  0  0
   33.0950   28.2960   47.7830 C   0  0  0  0  0  0  0  0  0  0  0  0
   34.0070   29.8230   47.3720 S   0  0  0  0  0  0  0  0  0  0  0  0
   35.4190   27.9550   50.1340 H   0  0  0  0  0  0  0  0  0  0  0  0
   33.3310   26.7980   49.2020 H   0  0  0  0  0  0  0  0  0  0  0  0
   38.0820   30.8940   50.5440 C   0  0  0  0  0  0  0  0  0  0  0  0
   38.6050   31.8490   49.6480 C   0  0  0  0  0  0  0  0  0  0  0  0
   37.9630   32.0190   48.4240 C   0  0  0  0  0  0  0  0  0  0  0  0
   36.8710   31.2600   48.1530 N   0  0  0  0  0  0  0  0  0  0  0  0
   36.4150   30.3630   49.0440 C   0  0  0  0  0  0  0  0  0  0  0  0
   36.9810   30.1270   50.2730 N   0  0  0  0  0  0  0  0  0  0  0  0
   38.5820   30.7640   51.4940 H   0  0  0  0  0  0  0  0  0  0  0  0
   39.4810   32.3990   49.9640 H   0  0  0  0  0  0  0  0  0  0  0  0
   38.3620   32.7500   47.7350 H   0  0  0  0  0  0  0  0  0  0  0  0
   31.7190   28.7010   45.8460 C   0  0  0  0  0  0  0  0  0  0  0  0
   31.2070   29.6710   46.1070 H   0  0  0  0  0  0  0  0  0  0  0  0
   31.0310   28.2230   45.0910 H   0  0  0  0  0  0  0  0  0  0  0  0
   32.6870   28.9820   45.4140 H   0  0  0  0  0  0  0  0  0  0  0  0
   30.7240   27.7880   47.9740 C   0  0  0  0  0  0  0  0  0  0  0  0
   31.0580   27.9500   49.0250 H   0  0  0  0  0  0  0  0  0  0  0  0
   30.0800   28.6640   47.7450 H   0  0  0  0  0  0  0  0  0  0  0  0
   30.0160   26.6420   47.8800 O   0  0  0  0  0  0  0  0  0  0  0  0
   29.2590   26.3310   46.7680 C   0  0  0  0  0  0  0  0  0  0  0  0
   29.0020   25.2540   45.9470 C   0  0  0  0  0  0  0  0  0  0  0  0
   28.1030   25.7190   45.0050 C   0  0  0  0  0  0  0  0  0  0  0  0
   27.8470   27.0370   45.2770 C   0  0  0  0  0  0  0  0  0  0  0  0
   28.5640   27.3370   46.3330 O   0  0  0  0  0  0  0  0  0  0  0  0
   29.5160   24.3340   46.1880 H   0  0  0  0  0  0  0  0  0  0  0  0
   27.7560   25.0240   44.2440 H   0  0  0  0  0  0  0  0  0  0  0  0
   26.9340   27.8460   44.4730 C   0  0  0  0  0  0  0  0  0  0  0  0
   26.9990   29.2000   44.3820 C   0  0  0  0  0  0  0  0  0  0  0  0
   27.8020   29.6590   44.9640 H   0  0  0  0  0  0  0  0  0  0  0  0
   26.1150   29.9310   43.6110 C   0  0  0  0  0  0  0  0  0  0  0  0
   25.1120   29.3060   42.8880 C   0  0  0  0  0  0  0  0  0  0  0  0
   24.4910   29.9890   42.3280 H   0  0  0  0  0  0  0  0  0  0  0  0
   25.0310   27.9280   42.9690 C   0  0  0  0  0  0  0  0  0  0  0  0
   24.2340   27.4870   42.3890 H   0  0  0  0  0  0  0  0  0  0  0  0
   25.9260   27.2170   43.7470 C   0  0  0  0  0  0  0  0  0  0  0  0
  1  2  1  6  0  0  0
  1  6  1  0  0  0  0
  1 23  1  0  0  0  0
  3 14  1  0  0  0  0
  3  4  2  0  0  0  0
  4  8  1  0  0  0  0
  5  9  1  0  0  0  0
  5  4  1  0  0  0  0
  6  5  2  0  0  0  0
  7  6  1  0  0  0  0
  7  3  1  0  0  0  0
 10 16  1  0  0  0  0
 11 17  1  0  0  0  0
 11 10  2  0  0  0  0
 12 11  1  0  0  0  0
 13 12  2  0  0  0  0
 13 14  1  0  0  0  0
 14 15  2  0  0  0  0
 15 10  1  0  0  0  0
 18 12  1  0  0  0  0
 19 20  1  0  0  0  0
 19  1  1  0  0  0  0
 21 19  1  0  0  0  0
 22 19  1  0  0  0  0
 23 24  1  0  0  0  0
 25 23  1  0  0  0  0
 26 23  1  0  0  0  0
 27 26  1  0  0  0  0
 28 32  1  0  0  0  0
 28 27  2  0  0  0  0
 29 30  2  0  0  0  0
 29 28  1  0  0  0  0
 30 31  1  0  0  0  0
 31 27  1  0  0  0  0
 33 29  1  0  0  0  0
 34 30  1  0  0  0  0
 35 34  1  0  0  0  0
 35 36  1  0  0  0  0
 37 35  2  0  0  0  0
 38 40  2  0  0  0  0
 38 37  1  0  0  0  0
 39 38  1  0  0  0  0
 40 42  1  0  0  0  0
 41 40  1  0  0  0  0
 42 34  2  0  0  0  0
M  END
>  <minimizedAffinity>
-5.27340031

>  <minimizedRMSD>
0.359639704

$$$$
