
 OpenBabel03252512183D

 40 44  0  0  0  0  0  0  0  0999 V2000
   32.2050   30.0590   46.1040 C   0  0  0  0  0  0  0  0  0  0  0  0
   31.8480   28.7100   46.1280 C   0  0  0  0  0  0  0  0  0  0  0  0
   32.7550   27.8040   46.6960 C   0  0  0  0  0  0  0  0  0  0  0  0
   33.9310   28.2600   47.1980 N   0  0  0  0  0  0  0  0  0  0  0  0
   34.2460   29.5920   47.1570 C   0  0  0  0  0  0  0  0  0  0  0  0
   33.3950   30.4700   46.6200 N   0  0  0  0  0  0  0  0  0  0  0  0
   31.5550   30.8130   45.6810 H   0  0  0  0  0  0  0  0  0  0  0  0
   30.9090   28.3820   45.7220 H   0  0  0  0  0  0  0  0  0  0  0  0
   35.5270   29.9880   47.7180 C   0  0  0  0  0  0  0  0  0  0  0  0
   36.5610   30.5400   46.9730 C   0  0  0  0  0  0  0  0  0  0  0  0
   37.6030   30.7950   47.7720 N   0  0  0  0  0  0  0  0  0  0  0  0
   37.2720   30.4220   49.0230 C   0  0  0  0  0  0  0  0  0  0  0  0
   37.9810   30.4700   50.2200 C   0  0  0  0  0  0  0  0  0  0  0  0
   37.3680   30.0040   51.3740 C   0  0  0  0  0  0  0  0  0  0  0  0
   36.0870   29.5110   51.3170 C   0  0  0  0  0  0  0  0  0  0  0  0
   35.3460   29.4490   50.1350 C   0  0  0  0  0  0  0  0  0  0  0  0
   35.9810   29.9170   49.0050 C   0  0  0  0  0  0  0  0  0  0  0  0
   36.5330   30.7390   45.8910 H   0  0  0  0  0  0  0  0  0  0  0  0
   38.5020   31.2090   47.4610 H   0  0  0  0  0  0  0  0  0  0  0  0
   38.9940   30.8610   50.2580 H   0  0  0  0  0  0  0  0  0  0  0  0
   37.9120   30.0360   52.3160 H   0  0  0  0  0  0  0  0  0  0  0  0
   35.5790   29.1400   52.1970 H   0  0  0  0  0  0  0  0  0  0  0  0
   34.3430   29.0530   50.1360 H   0  0  0  0  0  0  0  0  0  0  0  0
   32.4260   26.3870   46.7440 C   0  0  0  0  0  0  0  0  0  0  0  0
   33.2200   25.5390   47.4640 C   0  0  0  0  0  0  0  0  0  0  0  0
   32.8400   24.2170   47.4560 C   0  0  0  0  0  0  0  0  0  0  0  0
   31.7510   23.7760   46.7810 N   0  0  0  0  0  0  0  0  0  0  0  0
   30.9840   24.6410   46.0760 C   0  0  0  0  0  0  0  0  0  0  0  0
   31.3650   25.9380   46.0900 N   0  0  0  0  0  0  0  0  0  0  0  0
   34.1020   25.8410   48.0220 H   0  0  0  0  0  0  0  0  0  0  0  0
   33.3950   23.4370   47.9950 H   0  0  0  0  0  0  0  0  0  0  0  0
   29.7910   24.2510   45.3190 C   0  0  0  0  0  0  0  0  0  0  0  0
   29.0740   25.2360   44.6680 C   0  0  0  0  0  0  0  0  0  0  0  0
   29.3460   26.2800   44.6870 H   0  0  0  0  0  0  0  0  0  0  0  0
   27.9440   24.8650   43.9510 C   0  0  0  0  0  0  0  0  0  0  0  0
   27.5800   23.5340   43.9130 C   0  0  0  0  0  0  0  0  0  0  0  0
   26.7040   23.1380   43.3750 H   0  0  0  0  0  0  0  0  0  0  0  0
   28.2850   22.5300   44.5590 C   0  0  0  0  0  0  0  0  0  0  0  0
   28.0260   21.4900   44.5470 H   0  0  0  0  0  0  0  0  0  0  0  0
   29.4110   22.9060   45.2730 C   0  0  0  0  0  0  0  0  0  0  0  0
  1  2  2  0  0  0  0
  1  6  1  0  0  0  0
  2  3  1  0  0  0  0
  3 24  1  0  0  0  0
  3  4  2  0  0  0  0
  5  4  1  0  0  0  0
  5  9  1  0  0  0  0
  6  5  2  0  0  0  0
  7  1  1  0  0  0  0
  8  2  1  0  0  0  0
  9 17  1  0  0  0  0
 10  9  2  0  0  0  0
 10 11  1  0  0  0  0
 11 12  1  0  0  0  0
 12 13  1  0  0  0  0
 13 20  1  0  0  0  0
 13 14  2  0  0  0  0
 14 21  1  0  0  0  0
 15 14  1  0  0  0  0
 15 22  1  0  0  0  0
 16 23  1  0  0  0  0
 16 15  2  0  0  0  0
 17 12  2  0  0  0  0
 17 16  1  0  0  0  0
 18 10  1  0  0  0  0
 19 11  1  0  0  0  0
 24 25  1  0  0  0  0
 25 30  1  0  0  0  0
 26 25  2  0  0  0  0
 26 31  1  0  0  0  0
 27 26  1  0  0  0  0
 28 29  1  0  0  0  0
 28 27  2  0  0  0  0
 29 24  2  0  0  0  0
 32 28  1  0  0  0  0
 33 34  1  0  0  0  0
 33 32  2  0  0  0  0
 35 33  1  0  0  0  0
 36 35  2  0  0  0  0
 36 38  1  0  0  0  0
 37 36  1  0  0  0  0
 38 40  2  0  0  0  0
 39 38  1  0  0  0  0
 40 32  1  0  0  0  0
M  END
>  <minimizedAffinity>
-6.39929438

>  <minimizedRMSD>
0.708691895

$$$$
