
 OpenBabel03252514053D

 38 41  0  0  1  0  0  0  0  0999 V2000
   35.2410   29.1330   48.5130 C   0  0  2  0  0  0  0  0  0  0  0  0
   33.9860   29.4220   49.1960 C   0  0  0  0  0  0  0  0  0  0  0  0
   34.2820   28.0230   49.0600 C   0  0  1  0  0  0  0  0  0  0  0  0
   35.3980   29.1410   47.4230 H   0  0  0  0  0  0  0  0  0  0  0  0
   33.1140   29.8880   48.6500 H   0  0  0  0  0  0  0  0  0  0  0  0
   34.0650   29.8900   50.2200 H   0  0  0  0  0  0  0  0  0  0  0  0
   34.7670   27.3610   49.7770 H   0  0  0  0  0  0  0  0  0  0  0  0
   36.5170   29.2010   49.3680 C   0  0  0  0  0  0  0  0  0  0  0  0
   36.2380   29.1270   50.4220 H   0  0  0  0  0  0  0  0  0  0  0  0
   37.1580   28.3140   49.1540 H   0  0  0  0  0  0  0  0  0  0  0  0
   37.5530   32.6950   49.6060 C   0  0  0  0  0  0  0  0  0  0  0  0
   38.4450   32.8280   48.5300 C   0  0  0  0  0  0  0  0  0  0  0  0
   38.6770   31.6900   47.7260 C   0  0  0  0  0  0  0  0  0  0  0  0
   38.0220   30.5260   48.0410 N   0  0  0  0  0  0  0  0  0  0  0  0
   37.1790   30.4630   49.0870 C   0  0  0  0  0  0  0  0  0  0  0  0
   36.9550   31.5530   49.8600 N   0  0  0  0  0  0  0  0  0  0  0  0
   37.4570   33.6270   50.1450 H   0  0  0  0  0  0  0  0  0  0  0  0
   39.0080   33.6720   48.1870 H   0  0  0  0  0  0  0  0  0  0  0  0
   39.3320   31.6460   46.8700 H   0  0  0  0  0  0  0  0  0  0  0  0
   33.4670   27.2890   48.0120 C   0  0  0  0  0  0  0  0  0  0  0  0
   33.8660   26.0800   47.8070 O   0  0  0  0  0  0  0  0  0  0  0  0
   32.3790   27.7920   47.3010 O   0  0  0  0  0  0  0  0  0  0  0  0
   31.1530   28.0360   47.8590 C   0  0  0  0  0  0  0  0  0  0  0  0
   30.7340   27.6150   49.2160 C   0  0  0  0  0  0  0  0  0  0  0  0
   29.4870   27.9370   49.6240 C   0  0  0  0  0  0  0  0  0  0  0  0
   28.6060   28.6510   48.7900 C   0  0  0  0  0  0  0  0  0  0  0  0
   29.5920   28.9220   47.2520 S   0  0  0  0  0  0  0  0  0  0  0  0
   31.4520   27.0740   49.8040 H   0  0  0  0  0  0  0  0  0  0  0  0
   29.0960   27.6730   50.5910 H   0  0  0  0  0  0  0  0  0  0  0  0
   27.3370   29.1110   48.9000 C   0  0  0  0  0  0  0  0  0  0  0  0
   27.0300   30.4320   48.6470 C   0  0  0  0  0  0  0  0  0  0  0  0
   27.7640   31.1750   48.3490 H   0  0  0  0  0  0  0  0  0  0  0  0
   25.7110   30.8880   48.7660 C   0  0  0  0  0  3  0  0  0  0  0  0
   24.7090   29.9870   49.1450 C   0  0  0  0  0  0  0  0  0  0  0  0
   23.6730   30.3340   49.2430 H   0  0  0  0  0  0  0  0  0  0  0  0
   24.9990   28.6460   49.4060 C   0  0  0  0  0  0  0  0  0  0  0  0
   24.2160   27.9650   49.6980 H   0  0  0  0  0  0  0  0  0  0  0  0
   26.3350   28.2420   49.2730 C   0  0  0  0  0  3  0  0  0  0  0  0
  1  4  1  6  0  0  0
  1  3  1  0  0  0  0
  1  2  1  0  0  0  0
  1  8  1  0  0  0  0
  2  6  1  0  0  0  0
  3  2  1  0  0  0  0
  3  7  1  1  0  0  0
  5  2  1  0  0  0  0
  8  9  1  0  0  0  0
 10  8  1  0  0  0  0
 11 16  1  0  0  0  0
 11 17  1  0  0  0  0
 12 11  2  0  0  0  0
 13 14  2  0  0  0  0
 13 12  1  0  0  0  0
 14 15  1  0  0  0  0
 15  8  1  0  0  0  0
 15 16  2  0  0  0  0
 18 12  1  0  0  0  0
 19 13  1  0  0  0  0
 20  3  1  0  0  0  0
 21 20  2  0  0  0  0
 22 23  1  0  0  0  0
 22 20  1  0  0  0  0
 23 24  2  0  0  0  0
 24 25  1  0  0  0  0
 24 28  1  0  0  0  0
 25 29  1  0  0  0  0
 26 30  1  0  0  0  0
 26 25  2  0  0  0  0
 27 23  1  0  0  0  0
 27 26  1  0  0  0  0
 30 38  1  0  0  0  0
 31 33  1  0  0  0  0
 31 30  2  0  0  0  0
 32 31  1  0  0  0  0
 33 34  2  0  0  0  0
 34 35  1  0  0  0  0
 34 36  1  0  0  0  0
 36 37  1  0  0  0  0
 38 36  2  0  0  0  0
M  END
>  <minimizedAffinity>
-6.77886534

>  <minimizedRMSD>
1.92977393

$$$$
