
 OpenBabel03252513493D

 25 26  0  0  0  0  0  0  0  0999 V2000
   36.8710   29.6380   49.1150 C   0  0  0  0  0  0  0  0  0  0  0  0
   37.7760   30.4390   48.3480 C   0  0  0  0  0  0  0  0  0  0  0  0
   37.3520   30.9230   47.1260 C   0  0  0  0  0  0  0  0  0  0  0  0
   36.1060   30.6150   46.7230 N   0  0  0  0  0  0  0  0  0  0  0  0
   35.2610   29.8550   47.4600 C   0  0  0  0  0  0  0  0  0  0  0  0
   35.6450   29.3740   48.6440 N   0  0  0  0  0  0  0  0  0  0  0  0
   38.7520   30.6630   48.6980 H   0  0  0  0  0  0  0  0  0  0  0  0
   38.1740   31.7450   46.2560 C   0  0  0  0  0  0  0  0  0  0  0  0
   39.3210   32.2940   46.7840 C   0  0  0  0  0  0  0  0  0  0  0  0
   39.6790   32.1710   47.8080 H   0  0  0  0  0  0  0  0  0  0  0  0
   40.1330   33.0850   45.9840 C   0  0  0  0  0  0  0  0  0  0  0  0
   39.8300   33.3510   44.6450 C   0  0  0  0  0  0  0  0  0  0  0  0
   40.4610   33.9670   44.0170 H   0  0  0  0  0  0  0  0  0  0  0  0
   38.6810   32.7870   44.1550 C   0  0  0  0  0  0  0  0  0  0  0  0
   38.3910   32.9570   43.1230 H   0  0  0  0  0  0  0  0  0  0  0  0
   37.8690   32.0010   44.9430 C   0  0  0  0  0  0  0  0  0  0  0  0
   33.9210   29.6150   46.8580 C   0  0  0  0  0  0  0  0  0  0  0  0
   34.0570   28.9470   45.6400 F   0  0  0  0  0  0  0  0  0  0  0  0
   33.1880   28.7780   47.6570 F   0  0  0  0  0  0  0  0  0  0  0  0
   33.2060   30.7890   46.6830 F   0  0  0  0  0  0  0  0  0  0  0  0
   37.3040   29.1650   50.3260 O   0  0  0  0  0  0  0  0  0  0  0  0
   37.1060   29.7900   51.5530 C   0  0  0  0  0  0  0  0  0  0  0  0
   37.9620   29.3200   52.5410 F   0  0  0  0  0  0  0  0  0  0  0  0
   37.1280   31.1540   51.5030 F   0  0  0  0  0  0  0  0  0  0  0  0
   35.8090   29.4270   51.9500 F   0  0  0  0  0  0  0  0  0  0  0  0
  1 21  1  0  0  0  0
  2  7  1  0  0  0  0
  2  1  2  0  0  0  0
  3  2  1  0  0  0  0
  4  3  2  0  0  0  0
  4  5  1  0  0  0  0
  5  6  2  0  0  0  0
  6  1  1  0  0  0  0
  8  9  1  0  0  0  0
  8  3  1  0  0  0  0
  9 10  1  0  0  0  0
 11  9  2  0  0  0  0
 12 11  1  0  0  0  0
 13 12  1  0  0  0  0
 14 12  2  0  0  0  0
 14 16  1  0  0  0  0
 15 14  1  0  0  0  0
 16  8  2  0  0  0  0
 17  5  1  0  0  0  0
 17 19  1  0  0  0  0
 18 17  1  0  0  0  0
 20 17  1  0  0  0  0
 21 22  1  0  0  0  0
 22 25  1  0  0  0  0
 22 23  1  0  0  0  0
 24 22  1  0  0  0  0
M  END
>  <minimizedAffinity>
-6.37159348

>  <minimizedRMSD>
4.76128769

$$$$
