
 OpenBabel03252512433D

 24 26  0  0  0  0  0  0  0  0999 V2000
   38.3650   31.0780   47.8180 C   0  0  0  0  0  0  0  0  0  0  0  0
   38.8160   32.4340   47.8410 C   0  0  0  0  0  0  0  0  0  0  0  0
   39.6000   32.6600   46.1800 S   0  0  0  0  0  0  0  0  0  0  0  0
   39.1710   30.8710   45.7630 C   0  0  0  0  0  0  0  0  0  0  0  0
   38.6530   30.4980   46.6810 N   0  0  0  0  0  0  0  0  0  0  0  0
   38.6960   33.1400   48.6850 H   0  0  0  0  0  0  0  0  0  0  0  0
   38.1220   30.8740   50.2720 C   0  0  0  0  0  0  0  0  0  0  0  0
   37.6800   30.5200   48.9820 C   0  0  0  0  0  0  0  0  0  0  0  0
   36.6020   29.6490   48.9030 C   0  0  0  0  0  0  0  0  0  0  0  0
   36.0340   29.1850   50.0410 N   0  0  0  0  0  0  0  0  0  0  0  0
   36.4820   29.5430   51.2510 C   0  0  0  0  0  0  0  0  0  0  0  0
   37.5270   30.3890   51.3670 N   0  0  0  0  0  0  0  0  0  0  0  0
   38.9530   31.5450   50.4210 H   0  0  0  0  0  0  0  0  0  0  0  0
   36.2480   29.3660   47.9290 H   0  0  0  0  0  0  0  0  0  0  0  0
   35.8920   29.0630   52.0270 H   0  0  0  0  0  0  0  0  0  0  0  0
   39.5430   30.2700   44.4100 C   0  0  0  0  0  0  0  0  0  0  0  0
   38.8390   29.1690   44.0430 C   0  0  0  0  0  0  0  0  0  0  0  0
   38.0780   28.7810   44.6960 H   0  0  0  0  0  0  0  0  0  0  0  0
   39.1460   28.6100   42.8460 C   0  0  0  0  0  0  0  0  0  0  0  0
   40.1430   29.1670   42.0540 C   0  0  0  0  0  0  0  0  0  0  0  0
   40.3580   28.6830   41.0920 H   0  0  0  0  0  0  0  0  0  0  0  0
   40.8310   30.2870   42.4690 C   0  0  0  0  0  0  0  0  0  0  0  0
   41.6070   30.7260   41.8610 H   0  0  0  0  0  0  0  0  0  0  0  0
   40.5410   30.8880   43.6970 C   0  0  0  0  0  0  0  0  0  0  0  0
  1  2  2  0  0  0  0
  1  8  1  0  0  0  0
  2  6  1  0  0  0  0
  3  2  1  0  0  0  0
  4  3  1  0  0  0  0
  4  5  2  0  0  0  0
  5  1  1  0  0  0  0
  7 13  1  0  0  0  0
  7 12  1  0  0  0  0
  8  7  2  0  0  0  0
  9  8  1  0  0  0  0
  9 10  2  0  0  0  0
 10 11  1  0  0  0  0
 11 12  2  0  0  0  0
 11 15  1  0  0  0  0
 14  9  1  0  0  0  0
 16  4  1  0  0  0  0
 17 16  1  0  0  0  0
 17 18  1  0  0  0  0
 19 17  2  0  0  0  0
 20 22  2  0  0  0  0
 20 19  1  0  0  0  0
 21 20  1  0  0  0  0
 22 24  1  0  0  0  0
 23 22  1  0  0  0  0
 24 16  2  0  0  0  0
M  END
>  <minimizedAffinity>
-5.49422407

>  <minimizedRMSD>
0.215279609

$$$$
