
 OpenBabel03252513583D

 28 30  0  0  1  0  0  0  0  0999 V2000
   35.4050   29.4410   49.1220 C   0  0  2  0  0  0  0  0  0  0  0  0
   34.3710   29.6530   50.1540 C   0  0  0  0  0  0  0  0  0  0  0  0
   34.5220   28.2920   49.5980 C   0  0  1  0  0  0  0  0  0  0  0  0
   35.2090   29.8230   48.0790 H   0  0  0  0  0  0  0  0  0  0  0  0
   33.5150   30.2880   49.8730 H   0  0  0  0  0  0  0  0  0  0  0  0
   34.6830   29.8230   51.2150 H   0  0  0  0  0  0  0  0  0  0  0  0
   34.9880   27.5260   50.2630 H   0  0  0  0  0  0  0  0  0  0  0  0
   33.5420   27.7260   48.6320 C   0  0  0  0  0  0  0  0  0  0  0  0
   34.0460   26.9580   47.5800 C   0  0  0  0  0  0  0  0  0  0  0  0
   35.1000   26.7620   47.4410 H   0  0  0  0  0  0  0  0  0  0  0  0
   33.1450   26.4240   46.6720 C   0  0  0  0  0  3  0  0  0  0  0  0
   31.8040   26.6650   46.8370 C   0  0  0  0  0  0  0  0  0  0  0  0
   31.0430   26.2780   46.1640 H   0  0  0  0  0  0  0  0  0  0  0  0
   31.2730   27.4270   47.8770 C   0  0  0  0  0  0  0  0  0  0  0  0
   30.2130   27.6070   47.9910 H   0  0  0  0  0  0  0  0  0  0  0  0
   32.1840   27.9610   48.7850 C   0  0  0  0  0  3  0  0  0  0  0  0
   36.8570   29.3040   49.5010 C   0  0  0  0  0  0  0  0  0  0  0  0
   37.2600   28.3840   49.0150 H   0  0  0  0  0  0  0  0  0  0  0  0
   36.9460   29.1890   50.5990 H   0  0  0  0  0  0  0  0  0  0  0  0
   38.3450   32.6650   49.3960 C   0  0  0  0  0  0  0  0  0  0  0  0
   38.8850   32.7230   48.0950 C   0  0  0  0  0  0  0  0  0  0  0  0
   38.7290   31.6090   47.2730 C   0  0  0  0  0  0  0  0  0  0  0  0
   38.0630   30.5240   47.7800 N   0  0  0  0  0  0  0  0  0  0  0  0
   37.5610   30.5060   49.0280 C   0  0  0  0  0  0  0  0  0  0  0  0
   37.7130   31.5870   49.8230 N   0  0  0  0  0  0  0  0  0  0  0  0
   38.5190   33.5800   49.9520 H   0  0  0  0  0  0  0  0  0  0  0  0
   39.4190   33.5740   47.6690 H   0  0  0  0  0  0  0  0  0  0  0  0
   39.1210   31.6020   46.2740 H   0  0  0  0  0  0  0  0  0  0  0  0
  1  4  1  6  0  0  0
  1 17  1  0  0  0  0
  1  3  1  0  0  0  0
  1  2  1  0  0  0  0
  2  6  1  0  0  0  0
  3  2  1  0  0  0  0
  3  7  1  1  0  0  0
  5  2  1  0  0  0  0
  8 16  1  0  0  0  0
  8  3  1  0  0  0  0
  9  8  2  0  0  0  0
 10  9  1  0  0  0  0
 11 12  2  0  0  0  0
 11  9  1  0  0  0  0
 12 14  1  0  0  0  0
 13 12  1  0  0  0  0
 14 15  1  0  0  0  0
 14 16  2  0  0  0  0
 17 19  1  0  0  0  0
 18 17  1  0  0  0  0
 20 25  1  0  0  0  0
 20 26  1  0  0  0  0
 21 20  2  0  0  0  0
 22 23  2  0  0  0  0
 22 21  1  0  0  0  0
 23 24  1  0  0  0  0
 24 17  1  0  0  0  0
 24 25  2  0  0  0  0
 27 21  1  0  0  0  0
 28 22  1  0  0  0  0
M  END
>  <minimizedAffinity>
-5.19955683

>  <minimizedRMSD>
0.540556431

$$$$
