
 OpenBabel03252513163D

 45 48  0  0  0  0  0  0  0  0999 V2000
   36.2830   31.3460   42.7690 C   0  0  0  0  0  0  0  0  0  0  0  0
   37.4720   31.0930   42.0590 C   0  0  0  0  0  0  0  0  0  0  0  0
   38.5680   30.7790   42.7890 C   0  0  0  0  0  0  0  0  0  0  0  0
   38.4190   30.7410   44.0960 N   0  0  0  0  0  0  0  0  0  0  0  0
   37.3670   30.9580   44.8240 C   0  0  0  0  0  0  0  0  0  0  0  0
   36.3090   31.2630   44.0960 N   0  0  0  0  0  0  0  0  0  0  0  0
   35.3830   31.6030   42.1810 H   0  0  0  0  0  0  0  0  0  0  0  0
   37.0970   30.9400   46.2380 C   0  0  0  0  0  0  0  0  0  0  0  0
   36.1240   30.1270   46.8290 C   0  0  0  0  0  0  0  0  0  0  0  0
   35.8330   30.0740   48.1530 C   0  0  0  0  0  0  0  0  0  0  0  0
   36.5200   30.8640   49.0250 C   0  0  0  0  0  0  0  0  0  0  0  0
   37.4710   31.6740   48.5280 C   0  0  0  0  0  0  0  0  0  0  0  0
   38.1690   32.4760   49.4200 C   0  0  0  0  0  0  0  0  0  0  0  0
   39.1510   33.3260   49.0020 C   0  0  0  0  0  0  0  0  0  0  0  0
   39.4410   33.3730   47.6470 C   0  0  0  0  0  0  0  0  0  0  0  0
   38.7280   32.5630   46.7980 C   0  0  0  0  0  0  0  0  0  0  0  0
   37.7590   31.7180   47.1800 C   0  0  0  0  0  0  0  0  0  0  0  0
   35.5500   29.4760   46.1540 H   0  0  0  0  0  0  0  0  0  0  0  0
   35.0560   29.4050   48.5110 H   0  0  0  0  0  0  0  0  0  0  0  0
   38.0000   32.4970   50.4870 H   0  0  0  0  0  0  0  0  0  0  0  0
   39.7200   33.9730   49.6750 H   0  0  0  0  0  0  0  0  0  0  0  0
   40.2110   34.0330   47.2780 H   0  0  0  0  0  0  0  0  0  0  0  0
   38.9820   32.6250   45.7400 H   0  0  0  0  0  0  0  0  0  0  0  0
   36.2120   30.7980   50.3640 O   0  0  0  0  0  0  0  0  0  0  0  0
   36.6540   29.7030   51.1560 C   0  0  0  0  0  0  0  0  0  0  0  0
   37.4660   28.8140   50.5250 F   0  0  0  0  0  0  0  0  0  0  0  0
   37.3970   30.2400   52.1990 F   0  0  0  0  0  0  0  0  0  0  0  0
   35.5120   29.0810   51.6370 F   0  0  0  0  0  0  0  0  0  0  0  0
   37.4770   31.1510   40.6210 C   0  0  0  0  0  0  0  0  0  0  0  0
   37.5400   32.4850   40.1960 C   0  0  0  0  0  0  0  0  0  0  0  0
   37.5880   33.3800   40.8150 H   0  0  0  0  0  0  0  0  0  0  0  0
   37.5460   32.8080   38.8320 C   0  0  0  0  0  0  0  0  0  0  0  0
   37.4900   31.8210   37.8690 C   0  0  0  0  0  0  0  0  0  0  0  0
   37.4920   31.9960   36.8020 H   0  0  0  0  0  0  0  0  0  0  0  0
   37.4300   30.5170   38.3150 C   0  0  0  0  0  0  0  0  0  0  0  0
   37.3840   29.6970   37.6140 H   0  0  0  0  0  0  0  0  0  0  0  0
   37.4220   30.1730   39.6500 C   0  0  0  0  0  0  0  0  0  0  0  0
   39.8360   30.5160   42.2130 N   0  0  0  0  0  0  0  0  0  0  0  0
   40.9270   30.0030   42.9760 C   0  0  0  0  0  0  0  0  0  0  0  0
   41.1110   30.5070   44.1590 N   0  0  0  0  0  0  0  0  0  0  0  0
   41.7780   28.9820   42.4680 N   0  0  0  0  0  0  0  0  0  0  0  0
   41.8300   30.2510   44.8220 H   0  0  0  0  0  0  0  0  0  0  0  0
   40.0580   30.6850   41.1850 H   0  0  0  0  0  0  0  0  0  0  0  0
   41.6640   27.9760   42.1800 H   0  0  0  0  0  0  0  0  0  0  0  0
   42.7500   29.4050   42.3830 H   0  0  0  0  0  0  0  0  0  0  0  0
  1  6  1  0  0  0  0
  2  1  2  0  0  0  0
  2  3  1  0  0  0  0
  3  4  2  0  0  0  0
  4  5  1  0  0  0  0
  5  8  1  0  0  0  0
  6  5  2  0  0  0  0
  7  1  1  0  0  0  0
  8  9  2  0  0  0  0
  8 17  1  0  0  0  0
  9 10  1  0  0  0  0
 10 19  1  0  0  0  0
 10 11  2  0  0  0  0
 11 24  1  0  0  0  0
 12 11  1  0  0  0  0
 12 13  1  0  0  0  0
 13 20  1  0  0  0  0
 14 13  2  0  0  0  0
 14 21  1  0  0  0  0
 15 14  1  0  0  0  0
 16 17  1  0  0  0  0
 16 15  2  0  0  0  0
 17 12  2  0  0  0  0
 18  9  1  0  0  0  0
 22 15  1  0  0  0  0
 23 16  1  0  0  0  0
 24 25  1  0  0  0  0
 25 28  1  0  0  0  0
 25 27  1  0  0  0  0
 26 25  1  0  0  0  0
 29  2  1  0  0  0  0
 30 29  1  0  0  0  0
 30 31  1  0  0  0  0
 32 30  2  0  0  0  0
 33 35  2  0  0  0  0
 33 32  1  0  0  0  0
 34 33  1  0  0  0  0
 35 37  1  0  0  0  0
 36 35  1  0  0  0  0
 37 29  2  0  0  0  0
 38  3  1  0  0  0  0
 38 39  1  0  0  0  0
 39 40  2  0  0  0  0
 40 42  1  0  0  0  0
 41 39  1  0  0  0  0
 43 38  1  0  0  0  0
 44 41  1  0  0  0  0
 45 41  1  0  0  0  0
M  END
>  <minimizedAffinity>
-7.44306231

>  <minimizedRMSD>
0.602031767

$$$$
