
 OpenBabel03252513583D

 28 30  0  0  1  0  0  0  0  0999 V2000
   36.3900   30.3480   50.4320 C   0  0  2  0  0  0  0  0  0  0  0  0
   35.6630   29.3440   51.2330 C   0  0  0  0  0  0  0  0  0  0  0  0
   36.0030   28.9970   49.8380 C   0  0  1  0  0  0  0  0  0  0  0  0
   35.8210   31.2440   50.0490 H   0  0  0  0  0  0  0  0  0  0  0  0
   34.6270   29.5950   51.5180 H   0  0  0  0  0  0  0  0  0  0  0  0
   36.1990   28.8050   52.0540 H   0  0  0  0  0  0  0  0  0  0  0  0
   36.8170   28.2480   49.6910 H   0  0  0  0  0  0  0  0  0  0  0  0
   34.9780   28.9830   48.7590 C   0  0  0  0  0  0  0  0  0  0  0  0
   33.8700   28.1510   48.9350 C   0  0  0  0  0  0  0  0  0  0  0  0
   33.7300   27.5280   49.8090 H   0  0  0  0  0  0  0  0  0  0  0  0
   32.9080   28.1270   47.9390 C   0  0  0  0  0  0  0  0  0  0  0  0
   33.0750   28.9140   46.8260 C   0  0  0  0  0  0  0  0  0  0  0  0
   32.3600   28.9440   46.0070 H   0  0  0  0  0  0  0  0  0  0  0  0
   34.1690   29.7520   46.6230 C   0  0  0  0  0  0  0  0  0  0  0  0
   34.2840   30.3650   45.7390 H   0  0  0  0  0  0  0  0  0  0  0  0
   35.1330   29.7710   47.6290 C   0  0  0  0  0  0  0  0  0  0  0  0
   37.8740   30.5460   50.6060 C   0  0  0  0  0  0  0  0  0  0  0  0
   38.3720   29.5510   50.5110 H   0  0  0  0  0  0  0  0  0  0  0  0
   38.0800   30.9470   51.6180 H   0  0  0  0  0  0  0  0  0  0  0  0
   39.0310   33.5880   48.8980 C   0  0  0  0  0  0  0  0  0  0  0  0
   39.1820   33.1560   47.5640 C   0  0  0  0  0  0  0  0  0  0  0  0
   38.8830   31.8280   47.2720 C   0  0  0  0  0  0  0  0  0  0  0  0
   38.4620   31.0220   48.2970 N   0  0  0  0  0  0  0  0  0  0  0  0
   38.3310   31.4720   49.5580 C   0  0  0  0  0  0  0  0  0  0  0  0
   38.6210   32.7590   49.8410 N   0  0  0  0  0  0  0  0  0  0  0  0
   39.2880   34.6360   49.0200 H   0  0  0  0  0  0  0  0  0  0  0  0
   39.5140   33.7780   46.7320 H   0  0  0  0  0  0  0  0  0  0  0  0
   38.9800   31.4480   46.2720 H   0  0  0  0  0  0  0  0  0  0  0  0
  1  4  1  6  0  0  0
  1 17  1  0  0  0  0
  1  2  1  0  0  0  0
  2  5  1  0  0  0  0
  2  6  1  0  0  0  0
  3  7  1  6  0  0  0
  3  1  1  0  0  0  0
  3  2  1  0  0  0  0
  8  9  1  0  0  0  0
  8  3  1  0  0  0  0
  9 10  1  0  0  0  0
 11  9  2  0  0  0  0
 12 11  1  0  0  0  0
 13 12  1  0  0  0  0
 14 12  2  0  0  0  0
 14 16  1  0  0  0  0
 15 14  1  0  0  0  0
 16  8  2  0  0  0  0
 17 19  1  0  0  0  0
 18 17  1  0  0  0  0
 20 26  1  0  0  0  0
 20 25  1  0  0  0  0
 21 20  2  0  0  0  0
 22 21  1  0  0  0  0
 22 23  2  0  0  0  0
 23 24  1  0  0  0  0
 24 25  2  0  0  0  0
 24 17  1  0  0  0  0
 27 21  1  0  0  0  0
 28 22  1  0  0  0  0
M  END
>  <minimizedAffinity>
-5.62820625

>  <minimizedRMSD>
1.68357146

$$$$
