
 OpenBabel03252512183D

 41 45  0  0  0  0  0  0  0  0999 V2000
   32.2750   29.8330   46.1690 C   0  0  0  0  0  0  0  0  0  0  0  0
   32.0110   28.4610   46.1720 C   0  0  0  0  0  0  0  0  0  0  0  0
   32.9840   27.6190   46.7330 C   0  0  0  0  0  0  0  0  0  0  0  0
   34.1130   28.1650   47.2350 N   0  0  0  0  0  0  0  0  0  0  0  0
   34.3390   29.5100   47.2180 C   0  0  0  0  0  0  0  0  0  0  0  0
   33.4190   30.3300   46.6850 N   0  0  0  0  0  0  0  0  0  0  0  0
   31.5480   30.5020   45.7460 H   0  0  0  0  0  0  0  0  0  0  0  0
   31.0960   28.0590   45.7590 H   0  0  0  0  0  0  0  0  0  0  0  0
   35.5830   29.9980   47.7830 C   0  0  0  0  0  0  0  0  0  0  0  0
   36.5650   30.6370   47.0510 C   0  0  0  0  0  0  0  0  0  0  0  0
   37.5860   30.9660   47.8460 N   0  0  0  0  0  0  0  0  0  0  0  0
   37.2910   30.5500   49.1080 C   0  0  0  0  0  0  0  0  0  0  0  0
   37.9990   30.6390   50.3020 C   0  0  0  0  0  0  0  0  0  0  0  0
   37.4230   30.1100   51.4490 C   0  0  0  0  0  0  0  0  0  0  0  0
   36.1900   29.5190   51.3790 C   0  0  0  0  0  0  0  0  0  0  0  0
   35.4640   29.4190   50.1940 C   0  0  0  0  0  0  0  0  0  0  0  0
   36.0500   29.9500   49.0690 C   0  0  0  0  0  0  0  0  0  0  0  0
   36.6060   30.8860   45.9980 H   0  0  0  0  0  0  0  0  0  0  0  0
   38.4820   31.4520   47.6360 H   0  0  0  0  0  0  0  0  0  0  0  0
   38.9720   31.1050   50.3550 H   0  0  0  0  0  0  0  0  0  0  0  0
   37.9380   30.1580   52.3890 H   0  0  0  0  0  0  0  0  0  0  0  0
   35.7170   29.0960   52.2610 H   0  0  0  0  0  0  0  0  0  0  0  0
   34.4870   28.9540   50.1270 H   0  0  0  0  0  0  0  0  0  0  0  0
   32.7580   26.1800   46.7600 C   0  0  0  0  0  0  0  0  0  0  0  0
   33.6440   25.3910   47.4570 C   0  0  0  0  0  0  0  0  0  0  0  0
   33.3740   24.0330   47.4450 C   0  0  0  0  0  0  0  0  0  0  0  0
   32.3060   23.5140   46.7900 N   0  0  0  0  0  0  0  0  0  0  0  0
   31.4560   24.3290   46.1140 C   0  0  0  0  0  0  0  0  0  0  0  0
   31.7090   25.6690   46.1170 N   0  0  0  0  0  0  0  0  0  0  0  0
   34.4960   25.8120   47.9790 H   0  0  0  0  0  0  0  0  0  0  0  0
   34.0370   23.3610   47.9760 H   0  0  0  0  0  0  0  0  0  0  0  0
   28.1750   22.6990   44.0970 C   0  0  0  0  0  0  0  0  0  0  0  0
   28.2040   24.0670   44.3740 C   0  0  0  0  0  0  0  0  0  0  0  0
   29.2870   24.6040   45.0390 C   0  0  0  0  0  0  0  0  0  0  0  0
   30.3100   23.7700   45.4110 C   0  0  0  0  0  0  0  0  0  0  0  0
   30.3210   22.4210   45.1600 C   0  0  0  0  0  0  0  0  0  0  0  0
   29.2310   21.8860   44.4910 C   0  0  0  0  0  0  0  0  0  0  0  0
   27.2590   21.4140   42.0920 H   0  0  0  0  0  0  0  0  0  0  0  0
   26.8230   21.9500   43.2520 S   0  0  0  0  0  0  0  0  0  0  0  0
   25.7850   23.0170   43.0190 O   0  0  0  0  0  0  0  0  0  0  0  0
   26.2140   20.9230   44.1870 O   0  0  0  0  0  0  0  0  0  0  0  0
  1  2  2  0  0  0  0
  1  6  1  0  0  0  0
  2  3  1  0  0  0  0
  3 24  1  0  0  0  0
  3  4  2  0  0  0  0
  5  4  1  0  0  0  0
  5  9  1  0  0  0  0
  6  5  2  0  0  0  0
  7  1  1  0  0  0  0
  8  2  1  0  0  0  0
  9 17  1  0  0  0  0
 10  9  2  0  0  0  0
 10 11  1  0  0  0  0
 11 12  1  0  0  0  0
 12 13  1  0  0  0  0
 13 20  1  0  0  0  0
 13 14  2  0  0  0  0
 14 21  1  0  0  0  0
 15 14  1  0  0  0  0
 15 22  1  0  0  0  0
 16 15  2  0  0  0  0
 17 12  2  0  0  0  0
 17 16  1  0  0  0  0
 18 10  1  0  0  0  0
 19 11  1  0  0  0  0
 23 16  1  0  0  0  0
 24 25  1  0  0  0  0
 25 30  1  0  0  0  0
 26 25  2  0  0  0  0
 26 31  1  0  0  0  0
 27 26  1  0  0  0  0
 28 29  1  0  0  0  0
 28 27  2  0  0  0  0
 29 24  2  0  0  0  0
 32 33  2  0  0  0  0
 32 37  1  0  0  0  0
 33 34  1  0  0  0  0
 34 35  2  0  0  0  0
 35 28  1  0  0  0  0
 36 35  1  0  0  0  0
 37 36  2  0  0  0  0
 38 39  1  0  0  0  0
 39 32  1  0  0  0  0
 39 41  2  0  0  0  0
 40 39  2  0  0  0  0
M  END
>  <minimizedAffinity>
-6.49658108

>  <minimizedRMSD>
0.656832814

$$$$
