
 OpenBabel03252510593D

 26 27  0  0  0  0  0  0  0  0999 V2000
   37.3180   31.0200   48.2290 C   0  0  0  0  0  0  0  0  0  0  0  0
   37.8430   32.1340   48.9100 C   0  0  0  0  0  0  0  0  0  0  0  0
   38.8600   32.8630   48.3040 C   0  0  0  0  0  0  0  0  0  0  0  0
   39.2940   32.4530   47.0760 N   0  0  0  0  0  0  0  0  0  0  0  0
   38.7670   31.3800   46.4530 C   0  0  0  0  0  0  0  0  0  0  0  0
   37.7800   30.6700   47.0350 N   0  0  0  0  0  0  0  0  0  0  0  0
   37.4870   32.4410   49.8780 H   0  0  0  0  0  0  0  0  0  0  0  0
   39.2750   33.7120   48.8010 H   0  0  0  0  0  0  0  0  0  0  0  0
   40.1660   30.1370   42.6150 C   0  0  0  0  0  0  0  0  0  0  0  0
   39.3620   29.3400   43.4030 C   0  0  0  0  0  0  0  0  0  0  0  0
   38.9030   29.7220   44.6390 C   0  0  0  0  0  0  0  0  0  0  0  0
   39.2540   30.9610   45.1280 C   0  0  0  0  0  0  0  0  0  0  0  0
   40.0630   31.7980   44.3710 C   0  0  0  0  0  0  0  0  0  0  0  0
   40.5000   31.3680   43.1320 C   0  0  0  0  0  0  0  0  0  0  0  0
   39.7550   28.9950   40.3810 H   0  0  0  0  0  0  0  0  0  0  0  0
   40.7380   29.6390   41.0560 S   0  0  0  0  0  0  0  0  0  0  0  0
   41.8520   28.6450   41.2450 O   0  0  0  0  0  0  0  0  0  0  0  0
   41.2130   30.7990   40.2300 O   0  0  0  0  0  0  0  0  0  0  0  0
   36.2570   30.2740   48.8780 C   0  0  0  0  0  0  0  0  0  0  0  0
   35.0510   30.5110   48.6230 O   0  0  0  0  0  0  0  0  0  0  0  0
   36.5840   29.2840   49.7940 O   0  0  0  0  0  0  0  0  0  0  0  0
   36.5570   29.4640   51.1720 C   0  0  0  0  0  0  0  0  0  0  0  0
   37.7000   29.8710   51.9120 N   0  0  0  0  0  0  0  0  0  0  0  0
   35.4240   29.2280   51.6750 O   0  0  0  0  0  0  0  0  0  0  0  0
   38.5320   29.3140   52.2130 H   0  0  0  0  0  0  0  0  0  0  0  0
   38.0510   30.7720   52.3530 H   0  0  0  0  0  0  0  0  0  0  0  0
  1 19  1  0  0  0  0
  1  2  1  0  0  0  0
  2  7  1  0  0  0  0
  3  8  1  0  0  0  0
  3  2  2  0  0  0  0
  4  3  1  0  0  0  0
  5  6  1  0  0  0  0
  5  4  2  0  0  0  0
  6  1  2  0  0  0  0
  9 14  2  0  0  0  0
  9 10  1  0  0  0  0
 10 11  2  0  0  0  0
 11 12  1  0  0  0  0
 12  5  1  0  0  0  0
 13 12  2  0  0  0  0
 14 13  1  0  0  0  0
 15 16  1  0  0  0  0
 16 17  2  0  0  0  0
 16  9  1  0  0  0  0
 18 16  2  0  0  0  0
 19 21  1  0  0  0  0
 20 19  2  0  0  0  0
 21 22  1  0  0  0  0
 22 24  2  0  0  0  0
 22 23  1  0  0  0  0
 23 25  1  0  0  0  0
 23 26  1  0  0  0  0
M  END
>  <minimizedAffinity>
-5.58735895

>  <minimizedRMSD>
1.73313546

$$$$
