
 OpenBabel03252513583D

 29 31  0  0  1  0  0  0  0  0999 V2000
   36.3300   30.2800   50.4800 C   0  0  2  0  0  0  0  0  0  0  0  0
   35.6080   29.2880   51.2960 C   0  0  0  0  0  0  0  0  0  0  0  0
   35.8810   28.9480   49.8860 C   0  0  1  0  0  0  0  0  0  0  0  0
   35.7570   31.1820   50.1710 H   0  0  0  0  0  0  0  0  0  0  0  0
   34.5680   29.5480   51.6390 H   0  0  0  0  0  0  0  0  0  0  0  0
   36.1800   28.8250   52.1260 H   0  0  0  0  0  0  0  0  0  0  0  0
   36.6800   28.1660   49.7380 H   0  0  0  0  0  0  0  0  0  0  0  0
   32.8350   29.0660   46.8610 C   0  0  0  0  0  0  0  0  0  0  0  0
   32.7530   28.1570   47.8870 C   0  0  0  0  0  3  0  0  0  0  0  0
   33.7220   28.0950   48.8780 C   0  0  0  0  0  3  0  0  0  0  0  0
   34.8160   28.9530   48.8730 C   0  0  0  0  0  0  0  0  0  0  0  0
   34.8480   29.8580   47.8050 C   0  0  0  0  0  3  0  0  0  0  0  0
   33.8990   29.9410   46.8070 C   0  0  0  0  0  3  0  0  0  0  0  0
   31.6030   28.0530   44.8790 H   0  0  0  0  0  0  0  0  0  0  0  0
   31.6570   29.2110   45.5730 S   0  0  0  0  0  0  0  0  0  0  0  0
   32.1180   30.2930   44.6070 O   0  0  0  0  0  0  0  0  0  0  0  0
   30.3730   29.6580   46.1610 O   0  0  0  0  0  0  0  0  0  0  0  0
   37.8210   30.4470   50.5870 C   0  0  0  0  0  0  0  0  0  0  0  0
   38.2530   29.4220   50.4710 H   0  0  0  0  0  0  0  0  0  0  0  0
   38.1480   30.8660   51.5540 H   0  0  0  0  0  0  0  0  0  0  0  0
   38.9770   33.3160   48.5970 C   0  0  0  0  0  0  0  0  0  0  0  0
   39.0760   32.7770   47.3010 C   0  0  0  0  0  0  0  0  0  0  0  0
   38.7420   31.4250   47.1240 C   0  0  0  0  0  0  0  0  0  0  0  0
   38.3420   30.7200   48.2280 N   0  0  0  0  0  0  0  0  0  0  0  0
   38.2610   31.2780   49.4560 C   0  0  0  0  0  0  0  0  0  0  0  0
   38.5780   32.5710   49.6370 N   0  0  0  0  0  0  0  0  0  0  0  0
   39.2320   34.3620   48.7540 H   0  0  0  0  0  0  0  0  0  0  0  0
   39.3960   33.3620   46.4470 H   0  0  0  0  0  0  0  0  0  0  0  0
   38.7910   30.9350   46.1610 H   0  0  0  0  0  0  0  0  0  0  0  0
  1  4  1  6  0  0  0
  1 18  1  0  0  0  0
  1  2  1  0  0  0  0
  2  5  1  0  0  0  0
  2  6  1  0  0  0  0
  3  7  1  6  0  0  0
  3  1  1  0  0  0  0
  3  2  1  0  0  0  0
  8  9  1  0  0  0  0
  9 10  2  0  0  0  0
 11 10  1  0  0  0  0
 11  3  1  0  0  0  0
 12 11  2  0  0  0  0
 13  8  2  0  0  0  0
 13 12  1  0  0  0  0
 14 15  1  0  0  0  0
 15 17  2  0  0  0  0
 15  8  1  0  0  0  0
 16 15  2  0  0  0  0
 18 20  1  0  0  0  0
 19 18  1  0  0  0  0
 21 27  1  0  0  0  0
 21 26  1  0  0  0  0
 22 21  2  0  0  0  0
 23 22  1  0  0  0  0
 23 24  2  0  0  0  0
 24 25  1  0  0  0  0
 25 26  2  0  0  0  0
 25 18  1  0  0  0  0
 28 22  1  0  0  0  0
 29 23  1  0  0  0  0
M  END
>  <minimizedAffinity>
-5.73505402

>  <minimizedRMSD>
2.08214855

$$$$
