
 OpenBabel03252513583D

 29 31  0  0  1  0  0  0  0  0999 V2000
   35.5170   29.5620   48.9660 C   0  0  2  0  0  0  0  0  0  0  0  0
   34.4750   30.0350   49.8950 C   0  0  0  0  0  0  0  0  0  0  0  0
   34.5840   28.5800   49.6690 C   0  0  1  0  0  0  0  0  0  0  0  0
   35.3330   29.7350   47.8830 H   0  0  0  0  0  0  0  0  0  0  0  0
   33.6190   30.6260   49.4660 H   0  0  0  0  0  0  0  0  0  0  0  0
   34.8320   30.5040   50.8340 H   0  0  0  0  0  0  0  0  0  0  0  0
   35.0190   28.0020   50.5350 H   0  0  0  0  0  0  0  0  0  0  0  0
   31.7980   26.3810   47.2510 C   0  0  0  0  0  0  0  0  0  0  0  0
   31.3410   27.2840   48.1800 C   0  0  0  0  0  3  0  0  0  0  0  0
   32.2190   28.0090   48.9760 C   0  0  0  0  0  3  0  0  0  0  0  0
   33.5950   27.8490   48.8640 C   0  0  0  0  0  0  0  0  0  0  0  0
   34.0020   26.9180   47.9020 C   0  0  0  0  0  3  0  0  0  0  0  0
   33.1530   26.1840   47.1000 C   0  0  0  0  0  3  0  0  0  0  0  0
   31.1060   24.1250   46.3030 H   0  0  0  0  0  0  0  0  0  0  0  0
   30.7620   25.4280   46.2110 S   0  0  0  0  0  0  0  0  0  0  0  0
   30.9940   25.8520   44.7680 O   0  0  0  0  0  0  0  0  0  0  0  0
   29.3510   25.7360   46.5430 O   0  0  0  0  0  0  0  0  0  0  0  0
   36.9580   29.4670   49.3860 C   0  0  0  0  0  0  0  0  0  0  0  0
   37.3860   28.6060   48.8170 H   0  0  0  0  0  0  0  0  0  0  0  0
   37.0900   29.2840   50.4660 H   0  0  0  0  0  0  0  0  0  0  0  0
   38.2840   32.8980   49.3530 C   0  0  0  0  0  0  0  0  0  0  0  0
   38.9090   32.9780   48.0940 C   0  0  0  0  0  0  0  0  0  0  0  0
   38.8670   31.8460   47.2660 C   0  0  0  0  0  0  0  0  0  0  0  0
   38.2200   30.7360   47.7400 N   0  0  0  0  0  0  0  0  0  0  0  0
   37.6330   30.7020   48.9580 C   0  0  0  0  0  0  0  0  0  0  0  0
   37.6660   31.7800   49.7580 N   0  0  0  0  0  0  0  0  0  0  0  0
   38.3060   33.7650   50.0090 H   0  0  0  0  0  0  0  0  0  0  0  0
   39.4140   33.8720   47.7480 H   0  0  0  0  0  0  0  0  0  0  0  0
   39.3220   31.8260   46.2850 H   0  0  0  0  0  0  0  0  0  0  0  0
  1  4  1  6  0  0  0
  1 18  1  0  0  0  0
  1  3  1  0  0  0  0
  1  2  1  0  0  0  0
  2  6  1  0  0  0  0
  3  2  1  0  0  0  0
  3  7  1  1  0  0  0
  5  2  1  0  0  0  0
  8  9  1  0  0  0  0
  9 10  2  0  0  0  0
 11 10  1  0  0  0  0
 11  3  1  0  0  0  0
 12 11  2  0  0  0  0
 13  8  2  0  0  0  0
 13 12  1  0  0  0  0
 15 14  1  0  0  0  0
 15 17  2  0  0  0  0
 15  8  1  0  0  0  0
 16 15  2  0  0  0  0
 18 20  1  0  0  0  0
 19 18  1  0  0  0  0
 21 26  1  0  0  0  0
 21 27  1  0  0  0  0
 22 21  2  0  0  0  0
 23 24  2  0  0  0  0
 23 22  1  0  0  0  0
 24 25  1  0  0  0  0
 25 18  1  0  0  0  0
 25 26  2  0  0  0  0
 28 22  1  0  0  0  0
 29 23  1  0  0  0  0
M  END
>  <minimizedAffinity>
-5.29010677

>  <minimizedRMSD>
1.12017405

$$$$
