
 OpenBabel03252512353D

 43 46  0  0  1  0  0  0  0  0999 V2000
   32.3550   27.4220   47.8090 C   0  0  2  0  0  0  0  0  0  0  0  0
   32.5800   26.3340   48.0140 H   0  0  0  0  0  0  0  0  0  0  0  0
   35.5300   29.8730   48.5280 C   0  0  0  0  0  0  0  0  0  0  0  0
   35.4070   28.8250   49.4320 C   0  0  0  0  0  0  0  0  0  0  0  0
   34.3740   27.9720   49.2720 C   0  0  0  0  0  0  0  0  0  0  0  0
   33.5490   28.1850   48.2730 C   0  0  0  0  0  0  0  0  0  0  0  0
   34.1310   29.6710   47.3880 S   0  0  0  0  0  0  0  0  0  0  0  0
   36.1640   28.7490   50.2310 H   0  0  0  0  0  0  0  0  0  0  0  0
   34.2020   27.1260   49.9310 H   0  0  0  0  0  0  0  0  0  0  0  0
   37.7570   32.6020   49.5640 C   0  0  0  0  0  0  0  0  0  0  0  0
   38.5550   32.8120   48.4170 C   0  0  0  0  0  0  0  0  0  0  0  0
   38.3110   32.0150   47.3020 C   0  0  0  0  0  0  0  0  0  0  0  0
   37.3250   31.0790   47.3660 N   0  0  0  0  0  0  0  0  0  0  0  0
   36.6010   30.9290   48.4870 C   0  0  0  0  0  0  0  0  0  0  0  0
   36.7710   31.6680   49.6320 N   0  0  0  0  0  0  0  0  0  0  0  0
   38.0020   33.2560   50.3910 H   0  0  0  0  0  0  0  0  0  0  0  0
   39.3160   33.5530   48.4040 H   0  0  0  0  0  0  0  0  0  0  0  0
   38.8860   32.1250   46.3900 H   0  0  0  0  0  0  0  0  0  0  0  0
   32.1020   27.6640   46.4080 C   0  0  0  0  0  0  0  0  0  0  0  0
   32.4400   28.6600   46.0320 H   0  0  0  0  0  0  0  0  0  0  0  0
   32.5260   26.9130   45.7030 H   0  0  0  0  0  0  0  0  0  0  0  0
   30.9910   27.6230   46.2110 H   0  0  0  0  0  0  0  0  0  0  0  0
   31.2080   27.7290   48.7640 C   0  0  0  0  0  0  0  0  0  0  0  0
   31.5670   27.8210   49.8110 H   0  0  0  0  0  0  0  0  0  0  0  0
   30.8610   28.7520   48.4720 H   0  0  0  0  0  0  0  0  0  0  0  0
   30.1880   26.8300   48.6870 O   0  0  0  0  0  0  0  0  0  0  0  0
   28.9060   27.2170   48.3520 C   0  0  0  0  0  0  0  0  0  0  0  0
   27.6190   26.7990   48.5700 C   0  0  0  0  0  0  0  0  0  0  0  0
   26.7940   27.6860   47.9160 C   0  0  0  0  0  0  0  0  0  0  0  0
   27.6220   28.6140   47.3230 C   0  0  0  0  0  0  0  0  0  0  0  0
   28.8580   28.2890   47.6120 O   0  0  0  0  0  0  0  0  0  0  0  0
   27.4650   25.9220   49.1640 H   0  0  0  0  0  0  0  0  0  0  0  0
   25.7280   27.6000   47.9170 H   0  0  0  0  0  0  0  0  0  0  0  0
   26.3520   31.8070   44.9670 C   0  0  0  0  0  0  0  0  0  0  0  0
   26.6520   30.6020   44.3270 C   0  0  0  0  0  0  0  0  0  0  0  0
   27.0690   29.5730   45.1460 C   0  0  0  0  0  0  0  0  0  0  0  0
   27.1700   29.7620   46.5090 C   0  0  0  0  0  0  0  0  0  0  0  0
   26.8690   30.9570   47.1290 C   0  0  0  0  0  0  0  0  0  0  0  0
   26.4480   32.0050   46.3280 C   0  0  0  0  0  0  0  0  0  0  0  0
   26.8980   33.7430   43.3660 H   0  0  0  0  0  0  0  0  0  0  0  0
   25.8090   33.1780   43.9880 S   0  0  0  0  0  0  0  0  0  0  0  0
   24.8790   32.7070   42.9040 O   0  0  0  0  0  0  0  0  0  0  0  0
   25.0480   34.1230   44.8390 O   0  0  0  0  0  0  0  0  0  0  0  0
  1  2  1  1  0  0  0
  1  6  1  0  0  0  0
  1 23  1  0  0  0  0
  3  4  2  0  0  0  0
  4  8  1  0  0  0  0
  5  4  1  0  0  0  0
  5  9  1  0  0  0  0
  6  5  2  0  0  0  0
  7  6  1  0  0  0  0
  7  3  1  0  0  0  0
 10 15  1  0  0  0  0
 10 16  1  0  0  0  0
 11 10  2  0  0  0  0
 12 13  2  0  0  0  0
 12 11  1  0  0  0  0
 13 14  1  0  0  0  0
 14  3  1  0  0  0  0
 14 15  2  0  0  0  0
 17 11  1  0  0  0  0
 18 12  1  0  0  0  0
 19  1  1  0  0  0  0
 20 19  1  0  0  0  0
 21 19  1  0  0  0  0
 22 19  1  0  0  0  0
 23 24  1  0  0  0  0
 25 23  1  0  0  0  0
 26 23  1  0  0  0  0
 27 28  2  0  0  0  0
 27 26  1  0  0  0  0
 28 32  1  0  0  0  0
 29 33  1  0  0  0  0
 29 28  1  0  0  0  0
 30 31  1  0  0  0  0
 30 29  2  0  0  0  0
 31 27  1  0  0  0  0
 34 39  1  0  0  0  0
 35 34  2  0  0  0  0
 35 36  1  0  0  0  0
 36 37  2  0  0  0  0
 37 38  1  0  0  0  0
 37 30  1  0  0  0  0
 39 38  2  0  0  0  0
 40 41  1  0  0  0  0
 41 43  2  0  0  0  0
 41 34  1  0  0  0  0
 42 41  2  0  0  0  0
M  END
>  <minimizedAffinity>
-6.59379292

>  <minimizedRMSD>
2.47322869

$$$$
