
 OpenBabel03252512033D

 33 35  0  0  0  0  0  0  0  0999 V2000
   38.6730   31.9850   46.1620 C   0  0  0  0  0  0  0  0  0  0  0  0
   39.9410   31.4760   46.0700 C   0  0  0  0  0  0  0  0  0  0  0  0
   40.6270   31.4310   44.8700 C   0  0  0  0  0  0  0  0  0  0  0  0
   39.9890   31.9160   43.7760 N   0  0  0  0  0  0  0  0  0  0  0  0
   38.7530   32.4150   43.8510 C   0  0  0  0  0  0  0  0  0  0  0  0
   38.0940   32.4530   45.0280 N   0  0  0  0  0  0  0  0  0  0  0  0
   40.4240   31.0920   46.9760 H   0  0  0  0  0  0  0  0  0  0  0  0
   41.6280   31.0100   44.8860 H   0  0  0  0  0  0  0  0  0  0  0  0
   36.7830   33.8960   40.3960 C   0  0  0  0  0  0  0  0  0  0  0  0
   36.0340   33.3550   41.4350 C   0  0  0  0  0  0  0  0  0  0  0  0
   36.7210   32.8910   42.5330 C   0  0  0  0  0  0  0  0  0  0  0  0
   38.0940   32.9290   42.6560 C   0  0  0  0  0  0  0  0  0  0  0  0
   38.8260   33.4660   41.6220 C   0  0  0  0  0  0  0  0  0  0  0  0
   38.1630   33.9410   40.5090 C   0  0  0  0  0  0  0  0  0  0  0  0
   35.8050   35.8540   38.9860 H   0  0  0  0  0  0  0  0  0  0  0  0
   35.9150   34.4930   38.9930 S   0  0  0  0  0  0  0  0  0  0  0  0
   34.5470   33.8880   38.9650 O   0  0  0  0  0  0  0  0  0  0  0  0
   36.6780   34.0290   37.7880 O   0  0  0  0  0  0  0  0  0  0  0  0
   37.9530   32.0380   47.4850 C   0  0  0  0  0  0  0  0  0  0  0  0
   36.8850   32.0240   47.4230 H   0  0  0  0  0  0  0  0  0  0  0  0
   38.1930   33.0790   47.8910 H   0  0  0  0  0  0  0  0  0  0  0  0
   38.6290   31.0090   48.3520 C   0  0  0  0  0  0  0  0  0  0  0  0
   39.2020   30.2460   47.7580 H   0  0  0  0  0  0  0  0  0  0  0  0
   39.4590   31.5240   48.9310 H   0  0  0  0  0  0  0  0  0  0  0  0
   37.9130   30.6260   50.6730 C   0  0  0  0  0  0  0  0  0  0  0  0
   37.7260   30.4360   49.3000 C   0  0  0  0  0  0  0  0  0  0  0  0
   36.6430   29.6850   48.9100 C   0  0  0  0  0  0  0  0  0  0  0  0
   35.7950   29.1570   49.8430 N   0  0  0  0  0  0  0  0  0  0  0  0
   35.9970   29.3560   51.1560 C   0  0  0  0  0  0  0  0  0  0  0  0
   37.0400   30.0800   51.5410 N   0  0  0  0  0  0  0  0  0  0  0  0
   38.7690   31.2190   50.9660 H   0  0  0  0  0  0  0  0  0  0  0  0
   36.3070   29.3990   47.9290 H   0  0  0  0  0  0  0  0  0  0  0  0
   35.3630   28.9650   51.9410 H   0  0  0  0  0  0  0  0  0  0  0  0
  1 19  1  0  0  0  0
  2  1  1  0  0  0  0
  2  7  1  0  0  0  0
  3  8  1  0  0  0  0
  3  2  2  0  0  0  0
  4  5  2  0  0  0  0
  4  3  1  0  0  0  0
  5  6  1  0  0  0  0
  6  1  2  0  0  0  0
  9 14  2  0  0  0  0
  9 10  1  0  0  0  0
 10 11  2  0  0  0  0
 11 12  1  0  0  0  0
 12  5  1  0  0  0  0
 13 12  2  0  0  0  0
 14 13  1  0  0  0  0
 15 16  1  0  0  0  0
 16  9  1  0  0  0  0
 17 16  2  0  0  0  0
 18 16  2  0  0  0  0
 19 21  1  0  0  0  0
 19 22  1  0  0  0  0
 20 19  1  0  0  0  0
 22 24  1  0  0  0  0
 22 26  1  0  0  0  0
 23 22  1  0  0  0  0
 25 31  1  0  0  0  0
 25 30  1  0  0  0  0
 26 25  2  0  0  0  0
 27 26  1  0  0  0  0
 27 28  2  0  0  0  0
 28 29  1  0  0  0  0
 29 30  2  0  0  0  0
 29 33  1  0  0  0  0
 32 27  1  0  0  0  0
M  END
>  <minimizedAffinity>
-5.30497694

>  <minimizedRMSD>
4.82345295

$$$$
