
 OpenBabel03252513583D

 29 31  0  0  1  0  0  0  0  0999 V2000
   35.4780   29.4810   49.0210 C   0  0  2  0  0  0  0  0  0  0  0  0
   34.4410   29.8000   50.0180 C   0  0  0  0  0  0  0  0  0  0  0  0
   34.5830   28.3910   49.6010 C   0  0  1  0  0  0  0  0  0  0  0  0
   35.2720   29.7890   47.9720 H   0  0  0  0  0  0  0  0  0  0  0  0
   33.5640   30.4200   49.6820 H   0  0  0  0  0  0  0  0  0  0  0  0
   34.8030   30.1520   51.0060 H   0  0  0  0  0  0  0  0  0  0  0  0
   35.0460   27.7160   50.3770 H   0  0  0  0  0  0  0  0  0  0  0  0
   31.6040   26.5720   47.0980 C   0  0  0  0  0  0  0  0  0  0  0  0
   32.9360   26.3120   46.8860 C   0  0  0  0  0  3  0  0  0  0  0  0
   33.9220   26.8850   47.6790 C   0  0  0  0  0  3  0  0  0  0  0  0
   33.5970   27.7460   48.7210 C   0  0  0  0  0  0  0  0  0  0  0  0
   32.2270   27.9750   48.8910 C   0  0  0  0  0  3  0  0  0  0  0  0
   31.2290   27.4190   48.1170 C   0  0  0  0  0  3  0  0  0  0  0  0
   30.2280   26.5340   44.9590 H   0  0  0  0  0  0  0  0  0  0  0  0
   30.3020   25.8920   46.1460 S   0  0  0  0  0  0  0  0  0  0  0  0
   28.9870   26.1360   46.8720 O   0  0  0  0  0  0  0  0  0  0  0  0
   30.4980   24.4250   46.0620 O   0  0  0  0  0  0  0  0  0  0  0  0
   36.9280   29.3700   49.4050 C   0  0  0  0  0  0  0  0  0  0  0  0
   37.3440   28.5340   48.7900 H   0  0  0  0  0  0  0  0  0  0  0  0
   37.0840   29.1420   50.4730 H   0  0  0  0  0  0  0  0  0  0  0  0
   38.1870   32.8250   49.4550 C   0  0  0  0  0  0  0  0  0  0  0  0
   38.8550   32.9330   48.2210 C   0  0  0  0  0  0  0  0  0  0  0  0
   38.8650   31.8090   47.3800 C   0  0  0  0  0  0  0  0  0  0  0  0
   38.2220   30.6820   47.8180 N   0  0  0  0  0  0  0  0  0  0  0  0
   37.5930   30.6220   49.0130 C   0  0  0  0  0  0  0  0  0  0  0  0
   37.5780   31.6910   49.8260 N   0  0  0  0  0  0  0  0  0  0  0  0
   38.1690   33.6860   50.1220 H   0  0  0  0  0  0  0  0  0  0  0  0
   39.3540   33.8400   47.9020 H   0  0  0  0  0  0  0  0  0  0  0  0
   39.3540   31.8090   46.4150 H   0  0  0  0  0  0  0  0  0  0  0  0
  1  4  1  6  0  0  0
  1 18  1  0  0  0  0
  1  3  1  0  0  0  0
  1  2  1  0  0  0  0
  2  6  1  0  0  0  0
  3  2  1  0  0  0  0
  3  7  1  1  0  0  0
  5  2  1  0  0  0  0
  8 13  1  0  0  0  0
  9  8  2  0  0  0  0
  9 10  1  0  0  0  0
 10 11  2  0  0  0  0
 11 12  1  0  0  0  0
 11  3  1  0  0  0  0
 13 12  2  0  0  0  0
 14 15  1  0  0  0  0
 15 16  2  0  0  0  0
 15  8  1  0  0  0  0
 17 15  2  0  0  0  0
 18 20  1  0  0  0  0
 19 18  1  0  0  0  0
 21 26  1  0  0  0  0
 21 27  1  0  0  0  0
 22 21  2  0  0  0  0
 23 24  2  0  0  0  0
 23 22  1  0  0  0  0
 24 25  1  0  0  0  0
 25 18  1  0  0  0  0
 25 26  2  0  0  0  0
 28 22  1  0  0  0  0
 29 23  1  0  0  0  0
M  END
>  <minimizedAffinity>
-5.37196922

>  <minimizedRMSD>
1.39402318

$$$$
