
 OpenBabel03252510543D

 37 41  0  0  1  0  0  0  0  0999 V2000
   35.6520   30.4560   46.9190 C   0  0  0  0  0  0  0  0  0  0  0  0
   36.7780   30.4760   47.7520 C   0  0  0  0  0  0  0  0  0  0  0  0
   36.7350   29.7410   48.9140 C   0  0  0  0  0  0  0  0  0  0  0  0
   35.5850   29.0320   49.1830 N   0  0  0  0  0  0  0  0  0  0  0  0
   34.5360   29.0320   48.3750 C   0  0  0  0  0  0  0  0  0  0  0  0
   34.5610   29.7420   47.2410 N   0  0  0  0  0  0  0  0  0  0  0  0
   35.6900   31.0340   46.0080 H   0  0  0  0  0  0  0  0  0  0  0  0
   37.5710   29.7190   49.5930 H   0  0  0  0  0  0  0  0  0  0  0  0
   37.8920   31.2240   47.3910 N   0  0  0  0  0  0  0  0  0  0  0  0
   38.3890   32.2790   48.0730 C   0  0  0  0  0  0  0  0  0  0  0  0
   39.4710   32.8050   47.4860 N   0  0  0  0  0  0  0  0  0  0  0  0
   39.6950   32.0720   46.3800 C   0  0  0  0  0  0  0  0  0  0  0  0
   40.6130   32.0800   45.3680 C   0  0  0  0  0  0  0  0  0  0  0  0
   40.6270   31.2130   44.3380 N   0  0  0  0  0  0  0  0  0  0  0  0
   39.6470   30.2760   44.3310 C   0  0  0  0  0  0  0  0  0  0  0  0
   38.7440   30.2580   45.3130 N   0  0  0  0  0  0  0  0  0  0  0  0
   38.6940   31.0930   46.3460 C   0  0  0  0  0  0  0  0  0  0  0  0
   37.9850   32.6780   48.9890 H   0  0  0  0  0  0  0  0  0  0  0  0
   41.4100   32.8290   45.3590 H   0  0  0  0  0  0  0  0  0  0  0  0
   39.5260   29.5150   43.5750 H   0  0  0  0  0  0  0  0  0  0  0  0
   33.3260   28.2340   48.7630 C   0  0  2  0  0  0  0  0  0  0  0  0
   33.2320   26.8790   47.9810 C   0  0  0  0  0  0  0  0  0  0  0  0
   32.2640   27.9550   47.7840 C   0  0  1  0  0  0  0  0  0  0  0  0
   33.1580   28.1090   49.8560 H   0  0  0  0  0  0  0  0  0  0  0  0
   32.9470   25.9920   48.5720 H   0  0  0  0  0  0  0  0  0  0  0  0
   34.0110   26.6710   47.2400 H   0  0  0  0  0  0  0  0  0  0  0  0
   32.3750   28.4980   46.8010 H   0  0  0  0  0  0  0  0  0  0  0  0
   28.2830   27.6570   49.2710 C   0  0  0  0  0  0  0  0  0  0  0  0
   29.3250   27.7290   50.1840 C   0  0  0  0  0  0  0  0  0  0  0  0
   30.6020   27.8250   49.6220 C   0  0  0  0  0  0  0  0  0  0  0  0
   30.8540   27.8500   48.2450 C   0  0  0  0  0  0  0  0  0  0  0  0
   29.7560   27.7730   47.3980 C   0  0  0  0  0  0  0  0  0  0  0  0
   28.4700   27.6770   47.9030 C   0  0  0  0  0  0  0  0  0  0  0  0
   26.1710   26.2900   49.6740 H   0  0  0  0  0  0  0  0  0  0  0  0
   26.6680   27.5350   49.9530 S   0  0  0  0  0  0  0  0  0  0  0  0
   26.7130   27.7370   51.4220 O   0  0  0  0  0  0  0  0  0  0  0  0
   25.7510   28.5610   49.3590 O   0  0  0  0  0  0  0  0  0  0  0  0
  1  6  2  0  0  0  0
  1  2  1  0  0  0  0
  2  3  2  0  0  0  0
  3  4  1  0  0  0  0
  3  8  1  0  0  0  0
  5 21  1  0  0  0  0
  5  4  2  0  0  0  0
  6  5  1  0  0  0  0
  7  1  1  0  0  0  0
  9  2  1  0  0  0  0
  9 10  1  0  0  0  0
 10 18  1  0  0  0  0
 11 10  2  0  0  0  0
 12 11  1  0  0  0  0
 13 12  2  0  0  0  0
 14 13  1  0  0  0  0
 15 14  2  0  0  0  0
 15 16  1  0  0  0  0
 16 17  2  0  0  0  0
 17 12  1  0  0  0  0
 17  9  1  0  0  0  0
 19 13  1  0  0  0  0
 20 15  1  0  0  0  0
 21 24  1  1  0  0  0
 22 25  1  0  0  0  0
 22 21  1  0  0  0  0
 23 27  1  6  0  0  0
 23 22  1  0  0  0  0
 23 31  1  0  0  0  0
 23 21  1  0  0  0  0
 26 22  1  0  0  0  0
 28 35  1  0  0  0  0
 28 29  1  0  0  0  0
 30 29  2  0  0  0  0
 31 30  1  0  0  0  0
 32 33  1  0  0  0  0
 32 31  2  0  0  0  0
 33 28  2  0  0  0  0
 34 35  1  0  0  0  0
 35 36  2  0  0  0  0
 37 35  2  0  0  0  0
M  END
>  <minimizedAffinity>
-6.72585583

>  <minimizedRMSD>
1.09382558

$$$$
