
 OpenBabel03252513583D

 29 31  0  0  1  0  0  0  0  0999 V2000
   35.4660   29.4990   49.0220 C   0  0  2  0  0  0  0  0  0  0  0  0
   34.4300   29.8050   50.0240 C   0  0  0  0  0  0  0  0  0  0  0  0
   34.5800   28.4000   49.6000 C   0  0  1  0  0  0  0  0  0  0  0  0
   35.2540   29.8110   47.9750 H   0  0  0  0  0  0  0  0  0  0  0  0
   33.5470   30.4200   49.6940 H   0  0  0  0  0  0  0  0  0  0  0  0
   34.7930   30.1550   51.0130 H   0  0  0  0  0  0  0  0  0  0  0  0
   35.0510   27.7240   50.3700 H   0  0  0  0  0  0  0  0  0  0  0  0
   31.6060   26.5730   47.0970 C   0  0  0  0  0  0  0  0  0  0  0  0
   32.9380   26.3170   46.8830 C   0  0  0  0  0  3  0  0  0  0  0  0
   33.9220   26.8940   47.6760 C   0  0  0  0  0  3  0  0  0  0  0  0
   33.5960   27.7520   48.7190 C   0  0  0  0  0  0  0  0  0  0  0  0
   32.2250   27.9760   48.8910 C   0  0  0  0  0  3  0  0  0  0  0  0
   31.2280   27.4170   48.1180 C   0  0  0  0  0  3  0  0  0  0  0  0
   30.2300   26.5290   44.9580 H   0  0  0  0  0  0  0  0  0  0  0  0
   30.3050   25.8890   46.1450 S   0  0  0  0  0  0  0  0  0  0  0  0
   28.9890   26.1320   46.8710 O   0  0  0  0  0  0  0  0  0  0  0  0
   30.5020   24.4230   46.0640 O   0  0  0  0  0  0  0  0  0  0  0  0
   36.9180   29.3970   49.4000 C   0  0  0  0  0  0  0  0  0  0  0  0
   37.3360   28.5610   48.7860 H   0  0  0  0  0  0  0  0  0  0  0  0
   37.0790   29.1710   50.4680 H   0  0  0  0  0  0  0  0  0  0  0  0
   38.1150   32.8740   49.4150 C   0  0  0  0  0  0  0  0  0  0  0  0
   38.8230   32.9650   48.2020 C   0  0  0  0  0  0  0  0  0  0  0  0
   38.8820   31.8240   47.3880 C   0  0  0  0  0  0  0  0  0  0  0  0
   38.2440   30.6960   47.8290 N   0  0  0  0  0  0  0  0  0  0  0  0
   37.5750   30.6510   49.0030 C   0  0  0  0  0  0  0  0  0  0  0  0
   37.5120   31.7380   49.7900 N   0  0  0  0  0  0  0  0  0  0  0  0
   38.0590   33.7480   50.0600 H   0  0  0  0  0  0  0  0  0  0  0  0
   39.3170   33.8750   47.8800 H   0  0  0  0  0  0  0  0  0  0  0  0
   39.4050   31.8110   46.4410 H   0  0  0  0  0  0  0  0  0  0  0  0
  1  4  1  6  0  0  0
  1 18  1  0  0  0  0
  1  3  1  0  0  0  0
  1  2  1  0  0  0  0
  2  6  1  0  0  0  0
  3  2  1  0  0  0  0
  3  7  1  1  0  0  0
  5  2  1  0  0  0  0
  8 13  1  0  0  0  0
  9  8  2  0  0  0  0
  9 10  1  0  0  0  0
 10 11  2  0  0  0  0
 11 12  1  0  0  0  0
 11  3  1  0  0  0  0
 13 12  2  0  0  0  0
 14 15  1  0  0  0  0
 15 16  2  0  0  0  0
 15  8  1  0  0  0  0
 17 15  2  0  0  0  0
 18 20  1  0  0  0  0
 19 18  1  0  0  0  0
 21 26  1  0  0  0  0
 21 27  1  0  0  0  0
 22 21  2  0  0  0  0
 23 24  2  0  0  0  0
 23 22  1  0  0  0  0
 24 25  1  0  0  0  0
 25 18  1  0  0  0  0
 25 26  2  0  0  0  0
 28 22  1  0  0  0  0
 29 23  1  0  0  0  0
M  END
>  <minimizedAffinity>
-5.37623453

>  <minimizedRMSD>
1.27974415

$$$$
