
 OpenBabel03252512433D

 25 27  0  0  0  0  0  0  0  0999 V2000
   38.3280   31.0310   47.7850 C   0  0  0  0  0  0  0  0  0  0  0  0
   38.7190   32.3920   47.7610 C   0  0  0  0  0  0  0  0  0  0  0  0
   39.4840   32.5680   46.0860 S   0  0  0  0  0  0  0  0  0  0  0  0
   39.1280   30.7500   45.7310 C   0  0  0  0  0  0  0  0  0  0  0  0
   38.6300   30.4140   46.6750 N   0  0  0  0  0  0  0  0  0  0  0  0
   38.5920   33.1460   48.5500 H   0  0  0  0  0  0  0  0  0  0  0  0
   38.1190   30.8680   50.2630 C   0  0  0  0  0  0  0  0  0  0  0  0
   37.6670   30.5100   48.9790 C   0  0  0  0  0  0  0  0  0  0  0  0
   36.5680   29.6440   48.9280 C   0  0  0  0  0  0  0  0  0  0  0  0
   36.0100   29.2070   50.0890 N   0  0  0  0  0  0  0  0  0  0  0  0
   36.4950   29.5920   51.2970 C   0  0  0  0  0  0  0  0  0  0  0  0
   37.5380   30.4140   51.3720 N   0  0  0  0  0  0  0  0  0  0  0  0
   38.9660   31.5360   50.3620 H   0  0  0  0  0  0  0  0  0  0  0  0
   36.1920   29.3450   47.9590 H   0  0  0  0  0  0  0  0  0  0  0  0
   36.0710   29.2600   52.2380 H   0  0  0  0  0  0  0  0  0  0  0  0
   40.1760   29.1380   42.0040 C   0  0  0  0  0  0  0  0  0  0  0  0
   40.8510   30.2780   42.4290 C   0  0  0  0  0  0  0  0  0  0  0  0
   40.5320   30.8330   43.6500 C   0  0  0  0  0  0  0  0  0  0  0  0
   39.5490   30.2410   44.4120 C   0  0  0  0  0  0  0  0  0  0  0  0
   38.8620   29.1220   44.0340 C   0  0  0  0  0  0  0  0  0  0  0  0
   39.1890   28.5600   42.7940 C   0  0  0  0  0  0  0  0  0  0  0  0
   39.8820   29.0870   39.4720 H   0  0  0  0  0  0  0  0  0  0  0  0
   40.6400   28.5070   40.4610 S   0  0  0  0  0  0  0  0  0  0  0  0
   42.1100   28.7500   40.2240 O   0  0  0  0  0  0  0  0  0  0  0  0
   40.4540   27.0010   40.4030 O   0  0  0  0  0  0  0  0  0  0  0  0
  1  8  1  0  0  0  0
  2  1  2  0  0  0  0
  2  6  1  0  0  0  0
  3  2  1  0  0  0  0
  4  3  1  0  0  0  0
  4  5  2  0  0  0  0
  5  1  1  0  0  0  0
  7 13  1  0  0  0  0
  7 12  1  0  0  0  0
  8  7  2  0  0  0  0
  9  8  1  0  0  0  0
  9 10  2  0  0  0  0
 10 11  1  0  0  0  0
 11 12  2  0  0  0  0
 11 15  1  0  0  0  0
 14  9  1  0  0  0  0
 16 17  2  0  0  0  0
 16 21  1  0  0  0  0
 17 18  1  0  0  0  0
 18 19  2  0  0  0  0
 19  4  1  0  0  0  0
 20 19  1  0  0  0  0
 21 20  2  0  0  0  0
 22 23  1  0  0  0  0
 23 16  1  0  0  0  0
 24 23  2  0  0  0  0
 25 23  2  0  0  0  0
M  END
>  <minimizedAffinity>
-5.66352654

>  <minimizedRMSD>
0.974673688

$$$$
