
 OpenBabel03252514073D

 41 44  0  0  0  0  0  0  0  0999 V2000
   34.2220   30.0660   47.5970 C   0  0  0  0  0  0  0  0  0  0  0  0
   35.2440   29.8150   48.5370 C   0  0  0  0  0  0  0  0  0  0  0  0
   35.2010   28.5820   49.1820 C   0  0  0  0  0  0  0  0  0  0  0  0
   34.2140   27.7040   48.8870 N   0  0  0  0  0  0  0  0  0  0  0  0
   33.2470   27.9690   47.9810 C   0  0  0  0  0  0  0  0  0  0  0  0
   33.2580   29.1570   47.3380 N   0  0  0  0  0  0  0  0  0  0  0  0
   34.2220   31.0180   47.0740 H   0  0  0  0  0  0  0  0  0  0  0  0
   35.9730   28.3890   49.8950 H   0  0  0  0  0  0  0  0  0  0  0  0
   36.2160   30.8260   48.7450 N   0  0  0  0  0  0  0  0  0  0  0  0
   36.3650   31.5110   49.8970 C   0  0  0  0  0  0  0  0  0  0  0  0
   37.3790   32.3940   49.7510 N   0  0  0  0  0  0  0  0  0  0  0  0
   37.8470   32.2430   48.5060 C   0  0  0  0  0  0  0  0  0  0  0  0
   38.8630   32.8470   47.7710 C   0  0  0  0  0  0  0  0  0  0  0  0
   39.1290   32.4990   46.5100 N   0  0  0  0  0  0  0  0  0  0  0  0
   38.4170   31.5310   45.8780 C   0  0  0  0  0  0  0  0  0  0  0  0
   37.4360   30.9440   46.5810 N   0  0  0  0  0  0  0  0  0  0  0  0
   37.1310   31.2600   47.8500 C   0  0  0  0  0  0  0  0  0  0  0  0
   35.8240   31.4450   50.8230 H   0  0  0  0  0  0  0  0  0  0  0  0
   38.6140   31.2320   44.8580 H   0  0  0  0  0  0  0  0  0  0  0  0
   39.6320   33.8600   48.3810 N   0  0  0  0  0  0  0  0  0  0  0  0
   40.3010   33.8040   49.1580 H   0  0  0  0  0  0  0  0  0  0  0  0
   39.5290   34.8420   48.0060 H   0  0  0  0  0  0  0  0  0  0  0  0
   32.1710   27.0150   47.6490 C   0  0  0  0  0  0  0  0  0  0  0  0
   31.0330   27.1850   48.6850 C   0  0  0  0  0  0  0  0  0  0  0  0
   31.3790   26.7990   49.6630 H   0  0  0  0  0  0  0  0  0  0  0  0
   30.1610   26.6570   48.3040 H   0  0  0  0  0  0  0  0  0  0  0  0
   30.7910   28.2760   48.7120 H   0  0  0  0  0  0  0  0  0  0  0  0
   31.5300   27.3350   46.3220 C   0  0  0  0  0  0  0  0  0  0  0  0
   31.3540   26.4110   45.7190 H   0  0  0  0  0  0  0  0  0  0  0  0
   30.4880   27.7630   46.4280 H   0  0  0  0  0  0  0  0  0  0  0  0
   32.0800   28.1120   45.7440 H   0  0  0  0  0  0  0  0  0  0  0  0
   32.6210   25.5930   47.6350 C   0  0  0  0  0  0  0  0  0  0  0  0
   31.8350   24.9080   48.0770 H   0  0  0  0  0  0  0  0  0  0  0  0
   33.4400   25.5380   48.4280 H   0  0  0  0  0  0  0  0  0  0  0  0
   33.1060   25.0170   46.4790 N   0  0  0  0  0  0  0  0  0  0  0  0
   32.2790   24.0050   45.9310 C   0  0  0  0  0  2  0  0  0  0  0  0
   32.3060   24.1070   44.4220 C   0  0  0  0  0  2  0  0  0  0  0  0
   33.6290   23.9060   43.9580 N   0  0  0  0  0  0  0  0  0  0  0  0
   33.8490   22.9110   43.6960 H   0  0  0  0  0  0  0  0  0  0  0  0
   34.7020   24.4160   44.7250 C   0  0  0  0  0  2  0  0  0  0  0  0
   34.3330   25.2960   45.8940 C   0  0  0  0  0  2  0  0  0  0  0  0
  1  2  1  0  0  0  0
  2  9  1  0  0  0  0
  2  3  2  0  0  0  0
  3  8  1  0  0  0  0
  4  3  1  0  0  0  0
  5  4  2  0  0  0  0
  6  1  2  0  0  0  0
  6  5  1  0  0  0  0
  7  1  1  0  0  0  0
  9 10  1  0  0  0  0
 10 18  1  0  0  0  0
 11 10  2  0  0  0  0
 12 11  1  0  0  0  0
 13 20  1  0  0  0  0
 13 12  2  0  0  0  0
 14 13  1  0  0  0  0
 15 14  2  0  0  0  0
 15 16  1  0  0  0  0
 16 17  2  0  0  0  0
 17 12  1  0  0  0  0
 17  9  1  0  0  0  0
 19 15  1  0  0  0  0
 20 21  1  0  0  0  0
 22 20  1  0  0  0  0
 23  5  1  0  0  0  0
 23 24  1  0  0  0  0
 24 27  1  0  0  0  0
 24 25  1  0  0  0  0
 26 24  1  0  0  0  0
 28 30  1  0  0  0  0
 28 23  1  0  0  0  0
 29 28  1  0  0  0  0
 31 28  1  0  0  0  0
 32 23  1  0  0  0  0
 32 33  1  0  0  0  0
 32 34  1  0  0  0  0
 35 32  1  0  0  0  0
 36 35  1  0  0  0  0
 37 36  1  0  0  0  0
 38 37  1  0  0  0  0
 38 40  1  0  0  0  0
 39 38  1  0  0  0  0
 40 41  1  0  0  0  0
 41 35  1  0  0  0  0
M  END
>  <minimizedAffinity>
-5.20740318

>  <minimizedRMSD>
1.13777149

$$$$
