
 OpenBabel03252513593D

 25 26  0  0  1  0  0  0  0  0999 V2000
   35.3280   29.4370   49.0480 C   0  0  2  0  0  0  0  0  0  0  0  0
   34.2210   29.4400   50.0160 C   0  0  0  0  0  0  0  0  0  0  0  0
   34.5570   28.1570   49.4080 C   0  0  1  0  0  0  0  0  0  0  0  0
   35.1750   29.9140   48.0780 H   0  0  0  0  0  0  0  0  0  0  0  0
   34.5250   29.5760   51.0910 H   0  0  0  0  0  0  0  0  0  0  0  0
   33.2270   29.8960   49.7970 H   0  0  0  0  0  0  0  0  0  0  0  0
   35.2370   27.3630   49.7320 H   0  0  0  0  0  0  0  0  0  0  0  0
   36.7500   29.4220   49.5990 C   0  0  0  0  0  0  0  0  0  0  0  0
   36.6590   29.4500   50.7020 H   0  0  0  0  0  0  0  0  0  0  0  0
   37.2630   28.4880   49.3240 H   0  0  0  0  0  0  0  0  0  0  0  0
   37.9360   32.8800   49.4220 C   0  0  0  0  0  0  0  0  0  0  0  0
   38.6940   32.9050   48.2410 C   0  0  0  0  0  0  0  0  0  0  0  0
   38.7810   31.7030   47.5170 C   0  0  0  0  0  0  0  0  0  0  0  0
   38.1320   30.5940   47.9970 N   0  0  0  0  0  0  0  0  0  0  0  0
   37.4180   30.6410   49.1430 C   0  0  0  0  0  0  0  0  0  0  0  0
   37.3280   31.7930   49.8480 N   0  0  0  0  0  0  0  0  0  0  0  0
   37.8430   33.7710   50.0030 H   0  0  0  0  0  0  0  0  0  0  0  0
   39.1710   33.8030   47.9290 H   0  0  0  0  0  0  0  0  0  0  0  0
   39.3550   31.6820   46.6030 H   0  0  0  0  0  0  0  0  0  0  0  0
   33.5590   27.6490   48.4010 C   0  0  0  0  0  0  0  0  0  0  0  0
   33.9940   26.6720   47.6680 O   0  0  0  0  0  0  0  0  0  0  0  0
   32.2700   28.1210   48.2120 O   0  0  0  0  0  0  0  0  0  0  0  0
   31.1740   27.4450   48.6750 C   0  0  0  0  0  0  0  0  0  0  0  0
   30.9420   26.5920   48.0250 H   0  0  0  0  0  0  0  0  0  0  0  0
   30.6670   27.9260   49.7260 O   0  0  0  0  0  0  0  0  0  0  0  0
  1  4  1  6  0  0  0
  1  3  1  0  0  0  0
  1  8  1  0  0  0  0
  1  2  1  0  0  0  0
  2  5  1  0  0  0  0
  3  7  1  1  0  0  0
  3  2  1  0  0  0  0
  6  2  1  0  0  0  0
  8  9  1  0  0  0  0
 10  8  1  0  0  0  0
 11 16  1  0  0  0  0
 11 17  1  0  0  0  0
 12 11  2  0  0  0  0
 13 14  2  0  0  0  0
 13 12  1  0  0  0  0
 14 15  1  0  0  0  0
 15  8  1  0  0  0  0
 15 16  2  0  0  0  0
 18 12  1  0  0  0  0
 19 13  1  0  0  0  0
 20  3  1  0  0  0  0
 21 20  2  0  0  0  0
 22 20  1  0  0  0  0
 22 23  1  0  0  0  0
 23 25  2  0  0  0  0
 24 23  1  0  0  0  0
M  END
>  <minimizedAffinity>
-4.61629391

>  <minimizedRMSD>
0.905813932

$$$$
