
 OpenBabel03252513293D

 39 41  0  0  0  0  0  0  0  0999 V2000
   31.7010   26.5740   47.8580 C   0  0  0  0  0  0  0  0  0  0  0  0
   31.4850   25.3490   47.3420 C   0  0  0  0  0  0  0  0  0  0  0  0
   32.5030   24.4970   46.9390 C   0  0  0  0  0  0  0  0  0  0  0  0
   33.7850   24.9750   47.0950 C   0  0  0  0  0  0  0  0  0  0  0  0
   34.0260   26.2170   47.6180 C   0  0  0  0  0  0  0  0  0  0  0  0
   32.9910   27.0370   48.0080 C   0  0  0  0  0  0  0  0  0  0  0  0
   30.4510   25.0280   47.2440 H   0  0  0  0  0  0  0  0  0  0  0  0
   32.2040   23.5390   46.5400 H   0  0  0  0  0  0  0  0  0  0  0  0
   34.5710   24.2910   46.7710 H   0  0  0  0  0  0  0  0  0  0  0  0
   35.0480   26.5430   47.7180 H   0  0  0  0  0  0  0  0  0  0  0  0
   29.1490   28.2820   49.8930 C   0  0  0  0  0  0  0  0  0  0  0  0
   28.5040   29.1070   48.9450 C   0  0  0  0  0  0  0  0  0  0  0  0
   28.9710   29.0520   47.6240 C   0  0  0  0  0  0  0  0  0  0  0  0
   30.0150   28.2100   47.3250 N   0  0  0  0  0  0  0  0  0  0  0  0
   30.5960   27.4410   48.2710 C   0  0  0  0  0  0  0  0  0  0  0  0
   30.1580   27.4890   49.5290 N   0  0  0  0  0  0  0  0  0  0  0  0
   28.7590   28.3560   50.8890 H   0  0  0  0  0  0  0  0  0  0  0  0
   28.5420   29.6450   46.8330 H   0  0  0  0  0  0  0  0  0  0  0  0
   27.3810   30.0060   49.2950 C   0  0  0  0  0  0  0  0  0  0  0  0
   27.7310   31.0060   50.1580 F   0  0  0  0  0  0  0  0  0  0  0  0
   26.3330   29.3090   49.8700 F   0  0  0  0  0  0  0  0  0  0  0  0
   26.8930   30.6160   48.1230 F   0  0  0  0  0  0  0  0  0  0  0  0
   33.2100   28.3820   48.5740 C   0  0  0  0  0  0  0  0  0  0  0  0
   33.4810   28.2390   49.6290 H   0  0  0  0  0  0  0  0  0  0  0  0
   32.2180   28.9240   48.6200 H   0  0  0  0  0  0  0  0  0  0  0  0
   34.1050   29.2630   47.7760 C   0  0  0  0  0  0  0  0  0  0  0  0
   33.6100   30.2300   47.4670 H   0  0  0  0  0  0  0  0  0  0  0  0
   34.3600   28.7750   46.8100 H   0  0  0  0  0  0  0  0  0  0  0  0
   35.2870   29.6260   48.5550 C   0  0  0  0  0  0  0  0  0  0  0  0
   35.7870   28.8630   49.5970 C   0  0  0  0  0  0  0  0  0  0  0  0
   36.9010   29.4740   50.1230 C   0  0  0  0  0  0  0  0  0  0  0  0
   37.0510   30.6140   49.3700 N   0  0  0  0  0  0  0  0  0  0  0  0
   36.1020   30.6970   48.4540 N   0  0  0  0  0  0  0  0  0  0  0  0
   35.4990   27.9290   50.0610 H   0  0  0  0  0  0  0  0  0  0  0  0
   37.5880   29.2490   50.9150 H   0  0  0  0  0  0  0  0  0  0  0  0
   38.0720   31.6420   49.4900 C   0  0  0  0  0  0  0  0  0  0  0  0
   38.8480   31.6950   48.3290 F   0  0  0  0  0  0  0  0  0  0  0  0
   38.8370   31.3280   50.5900 F   0  0  0  0  0  0  0  0  0  0  0  0
   37.4680   32.8890   49.6040 F   0  0  0  0  0  0  0  0  0  0  0  0
  1  6  1  0  0  0  0
  1 15  1  0  0  0  0
  2  1  2  0  0  0  0
  3  4  2  0  0  0  0
  3  2  1  0  0  0  0
  4  5  1  0  0  0  0
  5 10  1  0  0  0  0
  5  6  2  0  0  0  0
  6 23  1  0  0  0  0
  7  2  1  0  0  0  0
  8  3  1  0  0  0  0
  9  4  1  0  0  0  0
 11 17  1  0  0  0  0
 12 19  1  0  0  0  0
 12 11  2  0  0  0  0
 13 12  1  0  0  0  0
 14 13  2  0  0  0  0
 14 15  1  0  0  0  0
 15 16  2  0  0  0  0
 16 11  1  0  0  0  0
 18 13  1  0  0  0  0
 19 21  1  0  0  0  0
 19 20  1  0  0  0  0
 22 19  1  0  0  0  0
 23 25  1  0  0  0  0
 23 24  1  0  0  0  0
 26 29  1  0  0  0  0
 26 23  1  0  0  0  0
 27 26  1  0  0  0  0
 28 26  1  0  0  0  0
 29 30  1  0  0  0  0
 30 34  1  0  0  0  0
 30 31  2  0  0  0  0
 31 35  1  0  0  0  0
 32 36  1  0  0  0  0
 32 31  1  0  0  0  0
 33 29  2  0  0  0  0
 33 32  1  0  0  0  0
 36 39  1  0  0  0  0
 36 38  1  0  0  0  0
 37 36  1  0  0  0  0
M  END
>  <minimizedAffinity>
-6.92398882

>  <minimizedRMSD>
0.829359055

$$$$
