
 OpenBabel03252513523D

 35 36  0  0  1  0  0  0  0  0999 V2000
   38.0300   31.1640   47.0940 C   0  0  0  0  0  0  0  0  0  0  0  0
   38.4940   31.4490   48.2160 O   0  0  0  0  0  0  0  0  0  0  0  0
   38.8660   31.5140   45.9860 N   0  0  0  0  0  0  0  0  0  0  0  0
   38.9990   30.5130   44.9430 C   0  0  0  0  0  0  0  0  0  0  0  0
   40.1910   30.7950   44.0560 C   0  0  0  0  0  0  0  0  0  0  0  0
   41.1790   31.3480   44.8710 O   0  0  0  0  0  0  0  0  0  0  0  0
   40.7980   32.6900   45.0520 C   0  0  0  0  0  0  0  0  0  0  0  0
   39.5480   32.7790   45.8840 C   0  0  2  0  0  0  0  0  0  0  0  0
   39.0860   29.5150   45.4130 H   0  0  0  0  0  0  0  0  0  0  0  0
   38.0610   30.4600   44.3280 H   0  0  0  0  0  0  0  0  0  0  0  0
   40.5460   29.8100   43.6870 H   0  0  0  0  0  0  0  0  0  0  0  0
   39.9120   31.4860   43.2410 H   0  0  0  0  0  0  0  0  0  0  0  0
   41.6820   33.1700   45.5310 H   0  0  0  0  0  0  0  0  0  0  0  0
   40.6890   33.2120   44.0770 H   0  0  0  0  0  0  0  0  0  0  0  0
   38.8820   33.6040   45.5490 H   0  0  0  0  0  0  0  0  0  0  0  0
   34.8240   29.3880   47.9880 C   0  0  0  0  0  0  0  0  0  0  0  0
   36.1170   30.0170   48.1400 C   0  0  0  0  0  0  0  0  0  0  0  0
   36.7310   30.5240   46.9880 C   0  0  0  0  0  0  0  0  0  0  0  0
   36.0530   30.3830   45.8090 N   0  0  0  0  0  0  0  0  0  0  0  0
   34.8670   29.7970   45.7220 C   0  0  0  0  0  0  0  0  0  0  0  0
   34.2630   29.3090   46.7900 N   0  0  0  0  0  0  0  0  0  0  0  0
   36.5610   30.0740   49.1130 H   0  0  0  0  0  0  0  0  0  0  0  0
   34.2910   29.7390   44.3520 C   0  0  0  0  0  0  0  0  0  0  0  0
   34.2730   31.0220   43.7840 F   0  0  0  0  0  0  0  0  0  0  0  0
   35.1150   28.9820   43.5370 F   0  0  0  0  0  0  0  0  0  0  0  0
   33.0410   29.1430   44.3110 F   0  0  0  0  0  0  0  0  0  0  0  0
   34.2360   28.8920   49.1470 O   0  0  0  0  0  0  0  0  0  0  0  0
   34.1200   29.6000   50.3410 C   0  0  0  0  0  0  0  0  0  0  0  0
   35.0040   29.1600   51.3200 F   0  0  0  0  0  0  0  0  0  0  0  0
   34.1850   30.9670   50.2150 F   0  0  0  0  0  0  0  0  0  0  0  0
   32.8160   29.3130   50.8040 F   0  0  0  0  0  0  0  0  0  0  0  0
   39.9790   33.0800   47.1840 O   0  0  0  0  0  0  0  0  0  0  0  0
   40.0940   34.3050   47.7660 C   0  0  0  0  0  0  0  0  0  0  0  0
   40.5550   35.1230   47.2090 H   0  0  0  0  0  0  0  0  0  0  0  0
   39.6590   34.4470   48.9340 O   0  0  0  0  0  0  0  0  0  0  0  0
  1  2  2  0  0  0  0
  3  1  1  0  0  0  0
  4  9  1  0  0  0  0
  4  3  1  0  0  0  0
  5  6  1  0  0  0  0
  5  4  1  0  0  0  0
  6  7  1  0  0  0  0
  7 13  1  0  0  0  0
  7  8  1  0  0  0  0
  8 15  1  6  0  0  0
  8  3  1  0  0  0  0
  8 32  1  0  0  0  0
 10  4  1  0  0  0  0
 11  5  1  0  0  0  0
 12  5  1  0  0  0  0
 14  7  1  0  0  0  0
 16 17  1  0  0  0  0
 16 27  1  0  0  0  0
 17 22  1  0  0  0  0
 18  1  1  0  0  0  0
 18 17  2  0  0  0  0
 19 18  1  0  0  0  0
 20 19  2  0  0  0  0
 20 21  1  0  0  0  0
 21 16  2  0  0  0  0
 23 20  1  0  0  0  0
 24 23  1  0  0  0  0
 25 23  1  0  0  0  0
 26 23  1  0  0  0  0
 27 28  1  0  0  0  0
 28 31  1  0  0  0  0
 28 29  1  0  0  0  0
 30 28  1  0  0  0  0
 32 33  1  0  0  0  0
 33 35  2  0  0  0  0
 34 33  1  0  0  0  0
M  END
>  <minimizedAffinity>
-5.15053988

>  <minimizedRMSD>
0.468082219

$$$$
