
 OpenBabel03252509533D

 26 27  0  0  0  0  0  0  0  0999 V2000
   40.3860   31.5560   45.8030 C   0  0  0  0  0  0  0  0  0  0  0  0
   40.0490   32.4780   44.7760 C   0  0  0  0  0  0  0  0  0  0  0  0
   38.7000   32.7820   44.6030 C   0  0  0  0  0  0  0  0  0  0  0  0
   37.8000   32.1760   45.4290 N   0  0  0  0  0  0  0  0  0  0  0  0
   38.1460   31.3080   46.3890 C   0  0  0  0  0  0  0  0  0  0  0  0
   39.4290   30.9980   46.5800 N   0  0  0  0  0  0  0  0  0  0  0  0
   37.1520   30.7130   47.2160 N   0  0  0  0  0  0  0  0  0  0  0  0
   35.9420   30.3890   46.7110 C   0  0  0  0  0  0  0  0  0  0  0  0
   34.9560   29.8090   47.4860 C   0  0  0  0  0  0  0  0  0  0  0  0
   35.3020   29.5920   48.7950 C   0  0  0  0  0  0  0  0  0  0  0  0
   34.4720   29.0700   49.5790 O   0  0  0  0  0  0  0  0  0  0  0  0
   36.4880   29.8950   49.3500 N   0  0  0  0  0  0  0  0  0  0  0  0
   37.4100   30.4640   48.5190 C   0  0  0  0  0  0  0  0  0  0  0  0
   38.5230   30.7560   49.0080 O   0  0  0  0  0  0  0  0  0  0  0  0
   41.4170   31.2890   45.9750 H   0  0  0  0  0  0  0  0  0  0  0  0
   40.8160   32.9230   44.1570 H   0  0  0  0  0  0  0  0  0  0  0  0
   38.3800   33.4730   43.8420 H   0  0  0  0  0  0  0  0  0  0  0  0
   35.7340   30.5880   45.6660 H   0  0  0  0  0  0  0  0  0  0  0  0
   33.6180   29.4370   46.9830 C   0  0  0  0  0  0  0  0  0  0  0  0
   32.8730   30.1520   47.3590 H   0  0  0  0  0  0  0  0  0  0  0  0
   33.6540   29.5260   45.8770 H   0  0  0  0  0  0  0  0  0  0  0  0
   33.3730   28.3710   47.2320 H   0  0  0  0  0  0  0  0  0  0  0  0
   36.7810   29.6360   50.7390 C   0  0  0  0  0  0  0  0  0  0  0  0
   37.7310   28.6590   50.8360 F   0  0  0  0  0  0  0  0  0  0  0  0
   37.2610   30.7830   51.3820 F   0  0  0  0  0  0  0  0  0  0  0  0
   35.6130   29.2500   51.3890 F   0  0  0  0  0  0  0  0  0  0  0  0
  1 15  1  0  0  0  0
  1  6  1  0  0  0  0
  2  1  2  0  0  0  0
  3  2  1  0  0  0  0
  3  4  2  0  0  0  0
  4  5  1  0  0  0  0
  5  6  2  0  0  0  0
  5  7  1  0  0  0  0
  7 13  1  0  0  0  0
  8  7  1  0  0  0  0
  8  9  2  0  0  0  0
  9 10  1  0  0  0  0
 10 12  1  0  0  0  0
 10 11  2  0  0  0  0
 12 23  1  0  0  0  0
 13 14  2  0  0  0  0
 13 12  1  0  0  0  0
 16  2  1  0  0  0  0
 17  3  1  0  0  0  0
 18  8  1  0  0  0  0
 19 22  1  0  0  0  0
 19 20  1  0  0  0  0
 19  9  1  0  0  0  0
 21 19  1  0  0  0  0
 23 24  1  0  0  0  0
 23 25  1  0  0  0  0
 23 26  1  0  0  0  0
M  END
>  <minimizedAffinity>
-6.4406395

>  <minimizedRMSD>
4.25282669

$$$$
