
 OpenBabel03252514033D

 36 39  0  0  1  0  0  0  0  0999 V2000
   35.3480   29.3570   48.8920 C   0  0  2  0  0  0  0  0  0  0  0  0
   34.1800   29.1980   49.7490 C   0  0  0  0  0  0  0  0  0  0  0  0
   34.6480   27.9830   49.1470 C   0  0  1  0  0  0  0  0  0  0  0  0
   35.2920   29.7170   47.8640 H   0  0  0  0  0  0  0  0  0  0  0  0
   33.2080   29.6820   49.4500 H   0  0  0  0  0  0  0  0  0  0  0  0
   34.3410   29.3720   50.8550 H   0  0  0  0  0  0  0  0  0  0  0  0
   35.3190   27.2330   49.5640 H   0  0  0  0  0  0  0  0  0  0  0  0
   36.7140   29.4010   49.5990 C   0  0  0  0  0  0  0  0  0  0  0  0
   36.5770   29.3870   50.6830 H   0  0  0  0  0  0  0  0  0  0  0  0
   37.2730   28.4640   49.3350 H   0  0  0  0  0  0  0  0  0  0  0  0
   38.1220   32.7670   49.4440 C   0  0  0  0  0  0  0  0  0  0  0  0
   38.7790   32.7710   48.1990 C   0  0  0  0  0  0  0  0  0  0  0  0
   38.7220   31.5890   47.4230 C   0  0  0  0  0  0  0  0  0  0  0  0
   38.0360   30.5130   47.9210 N   0  0  0  0  0  0  0  0  0  0  0  0
   37.4270   30.5730   49.1230 C   0  0  0  0  0  0  0  0  0  0  0  0
   37.4790   31.7010   49.8710 N   0  0  0  0  0  0  0  0  0  0  0  0
   38.1860   33.6800   50.0060 H   0  0  0  0  0  0  0  0  0  0  0  0
   39.3240   33.6320   47.8040 H   0  0  0  0  0  0  0  0  0  0  0  0
   39.2050   31.5280   46.4560 H   0  0  0  0  0  0  0  0  0  0  0  0
   33.8000   27.4550   48.0080 C   0  0  0  0  0  0  0  0  0  0  0  0
   34.0030   26.1910   47.7850 O   0  0  0  0  0  0  0  0  0  0  0  0
   32.8830   28.1810   47.2450 O   0  0  0  0  0  0  0  0  0  0  0  0
   31.5410   28.2000   47.5190 C   0  0  0  0  0  0  0  0  0  0  0  0
   30.9050   27.6090   48.7220 C   0  0  0  0  0  0  0  0  0  0  0  0
   29.5650   27.7170   48.8370 C   0  0  0  0  0  0  0  0  0  0  0  0
   28.7790   28.3660   47.8630 C   0  0  0  0  0  0  0  0  0  0  0  0
   30.0350   28.9100   46.6030 S   0  0  0  0  0  0  0  0  0  0  0  0
   31.5610   27.1300   49.4240 H   0  0  0  0  0  0  0  0  0  0  0  0
   29.0360   27.3100   49.6840 H   0  0  0  0  0  0  0  0  0  0  0  0
   27.4590   28.5900   47.7660 N   0  0  0  0  0  0  0  0  0  0  0  0
   26.3840   27.8060   48.3930 C   0  0  0  0  0  0  0  0  0  0  0  0
   25.8400   28.6970   49.4800 C   0  0  0  0  0  0  0  0  0  0  0  0
   25.5320   30.0220   49.0960 N   0  0  0  0  0  0  0  0  0  0  0  0
   24.5880   30.3740   49.2570 H   0  0  0  0  0  0  0  0  0  0  0  0
   26.3160   30.6270   48.0830 C   0  0  0  0  0  0  0  0  0  0  0  0
   26.8230   29.6800   47.0090 C   0  0  0  0  0  0  0  0  0  0  0  0
  1  4  1  6  0  0  0
  1  3  1  0  0  0  0
  1  8  1  0  0  0  0
  1  2  1  0  0  0  0
  2  6  1  0  0  0  0
  3  7  1  1  0  0  0
  3  2  1  0  0  0  0
  5  2  1  0  0  0  0
  8  9  1  0  0  0  0
 10  8  1  0  0  0  0
 11 16  1  0  0  0  0
 11 17  1  0  0  0  0
 12 11  2  0  0  0  0
 13 14  2  0  0  0  0
 13 12  1  0  0  0  0
 14 15  1  0  0  0  0
 15  8  1  0  0  0  0
 15 16  2  0  0  0  0
 18 12  1  0  0  0  0
 19 13  1  0  0  0  0
 20  3  1  0  0  0  0
 21 20  2  0  0  0  0
 22 23  1  0  0  0  0
 22 20  1  0  0  0  0
 23 24  2  0  0  0  0
 24 25  1  0  0  0  0
 24 28  1  0  0  0  0
 25 29  1  0  0  0  0
 26 25  2  0  0  0  0
 27 23  1  0  0  0  0
 27 26  1  0  0  0  0
 30 26  1  0  0  0  0
 30 31  1  0  0  0  0
 31 32  1  0  0  0  0
 33 34  1  0  0  0  0
 33 32  1  0  0  0  0
 35 33  1  0  0  0  0
 36 30  1  0  0  0  0
 36 35  1  0  0  0  0
M  END
>  <minimizedAffinity>
-6.29409313

>  <minimizedRMSD>
1.46589375

$$$$
