
 OpenBabel03252514073D

 41 44  0  0  0  0  0  0  0  0999 V2000
   34.1850   30.1030   47.5560 C   0  0  0  0  0  0  0  0  0  0  0  0
   35.1640   29.8780   48.5480 C   0  0  0  0  0  0  0  0  0  0  0  0
   35.0170   28.7210   49.3100 C   0  0  0  0  0  0  0  0  0  0  0  0
   33.9770   27.8890   49.0720 N   0  0  0  0  0  0  0  0  0  0  0  0
   33.0530   28.1280   48.1150 C   0  0  0  0  0  0  0  0  0  0  0  0
   33.1660   29.2420   47.3590 N   0  0  0  0  0  0  0  0  0  0  0  0
   34.2670   30.9960   46.9430 H   0  0  0  0  0  0  0  0  0  0  0  0
   35.7570   28.5480   50.0610 H   0  0  0  0  0  0  0  0  0  0  0  0
   36.2010   30.8350   48.6850 N   0  0  0  0  0  0  0  0  0  0  0  0
   36.4850   31.4870   49.8310 C   0  0  0  0  0  0  0  0  0  0  0  0
   37.5270   32.3220   49.6100 N   0  0  0  0  0  0  0  0  0  0  0  0
   37.8760   32.1740   48.3260 C   0  0  0  0  0  0  0  0  0  0  0  0
   38.8520   32.7420   47.5130 C   0  0  0  0  0  0  0  0  0  0  0  0
   38.9880   32.4080   46.2280 N   0  0  0  0  0  0  0  0  0  0  0  0
   38.1750   31.4900   45.6460 C   0  0  0  0  0  0  0  0  0  0  0  0
   37.2300   30.9380   46.4230 N   0  0  0  0  0  0  0  0  0  0  0  0
   37.0550   31.2410   47.7200 C   0  0  0  0  0  0  0  0  0  0  0  0
   36.0260   31.4280   50.8000 H   0  0  0  0  0  0  0  0  0  0  0  0
   38.2650   31.2030   44.6070 H   0  0  0  0  0  0  0  0  0  0  0  0
   39.7230   33.7020   48.0690 N   0  0  0  0  0  0  0  0  0  0  0  0
   40.4540   33.5970   48.7830 H   0  0  0  0  0  0  0  0  0  0  0  0
   39.6380   34.6960   47.7220 H   0  0  0  0  0  0  0  0  0  0  0  0
   31.9200   27.2220   47.8460 C   0  0  0  0  0  0  0  0  0  0  0  0
   30.8750   27.4020   48.9750 C   0  0  0  0  0  0  0  0  0  0  0  0
   31.2830   26.9740   49.9110 H   0  0  0  0  0  0  0  0  0  0  0  0
   29.9560   26.9150   48.6510 H   0  0  0  0  0  0  0  0  0  0  0  0
   30.6760   28.4990   49.0490 H   0  0  0  0  0  0  0  0  0  0  0  0
   31.1870   27.6040   46.5830 C   0  0  0  0  0  0  0  0  0  0  0  0
   30.9300   26.7040   45.9730 H   0  0  0  0  0  0  0  0  0  0  0  0
   30.1740   28.0640   46.7840 H   0  0  0  0  0  0  0  0  0  0  0  0
   31.7180   28.3770   45.9840 H   0  0  0  0  0  0  0  0  0  0  0  0
   32.3140   25.7860   47.7580 C   0  0  0  0  0  0  0  0  0  0  0  0
   31.5060   25.1110   48.1740 H   0  0  0  0  0  0  0  0  0  0  0  0
   33.1370   25.6610   48.5390 H   0  0  0  0  0  0  0  0  0  0  0  0
   32.7660   25.2490   46.5700 N   0  0  0  0  0  0  0  0  0  0  0  0
   34.1120   25.5570   46.2560 C   0  0  0  0  0  2  0  0  0  0  0  0
   34.7630   24.3510   45.6200 C   0  0  0  0  0  2  0  0  0  0  0  0
   34.0860   24.0240   44.4210 N   0  0  0  0  0  0  0  0  0  0  0  0
   34.5040   24.4570   43.5560 H   0  0  0  0  0  0  0  0  0  0  0  0
   32.6810   24.1860   44.3680 C   0  0  0  0  0  2  0  0  0  0  0  0
   31.9960   24.5280   45.6690 C   0  0  0  0  0  2  0  0  0  0  0  0
  1  2  1  0  0  0  0
  2  9  1  0  0  0  0
  2  3  2  0  0  0  0
  3  8  1  0  0  0  0
  4  3  1  0  0  0  0
  5  4  2  0  0  0  0
  6  1  2  0  0  0  0
  6  5  1  0  0  0  0
  7  1  1  0  0  0  0
  9 10  1  0  0  0  0
 10 18  1  0  0  0  0
 11 10  2  0  0  0  0
 12 11  1  0  0  0  0
 13 20  1  0  0  0  0
 13 12  2  0  0  0  0
 14 13  1  0  0  0  0
 15 14  2  0  0  0  0
 15 16  1  0  0  0  0
 16 17  2  0  0  0  0
 17 12  1  0  0  0  0
 17  9  1  0  0  0  0
 19 15  1  0  0  0  0
 20 21  1  0  0  0  0
 22 20  1  0  0  0  0
 23  5  1  0  0  0  0
 23 24  1  0  0  0  0
 24 27  1  0  0  0  0
 24 25  1  0  0  0  0
 26 24  1  0  0  0  0
 28 30  1  0  0  0  0
 28 23  1  0  0  0  0
 29 28  1  0  0  0  0
 31 28  1  0  0  0  0
 32 23  1  0  0  0  0
 32 33  1  0  0  0  0
 32 34  1  0  0  0  0
 35 32  1  0  0  0  0
 36 35  1  0  0  0  0
 37 36  1  0  0  0  0
 38 37  1  0  0  0  0
 39 38  1  0  0  0  0
 40 38  1  0  0  0  0
 40 41  1  0  0  0  0
 41 35  1  0  0  0  0
M  END
>  <minimizedAffinity>
-5.27302647

>  <minimizedRMSD>
1.2884506

$$$$
