
 OpenBabel03252514073D

 41 44  0  0  0  0  0  0  0  0999 V2000
   34.1970   30.0910   47.5590 C   0  0  0  0  0  0  0  0  0  0  0  0
   35.1810   29.8590   48.5430 C   0  0  0  0  0  0  0  0  0  0  0  0
   35.0550   28.6820   49.2780 C   0  0  0  0  0  0  0  0  0  0  0  0
   34.0270   27.8400   49.0240 N   0  0  0  0  0  0  0  0  0  0  0  0
   33.0970   28.0860   48.0750 C   0  0  0  0  0  0  0  0  0  0  0  0
   33.1900   29.2190   47.3440 N   0  0  0  0  0  0  0  0  0  0  0  0
   34.2630   30.9990   46.9660 H   0  0  0  0  0  0  0  0  0  0  0  0
   35.7980   28.5040   50.0240 H   0  0  0  0  0  0  0  0  0  0  0  0
   36.2040   30.8280   48.7000 N   0  0  0  0  0  0  0  0  0  0  0  0
   36.4610   31.4800   49.8530 C   0  0  0  0  0  0  0  0  0  0  0  0
   37.4960   32.3290   49.6510 N   0  0  0  0  0  0  0  0  0  0  0  0
   37.8660   32.1900   48.3730 C   0  0  0  0  0  0  0  0  0  0  0  0
   38.8480   32.7740   47.5770 C   0  0  0  0  0  0  0  0  0  0  0  0
   39.0080   32.4460   46.2930 N   0  0  0  0  0  0  0  0  0  0  0  0
   38.2160   31.5200   45.6950 C   0  0  0  0  0  0  0  0  0  0  0  0
   37.2670   30.9530   46.4550 N   0  0  0  0  0  0  0  0  0  0  0  0
   37.0670   31.2490   47.7500 C   0  0  0  0  0  0  0  0  0  0  0  0
   35.9880   31.4110   50.8150 H   0  0  0  0  0  0  0  0  0  0  0  0
   38.3270   31.2380   44.6570 H   0  0  0  0  0  0  0  0  0  0  0  0
   39.6970   33.7430   48.1500 N   0  0  0  0  0  0  0  0  0  0  0  0
   40.4180   33.6450   48.8750 H   0  0  0  0  0  0  0  0  0  0  0  0
   39.6040   34.7370   47.8050 H   0  0  0  0  0  0  0  0  0  0  0  0
   31.9770   27.1690   47.7870 C   0  0  0  0  0  0  0  0  0  0  0  0
   30.8710   27.4040   48.8450 C   0  0  0  0  0  0  0  0  0  0  0  0
   31.2250   27.0230   49.8220 H   0  0  0  0  0  0  0  0  0  0  0  0
   29.9710   26.9030   48.4940 H   0  0  0  0  0  0  0  0  0  0  0  0
   30.6730   28.5040   48.8540 H   0  0  0  0  0  0  0  0  0  0  0  0
   31.3180   27.4880   46.4680 C   0  0  0  0  0  0  0  0  0  0  0  0
   31.0920   26.5600   45.8890 H   0  0  0  0  0  0  0  0  0  0  0  0
   30.2970   27.9590   46.5890 H   0  0  0  0  0  0  0  0  0  0  0  0
   31.8840   28.2310   45.8620 H   0  0  0  0  0  0  0  0  0  0  0  0
   32.3710   25.7300   47.7920 C   0  0  0  0  0  0  0  0  0  0  0  0
   31.5230   25.0730   48.1550 H   0  0  0  0  0  0  0  0  0  0  0  0
   33.1150   25.6340   48.6520 H   0  0  0  0  0  0  0  0  0  0  0  0
   32.9310   25.1470   46.6740 N   0  0  0  0  0  0  0  0  0  0  0  0
   32.1240   24.1640   46.0520 C   0  0  0  0  0  2  0  0  0  0  0  0
   32.2770   24.2720   44.5520 C   0  0  0  0  0  2  0  0  0  0  0  0
   33.6250   24.0370   44.1940 N   0  0  0  0  0  0  0  0  0  0  0  0
   33.8370   23.0370   43.9430 H   0  0  0  0  0  0  0  0  0  0  0  0
   34.6470   24.5100   45.0500 C   0  0  0  0  0  2  0  0  0  0  0  0
   34.2100   25.3940   46.1930 C   0  0  0  0  0  2  0  0  0  0  0  0
  1  2  1  0  0  0  0
  2  9  1  0  0  0  0
  2  3  2  0  0  0  0
  3  8  1  0  0  0  0
  4  3  1  0  0  0  0
  5  4  2  0  0  0  0
  6  1  2  0  0  0  0
  6  5  1  0  0  0  0
  7  1  1  0  0  0  0
  9 10  1  0  0  0  0
 10 18  1  0  0  0  0
 11 10  2  0  0  0  0
 12 11  1  0  0  0  0
 13 20  1  0  0  0  0
 13 12  2  0  0  0  0
 14 13  1  0  0  0  0
 15 14  2  0  0  0  0
 15 16  1  0  0  0  0
 16 17  2  0  0  0  0
 17 12  1  0  0  0  0
 17  9  1  0  0  0  0
 19 15  1  0  0  0  0
 20 21  1  0  0  0  0
 22 20  1  0  0  0  0
 23 32  1  0  0  0  0
 23  5  1  0  0  0  0
 23 24  1  0  0  0  0
 24 27  1  0  0  0  0
 24 25  1  0  0  0  0
 26 24  1  0  0  0  0
 28 30  1  0  0  0  0
 28 23  1  0  0  0  0
 29 28  1  0  0  0  0
 31 28  1  0  0  0  0
 32 33  1  0  0  0  0
 32 34  1  0  0  0  0
 35 32  1  0  0  0  0
 36 35  1  0  0  0  0
 37 36  1  0  0  0  0
 38 37  1  0  0  0  0
 38 40  1  0  0  0  0
 39 38  1  0  0  0  0
 40 41  1  0  0  0  0
 41 35  1  0  0  0  0
M  END
>  <minimizedAffinity>
-5.22817469

>  <minimizedRMSD>
1.18655205

$$$$
