
 OpenBabel03252513033D

 29 30  0  0  0  0  0  0  0  0999 V2000
   37.6800   31.2280   46.8880 C   0  0  0  0  0  0  0  0  0  0  0  0
   36.6270   31.6080   47.0420 H   0  0  0  0  0  0  0  0  0  0  0  0
   37.5280   30.1570   46.6070 H   0  0  0  0  0  0  0  0  0  0  0  0
   38.2570   31.9080   45.8000 N   0  0  0  0  0  0  0  0  0  0  0  0
   39.3860   32.5990   45.7370 C   0  0  0  0  0  0  0  0  0  0  0  0
   39.8710   33.2330   44.6200 C   0  0  0  0  0  0  0  0  0  0  0  0
   39.1580   33.1720   43.4500 C   0  0  0  0  0  0  0  0  0  0  0  0
   39.5310   33.7220   42.3940 O   0  0  0  0  0  0  0  0  0  0  0  0
   38.0320   32.4920   43.4870 N   0  0  0  0  0  0  0  0  0  0  0  0
   37.5900   31.8860   44.5930 C   0  0  0  0  0  0  0  0  0  0  0  0
   36.4930   31.2580   44.5170 O   0  0  0  0  0  0  0  0  0  0  0  0
   39.9580   32.6480   46.6750 H   0  0  0  0  0  0  0  0  0  0  0  0
   40.8040   33.7700   44.6770 H   0  0  0  0  0  0  0  0  0  0  0  0
   37.2440   32.4050   42.2580 C   0  0  0  0  0  0  0  0  0  0  0  0
   36.5400   31.2250   42.2270 F   0  0  0  0  0  0  0  0  0  0  0  0
   38.1510   32.4000   41.2040 F   0  0  0  0  0  0  0  0  0  0  0  0
   36.4290   33.5010   42.1950 F   0  0  0  0  0  0  0  0  0  0  0  0
   38.3480   31.2560   48.2060 C   0  0  0  0  0  0  0  0  0  0  0  0
   39.3170   30.6890   48.0810 H   0  0  0  0  0  0  0  0  0  0  0  0
   38.6610   32.2580   48.5340 H   0  0  0  0  0  0  0  0  0  0  0  0
   35.8510   29.1580   50.1160 C   0  0  0  0  0  0  0  0  0  0  0  0
   36.5230   29.7770   49.0420 C   0  0  0  0  0  0  0  0  0  0  0  0
   37.6130   30.5880   49.2790 C   0  0  0  0  0  0  0  0  0  0  0  0
   38.0030   30.7610   50.5800 N   0  0  0  0  0  0  0  0  0  0  0  0
   37.3620   30.1730   51.5800 C   0  0  0  0  0  0  0  0  0  0  0  0
   36.3020   29.3800   51.3860 N   0  0  0  0  0  0  0  0  0  0  0  0
   35.0170   28.5490   49.8200 H   0  0  0  0  0  0  0  0  0  0  0  0
   36.2060   29.6350   48.0100 H   0  0  0  0  0  0  0  0  0  0  0  0
   37.7330   30.3610   52.5660 H   0  0  0  0  0  0  0  0  0  0  0  0
  1  2  1  0  0  0  0
  1 18  1  0  0  0  0
  3  1  1  0  0  0  0
  4  1  1  0  0  0  0
  5  4  1  0  0  0  0
  5 12  1  0  0  0  0
  6 13  1  0  0  0  0
  6  5  2  0  0  0  0
  7  9  1  0  0  0  0
  7  6  1  0  0  0  0
  8  7  2  0  0  0  0
  9 10  1  0  0  0  0
 10  4  1  0  0  0  0
 11 10  2  0  0  0  0
 14  9  1  0  0  0  0
 15 14  1  0  0  0  0
 16 14  1  0  0  0  0
 17 14  1  0  0  0  0
 18 20  1  0  0  0  0
 18 23  1  0  0  0  0
 19 18  1  0  0  0  0
 21 26  1  0  0  0  0
 22 23  1  0  0  0  0
 22 21  2  0  0  0  0
 23 24  2  0  0  0  0
 24 25  1  0  0  0  0
 25 29  1  0  0  0  0
 26 25  2  0  0  0  0
 27 21  1  0  0  0  0
 28 22  1  0  0  0  0
M  END
>  <minimizedAffinity>
-5.08048677

>  <minimizedRMSD>
1.20733106

$$$$
