
 OpenBabel03252514073D

 41 44  0  0  0  0  0  0  0  0999 V2000
   34.1760   30.1010   47.5580 C   0  0  0  0  0  0  0  0  0  0  0  0
   35.1600   29.8730   48.5440 C   0  0  0  0  0  0  0  0  0  0  0  0
   35.0160   28.7150   49.3040 C   0  0  0  0  0  0  0  0  0  0  0  0
   33.9730   27.8850   49.0710 N   0  0  0  0  0  0  0  0  0  0  0  0
   33.0450   28.1270   48.1190 C   0  0  0  0  0  0  0  0  0  0  0  0
   33.1540   29.2420   47.3640 N   0  0  0  0  0  0  0  0  0  0  0  0
   34.2560   30.9950   46.9460 H   0  0  0  0  0  0  0  0  0  0  0  0
   35.7590   28.5390   50.0510 H   0  0  0  0  0  0  0  0  0  0  0  0
   36.1990   30.8280   48.6770 N   0  0  0  0  0  0  0  0  0  0  0  0
   36.4890   31.4800   49.8220 C   0  0  0  0  0  0  0  0  0  0  0  0
   37.5320   32.3130   49.5970 N   0  0  0  0  0  0  0  0  0  0  0  0
   37.8740   32.1650   48.3120 C   0  0  0  0  0  0  0  0  0  0  0  0
   38.8480   32.7320   47.4950 C   0  0  0  0  0  0  0  0  0  0  0  0
   38.9780   32.3980   46.2090 N   0  0  0  0  0  0  0  0  0  0  0  0
   38.1610   31.4820   45.6300 C   0  0  0  0  0  0  0  0  0  0  0  0
   37.2190   30.9310   46.4110 N   0  0  0  0  0  0  0  0  0  0  0  0
   37.0490   31.2340   47.7090 C   0  0  0  0  0  0  0  0  0  0  0  0
   36.0340   31.4210   50.7930 H   0  0  0  0  0  0  0  0  0  0  0  0
   38.2470   31.1950   44.5910 H   0  0  0  0  0  0  0  0  0  0  0  0
   39.7230   33.6910   48.0480 N   0  0  0  0  0  0  0  0  0  0  0  0
   40.4560   33.5840   48.7590 H   0  0  0  0  0  0  0  0  0  0  0  0
   39.6380   34.6850   47.7010 H   0  0  0  0  0  0  0  0  0  0  0  0
   31.9080   27.2230   47.8550 C   0  0  0  0  0  0  0  0  0  0  0  0
   30.8500   27.4330   48.9650 C   0  0  0  0  0  0  0  0  0  0  0  0
   31.2430   27.0240   49.9150 H   0  0  0  0  0  0  0  0  0  0  0  0
   29.9330   26.9460   48.6390 H   0  0  0  0  0  0  0  0  0  0  0  0
   30.6590   28.5340   49.0130 H   0  0  0  0  0  0  0  0  0  0  0  0
   31.1960   27.5820   46.5740 C   0  0  0  0  0  0  0  0  0  0  0  0
   30.9400   26.6710   45.9790 H   0  0  0  0  0  0  0  0  0  0  0  0
   30.1830   28.0530   46.7520 H   0  0  0  0  0  0  0  0  0  0  0  0
   31.7390   28.3390   45.9660 H   0  0  0  0  0  0  0  0  0  0  0  0
   32.2940   25.7830   47.8020 C   0  0  0  0  0  0  0  0  0  0  0  0
   31.4360   25.1150   48.1200 H   0  0  0  0  0  0  0  0  0  0  0  0
   33.0220   25.6440   48.6710 H   0  0  0  0  0  0  0  0  0  0  0  0
   32.8720   25.2470   46.6700 N   0  0  0  0  0  0  0  0  0  0  0  0
   32.0790   24.2810   46.0020 C   0  0  0  0  0  2  0  0  0  0  0  0
   32.2480   24.4470   44.5090 C   0  0  0  0  0  2  0  0  0  0  0  0
   33.6040   24.2350   44.1590 N   0  0  0  0  0  0  0  0  0  0  0  0
   33.8270   23.2470   43.8730 H   0  0  0  0  0  0  0  0  0  0  0  0
   34.6120   24.6840   45.0440 C   0  0  0  0  0  2  0  0  0  0  0  0
   34.1530   25.5210   46.2140 C   0  0  0  0  0  2  0  0  0  0  0  0
  1  2  1  0  0  0  0
  2  9  1  0  0  0  0
  2  3  2  0  0  0  0
  3  8  1  0  0  0  0
  4  3  1  0  0  0  0
  5  4  2  0  0  0  0
  6  1  2  0  0  0  0
  6  5  1  0  0  0  0
  7  1  1  0  0  0  0
  9 10  1  0  0  0  0
 10 18  1  0  0  0  0
 11 10  2  0  0  0  0
 12 11  1  0  0  0  0
 13 20  1  0  0  0  0
 13 12  2  0  0  0  0
 14 13  1  0  0  0  0
 15 14  2  0  0  0  0
 15 16  1  0  0  0  0
 16 17  2  0  0  0  0
 17 12  1  0  0  0  0
 17  9  1  0  0  0  0
 19 15  1  0  0  0  0
 20 21  1  0  0  0  0
 22 20  1  0  0  0  0
 23  5  1  0  0  0  0
 23 24  1  0  0  0  0
 24 27  1  0  0  0  0
 24 25  1  0  0  0  0
 26 24  1  0  0  0  0
 28 30  1  0  0  0  0
 28 23  1  0  0  0  0
 29 28  1  0  0  0  0
 31 28  1  0  0  0  0
 32 23  1  0  0  0  0
 32 33  1  0  0  0  0
 32 34  1  0  0  0  0
 35 32  1  0  0  0  0
 36 35  1  0  0  0  0
 37 36  1  0  0  0  0
 38 37  1  0  0  0  0
 38 40  1  0  0  0  0
 39 38  1  0  0  0  0
 40 41  1  0  0  0  0
 41 35  1  0  0  0  0
M  END
>  <minimizedAffinity>
-5.22342014

>  <minimizedRMSD>
1.21660614

$$$$
