
 OpenBabel03252512443D

 31 33  0  0  1  0  0  0  0  0999 V2000
   39.5240   30.3570   44.3470 C   0  0  2  0  0  0  0  0  0  0  0  0
   40.1040   29.4570   44.5640 H   0  0  0  0  0  0  0  0  0  0  0  0
   38.3990   31.1430   47.7640 C   0  0  0  0  0  0  0  0  0  0  0  0
   38.8700   32.4680   47.8380 C   0  0  0  0  0  0  0  0  0  0  0  0
   39.6630   32.7470   46.2030 S   0  0  0  0  0  0  0  0  0  0  0  0
   39.1970   30.9600   45.6960 C   0  0  0  0  0  0  0  0  0  0  0  0
   38.6690   30.5740   46.6040 N   0  0  0  0  0  0  0  0  0  0  0  0
   38.7710   33.1480   48.6890 H   0  0  0  0  0  0  0  0  0  0  0  0
   38.1180   30.8730   50.2140 C   0  0  0  0  0  0  0  0  0  0  0  0
   37.6910   30.5460   48.9030 C   0  0  0  0  0  0  0  0  0  0  0  0
   36.6150   29.6690   48.7830 C   0  0  0  0  0  0  0  0  0  0  0  0
   36.0440   29.1860   49.9190 N   0  0  0  0  0  0  0  0  0  0  0  0
   36.4690   29.5120   51.1350 C   0  0  0  0  0  0  0  0  0  0  0  0
   37.5030   30.3540   51.2740 N   0  0  0  0  0  0  0  0  0  0  0  0
   38.9490   31.5500   50.3310 H   0  0  0  0  0  0  0  0  0  0  0  0
   36.3180   29.4440   47.7760 H   0  0  0  0  0  0  0  0  0  0  0  0
   35.8900   29.0270   51.9090 H   0  0  0  0  0  0  0  0  0  0  0  0
   40.2470   31.4150   43.5770 C   0  0  0  0  0  0  0  0  0  0  0  0
   40.4080   31.0890   42.5300 H   0  0  0  0  0  0  0  0  0  0  0  0
   39.6030   32.3140   43.5270 H   0  0  0  0  0  0  0  0  0  0  0  0
   41.2010   31.6890   44.0270 H   0  0  0  0  0  0  0  0  0  0  0  0
   38.2070   30.0280   43.6590 C   0  0  0  0  0  0  0  0  0  0  0  0
   37.3570   30.2340   44.3460 H   0  0  0  0  0  0  0  0  0  0  0  0
   38.1000   30.6830   42.7610 H   0  0  0  0  0  0  0  0  0  0  0  0
   38.0960   28.6360   43.2840 N   0  0  0  0  0  0  0  0  0  0  0  0
   37.2290   28.5810   42.1410 C   0  0  0  0  0  0  0  0  0  0  0  0
   37.3960   27.4590   41.2050 C   0  0  0  0  0  0  0  0  0  0  0  0
   38.5510   26.6390   41.3290 N   0  0  0  0  0  0  0  0  0  0  0  0
   39.3350   26.8920   40.6870 H   0  0  0  0  0  0  0  0  0  0  0  0
   38.9640   26.5190   42.7010 C   0  0  0  0  0  0  0  0  0  0  0  0
   39.3360   27.9540   43.1050 C   0  0  0  0  0  0  0  0  0  0  0  0
  1  2  1  1  0  0  0
  1  6  1  0  0  0  0
  3  4  2  0  0  0  0
  3 10  1  0  0  0  0
  4  8  1  0  0  0  0
  5  4  1  0  0  0  0
  6  5  1  0  0  0  0
  6  7  2  0  0  0  0
  7  3  1  0  0  0  0
  9 15  1  0  0  0  0
  9 14  1  0  0  0  0
 10  9  2  0  0  0  0
 11 10  1  0  0  0  0
 11 12  2  0  0  0  0
 12 13  1  0  0  0  0
 13 14  2  0  0  0  0
 13 17  1  0  0  0  0
 16 11  1  0  0  0  0
 18 21  1  0  0  0  0
 18  1  1  0  0  0  0
 19 18  1  0  0  0  0
 20 18  1  0  0  0  0
 22 23  1  0  0  0  0
 22  1  1  0  0  0  0
 24 22  1  0  0  0  0
 25 22  1  0  0  0  0
 26 25  1  0  0  0  0
 27 28  1  0  0  0  0
 27 26  2  0  0  0  0
 28 30  1  0  0  0  0
 29 28  1  0  0  0  0
 30 31  1  0  0  0  0
 31 25  1  0  0  0  0
M  END
>  <minimizedAffinity>
-5.03538084

>  <minimizedRMSD>
1.87885857

$$$$
