
 OpenBabel03252512103D

 30 33  0  0  0  0  0  0  0  0999 V2000
   35.4070   30.0330   47.6460 C   0  0  0  0  0  0  0  0  0  0  0  0
   36.4890   30.4870   46.9010 C   0  0  0  0  0  0  0  0  0  0  0  0
   37.5640   30.6370   47.6810 N   0  0  0  0  0  0  0  0  0  0  0  0
   37.2200   30.2900   48.9380 C   0  0  0  0  0  0  0  0  0  0  0  0
   37.9370   30.2570   50.1250 C   0  0  0  0  0  0  0  0  0  0  0  0
   37.2870   29.8430   51.2860 C   0  0  0  0  0  0  0  0  0  0  0  0
   35.9650   29.4790   51.2390 C   0  0  0  0  0  0  0  0  0  0  0  0
   35.2120   29.4990   50.0640 C   0  0  0  0  0  0  0  0  0  0  0  0
   35.8790   29.9120   48.9340 C   0  0  0  0  0  0  0  0  0  0  0  0
   36.5340   30.7090   45.8410 H   0  0  0  0  0  0  0  0  0  0  0  0
   38.5180   30.9600   47.4110 H   0  0  0  0  0  0  0  0  0  0  0  0
   38.9860   30.5540   50.1230 H   0  0  0  0  0  0  0  0  0  0  0  0
   37.8420   29.8150   52.2150 H   0  0  0  0  0  0  0  0  0  0  0  0
   35.4810   29.1600   52.1520 H   0  0  0  0  0  0  0  0  0  0  0  0
   34.1700   29.2060   50.0520 H   0  0  0  0  0  0  0  0  0  0  0  0
   32.1180   30.4410   46.0420 C   0  0  0  0  0  0  0  0  0  0  0  0
   31.6150   29.1390   46.0950 C   0  0  0  0  0  0  0  0  0  0  0  0
   32.4150   28.1490   46.6790 C   0  0  0  0  0  0  0  0  0  0  0  0
   33.6430   28.4880   47.1710 N   0  0  0  0  0  0  0  0  0  0  0  0
   34.0930   29.7700   47.0990 C   0  0  0  0  0  0  0  0  0  0  0  0
   33.3400   30.7380   46.5410 N   0  0  0  0  0  0  0  0  0  0  0  0
   31.5040   31.2070   45.5930 H   0  0  0  0  0  0  0  0  0  0  0  0
   30.6340   28.9370   45.6870 H   0  0  0  0  0  0  0  0  0  0  0  0
   31.8920   26.8310   46.7260 N   0  0  0  0  0  0  0  0  0  0  0  0
   31.4260   26.2450   45.4830 C   0  0  0  0  0  0  0  0  0  0  0  0
   30.7270   24.9250   45.8010 C   0  0  0  0  0  0  0  0  0  0  0  0
   31.5200   24.0490   46.6040 N   0  0  0  0  0  0  0  0  0  0  0  0
   30.8770   23.4090   47.1250 H   0  0  0  0  0  0  0  0  0  0  0  0
   32.3820   24.6830   47.5500 C   0  0  0  0  0  0  0  0  0  0  0  0
   31.7920   26.0250   47.9280 C   0  0  0  0  0  0  0  0  0  0  0  0
  1  9  1  0  0  0  0
  2  1  2  0  0  0  0
  2  3  1  0  0  0  0
  3  4  1  0  0  0  0
  4  5  1  0  0  0  0
  5  6  2  0  0  0  0
  6 13  1  0  0  0  0
  7  6  1  0  0  0  0
  7 14  1  0  0  0  0
  8  7  2  0  0  0  0
  9  4  2  0  0  0  0
  9  8  1  0  0  0  0
 10  2  1  0  0  0  0
 11  3  1  0  0  0  0
 12  5  1  0  0  0  0
 15  8  1  0  0  0  0
 16 17  2  0  0  0  0
 16 21  1  0  0  0  0
 17 18  1  0  0  0  0
 18 24  1  0  0  0  0
 18 19  2  0  0  0  0
 20 19  1  0  0  0  0
 20  1  1  0  0  0  0
 21 20  2  0  0  0  0
 22 16  1  0  0  0  0
 23 17  1  0  0  0  0
 24 30  1  0  0  0  0
 25 26  1  0  0  0  0
 25 24  1  0  0  0  0
 26 27  1  0  0  0  0
 27 28  1  0  0  0  0
 27 29  1  0  0  0  0
 29 30  1  0  0  0  0
M  END
>  <minimizedAffinity>
-5.64232922

>  <minimizedRMSD>
0.832428515

$$$$
