
 OpenBabel03252514073D

 41 44  0  0  0  0  0  0  0  0999 V2000
   34.1980   30.1030   47.5620 C   0  0  0  0  0  0  0  0  0  0  0  0
   35.1840   29.8690   48.5460 C   0  0  0  0  0  0  0  0  0  0  0  0
   35.0550   28.6930   49.2810 C   0  0  0  0  0  0  0  0  0  0  0  0
   34.0250   27.8530   49.0290 N   0  0  0  0  0  0  0  0  0  0  0  0
   33.0950   28.1010   48.0810 C   0  0  0  0  0  0  0  0  0  0  0  0
   33.1890   29.2330   47.3490 N   0  0  0  0  0  0  0  0  0  0  0  0
   34.2660   31.0100   46.9690 H   0  0  0  0  0  0  0  0  0  0  0  0
   35.7990   28.5130   50.0260 H   0  0  0  0  0  0  0  0  0  0  0  0
   36.2090   30.8360   48.7000 N   0  0  0  0  0  0  0  0  0  0  0  0
   36.4710   31.4860   49.8530 C   0  0  0  0  0  0  0  0  0  0  0  0
   37.5070   32.3330   49.6490 N   0  0  0  0  0  0  0  0  0  0  0  0
   37.8730   32.1940   48.3700 C   0  0  0  0  0  0  0  0  0  0  0  0
   38.8540   32.7770   47.5720 C   0  0  0  0  0  0  0  0  0  0  0  0
   39.0100   32.4500   46.2870 N   0  0  0  0  0  0  0  0  0  0  0  0
   38.2150   31.5260   45.6910 C   0  0  0  0  0  0  0  0  0  0  0  0
   37.2660   30.9600   46.4530 N   0  0  0  0  0  0  0  0  0  0  0  0
   37.0700   31.2560   47.7490 C   0  0  0  0  0  0  0  0  0  0  0  0
   36.0000   31.4170   50.8160 H   0  0  0  0  0  0  0  0  0  0  0  0
   38.3220   31.2450   44.6520 H   0  0  0  0  0  0  0  0  0  0  0  0
   39.7070   33.7440   48.1440 N   0  0  0  0  0  0  0  0  0  0  0  0
   40.4300   33.6420   48.8670 H   0  0  0  0  0  0  0  0  0  0  0  0
   39.6160   34.7380   47.8000 H   0  0  0  0  0  0  0  0  0  0  0  0
   31.9720   27.1860   47.7950 C   0  0  0  0  0  0  0  0  0  0  0  0
   30.8700   27.4220   48.8570 C   0  0  0  0  0  0  0  0  0  0  0  0
   31.2270   27.0380   49.8330 H   0  0  0  0  0  0  0  0  0  0  0  0
   29.9680   26.9230   48.5080 H   0  0  0  0  0  0  0  0  0  0  0  0
   30.6740   28.5220   48.8700 H   0  0  0  0  0  0  0  0  0  0  0  0
   31.3090   27.5100   46.4790 C   0  0  0  0  0  0  0  0  0  0  0  0
   31.0790   26.5830   45.8980 H   0  0  0  0  0  0  0  0  0  0  0  0
   30.2890   27.9820   46.6040 H   0  0  0  0  0  0  0  0  0  0  0  0
   31.8740   28.2530   45.8730 H   0  0  0  0  0  0  0  0  0  0  0  0
   32.3630   25.7470   47.7950 C   0  0  0  0  0  0  0  0  0  0  0  0
   31.5150   25.0900   48.1570 H   0  0  0  0  0  0  0  0  0  0  0  0
   33.1080   25.6470   48.6540 H   0  0  0  0  0  0  0  0  0  0  0  0
   32.9210   25.1660   46.6750 N   0  0  0  0  0  0  0  0  0  0  0  0
   32.1100   24.1880   46.0490 C   0  0  0  0  0  2  0  0  0  0  0  0
   32.2630   24.3030   44.5490 C   0  0  0  0  0  2  0  0  0  0  0  0
   33.6130   24.0640   44.1910 N   0  0  0  0  0  0  0  0  0  0  0  0
   33.8210   23.0630   43.9360 H   0  0  0  0  0  0  0  0  0  0  0  0
   34.6360   24.5300   45.0490 C   0  0  0  0  0  2  0  0  0  0  0  0
   34.2000   25.4110   46.1950 C   0  0  0  0  0  2  0  0  0  0  0  0
  1  2  1  0  0  0  0
  2  9  1  0  0  0  0
  2  3  2  0  0  0  0
  3  8  1  0  0  0  0
  4  3  1  0  0  0  0
  5  4  2  0  0  0  0
  6  1  2  0  0  0  0
  6  5  1  0  0  0  0
  7  1  1  0  0  0  0
  9 10  1  0  0  0  0
 10 18  1  0  0  0  0
 11 10  2  0  0  0  0
 12 11  1  0  0  0  0
 13 20  1  0  0  0  0
 13 12  2  0  0  0  0
 14 13  1  0  0  0  0
 15 14  2  0  0  0  0
 15 16  1  0  0  0  0
 16 17  2  0  0  0  0
 17 12  1  0  0  0  0
 17  9  1  0  0  0  0
 19 15  1  0  0  0  0
 20 21  1  0  0  0  0
 22 20  1  0  0  0  0
 23 32  1  0  0  0  0
 23  5  1  0  0  0  0
 23 24  1  0  0  0  0
 24 27  1  0  0  0  0
 24 25  1  0  0  0  0
 26 24  1  0  0  0  0
 28 30  1  0  0  0  0
 28 23  1  0  0  0  0
 29 28  1  0  0  0  0
 31 28  1  0  0  0  0
 32 33  1  0  0  0  0
 32 34  1  0  0  0  0
 35 32  1  0  0  0  0
 36 35  1  0  0  0  0
 37 36  1  0  0  0  0
 38 37  1  0  0  0  0
 38 40  1  0  0  0  0
 39 38  1  0  0  0  0
 40 41  1  0  0  0  0
 41 35  1  0  0  0  0
M  END
>  <minimizedAffinity>
-5.23626041

>  <minimizedRMSD>
1.2012614

$$$$
