
 OpenBabel03252513583D

 29 32  0  0  1  0  0  0  0  0999 V2000
   35.2800   29.4130   49.0860 C   0  0  2  0  0  0  0  0  0  0  0  0
   34.1820   29.4750   50.0930 C   0  0  0  0  0  0  0  0  0  0  0  0
   34.4360   28.1880   49.4190 C   0  0  1  0  0  0  0  0  0  0  0  0
   35.1130   29.8410   48.0930 H   0  0  0  0  0  0  0  0  0  0  0  0
   34.4160   29.5450   51.1760 H   0  0  0  0  0  0  0  0  0  0  0  0
   33.3530   30.1550   49.8150 H   0  0  0  0  0  0  0  0  0  0  0  0
   34.9400   27.3960   50.0450 H   0  0  0  0  0  0  0  0  0  0  0  0
   33.4310   27.7410   48.4270 C   0  0  0  0  0  0  0  0  0  0  0  0
   33.9610   27.3940   47.1800 C   0  0  0  0  0  3  0  0  0  0  0  0
   32.9130   27.0300   46.3870 N   0  0  0  0  0  0  0  0  0  0  0  0
   31.7560   27.1210   47.0400 C   0  0  0  0  0  0  0  0  0  0  0  0
   30.4160   26.9000   46.7970 C   0  0  0  0  0  3  0  0  0  0  0  0
   29.4840   27.1260   47.8160 C   0  0  0  0  0  3  0  0  0  0  0  0
   29.8460   27.5730   49.0880 C   0  0  0  0  0  3  0  0  0  0  0  0
   31.2020   27.7960   49.3340 C   0  0  0  0  0  3  0  0  0  0  0  0
   32.0750   27.5590   48.2980 C   0  0  0  0  0  0  0  0  0  0  0  0
   32.9240   26.7070   45.3810 H   0  0  0  0  0  0  0  0  0  0  0  0
   36.7060   29.3540   49.5430 C   0  0  0  0  0  0  0  0  0  0  0  0
   37.2440   28.4580   49.1670 H   0  0  0  0  0  0  0  0  0  0  0  0
   36.6960   29.2890   50.6650 H   0  0  0  0  0  0  0  0  0  0  0  0
   37.7710   32.8770   49.5180 C   0  0  0  0  0  0  0  0  0  0  0  0
   38.5860   32.9480   48.3720 C   0  0  0  0  0  0  0  0  0  0  0  0
   38.7610   31.7740   47.6160 C   0  0  0  0  0  0  0  0  0  0  0  0
   38.1200   30.6330   48.0510 N   0  0  0  0  0  0  0  0  0  0  0  0
   37.3510   30.6190   49.1540 C   0  0  0  0  0  0  0  0  0  0  0  0
   37.1810   31.7460   49.8840 N   0  0  0  0  0  0  0  0  0  0  0  0
   37.6400   33.7860   50.0960 H   0  0  0  0  0  0  0  0  0  0  0  0
   39.0590   33.8670   48.0830 H   0  0  0  0  0  0  0  0  0  0  0  0
   39.3770   31.7720   46.7260 H   0  0  0  0  0  0  0  0  0  0  0  0
  1  4  1  6  0  0  0
  1  3  1  0  0  0  0
  1 18  1  0  0  0  0
  1  2  1  0  0  0  0
  2  5  1  0  0  0  0
  3  7  1  1  0  0  0
  3  2  1  0  0  0  0
  6  2  1  0  0  0  0
  8  3  1  0  0  0  0
  9  8  2  0  0  0  0
 10 11  1  0  0  0  0
 10  9  1  0  0  0  0
 11 16  1  0  0  0  0
 12 11  2  0  0  0  0
 12 13  1  0  0  0  0
 13 14  2  0  0  0  0
 14 15  1  0  0  0  0
 16  8  1  0  0  0  0
 16 15  2  0  0  0  0
 17 10  1  0  0  0  0
 18 20  1  0  0  0  0
 19 18  1  0  0  0  0
 21 26  1  0  0  0  0
 21 27  1  0  0  0  0
 22 21  2  0  0  0  0
 23 24  2  0  0  0  0
 23 22  1  0  0  0  0
 24 25  1  0  0  0  0
 25 18  1  0  0  0  0
 25 26  2  0  0  0  0
 28 22  1  0  0  0  0
 29 23  1  0  0  0  0
M  END
>  <minimizedAffinity>
-5.66821098

>  <minimizedRMSD>
0.725473404

$$$$
