
 OpenBabel03252513483D

 26 28  0  0  0  0  0  0  0  0999 V2000
   34.9120   30.0200   45.2600 C   0  0  0  0  0  0  0  0  0  0  0  0
   35.4740   30.1410   46.5630 C   0  0  0  0  0  0  0  0  0  0  0  0
   36.7340   30.7070   46.6660 C   0  0  0  0  0  0  0  0  0  0  0  0
   37.3640   31.1130   45.5360 N   0  0  0  0  0  0  0  0  0  0  0  0
   36.7970   30.9820   44.3200 C   0  0  0  0  0  0  0  0  0  0  0  0
   35.5930   30.4450   44.1860 N   0  0  0  0  0  0  0  0  0  0  0  0
   34.9250   29.8010   47.4140 H   0  0  0  0  0  0  0  0  0  0  0  0
   37.3680   30.8600   47.9670 C   0  0  0  0  0  0  0  0  0  0  0  0
   38.5180   31.5780   48.2210 C   0  0  0  0  0  0  0  0  0  0  0  0
   38.7710   31.4730   49.5370 N   0  0  0  0  0  0  0  0  0  0  0  0
   37.8230   30.7180   50.1130 C   0  0  0  0  0  0  0  0  0  0  0  0
   37.5920   30.2940   51.4100 C   0  0  0  0  0  0  0  0  0  0  0  0
   36.5300   29.5020   51.7970 C   0  0  0  0  0  0  0  0  0  0  0  0
   35.6230   29.0970   50.8260 C   0  0  0  0  0  0  0  0  0  0  0  0
   35.8280   29.5080   49.5060 C   0  0  0  0  0  0  0  0  0  0  0  0
   36.9070   30.3060   49.1440 C   0  0  0  0  0  0  0  0  0  0  0  0
   39.5970   31.9300   50.0010 H   0  0  0  0  0  0  0  0  0  0  0  0
   37.6280   31.4800   43.1880 C   0  0  0  0  0  0  0  0  0  0  0  0
   37.7220   32.8670   43.2310 F   0  0  0  0  0  0  0  0  0  0  0  0
   38.9140   31.0100   43.3040 F   0  0  0  0  0  0  0  0  0  0  0  0
   37.1470   31.0460   41.9600 F   0  0  0  0  0  0  0  0  0  0  0  0
   33.6560   29.4570   45.1550 O   0  0  0  0  0  0  0  0  0  0  0  0
   32.5730   29.7830   45.9750 C   0  0  0  0  0  0  0  0  0  0  0  0
   32.5200   29.0480   47.1410 F   0  0  0  0  0  0  0  0  0  0  0  0
   32.4570   31.1280   46.2590 F   0  0  0  0  0  0  0  0  0  0  0  0
   31.4350   29.4420   45.2290 F   0  0  0  0  0  0  0  0  0  0  0  0
  1  2  1  0  0  0  0
  2  3  2  0  0  0  0
  2  7  1  0  0  0  0
  3  8  1  0  0  0  0
  4  3  1  0  0  0  0
  5  4  2  0  0  0  0
  6  5  1  0  0  0  0
  6  1  2  0  0  0  0
  8  9  2  0  0  0  0
  8 16  1  0  0  0  0
  9 10  1  0  0  0  0
 10 17  1  0  0  0  0
 10 11  1  0  0  0  0
 11 12  1  0  0  0  0
 12 13  2  0  0  0  0
 14 13  1  0  0  0  0
 15 14  2  0  0  0  0
 16 15  1  0  0  0  0
 16 11  2  0  0  0  0
 18 19  1  0  0  0  0
 18 20  1  0  0  0  0
 18  5  1  0  0  0  0
 21 18  1  0  0  0  0
 22  1  1  0  0  0  0
 22 23  1  0  0  0  0
 23 25  1  0  0  0  0
 23 24  1  0  0  0  0
 26 23  1  0  0  0  0
M  END
>  <minimizedAffinity>
-5.92891026

>  <minimizedRMSD>
4.61768103

$$$$
