
 OpenBabel03252513583D

 29 32  0  0  1  0  0  0  0  0999 V2000
   35.2630   29.5850   49.2220 C   0  0  2  0  0  0  0  0  0  0  0  0
   34.3350   29.4510   50.3830 C   0  0  0  0  0  0  0  0  0  0  0  0
   34.3950   28.3450   49.4090 C   0  0  1  0  0  0  0  0  0  0  0  0
   34.9780   30.2340   48.3890 H   0  0  0  0  0  0  0  0  0  0  0  0
   34.7350   29.2640   51.4020 H   0  0  0  0  0  0  0  0  0  0  0  0
   33.5240   30.2040   50.4000 H   0  0  0  0  0  0  0  0  0  0  0  0
   34.9310   27.4150   49.7550 H   0  0  0  0  0  0  0  0  0  0  0  0
   33.2230   28.1710   48.5200 C   0  0  0  0  0  0  0  0  0  0  0  0
   31.9920   28.1310   49.1800 C   0  0  0  0  0  3  0  0  0  0  0  0
   31.0330   27.9470   48.2270 N   0  0  0  0  0  0  0  0  0  0  0  0
   31.5690   27.8670   47.0100 C   0  0  0  0  0  0  0  0  0  0  0  0
   31.1430   27.6980   45.7080 C   0  0  0  0  0  3  0  0  0  0  0  0
   32.0850   27.6790   44.6730 C   0  0  0  0  0  3  0  0  0  0  0  0
   33.4560   27.8250   44.8940 C   0  0  0  0  0  3  0  0  0  0  0  0
   33.8850   27.9950   46.2100 C   0  0  0  0  0  3  0  0  0  0  0  0
   32.9190   28.0070   47.1890 C   0  0  0  0  0  0  0  0  0  0  0  0
   29.9880   27.8670   48.3470 H   0  0  0  0  0  0  0  0  0  0  0  0
   36.7330   29.3740   49.4180 C   0  0  0  0  0  0  0  0  0  0  0  0
   37.1170   28.4800   48.8810 H   0  0  0  0  0  0  0  0  0  0  0  0
   36.9050   29.2030   50.5150 H   0  0  0  0  0  0  0  0  0  0  0  0
   37.9350   32.8530   49.4060 C   0  0  0  0  0  0  0  0  0  0  0  0
   38.7200   32.9080   48.2390 C   0  0  0  0  0  0  0  0  0  0  0  0
   38.8290   31.7380   47.4640 C   0  0  0  0  0  0  0  0  0  0  0  0
   38.1560   30.6170   47.9030 N   0  0  0  0  0  0  0  0  0  0  0  0
   37.4170   30.6180   49.0260 C   0  0  0  0  0  0  0  0  0  0  0  0
   37.3100   31.7410   49.7750 N   0  0  0  0  0  0  0  0  0  0  0  0
   37.8560   33.7590   49.9980 H   0  0  0  0  0  0  0  0  0  0  0  0
   39.2210   33.8110   47.9480 H   0  0  0  0  0  0  0  0  0  0  0  0
   39.4200   31.7230   46.5570 H   0  0  0  0  0  0  0  0  0  0  0  0
  1  4  1  6  0  0  0
  1  3  1  0  0  0  0
  1 18  1  0  0  0  0
  1  2  1  0  0  0  0
  2  6  1  0  0  0  0
  2  5  1  0  0  0  0
  3  7  1  1  0  0  0
  3  2  1  0  0  0  0
  8  9  2  0  0  0  0
  8  3  1  0  0  0  0
 10 17  1  0  0  0  0
 10  9  1  0  0  0  0
 11 16  1  0  0  0  0
 11 10  1  0  0  0  0
 12 11  2  0  0  0  0
 13 14  2  0  0  0  0
 13 12  1  0  0  0  0
 14 15  1  0  0  0  0
 15 16  2  0  0  0  0
 16  8  1  0  0  0  0
 18 20  1  0  0  0  0
 19 18  1  0  0  0  0
 21 26  1  0  0  0  0
 21 27  1  0  0  0  0
 22 21  2  0  0  0  0
 23 24  2  0  0  0  0
 23 22  1  0  0  0  0
 24 25  1  0  0  0  0
 25 18  1  0  0  0  0
 25 26  2  0  0  0  0
 28 22  1  0  0  0  0
 29 23  1  0  0  0  0
M  END
>  <minimizedAffinity>
-5.26085424

>  <minimizedRMSD>
1.10468233

$$$$
