
 OpenBabel03252512053D

 39 42  0  0  0  0  0  0  0  0999 V2000
   38.2220   31.1210   50.0600 C   0  0  0  0  0  0  0  0  0  0  0  0
   38.2700   31.4140   51.1600 H   0  0  0  0  0  0  0  0  0  0  0  0
   39.1320   30.5010   49.9430 H   0  0  0  0  0  0  0  0  0  0  0  0
   36.8430   29.1020   49.9360 C   0  0  0  0  0  0  0  0  0  0  0  0
   36.9720   30.4920   49.8390 C   0  0  0  0  0  0  0  0  0  0  0  0
   35.8440   31.1930   49.5380 C   0  0  0  0  0  0  0  0  0  0  0  0
   34.6440   30.5760   49.3410 N   0  0  0  0  0  0  0  0  0  0  0  0
   34.5400   29.2330   49.4400 C   0  0  0  0  0  0  0  0  0  0  0  0
   35.6270   28.5360   49.7310 N   0  0  0  0  0  0  0  0  0  0  0  0
   37.6980   28.4850   50.1710 H   0  0  0  0  0  0  0  0  0  0  0  0
   35.7320   32.2560   49.4120 H   0  0  0  0  0  0  0  0  0  0  0  0
   33.2700   28.5460   49.2350 C   0  0  0  0  0  0  0  0  0  0  0  0
   32.0450   28.7790   49.8540 C   0  0  0  0  0  0  0  0  0  0  0  0
   31.1070   27.9340   49.3920 N   0  0  0  0  0  0  0  0  0  0  0  0
   31.7100   27.1460   48.4740 C   0  0  0  0  0  0  0  0  0  0  0  0
   31.1590   26.1110   47.7120 C   0  0  0  0  0  0  0  0  0  0  0  0
   32.0550   25.5010   46.8580 C   0  0  0  0  0  0  0  0  0  0  0  0
   33.3850   25.7820   46.6730 C   0  0  0  0  0  0  0  0  0  0  0  0
   33.8780   26.8180   47.4550 C   0  0  0  0  0  0  0  0  0  0  0  0
   33.0400   27.4900   48.3460 C   0  0  0  0  0  0  0  0  0  0  0  0
   30.1120   27.9100   49.7010 H   0  0  0  0  0  0  0  0  0  0  0  0
   38.3480   32.4180   49.3270 C   0  0  0  0  0  0  0  0  0  0  0  0
   39.2440   32.9990   49.7150 H   0  0  0  0  0  0  0  0  0  0  0  0
   37.5210   33.1100   49.4010 H   0  0  0  0  0  0  0  0  0  0  0  0
   38.7350   32.0530   47.9230 C   0  0  0  0  0  0  0  0  0  0  0  0
   38.5760   30.7850   47.4480 C   0  0  0  0  0  0  0  0  0  0  0  0
   38.9540   30.4510   46.1600 C   0  0  0  0  0  0  0  0  0  0  0  0
   39.4890   31.4330   45.3880 N   0  0  0  0  0  0  0  0  0  0  0  0
   39.6430   32.6670   45.8490 C   0  0  0  0  0  0  0  0  0  0  0  0
   39.2770   32.9900   47.0940 N   0  0  0  0  0  0  0  0  0  0  0  0
   38.1610   29.9860   48.0050 H   0  0  0  0  0  0  0  0  0  0  0  0
   38.8400   29.4530   45.7600 H   0  0  0  0  0  0  0  0  0  0  0  0
   40.2290   33.7370   44.9910 C   0  0  0  0  0  0  0  0  0  0  0  0
   39.7190   34.7070   45.2540 H   0  0  0  0  0  0  0  0  0  0  0  0
   41.3210   33.8070   45.0710 H   0  0  0  0  0  0  0  0  0  0  0  0
   39.8240   33.5120   43.5240 C   0  0  0  0  0  0  0  0  0  0  0  0
   38.7360   33.5830   43.4240 H   0  0  0  0  0  0  0  0  0  0  0  0
   40.1450   32.4510   43.3010 H   0  0  0  0  0  0  0  0  0  0  0  0
   40.4230   34.1460   42.8740 H   0  0  0  0  0  0  0  0  0  0  0  0
  1  2  1  0  0  0  0
  3  1  1  0  0  0  0
  4 10  1  0  0  0  0
  5  4  1  0  0  0  0
  5  1  1  0  0  0  0
  6  5  2  0  0  0  0
  7  8  2  0  0  0  0
  7  6  1  0  0  0  0
  8  9  1  0  0  0  0
  9  4  2  0  0  0  0
 11  6  1  0  0  0  0
 12  8  1  0  0  0  0
 12 13  2  0  0  0  0
 14 21  1  0  0  0  0
 14 13  1  0  0  0  0
 15 14  1  0  0  0  0
 16 15  2  0  0  0  0
 17 16  1  0  0  0  0
 18 17  2  0  0  0  0
 18 19  1  0  0  0  0
 19 20  2  0  0  0  0
 20 15  1  0  0  0  0
 20 12  1  0  0  0  0
 22 24  1  0  0  0  0
 22 23  1  0  0  0  0
 22  1  1  0  0  0  0
 25 22  1  0  0  0  0
 26 25  1  0  0  0  0
 26 31  1  0  0  0  0
 27 26  2  0  0  0  0
 28 29  2  0  0  0  0
 28 27  1  0  0  0  0
 29 30  1  0  0  0  0
 30 25  2  0  0  0  0
 32 27  1  0  0  0  0
 33 35  1  0  0  0  0
 33 34  1  0  0  0  0
 33 29  1  0  0  0  0
 36 33  1  0  0  0  0
 37 36  1  0  0  0  0
 38 36  1  0  0  0  0
 39 36  1  0  0  0  0
M  END
>  <minimizedAffinity>
-5.85572529

>  <minimizedRMSD>
1.4907217

$$$$
