
 OpenBabel03252512533D

 24 27  0  0  0  0  0  0  0  0999 V2000
   38.3910   31.5870   48.1880 C   0  0  0  0  0  0  0  0  0  0  0  0
   39.0780   32.7480   48.2380 N   0  0  0  0  0  0  0  0  0  0  0  0
   39.4900   33.0900   47.0700 O   0  0  0  0  0  0  0  0  0  0  0  0
   39.0920   32.1800   46.2270 C   0  0  0  0  0  0  0  0  0  0  0  0
   38.3960   31.2140   46.8850 N   0  0  0  0  0  0  0  0  0  0  0  0
   39.3010   32.0980   44.7650 C   0  0  0  0  0  0  0  0  0  0  0  0
   39.5650   33.1000   43.8510 C   0  0  0  0  0  0  0  0  0  0  0  0
   39.6750   32.5480   42.6430 N   0  0  0  0  0  0  0  0  0  0  0  0
   39.5000   31.2230   42.6870 C   0  0  0  0  0  0  0  0  0  0  0  0
   39.5110   30.2200   41.7670 C   0  0  0  0  0  0  0  0  0  0  0  0
   39.2980   28.8960   42.0610 C   0  0  0  0  0  0  0  0  0  0  0  0
   39.0590   28.5810   43.3980 C   0  0  0  0  0  0  0  0  0  0  0  0
   39.0430   29.5910   44.3580 C   0  0  0  0  0  0  0  0  0  0  0  0
   39.2610   30.9200   44.0310 C   0  0  0  0  0  0  0  0  0  0  0  0
   39.8750   33.1060   41.7810 H   0  0  0  0  0  0  0  0  0  0  0  0
   37.3160   30.1230   51.4750 C   0  0  0  0  0  0  0  0  0  0  0  0
   37.9860   30.9300   50.5610 C   0  0  0  0  0  0  0  0  0  0  0  0
   37.7280   30.7790   49.1990 C   0  0  0  0  0  0  0  0  0  0  0  0
   36.8190   29.8390   48.8060 N   0  0  0  0  0  0  0  0  0  0  0  0
   36.1870   29.0730   49.7410 C   0  0  0  0  0  0  0  0  0  0  0  0
   36.4220   29.2020   51.0600 N   0  0  0  0  0  0  0  0  0  0  0  0
   37.6060   30.3420   52.4810 H   0  0  0  0  0  0  0  0  0  0  0  0
   38.7130   31.6910   50.7850 H   0  0  0  0  0  0  0  0  0  0  0  0
   35.4940   28.3660   49.3230 H   0  0  0  0  0  0  0  0  0  0  0  0
  1  2  2  0  0  0  0
  1 18  1  0  0  0  0
  3  2  1  0  0  0  0
  4  5  2  0  0  0  0
  4  3  1  0  0  0  0
  5  1  1  0  0  0  0
  6  4  1  0  0  0  0
  7  6  2  0  0  0  0
  8  9  1  0  0  0  0
  8  7  1  0  0  0  0
  9 14  1  0  0  0  0
 10 11  1  0  0  0  0
 10  9  2  0  0  0  0
 11 12  2  0  0  0  0
 12 13  1  0  0  0  0
 14 13  2  0  0  0  0
 14  6  1  0  0  0  0
 15  8  1  0  0  0  0
 16 22  1  0  0  0  0
 17 23  1  0  0  0  0
 17 16  2  0  0  0  0
 18 17  1  0  0  0  0
 19 18  2  0  0  0  0
 19 20  1  0  0  0  0
 20 21  2  0  0  0  0
 21 16  1  0  0  0  0
 24 20  1  0  0  0  0
M  END
>  <minimizedAffinity>
-5.96476269

>  <minimizedRMSD>
0.6723333

$$$$
