
 OpenBabel03252510273D

 32 34  0  0  0  0  0  0  0  0999 V2000
   35.8700   30.5120   47.7560 C   0  0  0  0  0  0  0  0  0  0  0  0
   37.0720   30.7510   47.1320 C   0  0  0  0  0  0  0  0  0  0  0  0
   37.1370   30.5970   45.7400 C   0  0  0  0  0  0  0  0  0  0  0  0
   35.9890   30.2150   45.0880 N   0  0  0  0  0  0  0  0  0  0  0  0
   34.8360   29.9920   45.7360 C   0  0  0  0  0  0  0  0  0  0  0  0
   34.7960   30.1430   47.0560 N   0  0  0  0  0  0  0  0  0  0  0  0
   33.6910   29.6000   44.9860 N   0  0  0  0  0  0  0  0  0  0  0  0
   33.8170   28.5960   43.9900 C   0  0  0  0  0  0  0  0  0  0  0  0
   34.8040   27.7530   44.0090 N   0  0  0  0  0  0  0  0  0  0  0  0
   32.7880   28.5810   42.9780 N   0  0  0  0  0  0  0  0  0  0  0  0
   34.8670   27.0170   43.2740 H   0  0  0  0  0  0  0  0  0  0  0  0
   37.8870   31.0160   47.7190 H   0  0  0  0  0  0  0  0  0  0  0  0
   32.8050   30.1120   45.2430 H   0  0  0  0  0  0  0  0  0  0  0  0
   32.2870   27.6700   42.8210 H   0  0  0  0  0  0  0  0  0  0  0  0
   32.5720   29.4400   42.4460 H   0  0  0  0  0  0  0  0  0  0  0  0
   38.3110   30.7670   44.9200 C   0  0  0  0  0  0  0  0  0  0  0  0
   39.0440   31.9530   44.9570 C   0  0  0  0  0  0  0  0  0  0  0  0
   40.0990   31.8740   44.1310 N   0  0  0  0  0  0  0  0  0  0  0  0
   40.1380   30.6800   43.5180 C   0  0  0  0  0  0  0  0  0  0  0  0
   40.9530   30.0350   42.6110 C   0  0  0  0  0  0  0  0  0  0  0  0
   40.7270   28.7520   42.1680 C   0  0  0  0  0  0  0  0  0  0  0  0
   39.6190   28.1270   42.6910 C   0  0  0  0  0  0  0  0  0  0  0  0
   38.7960   28.7540   43.5950 C   0  0  0  0  0  0  0  0  0  0  0  0
   39.0360   30.0290   44.0200 C   0  0  0  0  0  0  0  0  0  0  0  0
   40.8430   32.5950   43.9300 H   0  0  0  0  0  0  0  0  0  0  0  0
   35.7910   30.6590   49.1960 C   0  0  0  0  0  0  0  0  0  0  0  0
   34.8490   30.1230   49.8470 O   0  0  0  0  0  0  0  0  0  0  0  0
   36.7510   31.3920   49.8740 O   0  0  0  0  0  0  0  0  0  0  0  0
   37.7060   30.6430   50.6380 C   0  0  0  0  0  0  0  0  0  0  0  0
   37.2650   30.4540   51.9330 F   0  0  0  0  0  0  0  0  0  0  0  0
   38.9130   31.3160   50.6070 F   0  0  0  0  0  0  0  0  0  0  0  0
   37.9170   29.4020   50.0890 F   0  0  0  0  0  0  0  0  0  0  0  0
  1 26  1  0  0  0  0
  2 12  1  0  0  0  0
  2  1  1  0  0  0  0
  3  2  2  0  0  0  0
  4  5  2  0  0  0  0
  4  3  1  0  0  0  0
  5  6  1  0  0  0  0
  6  1  2  0  0  0  0
  7 13  1  0  0  0  0
  7  5  1  0  0  0  0
  8  9  2  0  0  0  0
  8  7  1  0  0  0  0
 10  8  1  0  0  0  0
 11  9  1  0  0  0  0
 14 10  1  0  0  0  0
 15 10  1  0  0  0  0
 16 17  2  0  0  0  0
 16  3  1  0  0  0  0
 18 17  1  0  0  0  0
 19 24  1  0  0  0  0
 19 18  1  0  0  0  0
 20 19  2  0  0  0  0
 21 20  1  0  0  0  0
 21 22  2  0  0  0  0
 22 23  1  0  0  0  0
 23 24  2  0  0  0  0
 24 16  1  0  0  0  0
 25 18  1  0  0  0  0
 26 27  2  0  0  0  0
 26 28  1  0  0  0  0
 28 29  1  0  0  0  0
 29 30  1  0  0  0  0
 31 29  1  0  0  0  0
 32 29  1  0  0  0  0
M  END
>  <minimizedAffinity>
-6.46559429

>  <minimizedRMSD>
5.71849775

$$$$
