
 OpenBabel03252513583D

 29 32  0  0  1  0  0  0  0  0999 V2000
   35.4080   29.2800   48.9820 C   0  0  2  0  0  0  0  0  0  0  0  0
   34.2630   29.4030   49.9290 C   0  0  0  0  0  0  0  0  0  0  0  0
   34.5230   28.0850   49.3210 C   0  0  1  0  0  0  0  0  0  0  0  0
   35.2980   29.6690   47.9650 H   0  0  0  0  0  0  0  0  0  0  0  0
   34.4450   29.5130   51.0190 H   0  0  0  0  0  0  0  0  0  0  0  0
   33.4630   30.0870   49.5840 H   0  0  0  0  0  0  0  0  0  0  0  0
   34.9790   27.3100   50.0020 H   0  0  0  0  0  0  0  0  0  0  0  0
   33.5580   27.6170   48.2980 C   0  0  0  0  0  0  0  0  0  0  0  0
   32.4710   28.4710   48.0910 C   0  0  0  0  0  3  0  0  0  0  0  0
   31.6790   27.8890   47.1450 N   0  0  0  0  0  0  0  0  0  0  0  0
   32.1880   26.7280   46.7370 C   0  0  0  0  0  0  0  0  0  0  0  0
   31.8720   25.7250   45.8430 C   0  0  0  0  0  3  0  0  0  0  0  0
   32.7260   24.6240   45.7130 C   0  0  0  0  0  3  0  0  0  0  0  0
   33.9020   24.4870   46.4540 C   0  0  0  0  0  3  0  0  0  0  0  0
   34.2210   25.5010   47.3580 C   0  0  0  0  0  3  0  0  0  0  0  0
   33.3460   26.5600   47.4460 C   0  0  0  0  0  0  0  0  0  0  0  0
   30.7720   28.2390   46.7340 H   0  0  0  0  0  0  0  0  0  0  0  0
   36.8080   29.2120   49.5120 C   0  0  0  0  0  0  0  0  0  0  0  0
   37.3290   28.2710   49.2360 H   0  0  0  0  0  0  0  0  0  0  0  0
   36.7430   29.2390   50.6340 H   0  0  0  0  0  0  0  0  0  0  0  0
   38.3480   32.5540   49.4480 C   0  0  0  0  0  0  0  0  0  0  0  0
   38.8490   32.6410   48.1350 C   0  0  0  0  0  0  0  0  0  0  0  0
   38.6500   31.5410   47.2810 C   0  0  0  0  0  0  0  0  0  0  0  0
   37.9760   30.4510   47.7910 N   0  0  0  0  0  0  0  0  0  0  0  0
   37.5160   30.4190   49.0540 C   0  0  0  0  0  0  0  0  0  0  0  0
   37.7060   31.4750   49.8790 N   0  0  0  0  0  0  0  0  0  0  0  0
   38.5040   33.4070   50.1020 H   0  0  0  0  0  0  0  0  0  0  0  0
   39.3660   33.5180   47.7950 H   0  0  0  0  0  0  0  0  0  0  0  0
   39.0140   31.5540   46.2620 H   0  0  0  0  0  0  0  0  0  0  0  0
  1  4  1  6  0  0  0
  1  3  1  0  0  0  0
  1 18  1  0  0  0  0
  1  2  1  0  0  0  0
  2  5  1  0  0  0  0
  3  2  1  0  0  0  0
  3  7  1  1  0  0  0
  6  2  1  0  0  0  0
  8  3  1  0  0  0  0
  9  8  2  0  0  0  0
 10  9  1  0  0  0  0
 11 10  1  0  0  0  0
 11 16  1  0  0  0  0
 12 11  2  0  0  0  0
 13 12  1  0  0  0  0
 13 14  2  0  0  0  0
 14 15  1  0  0  0  0
 15 16  2  0  0  0  0
 16  8  1  0  0  0  0
 17 10  1  0  0  0  0
 18 20  1  0  0  0  0
 19 18  1  0  0  0  0
 21 26  1  0  0  0  0
 21 27  1  0  0  0  0
 22 21  2  0  0  0  0
 23 24  2  0  0  0  0
 23 22  1  0  0  0  0
 24 25  1  0  0  0  0
 25 18  1  0  0  0  0
 25 26  2  0  0  0  0
 28 22  1  0  0  0  0
 29 23  1  0  0  0  0
M  END
>  <minimizedAffinity>
-5.1005559

>  <minimizedRMSD>
1.2416929

$$$$
