
 OpenBabel03252513523D

 41 44  0  0  1  0  0  0  0  0999 V2000
   35.2690   30.1630   44.3620 C   0  0  0  0  0  0  0  0  0  0  0  0
   36.2150   29.5010   43.9150 O   0  0  0  0  0  0  0  0  0  0  0  0
   34.9640   31.3180   43.6160 N   0  0  0  0  0  0  0  0  0  0  0  0
   33.5470   31.5640   43.3710 C   0  0  0  0  0  0  0  0  0  0  0  0
   33.3140   32.5800   42.2910 C   0  0  0  0  0  0  0  0  0  0  0  0
   34.3190   32.3900   41.3440 O   0  0  0  0  0  0  0  0  0  0  0  0
   35.4650   33.0190   41.9040 C   0  0  0  0  0  0  0  0  0  0  0  0
   35.9410   32.2460   43.1030 C   0  0  2  0  0  0  0  0  0  0  0  0
   33.1480   31.9470   44.3530 H   0  0  0  0  0  0  0  0  0  0  0  0
   33.0240   30.6250   43.0760 H   0  0  0  0  0  0  0  0  0  0  0  0
   33.4410   33.5830   42.7370 H   0  0  0  0  0  0  0  0  0  0  0  0
   32.3170   32.4860   41.8610 H   0  0  0  0  0  0  0  0  0  0  0  0
   36.2180   33.0100   41.1180 H   0  0  0  0  0  0  0  0  0  0  0  0
   35.1530   34.0450   42.0950 H   0  0  0  0  0  0  0  0  0  0  0  0
   35.9950   33.0380   43.9220 H   0  0  0  0  0  0  0  0  0  0  0  0
   37.3070   31.7450   42.9480 C   0  0  0  0  0  0  0  0  0  0  0  0
   37.8940   31.0740   41.8660 C   0  0  0  0  0  0  0  0  0  0  0  0
   39.1810   30.8200   42.1650 N   0  0  0  0  0  0  0  0  0  0  0  0
   39.4270   31.3050   43.3940 C   0  0  0  0  0  0  0  0  0  0  0  0
   40.6330   31.2330   44.0590 C   0  0  0  0  0  0  0  0  0  0  0  0
   40.7570   31.7620   45.3260 C   0  0  0  0  0  0  0  0  0  0  0  0
   39.6360   32.3500   45.8760 C   0  0  0  0  0  0  0  0  0  0  0  0
   38.4300   32.4210   45.2070 C   0  0  0  0  0  0  0  0  0  0  0  0
   38.2880   31.8980   43.9390 C   0  0  0  0  0  0  0  0  0  0  0  0
   39.8240   30.3270   41.5070 H   0  0  0  0  0  0  0  0  0  0  0  0
   34.5690   29.1420   47.9290 C   0  0  0  0  0  0  0  0  0  0  0  0
   35.2790   29.5970   46.7660 C   0  0  0  0  0  0  0  0  0  0  0  0
   34.5890   29.7050   45.5650 C   0  0  0  0  0  0  0  0  0  0  0  0
   33.2700   29.3680   45.5790 N   0  0  0  0  0  0  0  0  0  0  0  0
   32.6280   28.9470   46.6710 C   0  0  0  0  0  0  0  0  0  0  0  0
   33.2680   28.8390   47.8200 N   0  0  0  0  0  0  0  0  0  0  0  0
   36.3290   29.8500   46.8190 H   0  0  0  0  0  0  0  0  0  0  0  0
   31.1920   28.6280   46.4840 C   0  0  0  0  0  0  0  0  0  0  0  0
   30.4440   29.8180   46.3820 F   0  0  0  0  0  0  0  0  0  0  0  0
   31.0210   27.9660   45.2910 F   0  0  0  0  0  0  0  0  0  0  0  0
   30.6950   27.8060   47.4830 F   0  0  0  0  0  0  0  0  0  0  0  0
   35.2770   29.0430   49.1090 O   0  0  0  0  0  0  0  0  0  0  0  0
   35.2680   30.0070   50.1130 C   0  0  0  0  0  0  0  0  0  0  0  0
   36.5420   30.5190   50.3830 F   0  0  0  0  0  0  0  0  0  0  0  0
   34.3730   31.0200   49.9350 F   0  0  0  0  0  0  0  0  0  0  0  0
   34.8700   29.3100   51.2720 F   0  0  0  0  0  0  0  0  0  0  0  0
  1 28  1  0  0  0  0
  2  1  2  0  0  0  0
  3  1  1  0  0  0  0
  4  3  1  0  0  0  0
  4  9  1  0  0  0  0
  5 11  1  0  0  0  0
  5  4  1  0  0  0  0
  6  7  1  0  0  0  0
  6  5  1  0  0  0  0
  7 14  1  0  0  0  0
  7  8  1  0  0  0  0
  8  3  1  0  0  0  0
  8 15  1  1  0  0  0
 10  4  1  0  0  0  0
 12  5  1  0  0  0  0
 13  7  1  0  0  0  0
 16  8  1  0  0  0  0
 16 24  1  0  0  0  0
 17 18  1  0  0  0  0
 17 16  2  0  0  0  0
 18 19  1  0  0  0  0
 19 24  2  0  0  0  0
 19 20  1  0  0  0  0
 20 21  2  0  0  0  0
 21 22  1  0  0  0  0
 23 22  2  0  0  0  0
 24 23  1  0  0  0  0
 25 18  1  0  0  0  0
 26 37  1  0  0  0  0
 27 32  1  0  0  0  0
 27 26  2  0  0  0  0
 28 29  2  0  0  0  0
 28 27  1  0  0  0  0
 29 30  1  0  0  0  0
 30 31  2  0  0  0  0
 31 26  1  0  0  0  0
 33 30  1  0  0  0  0
 33 36  1  0  0  0  0
 34 33  1  0  0  0  0
 35 33  1  0  0  0  0
 37 38  1  0  0  0  0
 38 39  1  0  0  0  0
 38 41  1  0  0  0  0
 40 38  1  0  0  0  0
M  END
>  <minimizedAffinity>
-5.92303801

>  <minimizedRMSD>
4.82530165

$$$$
