
 OpenBabel03252513243D

 22 24  0  0  0  0  0  0  0  0999 V2000
   35.6360   28.9070   50.2760 C   0  0  0  0  0  0  0  0  0  0  0  0
   36.1690   30.1110   49.7680 C   0  0  0  0  0  0  0  0  0  0  0  0
   35.6830   30.5390   48.5180 C   0  0  0  0  0  0  0  0  0  0  0  0
   34.7390   29.7910   47.8640 N   0  0  0  0  0  0  0  0  0  0  0  0
   34.2670   28.6310   48.4210 C   0  0  0  0  0  0  0  0  0  0  0  0
   34.7170   28.2140   49.6010 N   0  0  0  0  0  0  0  0  0  0  0  0
   36.0090   28.5800   51.2330 H   0  0  0  0  0  0  0  0  0  0  0  0
   36.0520   31.4550   48.0730 H   0  0  0  0  0  0  0  0  0  0  0  0
   33.2660   27.8740   47.6880 C   0  0  0  0  0  0  0  0  0  0  0  0
   33.4150   27.2610   46.4620 C   0  0  0  0  0  0  0  0  0  0  0  0
   32.2210   26.6720   46.1680 N   0  0  0  0  0  0  0  0  0  0  0  0
   31.3250   26.8840   47.1510 C   0  0  0  0  0  0  0  0  0  0  0  0
   30.0090   26.5210   47.3520 C   0  0  0  0  0  0  0  0  0  0  0  0
   29.3170   26.8800   48.4710 C   0  0  0  0  0  0  0  0  0  0  0  0
   29.9420   27.6440   49.4630 C   0  0  0  0  0  0  0  0  0  0  0  0
   31.2690   28.0080   49.2580 C   0  0  0  0  0  0  0  0  0  0  0  0
   31.9740   27.6380   48.1090 C   0  0  0  0  0  0  0  0  0  0  0  0
   31.9640   26.1160   45.3160 H   0  0  0  0  0  0  0  0  0  0  0  0
   37.1890   30.9210   50.4700 C   0  0  0  0  0  0  0  0  0  0  0  0
   38.4390   30.8130   49.9220 F   0  0  0  0  0  0  0  0  0  0  0  0
   37.2870   30.5690   51.7850 F   0  0  0  0  0  0  0  0  0  0  0  0
   36.8520   32.2620   50.3950 F   0  0  0  0  0  0  0  0  0  0  0  0
  1  7  1  0  0  0  0
  2  1  1  0  0  0  0
  2 19  1  0  0  0  0
  3  2  2  0  0  0  0
  4  5  2  0  0  0  0
  4  3  1  0  0  0  0
  5  6  1  0  0  0  0
  6  1  2  0  0  0  0
  8  3  1  0  0  0  0
  9 17  1  0  0  0  0
  9  5  1  0  0  0  0
 10  9  2  0  0  0  0
 11 10  1  0  0  0  0
 11 12  1  0  0  0  0
 12 13  2  0  0  0  0
 12 17  1  0  0  0  0
 13 14  1  0  0  0  0
 14 15  2  0  0  0  0
 16 15  1  0  0  0  0
 17 16  2  0  0  0  0
 18 11  1  0  0  0  0
 19 21  1  0  0  0  0
 20 19  1  0  0  0  0
 22 19  1  0  0  0  0
M  END
>  <minimizedAffinity>
-5.60760975

>  <minimizedRMSD>
0.717184544

$$$$
