
 OpenBabel03252513583D

 29 32  0  0  1  0  0  0  0  0999 V2000
   35.3490   29.4710   49.1840 C   0  0  2  0  0  0  0  0  0  0  0  0
   34.2490   29.4360   50.1910 C   0  0  0  0  0  0  0  0  0  0  0  0
   34.4940   28.2240   49.3870 C   0  0  1  0  0  0  0  0  0  0  0  0
   35.1870   30.0010   48.2410 H   0  0  0  0  0  0  0  0  0  0  0  0
   34.4820   29.3910   51.2760 H   0  0  0  0  0  0  0  0  0  0  0  0
   33.4270   30.1480   49.9850 H   0  0  0  0  0  0  0  0  0  0  0  0
   34.9910   27.3680   49.9270 H   0  0  0  0  0  0  0  0  0  0  0  0
   33.4870   27.8920   48.3520 C   0  0  0  0  0  0  0  0  0  0  0  0
   34.0080   27.7450   47.0620 C   0  0  0  0  0  3  0  0  0  0  0  0
   32.9570   27.4640   46.2370 N   0  0  0  0  0  0  0  0  0  0  0  0
   31.8090   27.4220   46.9120 C   0  0  0  0  0  0  0  0  0  0  0  0
   30.4730   27.1930   46.6540 C   0  0  0  0  0  3  0  0  0  0  0  0
   29.5500   27.2420   47.7070 C   0  0  0  0  0  3  0  0  0  0  0  0
   29.9210   27.5120   49.0250 C   0  0  0  0  0  3  0  0  0  0  0  0
   31.2720   27.7440   49.2850 C   0  0  0  0  0  3  0  0  0  0  0  0
   32.1350   27.6860   48.2160 C   0  0  0  0  0  0  0  0  0  0  0  0
   32.9620   27.2900   45.1970 H   0  0  0  0  0  0  0  0  0  0  0  0
   36.7730   29.3520   49.6350 C   0  0  0  0  0  0  0  0  0  0  0  0
   37.2410   28.3890   49.3390 H   0  0  0  0  0  0  0  0  0  0  0  0
   36.7740   29.3920   50.7580 H   0  0  0  0  0  0  0  0  0  0  0  0
   38.3400   32.6750   49.4120 C   0  0  0  0  0  0  0  0  0  0  0  0
   38.8700   32.6830   48.1090 C   0  0  0  0  0  0  0  0  0  0  0  0
   38.6820   31.5360   47.3150 C   0  0  0  0  0  0  0  0  0  0  0  0
   37.9890   30.4810   47.8720 N   0  0  0  0  0  0  0  0  0  0  0  0
   37.5010   30.5260   49.1230 C   0  0  0  0  0  0  0  0  0  0  0  0
   37.6800   31.6260   49.8900 N   0  0  0  0  0  0  0  0  0  0  0  0
   38.4890   33.5630   50.0190 H   0  0  0  0  0  0  0  0  0  0  0  0
   39.4020   33.5350   47.7300 H   0  0  0  0  0  0  0  0  0  0  0  0
   39.0690   31.4880   46.3050 H   0  0  0  0  0  0  0  0  0  0  0  0
  1  4  1  6  0  0  0
  1  3  1  0  0  0  0
  1 18  1  0  0  0  0
  1  2  1  0  0  0  0
  2  5  1  0  0  0  0
  3  7  1  1  0  0  0
  3  2  1  0  0  0  0
  6  2  1  0  0  0  0
  8  3  1  0  0  0  0
  9  8  2  0  0  0  0
 10 11  1  0  0  0  0
 10  9  1  0  0  0  0
 11 16  1  0  0  0  0
 12 11  2  0  0  0  0
 12 13  1  0  0  0  0
 13 14  2  0  0  0  0
 14 15  1  0  0  0  0
 16  8  1  0  0  0  0
 16 15  2  0  0  0  0
 17 10  1  0  0  0  0
 18 20  1  0  0  0  0
 19 18  1  0  0  0  0
 21 26  1  0  0  0  0
 21 27  1  0  0  0  0
 22 21  2  0  0  0  0
 23 24  2  0  0  0  0
 23 22  1  0  0  0  0
 24 25  1  0  0  0  0
 25 18  1  0  0  0  0
 25 26  2  0  0  0  0
 28 22  1  0  0  0  0
 29 23  1  0  0  0  0
M  END
>  <minimizedAffinity>
-5.64343929

>  <minimizedRMSD>
0.30755949

$$$$
