
 OpenBabel03252510013D

 19 21  0  0  0  0  0  0  0  0999 V2000
   38.1460   32.1400   48.8040 C   0  0  0  0  0  0  0  0  0  0  0  0
   38.5060   33.4080   49.1620 C   0  0  0  0  0  0  0  0  0  0  0  0
   39.2920   33.9310   48.1970 N   0  0  0  0  0  0  0  0  0  0  0  0
   39.4430   33.0080   47.2160 C   0  0  0  0  0  0  0  0  0  0  0  0
   40.1430   33.0350   46.0150 C   0  0  0  0  0  0  0  0  0  0  0  0
   40.1530   31.9600   45.1640 C   0  0  0  0  0  0  0  0  0  0  0  0
   39.4470   30.8460   45.5270 C   0  0  0  0  0  0  0  0  0  0  0  0
   38.7410   30.7860   46.7140 C   0  0  0  0  0  0  0  0  0  0  0  0
   38.7270   31.8700   47.5820 C   0  0  0  0  0  0  0  0  0  0  0  0
   39.7040   34.8750   48.2130 H   0  0  0  0  0  0  0  0  0  0  0  0
   36.9910   29.7130   51.4060 C   0  0  0  0  0  0  0  0  0  0  0  0
   37.8220   30.6120   50.7040 C   0  0  0  0  0  0  0  0  0  0  0  0
   37.3050   31.2050   49.5480 C   0  0  0  0  0  0  0  0  0  0  0  0
   36.0290   30.8870   49.1580 N   0  0  0  0  0  0  0  0  0  0  0  0
   35.2750   30.0180   49.8680 C   0  0  0  0  0  0  0  0  0  0  0  0
   35.7400   29.4340   50.9790 N   0  0  0  0  0  0  0  0  0  0  0  0
   37.4050   29.2660   52.2940 H   0  0  0  0  0  0  0  0  0  0  0  0
   38.8160   30.8750   50.9900 H   0  0  0  0  0  0  0  0  0  0  0  0
   34.2970   29.8870   49.4130 H   0  0  0  0  0  0  0  0  0  0  0  0
  1  2  2  0  0  0  0
  1 13  1  0  0  0  0
  3 10  1  0  0  0  0
  3  2  1  0  0  0  0
  4  9  1  0  0  0  0
  4  3  1  0  0  0  0
  5  4  2  0  0  0  0
  6  7  2  0  0  0  0
  6  5  1  0  0  0  0
  7  8  1  0  0  0  0
  8  9  2  0  0  0  0
  9  1  1  0  0  0  0
 11 17  1  0  0  0  0
 12 18  1  0  0  0  0
 12 11  2  0  0  0  0
 13 12  1  0  0  0  0
 14 13  2  0  0  0  0
 14 15  1  0  0  0  0
 15 16  2  0  0  0  0
 16 11  1  0  0  0  0
 19 15  1  0  0  0  0
M  END
>  <minimizedAffinity>
-6.36586857

>  <minimizedRMSD>
1.84555972

$$$$
