
 OpenBabel03252513453D

 23 25  0  0  0  0  0  0  0  0999 V2000
   37.4590   30.4480   49.0180 C   0  0  0  0  0  0  0  0  0  0  0  0
   37.4560   31.6230   49.8220 C   0  0  0  0  0  0  0  0  0  0  0  0
   38.1340   32.7420   49.3290 C   0  0  0  0  0  0  0  0  0  0  0  0
   38.7490   32.6420   48.1220 N   0  0  0  0  0  0  0  0  0  0  0  0
   38.7230   31.5170   47.4040 C   0  0  0  0  0  0  0  0  0  0  0  0
   38.0860   30.4160   47.8360 N   0  0  0  0  0  0  0  0  0  0  0  0
   36.9720   31.6970   50.7690 H   0  0  0  0  0  0  0  0  0  0  0  0
   38.1530   33.6520   49.9130 H   0  0  0  0  0  0  0  0  0  0  0  0
   39.3990   31.4550   46.1100 C   0  0  0  0  0  0  0  0  0  0  0  0
   40.7030   31.0270   45.8520 C   0  0  0  0  0  0  0  0  0  0  0  0
   40.8970   31.1420   44.5090 N   0  0  0  0  0  0  0  0  0  0  0  0
   39.7920   31.6170   43.9100 C   0  0  0  0  0  0  0  0  0  0  0  0
   39.6020   31.8690   42.5660 C   0  0  0  0  0  0  0  0  0  0  0  0
   38.3480   32.3670   42.1970 C   0  0  0  0  0  0  0  0  0  0  0  0
   37.3530   32.5900   43.1490 C   0  0  0  0  0  0  0  0  0  0  0  0
   37.6200   32.3110   44.4890 C   0  0  0  0  0  0  0  0  0  0  0  0
   38.8400   31.8220   44.8870 C   0  0  0  0  0  0  0  0  0  0  0  0
   41.8180   30.8750   44.0590 H   0  0  0  0  0  0  0  0  0  0  0  0
   36.7920   29.3430   49.4990 O   0  0  0  0  0  0  0  0  0  0  0  0
   35.5460   29.3670   50.1350 C   0  0  0  0  0  0  0  0  0  0  0  0
   35.6350   29.3820   51.5190 F   0  0  0  0  0  0  0  0  0  0  0  0
   34.7120   30.3520   49.7050 F   0  0  0  0  0  0  0  0  0  0  0  0
   34.9230   28.1620   49.7910 F   0  0  0  0  0  0  0  0  0  0  0  0
  1 19  1  0  0  0  0
  1  2  1  0  0  0  0
  2  7  1  0  0  0  0
  3  2  2  0  0  0  0
  3  8  1  0  0  0  0
  4  3  1  0  0  0  0
  5  6  1  0  0  0  0
  5  4  2  0  0  0  0
  6  1  2  0  0  0  0
  9  5  1  0  0  0  0
 10  9  2  0  0  0  0
 11 10  1  0  0  0  0
 12 11  1  0  0  0  0
 12 17  1  0  0  0  0
 13 12  2  0  0  0  0
 14 13  1  0  0  0  0
 14 15  2  0  0  0  0
 15 16  1  0  0  0  0
 16 17  2  0  0  0  0
 17  9  1  0  0  0  0
 18 11  1  0  0  0  0
 19 20  1  0  0  0  0
 20 21  1  0  0  0  0
 22 20  1  0  0  0  0
 23 20  1  0  0  0  0
M  END
>  <minimizedAffinity>
-6.3742609

>  <minimizedRMSD>
1.25191271

$$$$
