
 OpenBabel03252513393D

 29 31  0  0  0  0  0  0  0  0999 V2000
   36.9610   29.9050   49.9170 C   0  0  0  0  0  0  0  0  0  0  0  0
   38.0200   30.6670   49.4580 C   0  0  0  0  0  0  0  0  0  0  0  0
   37.9900   31.1080   48.1340 C   0  0  0  0  0  0  0  0  0  0  0  0
   36.9340   30.7700   47.3720 N   0  0  0  0  0  0  0  0  0  0  0  0
   35.9140   30.0230   47.8530 C   0  0  0  0  0  0  0  0  0  0  0  0
   35.9360   29.5980   49.1180 N   0  0  0  0  0  0  0  0  0  0  0  0
   39.0420   31.8860   47.6170 N   0  0  0  0  0  0  0  0  0  0  0  0
   38.9140   32.5790   46.3840 C   0  0  0  0  0  0  0  0  0  0  0  0
   37.8610   32.3690   45.6790 N   0  0  0  0  0  0  0  0  0  0  0  0
   39.9550   33.4710   45.9870 N   0  0  0  0  0  0  0  0  0  0  0  0
   37.7650   32.9080   44.7780 H   0  0  0  0  0  0  0  0  0  0  0  0
   38.8780   30.9420   50.0800 H   0  0  0  0  0  0  0  0  0  0  0  0
   39.9470   31.9560   48.1580 H   0  0  0  0  0  0  0  0  0  0  0  0
   40.0400   34.5170   46.0890 H   0  0  0  0  0  0  0  0  0  0  0  0
   40.7560   32.9710   45.5160 H   0  0  0  0  0  0  0  0  0  0  0  0
   34.8090   29.7050   46.9520 C   0  0  0  0  0  0  0  0  0  0  0  0
   34.7470   30.1100   45.6300 C   0  0  0  0  0  0  0  0  0  0  0  0
   33.5820   29.6270   45.1280 N   0  0  0  0  0  0  0  0  0  0  0  0
   32.9410   28.9450   46.0950 C   0  0  0  0  0  0  0  0  0  0  0  0
   31.7450   28.2750   46.0990 C   0  0  0  0  0  0  0  0  0  0  0  0
   31.3030   27.6420   47.2540 C   0  0  0  0  0  0  0  0  0  0  0  0
   32.0380   27.6560   48.4440 C   0  0  0  0  0  0  0  0  0  0  0  0
   33.2380   28.3380   48.4130 C   0  0  0  0  0  0  0  0  0  0  0  0
   33.6820   28.9690   47.2690 C   0  0  0  0  0  0  0  0  0  0  0  0
   33.2840   29.7920   44.1300 H   0  0  0  0  0  0  0  0  0  0  0  0
   36.9840   29.4240   51.3510 C   0  0  0  0  0  0  0  0  0  0  0  0
   35.6720   29.1540   51.7590 F   0  0  0  0  0  0  0  0  0  0  0  0
   37.8360   28.3910   51.4560 F   0  0  0  0  0  0  0  0  0  0  0  0
   37.4140   30.5210   52.1230 F   0  0  0  0  0  0  0  0  0  0  0  0
  1 26  1  0  0  0  0
  2  1  1  0  0  0  0
  2 12  1  0  0  0  0
  3  2  2  0  0  0  0
  4  5  2  0  0  0  0
  4  3  1  0  0  0  0
  5  6  1  0  0  0  0
  6  1  2  0  0  0  0
  7  3  1  0  0  0  0
  7 13  1  0  0  0  0
  8  7  1  0  0  0  0
  9  8  2  0  0  0  0
 10 14  1  0  0  0  0
 10  8  1  0  0  0  0
 11  9  1  0  0  0  0
 15 10  1  0  0  0  0
 16 24  1  0  0  0  0
 16  5  1  0  0  0  0
 17 16  2  0  0  0  0
 18 17  1  0  0  0  0
 18 19  1  0  0  0  0
 19 20  2  0  0  0  0
 19 24  1  0  0  0  0
 20 21  1  0  0  0  0
 21 22  2  0  0  0  0
 23 22  1  0  0  0  0
 24 23  2  0  0  0  0
 25 18  1  0  0  0  0
 26 28  1  0  0  0  0
 26 27  1  0  0  0  0
 26 29  1  0  0  0  0
M  END
>  <minimizedAffinity>
-7.32593632

>  <minimizedRMSD>
0.282653689

$$$$
