
 OpenBabel03252513583D

 29 32  0  0  1  0  0  0  0  0999 V2000
   36.1140   30.1700   50.1750 C   0  0  2  0  0  0  0  0  0  0  0  0
   35.3110   29.2500   51.0320 C   0  0  0  0  0  0  0  0  0  0  0  0
   35.6160   28.8270   49.6530 C   0  0  1  0  0  0  0  0  0  0  0  0
   35.6270   31.0490   49.7420 H   0  0  0  0  0  0  0  0  0  0  0  0
   35.7930   28.6920   51.8620 H   0  0  0  0  0  0  0  0  0  0  0  0
   34.3300   29.6620   51.3400 H   0  0  0  0  0  0  0  0  0  0  0  0
   36.3960   28.0180   49.5480 H   0  0  0  0  0  0  0  0  0  0  0  0
   34.4920   28.8250   48.6880 C   0  0  0  0  0  0  0  0  0  0  0  0
   33.3060   28.2680   49.1800 C   0  0  0  0  0  3  0  0  0  0  0  0
   32.3890   28.3240   48.1700 N   0  0  0  0  0  0  0  0  0  0  0  0
   32.9080   28.8770   47.0750 C   0  0  0  0  0  0  0  0  0  0  0  0
   32.5040   29.1990   45.7960 C   0  0  0  0  0  3  0  0  0  0  0  0
   33.4110   29.8050   44.9190 C   0  0  0  0  0  3  0  0  0  0  0  0
   34.7250   30.1060   45.2790 C   0  0  0  0  0  3  0  0  0  0  0  0
   35.1350   29.7810   46.5730 C   0  0  0  0  0  3  0  0  0  0  0  0
   34.2040   29.1860   47.3940 C   0  0  0  0  0  0  0  0  0  0  0  0
   31.3860   27.9990   48.1710 H   0  0  0  0  0  0  0  0  0  0  0  0
   37.5950   30.2710   50.3770 C   0  0  0  0  0  0  0  0  0  0  0  0
   38.0960   29.2800   50.4030 H   0  0  0  0  0  0  0  0  0  0  0  0
   37.7640   30.7550   51.3780 H   0  0  0  0  0  0  0  0  0  0  0  0
   38.9540   33.2240   48.6510 C   0  0  0  0  0  0  0  0  0  0  0  0
   39.1160   32.7650   47.3300 C   0  0  0  0  0  0  0  0  0  0  0  0
   38.7540   31.4350   47.0470 C   0  0  0  0  0  0  0  0  0  0  0  0
   38.2640   30.6720   48.0850 N   0  0  0  0  0  0  0  0  0  0  0  0
   38.1270   31.1590   49.3300 C   0  0  0  0  0  0  0  0  0  0  0  0
   38.4740   32.4380   49.6080 N   0  0  0  0  0  0  0  0  0  0  0  0
   39.2350   34.2510   48.8630 H   0  0  0  0  0  0  0  0  0  0  0  0
   39.5040   33.4080   46.5630 H   0  0  0  0  0  0  0  0  0  0  0  0
   38.8590   31.0300   46.0480 H   0  0  0  0  0  0  0  0  0  0  0  0
  1  4  1  6  0  0  0
  1 18  1  0  0  0  0
  1  2  1  0  0  0  0
  2  6  1  0  0  0  0
  2  5  1  0  0  0  0
  3  7  1  6  0  0  0
  3  1  1  0  0  0  0
  3  2  1  0  0  0  0
  8  9  2  0  0  0  0
  8  3  1  0  0  0  0
 10 17  1  0  0  0  0
 10  9  1  0  0  0  0
 11 16  1  0  0  0  0
 11 10  1  0  0  0  0
 12 11  2  0  0  0  0
 13 14  2  0  0  0  0
 13 12  1  0  0  0  0
 14 15  1  0  0  0  0
 15 16  2  0  0  0  0
 16  8  1  0  0  0  0
 18 19  1  0  0  0  0
 18 20  1  0  0  0  0
 21 27  1  0  0  0  0
 21 26  1  0  0  0  0
 22 21  2  0  0  0  0
 23 22  1  0  0  0  0
 23 24  2  0  0  0  0
 24 25  1  0  0  0  0
 25 26  2  0  0  0  0
 25 18  1  0  0  0  0
 28 22  1  0  0  0  0
 29 23  1  0  0  0  0
M  END
>  <minimizedAffinity>
-5.91261196

>  <minimizedRMSD>
2.20111823

$$$$
