
 OpenBabel03252513583D

 29 32  0  0  1  0  0  0  0  0999 V2000
   35.3460   29.5120   49.2080 C   0  0  2  0  0  0  0  0  0  0  0  0
   34.2600   29.4350   50.2270 C   0  0  0  0  0  0  0  0  0  0  0  0
   34.4920   28.2580   49.3680 C   0  0  1  0  0  0  0  0  0  0  0  0
   35.1710   30.0820   48.2900 H   0  0  0  0  0  0  0  0  0  0  0  0
   34.5080   29.3430   51.3050 H   0  0  0  0  0  0  0  0  0  0  0  0
   33.4350   30.1560   50.0630 H   0  0  0  0  0  0  0  0  0  0  0  0
   34.9950   27.3790   49.8640 H   0  0  0  0  0  0  0  0  0  0  0  0
   33.4710   27.9710   48.3340 C   0  0  0  0  0  0  0  0  0  0  0  0
   33.9700   27.8990   47.0290 C   0  0  0  0  0  3  0  0  0  0  0  0
   32.9070   27.6510   46.2090 N   0  0  0  0  0  0  0  0  0  0  0  0
   31.7720   27.5610   46.9000 C   0  0  0  0  0  0  0  0  0  0  0  0
   30.4340   27.3320   46.6530 C   0  0  0  0  0  3  0  0  0  0  0  0
   29.5300   27.3120   47.7230 C   0  0  0  0  0  3  0  0  0  0  0  0
   29.9210   27.5160   49.0480 C   0  0  0  0  0  3  0  0  0  0  0  0
   31.2740   27.7480   49.2960 C   0  0  0  0  0  3  0  0  0  0  0  0
   32.1190   27.7570   48.2100 C   0  0  0  0  0  0  0  0  0  0  0  0
   32.8950   27.5330   45.1610 H   0  0  0  0  0  0  0  0  0  0  0  0
   36.7760   29.3730   49.6330 C   0  0  0  0  0  0  0  0  0  0  0  0
   37.2280   28.4070   49.3210 H   0  0  0  0  0  0  0  0  0  0  0  0
   36.7960   29.4020   50.7560 H   0  0  0  0  0  0  0  0  0  0  0  0
   38.3530   32.6910   49.4070 C   0  0  0  0  0  0  0  0  0  0  0  0
   38.8860   32.6940   48.1040 C   0  0  0  0  0  0  0  0  0  0  0  0
   38.6960   31.5460   47.3130 C   0  0  0  0  0  0  0  0  0  0  0  0
   37.9990   30.4950   47.8700 N   0  0  0  0  0  0  0  0  0  0  0  0
   37.5080   30.5430   49.1210 C   0  0  0  0  0  0  0  0  0  0  0  0
   37.6890   31.6450   49.8860 N   0  0  0  0  0  0  0  0  0  0  0  0
   38.5030   33.5800   50.0120 H   0  0  0  0  0  0  0  0  0  0  0  0
   39.4210   33.5440   47.7250 H   0  0  0  0  0  0  0  0  0  0  0  0
   39.0860   31.4950   46.3040 H   0  0  0  0  0  0  0  0  0  0  0  0
  1  4  1  6  0  0  0
  1  3  1  0  0  0  0
  1 18  1  0  0  0  0
  1  2  1  0  0  0  0
  2  5  1  0  0  0  0
  3  7  1  1  0  0  0
  3  2  1  0  0  0  0
  6  2  1  0  0  0  0
  8  3  1  0  0  0  0
  9  8  2  0  0  0  0
 10 11  1  0  0  0  0
 10  9  1  0  0  0  0
 11 16  1  0  0  0  0
 12 11  2  0  0  0  0
 12 13  1  0  0  0  0
 13 14  2  0  0  0  0
 14 15  1  0  0  0  0
 16  8  1  0  0  0  0
 16 15  2  0  0  0  0
 17 10  1  0  0  0  0
 18 20  1  0  0  0  0
 19 18  1  0  0  0  0
 21 26  1  0  0  0  0
 21 27  1  0  0  0  0
 22 21  2  0  0  0  0
 23 24  2  0  0  0  0
 23 22  1  0  0  0  0
 24 25  1  0  0  0  0
 25 18  1  0  0  0  0
 25 26  2  0  0  0  0
 28 22  1  0  0  0  0
 29 23  1  0  0  0  0
M  END
>  <minimizedAffinity>
-5.65759563

>  <minimizedRMSD>
0.883834302

$$$$
