
 OpenBabel03252511083D

 22 24  0  0  0  0  0  0  0  0999 V2000
   37.5250   29.6150   50.4170 C   0  0  0  0  0  0  0  0  0  0  0  0
   38.2210   30.8460   50.3490 C   0  0  0  0  0  0  0  0  0  0  0  0
   37.9120   31.7120   49.2910 C   0  0  0  0  0  0  0  0  0  0  0  0
   36.9640   31.3260   48.3880 N   0  0  0  0  0  0  0  0  0  0  0  0
   36.3250   30.1360   48.4970 C   0  0  0  0  0  0  0  0  0  0  0  0
   36.5980   29.2940   49.4900 N   0  0  0  0  0  0  0  0  0  0  0  0
   37.7520   28.9320   51.2300 H   0  0  0  0  0  0  0  0  0  0  0  0
   38.9550   31.1310   51.0600 H   0  0  0  0  0  0  0  0  0  0  0  0
   35.3190   29.7880   47.4920 C   0  0  0  0  0  0  0  0  0  0  0  0
   35.3510   30.0990   46.1470 C   0  0  0  0  0  0  0  0  0  0  0  0
   34.2300   29.5910   45.5860 N   0  0  0  0  0  0  0  0  0  0  0  0
   33.4920   28.9700   46.5310 C   0  0  0  0  0  0  0  0  0  0  0  0
   32.2830   28.3000   46.4870 C   0  0  0  0  0  0  0  0  0  0  0  0
   31.7460   27.7490   47.6330 C   0  0  0  0  0  0  0  0  0  0  0  0
   32.3970   27.8470   48.8680 C   0  0  0  0  0  0  0  0  0  0  0  0
   33.5980   28.5220   48.8710 C   0  0  0  0  0  0  0  0  0  0  0  0
   34.1540   29.0830   47.7230 C   0  0  0  0  0  0  0  0  0  0  0  0
   33.9940   29.6810   44.5600 H   0  0  0  0  0  0  0  0  0  0  0  0
   38.5810   33.0330   49.1210 C   0  0  0  0  0  0  0  0  0  0  0  0
   37.6680   34.0870   49.1250 F   0  0  0  0  0  0  0  0  0  0  0  0
   39.4280   33.2930   50.2030 F   0  0  0  0  0  0  0  0  0  0  0  0
   39.2530   33.0710   47.9250 F   0  0  0  0  0  0  0  0  0  0  0  0
  1  7  1  0  0  0  0
  2  1  1  0  0  0  0
  2  8  1  0  0  0  0
  3  2  2  0  0  0  0
  4  5  2  0  0  0  0
  4  3  1  0  0  0  0
  5  6  1  0  0  0  0
  6  1  2  0  0  0  0
  9 17  1  0  0  0  0
  9  5  1  0  0  0  0
 10  9  2  0  0  0  0
 11 10  1  0  0  0  0
 11 12  1  0  0  0  0
 12 17  1  0  0  0  0
 13 12  2  0  0  0  0
 13 14  1  0  0  0  0
 14 15  2  0  0  0  0
 15 16  1  0  0  0  0
 17 16  2  0  0  0  0
 18 11  1  0  0  0  0
 19 20  1  0  0  0  0
 19  3  1  0  0  0  0
 19 21  1  0  0  0  0
 22 19  1  0  0  0  0
M  END
>  <minimizedAffinity>
-6.09435558

>  <minimizedRMSD>
1.94132602

$$$$
