
 OpenBabel03252513583D

 29 32  0  0  1  0  0  0  0  0999 V2000
   35.3570   29.6050   49.2330 C   0  0  2  0  0  0  0  0  0  0  0  0
   34.3090   29.3660   50.2670 C   0  0  0  0  0  0  0  0  0  0  0  0
   34.5090   28.3380   49.2290 C   0  0  1  0  0  0  0  0  0  0  0  0
   35.1480   30.3090   48.4210 H   0  0  0  0  0  0  0  0  0  0  0  0
   34.5970   29.1110   51.3090 H   0  0  0  0  0  0  0  0  0  0  0  0
   33.4800   30.0990   50.2470 H   0  0  0  0  0  0  0  0  0  0  0  0
   35.0290   27.3950   49.5650 H   0  0  0  0  0  0  0  0  0  0  0  0
   33.4490   28.2080   48.2020 C   0  0  0  0  0  0  0  0  0  0  0  0
   32.6970   27.0330   48.2900 C   0  0  0  0  0  3  0  0  0  0  0  0
   31.7920   27.0610   47.2680 N   0  0  0  0  0  0  0  0  0  0  0  0
   31.9170   28.1700   46.5410 C   0  0  0  0  0  0  0  0  0  0  0  0
   31.3220   28.7490   45.4390 C   0  0  0  0  0  3  0  0  0  0  0  0
   31.7790   29.9910   44.9820 C   0  0  0  0  0  3  0  0  0  0  0  0
   32.8240   30.6850   45.5950 C   0  0  0  0  0  3  0  0  0  0  0  0
   33.4260   30.0980   46.7090 C   0  0  0  0  0  3  0  0  0  0  0  0
   32.9390   28.8770   47.1160 C   0  0  0  0  0  0  0  0  0  0  0  0
   31.0560   26.3470   47.0150 H   0  0  0  0  0  0  0  0  0  0  0  0
   36.8010   29.4100   49.5780 C   0  0  0  0  0  0  0  0  0  0  0  0
   37.2080   28.4460   49.2060 H   0  0  0  0  0  0  0  0  0  0  0  0
   36.8790   29.3930   50.7000 H   0  0  0  0  0  0  0  0  0  0  0  0
   38.3930   32.7220   49.3740 C   0  0  0  0  0  0  0  0  0  0  0  0
   38.9340   32.7290   48.0750 C   0  0  0  0  0  0  0  0  0  0  0  0
   38.7440   31.5850   47.2780 C   0  0  0  0  0  0  0  0  0  0  0  0
   38.0390   30.5340   47.8270 N   0  0  0  0  0  0  0  0  0  0  0  0
   37.5410   30.5800   49.0750 C   0  0  0  0  0  0  0  0  0  0  0  0
   37.7220   31.6780   49.8450 N   0  0  0  0  0  0  0  0  0  0  0  0
   38.5430   33.6080   49.9840 H   0  0  0  0  0  0  0  0  0  0  0  0
   39.4740   33.5780   47.7020 H   0  0  0  0  0  0  0  0  0  0  0  0
   39.1390   31.5350   46.2710 H   0  0  0  0  0  0  0  0  0  0  0  0
  1  4  1  6  0  0  0
  1 18  1  0  0  0  0
  1  2  1  0  0  0  0
  2  5  1  0  0  0  0
  3  1  1  0  0  0  0
  3  7  1  1  0  0  0
  3  2  1  0  0  0  0
  6  2  1  0  0  0  0
  8  9  2  0  0  0  0
  8  3  1  0  0  0  0
 10  9  1  0  0  0  0
 11 16  1  0  0  0  0
 11 10  1  0  0  0  0
 12 11  2  0  0  0  0
 13 12  1  0  0  0  0
 13 14  2  0  0  0  0
 14 15  1  0  0  0  0
 15 16  2  0  0  0  0
 16  8  1  0  0  0  0
 17 10  1  0  0  0  0
 18 20  1  0  0  0  0
 19 18  1  0  0  0  0
 21 26  1  0  0  0  0
 21 27  1  0  0  0  0
 22 21  2  0  0  0  0
 23 24  2  0  0  0  0
 23 22  1  0  0  0  0
 24 25  1  0  0  0  0
 25 18  1  0  0  0  0
 25 26  2  0  0  0  0
 28 22  1  0  0  0  0
 29 23  1  0  0  0  0
M  END
>  <minimizedAffinity>
-5.34285116

>  <minimizedRMSD>
0.506631374

$$$$
