
 OpenBabel03252513393D

 29 31  0  0  0  0  0  0  0  0999 V2000
   36.9640   29.9660   49.7300 C   0  0  0  0  0  0  0  0  0  0  0  0
   38.0820   30.6450   49.2910 C   0  0  0  0  0  0  0  0  0  0  0  0
   38.0940   31.1290   47.9880 C   0  0  0  0  0  0  0  0  0  0  0  0
   36.9970   30.9040   47.2140 N   0  0  0  0  0  0  0  0  0  0  0  0
   35.9100   30.2320   47.6730 C   0  0  0  0  0  0  0  0  0  0  0  0
   35.9330   29.7820   48.9290 N   0  0  0  0  0  0  0  0  0  0  0  0
   39.2040   31.8370   47.4700 N   0  0  0  0  0  0  0  0  0  0  0  0
   39.0840   32.6740   46.3270 C   0  0  0  0  0  0  0  0  0  0  0  0
   38.0130   32.6050   45.6350 N   0  0  0  0  0  0  0  0  0  0  0  0
   40.1300   33.5580   45.9770 N   0  0  0  0  0  0  0  0  0  0  0  0
   37.9770   33.0990   44.7100 H   0  0  0  0  0  0  0  0  0  0  0  0
   38.9270   30.7960   49.9480 H   0  0  0  0  0  0  0  0  0  0  0  0
   40.1280   31.7500   47.9250 H   0  0  0  0  0  0  0  0  0  0  0  0
   39.9700   34.2640   45.2130 H   0  0  0  0  0  0  0  0  0  0  0  0
   41.0450   33.5040   46.4700 H   0  0  0  0  0  0  0  0  0  0  0  0
   34.8670   30.0880   46.6680 C   0  0  0  0  0  0  0  0  0  0  0  0
   33.5340   30.1630   47.0040 C   0  0  0  0  0  3  0  0  0  0  0  0
   32.5000   30.0270   46.1130 C   0  0  0  0  0  3  0  0  0  0  0  0
   32.7500   29.8000   44.7850 C   0  0  0  0  0  3  0  0  0  0  0  0
   34.0640   29.7140   44.3850 C   0  0  0  0  0  0  0  0  0  0  0  0
   34.3260   29.4800   43.0580 C   0  0  0  0  0  3  0  0  0  0  0  0
   35.6180   29.3740   42.5900 C   0  0  0  0  0  3  0  0  0  0  0  0
   36.6370   29.5170   43.5290 C   0  0  0  0  0  3  0  0  0  0  0  0
   36.3240   29.7500   44.8450 C   0  0  0  0  0  3  0  0  0  0  0  0
   35.0510   29.8600   45.3310 C   0  0  0  0  0  0  0  0  0  0  0  0
   36.9180   29.4280   51.1280 C   0  0  0  0  0  0  0  0  0  0  0  0
   35.6270   29.1100   51.4890 F   0  0  0  0  0  0  0  0  0  0  0  0
   37.8080   28.3980   51.2220 F   0  0  0  0  0  0  0  0  0  0  0  0
   37.3490   30.4720   51.9690 F   0  0  0  0  0  0  0  0  0  0  0  0
  1 26  1  0  0  0  0
  2  1  1  0  0  0  0
  2 12  1  0  0  0  0
  3  2  2  0  0  0  0
  4  5  2  0  0  0  0
  4  3  1  0  0  0  0
  5  6  1  0  0  0  0
  6  1  2  0  0  0  0
  7 13  1  0  0  0  0
  7  3  1  0  0  0  0
  8  7  1  0  0  0  0
  9  8  2  0  0  0  0
 10  8  1  0  0  0  0
 10 15  1  0  0  0  0
 11  9  1  0  0  0  0
 14 10  1  0  0  0  0
 16 17  1  0  0  0  0
 16  5  1  0  0  0  0
 18 17  2  0  0  0  0
 19 18  1  0  0  0  0
 20 19  2  0  0  0  0
 20 25  1  0  0  0  0
 21 20  1  0  0  0  0
 22 21  2  0  0  0  0
 22 23  1  0  0  0  0
 23 24  2  0  0  0  0
 24 25  1  0  0  0  0
 25 16  2  0  0  0  0
 26 28  1  0  0  0  0
 26 27  1  0  0  0  0
 26 29  1  0  0  0  0
M  END
>  <minimizedAffinity>
-7.03075933

>  <minimizedRMSD>
0.318718463

$$$$
