
 OpenBabel03252513493D

 26 28  0  0  0  0  0  0  0  0999 V2000
   35.4790   29.5770   47.7740 C   0  0  0  0  0  0  0  0  0  0  0  0
   36.6370   30.3640   47.5490 C   0  0  0  0  0  0  0  0  0  0  0  0
   36.9090   30.7870   46.2500 C   0  0  0  0  0  0  0  0  0  0  0  0
   36.0300   30.4030   45.3020 N   0  0  0  0  0  0  0  0  0  0  0  0
   34.9480   29.6630   45.5320 C   0  0  0  0  0  0  0  0  0  0  0  0
   34.6870   29.2610   46.7580 N   0  0  0  0  0  0  0  0  0  0  0  0
   37.1910   30.5560   48.4460 H   0  0  0  0  0  0  0  0  0  0  0  0
   38.0960   31.6030   46.0880 C   0  0  0  0  0  0  0  0  0  0  0  0
   38.8420   31.5740   44.9310 C   0  0  0  0  0  3  0  0  0  0  0  0
   39.9730   32.3110   44.7210 C   0  0  0  0  0  3  0  0  0  0  0  0
   40.4570   33.1630   45.6920 C   0  0  0  0  0  3  0  0  0  0  0  0
   39.7570   33.2350   46.8650 C   0  0  0  0  0  0  0  0  0  0  0  0
   40.2300   34.0760   47.8480 C   0  0  0  0  0  3  0  0  0  0  0  0
   39.5880   34.1970   49.0530 C   0  0  0  0  0  3  0  0  0  0  0  0
   38.4340   33.4270   49.2340 C   0  0  0  0  0  3  0  0  0  0  0  0
   38.0100   32.6110   48.2290 C   0  0  0  0  0  3  0  0  0  0  0  0
   38.6260   32.4690   47.0160 C   0  0  0  0  0  0  0  0  0  0  0  0
   34.1160   29.3610   44.3370 C   0  0  0  0  0  0  0  0  0  0  0  0
   33.4530   30.5220   43.9020 F   0  0  0  0  0  0  0  0  0  0  0  0
   34.8940   28.9450   43.2930 F   0  0  0  0  0  0  0  0  0  0  0  0
   33.1770   28.3650   44.5910 F   0  0  0  0  0  0  0  0  0  0  0  0
   35.2050   29.1550   49.0690 O   0  0  0  0  0  0  0  0  0  0  0  0
   35.0550   29.9810   50.1660 C   0  0  0  0  0  0  0  0  0  0  0  0
   36.2370   30.2800   50.8310 F   0  0  0  0  0  0  0  0  0  0  0  0
   34.3580   31.1460   49.8880 F   0  0  0  0  0  0  0  0  0  0  0  0
   34.2600   29.2580   51.0640 F   0  0  0  0  0  0  0  0  0  0  0  0
  1 22  1  0  0  0  0
  2  1  1  0  0  0  0
  2  7  1  0  0  0  0
  3  2  2  0  0  0  0
  4  5  2  0  0  0  0
  4  3  1  0  0  0  0
  5  6  1  0  0  0  0
  6  1  2  0  0  0  0
  8  3  1  0  0  0  0
  8 17  1  0  0  0  0
  9  8  2  0  0  0  0
 10  9  1  0  0  0  0
 10 11  2  0  0  0  0
 11 12  1  0  0  0  0
 12 17  2  0  0  0  0
 12 13  1  0  0  0  0
 13 14  2  0  0  0  0
 14 15  1  0  0  0  0
 16 15  2  0  0  0  0
 17 16  1  0  0  0  0
 18 21  1  0  0  0  0
 18  5  1  0  0  0  0
 19 18  1  0  0  0  0
 20 18  1  0  0  0  0
 22 23  1  0  0  0  0
 23 24  1  0  0  0  0
 23 26  1  0  0  0  0
 25 23  1  0  0  0  0
M  END
>  <minimizedAffinity>
-6.2429018

>  <minimizedRMSD>
4.80926561

$$$$
