
 OpenBabel03252513393D

 29 31  0  0  0  0  0  0  0  0999 V2000
   36.9640   29.9650   49.7300 C   0  0  0  0  0  0  0  0  0  0  0  0
   38.0820   30.6450   49.2910 C   0  0  0  0  0  0  0  0  0  0  0  0
   38.0940   31.1280   47.9880 C   0  0  0  0  0  0  0  0  0  0  0  0
   36.9970   30.9030   47.2140 N   0  0  0  0  0  0  0  0  0  0  0  0
   35.9100   30.2320   47.6730 C   0  0  0  0  0  0  0  0  0  0  0  0
   35.9330   29.7820   48.9290 N   0  0  0  0  0  0  0  0  0  0  0  0
   39.2040   31.8360   47.4710 N   0  0  0  0  0  0  0  0  0  0  0  0
   39.0840   32.6740   46.3280 C   0  0  0  0  0  0  0  0  0  0  0  0
   38.0130   32.6050   45.6360 N   0  0  0  0  0  0  0  0  0  0  0  0
   40.1310   33.5570   45.9770 N   0  0  0  0  0  0  0  0  0  0  0  0
   37.9770   33.0980   44.7110 H   0  0  0  0  0  0  0  0  0  0  0  0
   38.9270   30.7960   49.9480 H   0  0  0  0  0  0  0  0  0  0  0  0
   40.1270   31.7490   47.9250 H   0  0  0  0  0  0  0  0  0  0  0  0
   39.9710   34.2640   45.2140 H   0  0  0  0  0  0  0  0  0  0  0  0
   41.0450   33.5040   46.4710 H   0  0  0  0  0  0  0  0  0  0  0  0
   34.8670   30.0880   46.6680 C   0  0  0  0  0  0  0  0  0  0  0  0
   33.5340   30.1630   47.0050 C   0  0  0  0  0  3  0  0  0  0  0  0
   32.5000   30.0270   46.1140 C   0  0  0  0  0  3  0  0  0  0  0  0
   32.7490   29.8000   44.7840 C   0  0  0  0  0  3  0  0  0  0  0  0
   34.0640   29.7140   44.3840 C   0  0  0  0  0  0  0  0  0  0  0  0
   34.3260   29.4790   43.0580 C   0  0  0  0  0  3  0  0  0  0  0  0
   35.6170   29.3740   42.5900 C   0  0  0  0  0  3  0  0  0  0  0  0
   36.6370   29.5170   43.5290 C   0  0  0  0  0  3  0  0  0  0  0  0
   36.3240   29.7500   44.8440 C   0  0  0  0  0  3  0  0  0  0  0  0
   35.0500   29.8590   45.3320 C   0  0  0  0  0  0  0  0  0  0  0  0
   36.9170   29.4280   51.1290 C   0  0  0  0  0  0  0  0  0  0  0  0
   35.6260   29.1090   51.4890 F   0  0  0  0  0  0  0  0  0  0  0  0
   37.8070   28.3980   51.2230 F   0  0  0  0  0  0  0  0  0  0  0  0
   37.3470   30.4710   51.9690 F   0  0  0  0  0  0  0  0  0  0  0  0
  1 26  1  0  0  0  0
  2  1  1  0  0  0  0
  2 12  1  0  0  0  0
  3  2  2  0  0  0  0
  4  5  2  0  0  0  0
  4  3  1  0  0  0  0
  5  6  1  0  0  0  0
  6  1  2  0  0  0  0
  7 13  1  0  0  0  0
  7  3  1  0  0  0  0
  8  7  1  0  0  0  0
  9  8  2  0  0  0  0
 10  8  1  0  0  0  0
 10 15  1  0  0  0  0
 11  9  1  0  0  0  0
 14 10  1  0  0  0  0
 16 17  1  0  0  0  0
 16  5  1  0  0  0  0
 18 17  2  0  0  0  0
 19 18  1  0  0  0  0
 20 19  2  0  0  0  0
 20 25  1  0  0  0  0
 21 20  1  0  0  0  0
 22 21  2  0  0  0  0
 22 23  1  0  0  0  0
 23 24  2  0  0  0  0
 24 25  1  0  0  0  0
 25 16  2  0  0  0  0
 26 28  1  0  0  0  0
 26 27  1  0  0  0  0
 26 29  1  0  0  0  0
M  END
>  <minimizedAffinity>
-7.03092384

>  <minimizedRMSD>
0.6333009

$$$$
