
 OpenBabel03252511363D

 32 35  0  0  0  0  0  0  0  0999 V2000
   35.9110   30.3760   46.3800 C   0  0  0  0  0  0  0  0  0  0  0  0
   34.6320   29.8470   46.5800 C   0  0  0  0  0  0  0  0  0  0  0  0
   33.7780   29.5580   45.5310 C   0  0  0  0  0  0  0  0  0  0  0  0
   34.1780   29.7880   44.2520 C   0  0  0  0  0  0  0  0  0  0  0  0
   35.4360   30.3090   44.0340 C   0  0  0  0  0  0  0  0  0  0  0  0
   36.3020   30.6030   45.0870 C   0  0  0  0  0  0  0  0  0  0  0  0
   34.3420   29.6740   47.6060 H   0  0  0  0  0  0  0  0  0  0  0  0
   32.8080   29.1520   45.7780 H   0  0  0  0  0  0  0  0  0  0  0  0
   33.4950   29.5570   43.4210 H   0  0  0  0  0  0  0  0  0  0  0  0
   35.7070   30.4740   43.0050 H   0  0  0  0  0  0  0  0  0  0  0  0
   37.6070   31.1630   44.7560 C   0  0  0  0  0  0  0  0  0  0  0  0
   38.0100   32.4460   45.0790 C   0  0  0  0  0  0  0  0  0  0  0  0
   39.2430   32.9780   44.7740 C   0  0  0  0  0  0  0  0  0  0  0  0
   40.1580   32.1970   44.0990 C   0  0  0  0  0  0  0  0  0  0  0  0
   39.8240   30.9030   43.7440 C   0  0  0  0  0  0  0  0  0  0  0  0
   40.7450   30.1150   43.0650 C   0  0  0  0  0  0  0  0  0  0  0  0
   40.4510   28.8330   42.7000 C   0  0  0  0  0  0  0  0  0  0  0  0
   39.2080   28.3360   43.0230 C   0  0  0  0  0  0  0  0  0  0  0  0
   38.2830   29.1170   43.6990 C   0  0  0  0  0  0  0  0  0  0  0  0
   38.5720   30.4170   44.0740 C   0  0  0  0  0  0  0  0  0  0  0  0
   37.3640   30.2060   49.7300 C   0  0  0  0  0  0  0  0  0  0  0  0
   38.3700   31.1690   49.6770 C   0  0  0  0  0  0  0  0  0  0  0  0
   38.5540   31.8840   48.4850 C   0  0  0  0  0  0  0  0  0  0  0  0
   37.7350   31.5890   47.4580 N   0  0  0  0  0  0  0  0  0  0  0  0
   36.7630   30.6530   47.5250 C   0  0  0  0  0  0  0  0  0  0  0  0
   36.6040   29.9800   48.6700 N   0  0  0  0  0  0  0  0  0  0  0  0
   39.0190   31.3940   50.5070 H   0  0  0  0  0  0  0  0  0  0  0  0
   39.3300   32.6480   48.3970 H   0  0  0  0  0  0  0  0  0  0  0  0
   37.1750   29.4450   51.0150 C   0  0  0  0  0  0  0  0  0  0  0  0
   35.8310   29.1930   51.1990 F   0  0  0  0  0  0  0  0  0  0  0  0
   37.9390   28.3320   50.9630 F   0  0  0  0  0  0  0  0  0  0  0  0
   37.5920   30.2780   52.0550 F   0  0  0  0  0  0  0  0  0  0  0  0
  1  2  1  0  0  0  0
  1 25  1  0  0  0  0
  2  7  1  0  0  0  0
  3  8  1  0  0  0  0
  3  2  2  0  0  0  0
  4  3  1  0  0  0  0
  5  4  2  0  0  0  0
  5  6  1  0  0  0  0
  6  1  2  0  0  0  0
  9  4  1  0  0  0  0
 10  5  1  0  0  0  0
 11 12  1  0  0  0  0
 11  6  1  0  0  0  0
 13 12  2  0  0  0  0
 14 13  1  0  0  0  0
 15 20  1  0  0  0  0
 15 14  2  0  0  0  0
 16 15  1  0  0  0  0
 17 18  1  0  0  0  0
 17 16  2  0  0  0  0
 18 19  2  0  0  0  0
 19 20  1  0  0  0  0
 20 11  2  0  0  0  0
 21 29  1  0  0  0  0
 22 21  1  0  0  0  0
 22 27  1  0  0  0  0
 23 22  2  0  0  0  0
 24 25  2  0  0  0  0
 24 23  1  0  0  0  0
 25 26  1  0  0  0  0
 26 21  2  0  0  0  0
 28 23  1  0  0  0  0
 29 30  1  0  0  0  0
 29 32  1  0  0  0  0
 31 29  1  0  0  0  0
M  END
>  <minimizedAffinity>
-7.17826319

>  <minimizedRMSD>
0.779664099

$$$$
