
 OpenBabel03252513493D

 26 28  0  0  0  0  0  0  0  0999 V2000
   37.1180   30.8790   44.7530 C   0  0  0  0  0  0  0  0  0  0  0  0
   36.8350   30.6780   46.1270 C   0  0  0  0  0  0  0  0  0  0  0  0
   37.8890   30.7350   47.0360 C   0  0  0  0  0  0  0  0  0  0  0  0
   39.1090   30.9820   46.5190 N   0  0  0  0  0  0  0  0  0  0  0  0
   39.3570   31.1680   45.2240 C   0  0  0  0  0  0  0  0  0  0  0  0
   38.3640   31.1150   44.3610 N   0  0  0  0  0  0  0  0  0  0  0  0
   35.7960   30.5020   46.3170 H   0  0  0  0  0  0  0  0  0  0  0  0
   37.5330   30.5400   48.4270 C   0  0  0  0  0  0  0  0  0  0  0  0
   38.3650   30.9370   49.4500 C   0  0  0  0  0  3  0  0  0  0  0  0
   38.0920   30.7730   50.7780 C   0  0  0  0  0  3  0  0  0  0  0  0
   36.9200   30.1760   51.1950 C   0  0  0  0  0  3  0  0  0  0  0  0
   36.0530   29.7590   50.2230 C   0  0  0  0  0  0  0  0  0  0  0  0
   34.8800   29.1550   50.6220 C   0  0  0  0  0  3  0  0  0  0  0  0
   33.9640   28.7050   49.7070 C   0  0  0  0  0  3  0  0  0  0  0  0
   34.2760   28.8880   48.3570 C   0  0  0  0  0  3  0  0  0  0  0  0
   35.4500   29.4910   48.0170 C   0  0  0  0  0  3  0  0  0  0  0  0
   36.3830   29.9520   48.9050 C   0  0  0  0  0  0  0  0  0  0  0  0
   40.7790   31.4310   44.8780 C   0  0  0  0  0  0  0  0  0  0  0  0
   41.6240   30.9230   45.8790 F   0  0  0  0  0  0  0  0  0  0  0  0
   41.1240   30.7940   43.7190 F   0  0  0  0  0  0  0  0  0  0  0  0
   41.0340   32.7890   44.7080 F   0  0  0  0  0  0  0  0  0  0  0  0
   36.0690   30.8230   43.8430 O   0  0  0  0  0  0  0  0  0  0  0  0
   35.6690   31.8560   43.0190 C   0  0  0  0  0  0  0  0  0  0  0  0
   34.2940   32.0410   42.9480 F   0  0  0  0  0  0  0  0  0  0  0  0
   36.2970   33.0590   43.2960 F   0  0  0  0  0  0  0  0  0  0  0  0
   36.0910   31.4850   41.7350 F   0  0  0  0  0  0  0  0  0  0  0  0
  1  2  1  0  0  0  0
  2  7  1  0  0  0  0
  2  3  2  0  0  0  0
  3  8  1  0  0  0  0
  4  3  1  0  0  0  0
  5  4  2  0  0  0  0
  6  1  2  0  0  0  0
  6  5  1  0  0  0  0
  8 17  2  0  0  0  0
  8  9  1  0  0  0  0
  9 10  2  0  0  0  0
 10 11  1  0  0  0  0
 12 13  1  0  0  0  0
 12 11  2  0  0  0  0
 14 13  2  0  0  0  0
 15 14  1  0  0  0  0
 16 15  2  0  0  0  0
 16 17  1  0  0  0  0
 17 12  1  0  0  0  0
 18  5  1  0  0  0  0
 18 19  1  0  0  0  0
 20 18  1  0  0  0  0
 21 18  1  0  0  0  0
 22  1  1  0  0  0  0
 23 25  1  0  0  0  0
 23 22  1  0  0  0  0
 24 23  1  0  0  0  0
 26 23  1  0  0  0  0
M  END
>  <minimizedAffinity>
-7.3939805

>  <minimizedRMSD>
6.10048628

$$$$
