
 OpenBabel03252513463D

 23 25  0  0  0  0  0  0  0  0999 V2000
   37.9780   30.7470   48.3910 C   0  0  0  0  0  0  0  0  0  0  0  0
   38.4520   31.9970   48.8230 C   0  0  0  0  0  0  0  0  0  0  0  0
   38.9860   32.8380   47.8610 C   0  0  0  0  0  0  0  0  0  0  0  0
   39.0320   32.4360   46.5730 N   0  0  0  0  0  0  0  0  0  0  0  0
   38.5760   31.2450   46.1860 C   0  0  0  0  0  0  0  0  0  0  0  0
   38.0670   30.4470   47.1070 N   0  0  0  0  0  0  0  0  0  0  0  0
   38.4090   32.3000   49.8480 H   0  0  0  0  0  0  0  0  0  0  0  0
   39.3740   33.8060   48.0750 H   0  0  0  0  0  0  0  0  0  0  0  0
   38.5300   30.6340   44.8500 C   0  0  0  0  0  0  0  0  0  0  0  0
   39.2370   29.4750   44.5030 C   0  0  0  0  0  3  0  0  0  0  0  0
   39.2030   28.8920   43.2640 C   0  0  0  0  0  3  0  0  0  0  0  0
   38.4410   29.4440   42.2700 C   0  0  0  0  0  3  0  0  0  0  0  0
   37.7310   30.5670   42.5380 C   0  0  0  0  0  0  0  0  0  0  0  0
   36.9770   31.0890   41.5130 C   0  0  0  0  0  3  0  0  0  0  0  0
   36.2270   32.2200   41.6990 C   0  0  0  0  0  3  0  0  0  0  0  0
   36.2650   32.8110   42.9680 C   0  0  0  0  0  3  0  0  0  0  0  0
   37.0380   32.2450   43.9570 C   0  0  0  0  0  3  0  0  0  0  0  0
   37.7960   31.1150   43.7930 C   0  0  0  0  0  0  0  0  0  0  0  0
   37.4420   29.8830   49.3130 O   0  0  0  0  0  0  0  0  0  0  0  0
   36.1010   29.7490   49.6340 C   0  0  0  0  0  0  0  0  0  0  0  0
   35.8850   29.2890   50.9160 F   0  0  0  0  0  0  0  0  0  0  0  0
   35.3650   30.8880   49.3970 F   0  0  0  0  0  0  0  0  0  0  0  0
   35.5940   28.7700   48.7570 F   0  0  0  0  0  0  0  0  0  0  0  0
  1  2  1  0  0  0  0
  1 19  1  0  0  0  0
  2  7  1  0  0  0  0
  3  8  1  0  0  0  0
  3  2  2  0  0  0  0
  4  3  1  0  0  0  0
  5  4  2  0  0  0  0
  5  6  1  0  0  0  0
  6  1  2  0  0  0  0
  9  5  1  0  0  0  0
 10  9  1  0  0  0  0
 11 10  2  0  0  0  0
 12 13  2  0  0  0  0
 12 11  1  0  0  0  0
 13 18  1  0  0  0  0
 14 15  2  0  0  0  0
 14 13  1  0  0  0  0
 15 16  1  0  0  0  0
 16 17  2  0  0  0  0
 18 17  1  0  0  0  0
 18  9  2  0  0  0  0
 19 20  1  0  0  0  0
 20 21  1  0  0  0  0
 22 20  1  0  0  0  0
 23 20  1  0  0  0  0
M  END
>  <minimizedAffinity>
-5.28010178

>  <minimizedRMSD>
0.891821146

$$$$
