
 OpenBabel03252513453D

 23 25  0  0  0  0  0  0  0  0999 V2000
   38.0210   30.7640   48.8640 C   0  0  0  0  0  0  0  0  0  0  0  0
   38.3420   32.0350   49.3700 C   0  0  0  0  0  0  0  0  0  0  0  0
   38.8660   32.9560   48.4780 C   0  0  0  0  0  0  0  0  0  0  0  0
   39.0470   32.6080   47.1870 N   0  0  0  0  0  0  0  0  0  0  0  0
   38.7350   31.3950   46.7290 C   0  0  0  0  0  0  0  0  0  0  0  0
   38.2350   30.5210   47.5830 N   0  0  0  0  0  0  0  0  0  0  0  0
   38.1920   32.2940   50.3970 H   0  0  0  0  0  0  0  0  0  0  0  0
   39.1450   33.9460   48.7510 H   0  0  0  0  0  0  0  0  0  0  0  0
   38.8480   30.8330   45.3760 C   0  0  0  0  0  0  0  0  0  0  0  0
   38.7890   29.4590   45.1000 C   0  0  0  0  0  3  0  0  0  0  0  0
   38.8900   28.9210   43.8460 C   0  0  0  0  0  3  0  0  0  0  0  0
   39.0610   29.7390   42.7620 C   0  0  0  0  0  3  0  0  0  0  0  0
   39.1250   31.0770   42.9570 C   0  0  0  0  0  0  0  0  0  0  0  0
   39.2940   31.8660   41.8420 C   0  0  0  0  0  3  0  0  0  0  0  0
   39.3660   33.2290   41.9500 C   0  0  0  0  0  3  0  0  0  0  0  0
   39.2630   33.7750   43.2350 C   0  0  0  0  0  3  0  0  0  0  0  0
   39.0950   32.9390   44.3160 C   0  0  0  0  0  3  0  0  0  0  0  0
   39.0190   31.5720   44.2310 C   0  0  0  0  0  0  0  0  0  0  0  0
   37.4990   29.8210   49.7150 O   0  0  0  0  0  0  0  0  0  0  0  0
   36.1710   29.6900   50.0840 C   0  0  0  0  0  0  0  0  0  0  0  0
   35.9880   29.5440   51.4440 F   0  0  0  0  0  0  0  0  0  0  0  0
   35.3640   30.6920   49.5920 F   0  0  0  0  0  0  0  0  0  0  0  0
   35.7220   28.4980   49.4810 F   0  0  0  0  0  0  0  0  0  0  0  0
  1  2  1  0  0  0  0
  1 19  1  0  0  0  0
  2  7  1  0  0  0  0
  3  8  1  0  0  0  0
  3  2  2  0  0  0  0
  4  3  1  0  0  0  0
  5  4  2  0  0  0  0
  5  6  1  0  0  0  0
  6  1  2  0  0  0  0
  9  5  1  0  0  0  0
 10  9  1  0  0  0  0
 11 10  2  0  0  0  0
 12 13  2  0  0  0  0
 12 11  1  0  0  0  0
 13 18  1  0  0  0  0
 14 15  2  0  0  0  0
 14 13  1  0  0  0  0
 15 16  1  0  0  0  0
 16 17  2  0  0  0  0
 18 17  1  0  0  0  0
 18  9  2  0  0  0  0
 19 20  1  0  0  0  0
 20 21  1  0  0  0  0
 22 20  1  0  0  0  0
 23 20  1  0  0  0  0
M  END
>  <minimizedAffinity>
-5.23851299

>  <minimizedRMSD>
0.874665618

$$$$
