
 OpenBabel03252513393D

 29 31  0  0  0  0  0  0  0  0999 V2000
   36.9600   29.9020   49.9280 C   0  0  0  0  0  0  0  0  0  0  0  0
   38.0310   30.6210   49.4400 C   0  0  0  0  0  0  0  0  0  0  0  0
   38.0050   31.0290   48.1120 C   0  0  0  0  0  0  0  0  0  0  0  0
   36.9190   30.6940   47.3630 N   0  0  0  0  0  0  0  0  0  0  0  0
   35.8780   29.9850   47.8700 C   0  0  0  0  0  0  0  0  0  0  0  0
   35.9370   29.6100   49.1490 N   0  0  0  0  0  0  0  0  0  0  0  0
   39.0670   31.7720   47.5440 N   0  0  0  0  0  0  0  0  0  0  0  0
   38.8890   32.5340   46.3560 C   0  0  0  0  0  0  0  0  0  0  0  0
   37.8190   32.3610   45.6800 N   0  0  0  0  0  0  0  0  0  0  0  0
   39.8770   33.4570   45.9460 N   0  0  0  0  0  0  0  0  0  0  0  0
   37.7480   32.7970   44.7290 H   0  0  0  0  0  0  0  0  0  0  0  0
   38.8700   30.8610   50.0790 H   0  0  0  0  0  0  0  0  0  0  0  0
   39.9970   31.7680   47.9940 H   0  0  0  0  0  0  0  0  0  0  0  0
   39.6700   34.1080   45.1450 H   0  0  0  0  0  0  0  0  0  0  0  0
   40.7960   33.4880   46.4320 H   0  0  0  0  0  0  0  0  0  0  0  0
   34.8390   29.7200   46.8840 C   0  0  0  0  0  0  0  0  0  0  0  0
   34.9440   30.1860   45.5930 C   0  0  0  0  0  0  0  0  0  0  0  0
   34.0020   29.9830   44.6180 C   0  0  0  0  0  0  0  0  0  0  0  0
   32.8580   29.2750   44.8870 C   0  0  0  0  0  0  0  0  0  0  0  0
   32.6950   28.7840   46.1620 C   0  0  0  0  0  0  0  0  0  0  0  0
   31.5520   28.0790   46.4460 C   0  0  0  0  0  0  0  0  0  0  0  0
   31.3200   27.5640   47.7030 C   0  0  0  0  0  0  0  0  0  0  0  0
   32.3010   27.7950   48.6640 C   0  0  0  0  0  0  0  0  0  0  0  0
   33.4280   28.5050   48.3310 C   0  0  0  0  0  0  0  0  0  0  0  0
   33.6800   29.0240   47.0920 C   0  0  0  0  0  0  0  0  0  0  0  0
   36.9540   29.4440   51.3550 C   0  0  0  0  0  0  0  0  0  0  0  0
   35.6730   29.1620   51.7750 F   0  0  0  0  0  0  0  0  0  0  0  0
   37.8360   28.4090   51.4770 F   0  0  0  0  0  0  0  0  0  0  0  0
   37.4250   30.5270   52.1210 F   0  0  0  0  0  0  0  0  0  0  0  0
  1 26  1  0  0  0  0
  2  1  1  0  0  0  0
  2 12  1  0  0  0  0
  3  2  2  0  0  0  0
  4  5  2  0  0  0  0
  4  3  1  0  0  0  0
  5  6  1  0  0  0  0
  6  1  2  0  0  0  0
  7 13  1  0  0  0  0
  7  3  1  0  0  0  0
  8  7  1  0  0  0  0
  9  8  2  0  0  0  0
 10  8  1  0  0  0  0
 10 15  1  0  0  0  0
 11  9  1  0  0  0  0
 14 10  1  0  0  0  0
 16 25  1  0  0  0  0
 16  5  1  0  0  0  0
 17 16  2  0  0  0  0
 18 19  2  0  0  0  0
 18 17  1  0  0  0  0
 19 20  1  0  0  0  0
 20 21  2  0  0  0  0
 20 25  1  0  0  0  0
 21 22  1  0  0  0  0
 22 23  2  0  0  0  0
 24 23  1  0  0  0  0
 25 24  2  0  0  0  0
 26 28  1  0  0  0  0
 26 27  1  0  0  0  0
 26 29  1  0  0  0  0
M  END
>  <minimizedAffinity>
-7.56678057

>  <minimizedRMSD>
0.435006559

$$$$
