
 OpenBabel03252512133D

 33 37  0  0  0  0  0  0  0  0999 V2000
   32.2620   30.0840   46.1310 C   0  0  0  0  0  0  0  0  0  0  0  0
   31.9440   28.7320   46.1090 C   0  0  0  0  0  0  0  0  0  0  0  0
   32.8430   27.8050   46.6410 C   0  0  0  0  0  0  0  0  0  0  0  0
   33.9950   28.3330   47.1490 N   0  0  0  0  0  0  0  0  0  0  0  0
   34.3010   29.6330   47.1680 C   0  0  0  0  0  0  0  0  0  0  0  0
   33.4290   30.4880   46.6600 N   0  0  0  0  0  0  0  0  0  0  0  0
   31.5610   30.7950   45.7190 H   0  0  0  0  0  0  0  0  0  0  0  0
   31.0450   28.4570   45.6480 H   0  0  0  0  0  0  0  0  0  0  0  0
   35.5780   30.0220   47.7470 C   0  0  0  0  0  0  0  0  0  0  0  0
   36.6120   30.5730   47.0230 C   0  0  0  0  0  0  0  0  0  0  0  0
   37.6590   30.8260   47.8290 N   0  0  0  0  0  0  0  0  0  0  0  0
   37.3210   30.4460   49.0680 C   0  0  0  0  0  0  0  0  0  0  0  0
   38.0180   30.4810   50.2710 C   0  0  0  0  0  0  0  0  0  0  0  0
   37.3920   30.0070   51.4150 C   0  0  0  0  0  0  0  0  0  0  0  0
   36.1060   29.5130   51.3450 C   0  0  0  0  0  0  0  0  0  0  0  0
   35.3740   29.4600   50.1660 C   0  0  0  0  0  0  0  0  0  0  0  0
   36.0250   29.9410   49.0420 C   0  0  0  0  0  0  0  0  0  0  0  0
   36.6780   30.8090   45.9660 H   0  0  0  0  0  0  0  0  0  0  0  0
   38.5920   31.2440   47.5700 H   0  0  0  0  0  0  0  0  0  0  0  0
   39.0270   30.8600   50.3620 H   0  0  0  0  0  0  0  0  0  0  0  0
   37.9160   30.0240   52.3670 H   0  0  0  0  0  0  0  0  0  0  0  0
   35.6730   29.1570   52.2770 H   0  0  0  0  0  0  0  0  0  0  0  0
   34.3690   29.0700   50.1390 H   0  0  0  0  0  0  0  0  0  0  0  0
   32.7550   26.3660   46.6600 C   0  0  0  0  0  0  0  0  0  0  0  0
   33.8760   25.6870   47.1670 C   0  0  0  0  0  0  0  0  0  0  0  0
   33.9760   24.3210   47.2750 C   0  0  0  0  0  0  0  0  0  0  0  0
   32.9300   23.5320   46.8730 C   0  0  0  0  0  0  0  0  0  0  0  0
   31.8010   24.1300   46.3720 C   0  0  0  0  0  0  0  0  0  0  0  0
   30.7100   23.3820   45.9890 C   0  0  0  0  0  0  0  0  0  0  0  0
   29.5280   23.9500   45.5100 C   0  0  0  0  0  0  0  0  0  0  0  0
   29.5240   25.3470   45.4450 C   0  0  0  0  0  0  0  0  0  0  0  0
   30.6260   26.0740   45.8310 C   0  0  0  0  0  0  0  0  0  0  0  0
   31.7730   25.4900   46.2940 C   0  0  0  0  0  0  0  0  0  0  0  0
  1  6  1  0  0  0  0
  2  1  2  0  0  0  0
  2  3  1  0  0  0  0
  3 24  1  0  0  0  0
  3  4  2  0  0  0  0
  4  5  1  0  0  0  0
  5  9  1  0  0  0  0
  6  5  2  0  0  0  0
  7  1  1  0  0  0  0
  8  2  1  0  0  0  0
  9 17  1  0  0  0  0
 10  9  2  0  0  0  0
 10 11  1  0  0  0  0
 11 12  1  0  0  0  0
 12 13  1  0  0  0  0
 13 20  1  0  0  0  0
 13 14  2  0  0  0  0
 14 21  1  0  0  0  0
 15 14  1  0  0  0  0
 15 22  1  0  0  0  0
 16 15  2  0  0  0  0
 17 12  2  0  0  0  0
 17 16  1  0  0  0  0
 18 10  1  0  0  0  0
 19 11  1  0  0  0  0
 23 16  1  0  0  0  0
 24 25  1  0  0  0  0
 25 26  2  0  0  0  0
 27 26  1  0  0  0  0
 28 27  2  0  0  0  0
 29 28  1  0  0  0  0
 30 29  2  0  0  0  0
 31 30  1  0  0  0  0
 31 32  2  0  0  0  0
 32 33  1  0  0  0  0
 33 28  1  0  0  0  0
 33 24  2  0  0  0  0
M  END
>  <minimizedAffinity>
-6.30724287

>  <minimizedRMSD>
0.311782867

$$$$
