
 OpenBabel03252512353D

 43 47  0  0  1  0  0  0  0  0999 V2000
   32.7740   27.3630   46.5540 C   0  0  2  0  0  0  0  0  0  0  0  0
   33.2330   26.3290   46.5360 H   0  0  0  0  0  0  0  0  0  0  0  0
   35.5560   29.8920   48.1050 C   0  0  0  0  0  0  0  0  0  0  0  0
   35.0720   28.9690   49.0250 C   0  0  0  0  0  0  0  0  0  0  0  0
   34.1270   28.1010   48.5730 C   0  0  0  0  0  0  0  0  0  0  0  0
   33.7360   28.1840   47.3240 C   0  0  0  0  0  0  0  0  0  0  0  0
   34.6720   29.5490   46.5610 S   0  0  0  0  0  0  0  0  0  0  0  0
   35.4780   28.9950   50.0520 H   0  0  0  0  0  0  0  0  0  0  0  0
   33.6910   27.3400   49.2340 H   0  0  0  0  0  0  0  0  0  0  0  0
   37.4660   32.6300   49.6500 C   0  0  0  0  0  0  0  0  0  0  0  0
   38.5520   32.7960   48.7750 C   0  0  0  0  0  0  0  0  0  0  0  0
   38.6070   31.9680   47.6680 C   0  0  0  0  0  0  0  0  0  0  0  0
   37.6220   31.0450   47.4790 N   0  0  0  0  0  0  0  0  0  0  0  0
   36.6100   30.9380   48.3530 C   0  0  0  0  0  0  0  0  0  0  0  0
   36.4640   31.7110   49.4800 N   0  0  0  0  0  0  0  0  0  0  0  0
   37.4320   33.2880   50.5190 H   0  0  0  0  0  0  0  0  0  0  0  0
   39.2800   33.5420   48.9980 H   0  0  0  0  0  0  0  0  0  0  0  0
   39.4280   32.0630   46.9680 H   0  0  0  0  0  0  0  0  0  0  0  0
   32.5850   27.9070   45.2290 C   0  0  0  0  0  0  0  0  0  0  0  0
   31.5160   28.1190   44.9720 H   0  0  0  0  0  0  0  0  0  0  0  0
   32.9030   27.1660   44.4400 H   0  0  0  0  0  0  0  0  0  0  0  0
   33.1300   28.8490   44.9940 H   0  0  0  0  0  0  0  0  0  0  0  0
   31.5150   27.1920   47.3950 C   0  0  0  0  0  0  0  0  0  0  0  0
   30.8220   28.0010   47.0820 H   0  0  0  0  0  0  0  0  0  0  0  0
   31.7270   27.3800   48.4670 H   0  0  0  0  0  0  0  0  0  0  0  0
   30.9200   25.9760   47.2230 O   0  0  0  0  0  0  0  0  0  0  0  0
   29.9070   25.7940   46.3010 C   0  0  0  0  0  0  0  0  0  0  0  0
   29.1260   26.5390   45.4700 C   0  0  0  0  0  0  0  0  0  0  0  0
   28.3080   25.6310   44.8320 C   0  0  0  0  0  0  0  0  0  0  0  0
   28.5990   24.3770   45.2720 C   0  0  0  0  0  0  0  0  0  0  0  0
   29.5550   24.5660   46.1390 O   0  0  0  0  0  0  0  0  0  0  0  0
   29.2610   27.5970   45.4520 H   0  0  0  0  0  0  0  0  0  0  0  0
   27.5780   25.9650   44.1500 H   0  0  0  0  0  0  0  0  0  0  0  0
   28.1160   23.0320   45.0120 C   0  0  0  0  0  0  0  0  0  0  0  0
   28.5280   22.0470   45.9230 C   0  0  0  0  0  0  0  0  0  0  0  0
   28.1530   20.7290   45.8070 C   0  0  0  0  0  0  0  0  0  0  0  0
   27.3460   20.3060   44.7800 C   0  0  0  0  0  0  0  0  0  0  0  0
   26.9220   21.2380   43.8650 C   0  0  0  0  0  0  0  0  0  0  0  0
   26.1410   20.8610   42.8110 C   0  0  0  0  0  0  0  0  0  0  0  0
   25.7080   21.7660   41.8350 C   0  0  0  0  0  0  0  0  0  0  0  0
   26.1400   23.0850   42.0270 C   0  0  0  0  0  0  0  0  0  0  0  0
   26.9150   23.4130   43.0910 C   0  0  0  0  0  0  0  0  0  0  0  0
   27.3350   22.5340   44.0430 C   0  0  0  0  0  0  0  0  0  0  0  0
  1  2  1  6  0  0  0
  1  6  1  0  0  0  0
  1 23  1  0  0  0  0
  3 14  1  0  0  0  0
  3  4  2  0  0  0  0
  4  8  1  0  0  0  0
  5  4  1  0  0  0  0
  5  9  1  0  0  0  0
  6  5  2  0  0  0  0
  7  6  1  0  0  0  0
  7  3  1  0  0  0  0
 10 16  1  0  0  0  0
 11 17  1  0  0  0  0
 11 10  2  0  0  0  0
 12 11  1  0  0  0  0
 13 12  2  0  0  0  0
 13 14  1  0  0  0  0
 14 15  2  0  0  0  0
 15 10  1  0  0  0  0
 18 12  1  0  0  0  0
 19  1  1  0  0  0  0
 20 19  1  0  0  0  0
 21 19  1  0  0  0  0
 22 19  1  0  0  0  0
 23 25  1  0  0  0  0
 24 23  1  0  0  0  0
 26 23  1  0  0  0  0
 27 26  1  0  0  0  0
 28 27  2  0  0  0  0
 29 30  2  0  0  0  0
 29 28  1  0  0  0  0
 30 31  1  0  0  0  0
 31 27  1  0  0  0  0
 32 28  1  0  0  0  0
 33 29  1  0  0  0  0
 34 30  1  0  0  0  0
 34 35  1  0  0  0  0
 36 35  2  0  0  0  0
 37 36  1  0  0  0  0
 38 43  1  0  0  0  0
 38 37  2  0  0  0  0
 39 38  1  0  0  0  0
 40 41  1  0  0  0  0
 40 39  2  0  0  0  0
 41 42  2  0  0  0  0
 42 43  1  0  0  0  0
 43 34  2  0  0  0  0
M  END
>  <minimizedAffinity>
-5.99052525

>  <minimizedRMSD>
4.43094635

$$$$
