
 OpenBabel03252511023D

 31 33  0  0  0  0  0  0  0  0999 V2000
   37.2100   31.2150   48.4650 C   0  0  0  0  0  0  0  0  0  0  0  0
   37.6170   32.3060   49.2750 C   0  0  0  0  0  0  0  0  0  0  0  0
   38.6250   33.1280   48.7890 C   0  0  0  0  0  0  0  0  0  0  0  0
   39.1600   32.8270   47.5530 N   0  0  0  0  0  0  0  0  0  0  0  0
   38.7470   31.7950   46.8300 C   0  0  0  0  0  0  0  0  0  0  0  0
   37.7550   30.9590   47.2730 N   0  0  0  0  0  0  0  0  0  0  0  0
   37.1640   32.4910   50.2290 H   0  0  0  0  0  0  0  0  0  0  0  0
   38.9840   33.9730   49.3480 H   0  0  0  0  0  0  0  0  0  0  0  0
   39.3440   31.5170   45.5280 C   0  0  0  0  0  0  0  0  0  0  0  0
   40.0220   32.4720   44.7930 C   0  0  0  0  0  0  0  0  0  0  0  0
   40.4550   31.8690   43.6140 C   0  0  0  0  0  0  0  0  0  0  0  0
   40.0010   30.5570   43.7120 C   0  0  0  0  0  0  0  0  0  0  0  0
   39.3620   30.4110   44.8460 O   0  0  0  0  0  0  0  0  0  0  0  0
   40.2120   33.5190   45.0450 H   0  0  0  0  0  0  0  0  0  0  0  0
   41.0100   32.3640   42.8450 H   0  0  0  0  0  0  0  0  0  0  0  0
   40.2390   29.5600   42.6750 C   0  0  0  0  0  0  0  0  0  0  0  0
   41.1320   29.7710   41.6260 C   0  0  0  0  0  0  0  0  0  0  0  0
   41.3540   28.8270   40.6480 C   0  0  0  0  0  0  0  0  0  0  0  0
   42.0720   29.1230   39.8960 H   0  0  0  0  0  0  0  0  0  0  0  0
   40.6850   27.6240   40.6810 C   0  0  0  0  0  0  0  0  0  0  0  0
   39.7960   27.3950   41.7110 C   0  0  0  0  0  0  0  0  0  0  0  0
   39.3070   26.4190   41.6650 H   0  0  0  0  0  0  0  0  0  0  0  0
   39.5810   28.3470   42.6850 C   0  0  0  0  0  0  0  0  0  0  0  0
   36.1490   30.3610   48.9910 C   0  0  0  0  0  0  0  0  0  0  0  0
   34.9440   30.5970   48.6770 O   0  0  0  0  0  0  0  0  0  0  0  0
   36.4660   29.3050   49.8220 O   0  0  0  0  0  0  0  0  0  0  0  0
   36.5050   29.4330   51.2110 C   0  0  0  0  0  0  0  0  0  0  0  0
   37.6700   29.7600   51.9380 N   0  0  0  0  0  0  0  0  0  0  0  0
   35.4030   29.2270   51.7590 O   0  0  0  0  0  0  0  0  0  0  0  0
   38.6190   29.3950   52.1790 H   0  0  0  0  0  0  0  0  0  0  0  0
   37.8970   30.6140   52.5210 H   0  0  0  0  0  0  0  0  0  0  0  0
  1 24  1  0  0  0  0
  1  2  1  0  0  0  0
  2  7  1  0  0  0  0
  3  2  2  0  0  0  0
  3  8  1  0  0  0  0
  4  3  1  0  0  0  0
  5  6  1  0  0  0  0
  5  4  2  0  0  0  0
  6  1  2  0  0  0  0
  9  5  1  0  0  0  0
 10 14  1  0  0  0  0
 10  9  2  0  0  0  0
 11 12  2  0  0  0  0
 11 10  1  0  0  0  0
 12 13  1  0  0  0  0
 13  9  1  0  0  0  0
 15 11  1  0  0  0  0
 16 23  1  0  0  0  0
 16 12  1  0  0  0  0
 17 16  2  0  0  0  0
 18 20  2  0  0  0  0
 18 17  1  0  0  0  0
 19 18  1  0  0  0  0
 20 21  1  0  0  0  0
 21 23  2  0  0  0  0
 22 21  1  0  0  0  0
 24 26  1  0  0  0  0
 25 24  2  0  0  0  0
 26 27  1  0  0  0  0
 27 29  2  0  0  0  0
 27 28  1  0  0  0  0
 28 30  1  0  0  0  0
 28 31  1  0  0  0  0
M  END
>  <minimizedAffinity>
-5.94388914

>  <minimizedRMSD>
3.00456405

$$$$
