
 OpenBabel03252513583D

 27 29  0  0  1  0  0  0  0  0999 V2000
   35.4720   29.4090   49.1010 C   0  0  2  0  0  0  0  0  0  0  0  0
   34.3970   29.6410   50.1140 C   0  0  0  0  0  0  0  0  0  0  0  0
   34.5980   28.2680   49.5640 C   0  0  1  0  0  0  0  0  0  0  0  0
   35.2980   29.8540   48.1200 H   0  0  0  0  0  0  0  0  0  0  0  0
   33.4640   30.1390   49.7870 H   0  0  0  0  0  0  0  0  0  0  0  0
   34.6590   29.8590   51.1710 H   0  0  0  0  0  0  0  0  0  0  0  0
   35.0170   27.5530   50.3010 H   0  0  0  0  0  0  0  0  0  0  0  0
   33.5990   27.6850   48.6530 C   0  0  0  0  0  0  0  0  0  0  0  0
   32.2660   28.0130   48.8710 C   0  0  0  0  0  3  0  0  0  0  0  0
   31.2400   27.5110   48.0620 C   0  0  0  0  0  0  0  0  0  0  0  0
   30.2010   27.7520   48.2140 H   0  0  0  0  0  0  0  0  0  0  0  0
   31.5690   26.6660   47.0190 C   0  0  0  0  0  3  0  0  0  0  0  0
   32.9110   26.3400   46.8060 C   0  0  0  0  0  0  0  0  0  0  0  0
   33.1790   25.6680   45.9770 H   0  0  0  0  0  0  0  0  0  0  0  0
   33.9240   26.8430   47.6120 C   0  0  0  0  0  3  0  0  0  0  0  0
   36.9140   29.3250   49.5710 C   0  0  0  0  0  0  0  0  0  0  0  0
   37.3930   28.3710   49.2130 H   0  0  0  0  0  0  0  0  0  0  0  0
   36.8880   29.3700   50.6790 H   0  0  0  0  0  0  0  0  0  0  0  0
   38.4090   32.6880   49.3810 C   0  0  0  0  0  0  0  0  0  0  0  0
   38.9120   32.7430   48.0820 C   0  0  0  0  0  0  0  0  0  0  0  0
   38.7340   31.6130   47.2690 C   0  0  0  0  0  0  0  0  0  0  0  0
   38.0820   30.5440   47.8070 N   0  0  0  0  0  0  0  0  0  0  0  0
   37.6120   30.5330   49.0680 C   0  0  0  0  0  0  0  0  0  0  0  0
   37.7750   31.6080   49.8580 N   0  0  0  0  0  0  0  0  0  0  0  0
   38.5860   33.5970   49.9440 H   0  0  0  0  0  0  0  0  0  0  0  0
   39.4260   33.5770   47.6490 H   0  0  0  0  0  0  0  0  0  0  0  0
   39.0910   31.5760   46.2600 H   0  0  0  0  0  0  0  0  0  0  0  0
  1  4  1  6  0  0  0
  1  3  1  0  0  0  0
  1 16  1  0  0  0  0
  1  2  1  0  0  0  0
  2  6  1  0  0  0  0
  3  2  1  0  0  0  0
  3  7  1  1  0  0  0
  5  2  1  0  0  0  0
  8  9  1  0  0  0  0
  8  3  1  0  0  0  0
 10 11  1  0  0  0  0
 10  9  2  0  0  0  0
 12 10  1  0  0  0  0
 13 12  2  0  0  0  0
 13 15  1  0  0  0  0
 14 13  1  0  0  0  0
 15  8  2  0  0  0  0
 16 18  1  0  0  0  0
 17 16  1  0  0  0  0
 19 24  1  0  0  0  0
 19 25  1  0  0  0  0
 20 19  2  0  0  0  0
 21 22  2  0  0  0  0
 21 20  1  0  0  0  0
 22 23  1  0  0  0  0
 23 16  1  0  0  0  0
 23 24  2  0  0  0  0
 26 20  1  0  0  0  0
 27 21  1  0  0  0  0
M  END
>  <minimizedAffinity>
-5.28123522

>  <minimizedRMSD>
0.755807757

$$$$
