
 OpenBabel03252512353D

 41 44  0  0  1  0  0  0  0  0999 V2000
   31.7850   27.9570   46.9570 C   0  0  2  0  0  0  0  0  0  0  0  0
   31.9770   26.8980   46.6170 H   0  0  0  0  0  0  0  0  0  0  0  0
   35.1560   29.5140   48.6430 C   0  0  0  0  0  0  0  0  0  0  0  0
   34.7220   28.3340   49.2380 C   0  0  0  0  0  0  0  0  0  0  0  0
   33.6050   27.7690   48.7350 C   0  0  0  0  0  0  0  0  0  0  0  0
   33.0000   28.3550   47.7280 C   0  0  0  0  0  0  0  0  0  0  0  0
   33.9570   29.8560   47.3230 S   0  0  0  0  0  0  0  0  0  0  0  0
   35.3190   27.9420   50.0790 H   0  0  0  0  0  0  0  0  0  0  0  0
   33.1950   26.8380   49.1450 H   0  0  0  0  0  0  0  0  0  0  0  0
   38.0310   30.8450   50.5050 C   0  0  0  0  0  0  0  0  0  0  0  0
   38.5750   31.7970   49.6350 C   0  0  0  0  0  0  0  0  0  0  0  0
   37.9420   31.9730   48.4150 C   0  0  0  0  0  0  0  0  0  0  0  0
   36.8380   31.2280   48.1180 N   0  0  0  0  0  0  0  0  0  0  0  0
   36.3730   30.3320   49.0040 C   0  0  0  0  0  0  0  0  0  0  0  0
   36.9240   30.0800   50.2380 N   0  0  0  0  0  0  0  0  0  0  0  0
   38.5330   30.7110   51.4600 H   0  0  0  0  0  0  0  0  0  0  0  0
   39.4380   32.3380   49.9390 H   0  0  0  0  0  0  0  0  0  0  0  0
   38.3140   32.6870   47.7110 H   0  0  0  0  0  0  0  0  0  0  0  0
   31.5980   28.8450   45.8330 C   0  0  0  0  0  0  0  0  0  0  0  0
   31.1230   28.3250   44.9550 H   0  0  0  0  0  0  0  0  0  0  0  0
   32.5190   29.3220   45.4700 H   0  0  0  0  0  0  0  0  0  0  0  0
   30.8900   29.6790   46.0730 H   0  0  0  0  0  0  0  0  0  0  0  0
   30.6240   27.8720   47.9450 C   0  0  0  0  0  0  0  0  0  0  0  0
   30.9590   28.0620   48.9860 H   0  0  0  0  0  0  0  0  0  0  0  0
   29.9490   28.7150   47.6800 H   0  0  0  0  0  0  0  0  0  0  0  0
   29.9580   26.6860   47.8800 O   0  0  0  0  0  0  0  0  0  0  0  0
   29.2460   26.3230   46.7540 C   0  0  0  0  0  0  0  0  0  0  0  0
   29.0860   25.2170   45.9460 C   0  0  0  0  0  0  0  0  0  0  0  0
   28.1850   25.5800   44.9660 C   0  0  0  0  0  0  0  0  0  0  0  0
   27.8360   26.8810   45.2160 C   0  0  0  0  0  0  0  0  0  0  0  0
   28.4890   27.2710   46.2800 O   0  0  0  0  0  0  0  0  0  0  0  0
   29.6480   24.3360   46.2030 H   0  0  0  0  0  0  0  0  0  0  0  0
   27.8930   24.8880   44.2110 H   0  0  0  0  0  0  0  0  0  0  0  0
   26.8850   27.6520   44.3910 C   0  0  0  0  0  0  0  0  0  0  0  0
   25.9670   27.0210   43.5760 C   0  0  0  0  0  0  0  0  0  0  0  0
   25.0830   27.7840   42.8100 C   0  0  0  0  0  0  0  0  0  0  0  0
   24.3560   27.3230   42.1650 H   0  0  0  0  0  0  0  0  0  0  0  0
   25.1530   29.1540   42.8900 C   0  0  0  0  0  0  0  0  0  0  0  0
   26.0740   29.7750   43.7080 C   0  0  0  0  0  0  0  0  0  0  0  0
   26.1990   30.8540   43.8320 H   0  0  0  0  0  0  0  0  0  0  0  0
   26.9680   29.0470   44.4830 C   0  0  0  0  0  0  0  0  0  0  0  0
  1  2  1  6  0  0  0
  1  6  1  0  0  0  0
  1 23  1  0  0  0  0
  3 14  1  0  0  0  0
  3  4  2  0  0  0  0
  4  8  1  0  0  0  0
  5  9  1  0  0  0  0
  5  4  1  0  0  0  0
  6  5  2  0  0  0  0
  7  6  1  0  0  0  0
  7  3  1  0  0  0  0
 10 16  1  0  0  0  0
 11 17  1  0  0  0  0
 11 10  2  0  0  0  0
 12 11  1  0  0  0  0
 13 12  2  0  0  0  0
 13 14  1  0  0  0  0
 14 15  2  0  0  0  0
 15 10  1  0  0  0  0
 18 12  1  0  0  0  0
 19 22  1  0  0  0  0
 19  1  1  0  0  0  0
 20 19  1  0  0  0  0
 21 19  1  0  0  0  0
 23 24  1  0  0  0  0
 25 23  1  0  0  0  0
 26 23  1  0  0  0  0
 27 26  1  0  0  0  0
 28 32  1  0  0  0  0
 28 27  2  0  0  0  0
 29 30  2  0  0  0  0
 29 28  1  0  0  0  0
 30 31  1  0  0  0  0
 31 27  1  0  0  0  0
 33 29  1  0  0  0  0
 34 41  1  0  0  0  0
 34 30  1  0  0  0  0
 35 34  2  0  0  0  0
 36 38  2  0  0  0  0
 36 35  1  0  0  0  0
 37 36  1  0  0  0  0
 38 39  1  0  0  0  0
 39 40  1  0  0  0  0
 39 41  2  0  0  0  0
M  END
>  <minimizedAffinity>
-5.27101469

>  <minimizedRMSD>
0.241997957

$$$$
