
 OpenBabel03252512533D

 22 24  0  0  0  0  0  0  0  0999 V2000
   38.3560   31.4690   48.1770 C   0  0  0  0  0  0  0  0  0  0  0  0
   38.9870   32.6470   48.1270 N   0  0  0  0  0  0  0  0  0  0  0  0
   39.4150   32.8900   46.9330 O   0  0  0  0  0  0  0  0  0  0  0  0
   39.0790   31.8850   46.1760 C   0  0  0  0  0  0  0  0  0  0  0  0
   38.4150   30.9740   46.9120 N   0  0  0  0  0  0  0  0  0  0  0  0
   37.3640   30.1500   51.5420 C   0  0  0  0  0  0  0  0  0  0  0  0
   38.0310   30.8960   50.5710 C   0  0  0  0  0  0  0  0  0  0  0  0
   37.6960   30.7220   49.2390 C   0  0  0  0  0  0  0  0  0  0  0  0
   36.7230   29.8260   48.9370 N   0  0  0  0  0  0  0  0  0  0  0  0
   36.0910   29.1160   49.9040 C   0  0  0  0  0  0  0  0  0  0  0  0
   36.4090   29.2770   51.1990 N   0  0  0  0  0  0  0  0  0  0  0  0
   37.7480   30.4070   52.5370 H   0  0  0  0  0  0  0  0  0  0  0  0
   38.8230   31.6280   50.7690 H   0  0  0  0  0  0  0  0  0  0  0  0
   35.3130   28.3980   49.6780 H   0  0  0  0  0  0  0  0  0  0  0  0
   39.4000   31.8140   44.7550 C   0  0  0  0  0  0  0  0  0  0  0  0
   40.0600   30.7030   44.2750 C   0  0  0  0  0  0  0  0  0  0  0  0
   40.4240   30.5090   42.9490 C   0  0  0  0  0  0  0  0  0  0  0  0
   40.9420   29.6170   42.6230 H   0  0  0  0  0  0  0  0  0  0  0  0
   40.0980   31.5070   42.0540 C   0  0  0  0  0  0  0  0  0  0  0  0
   39.4340   32.6320   42.5200 C   0  0  0  0  0  0  0  0  0  0  0  0
   39.1930   33.4040   41.7730 H   0  0  0  0  0  0  0  0  0  0  0  0
   39.0860   32.7950   43.8460 C   0  0  0  0  0  0  0  0  0  0  0  0
  1  8  1  0  0  0  0
  2  1  2  0  0  0  0
  3  2  1  0  0  0  0
  4  5  2  0  0  0  0
  4  3  1  0  0  0  0
  5  1  1  0  0  0  0
  6 12  1  0  0  0  0
  7 13  1  0  0  0  0
  7  6  2  0  0  0  0
  8  7  1  0  0  0  0
  9  8  2  0  0  0  0
  9 10  1  0  0  0  0
 10 11  2  0  0  0  0
 11  6  1  0  0  0  0
 14 10  1  0  0  0  0
 15  4  1  0  0  0  0
 16 15  1  0  0  0  0
 17 16  2  0  0  0  0
 18 17  1  0  0  0  0
 19 20  2  0  0  0  0
 19 17  1  0  0  0  0
 20 22  1  0  0  0  0
 21 20  1  0  0  0  0
 22 15  2  0  0  0  0
M  END
>  <minimizedAffinity>
-5.57525301

>  <minimizedRMSD>
0.478597462

$$$$
