
 OpenBabel03252513583D

 27 29  0  0  1  0  0  0  0  0999 V2000
   35.3500   29.4520   49.1420 C   0  0  2  0  0  0  0  0  0  0  0  0
   34.3020   29.5850   50.2000 C   0  0  0  0  0  0  0  0  0  0  0  0
   34.5220   28.2590   49.5510 C   0  0  1  0  0  0  0  0  0  0  0  0
   35.1340   29.9570   48.1990 H   0  0  0  0  0  0  0  0  0  0  0  0
   33.3460   30.0770   49.9350 H   0  0  0  0  0  0  0  0  0  0  0  0
   34.5900   29.7390   51.2600 H   0  0  0  0  0  0  0  0  0  0  0  0
   34.9830   27.5080   50.2250 H   0  0  0  0  0  0  0  0  0  0  0  0
   33.5120   27.7090   48.6320 C   0  0  0  0  0  0  0  0  0  0  0  0
   33.9640   26.9190   47.5830 C   0  0  0  0  0  3  0  0  0  0  0  0
   33.0840   26.3500   46.6550 C   0  0  0  0  0  0  0  0  0  0  0  0
   33.4130   25.7340   45.8330 H   0  0  0  0  0  0  0  0  0  0  0  0
   31.7290   26.5860   46.7910 C   0  0  0  0  0  3  0  0  0  0  0  0
   31.2810   27.3810   47.8490 C   0  0  0  0  0  0  0  0  0  0  0  0
   30.2030   27.5730   47.9640 H   0  0  0  0  0  0  0  0  0  0  0  0
   32.1610   27.9420   48.7660 C   0  0  0  0  0  3  0  0  0  0  0  0
   36.8080   29.3790   49.5630 C   0  0  0  0  0  0  0  0  0  0  0  0
   37.2990   28.4590   49.1360 H   0  0  0  0  0  0  0  0  0  0  0  0
   36.8160   29.3600   50.6710 H   0  0  0  0  0  0  0  0  0  0  0  0
   37.9540   32.8780   49.4030 C   0  0  0  0  0  0  0  0  0  0  0  0
   38.6910   32.9210   48.2190 C   0  0  0  0  0  0  0  0  0  0  0  0
   38.7920   31.7350   47.4740 C   0  0  0  0  0  0  0  0  0  0  0  0
   38.1620   30.6290   47.9610 N   0  0  0  0  0  0  0  0  0  0  0  0
   37.4610   30.6310   49.1090 C   0  0  0  0  0  0  0  0  0  0  0  0
   37.3550   31.7580   49.8330 N   0  0  0  0  0  0  0  0  0  0  0  0
   37.9240   33.8300   49.9190 H   0  0  0  0  0  0  0  0  0  0  0  0
   39.1880   33.7850   47.8290 H   0  0  0  0  0  0  0  0  0  0  0  0
   39.3390   31.6860   46.5560 H   0  0  0  0  0  0  0  0  0  0  0  0
  1  4  1  6  0  0  0
  1  3  1  0  0  0  0
  1 16  1  0  0  0  0
  1  2  1  0  0  0  0
  2  6  1  0  0  0  0
  3  2  1  0  0  0  0
  3  7  1  1  0  0  0
  5  2  1  0  0  0  0
  8 15  1  0  0  0  0
  8  3  1  0  0  0  0
  9  8  2  0  0  0  0
 10 12  2  0  0  0  0
 10  9  1  0  0  0  0
 11 10  1  0  0  0  0
 12 13  1  0  0  0  0
 13 14  1  0  0  0  0
 13 15  2  0  0  0  0
 16 18  1  0  0  0  0
 17 16  1  0  0  0  0
 19 24  1  0  0  0  0
 19 25  1  0  0  0  0
 20 19  2  0  0  0  0
 21 22  2  0  0  0  0
 21 20  1  0  0  0  0
 22 23  1  0  0  0  0
 23 16  1  0  0  0  0
 23 24  2  0  0  0  0
 26 20  1  0  0  0  0
 27 21  1  0  0  0  0
M  END
>  <minimizedAffinity>
-5.24422884

>  <minimizedRMSD>
0.767912447

$$$$
