
 OpenBabel03252512233D

 24 26  0  0  0  0  0  0  0  0999 V2000
   36.4090   30.3970   48.6820 C   0  0  0  0  0  0  0  0  0  0  0  0
   36.2980   29.5250   49.7930 C   0  0  0  0  0  0  0  0  0  0  0  0
   35.3320   28.5690   49.7110 C   0  0  0  0  0  0  0  0  0  0  0  0
   34.5590   28.5030   48.6190 C   0  0  0  0  0  0  0  0  0  0  0  0
   35.1410   29.8350   47.5550 S   0  0  0  0  0  0  0  0  0  0  0  0
   36.9800   29.6600   50.6440 H   0  0  0  0  0  0  0  0  0  0  0  0
   35.1660   27.8550   50.5060 H   0  0  0  0  0  0  0  0  0  0  0  0
   38.3860   33.4440   49.3930 C   0  0  0  0  0  0  0  0  0  0  0  0
   39.2420   33.5130   48.2780 C   0  0  0  0  0  0  0  0  0  0  0  0
   39.1180   32.5170   47.3150 C   0  0  0  0  0  0  0  0  0  0  0  0
   38.1920   31.5210   47.4720 N   0  0  0  0  0  0  0  0  0  0  0  0
   37.3950   31.5040   48.5650 C   0  0  0  0  0  0  0  0  0  0  0  0
   37.4650   32.4450   49.5390 N   0  0  0  0  0  0  0  0  0  0  0  0
   38.4320   34.1850   50.1730 H   0  0  0  0  0  0  0  0  0  0  0  0
   39.9570   34.3110   48.1910 H   0  0  0  0  0  0  0  0  0  0  0  0
   39.7520   32.5260   46.4400 H   0  0  0  0  0  0  0  0  0  0  0  0
   33.4580   27.5730   48.2920 C   0  0  0  0  0  0  0  0  0  0  0  0
   33.7360   26.4460   47.5380 C   0  0  0  0  0  0  0  0  0  0  0  0
   32.6670   25.6200   47.2680 C   0  0  0  0  0  0  0  0  0  0  0  0
   32.8990   24.7340   46.6710 H   0  0  0  0  0  0  0  0  0  0  0  0
   31.3810   25.8660   47.7060 C   0  0  0  0  0  0  0  0  0  0  0  0
   31.1700   27.0130   48.4580 C   0  0  0  0  0  0  0  0  0  0  0  0
   30.1550   27.2300   48.8170 H   0  0  0  0  0  0  0  0  0  0  0  0
   32.2080   27.8900   48.7650 C   0  0  0  0  0  0  0  0  0  0  0  0
  1  2  2  0  0  0  0
  2  6  1  0  0  0  0
  3  2  1  0  0  0  0
  3  7  1  0  0  0  0
  4  3  2  0  0  0  0
  5  4  1  0  0  0  0
  5  1  1  0  0  0  0
  8 13  1  0  0  0  0
  8 14  1  0  0  0  0
  9  8  2  0  0  0  0
 10 11  2  0  0  0  0
 10  9  1  0  0  0  0
 11 12  1  0  0  0  0
 12  1  1  0  0  0  0
 12 13  2  0  0  0  0
 15  9  1  0  0  0  0
 16 10  1  0  0  0  0
 17  4  1  0  0  0  0
 17 24  1  0  0  0  0
 18 17  2  0  0  0  0
 19 18  1  0  0  0  0
 19 21  2  0  0  0  0
 20 19  1  0  0  0  0
 21 22  1  0  0  0  0
 22 24  2  0  0  0  0
 22 23  1  0  0  0  0
M  END
>  <minimizedAffinity>
-5.54781914

>  <minimizedRMSD>
2.89788413

$$$$
