
 OpenBabel03252513463D

 21 22  0  0  0  0  0  0  0  0999 V2000
   37.1110   30.4480   49.3040 C   0  0  0  0  0  0  0  0  0  0  0  0
   36.9910   31.5960   50.1160 C   0  0  0  0  0  0  0  0  0  0  0  0
   37.6070   32.7740   49.6610 C   0  0  0  0  0  0  0  0  0  0  0  0
   38.2800   32.7450   48.4700 N   0  0  0  0  0  0  0  0  0  0  0  0
   38.3520   31.6230   47.7540 C   0  0  0  0  0  0  0  0  0  0  0  0
   37.7870   30.4650   48.1340 N   0  0  0  0  0  0  0  0  0  0  0  0
   36.4500   31.5700   51.0480 H   0  0  0  0  0  0  0  0  0  0  0  0
   37.5430   33.6790   50.2450 H   0  0  0  0  0  0  0  0  0  0  0  0
   39.0760   31.5920   46.4750 C   0  0  0  0  0  0  0  0  0  0  0  0
   39.8400   32.6830   46.0980 C   0  0  0  0  0  0  0  0  0  0  0  0
   40.5440   32.7400   44.9260 C   0  0  0  0  0  0  0  0  0  0  0  0
   41.1440   33.6180   44.6500 H   0  0  0  0  0  0  0  0  0  0  0  0
   40.4820   31.6590   44.0970 C   0  0  0  0  0  0  0  0  0  0  0  0
   39.7400   30.5350   44.4090 C   0  0  0  0  0  0  0  0  0  0  0  0
   39.6430   29.6360   43.7970 H   0  0  0  0  0  0  0  0  0  0  0  0
   39.0470   30.5310   45.6050 C   0  0  0  0  0  0  0  0  0  0  0  0
   36.5110   29.2880   49.7460 O   0  0  0  0  0  0  0  0  0  0  0  0
   35.2310   29.1790   50.2780 C   0  0  0  0  0  0  0  0  0  0  0  0
   35.2020   29.1560   51.6600 F   0  0  0  0  0  0  0  0  0  0  0  0
   34.3530   30.1210   49.7960 F   0  0  0  0  0  0  0  0  0  0  0  0
   34.7360   27.9530   49.8380 F   0  0  0  0  0  0  0  0  0  0  0  0
  1 17  1  0  0  0  0
  1  2  1  0  0  0  0
  2  7  1  0  0  0  0
  3  2  2  0  0  0  0
  3  8  1  0  0  0  0
  4  3  1  0  0  0  0
  5  6  1  0  0  0  0
  5  4  2  0  0  0  0
  6  1  2  0  0  0  0
  9  5  1  0  0  0  0
 10  9  1  0  0  0  0
 11 10  2  0  0  0  0
 12 11  1  0  0  0  0
 13 14  2  0  0  0  0
 13 11  1  0  0  0  0
 14 16  1  0  0  0  0
 15 14  1  0  0  0  0
 16  9  2  0  0  0  0
 17 18  1  0  0  0  0
 18 19  1  0  0  0  0
 20 18  1  0  0  0  0
 21 18  1  0  0  0  0
M  END
>  <minimizedAffinity>
-6.27857018

>  <minimizedRMSD>
1.63436568

$$$$
