
 OpenBabel03252514053D

 37 40  0  0  1  0  0  0  0  0999 V2000
   35.2370   29.1340   48.5130 C   0  0  2  0  0  0  0  0  0  0  0  0
   33.9830   29.4180   49.2030 C   0  0  0  0  0  0  0  0  0  0  0  0
   34.2780   28.0230   49.0540 C   0  0  1  0  0  0  0  0  0  0  0  0
   35.3190   29.1740   47.4250 H   0  0  0  0  0  0  0  0  0  0  0  0
   34.0740   29.9730   50.1820 H   0  0  0  0  0  0  0  0  0  0  0  0
   33.1690   29.8970   48.5920 H   0  0  0  0  0  0  0  0  0  0  0  0
   34.7570   27.3650   49.7770 H   0  0  0  0  0  0  0  0  0  0  0  0
   36.5140   29.1970   49.3670 C   0  0  0  0  0  0  0  0  0  0  0  0
   37.1480   28.3450   49.0570 H   0  0  0  0  0  0  0  0  0  0  0  0
   36.2450   29.1160   50.4230 H   0  0  0  0  0  0  0  0  0  0  0  0
   37.5480   32.6920   49.6090 C   0  0  0  0  0  0  0  0  0  0  0  0
   38.4420   32.8260   48.5310 C   0  0  0  0  0  0  0  0  0  0  0  0
   38.6740   31.6860   47.7280 C   0  0  0  0  0  0  0  0  0  0  0  0
   38.0190   30.5230   48.0440 N   0  0  0  0  0  0  0  0  0  0  0  0
   37.1800   30.4560   49.0810 C   0  0  0  0  0  0  0  0  0  0  0  0
   36.9520   31.5510   49.8590 N   0  0  0  0  0  0  0  0  0  0  0  0
   37.3330   33.5330   50.2570 H   0  0  0  0  0  0  0  0  0  0  0  0
   38.9280   33.7770   48.3360 H   0  0  0  0  0  0  0  0  0  0  0  0
   39.3500   31.7710   46.9060 H   0  0  0  0  0  0  0  0  0  0  0  0
   33.4600   27.2920   48.0070 C   0  0  0  0  0  0  0  0  0  0  0  0
   33.8630   26.0800   47.8090 O   0  0  0  0  0  0  0  0  0  0  0  0
   32.3740   27.7980   47.2990 O   0  0  0  0  0  0  0  0  0  0  0  0
   31.1490   28.0410   47.8580 C   0  0  0  0  0  0  0  0  0  0  0  0
   30.7350   27.6150   49.2150 C   0  0  0  0  0  0  0  0  0  0  0  0
   29.4860   27.9350   49.6230 C   0  0  0  0  0  0  0  0  0  0  0  0
   28.5950   28.6490   48.8010 C   0  0  0  0  0  0  0  0  0  0  0  0
   29.5890   28.9250   47.2520 S   0  0  0  0  0  0  0  0  0  0  0  0
   31.4510   27.0740   49.8030 H   0  0  0  0  0  0  0  0  0  0  0  0
   29.0930   27.6710   50.5880 H   0  0  0  0  0  0  0  0  0  0  0  0
   27.3270   29.1090   48.9050 C   0  0  0  0  0  0  0  0  0  0  0  0
   27.0040   30.4250   48.6590 C   0  0  0  0  0  3  0  0  0  0  0  0
   25.7090   30.8890   48.7670 C   0  0  0  0  0  0  0  0  0  0  0  0
   25.4640   31.9260   48.5710 H   0  0  0  0  0  0  0  0  0  0  0  0
   24.7060   30.0110   49.1340 C   0  0  0  0  0  3  0  0  0  0  0  0
   24.9870   28.6690   49.3920 C   0  0  0  0  0  0  0  0  0  0  0  0
   24.1910   27.9790   49.6820 H   0  0  0  0  0  0  0  0  0  0  0  0
   26.3170   28.2460   49.2700 C   0  0  0  0  0  3  0  0  0  0  0  0
  1  4  1  6  0  0  0
  1  3  1  0  0  0  0
  1  2  1  0  0  0  0
  1  8  1  0  0  0  0
  2  5  1  0  0  0  0
  3  2  1  0  0  0  0
  3  7  1  1  0  0  0
  6  2  1  0  0  0  0
  8 10  1  0  0  0  0
  9  8  1  0  0  0  0
 11 16  1  0  0  0  0
 11 17  1  0  0  0  0
 12 11  2  0  0  0  0
 13 14  2  0  0  0  0
 13 12  1  0  0  0  0
 14 15  1  0  0  0  0
 15  8  1  0  0  0  0
 15 16  2  0  0  0  0
 18 12  1  0  0  0  0
 19 13  1  0  0  0  0
 20  3  1  0  0  0  0
 21 20  2  0  0  0  0
 22 23  1  0  0  0  0
 22 20  1  0  0  0  0
 23 24  2  0  0  0  0
 24 25  1  0  0  0  0
 24 28  1  0  0  0  0
 25 29  1  0  0  0  0
 26 30  1  0  0  0  0
 26 25  2  0  0  0  0
 27 23  1  0  0  0  0
 27 26  1  0  0  0  0
 30 37  1  0  0  0  0
 31 32  1  0  0  0  0
 31 30  2  0  0  0  0
 32 34  2  0  0  0  0
 33 32  1  0  0  0  0
 34 35  1  0  0  0  0
 35 36  1  0  0  0  0
 37 35  2  0  0  0  0
M  END
>  <minimizedAffinity>
-6.78861046

>  <minimizedRMSD>
1.92831481

$$$$
