
 OpenBabel03252513583D

 27 29  0  0  1  0  0  0  0  0999 V2000
   35.4450   29.4130   49.1290 C   0  0  2  0  0  0  0  0  0  0  0  0
   34.3920   29.6060   50.1730 C   0  0  0  0  0  0  0  0  0  0  0  0
   34.5770   28.2570   49.5610 C   0  0  1  0  0  0  0  0  0  0  0  0
   35.2520   29.9000   48.1710 H   0  0  0  0  0  0  0  0  0  0  0  0
   33.4540   30.1190   49.8870 H   0  0  0  0  0  0  0  0  0  0  0  0
   34.6770   29.7780   51.2320 H   0  0  0  0  0  0  0  0  0  0  0  0
   35.0100   27.5100   50.2590 H   0  0  0  0  0  0  0  0  0  0  0  0
   33.5580   27.7140   48.6480 C   0  0  0  0  0  0  0  0  0  0  0  0
   33.9970   26.9100   47.6040 C   0  0  0  0  0  3  0  0  0  0  0  0
   33.1080   26.3460   46.6820 C   0  0  0  0  0  0  0  0  0  0  0  0
   33.4270   25.7190   45.8650 H   0  0  0  0  0  0  0  0  0  0  0  0
   31.7570   26.6000   46.8200 C   0  0  0  0  0  3  0  0  0  0  0  0
   31.3220   27.4100   47.8710 C   0  0  0  0  0  0  0  0  0  0  0  0
   30.2470   27.6160   47.9870 H   0  0  0  0  0  0  0  0  0  0  0  0
   32.2110   27.9660   48.7820 C   0  0  0  0  0  3  0  0  0  0  0  0
   36.8960   29.3060   49.5640 C   0  0  0  0  0  0  0  0  0  0  0  0
   37.3570   28.3540   49.1790 H   0  0  0  0  0  0  0  0  0  0  0  0
   36.8950   29.3330   50.6730 H   0  0  0  0  0  0  0  0  0  0  0  0
   38.3930   32.6700   49.3880 C   0  0  0  0  0  0  0  0  0  0  0  0
   38.8980   32.7290   48.0890 C   0  0  0  0  0  0  0  0  0  0  0  0
   38.7210   31.6010   47.2720 C   0  0  0  0  0  0  0  0  0  0  0  0
   38.0680   30.5310   47.8060 N   0  0  0  0  0  0  0  0  0  0  0  0
   37.5960   30.5160   49.0660 C   0  0  0  0  0  0  0  0  0  0  0  0
   37.7570   31.5880   49.8600 N   0  0  0  0  0  0  0  0  0  0  0  0
   38.5690   33.5760   49.9540 H   0  0  0  0  0  0  0  0  0  0  0  0
   39.4130   33.5640   47.6610 H   0  0  0  0  0  0  0  0  0  0  0  0
   39.0800   31.5680   46.2650 H   0  0  0  0  0  0  0  0  0  0  0  0
  1  4  1  6  0  0  0
  1  3  1  0  0  0  0
  1 16  1  0  0  0  0
  1  2  1  0  0  0  0
  2  6  1  0  0  0  0
  3  2  1  0  0  0  0
  3  7  1  1  0  0  0
  5  2  1  0  0  0  0
  8 15  1  0  0  0  0
  8  3  1  0  0  0  0
  9  8  2  0  0  0  0
 10 12  2  0  0  0  0
 10  9  1  0  0  0  0
 11 10  1  0  0  0  0
 12 13  1  0  0  0  0
 13 14  1  0  0  0  0
 13 15  2  0  0  0  0
 16 18  1  0  0  0  0
 17 16  1  0  0  0  0
 19 24  1  0  0  0  0
 19 25  1  0  0  0  0
 20 19  2  0  0  0  0
 21 22  2  0  0  0  0
 21 20  1  0  0  0  0
 22 23  1  0  0  0  0
 23 16  1  0  0  0  0
 23 24  2  0  0  0  0
 26 20  1  0  0  0  0
 27 21  1  0  0  0  0
M  END
>  <minimizedAffinity>
-5.25360537

>  <minimizedRMSD>
0.594994783

$$$$
