
 OpenBabel03252511363D

 30 32  0  0  0  0  0  0  0  0999 V2000
   36.4410   30.5320   46.5480 C   0  0  0  0  0  0  0  0  0  0  0  0
   35.1450   30.0550   46.4890 C   0  0  0  0  0  0  0  0  0  0  0  0
   34.4780   29.7330   45.3390 C   0  0  0  0  0  0  0  0  0  0  0  0
   35.1340   29.8900   44.1340 C   0  0  0  0  0  0  0  0  0  0  0  0
   36.4430   30.3680   44.1510 C   0  0  0  0  0  0  0  0  0  0  0  0
   37.0850   30.6840   45.3500 C   0  0  0  0  0  0  0  0  0  0  0  0
   34.5950   29.9180   47.4110 H   0  0  0  0  0  0  0  0  0  0  0  0
   33.4630   29.3600   45.3050 H   0  0  0  0  0  0  0  0  0  0  0  0
   34.7180   29.6720   43.1610 H   0  0  0  0  0  0  0  0  0  0  0  0
   37.0500   30.5270   43.2460 H   0  0  0  0  0  0  0  0  0  0  0  0
   37.4210   30.3180   50.0630 C   0  0  0  0  0  0  0  0  0  0  0  0
   38.2010   31.4690   50.2360 C   0  0  0  0  0  0  0  0  0  0  0  0
   38.3850   32.3150   49.1360 C   0  0  0  0  0  0  0  0  0  0  0  0
   37.7990   31.9720   47.9660 N   0  0  0  0  0  0  0  0  0  0  0  0
   37.0440   30.8430   47.8280 C   0  0  0  0  0  0  0  0  0  0  0  0
   36.8670   30.0340   48.8790 N   0  0  0  0  0  0  0  0  0  0  0  0
   38.6530   31.7060   51.1910 H   0  0  0  0  0  0  0  0  0  0  0  0
   38.9840   33.2010   49.2650 H   0  0  0  0  0  0  0  0  0  0  0  0
   37.2210   29.4060   51.2480 C   0  0  0  0  0  0  0  0  0  0  0  0
   35.8690   29.1540   51.4010 F   0  0  0  0  0  0  0  0  0  0  0  0
   37.9480   28.2810   51.0360 F   0  0  0  0  0  0  0  0  0  0  0  0
   37.6680   30.0870   52.3670 F   0  0  0  0  0  0  0  0  0  0  0  0
   38.4720   31.1890   45.3410 C   0  0  0  0  0  0  0  0  0  0  0  0
   38.4760   32.5200   44.9100 C   0  0  0  0  0  0  0  0  0  0  0  0
   39.6920   33.2100   44.8220 C   0  0  0  0  0  0  0  0  0  0  0  0
   39.7460   34.2540   44.4900 H   0  0  0  0  0  0  0  0  0  0  0  0
   40.8650   32.5700   45.1590 C   0  0  0  0  0  0  0  0  0  0  0  0
   40.8170   31.2680   45.5760 C   0  0  0  0  0  0  0  0  0  0  0  0
   41.7160   30.7040   45.8580 H   0  0  0  0  0  0  0  0  0  0  0  0
   39.6380   30.5600   45.6740 C   0  0  0  0  0  0  0  0  0  0  0  0
  1 15  1  0  0  0  0
  2  1  1  0  0  0  0
  2  7  1  0  0  0  0
  3  2  2  0  0  0  0
  4  5  2  0  0  0  0
  4  3  1  0  0  0  0
  5  6  1  0  0  0  0
  6  1  2  0  0  0  0
  8  3  1  0  0  0  0
  9  4  1  0  0  0  0
 10  5  1  0  0  0  0
 11 12  1  0  0  0  0
 11 19  1  0  0  0  0
 12 17  1  0  0  0  0
 13 18  1  0  0  0  0
 13 12  2  0  0  0  0
 14 13  1  0  0  0  0
 15 14  2  0  0  0  0
 15 16  1  0  0  0  0
 16 11  2  0  0  0  0
 19 20  1  0  0  0  0
 19 22  1  0  0  0  0
 21 19  1  0  0  0  0
 23  6  1  0  0  0  0
 23 30  1  0  0  0  0
 24 23  2  0  0  0  0
 25 24  1  0  0  0  0
 25 27  2  0  0  0  0
 26 25  1  0  0  0  0
 27 28  1  0  0  0  0
 28 30  2  0  0  0  0
 28 29  1  0  0  0  0
M  END
>  <minimizedAffinity>
-7.30592585

>  <minimizedRMSD>
0.598915517

$$$$
