
 OpenBabel03252511533D

 22 23  0  0  0  0  0  0  0  0999 V2000
   36.9290   30.6800   46.9980 N   0  0  0  0  0  0  0  0  0  0  0  0
   36.2810   30.3370   45.8640 C   0  0  0  0  0  0  0  0  0  0  0  0
   36.8180   30.6540   44.6290 C   0  0  0  0  0  0  0  0  0  0  0  0
   38.0140   31.3200   44.6750 C   0  0  0  0  0  0  0  0  0  0  0  0
   38.5320   31.6250   43.5510 O   0  0  0  0  0  0  0  0  0  0  0  0
   38.6920   31.6800   45.7660 N   0  0  0  0  0  0  0  0  0  0  0  0
   38.0960   31.3300   46.9420 C   0  0  0  0  0  0  0  0  0  0  0  0
   38.6700   31.6340   48.0200 O   0  0  0  0  0  0  0  0  0  0  0  0
   35.3260   29.8050   45.9020 H   0  0  0  0  0  0  0  0  0  0  0  0
   36.3310   30.3970   43.6870 H   0  0  0  0  0  0  0  0  0  0  0  0
   37.1720   29.6150   49.0990 C   0  0  0  0  0  0  0  0  0  0  0  0
   36.3320   30.3280   48.2210 C   0  0  0  0  0  0  0  0  0  0  0  0
   35.0410   30.6040   48.6360 C   0  0  0  0  0  0  0  0  0  0  0  0
   34.6370   30.1820   49.8600 N   0  0  0  0  0  0  0  0  0  0  0  0
   35.4680   29.4930   50.6940 C   0  0  0  0  0  0  0  0  0  0  0  0
   36.7380   29.2150   50.3000 N   0  0  0  0  0  0  0  0  0  0  0  0
   38.1900   29.3650   48.8430 H   0  0  0  0  0  0  0  0  0  0  0  0
   34.4430   31.1440   47.9420 H   0  0  0  0  0  0  0  0  0  0  0  0
   35.1270   29.1650   51.6670 H   0  0  0  0  0  0  0  0  0  0  0  0
   39.9350   32.3720   45.8110 C   0  0  0  0  0  0  0  0  0  0  0  0
   41.0480   31.4080   45.4560 C   0  0  0  0  0  0  0  0  0  0  0  0
   39.9970   33.6450   45.0350 C   0  0  0  0  0  0  0  0  0  0  0  0
  1 12  1  0  0  0  0
  2  9  1  0  0  0  0
  2  1  1  0  0  0  0
  3  4  1  0  0  0  0
  3  2  2  0  0  0  0
  4  6  1  0  0  0  0
  5  4  2  0  0  0  0
  6 20  1  0  0  0  0
  6  7  1  0  0  0  0
  7  1  1  0  0  0  0
  7  8  2  0  0  0  0
 10  3  1  0  0  0  0
 11 16  1  0  0  0  0
 12 13  1  0  0  0  0
 12 11  2  0  0  0  0
 13 14  2  0  0  0  0
 14 15  1  0  0  0  0
 15 19  1  0  0  0  0
 16 15  2  0  0  0  0
 17 11  1  0  0  0  0
 18 13  1  0  0  0  0
 21 20  1  0  0  0  0
 22 20  1  0  0  0  0
M  END
>  <minimizedAffinity>
-4.78890848

>  <minimizedRMSD>
2.43896723

$$$$
