
 OpenBabel03252513493D

 25 26  0  0  0  0  0  0  0  0999 V2000
   36.3220   29.9450   48.4990 C   0  0  0  0  0  0  0  0  0  0  0  0
   37.4780   30.6940   48.0880 C   0  0  0  0  0  0  0  0  0  0  0  0
   37.5590   31.1080   46.7610 C   0  0  0  0  0  0  0  0  0  0  0  0
   36.5270   30.7700   45.9470 N   0  0  0  0  0  0  0  0  0  0  0  0
   35.4650   30.0750   46.3510 C   0  0  0  0  0  0  0  0  0  0  0  0
   35.3640   29.6710   47.6010 N   0  0  0  0  0  0  0  0  0  0  0  0
   38.2640   30.9230   48.8080 H   0  0  0  0  0  0  0  0  0  0  0  0
   34.4460   29.8090   45.3040 C   0  0  0  0  0  0  0  0  0  0  0  0
   33.2860   30.5550   45.5520 F   0  0  0  0  0  0  0  0  0  0  0  0
   34.9170   30.2270   44.0790 F   0  0  0  0  0  0  0  0  0  0  0  0
   34.1480   28.4590   45.1840 F   0  0  0  0  0  0  0  0  0  0  0  0
   38.7050   31.8660   46.2960 C   0  0  0  0  0  0  0  0  0  0  0  0
   39.3590   32.5550   47.1090 O   0  0  0  0  0  0  0  0  0  0  0  0
   39.1420   31.8660   44.9020 C   0  0  0  0  0  0  0  0  0  0  0  0
   39.8960   30.7980   44.4630 C   0  0  0  0  0  0  0  0  0  0  0  0
   40.3500   30.7210   43.1530 C   0  0  0  0  0  0  0  0  0  0  0  0
   40.0120   31.7620   42.3130 C   0  0  0  0  0  0  0  0  0  0  0  0
   40.3680   31.7070   41.2750 H   0  0  0  0  0  0  0  0  0  0  0  0
   39.2550   32.8360   42.7500 C   0  0  0  0  0  0  0  0  0  0  0  0
   38.8370   32.8600   44.0430 N   0  0  0  0  0  0  0  0  0  0  0  0
   36.2520   29.5400   49.8130 O   0  0  0  0  0  0  0  0  0  0  0  0
   35.0760   29.3120   50.5090 C   0  0  0  0  0  0  0  0  0  0  0  0
   35.2670   29.1510   51.8740 F   0  0  0  0  0  0  0  0  0  0  0  0
   34.0830   30.2190   50.2610 F   0  0  0  0  0  0  0  0  0  0  0  0
   34.6110   28.0640   50.0350 F   0  0  0  0  0  0  0  0  0  0  0  0
  1 21  1  0  0  0  0
  2  1  1  0  0  0  0
  2  7  1  0  0  0  0
  3  2  2  0  0  0  0
  4  5  2  0  0  0  0
  4  3  1  0  0  0  0
  5  6  1  0  0  0  0
  6  1  2  0  0  0  0
  8  9  1  0  0  0  0
  8  5  1  0  0  0  0
 10  8  1  0  0  0  0
 11  8  1  0  0  0  0
 12  3  1  0  0  0  0
 12 13  2  0  0  0  0
 14 12  1  0  0  0  0
 15 14  1  0  0  0  0
 16 15  2  0  0  0  0
 17 19  2  0  0  0  0
 17 16  1  0  0  0  0
 18 17  1  0  0  0  0
 19 20  1  0  0  0  0
 20 14  2  0  0  0  0
 21 22  1  0  0  0  0
 22 23  1  0  0  0  0
 24 22  1  0  0  0  0
 25 22  1  0  0  0  0
M  END
>  <minimizedAffinity>
-5.4643364

>  <minimizedRMSD>
3.98784566

$$$$
