
 OpenBabel03252514033D

 36 39  0  0  1  0  0  0  0  0999 V2000
   35.2710   29.1800   48.6130 C   0  0  2  0  0  0  0  0  0  0  0  0
   34.0380   29.2940   49.3820 C   0  0  0  0  0  0  0  0  0  0  0  0
   34.4170   27.9500   49.0610 C   0  0  1  0  0  0  0  0  0  0  0  0
   35.2930   29.3960   47.5360 H   0  0  0  0  0  0  0  0  0  0  0  0
   34.1330   29.6340   50.4540 H   0  0  0  0  0  0  0  0  0  0  0  0
   33.1300   29.7760   48.9120 H   0  0  0  0  0  0  0  0  0  0  0  0
   34.9800   27.2430   49.6730 H   0  0  0  0  0  0  0  0  0  0  0  0
   36.5810   29.2420   49.4160 C   0  0  0  0  0  0  0  0  0  0  0  0
   36.3450   29.1930   50.5000 H   0  0  0  0  0  0  0  0  0  0  0  0
   37.2070   28.3460   49.1770 H   0  0  0  0  0  0  0  0  0  0  0  0
   37.6460   32.7340   49.5650 C   0  0  0  0  0  0  0  0  0  0  0  0
   38.5020   32.8440   48.4610 C   0  0  0  0  0  0  0  0  0  0  0  0
   38.7030   31.6920   47.6680 C   0  0  0  0  0  0  0  0  0  0  0  0
   38.0520   30.5340   48.0200 N   0  0  0  0  0  0  0  0  0  0  0  0
   37.2440   30.4930   49.0890 C   0  0  0  0  0  0  0  0  0  0  0  0
   37.0470   31.5950   49.8550 N   0  0  0  0  0  0  0  0  0  0  0  0
   37.4660   33.5940   50.1960 H   0  0  0  0  0  0  0  0  0  0  0  0
   38.9950   33.7860   48.2230 H   0  0  0  0  0  0  0  0  0  0  0  0
   39.3630   31.7440   46.8020 H   0  0  0  0  0  0  0  0  0  0  0  0
   33.5990   27.2820   47.9730 C   0  0  0  0  0  0  0  0  0  0  0  0
   33.8740   26.0270   47.8250 O   0  0  0  0  0  0  0  0  0  0  0  0
   32.6310   27.8870   47.1800 O   0  0  0  0  0  0  0  0  0  0  0  0
   31.3540   28.1330   47.5820 C   0  0  0  0  0  0  0  0  0  0  0  0
   30.7760   27.6510   48.8520 C   0  0  0  0  0  0  0  0  0  0  0  0
   29.4920   27.9530   49.1650 C   0  0  0  0  0  0  0  0  0  0  0  0
   28.7140   28.7310   48.2640 C   0  0  0  0  0  0  0  0  0  0  0  0
   29.8860   29.0680   46.8570 S   0  0  0  0  0  0  0  0  0  0  0  0
   31.3940   27.0640   49.5080 H   0  0  0  0  0  0  0  0  0  0  0  0
   28.9710   27.6590   50.0550 H   0  0  0  0  0  0  0  0  0  0  0  0
   27.4910   29.2000   48.2040 N   0  0  0  0  0  0  0  0  0  0  0  0
   26.3280   28.5210   47.6630 C   0  0  0  0  0  2  0  0  0  0  0  0
   25.4380   28.2320   48.8610 C   0  0  0  0  0  2  0  0  0  0  0  0
   25.0080   29.5520   49.4410 C   0  0  0  0  0  3  0  0  0  0  0  0
   25.2690   29.5620   50.5220 H   0  0  0  0  0  0  0  0  0  0  0  0
   25.6490   30.7310   48.7720 C   0  0  0  0  0  2  0  0  0  0  0  0
   27.1450   30.5330   48.7170 C   0  0  0  0  0  2  0  0  0  0  0  0
  1  4  1  6  0  0  0
  1  3  1  0  0  0  0
  1  2  1  0  0  0  0
  1  8  1  0  0  0  0
  2  5  1  0  0  0  0
  3  2  1  0  0  0  0
  3  7  1  1  0  0  0
  6  2  1  0  0  0  0
  8  9  1  0  0  0  0
 10  8  1  0  0  0  0
 11 16  1  0  0  0  0
 11 17  1  0  0  0  0
 12 11  2  0  0  0  0
 13 14  2  0  0  0  0
 13 12  1  0  0  0  0
 14 15  1  0  0  0  0
 15  8  1  0  0  0  0
 15 16  2  0  0  0  0
 18 12  1  0  0  0  0
 19 13  1  0  0  0  0
 20  3  1  0  0  0  0
 21 20  2  0  0  0  0
 22 23  1  0  0  0  0
 22 20  1  0  0  0  0
 23 24  2  0  0  0  0
 24 25  1  0  0  0  0
 24 28  1  0  0  0  0
 25 29  1  0  0  0  0
 26 25  2  0  0  0  0
 27 23  1  0  0  0  0
 27 26  1  0  0  0  0
 30 26  1  0  0  0  0
 30 36  1  0  0  0  0
 31 30  1  0  0  0  0
 31 32  1  0  0  0  0
 32 33  1  0  0  0  0
 33 34  1  0  0  0  0
 35 33  1  0  0  0  0
 36 35  1  0  0  0  0
M  END
>  <minimizedAffinity>
-6.36586571

>  <minimizedRMSD>
1.84903777

$$$$
