
 OpenBabel03252513313D

 19 20  0  0  0  0  0  0  0  0999 V2000
   37.0560   30.9710   48.7340 C   0  0  0  0  0  0  0  0  0  0  0  0
   38.1850   31.2240   47.9420 C   0  0  0  0  0  0  0  0  0  0  0  0
   38.0720   31.0330   46.5700 C   0  0  0  0  0  0  0  0  0  0  0  0
   36.8930   30.6150   46.0580 N   0  0  0  0  0  0  0  0  0  0  0  0
   35.8100   30.3780   46.8620 C   0  0  0  0  0  0  0  0  0  0  0  0
   35.9050   30.5580   48.1890 N   0  0  0  0  0  0  0  0  0  0  0  0
   39.0980   31.5560   48.4160 H   0  0  0  0  0  0  0  0  0  0  0  0
   34.9000   30.0440   46.3730 H   0  0  0  0  0  0  0  0  0  0  0  0
   39.1880   31.2770   45.7240 N   0  0  0  0  0  0  0  0  0  0  0  0
   39.5420   30.3550   44.6890 C   0  0  0  0  0  0  0  0  0  0  0  0
   40.4600   31.1220   43.7340 C   0  0  0  0  0  0  0  0  0  0  0  0
   39.7580   32.4450   43.4540 C   0  0  0  0  0  0  0  0  0  0  0  0
   38.7050   32.2580   43.1480 H   0  0  0  0  0  0  0  0  0  0  0  0
   39.7860   33.3330   44.6790 C   0  0  0  0  0  0  0  0  0  0  0  0
   39.9720   32.4810   45.9230 C   0  0  0  0  0  0  0  0  0  0  0  0
   37.1420   31.1660   50.2160 C   0  0  0  0  0  0  0  0  0  0  0  0
   36.3560   30.2320   50.8650 F   0  0  0  0  0  0  0  0  0  0  0  0
   38.4420   31.1780   50.5870 F   0  0  0  0  0  0  0  0  0  0  0  0
   36.5650   32.4160   50.4870 F   0  0  0  0  0  0  0  0  0  0  0  0
  1 16  1  0  0  0  0
  2  7  1  0  0  0  0
  2  1  2  0  0  0  0
  3  2  1  0  0  0  0
  4  3  2  0  0  0  0
  4  5  1  0  0  0  0
  5  6  2  0  0  0  0
  6  1  1  0  0  0  0
  8  5  1  0  0  0  0
  9 15  1  0  0  0  0
  9  3  1  0  0  0  0
 10  9  1  0  0  0  0
 11 10  1  0  0  0  0
 12 11  1  0  0  0  0
 12 14  1  0  0  0  0
 13 12  1  0  0  0  0
 14 15  1  0  0  0  0
 16 19  1  0  0  0  0
 16 18  1  0  0  0  0
 16 17  1  0  0  0  0
M  END
>  <minimizedAffinity>
-5.84201527

>  <minimizedRMSD>
3.4357512

$$$$
