
 OpenBabel03252514073D

 41 44  0  0  0  0  0  0  0  0999 V2000
   34.1030   29.9370   47.4150 C   0  0  0  0  0  0  0  0  0  0  0  0
   35.0110   29.7730   48.4870 C   0  0  0  0  0  0  0  0  0  0  0  0
   34.7800   28.7020   49.3290 C   0  0  0  0  0  0  0  0  0  0  0  0
   33.7250   27.8900   49.0870 N   0  0  0  0  0  0  0  0  0  0  0  0
   32.8810   28.0620   48.0710 C   0  0  0  0  0  0  0  0  0  0  0  0
   33.0660   29.0920   47.2240 N   0  0  0  0  0  0  0  0  0  0  0  0
   34.2540   30.7540   46.7490 H   0  0  0  0  0  0  0  0  0  0  0  0
   35.5010   28.6280   50.1180 H   0  0  0  0  0  0  0  0  0  0  0  0
   36.0700   30.7080   48.6070 N   0  0  0  0  0  0  0  0  0  0  0  0
   36.3890   31.3450   49.7500 C   0  0  0  0  0  0  0  0  0  0  0  0
   37.4370   32.1700   49.5170 N   0  0  0  0  0  0  0  0  0  0  0  0
   37.7570   32.0290   48.2140 C   0  0  0  0  0  0  0  0  0  0  0  0
   38.7190   32.5940   47.3960 C   0  0  0  0  0  0  0  0  0  0  0  0
   38.8170   32.2650   46.1020 N   0  0  0  0  0  0  0  0  0  0  0  0
   37.9840   31.3660   45.5320 C   0  0  0  0  0  0  0  0  0  0  0  0
   37.0520   30.8210   46.3290 N   0  0  0  0  0  0  0  0  0  0  0  0
   36.9090   31.1120   47.6240 C   0  0  0  0  0  0  0  0  0  0  0  0
   35.9380   31.2720   50.7360 H   0  0  0  0  0  0  0  0  0  0  0  0
   38.0210   31.0650   44.4930 H   0  0  0  0  0  0  0  0  0  0  0  0
   39.6140   33.5390   47.9380 N   0  0  0  0  0  0  0  0  0  0  0  0
   39.4500   34.1980   48.7270 H   0  0  0  0  0  0  0  0  0  0  0  0
   40.5810   33.7190   47.6260 H   0  0  0  0  0  0  0  0  0  0  0  0
   31.7530   27.1350   47.8370 C   0  0  0  0  0  0  0  0  0  0  0  0
   30.7690   27.2190   49.0200 C   0  0  0  0  0  0  0  0  0  0  0  0
   31.2700   27.8230   49.8260 H   0  0  0  0  0  0  0  0  0  0  0  0
   29.8510   27.7660   48.7730 H   0  0  0  0  0  0  0  0  0  0  0  0
   30.5340   26.2310   49.4070 H   0  0  0  0  0  0  0  0  0  0  0  0
   30.9140   27.6280   46.6390 C   0  0  0  0  0  0  0  0  0  0  0  0
   30.7250   28.6980   46.8120 H   0  0  0  0  0  0  0  0  0  0  0  0
   31.5420   27.5310   45.7390 H   0  0  0  0  0  0  0  0  0  0  0  0
   29.9830   27.0630   46.6250 H   0  0  0  0  0  0  0  0  0  0  0  0
   32.1070   25.7420   47.5400 C   0  0  0  0  0  0  0  0  0  0  0  0
   32.1150   25.1630   48.4990 H   0  0  0  0  0  0  0  0  0  0  0  0
   31.2530   25.3010   46.9460 H   0  0  0  0  0  0  0  0  0  0  0  0
   33.3460   25.5250   46.8430 N   0  0  0  0  0  0  0  0  0  0  0  0
   33.0380   25.0770   45.4430 C   0  0  0  0  0  2  0  0  0  0  0  0
   34.3440   25.3760   44.7050 C   0  0  0  0  0  2  0  0  0  0  0  0
   35.3360   24.3440   45.1990 C   0  0  0  0  0  3  0  0  0  0  0  0
   36.3230   24.8110   45.3730 H   0  0  0  0  0  0  0  0  0  0  0  0
   34.8400   23.5940   46.3870 C   0  0  0  0  0  2  0  0  0  0  0  0
   34.0830   24.3860   47.4050 C   0  0  0  0  0  2  0  0  0  0  0  0
  1  2  1  0  0  0  0
  2  9  1  0  0  0  0
  2  3  2  0  0  0  0
  3  8  1  0  0  0  0
  4  3  1  0  0  0  0
  5  4  2  0  0  0  0
  6  1  2  0  0  0  0
  6  5  1  0  0  0  0
  7  1  1  0  0  0  0
  9 10  1  0  0  0  0
 10 18  1  0  0  0  0
 11 10  2  0  0  0  0
 12 11  1  0  0  0  0
 13 20  1  0  0  0  0
 13 12  2  0  0  0  0
 14 13  1  0  0  0  0
 15 14  2  0  0  0  0
 15 16  1  0  0  0  0
 16 17  2  0  0  0  0
 17 12  1  0  0  0  0
 17  9  1  0  0  0  0
 19 15  1  0  0  0  0
 20 21  1  0  0  0  0
 22 20  1  0  0  0  0
 23  5  1  0  0  0  0
 23 24  1  0  0  0  0
 24 27  1  0  0  0  0
 24 25  1  0  0  0  0
 26 24  1  0  0  0  0
 28 29  1  0  0  0  0
 28 23  1  0  0  0  0
 30 28  1  0  0  0  0
 31 28  1  0  0  0  0
 32 23  1  0  0  0  0
 32 33  1  0  0  0  0
 34 32  1  0  0  0  0
 35 41  1  0  0  0  0
 35 32  1  0  0  0  0
 36 35  1  0  0  0  0
 37 38  1  0  0  0  0
 37 36  1  0  0  0  0
 38 39  1  0  0  0  0
 38 40  1  0  0  0  0
 40 41  1  0  0  0  0
M  END
>  <minimizedAffinity>
-5.53255796

>  <minimizedRMSD>
1.14604354

$$$$
