
 OpenBabel03252514073D

 41 44  0  0  0  0  0  0  0  0999 V2000
   34.2430   30.0630   47.6010 C   0  0  0  0  0  0  0  0  0  0  0  0
   35.2660   29.8150   48.5450 C   0  0  0  0  0  0  0  0  0  0  0  0
   35.2310   28.5890   49.1810 C   0  0  0  0  0  0  0  0  0  0  0  0
   34.2450   27.7150   48.8730 N   0  0  0  0  0  0  0  0  0  0  0  0
   33.2900   27.9680   47.9800 C   0  0  0  0  0  0  0  0  0  0  0  0
   33.2830   29.1490   47.3350 N   0  0  0  0  0  0  0  0  0  0  0  0
   34.2420   31.0000   47.0950 H   0  0  0  0  0  0  0  0  0  0  0  0
   36.0320   28.4580   49.8820 H   0  0  0  0  0  0  0  0  0  0  0  0
   36.2310   30.8310   48.7580 N   0  0  0  0  0  0  0  0  0  0  0  0
   36.3520   31.5310   49.9030 C   0  0  0  0  0  0  0  0  0  0  0  0
   37.3610   32.4240   49.7690 N   0  0  0  0  0  0  0  0  0  0  0  0
   37.8570   32.2630   48.5260 C   0  0  0  0  0  0  0  0  0  0  0  0
   38.8760   32.8700   47.8130 C   0  0  0  0  0  0  0  0  0  0  0  0
   39.1660   32.5040   46.5580 N   0  0  0  0  0  0  0  0  0  0  0  0
   38.4800   31.5250   45.9270 C   0  0  0  0  0  0  0  0  0  0  0  0
   37.4920   30.9390   46.6210 N   0  0  0  0  0  0  0  0  0  0  0  0
   37.1610   31.2640   47.8730 C   0  0  0  0  0  0  0  0  0  0  0  0
   35.7830   31.4590   50.8250 H   0  0  0  0  0  0  0  0  0  0  0  0
   38.6740   31.1910   44.9160 H   0  0  0  0  0  0  0  0  0  0  0  0
   39.6230   33.8980   48.4230 N   0  0  0  0  0  0  0  0  0  0  0  0
   39.3110   34.5710   49.1540 H   0  0  0  0  0  0  0  0  0  0  0  0
   40.6080   34.1410   48.2290 H   0  0  0  0  0  0  0  0  0  0  0  0
   32.2440   26.9720   47.6620 C   0  0  0  0  0  0  0  0  0  0  0  0
   31.0700   27.1330   48.6470 C   0  0  0  0  0  0  0  0  0  0  0  0
   31.4090   27.8390   49.4550 H   0  0  0  0  0  0  0  0  0  0  0  0
   30.1940   27.6090   48.1910 H   0  0  0  0  0  0  0  0  0  0  0  0
   30.7990   26.1810   49.0950 H   0  0  0  0  0  0  0  0  0  0  0  0
   31.6110   27.3010   46.2940 C   0  0  0  0  0  0  0  0  0  0  0  0
   31.3660   28.3730   46.3150 H   0  0  0  0  0  0  0  0  0  0  0  0
   32.3860   27.1400   45.5280 H   0  0  0  0  0  0  0  0  0  0  0  0
   30.7110   26.6960   46.1860 H   0  0  0  0  0  0  0  0  0  0  0  0
   32.6810   25.5730   47.5830 C   0  0  0  0  0  0  0  0  0  0  0  0
   33.5420   25.4270   48.2860 H   0  0  0  0  0  0  0  0  0  0  0  0
   31.8500   24.9400   48.0110 H   0  0  0  0  0  0  0  0  0  0  0  0
   33.0430   25.0830   46.2800 N   0  0  0  0  0  0  0  0  0  0  0  0
   32.5090   23.6890   46.1250 C   0  0  0  0  0  2  0  0  0  0  0  0
   32.5050   23.5030   44.6060 C   0  0  0  0  0  2  0  0  0  0  0  0
   33.9610   23.3720   44.2090 C   0  0  0  0  0  3  0  0  0  0  0  0
   34.1600   23.9410   43.2830 H   0  0  0  0  0  0  0  0  0  0  0  0
   34.8920   23.7340   45.3140 C   0  0  0  0  0  2  0  0  0  0  0  0
   34.4960   24.8990   46.1630 C   0  0  0  0  0  2  0  0  0  0  0  0
  1  2  1  0  0  0  0
  2  9  1  0  0  0  0
  2  3  2  0  0  0  0
  3  8  1  0  0  0  0
  4  3  1  0  0  0  0
  5  4  2  0  0  0  0
  6  1  2  0  0  0  0
  6  5  1  0  0  0  0
  7  1  1  0  0  0  0
  9 10  1  0  0  0  0
 10 18  1  0  0  0  0
 11 10  2  0  0  0  0
 12 11  1  0  0  0  0
 13 20  1  0  0  0  0
 13 12  2  0  0  0  0
 14 13  1  0  0  0  0
 15 14  2  0  0  0  0
 15 16  1  0  0  0  0
 16 17  2  0  0  0  0
 17 12  1  0  0  0  0
 17  9  1  0  0  0  0
 19 15  1  0  0  0  0
 20 21  1  0  0  0  0
 22 20  1  0  0  0  0
 23  5  1  0  0  0  0
 23 24  1  0  0  0  0
 24 27  1  0  0  0  0
 24 25  1  0  0  0  0
 26 24  1  0  0  0  0
 28 29  1  0  0  0  0
 28 23  1  0  0  0  0
 30 28  1  0  0  0  0
 31 28  1  0  0  0  0
 32 23  1  0  0  0  0
 32 34  1  0  0  0  0
 32 33  1  0  0  0  0
 35 32  1  0  0  0  0
 36 35  1  0  0  0  0
 37 36  1  0  0  0  0
 38 37  1  0  0  0  0
 38 40  1  0  0  0  0
 39 38  1  0  0  0  0
 40 41  1  0  0  0  0
 41 35  1  0  0  0  0
M  END
>  <minimizedAffinity>
-5.32422876

>  <minimizedRMSD>
1.08052278

$$$$
