
 OpenBabel03252514073D

 41 44  0  0  0  0  0  0  0  0999 V2000
   34.2570   30.0760   47.6120 C   0  0  0  0  0  0  0  0  0  0  0  0
   35.2820   29.8320   48.5560 C   0  0  0  0  0  0  0  0  0  0  0  0
   35.2430   28.6110   49.2020 C   0  0  0  0  0  0  0  0  0  0  0  0
   34.2530   27.7390   48.9040 N   0  0  0  0  0  0  0  0  0  0  0  0
   33.2960   27.9880   48.0110 C   0  0  0  0  0  0  0  0  0  0  0  0
   33.2920   29.1640   47.3570 N   0  0  0  0  0  0  0  0  0  0  0  0
   34.2580   31.0080   47.0980 H   0  0  0  0  0  0  0  0  0  0  0  0
   36.0460   28.4830   49.9010 H   0  0  0  0  0  0  0  0  0  0  0  0
   36.2520   30.8450   48.7580 N   0  0  0  0  0  0  0  0  0  0  0  0
   36.3840   31.5480   49.8990 C   0  0  0  0  0  0  0  0  0  0  0  0
   37.3950   32.4370   49.7540 N   0  0  0  0  0  0  0  0  0  0  0  0
   37.8800   32.2710   48.5070 C   0  0  0  0  0  0  0  0  0  0  0  0
   38.8940   32.8730   47.7830 C   0  0  0  0  0  0  0  0  0  0  0  0
   39.1720   32.5030   46.5270 N   0  0  0  0  0  0  0  0  0  0  0  0
   38.4780   31.5240   45.9050 C   0  0  0  0  0  0  0  0  0  0  0  0
   37.4950   30.9430   46.6090 N   0  0  0  0  0  0  0  0  0  0  0  0
   37.1750   31.2720   47.8630 C   0  0  0  0  0  0  0  0  0  0  0  0
   35.8230   31.4800   50.8270 H   0  0  0  0  0  0  0  0  0  0  0  0
   38.6620   31.1870   44.8930 H   0  0  0  0  0  0  0  0  0  0  0  0
   39.6500   33.9010   48.3840 N   0  0  0  0  0  0  0  0  0  0  0  0
   39.3460   34.5760   49.1160 H   0  0  0  0  0  0  0  0  0  0  0  0
   40.6330   34.1400   48.1810 H   0  0  0  0  0  0  0  0  0  0  0  0
   32.2450   26.9940   47.7050 C   0  0  0  0  0  0  0  0  0  0  0  0
   31.0520   27.2030   48.6580 C   0  0  0  0  0  0  0  0  0  0  0  0
   31.3820   27.9320   49.4480 H   0  0  0  0  0  0  0  0  0  0  0  0
   30.1920   27.6730   48.1660 H   0  0  0  0  0  0  0  0  0  0  0  0
   30.7600   26.2690   49.1320 H   0  0  0  0  0  0  0  0  0  0  0  0
   31.6450   27.2820   46.3130 C   0  0  0  0  0  0  0  0  0  0  0  0
   31.4130   28.3580   46.2920 H   0  0  0  0  0  0  0  0  0  0  0  0
   32.4350   27.0860   45.5700 H   0  0  0  0  0  0  0  0  0  0  0  0
   30.7420   26.6840   46.2050 H   0  0  0  0  0  0  0  0  0  0  0  0
   32.6670   25.5880   47.6830 C   0  0  0  0  0  0  0  0  0  0  0  0
   33.5290   25.4620   48.3880 H   0  0  0  0  0  0  0  0  0  0  0  0
   31.8310   24.9830   48.1420 H   0  0  0  0  0  0  0  0  0  0  0  0
   33.0170   25.0390   46.4010 N   0  0  0  0  0  0  0  0  0  0  0  0
   32.4970   23.6330   46.3220 C   0  0  0  0  0  2  0  0  0  0  0  0
   32.4750   23.3720   44.8150 C   0  0  0  0  0  2  0  0  0  0  0  0
   33.9270   23.2390   44.4030 C   0  0  0  0  0  3  0  0  0  0  0  0
   34.1060   23.7650   43.4470 H   0  0  0  0  0  0  0  0  0  0  0  0
   34.8690   23.6660   45.4750 C   0  0  0  0  0  2  0  0  0  0  0  0
   34.4700   24.8670   46.2710 C   0  0  0  0  0  2  0  0  0  0  0  0
  1  2  1  0  0  0  0
  2  9  1  0  0  0  0
  2  3  2  0  0  0  0
  3  8  1  0  0  0  0
  4  3  1  0  0  0  0
  5  4  2  0  0  0  0
  6  1  2  0  0  0  0
  6  5  1  0  0  0  0
  7  1  1  0  0  0  0
  9 10  1  0  0  0  0
 10 18  1  0  0  0  0
 11 10  2  0  0  0  0
 12 11  1  0  0  0  0
 13 20  1  0  0  0  0
 13 12  2  0  0  0  0
 14 13  1  0  0  0  0
 15 14  2  0  0  0  0
 15 16  1  0  0  0  0
 16 17  2  0  0  0  0
 17 12  1  0  0  0  0
 17  9  1  0  0  0  0
 19 15  1  0  0  0  0
 20 21  1  0  0  0  0
 22 20  1  0  0  0  0
 23  5  1  0  0  0  0
 23 24  1  0  0  0  0
 24 27  1  0  0  0  0
 24 25  1  0  0  0  0
 26 24  1  0  0  0  0
 28 23  1  0  0  0  0
 29 28  1  0  0  0  0
 30 28  1  0  0  0  0
 31 28  1  0  0  0  0
 32 23  1  0  0  0  0
 32 34  1  0  0  0  0
 32 33  1  0  0  0  0
 35 32  1  0  0  0  0
 36 35  1  0  0  0  0
 37 36  1  0  0  0  0
 38 37  1  0  0  0  0
 38 40  1  0  0  0  0
 39 38  1  0  0  0  0
 40 41  1  0  0  0  0
 41 35  1  0  0  0  0
M  END
>  <minimizedAffinity>
-5.34270191

>  <minimizedRMSD>
1.43515253

$$$$
