
 OpenBabel03252512403D

 22 24  0  0  0  0  0  0  0  0999 V2000
   38.4120   31.1910   47.8310 C   0  0  0  0  0  0  0  0  0  0  0  0
   38.8820   32.5360   47.9410 C   0  0  0  0  0  0  0  0  0  0  0  0
   39.6810   32.8430   46.3030 S   0  0  0  0  0  0  0  0  0  0  0  0
   39.2330   31.0970   45.7660 C   0  0  0  0  0  0  0  0  0  0  0  0
   38.6990   30.6720   46.6590 N   0  0  0  0  0  0  0  0  0  0  0  0
   38.7670   33.1860   48.8200 H   0  0  0  0  0  0  0  0  0  0  0  0
   39.5580   30.5340   44.4640 N   0  0  0  0  0  0  0  0  0  0  0  0
   40.4830   31.0520   43.5260 C   0  0  0  0  0  0  0  0  0  0  0  0
   39.9360   31.1680   42.1220 C   0  0  0  0  0  0  0  0  0  0  0  0
   39.0840   30.0110   41.7010 C   0  0  0  0  0  0  0  0  0  0  0  0
   38.4960   30.3720   40.8120 H   0  0  0  0  0  0  0  0  0  0  0  0
   38.0970   29.7130   42.7960 C   0  0  0  0  0  0  0  0  0  0  0  0
   38.8980   29.3210   44.0290 C   0  0  0  0  0  0  0  0  0  0  0  0
   38.1230   30.8870   50.2660 C   0  0  0  0  0  0  0  0  0  0  0  0
   37.7070   30.5710   48.9590 C   0  0  0  0  0  0  0  0  0  0  0  0
   36.6540   29.6910   48.8110 C   0  0  0  0  0  0  0  0  0  0  0  0
   36.0780   29.1790   49.9380 N   0  0  0  0  0  0  0  0  0  0  0  0
   36.4890   29.4940   51.1700 C   0  0  0  0  0  0  0  0  0  0  0  0
   37.5030   30.3410   51.3210 N   0  0  0  0  0  0  0  0  0  0  0  0
   38.9430   31.5720   50.4690 H   0  0  0  0  0  0  0  0  0  0  0  0
   36.3620   29.4700   47.8020 H   0  0  0  0  0  0  0  0  0  0  0  0
   35.9730   29.0390   52.0140 H   0  0  0  0  0  0  0  0  0  0  0  0
  1  2  2  0  0  0  0
  1 15  1  0  0  0  0
  2  6  1  0  0  0  0
  3  2  1  0  0  0  0
  4  3  1  0  0  0  0
  4  5  2  0  0  0  0
  5  1  1  0  0  0  0
  7  4  1  0  0  0  0
  8  7  1  0  0  0  0
  9  8  1  0  0  0  0
 10  9  1  0  0  0  0
 10 12  1  0  0  0  0
 11 10  1  0  0  0  0
 12 13  1  0  0  0  0
 13  7  1  0  0  0  0
 14 20  1  0  0  0  0
 14 19  1  0  0  0  0
 15 14  2  0  0  0  0
 16 15  1  0  0  0  0
 16 17  2  0  0  0  0
 17 18  1  0  0  0  0
 18 19  2  0  0  0  0
 18 22  1  0  0  0  0
 21 16  1  0  0  0  0
M  END
>  <minimizedAffinity>
-5.55218077

>  <minimizedRMSD>
0.233040616

$$$$
