
 OpenBabel03252512383D

 38 40  0  0  1  0  0  0  0  0999 V2000
   39.2710   30.8430   46.3660 C   0  0  2  0  0  0  0  0  0  0  0  0
   40.1910   31.8230   45.8270 C   0  0  0  0  0  0  0  0  0  0  0  0
   41.0060   31.3440   44.6750 C   0  0  0  0  0  0  0  0  0  0  0  0
   40.2310   30.6060   43.6600 C   0  0  0  0  0  0  0  0  0  0  0  0
   39.2040   29.7120   44.1850 C   0  0  0  0  0  0  0  0  0  0  0  0
   38.3370   30.3700   45.3200 C   0  0  2  0  0  0  0  0  0  0  0  0
   39.8390   29.9340   46.6880 H   0  0  0  0  0  0  0  0  0  0  0  0
   40.9700   31.9590   46.6460 H   0  0  0  0  0  0  0  0  0  0  0  0
   39.8870   32.8450   45.6460 H   0  0  0  0  0  0  0  0  0  0  0  0
   41.4930   32.2240   44.1900 H   0  0  0  0  0  0  0  0  0  0  0  0
   41.8290   30.6560   45.0270 H   0  0  0  0  0  0  0  0  0  0  0  0
   39.7800   31.3370   42.9380 H   0  0  0  0  0  0  0  0  0  0  0  0
   40.9360   30.0090   43.0590 H   0  0  0  0  0  0  0  0  0  0  0  0
   39.6120   28.7830   44.6380 H   0  0  0  0  0  0  0  0  0  0  0  0
   38.5080   29.4330   43.3500 H   0  0  0  0  0  0  0  0  0  0  0  0
   37.6940   29.5010   45.6300 H   0  0  0  0  0  0  0  0  0  0  0  0
   38.6860   32.5920   48.1620 C   0  0  0  0  0  0  0  0  0  0  0  0
   38.5320   31.3030   47.5400 C   0  0  0  0  0  0  0  0  0  0  0  0
   37.6340   30.4320   48.0470 C   0  0  0  0  0  0  0  0  0  0  0  0
   36.9050   30.8290   49.1440 N   0  0  0  0  0  0  0  0  0  0  0  0
   37.0740   32.0720   49.7200 C   0  0  0  0  0  0  0  0  0  0  0  0
   37.9820   32.9580   49.2110 N   0  0  0  0  0  0  0  0  0  0  0  0
   39.4360   33.2320   47.6840 H   0  0  0  0  0  0  0  0  0  0  0  0
   37.4200   29.4410   47.6800 H   0  0  0  0  0  0  0  0  0  0  0  0
   36.4560   32.2840   50.5730 H   0  0  0  0  0  0  0  0  0  0  0  0
   37.5950   31.4380   44.6620 C   0  0  0  0  0  0  0  0  0  0  0  0
   37.6480   32.6860   44.9470 O   0  0  0  0  0  0  0  0  0  0  0  0
   36.7820   31.0230   43.6620 O   0  0  0  0  0  0  0  0  0  0  0  0
   35.9600   31.9720   43.0060 C   0  0  0  0  0  0  0  0  0  0  0  0
   34.5650   31.8930   43.0400 C   0  0  0  0  0  0  0  0  0  0  0  0
   34.1420   32.9780   42.2960 C   0  0  0  0  0  0  0  0  0  0  0  0
   35.2260   33.6730   41.8390 N   0  0  0  0  0  0  0  0  0  0  0  0
   36.2940   33.0350   42.2870 N   0  0  0  0  0  0  0  0  0  0  0  0
   33.8910   31.1930   43.5070 H   0  0  0  0  0  0  0  0  0  0  0  0
   33.1060   33.2480   42.0990 H   0  0  0  0  0  0  0  0  0  0  0  0
   35.1310   34.8600   41.0300 C   0  0  0  0  0  0  0  0  0  0  0  0
   34.4660   34.6260   39.7040 C   0  0  0  0  0  0  0  0  0  0  0  0
   34.3490   35.9650   41.7340 C   0  0  0  0  0  0  0  0  0  0  0  0
  1  7  1  1  0  0  0
  1 18  1  0  0  0  0
  2  1  1  0  0  0  0
  2  8  1  0  0  0  0
  3 11  1  0  0  0  0
  3  2  1  0  0  0  0
  4  5  1  0  0  0  0
  4  3  1  0  0  0  0
  5 14  1  0  0  0  0
  5  6  1  0  0  0  0
  6 16  1  1  0  0  0
  6  1  1  0  0  0  0
  9  2  1  0  0  0  0
 10  3  1  0  0  0  0
 12  4  1  0  0  0  0
 13  4  1  0  0  0  0
 15  5  1  0  0  0  0
 17 22  1  0  0  0  0
 18 19  1  0  0  0  0
 18 17  2  0  0  0  0
 19 20  2  0  0  0  0
 20 21  1  0  0  0  0
 21 25  1  0  0  0  0
 22 21  2  0  0  0  0
 23 17  1  0  0  0  0
 24 19  1  0  0  0  0
 26 27  2  0  0  0  0
 26  6  1  0  0  0  0
 28 26  1  0  0  0  0
 29 30  1  0  0  0  0
 29 28  1  0  0  0  0
 30 34  1  0  0  0  0
 31 30  2  0  0  0  0
 32 33  1  0  0  0  0
 32 31  1  0  0  0  0
 33 29  2  0  0  0  0
 35 31  1  0  0  0  0
 36 38  1  0  0  0  0
 36 32  1  0  0  0  0
 37 36  1  0  0  0  0
M  END
>  <minimizedAffinity>
-5.23124695

>  <minimizedRMSD>
0.59959507

$$$$
