
 OpenBabel03252513553D

 26 28  0  0  1  0  0  0  0  0999 V2000
   36.3240   30.2450   50.3910 C   0  0  2  0  0  0  0  0  0  0  0  0
   35.5750   29.2830   51.2350 C   0  0  0  0  0  0  0  0  0  0  0  0
   35.6300   29.0570   49.7650 C   0  0  1  0  0  0  0  0  0  0  0  0
   35.9170   31.2270   50.1410 H   0  0  0  0  0  0  0  0  0  0  0  0
   34.6860   29.7240   51.7350 H   0  0  0  0  0  0  0  0  0  0  0  0
   36.1790   28.6340   51.8940 H   0  0  0  0  0  0  0  0  0  0  0  0
   36.2310   28.1790   49.4500 H   0  0  0  0  0  0  0  0  0  0  0  0
   34.4790   29.2900   48.9280 N   0  0  0  0  0  0  0  0  0  0  0  0
   34.8880   29.4450   47.5520 C   0  0  0  0  0  0  0  0  0  0  0  0
   33.7590   29.2250   46.5730 C   0  0  0  0  0  0  0  0  0  0  0  0
   33.4700   27.7550   46.5590 C   0  0  0  0  0  0  0  0  0  0  0  0
   34.1230   27.2900   45.7810 H   0  0  0  0  0  0  0  0  0  0  0  0
   33.7780   27.1520   47.9290 C   0  0  0  0  0  0  0  0  0  0  0  0
   33.5100   28.2180   48.9870 C   0  0  0  0  0  0  0  0  0  0  0  0
   37.8360   30.1620   50.3020 C   0  0  0  0  0  0  0  0  0  0  0  0
   38.0810   29.1540   49.9060 H   0  0  0  0  0  0  0  0  0  0  0  0
   38.3270   30.3340   51.2960 H   0  0  0  0  0  0  0  0  0  0  0  0
   38.9580   33.2920   48.7050 C   0  0  0  0  0  0  0  0  0  0  0  0
   39.0610   32.9430   47.3520 C   0  0  0  0  0  0  0  0  0  0  0  0
   38.7400   31.6290   47.0110 C   0  0  0  0  0  0  0  0  0  0  0  0
   38.3510   30.7690   47.9980 N   0  0  0  0  0  0  0  0  0  0  0  0
   38.2680   31.1600   49.2980 C   0  0  0  0  0  0  0  0  0  0  0  0
   38.5720   32.4230   49.6470 N   0  0  0  0  0  0  0  0  0  0  0  0
   39.2040   34.3200   49.0060 H   0  0  0  0  0  0  0  0  0  0  0  0
   39.3780   33.6810   46.6280 H   0  0  0  0  0  0  0  0  0  0  0  0
   38.8100   31.3330   45.9830 H   0  0  0  0  0  0  0  0  0  0  0  0
  1  4  1  6  0  0  0
  1  2  1  0  0  0  0
  2  5  1  0  0  0  0
  2  6  1  0  0  0  0
  3  7  1  6  0  0  0
  3  1  1  0  0  0  0
  3  2  1  0  0  0  0
  8 14  1  0  0  0  0
  8  3  1  0  0  0  0
  9  8  1  0  0  0  0
 10  9  1  0  0  0  0
 11 10  1  0  0  0  0
 11 13  1  0  0  0  0
 12 11  1  0  0  0  0
 13 14  1  0  0  0  0
 15  1  1  0  0  0  0
 15 17  1  0  0  0  0
 16 15  1  0  0  0  0
 18 24  1  0  0  0  0
 18 23  1  0  0  0  0
 19 18  2  0  0  0  0
 20 19  1  0  0  0  0
 20 21  2  0  0  0  0
 21 22  1  0  0  0  0
 22 23  2  0  0  0  0
 22 15  1  0  0  0  0
 25 19  1  0  0  0  0
 26 20  1  0  0  0  0
M  END
>  <minimizedAffinity>
-5.05715561

>  <minimizedRMSD>
1.66178584

$$$$
