
 OpenBabel03252514073D

 41 44  0  0  0  0  0  0  0  0999 V2000
   34.2540   30.0730   47.6110 C   0  0  0  0  0  0  0  0  0  0  0  0
   35.2790   29.8280   48.5550 C   0  0  0  0  0  0  0  0  0  0  0  0
   35.2410   28.6070   49.2000 C   0  0  0  0  0  0  0  0  0  0  0  0
   34.2510   27.7350   48.9000 N   0  0  0  0  0  0  0  0  0  0  0  0
   33.2940   27.9840   48.0080 C   0  0  0  0  0  0  0  0  0  0  0  0
   33.2900   29.1610   47.3540 N   0  0  0  0  0  0  0  0  0  0  0  0
   34.2550   31.0060   47.0980 H   0  0  0  0  0  0  0  0  0  0  0  0
   36.0430   28.4780   49.8990 H   0  0  0  0  0  0  0  0  0  0  0  0
   36.2480   30.8420   48.7580 N   0  0  0  0  0  0  0  0  0  0  0  0
   36.3800   31.5440   49.8990 C   0  0  0  0  0  0  0  0  0  0  0  0
   37.3900   32.4340   49.7560 N   0  0  0  0  0  0  0  0  0  0  0  0
   37.8760   32.2680   48.5090 C   0  0  0  0  0  0  0  0  0  0  0  0
   38.8910   32.8710   47.7860 C   0  0  0  0  0  0  0  0  0  0  0  0
   39.1690   32.5020   46.5300 N   0  0  0  0  0  0  0  0  0  0  0  0
   38.4760   31.5230   45.9070 C   0  0  0  0  0  0  0  0  0  0  0  0
   37.4930   30.9420   46.6100 N   0  0  0  0  0  0  0  0  0  0  0  0
   37.1720   31.2700   47.8640 C   0  0  0  0  0  0  0  0  0  0  0  0
   35.8180   31.4760   50.8270 H   0  0  0  0  0  0  0  0  0  0  0  0
   38.6610   31.1870   44.8950 H   0  0  0  0  0  0  0  0  0  0  0  0
   39.6460   33.8990   48.3880 N   0  0  0  0  0  0  0  0  0  0  0  0
   39.3410   34.5740   49.1200 H   0  0  0  0  0  0  0  0  0  0  0  0
   40.6290   34.1380   48.1860 H   0  0  0  0  0  0  0  0  0  0  0  0
   32.2440   26.9900   47.7000 C   0  0  0  0  0  0  0  0  0  0  0  0
   31.0510   27.1970   48.6540 C   0  0  0  0  0  0  0  0  0  0  0  0
   31.3810   27.9250   49.4450 H   0  0  0  0  0  0  0  0  0  0  0  0
   30.1900   27.6670   48.1630 H   0  0  0  0  0  0  0  0  0  0  0  0
   30.7590   26.2620   49.1260 H   0  0  0  0  0  0  0  0  0  0  0  0
   31.6440   27.2810   46.3080 C   0  0  0  0  0  0  0  0  0  0  0  0
   31.4110   28.3560   46.2890 H   0  0  0  0  0  0  0  0  0  0  0  0
   32.4330   27.0860   45.5660 H   0  0  0  0  0  0  0  0  0  0  0  0
   30.7400   26.6820   46.2000 H   0  0  0  0  0  0  0  0  0  0  0  0
   32.6660   25.5840   47.6760 C   0  0  0  0  0  0  0  0  0  0  0  0
   33.5270   25.4580   48.3820 H   0  0  0  0  0  0  0  0  0  0  0  0
   31.8300   24.9780   48.1320 H   0  0  0  0  0  0  0  0  0  0  0  0
   33.0180   25.0390   46.3930 N   0  0  0  0  0  0  0  0  0  0  0  0
   32.4980   23.6330   46.3090 C   0  0  0  0  0  2  0  0  0  0  0  0
   32.4780   23.3760   44.8020 C   0  0  0  0  0  2  0  0  0  0  0  0
   33.9310   23.2420   44.3930 C   0  0  0  0  0  3  0  0  0  0  0  0
   34.1130   23.7700   43.4390 H   0  0  0  0  0  0  0  0  0  0  0  0
   34.8700   23.6660   45.4680 C   0  0  0  0  0  2  0  0  0  0  0  0
   34.4710   24.8650   46.2670 C   0  0  0  0  0  2  0  0  0  0  0  0
  1  2  1  0  0  0  0
  2  9  1  0  0  0  0
  2  3  2  0  0  0  0
  3  8  1  0  0  0  0
  4  3  1  0  0  0  0
  5  4  2  0  0  0  0
  6  1  2  0  0  0  0
  6  5  1  0  0  0  0
  7  1  1  0  0  0  0
  9 10  1  0  0  0  0
 10 18  1  0  0  0  0
 11 10  2  0  0  0  0
 12 11  1  0  0  0  0
 13 20  1  0  0  0  0
 13 12  2  0  0  0  0
 14 13  1  0  0  0  0
 15 14  2  0  0  0  0
 15 16  1  0  0  0  0
 16 17  2  0  0  0  0
 17 12  1  0  0  0  0
 17  9  1  0  0  0  0
 19 15  1  0  0  0  0
 20 21  1  0  0  0  0
 22 20  1  0  0  0  0
 23  5  1  0  0  0  0
 23 24  1  0  0  0  0
 24 27  1  0  0  0  0
 24 25  1  0  0  0  0
 26 24  1  0  0  0  0
 28 23  1  0  0  0  0
 29 28  1  0  0  0  0
 30 28  1  0  0  0  0
 31 28  1  0  0  0  0
 32 23  1  0  0  0  0
 32 34  1  0  0  0  0
 32 33  1  0  0  0  0
 35 32  1  0  0  0  0
 36 35  1  0  0  0  0
 37 36  1  0  0  0  0
 38 37  1  0  0  0  0
 38 40  1  0  0  0  0
 39 38  1  0  0  0  0
 40 41  1  0  0  0  0
 41 35  1  0  0  0  0
M  END
>  <minimizedAffinity>
-5.3441577

>  <minimizedRMSD>
1.02688098

$$$$
