
 OpenBabel03252512243D

 32 34  0  0  1  0  0  0  0  0999 V2000
   34.8660   29.4000   48.6300 C   0  0  0  0  0  0  0  0  0  0  0  0
   34.3000   28.2370   49.1940 C   0  0  0  0  0  0  0  0  0  0  0  0
   33.1800   27.7530   48.6150 C   0  0  0  0  0  0  0  0  0  0  0  0
   32.6730   28.3960   47.5530 C   0  0  0  0  0  0  0  0  0  0  0  0
   33.7760   29.8080   47.2490 S   0  0  0  0  0  0  0  0  0  0  0  0
   34.8080   27.7980   50.0690 H   0  0  0  0  0  0  0  0  0  0  0  0
   32.6780   26.8640   48.9810 H   0  0  0  0  0  0  0  0  0  0  0  0
   37.6470   30.5400   50.7690 C   0  0  0  0  0  0  0  0  0  0  0  0
   38.3450   31.4160   49.8840 C   0  0  0  0  0  0  0  0  0  0  0  0
   37.8600   31.5960   48.5980 C   0  0  0  0  0  0  0  0  0  0  0  0
   36.7380   30.9140   48.2740 N   0  0  0  0  0  0  0  0  0  0  0  0
   36.0940   30.1000   49.1010 C   0  0  0  0  0  0  0  0  0  0  0  0
   36.5150   29.8810   50.3690 N   0  0  0  0  0  0  0  0  0  0  0  0
   37.9780   30.3580   51.7840 H   0  0  0  0  0  0  0  0  0  0  0  0
   39.2350   31.9090   50.2540 H   0  0  0  0  0  0  0  0  0  0  0  0
   38.3550   32.2400   47.9150 H   0  0  0  0  0  0  0  0  0  0  0  0
   31.4750   28.0830   46.7210 C   0  0  2  0  0  0  0  0  0  0  0  0
   31.4960   27.0680   46.2950 H   0  0  0  0  0  0  0  0  0  0  0  0
   31.3850   29.0910   45.6460 C   0  0  0  0  0  0  0  0  0  0  0  0
   31.7650   30.0550   46.0260 H   0  0  0  0  0  0  0  0  0  0  0  0
   31.9360   28.8210   44.7230 H   0  0  0  0  0  0  0  0  0  0  0  0
   30.3110   29.2810   45.3710 H   0  0  0  0  0  0  0  0  0  0  0  0
   30.2540   28.0930   47.6410 C   0  0  0  0  0  0  0  0  0  0  0  0
   30.4170   28.9340   48.3450 H   0  0  0  0  0  0  0  0  0  0  0  0
   30.2050   27.1590   48.2270 H   0  0  0  0  0  0  0  0  0  0  0  0
   29.0220   28.3190   46.9670 N   0  0  0  0  0  0  0  0  0  0  0  0
   28.2480   27.1670   46.6540 C   0  0  0  0  0  0  0  0  0  0  0  0
   27.5710   26.5590   47.8580 C   0  0  0  0  0  0  0  0  0  0  0  0
   26.7070   27.5830   48.5180 C   0  0  0  0  0  0  0  0  0  0  0  0
   25.6130   27.3310   48.4550 H   0  0  0  0  0  0  0  0  0  0  0  0
   26.8500   28.9440   47.9200 C   0  0  0  0  0  0  0  0  0  0  0  0
   28.2760   29.3240   47.6700 C   0  0  0  0  0  0  0  0  0  0  0  0
  1 12  1  0  0  0  0
  1  2  2  0  0  0  0
  2  6  1  0  0  0  0
  3  7  1  0  0  0  0
  3  2  1  0  0  0  0
  4  3  2  0  0  0  0
  5  4  1  0  0  0  0
  5  1  1  0  0  0  0
  8 14  1  0  0  0  0
  9 15  1  0  0  0  0
  9  8  2  0  0  0  0
 10  9  1  0  0  0  0
 11 10  2  0  0  0  0
 11 12  1  0  0  0  0
 12 13  2  0  0  0  0
 13  8  1  0  0  0  0
 16 10  1  0  0  0  0
 17 18  1  6  0  0  0
 17  4  1  0  0  0  0
 17 23  1  0  0  0  0
 19 20  1  0  0  0  0
 19 17  1  0  0  0  0
 21 19  1  0  0  0  0
 22 19  1  0  0  0  0
 23 25  1  0  0  0  0
 23 24  1  0  0  0  0
 26 23  1  0  0  0  0
 26 32  1  0  0  0  0
 27 26  1  0  0  0  0
 27 28  1  0  0  0  0
 28 29  1  0  0  0  0
 30 29  1  0  0  0  0
 31 29  1  0  0  0  0
 32 31  1  0  0  0  0
M  END
>  <minimizedAffinity>
-5.26138258

>  <minimizedRMSD>
1.17145848

$$$$
