
 OpenBabel03252513593D

 24 25  0  0  1  0  0  0  0  0999 V2000
   36.8120   29.3830   49.6170 C   0  0  0  0  0  0  0  0  0  0  0  0
   37.3520   28.4520   49.3810 H   0  0  0  0  0  0  0  0  0  0  0  0
   36.6900   29.5010   50.7120 H   0  0  0  0  0  0  0  0  0  0  0  0
   38.3910   32.6770   49.3910 C   0  0  0  0  0  0  0  0  0  0  0  0
   38.9130   32.7060   48.0880 C   0  0  0  0  0  0  0  0  0  0  0  0
   38.7000   31.5580   47.3010 C   0  0  0  0  0  0  0  0  0  0  0  0
   38.0190   30.5060   47.8310 N   0  0  0  0  0  0  0  0  0  0  0  0
   37.5400   30.5410   49.0970 C   0  0  0  0  0  0  0  0  0  0  0  0
   37.7350   31.6320   49.8610 N   0  0  0  0  0  0  0  0  0  0  0  0
   38.5590   33.5590   49.9810 H   0  0  0  0  0  0  0  0  0  0  0  0
   39.4620   33.5250   47.6290 H   0  0  0  0  0  0  0  0  0  0  0  0
   39.0520   31.4620   46.2850 H   0  0  0  0  0  0  0  0  0  0  0  0
   35.4090   29.4100   49.0160 C   0  0  2  0  0  0  0  0  0  0  0  0
   34.2740   29.4220   49.9500 C   0  0  0  0  0  0  0  0  0  0  0  0
   34.6170   28.1340   49.3530 C   0  0  1  0  0  0  0  0  0  0  0  0
   35.2980   29.8430   48.0250 H   0  0  0  0  0  0  0  0  0  0  0  0
   33.3150   29.9160   49.7060 H   0  0  0  0  0  0  0  0  0  0  0  0
   34.5050   29.4990   51.0530 H   0  0  0  0  0  0  0  0  0  0  0  0
   35.2830   27.3250   49.7120 H   0  0  0  0  0  0  0  0  0  0  0  0
   33.6440   27.6390   48.3160 C   0  0  0  0  0  0  0  0  0  0  0  0
   34.0100   26.5400   47.7300 O   0  0  0  0  0  0  0  0  0  0  0  0
   32.4430   28.2340   47.9630 O   0  0  0  0  0  0  0  0  0  0  0  0
   32.3200   28.8130   46.6830 C   0  0  0  0  0  2  0  0  0  0  0  0
   32.5410   28.0940   45.8610 H   0  0  0  0  0  0  0  0  0  0  0  0
  1  3  1  0  0  0  0
  2  1  1  0  0  0  0
  4  9  1  0  0  0  0
  4 10  1  0  0  0  0
  5  4  2  0  0  0  0
  6  7  2  0  0  0  0
  6  5  1  0  0  0  0
  7  8  1  0  0  0  0
  8  1  1  0  0  0  0
  8  9  2  0  0  0  0
 11  5  1  0  0  0  0
 12  6  1  0  0  0  0
 13 16  1  6  0  0  0
 13 15  1  0  0  0  0
 13  1  1  0  0  0  0
 13 14  1  0  0  0  0
 14 18  1  0  0  0  0
 15 19  1  1  0  0  0
 15 14  1  0  0  0  0
 17 14  1  0  0  0  0
 20 15  1  0  0  0  0
 21 20  2  0  0  0  0
 22 20  1  0  0  0  0
 23 22  1  0  0  0  0
 24 23  1  0  0  0  0
M  END
>  <minimizedAffinity>
-4.46214151

>  <minimizedRMSD>
0.451513469

$$$$
