
 OpenBabel03252513263D

 35 37  0  0  0  0  0  0  0  0999 V2000
   32.8810   27.8360   48.5490 C   0  0  0  0  0  0  0  0  0  0  0  0
   31.7630   28.2070   49.2320 C   0  0  0  0  0  0  0  0  0  0  0  0
   30.5480   27.5590   49.1610 C   0  0  0  0  0  0  0  0  0  0  0  0
   30.5130   26.4520   48.3190 C   0  0  0  0  0  0  0  0  0  0  0  0
   31.6140   26.0480   47.6150 C   0  0  0  0  0  0  0  0  0  0  0  0
   32.8130   26.7340   47.7220 C   0  0  0  0  0  0  0  0  0  0  0  0
   31.7890   29.0820   49.8980 H   0  0  0  0  0  0  0  0  0  0  0  0
   29.6890   27.8790   49.7130 H   0  0  0  0  0  0  0  0  0  0  0  0
   29.5690   25.9200   48.2390 H   0  0  0  0  0  0  0  0  0  0  0  0
   31.5170   25.1910   46.9850 H   0  0  0  0  0  0  0  0  0  0  0  0
   36.1830   28.9750   49.6590 C   0  0  0  0  0  0  0  0  0  0  0  0
   36.4690   30.0140   48.7640 C   0  0  0  0  0  0  0  0  0  0  0  0
   35.5170   30.2950   47.8010 C   0  0  0  0  0  0  0  0  0  0  0  0
   34.3640   29.5520   47.7780 N   0  0  0  0  0  0  0  0  0  0  0  0
   34.1360   28.5590   48.6660 C   0  0  0  0  0  0  0  0  0  0  0  0
   35.0460   28.2940   49.5840 N   0  0  0  0  0  0  0  0  0  0  0  0
   36.9260   28.7530   50.4130 H   0  0  0  0  0  0  0  0  0  0  0  0
   35.6970   31.0780   47.0990 H   0  0  0  0  0  0  0  0  0  0  0  0
   37.7310   30.8030   48.8120 C   0  0  0  0  0  0  0  0  0  0  0  0
   38.5580   30.5810   47.7500 F   0  0  0  0  0  0  0  0  0  0  0  0
   38.4560   30.5370   49.9550 F   0  0  0  0  0  0  0  0  0  0  0  0
   37.4160   32.1730   48.8130 F   0  0  0  0  0  0  0  0  0  0  0  0
   34.0150   26.3310   46.9790 C   0  0  0  0  0  0  0  0  0  0  0  0
   34.8250   26.1050   47.7070 H   0  0  0  0  0  0  0  0  0  0  0  0
   34.3860   27.2160   46.4020 H   0  0  0  0  0  0  0  0  0  0  0  0
   33.8400   25.1210   46.1170 C   0  0  0  0  0  0  0  0  0  0  0  0
   32.9200   24.6130   46.4540 H   0  0  0  0  0  0  0  0  0  0  0  0
   33.6290   25.4880   45.0760 H   0  0  0  0  0  0  0  0  0  0  0  0
   34.9820   24.2880   46.0340 N   0  0  0  0  0  0  0  0  0  0  0  0
   35.0360   23.1380   46.8450 C   0  0  0  0  0  0  0  0  0  0  0  0
   36.0400   22.1590   46.2970 C   0  0  0  0  0  0  0  0  0  0  0  0
   37.3010   22.9580   45.9450 C   0  0  0  0  0  0  0  0  0  0  0  0
   37.4600   23.6730   46.7770 H   0  0  0  0  0  0  0  0  0  0  0  0
   36.9890   23.8040   44.7170 C   0  0  0  0  0  0  0  0  0  0  0  0
   35.5170   24.1670   44.6980 C   0  0  0  0  0  0  0  0  0  0  0  0
  1 15  1  0  0  0  0
  1  2  1  0  0  0  0
  2  7  1  0  0  0  0
  3  2  2  0  0  0  0
  3  8  1  0  0  0  0
  4  3  1  0  0  0  0
  5  6  1  0  0  0  0
  5  4  2  0  0  0  0
  6  1  2  0  0  0  0
  9  4  1  0  0  0  0
 10  5  1  0  0  0  0
 11 17  1  0  0  0  0
 12 19  1  0  0  0  0
 12 11  2  0  0  0  0
 13 12  1  0  0  0  0
 14 13  2  0  0  0  0
 14 15  1  0  0  0  0
 15 16  2  0  0  0  0
 16 11  1  0  0  0  0
 18 13  1  0  0  0  0
 19 22  1  0  0  0  0
 19 21  1  0  0  0  0
 20 19  1  0  0  0  0
 23 24  1  0  0  0  0
 23  6  1  0  0  0  0
 25 23  1  0  0  0  0
 26 27  1  0  0  0  0
 26 23  1  0  0  0  0
 28 26  1  0  0  0  0
 29 26  1  0  0  0  0
 29 30  1  0  0  0  0
 31 30  1  0  0  0  0
 32 31  1  0  0  0  0
 32 33  1  0  0  0  0
 34 32  1  0  0  0  0
 35 34  1  0  0  0  0
 35 29  1  0  0  0  0
M  END
>  <minimizedAffinity>
-5.27698135

>  <minimizedRMSD>
0.891250789

$$$$
