
 OpenBabel03252514073D

 41 44  0  0  0  0  0  0  0  0999 V2000
   34.0560   29.9580   47.4330 C   0  0  0  0  0  0  0  0  0  0  0  0
   34.9760   29.7230   48.4810 C   0  0  0  0  0  0  0  0  0  0  0  0
   34.7990   28.5600   49.2050 C   0  0  0  0  0  0  0  0  0  0  0  0
   33.7810   27.7290   48.8790 N   0  0  0  0  0  0  0  0  0  0  0  0
   32.9260   27.9680   47.8870 C   0  0  0  0  0  0  0  0  0  0  0  0
   33.0580   29.0890   47.1540 N   0  0  0  0  0  0  0  0  0  0  0  0
   34.1650   30.8470   46.8570 H   0  0  0  0  0  0  0  0  0  0  0  0
   35.5270   28.4360   49.9820 H   0  0  0  0  0  0  0  0  0  0  0  0
   35.9910   30.6880   48.7000 N   0  0  0  0  0  0  0  0  0  0  0  0
   36.1950   31.3180   49.8730 C   0  0  0  0  0  0  0  0  0  0  0  0
   37.2320   32.1780   49.7370 N   0  0  0  0  0  0  0  0  0  0  0  0
   37.6610   32.0670   48.4640 C   0  0  0  0  0  0  0  0  0  0  0  0
   38.6680   32.6740   47.7340 C   0  0  0  0  0  0  0  0  0  0  0  0
   38.8820   32.3680   46.4480 N   0  0  0  0  0  0  0  0  0  0  0  0
   38.1280   31.4520   45.8010 C   0  0  0  0  0  0  0  0  0  0  0  0
   37.1520   30.8660   46.5110 N   0  0  0  0  0  0  0  0  0  0  0  0
   36.8940   31.1340   47.7940 C   0  0  0  0  0  0  0  0  0  0  0  0
   35.6680   31.2170   50.8170 H   0  0  0  0  0  0  0  0  0  0  0  0
   38.2600   31.1680   44.7650 H   0  0  0  0  0  0  0  0  0  0  0  0
   39.4850   33.6370   48.3600 N   0  0  0  0  0  0  0  0  0  0  0  0
   39.2360   34.2800   49.1410 H   0  0  0  0  0  0  0  0  0  0  0  0
   40.4680   33.8530   48.1300 H   0  0  0  0  0  0  0  0  0  0  0  0
   31.8410   27.0190   47.5560 C   0  0  0  0  0  0  0  0  0  0  0  0
   30.8510   26.9450   48.7350 C   0  0  0  0  0  0  0  0  0  0  0  0
   31.3230   27.4880   49.5990 H   0  0  0  0  0  0  0  0  0  0  0  0
   29.9100   27.4710   48.5350 H   0  0  0  0  0  0  0  0  0  0  0  0
   30.6600   25.9140   49.0220 H   0  0  0  0  0  0  0  0  0  0  0  0
   30.9840   27.5900   46.4060 C   0  0  0  0  0  0  0  0  0  0  0  0
   30.7460   28.6280   46.6810 H   0  0  0  0  0  0  0  0  0  0  0  0
   31.6170   27.6090   45.5050 H   0  0  0  0  0  0  0  0  0  0  0  0
   30.0790   26.9880   46.3300 H   0  0  0  0  0  0  0  0  0  0  0  0
   32.2570   25.6790   47.1270 C   0  0  0  0  0  0  0  0  0  0  0  0
   32.3530   25.0270   48.0340 H   0  0  0  0  0  0  0  0  0  0  0  0
   31.3980   25.2350   46.5440 H   0  0  0  0  0  0  0  0  0  0  0  0
   33.4650   25.5960   46.3510 N   0  0  0  0  0  0  0  0  0  0  0  0
   33.1220   25.0850   44.9810 C   0  0  0  0  0  2  0  0  0  0  0  0
   34.3320   25.5220   44.1530 C   0  0  0  0  0  2  0  0  0  0  0  0
   35.4700   24.6250   44.5920 C   0  0  0  0  0  3  0  0  0  0  0  0
   36.4040   25.2080   44.6940 H   0  0  0  0  0  0  0  0  0  0  0  0
   35.1460   23.8470   45.8210 C   0  0  0  0  0  2  0  0  0  0  0  0
   34.3680   24.5630   46.8760 C   0  0  0  0  0  2  0  0  0  0  0  0
  1  2  1  0  0  0  0
  2  9  1  0  0  0  0
  2  3  2  0  0  0  0
  3  8  1  0  0  0  0
  4  3  1  0  0  0  0
  5  4  2  0  0  0  0
  6  1  2  0  0  0  0
  6  5  1  0  0  0  0
  7  1  1  0  0  0  0
  9 10  1  0  0  0  0
 10 18  1  0  0  0  0
 11 10  2  0  0  0  0
 12 11  1  0  0  0  0
 13 20  1  0  0  0  0
 13 12  2  0  0  0  0
 14 13  1  0  0  0  0
 15 14  2  0  0  0  0
 15 16  1  0  0  0  0
 16 17  2  0  0  0  0
 17 12  1  0  0  0  0
 17  9  1  0  0  0  0
 19 15  1  0  0  0  0
 20 21  1  0  0  0  0
 22 20  1  0  0  0  0
 23  5  1  0  0  0  0
 23 24  1  0  0  0  0
 24 27  1  0  0  0  0
 24 25  1  0  0  0  0
 26 24  1  0  0  0  0
 28 29  1  0  0  0  0
 28 23  1  0  0  0  0
 30 28  1  0  0  0  0
 31 28  1  0  0  0  0
 32 23  1  0  0  0  0
 32 33  1  0  0  0  0
 34 32  1  0  0  0  0
 35 41  1  0  0  0  0
 35 32  1  0  0  0  0
 36 35  1  0  0  0  0
 37 38  1  0  0  0  0
 37 36  1  0  0  0  0
 38 39  1  0  0  0  0
 38 40  1  0  0  0  0
 40 41  1  0  0  0  0
M  END
>  <minimizedAffinity>
-5.42982054

>  <minimizedRMSD>
0.85542804

$$$$
