
 OpenBabel03252513003D

 22 23  0  0  0  0  0  0  0  0999 V2000
   37.8640   30.4890   47.7540 C   0  0  0  0  0  0  0  0  0  0  0  0
   38.8220   29.9450   47.6300 H   0  0  0  0  0  0  0  0  0  0  0  0
   37.1150   30.2080   46.9910 H   0  0  0  0  0  0  0  0  0  0  0  0
   37.2570   30.1060   51.4880 C   0  0  0  0  0  0  0  0  0  0  0  0
   37.8950   30.4840   50.2890 C   0  0  0  0  0  0  0  0  0  0  0  0
   37.2950   30.1540   49.0750 C   0  0  0  0  0  0  0  0  0  0  0  0
   36.1140   29.4790   49.1270 N   0  0  0  0  0  0  0  0  0  0  0  0
   35.5110   29.1220   50.2600 C   0  0  0  0  0  0  0  0  0  0  0  0
   36.0840   29.4370   51.4450 N   0  0  0  0  0  0  0  0  0  0  0  0
   37.7690   30.3880   52.4190 H   0  0  0  0  0  0  0  0  0  0  0  0
   38.8300   31.0210   50.2430 H   0  0  0  0  0  0  0  0  0  0  0  0
   34.5700   28.5820   50.2910 H   0  0  0  0  0  0  0  0  0  0  0  0
   38.1480   31.9640   47.6070 C   0  0  0  0  0  0  0  0  0  0  0  0
   39.0090   32.2480   48.2520 H   0  0  0  0  0  0  0  0  0  0  0  0
   37.2680   32.5720   47.9180 H   0  0  0  0  0  0  0  0  0  0  0  0
   38.5450   32.2600   46.2430 N   0  0  0  0  0  0  0  0  0  0  0  0
   39.7910   32.9330   46.2630 C   0  0  0  0  0  0  0  0  0  0  0  0
   40.4890   33.0250   44.9340 C   0  0  0  0  0  0  0  0  0  0  0  0
   40.1750   31.9330   43.9690 C   0  0  0  0  0  0  0  0  0  0  0  0
   41.0050   31.6710   43.2980 H   0  0  0  0  0  0  0  0  0  0  0  0
   39.7980   30.7140   44.7830 C   0  0  0  0  0  0  0  0  0  0  0  0
   38.5280   31.0300   45.4990 C   0  0  0  0  0  0  0  0  0  0  0  0
  1  6  1  0  0  0  0
  2  1  1  0  0  0  0
  3  1  1  0  0  0  0
  4 10  1  0  0  0  0
  5  4  2  0  0  0  0
  6  7  2  0  0  0  0
  6  5  1  0  0  0  0
  7  8  1  0  0  0  0
  8 12  1  0  0  0  0
  8  9  2  0  0  0  0
  9  4  1  0  0  0  0
 11  5  1  0  0  0  0
 13  1  1  0  0  0  0
 13 15  1  0  0  0  0
 13 14  1  0  0  0  0
 16 17  1  0  0  0  0
 16 13  1  0  0  0  0
 18 17  1  0  0  0  0
 19 21  1  0  0  0  0
 19 18  1  0  0  0  0
 20 19  1  0  0  0  0
 21 22  1  0  0  0  0
 22 16  1  0  0  0  0
M  END
>  <minimizedAffinity>
-4.89587498

>  <minimizedRMSD>
1.78384054

$$$$
