
 OpenBabel03252513133D

 42 45  0  0  0  0  0  0  0  0999 V2000
   36.9390   30.8300   46.0700 C   0  0  0  0  0  0  0  0  0  0  0  0
   35.9100   30.0510   46.5930 C   0  0  0  0  0  0  0  0  0  0  0  0
   35.5690   29.9930   47.9090 C   0  0  0  0  0  0  0  0  0  0  0  0
   36.2570   30.7370   48.8280 C   0  0  0  0  0  0  0  0  0  0  0  0
   37.2610   31.5080   48.3860 C   0  0  0  0  0  0  0  0  0  0  0  0
   37.9530   32.2570   49.3210 C   0  0  0  0  0  0  0  0  0  0  0  0
   38.9880   33.0690   48.9600 C   0  0  0  0  0  0  0  0  0  0  0  0
   39.3330   33.1240   47.6190 C   0  0  0  0  0  0  0  0  0  0  0  0
   38.6230   32.3680   46.7270 C   0  0  0  0  0  0  0  0  0  0  0  0
   37.5980   31.5590   47.0510 C   0  0  0  0  0  0  0  0  0  0  0  0
   35.3330   29.4400   45.8970 H   0  0  0  0  0  0  0  0  0  0  0  0
   34.7520   29.3580   48.2260 H   0  0  0  0  0  0  0  0  0  0  0  0
   37.7390   32.2630   50.3800 H   0  0  0  0  0  0  0  0  0  0  0  0
   39.5700   33.6800   49.6420 H   0  0  0  0  0  0  0  0  0  0  0  0
   40.1540   33.7630   47.3020 H   0  0  0  0  0  0  0  0  0  0  0  0
   38.9230   32.4370   45.6790 H   0  0  0  0  0  0  0  0  0  0  0  0
   36.2690   31.3040   42.5680 C   0  0  0  0  0  0  0  0  0  0  0  0
   37.4880   31.0470   41.9040 C   0  0  0  0  0  0  0  0  0  0  0  0
   38.5570   30.7050   42.6740 C   0  0  0  0  0  0  0  0  0  0  0  0
   38.3450   30.6480   43.9800 N   0  0  0  0  0  0  0  0  0  0  0  0
   37.2720   30.8650   44.6680 C   0  0  0  0  0  0  0  0  0  0  0  0
   36.2430   31.1970   43.8890 N   0  0  0  0  0  0  0  0  0  0  0  0
   35.4060   31.5790   41.9550 H   0  0  0  0  0  0  0  0  0  0  0  0
   39.8400   30.4150   42.1640 N   0  0  0  0  0  0  0  0  0  0  0  0
   40.9100   29.9650   42.9810 C   0  0  0  0  0  0  0  0  0  0  0  0
   41.0480   30.5140   44.1500 N   0  0  0  0  0  0  0  0  0  0  0  0
   41.7890   28.9490   42.5220 N   0  0  0  0  0  0  0  0  0  0  0  0
   41.7400   30.2660   44.8470 H   0  0  0  0  0  0  0  0  0  0  0  0
   40.0320   30.5310   41.1220 H   0  0  0  0  0  0  0  0  0  0  0  0
   42.2750   29.2330   41.6440 H   0  0  0  0  0  0  0  0  0  0  0  0
   41.9810   28.0170   42.9470 H   0  0  0  0  0  0  0  0  0  0  0  0
   37.6340   31.1320   40.4800 N   0  0  0  0  0  0  0  0  0  0  0  0
   38.0220   32.2400   39.6240 C   0  0  0  0  0  0  0  0  0  0  0  0
   39.2670   31.7780   38.8660 C   0  0  0  0  0  0  0  0  0  0  0  0
   39.1800   30.4720   38.4520 O   0  0  0  0  0  0  0  0  0  0  0  0
   37.8860   30.0170   38.3940 C   0  0  0  0  0  0  0  0  0  0  0  0
   37.3310   29.8710   39.8130 C   0  0  0  0  0  0  0  0  0  0  0  0
   35.8920   30.6600   50.1510 O   0  0  0  0  0  0  0  0  0  0  0  0
   36.4090   29.6440   50.9880 C   0  0  0  0  0  0  0  0  0  0  0  0
   37.2300   28.7380   50.3750 F   0  0  0  0  0  0  0  0  0  0  0  0
   37.1840   30.2570   51.9590 F   0  0  0  0  0  0  0  0  0  0  0  0
   35.3160   29.0040   51.5610 F   0  0  0  0  0  0  0  0  0  0  0  0
  1  2  2  0  0  0  0
  1 10  1  0  0  0  0
  2  3  1  0  0  0  0
  3 12  1  0  0  0  0
  3  4  2  0  0  0  0
  4 38  1  0  0  0  0
  5  4  1  0  0  0  0
  5  6  1  0  0  0  0
  6 13  1  0  0  0  0
  7  6  2  0  0  0  0
  7 14  1  0  0  0  0
  8  7  1  0  0  0  0
  9 10  1  0  0  0  0
  9  8  2  0  0  0  0
 10  5  2  0  0  0  0
 11  2  1  0  0  0  0
 15  8  1  0  0  0  0
 16  9  1  0  0  0  0
 17 22  1  0  0  0  0
 18 17  2  0  0  0  0
 18 19  1  0  0  0  0
 19 20  2  0  0  0  0
 20 21  1  0  0  0  0
 21  1  1  0  0  0  0
 22 21  2  0  0  0  0
 23 17  1  0  0  0  0
 24 19  1  0  0  0  0
 24 25  1  0  0  0  0
 25 26  2  0  0  0  0
 26 28  1  0  0  0  0
 27 31  1  0  0  0  0
 27 25  1  0  0  0  0
 29 24  1  0  0  0  0
 30 27  1  0  0  0  0
 32 18  1  0  0  0  0
 33 32  1  0  0  0  0
 34 33  1  0  0  0  0
 35 34  1  0  0  0  0
 36 35  1  0  0  0  0
 36 37  1  0  0  0  0
 37 32  1  0  0  0  0
 38 39  1  0  0  0  0
 39 42  1  0  0  0  0
 39 41  1  0  0  0  0
 40 39  1  0  0  0  0
M  END
>  <minimizedAffinity>
-7.49542332

>  <minimizedRMSD>
0.785182536

$$$$
