
 OpenBabel03252514023D

 35 38  0  0  1  0  0  0  0  0999 V2000
   35.2490   29.1270   48.4720 C   0  0  2  0  0  0  0  0  0  0  0  0
   33.9770   29.1830   49.1840 C   0  0  0  0  0  0  0  0  0  0  0  0
   34.4090   27.8600   48.8390 C   0  0  1  0  0  0  0  0  0  0  0  0
   35.3790   29.2910   47.4020 H   0  0  0  0  0  0  0  0  0  0  0  0
   34.0010   29.4920   50.2720 H   0  0  0  0  0  0  0  0  0  0  0  0
   33.0860   29.6480   48.6870 H   0  0  0  0  0  0  0  0  0  0  0  0
   34.9640   27.1450   49.4490 H   0  0  0  0  0  0  0  0  0  0  0  0
   36.5170   29.1970   49.3440 C   0  0  0  0  0  0  0  0  0  0  0  0
   37.1550   28.3450   49.0800 H   0  0  0  0  0  0  0  0  0  0  0  0
   36.2400   29.0870   50.4120 H   0  0  0  0  0  0  0  0  0  0  0  0
   37.5380   32.6940   49.6030 C   0  0  0  0  0  0  0  0  0  0  0  0
   38.4360   32.8340   48.5270 C   0  0  0  0  0  0  0  0  0  0  0  0
   38.6760   31.6990   47.7190 C   0  0  0  0  0  0  0  0  0  0  0  0
   38.0240   30.5300   48.0280 N   0  0  0  0  0  0  0  0  0  0  0  0
   37.1790   30.4600   49.0660 C   0  0  0  0  0  0  0  0  0  0  0  0
   36.9440   31.5450   49.8470 N   0  0  0  0  0  0  0  0  0  0  0  0
   37.4220   33.6170   50.1590 H   0  0  0  0  0  0  0  0  0  0  0  0
   38.9940   33.6940   48.2000 H   0  0  0  0  0  0  0  0  0  0  0  0
   39.3370   31.6770   46.8710 H   0  0  0  0  0  0  0  0  0  0  0  0
   33.6640   27.2120   47.6900 C   0  0  0  0  0  0  0  0  0  0  0  0
   34.2110   26.1120   47.2840 O   0  0  0  0  0  0  0  0  0  0  0  0
   32.5000   27.6820   47.0820 O   0  0  0  0  0  0  0  0  0  0  0  0
   31.3070   27.8180   47.7400 C   0  0  0  0  0  0  0  0  0  0  0  0
   30.9250   27.0890   48.9740 C   0  0  0  0  0  0  0  0  0  0  0  0
   29.7080   27.3370   49.5030 C   0  0  0  0  0  0  0  0  0  0  0  0
   28.8220   28.2560   48.9150 C   0  0  0  0  0  0  0  0  0  0  0  0
   29.7600   28.8690   47.4400 S   0  0  0  0  0  0  0  0  0  0  0  0
   31.6490   26.4020   49.3700 H   0  0  0  0  0  0  0  0  0  0  0  0
   29.3620   26.8450   50.3960 H   0  0  0  0  0  0  0  0  0  0  0  0
   27.6090   28.6810   49.2110 N   0  0  0  0  0  0  0  0  0  0  0  0
   27.4330   29.9340   49.9160 C   0  0  0  0  0  2  0  0  0  0  0  0
   26.7480   30.8560   48.9100 C   0  0  0  0  0  2  0  0  0  0  0  0
   25.8970   30.1540   48.0920 O   0  0  0  0  0  0  0  0  0  0  0  0
   25.3400   29.0220   48.6350 C   0  0  0  0  0  2  0  0  0  0  0  0
   26.4090   27.9470   48.8620 C   0  0  0  0  0  2  0  0  0  0  0  0
  1  4  1  6  0  0  0
  1  3  1  0  0  0  0
  1  2  1  0  0  0  0
  1  8  1  0  0  0  0
  2  5  1  0  0  0  0
  3  2  1  0  0  0  0
  3  7  1  1  0  0  0
  6  2  1  0  0  0  0
  8 10  1  0  0  0  0
  9  8  1  0  0  0  0
 11 16  1  0  0  0  0
 11 17  1  0  0  0  0
 12 11  2  0  0  0  0
 13 14  2  0  0  0  0
 13 12  1  0  0  0  0
 14 15  1  0  0  0  0
 15  8  1  0  0  0  0
 15 16  2  0  0  0  0
 18 12  1  0  0  0  0
 19 13  1  0  0  0  0
 20  3  1  0  0  0  0
 21 20  2  0  0  0  0
 22 20  1  0  0  0  0
 22 23  1  0  0  0  0
 23 24  2  0  0  0  0
 24 28  1  0  0  0  0
 24 25  1  0  0  0  0
 25 29  1  0  0  0  0
 26 30  1  0  0  0  0
 26 25  2  0  0  0  0
 27 23  1  0  0  0  0
 27 26  1  0  0  0  0
 30 31  1  0  0  0  0
 32 31  1  0  0  0  0
 33 34  1  0  0  0  0
 33 32  1  0  0  0  0
 34 35  1  0  0  0  0
 35 30  1  0  0  0  0
M  END
>  <minimizedAffinity>
-6.04546738

>  <minimizedRMSD>
2.09617352

$$$$
