
 OpenBabel03252514073D

 40 43  0  0  0  0  0  0  0  0999 V2000
   34.6340   29.9910   47.3970 C   0  0  0  0  0  0  0  0  0  0  0  0
   35.4990   29.8930   48.4840 C   0  0  0  0  0  0  0  0  0  0  0  0
   35.4020   28.7220   49.2280 C   0  0  0  0  0  0  0  0  0  0  0  0
   34.5200   27.7620   48.8940 N   0  0  0  0  0  0  0  0  0  0  0  0
   33.6990   27.8870   47.8410 C   0  0  0  0  0  0  0  0  0  0  0  0
   33.7590   29.0040   47.0940 N   0  0  0  0  0  0  0  0  0  0  0  0
   34.6800   30.8980   46.7860 H   0  0  0  0  0  0  0  0  0  0  0  0
   36.0690   28.6170   50.0900 H   0  0  0  0  0  0  0  0  0  0  0  0
   36.3900   30.9580   48.7420 N   0  0  0  0  0  0  0  0  0  0  0  0
   36.3690   31.7110   49.8640 C   0  0  0  0  0  0  0  0  0  0  0  0
   37.3520   32.6400   49.7920 N   0  0  0  0  0  0  0  0  0  0  0  0
   37.9820   32.4510   48.6110 C   0  0  0  0  0  0  0  0  0  0  0  0
   39.0450   33.0670   47.9680 C   0  0  0  0  0  0  0  0  0  0  0  0
   39.4660   32.6660   46.7760 N   0  0  0  0  0  0  0  0  0  0  0  0
   38.8810   31.6280   46.1170 C   0  0  0  0  0  0  0  0  0  0  0  0
   37.8450   31.0310   46.7490 N   0  0  0  0  0  0  0  0  0  0  0  0
   37.3900   31.4010   47.9430 C   0  0  0  0  0  0  0  0  0  0  0  0
   35.7200   31.6510   50.7060 H   0  0  0  0  0  0  0  0  0  0  0  0
   39.2420   31.3060   45.1340 H   0  0  0  0  0  0  0  0  0  0  0  0
   39.6830   34.1480   48.5960 N   0  0  0  0  0  0  0  0  0  0  0  0
   40.6000   34.5460   48.2840 H   0  0  0  0  0  0  0  0  0  0  0  0
   39.4040   34.7230   49.4220 H   0  0  0  0  0  0  0  0  0  0  0  0
   32.7060   26.8550   47.4080 C   0  0  0  0  0  0  0  0  0  0  0  0
   31.5620   26.8450   48.4540 C   0  0  0  0  0  0  0  0  0  0  0  0
   31.9040   27.3260   49.3810 H   0  0  0  0  0  0  0  0  0  0  0  0
   31.3170   25.7900   48.6350 H   0  0  0  0  0  0  0  0  0  0  0  0
   30.6760   27.3770   48.1030 H   0  0  0  0  0  0  0  0  0  0  0  0
   32.0460   27.2090   46.1140 C   0  0  0  0  0  0  0  0  0  0  0  0
   32.6450   27.1090   45.2130 H   0  0  0  0  0  0  0  0  0  0  0  0
   31.8610   28.3380   46.1960 H   0  0  0  0  0  0  0  0  0  0  0  0
   31.0190   26.7900   46.0820 H   0  0  0  0  0  0  0  0  0  0  0  0
   33.3250   25.5020   47.3310 C   0  0  0  0  0  0  0  0  0  0  0  0
   33.8010   25.3330   48.3390 H   0  0  0  0  0  0  0  0  0  0  0  0
   34.2320   25.6280   46.6600 H   0  0  0  0  0  0  0  0  0  0  0  0
   32.4750   24.4240   46.9570 N   0  0  0  0  0  0  0  0  0  0  0  0
   32.8060   23.2970   47.8700 C   0  0  0  0  0  2  0  0  0  0  0  0
   34.2710   23.1390   47.9700 C   0  0  0  0  0  2  0  0  0  0  0  0
   34.9740   23.1410   46.8010 O   0  0  0  0  0  0  0  0  0  0  0  0
   34.3470   23.5150   45.6600 C   0  0  0  0  0  2  0  0  0  0  0  0
   32.9010   23.8020   45.6820 C   0  0  0  0  0  2  0  0  0  0  0  0
  1  2  1  0  0  0  0
  2  9  1  0  0  0  0
  2  3  2  0  0  0  0
  3  8  1  0  0  0  0
  4  3  1  0  0  0  0
  5  4  2  0  0  0  0
  6  1  2  0  0  0  0
  6  5  1  0  0  0  0
  7  1  1  0  0  0  0
  9 10  1  0  0  0  0
 10 18  1  0  0  0  0
 11 10  2  0  0  0  0
 12 11  1  0  0  0  0
 13 20  1  0  0  0  0
 13 12  1  0  0  0  0
 14 13  2  0  0  0  0
 15 16  2  0  0  0  0
 15 14  1  0  0  0  0
 16 17  1  0  0  0  0
 17 12  2  0  0  0  0
 17  9  1  0  0  0  0
 19 15  1  0  0  0  0
 20 22  1  0  0  0  0
 21 20  1  0  0  0  0
 23  5  1  0  0  0  0
 23 24  1  0  0  0  0
 24 26  1  0  0  0  0
 24 25  1  0  0  0  0
 27 24  1  0  0  0  0
 28 30  1  0  0  0  0
 28 23  1  0  0  0  0
 29 28  1  0  0  0  0
 31 28  1  0  0  0  0
 32 23  1  0  0  0  0
 32 33  1  0  0  0  0
 34 32  1  0  0  0  0
 35 32  1  0  0  0  0
 35 36  1  0  0  0  0
 36 37  1  0  0  0  0
 38 37  1  0  0  0  0
 39 40  1  0  0  0  0
 39 38  1  0  0  0  0
 40 35  1  0  0  0  0
M  END
>  <minimizedAffinity>
-5.40345955

>  <minimizedRMSD>
0.122699574

$$$$
