
 OpenBabel03252513523D

 35 36  0  0  1  0  0  0  0  0999 V2000
   38.0340   30.4470   45.9590 C   0  0  0  0  0  0  0  0  0  0  0  0
   38.9440   30.5520   46.8020 O   0  0  0  0  0  0  0  0  0  0  0  0
   38.4670   30.4010   44.6080 N   0  0  0  0  0  0  0  0  0  0  0  0
   37.8390   29.3870   43.7740 C   0  0  0  0  0  0  0  0  0  0  0  0
   38.6310   29.1200   42.5230 C   0  0  0  0  0  0  0  0  0  0  0  0
   39.9690   29.2810   42.8380 O   0  0  0  0  0  0  0  0  0  0  0  0
   40.1950   30.6630   42.9020 C   0  0  0  0  0  0  0  0  0  0  0  0
   39.4640   31.2890   44.0630 C   0  0  2  0  0  0  0  0  0  0  0  0
   36.8600   29.8400   43.4390 H   0  0  0  0  0  0  0  0  0  0  0  0
   37.5740   28.4660   44.3410 H   0  0  0  0  0  0  0  0  0  0  0  0
   38.4970   28.0370   42.3030 H   0  0  0  0  0  0  0  0  0  0  0  0
   38.3010   29.7100   41.6470 H   0  0  0  0  0  0  0  0  0  0  0  0
   39.7750   31.0520   41.9320 H   0  0  0  0  0  0  0  0  0  0  0  0
   41.2810   30.8030   42.9410 H   0  0  0  0  0  0  0  0  0  0  0  0
   39.1080   32.2730   43.7640 H   0  0  0  0  0  0  0  0  0  0  0  0
   34.9750   30.4110   48.1630 C   0  0  0  0  0  0  0  0  0  0  0  0
   36.3450   30.4810   47.7660 C   0  0  0  0  0  0  0  0  0  0  0  0
   36.6450   30.3800   46.4050 C   0  0  0  0  0  0  0  0  0  0  0  0
   35.6040   30.2220   45.5550 N   0  0  0  0  0  0  0  0  0  0  0  0
   34.3370   30.1610   45.9620 C   0  0  0  0  0  0  0  0  0  0  0  0
   34.0280   30.2540   47.2450 N   0  0  0  0  0  0  0  0  0  0  0  0
   37.0870   30.6070   48.5140 H   0  0  0  0  0  0  0  0  0  0  0  0
   33.3260   29.9840   44.8710 C   0  0  0  0  0  0  0  0  0  0  0  0
   33.6790   30.7390   43.7590 F   0  0  0  0  0  0  0  0  0  0  0  0
   33.3370   28.6640   44.4390 F   0  0  0  0  0  0  0  0  0  0  0  0
   32.0330   30.2540   45.2920 F   0  0  0  0  0  0  0  0  0  0  0  0
   34.6800   30.5120   49.5140 O   0  0  0  0  0  0  0  0  0  0  0  0
   34.5440   29.4380   50.3690 C   0  0  0  0  0  0  0  0  0  0  0  0
   34.4300   28.2180   49.7450 F   0  0  0  0  0  0  0  0  0  0  0  0
   35.4910   29.3760   51.3660 F   0  0  0  0  0  0  0  0  0  0  0  0
   33.3100   29.6700   51.0170 F   0  0  0  0  0  0  0  0  0  0  0  0
   40.4490   31.3920   45.0770 O   0  0  0  0  0  0  0  0  0  0  0  0
   40.9740   32.6700   45.0220 C   0  0  0  0  0  0  0  0  0  0  0  0
   39.9150   33.7340   44.9020 C   0  0  0  0  0  0  0  0  0  0  0  0
   40.4460   34.7160   44.9230 H   0  0  0  0  0  0  0  0  0  0  0  0
  1 18  1  0  0  0  0
  1  2  2  0  0  0  0
  3  1  1  0  0  0  0
  4 10  1  0  0  0  0
  4  3  1  0  0  0  0
  5  6  1  0  0  0  0
  5  4  1  0  0  0  0
  6  7  1  0  0  0  0
  7 14  1  0  0  0  0
  7  8  1  0  0  0  0
  8 15  1  6  0  0  0
  8  3  1  0  0  0  0
  8 32  1  0  0  0  0
  9  4  1  0  0  0  0
 11  5  1  0  0  0  0
 12  5  1  0  0  0  0
 13  7  1  0  0  0  0
 16 27  1  0  0  0  0
 17 16  1  0  0  0  0
 17 22  1  0  0  0  0
 18 17  2  0  0  0  0
 19 20  2  0  0  0  0
 19 18  1  0  0  0  0
 20 21  1  0  0  0  0
 21 16  2  0  0  0  0
 23 26  1  0  0  0  0
 23 20  1  0  0  0  0
 24 23  1  0  0  0  0
 25 23  1  0  0  0  0
 27 28  1  0  0  0  0
 28 31  1  0  0  0  0
 28 30  1  0  0  0  0
 29 28  1  0  0  0  0
 33 32  1  0  0  0  0
 34 35  1  0  0  0  0
 34 33  1  0  0  0  0
M  END
>  <minimizedAffinity>
-5.2045579

>  <minimizedRMSD>
1.91275024

$$$$
