
 OpenBabel03252513593D

 25 26  0  0  1  0  0  0  0  0999 V2000
   35.3690   29.4370   49.0870 C   0  0  2  0  0  0  0  0  0  0  0  0
   34.2680   29.4550   50.0620 C   0  0  0  0  0  0  0  0  0  0  0  0
   34.5730   28.1690   49.4540 C   0  0  1  0  0  0  0  0  0  0  0  0
   35.2730   29.7520   48.0460 H   0  0  0  0  0  0  0  0  0  0  0  0
   33.3480   30.0060   49.7580 H   0  0  0  0  0  0  0  0  0  0  0  0
   34.4900   29.6050   51.1410 H   0  0  0  0  0  0  0  0  0  0  0  0
   35.2210   27.3720   49.8290 H   0  0  0  0  0  0  0  0  0  0  0  0
   36.7930   29.3840   49.6420 C   0  0  0  0  0  0  0  0  0  0  0  0
   37.2500   28.4030   49.3620 H   0  0  0  0  0  0  0  0  0  0  0  0
   36.7290   29.4400   50.7370 H   0  0  0  0  0  0  0  0  0  0  0  0
   38.3580   32.6890   49.4010 C   0  0  0  0  0  0  0  0  0  0  0  0
   38.8810   32.6930   48.0990 C   0  0  0  0  0  0  0  0  0  0  0  0
   38.6860   31.5450   47.3130 C   0  0  0  0  0  0  0  0  0  0  0  0
   37.9970   30.4870   47.8610 N   0  0  0  0  0  0  0  0  0  0  0  0
   37.5200   30.5360   49.1070 C   0  0  0  0  0  0  0  0  0  0  0  0
   37.7070   31.6410   49.8670 N   0  0  0  0  0  0  0  0  0  0  0  0
   38.4540   33.5180   50.0840 H   0  0  0  0  0  0  0  0  0  0  0  0
   39.4110   33.5750   47.7520 H   0  0  0  0  0  0  0  0  0  0  0  0
   39.0790   31.5390   46.3220 H   0  0  0  0  0  0  0  0  0  0  0  0
   33.5660   27.6770   48.4540 C   0  0  0  0  0  0  0  0  0  0  0  0
   34.0110   26.7570   47.6560 O   0  0  0  0  0  0  0  0  0  0  0  0
   32.2550   28.1060   48.3360 O   0  0  0  0  0  0  0  0  0  0  0  0
   31.1720   27.2410   48.6010 C   0  0  0  0  0  2  0  0  0  0  0  0
   30.2690   27.8340   49.6790 C   0  0  0  0  0  2  0  0  0  0  0  0
   29.6860   26.9920   50.1040 H   0  0  0  0  0  0  0  0  0  0  0  0
  1  4  1  6  0  0  0
  1  3  1  0  0  0  0
  1  8  1  0  0  0  0
  1  2  1  0  0  0  0
  2  6  1  0  0  0  0
  3  7  1  1  0  0  0
  3  2  1  0  0  0  0
  5  2  1  0  0  0  0
  8 10  1  0  0  0  0
  9  8  1  0  0  0  0
 11 16  1  0  0  0  0
 11 17  1  0  0  0  0
 12 11  2  0  0  0  0
 13 14  2  0  0  0  0
 13 12  1  0  0  0  0
 14 15  1  0  0  0  0
 15  8  1  0  0  0  0
 15 16  2  0  0  0  0
 18 12  1  0  0  0  0
 19 13  1  0  0  0  0
 20  3  1  0  0  0  0
 21 20  2  0  0  0  0
 22 20  1  0  0  0  0
 22 23  1  0  0  0  0
 23 24  1  0  0  0  0
 24 25  1  0  0  0  0
M  END
>  <minimizedAffinity>
-4.69021797

>  <minimizedRMSD>
0.879660249

$$$$
