
 OpenBabel03252512583D

 40 44  0  0  0  0  0  0  0  0999 V2000
   38.2560   32.8200   49.5360 C   0  0  0  0  0  0  0  0  0  0  0  0
   38.9200   33.1080   48.3280 C   0  0  0  0  0  0  0  0  0  0  0  0
   38.6180   32.3100   47.2260 C   0  0  0  0  0  0  0  0  0  0  0  0
   37.7080   31.2880   47.3280 N   0  0  0  0  0  0  0  0  0  0  0  0
   37.1070   31.0690   48.5210 C   0  0  0  0  0  0  0  0  0  0  0  0
   37.3560   31.8020   49.6190 N   0  0  0  0  0  0  0  0  0  0  0  0
   36.1670   29.9920   48.5830 N   0  0  0  0  0  0  0  0  0  0  0  0
   35.1800   29.8450   47.5440 C   0  0  0  0  0  0  0  0  0  0  0  0
   33.8330   29.8270   48.2670 C   0  0  0  0  0  0  0  0  0  0  0  0
   33.8420   29.0090   49.3780 O   0  0  0  0  0  0  0  0  0  0  0  0
   34.9440   28.1640   49.4440 C   0  0  0  0  0  0  0  0  0  0  0  0
   36.1740   29.0340   49.6700 C   0  0  0  0  0  0  0  0  0  0  0  0
   38.4740   33.4280   50.4080 H   0  0  0  0  0  0  0  0  0  0  0  0
   39.6310   33.9100   48.2480 H   0  0  0  0  0  0  0  0  0  0  0  0
   35.1590   30.6830   46.8290 H   0  0  0  0  0  0  0  0  0  0  0  0
   35.2910   28.8430   47.0740 H   0  0  0  0  0  0  0  0  0  0  0  0
   33.0330   29.4580   47.5780 H   0  0  0  0  0  0  0  0  0  0  0  0
   33.5880   30.8860   48.4870 H   0  0  0  0  0  0  0  0  0  0  0  0
   34.7680   27.5380   50.3650 H   0  0  0  0  0  0  0  0  0  0  0  0
   35.0540   27.4770   48.6050 H   0  0  0  0  0  0  0  0  0  0  0  0
   36.1030   29.5050   50.6700 H   0  0  0  0  0  0  0  0  0  0  0  0
   37.0660   28.3770   49.5830 H   0  0  0  0  0  0  0  0  0  0  0  0
   39.2630   32.5350   45.9290 C   0  0  0  0  0  0  0  0  0  0  0  0
   40.5320   32.7290   45.5540 N   0  0  0  0  0  0  0  0  0  0  0  0
   40.5990   32.8820   44.2660 O   0  0  0  0  0  0  0  0  0  0  0  0
   39.3920   32.7920   43.7720 C   0  0  0  0  0  0  0  0  0  0  0  0
   38.5180   32.5730   44.7880 N   0  0  0  0  0  0  0  0  0  0  0  0
   38.9840   32.8970   42.4070 N   0  0  0  0  0  0  0  0  0  0  0  0
   39.0770   34.0690   41.7550 N   0  0  0  0  0  0  0  0  0  0  0  0
   38.6310   33.8560   40.4880 C   0  0  0  0  0  0  0  0  0  0  0  0
   38.2620   32.5070   40.3950 C   0  0  0  0  0  0  0  0  0  0  0  0
   38.5000   31.9440   41.6230 C   0  0  0  0  0  0  0  0  0  0  0  0
   38.6060   34.6480   39.7630 H   0  0  0  0  0  0  0  0  0  0  0  0
   37.8780   32.0920   39.4900 H   0  0  0  0  0  0  0  0  0  0  0  0
   38.2440   30.5780   41.9430 N   0  0  0  0  0  0  0  0  0  0  0  0
   36.9980   29.9160   42.3250 C   0  0  0  0  0  0  0  0  0  0  0  0
   37.1650   29.6450   43.8270 C   0  0  0  0  0  0  0  0  0  0  0  0
   38.5160   29.5750   44.1520 O   0  0  0  0  0  0  0  0  0  0  0  0
   39.2640   28.8630   43.2110 C   0  0  0  0  0  0  0  0  0  0  0  0
   39.3860   29.6490   41.9160 C   0  0  0  0  0  0  0  0  0  0  0  0
  1  6  1  0  0  0  0
  1 13  1  0  0  0  0
  2  1  2  0  0  0  0
  3  4  2  0  0  0  0
  3  2  1  0  0  0  0
  4  5  1  0  0  0  0
  5  7  1  0  0  0  0
  5  6  2  0  0  0  0
  7 12  1  0  0  0  0
  8  9  1  0  0  0  0
  8  7  1  0  0  0  0
  9 18  1  0  0  0  0
  9 10  1  0  0  0  0
 10 11  1  0  0  0  0
 11 12  1  0  0  0  0
 11 19  1  0  0  0  0
 12 21  1  0  0  0  0
 14  2  1  0  0  0  0
 15  8  1  0  0  0  0
 16  8  1  0  0  0  0
 17  9  1  0  0  0  0
 20 11  1  0  0  0  0
 22 12  1  0  0  0  0
 23  3  1  0  0  0  0
 24 23  2  0  0  0  0
 25 24  1  0  0  0  0
 26 25  1  0  0  0  0
 26 27  2  0  0  0  0
 27 23  1  0  0  0  0
 28 26  1  0  0  0  0
 29 28  1  0  0  0  0
 30 29  2  0  0  0  0
 31 30  1  0  0  0  0
 31 32  2  0  0  0  0
 32 35  1  0  0  0  0
 32 28  1  0  0  0  0
 33 30  1  0  0  0  0
 34 31  1  0  0  0  0
 35 36  1  0  0  0  0
 36 37  1  0  0  0  0
 37 38  1  0  0  0  0
 39 38  1  0  0  0  0
 40 35  1  0  0  0  0
 40 39  1  0  0  0  0
M  END
>  <minimizedAffinity>
-6.78348017

>  <minimizedRMSD>
2.2556684

$$$$
