
 OpenBabel03252513593D

 25 26  0  0  1  0  0  0  0  0999 V2000
   35.3690   29.4380   49.0870 C   0  0  2  0  0  0  0  0  0  0  0  0
   34.2680   29.4560   50.0630 C   0  0  0  0  0  0  0  0  0  0  0  0
   34.5740   28.1690   49.4550 C   0  0  1  0  0  0  0  0  0  0  0  0
   35.2740   29.7530   48.0470 H   0  0  0  0  0  0  0  0  0  0  0  0
   33.3490   30.0060   49.7590 H   0  0  0  0  0  0  0  0  0  0  0  0
   34.4910   29.6050   51.1420 H   0  0  0  0  0  0  0  0  0  0  0  0
   35.2210   27.3720   49.8300 H   0  0  0  0  0  0  0  0  0  0  0  0
   36.7940   29.3840   49.6430 C   0  0  0  0  0  0  0  0  0  0  0  0
   37.2500   28.4030   49.3640 H   0  0  0  0  0  0  0  0  0  0  0  0
   36.7290   29.4420   50.7380 H   0  0  0  0  0  0  0  0  0  0  0  0
   38.3620   32.6880   49.4000 C   0  0  0  0  0  0  0  0  0  0  0  0
   38.8820   32.6910   48.0970 C   0  0  0  0  0  0  0  0  0  0  0  0
   38.6850   31.5440   47.3110 C   0  0  0  0  0  0  0  0  0  0  0  0
   37.9960   30.4870   47.8600 N   0  0  0  0  0  0  0  0  0  0  0  0
   37.5210   30.5360   49.1070 C   0  0  0  0  0  0  0  0  0  0  0  0
   37.7100   31.6410   49.8670 N   0  0  0  0  0  0  0  0  0  0  0  0
   38.4600   33.5170   50.0820 H   0  0  0  0  0  0  0  0  0  0  0  0
   39.4130   33.5730   47.7490 H   0  0  0  0  0  0  0  0  0  0  0  0
   39.0760   31.5370   46.3200 H   0  0  0  0  0  0  0  0  0  0  0  0
   33.5660   27.6770   48.4540 C   0  0  0  0  0  0  0  0  0  0  0  0
   34.0120   26.7580   47.6560 O   0  0  0  0  0  0  0  0  0  0  0  0
   32.2560   28.1060   48.3370 O   0  0  0  0  0  0  0  0  0  0  0  0
   31.1720   27.2400   48.6000 C   0  0  0  0  0  2  0  0  0  0  0  0
   30.2680   27.8330   49.6770 C   0  0  0  0  0  2  0  0  0  0  0  0
   29.6850   26.9900   50.1010 H   0  0  0  0  0  0  0  0  0  0  0  0
  1  4  1  6  0  0  0
  1  3  1  0  0  0  0
  1  8  1  0  0  0  0
  1  2  1  0  0  0  0
  2  6  1  0  0  0  0
  3  7  1  1  0  0  0
  3  2  1  0  0  0  0
  5  2  1  0  0  0  0
  8 10  1  0  0  0  0
  9  8  1  0  0  0  0
 11 16  1  0  0  0  0
 11 17  1  0  0  0  0
 12 11  2  0  0  0  0
 13 14  2  0  0  0  0
 13 12  1  0  0  0  0
 14 15  1  0  0  0  0
 15  8  1  0  0  0  0
 15 16  2  0  0  0  0
 18 12  1  0  0  0  0
 19 13  1  0  0  0  0
 20  3  1  0  0  0  0
 21 20  2  0  0  0  0
 22 20  1  0  0  0  0
 22 23  1  0  0  0  0
 23 24  1  0  0  0  0
 24 25  1  0  0  0  0
M  END
>  <minimizedAffinity>
-4.68789148

>  <minimizedRMSD>
0.737999856

$$$$
