
 OpenBabel03252513323D

 18 19  0  0  0  0  0  0  0  0999 V2000
   37.1350   30.3200   48.9450 C   0  0  0  0  0  0  0  0  0  0  0  0
   38.0380   30.7700   47.9710 C   0  0  0  0  0  0  0  0  0  0  0  0
   37.5940   30.8560   46.6620 C   0  0  0  0  0  0  0  0  0  0  0  0
   36.3220   30.5060   46.3870 N   0  0  0  0  0  0  0  0  0  0  0  0
   35.4700   30.0730   47.3490 C   0  0  0  0  0  0  0  0  0  0  0  0
   35.8830   29.9840   48.6180 N   0  0  0  0  0  0  0  0  0  0  0  0
   39.0250   31.0290   48.2630 H   0  0  0  0  0  0  0  0  0  0  0  0
   34.4380   29.7890   47.1270 H   0  0  0  0  0  0  0  0  0  0  0  0
   38.4280   31.2950   45.6330 N   0  0  0  0  0  0  0  0  0  0  0  0
   38.3980   32.5700   44.9840 C   0  0  0  0  0  0  0  0  0  0  0  0
   39.8010   33.1820   44.9160 C   0  0  0  0  0  0  0  0  0  0  0  0
   40.7620   32.2810   44.5310 O   0  0  0  0  0  0  0  0  0  0  0  0
   40.7670   31.1890   45.3860 C   0  0  0  0  0  0  0  0  0  0  0  0
   39.4700   30.4420   45.0930 C   0  0  0  0  0  0  0  0  0  0  0  0
   37.5960   30.2190   50.3750 C   0  0  0  0  0  0  0  0  0  0  0  0
   36.6610   30.7990   51.2120 F   0  0  0  0  0  0  0  0  0  0  0  0
   37.8750   28.9240   50.6500 F   0  0  0  0  0  0  0  0  0  0  0  0
   38.7620   30.9930   50.4770 F   0  0  0  0  0  0  0  0  0  0  0  0
  1 15  1  0  0  0  0
  2  7  1  0  0  0  0
  2  1  2  0  0  0  0
  3  2  1  0  0  0  0
  4  3  2  0  0  0  0
  4  5  1  0  0  0  0
  5  6  2  0  0  0  0
  6  1  1  0  0  0  0
  8  5  1  0  0  0  0
  9  3  1  0  0  0  0
 10  9  1  0  0  0  0
 11 10  1  0  0  0  0
 12 11  1  0  0  0  0
 12 13  1  0  0  0  0
 14 13  1  0  0  0  0
 14  9  1  0  0  0  0
 15 18  1  0  0  0  0
 15 17  1  0  0  0  0
 15 16  1  0  0  0  0
M  END
>  <minimizedAffinity>
-5.85656452

>  <minimizedRMSD>
3.38770795

$$$$
