
 OpenBabel03252512053D

 35 36  0  0  0  0  0  0  0  0999 V2000
   37.2900   32.0720   49.5540 C   0  0  0  0  0  0  0  0  0  0  0  0
   38.0310   32.6750   50.1670 H   0  0  0  0  0  0  0  0  0  0  0  0
   36.4300   32.7180   49.4760 H   0  0  0  0  0  0  0  0  0  0  0  0
   38.0110   31.8250   48.2880 C   0  0  0  0  0  0  0  0  0  0  0  0
   37.9080   30.6260   47.6740 C   0  0  0  0  0  0  0  0  0  0  0  0
   38.6330   30.3910   46.5020 C   0  0  0  0  0  0  0  0  0  0  0  0
   39.4170   31.3930   46.0240 N   0  0  0  0  0  0  0  0  0  0  0  0
   39.4960   32.5600   46.6430 C   0  0  0  0  0  0  0  0  0  0  0  0
   38.8090   32.8050   47.7720 N   0  0  0  0  0  0  0  0  0  0  0  0
   37.4000   29.7080   47.8140 H   0  0  0  0  0  0  0  0  0  0  0  0
   38.7030   29.5160   45.8560 H   0  0  0  0  0  0  0  0  0  0  0  0
   40.3370   33.6500   46.0980 C   0  0  0  0  0  0  0  0  0  0  0  0
   40.0230   34.6290   46.5160 H   0  0  0  0  0  0  0  0  0  0  0  0
   41.3980   33.5430   46.3170 H   0  0  0  0  0  0  0  0  0  0  0  0
   40.1160   33.7680   44.5760 C   0  0  0  0  0  0  0  0  0  0  0  0
   39.1340   33.3250   44.3110 H   0  0  0  0  0  0  0  0  0  0  0  0
   40.9590   33.2130   44.1180 H   0  0  0  0  0  0  0  0  0  0  0  0
   40.2160   34.8190   44.2770 H   0  0  0  0  0  0  0  0  0  0  0  0
   37.1570   30.7860   50.2740 C   0  0  0  0  0  0  0  0  0  0  0  0
   38.0770   30.1990   50.0700 H   0  0  0  0  0  0  0  0  0  0  0  0
   37.1500   30.9860   51.3700 H   0  0  0  0  0  0  0  0  0  0  0  0
   36.0100   28.6620   49.8580 C   0  0  0  0  0  0  0  0  0  0  0  0
   35.9940   30.0660   49.8970 C   0  0  0  0  0  0  0  0  0  0  0  0
   34.8220   30.6890   49.5430 C   0  0  0  0  0  0  0  0  0  0  0  0
   33.7400   29.9500   49.1730 N   0  0  0  0  0  0  0  0  0  0  0  0
   33.7770   28.6180   49.1420 C   0  0  0  0  0  0  0  0  0  0  0  0
   34.8900   28.0120   49.4780 N   0  0  0  0  0  0  0  0  0  0  0  0
   36.9020   28.1260   50.1270 H   0  0  0  0  0  0  0  0  0  0  0  0
   34.6870   31.7450   49.5340 H   0  0  0  0  0  0  0  0  0  0  0  0
   32.6030   27.8360   48.7410 C   0  0  0  0  0  0  0  0  0  0  0  0
   32.6560   27.0160   47.7910 O   0  0  0  0  0  0  0  0  0  0  0  0
   31.3910   27.9740   49.3960 O   0  0  0  0  0  0  0  0  0  0  0  0
   30.2410   27.2090   49.1050 C   0  0  0  0  0  0  0  0  0  0  0  0
   29.3030   27.2830   50.2810 C   0  0  0  0  0  0  0  0  0  0  0  0
   29.3680   26.2830   50.8020 H   0  0  0  0  0  0  0  0  0  0  0  0
  1  2  1  0  0  0  0
  1 19  1  0  0  0  0
  3  1  1  0  0  0  0
  4  1  1  0  0  0  0
  5 10  1  0  0  0  0
  5  4  2  0  0  0  0
  6  5  1  0  0  0  0
  7  6  2  0  0  0  0
  7  8  1  0  0  0  0
  8  9  2  0  0  0  0
  9  4  1  0  0  0  0
 11  6  1  0  0  0  0
 12 14  1  0  0  0  0
 12 13  1  0  0  0  0
 12  8  1  0  0  0  0
 15 12  1  0  0  0  0
 16 15  1  0  0  0  0
 17 15  1  0  0  0  0
 18 15  1  0  0  0  0
 19 21  1  0  0  0  0
 20 19  1  0  0  0  0
 22 23  1  0  0  0  0
 22 28  1  0  0  0  0
 23 19  1  0  0  0  0
 24 23  2  0  0  0  0
 25 24  1  0  0  0  0
 26 25  2  0  0  0  0
 26 27  1  0  0  0  0
 27 22  2  0  0  0  0
 29 24  1  0  0  0  0
 30 26  1  0  0  0  0
 30 32  1  0  0  0  0
 31 30  2  0  0  0  0
 33 32  1  0  0  0  0
 33 34  1  0  0  0  0
 34 35  1  0  0  0  0
M  END
>  <minimizedAffinity>
-5.0398345

>  <minimizedRMSD>
0.89891988

$$$$
