
 OpenBabel03252512393D

 21 23  0  0  0  0  0  0  0  0999 V2000
   38.3860   31.1420   47.8210 C   0  0  0  0  0  0  0  0  0  0  0  0
   38.8690   32.4770   47.8870 C   0  0  0  0  0  0  0  0  0  0  0  0
   39.6290   32.7530   46.2310 S   0  0  0  0  0  0  0  0  0  0  0  0
   39.1500   30.9890   45.7390 C   0  0  0  0  0  0  0  0  0  0  0  0
   38.6360   30.5790   46.6450 N   0  0  0  0  0  0  0  0  0  0  0  0
   38.7810   33.1430   48.7550 H   0  0  0  0  0  0  0  0  0  0  0  0
   39.4240   30.3750   44.4520 N   0  0  0  0  0  0  0  0  0  0  0  0
   38.6040   29.3700   43.8500 C   0  0  0  0  0  0  0  0  0  0  0  0
   39.4920   28.7180   42.7810 C   0  0  0  0  0  0  0  0  0  0  0  0
   39.9190   29.6110   41.8340 O   0  0  0  0  0  0  0  0  0  0  0  0
   40.2890   30.8500   42.2850 C   0  0  0  0  0  0  0  0  0  0  0  0
   40.6120   30.8270   43.7520 C   0  0  0  0  0  0  0  0  0  0  0  0
   38.1420   30.8950   50.2680 C   0  0  0  0  0  0  0  0  0  0  0  0
   37.7050   30.5420   48.9750 C   0  0  0  0  0  0  0  0  0  0  0  0
   36.6600   29.6470   48.8750 C   0  0  0  0  0  0  0  0  0  0  0  0
   36.1030   29.1520   50.0150 N   0  0  0  0  0  0  0  0  0  0  0  0
   36.5410   29.5080   51.2250 C   0  0  0  0  0  0  0  0  0  0  0  0
   37.5480   30.3700   51.3400 N   0  0  0  0  0  0  0  0  0  0  0  0
   38.9620   31.5980   50.3250 H   0  0  0  0  0  0  0  0  0  0  0  0
   36.3150   29.3680   47.8950 H   0  0  0  0  0  0  0  0  0  0  0  0
   36.1460   29.1540   52.1580 H   0  0  0  0  0  0  0  0  0  0  0  0
  1  2  2  0  0  0  0
  1 14  1  0  0  0  0
  2  6  1  0  0  0  0
  3  2  1  0  0  0  0
  4  3  1  0  0  0  0
  4  5  2  0  0  0  0
  5  1  1  0  0  0  0
  7  4  1  0  0  0  0
  8  7  1  0  0  0  0
  9  8  1  0  0  0  0
 10 11  1  0  0  0  0
 10  9  1  0  0  0  0
 11 12  1  0  0  0  0
 12  7  1  0  0  0  0
 13 19  1  0  0  0  0
 13 18  1  0  0  0  0
 14 13  2  0  0  0  0
 15 14  1  0  0  0  0
 15 16  2  0  0  0  0
 16 17  1  0  0  0  0
 17 18  2  0  0  0  0
 17 21  1  0  0  0  0
 20 15  1  0  0  0  0
M  END
>  <minimizedAffinity>
-5.56407309

>  <minimizedRMSD>
0.0994261876

$$$$
