
 OpenBabel03252513253D

 34 36  0  0  0  0  0  0  0  0999 V2000
   32.7790   27.7880   48.5590 C   0  0  0  0  0  0  0  0  0  0  0  0
   31.6680   28.2000   49.2250 C   0  0  0  0  0  0  0  0  0  0  0  0
   30.4490   27.5530   49.1560 C   0  0  0  0  0  0  0  0  0  0  0  0
   30.4000   26.4270   48.3510 C   0  0  0  0  0  0  0  0  0  0  0  0
   31.5020   25.9750   47.6600 C   0  0  0  0  0  0  0  0  0  0  0  0
   32.7040   26.6630   47.7640 C   0  0  0  0  0  0  0  0  0  0  0  0
   31.7310   29.0710   49.8380 H   0  0  0  0  0  0  0  0  0  0  0  0
   29.5670   27.8750   49.6810 H   0  0  0  0  0  0  0  0  0  0  0  0
   29.4970   25.8490   48.2290 H   0  0  0  0  0  0  0  0  0  0  0  0
   31.4990   25.1110   47.0310 H   0  0  0  0  0  0  0  0  0  0  0  0
   36.0870   28.9180   49.6980 C   0  0  0  0  0  0  0  0  0  0  0  0
   36.4170   29.9060   48.7340 C   0  0  0  0  0  0  0  0  0  0  0  0
   35.4890   30.1430   47.7300 C   0  0  0  0  0  0  0  0  0  0  0  0
   34.3130   29.4270   47.7110 N   0  0  0  0  0  0  0  0  0  0  0  0
   34.0500   28.4980   48.6570 C   0  0  0  0  0  0  0  0  0  0  0  0
   34.9310   28.2580   49.6270 N   0  0  0  0  0  0  0  0  0  0  0  0
   36.8040   28.7300   50.4830 H   0  0  0  0  0  0  0  0  0  0  0  0
   35.6910   30.8740   46.9810 H   0  0  0  0  0  0  0  0  0  0  0  0
   37.6860   30.6680   48.7650 C   0  0  0  0  0  0  0  0  0  0  0  0
   38.4720   30.4690   47.6790 F   0  0  0  0  0  0  0  0  0  0  0  0
   38.4410   30.3410   49.8780 F   0  0  0  0  0  0  0  0  0  0  0  0
   37.4050   32.0340   48.8490 F   0  0  0  0  0  0  0  0  0  0  0  0
   33.9010   26.2200   47.0480 C   0  0  0  0  0  0  0  0  0  0  0  0
   34.1920   27.0130   46.3270 H   0  0  0  0  0  0  0  0  0  0  0  0
   34.7520   26.2100   47.7890 H   0  0  0  0  0  0  0  0  0  0  0  0
   33.8570   24.8500   46.4630 C   0  0  0  0  0  0  0  0  0  0  0  0
   33.1320   24.8000   45.6250 H   0  0  0  0  0  0  0  0  0  0  0  0
   33.6680   24.1280   47.2610 H   0  0  0  0  0  0  0  0  0  0  0  0
   35.1570   24.5540   45.8560 N   0  0  0  0  0  0  0  0  0  0  0  0
   35.6140   23.2330   46.2420 C   0  0  0  0  0  0  0  0  0  0  0  0
   36.9610   23.0060   45.6080 C   0  0  0  0  0  0  0  0  0  0  0  0
   36.9850   23.1660   44.2420 O   0  0  0  0  0  0  0  0  0  0  0  0
   35.7310   23.4570   43.7160 C   0  0  0  0  0  0  0  0  0  0  0  0
   35.0720   24.6160   44.4230 C   0  0  0  0  0  0  0  0  0  0  0  0
  1 15  1  0  0  0  0
  1  2  1  0  0  0  0
  2  7  1  0  0  0  0
  3  2  2  0  0  0  0
  3  8  1  0  0  0  0
  4  3  1  0  0  0  0
  5  6  1  0  0  0  0
  5  4  2  0  0  0  0
  6  1  2  0  0  0  0
  9  4  1  0  0  0  0
 10  5  1  0  0  0  0
 11 17  1  0  0  0  0
 12 19  1  0  0  0  0
 12 11  2  0  0  0  0
 13 12  1  0  0  0  0
 14 13  2  0  0  0  0
 14 15  1  0  0  0  0
 15 16  2  0  0  0  0
 16 11  1  0  0  0  0
 18 13  1  0  0  0  0
 19 22  1  0  0  0  0
 19 21  1  0  0  0  0
 20 19  1  0  0  0  0
 23  6  1  0  0  0  0
 23 25  1  0  0  0  0
 24 23  1  0  0  0  0
 26 23  1  0  0  0  0
 26 28  1  0  0  0  0
 27 26  1  0  0  0  0
 29 30  1  0  0  0  0
 29 26  1  0  0  0  0
 31 30  1  0  0  0  0
 32 31  1  0  0  0  0
 33 32  1  0  0  0  0
 33 34  1  0  0  0  0
 34 29  1  0  0  0  0
M  END
>  <minimizedAffinity>
-4.93582678

>  <minimizedRMSD>
0.357663333

$$$$
