
 OpenBabel03252514073D

 40 43  0  0  0  0  0  0  0  0999 V2000
   34.6320   29.9920   47.3980 C   0  0  0  0  0  0  0  0  0  0  0  0
   35.4980   29.8930   48.4840 C   0  0  0  0  0  0  0  0  0  0  0  0
   35.4030   28.7210   49.2260 C   0  0  0  0  0  0  0  0  0  0  0  0
   34.5200   27.7620   48.8930 N   0  0  0  0  0  0  0  0  0  0  0  0
   33.6980   27.8870   47.8410 C   0  0  0  0  0  0  0  0  0  0  0  0
   33.7560   29.0060   47.0950 N   0  0  0  0  0  0  0  0  0  0  0  0
   34.6760   30.9010   46.7880 H   0  0  0  0  0  0  0  0  0  0  0  0
   36.0720   28.6150   50.0870 H   0  0  0  0  0  0  0  0  0  0  0  0
   36.3900   30.9580   48.7420 N   0  0  0  0  0  0  0  0  0  0  0  0
   36.3690   31.7110   49.8640 C   0  0  0  0  0  0  0  0  0  0  0  0
   37.3510   32.6400   49.7930 N   0  0  0  0  0  0  0  0  0  0  0  0
   37.9820   32.4510   48.6110 C   0  0  0  0  0  0  0  0  0  0  0  0
   39.0440   33.0670   47.9680 C   0  0  0  0  0  0  0  0  0  0  0  0
   39.4650   32.6660   46.7760 N   0  0  0  0  0  0  0  0  0  0  0  0
   38.8810   31.6280   46.1170 C   0  0  0  0  0  0  0  0  0  0  0  0
   37.8450   31.0310   46.7490 N   0  0  0  0  0  0  0  0  0  0  0  0
   37.3890   31.4010   47.9430 C   0  0  0  0  0  0  0  0  0  0  0  0
   35.7190   31.6510   50.7060 H   0  0  0  0  0  0  0  0  0  0  0  0
   39.2410   31.3050   45.1340 H   0  0  0  0  0  0  0  0  0  0  0  0
   39.6830   34.1480   48.5960 N   0  0  0  0  0  0  0  0  0  0  0  0
   40.6000   34.5450   48.2840 H   0  0  0  0  0  0  0  0  0  0  0  0
   39.4040   34.7220   49.4230 H   0  0  0  0  0  0  0  0  0  0  0  0
   32.7050   26.8560   47.4080 C   0  0  0  0  0  0  0  0  0  0  0  0
   31.5610   26.8470   48.4540 C   0  0  0  0  0  0  0  0  0  0  0  0
   31.9030   27.3270   49.3810 H   0  0  0  0  0  0  0  0  0  0  0  0
   31.3160   25.7910   48.6360 H   0  0  0  0  0  0  0  0  0  0  0  0
   30.6750   27.3780   48.1040 H   0  0  0  0  0  0  0  0  0  0  0  0
   32.0440   27.2110   46.1140 C   0  0  0  0  0  0  0  0  0  0  0  0
   32.6430   27.1110   45.2140 H   0  0  0  0  0  0  0  0  0  0  0  0
   31.8590   28.3400   46.1960 H   0  0  0  0  0  0  0  0  0  0  0  0
   31.0170   26.7920   46.0830 H   0  0  0  0  0  0  0  0  0  0  0  0
   33.3230   25.5030   47.3310 C   0  0  0  0  0  0  0  0  0  0  0  0
   33.7990   25.3340   48.3390 H   0  0  0  0  0  0  0  0  0  0  0  0
   34.2290   25.6290   46.6590 H   0  0  0  0  0  0  0  0  0  0  0  0
   32.4730   24.4250   46.9570 N   0  0  0  0  0  0  0  0  0  0  0  0
   32.8050   23.2980   47.8700 C   0  0  0  0  0  2  0  0  0  0  0  0
   34.2700   23.1400   47.9690 C   0  0  0  0  0  2  0  0  0  0  0  0
   34.9720   23.1430   46.7990 O   0  0  0  0  0  0  0  0  0  0  0  0
   34.3440   23.5170   45.6590 C   0  0  0  0  0  2  0  0  0  0  0  0
   32.8980   23.8020   45.6810 C   0  0  0  0  0  2  0  0  0  0  0  0
  1  2  1  0  0  0  0
  2  9  1  0  0  0  0
  2  3  2  0  0  0  0
  3  8  1  0  0  0  0
  4  3  1  0  0  0  0
  5  4  2  0  0  0  0
  6  1  2  0  0  0  0
  6  5  1  0  0  0  0
  7  1  1  0  0  0  0
  9 10  1  0  0  0  0
 10 18  1  0  0  0  0
 11 10  2  0  0  0  0
 12 11  1  0  0  0  0
 13 20  1  0  0  0  0
 13 12  1  0  0  0  0
 14 13  2  0  0  0  0
 15 16  2  0  0  0  0
 15 14  1  0  0  0  0
 16 17  1  0  0  0  0
 17 12  2  0  0  0  0
 17  9  1  0  0  0  0
 19 15  1  0  0  0  0
 20 22  1  0  0  0  0
 21 20  1  0  0  0  0
 23  5  1  0  0  0  0
 23 24  1  0  0  0  0
 24 26  1  0  0  0  0
 24 25  1  0  0  0  0
 27 24  1  0  0  0  0
 28 30  1  0  0  0  0
 28 23  1  0  0  0  0
 29 28  1  0  0  0  0
 31 28  1  0  0  0  0
 32 23  1  0  0  0  0
 32 33  1  0  0  0  0
 34 32  1  0  0  0  0
 35 32  1  0  0  0  0
 35 36  1  0  0  0  0
 36 37  1  0  0  0  0
 38 37  1  0  0  0  0
 39 40  1  0  0  0  0
 39 38  1  0  0  0  0
 40 35  1  0  0  0  0
M  END
>  <minimizedAffinity>
-5.40289116

>  <minimizedRMSD>
1.03407407

$$$$
