
 OpenBabel03252514073D

 40 43  0  0  0  0  0  0  0  0999 V2000
   34.6330   29.9890   47.3970 C   0  0  0  0  0  0  0  0  0  0  0  0
   35.4980   29.8910   48.4850 C   0  0  0  0  0  0  0  0  0  0  0  0
   35.4010   28.7210   49.2290 C   0  0  0  0  0  0  0  0  0  0  0  0
   34.5190   27.7600   48.8950 N   0  0  0  0  0  0  0  0  0  0  0  0
   33.6980   27.8840   47.8420 C   0  0  0  0  0  0  0  0  0  0  0  0
   33.7580   29.0020   47.0940 N   0  0  0  0  0  0  0  0  0  0  0  0
   34.6790   30.8960   46.7860 H   0  0  0  0  0  0  0  0  0  0  0  0
   36.0690   28.6160   50.0910 H   0  0  0  0  0  0  0  0  0  0  0  0
   36.3890   30.9560   48.7420 N   0  0  0  0  0  0  0  0  0  0  0  0
   36.3680   31.7090   49.8640 C   0  0  0  0  0  0  0  0  0  0  0  0
   37.3500   32.6390   49.7930 N   0  0  0  0  0  0  0  0  0  0  0  0
   37.9810   32.4500   48.6120 C   0  0  0  0  0  0  0  0  0  0  0  0
   39.0430   33.0660   47.9690 C   0  0  0  0  0  0  0  0  0  0  0  0
   39.4650   32.6640   46.7770 N   0  0  0  0  0  0  0  0  0  0  0  0
   38.8810   31.6270   46.1180 C   0  0  0  0  0  0  0  0  0  0  0  0
   37.8440   31.0300   46.7500 N   0  0  0  0  0  0  0  0  0  0  0  0
   37.3890   31.3990   47.9440 C   0  0  0  0  0  0  0  0  0  0  0  0
   35.7180   31.6500   50.7070 H   0  0  0  0  0  0  0  0  0  0  0  0
   39.2410   31.3040   45.1350 H   0  0  0  0  0  0  0  0  0  0  0  0
   39.6810   34.1470   48.5970 N   0  0  0  0  0  0  0  0  0  0  0  0
   40.5980   34.5450   48.2850 H   0  0  0  0  0  0  0  0  0  0  0  0
   39.4020   34.7220   49.4230 H   0  0  0  0  0  0  0  0  0  0  0  0
   32.7060   26.8530   47.4090 C   0  0  0  0  0  0  0  0  0  0  0  0
   31.5610   26.8440   48.4540 C   0  0  0  0  0  0  0  0  0  0  0  0
   31.9020   27.3250   49.3810 H   0  0  0  0  0  0  0  0  0  0  0  0
   31.3170   25.7880   48.6360 H   0  0  0  0  0  0  0  0  0  0  0  0
   30.6760   27.3740   48.1030 H   0  0  0  0  0  0  0  0  0  0  0  0
   32.0460   27.2060   46.1140 C   0  0  0  0  0  0  0  0  0  0  0  0
   32.6450   27.1060   45.2140 H   0  0  0  0  0  0  0  0  0  0  0  0
   31.8610   28.3350   46.1950 H   0  0  0  0  0  0  0  0  0  0  0  0
   31.0190   26.7870   46.0830 H   0  0  0  0  0  0  0  0  0  0  0  0
   33.3250   25.5000   47.3330 C   0  0  0  0  0  0  0  0  0  0  0  0
   33.7990   25.3310   48.3420 H   0  0  0  0  0  0  0  0  0  0  0  0
   34.2330   25.6260   46.6630 H   0  0  0  0  0  0  0  0  0  0  0  0
   32.4760   24.4210   46.9580 N   0  0  0  0  0  0  0  0  0  0  0  0
   32.8060   23.2940   47.8710 C   0  0  0  0  0  2  0  0  0  0  0  0
   34.2720   23.1380   47.9710 C   0  0  0  0  0  2  0  0  0  0  0  0
   34.9750   23.1400   46.8030 O   0  0  0  0  0  0  0  0  0  0  0  0
   34.3490   23.5150   45.6620 C   0  0  0  0  0  2  0  0  0  0  0  0
   32.9030   23.7990   45.6820 C   0  0  0  0  0  2  0  0  0  0  0  0
  1  2  1  0  0  0  0
  2  9  1  0  0  0  0
  2  3  2  0  0  0  0
  3  8  1  0  0  0  0
  4  3  1  0  0  0  0
  5  4  2  0  0  0  0
  6  1  2  0  0  0  0
  6  5  1  0  0  0  0
  7  1  1  0  0  0  0
  9 10  1  0  0  0  0
 10 18  1  0  0  0  0
 11 10  2  0  0  0  0
 12 11  1  0  0  0  0
 13 20  1  0  0  0  0
 13 12  1  0  0  0  0
 14 13  2  0  0  0  0
 15 16  2  0  0  0  0
 15 14  1  0  0  0  0
 16 17  1  0  0  0  0
 17 12  2  0  0  0  0
 17  9  1  0  0  0  0
 19 15  1  0  0  0  0
 20 22  1  0  0  0  0
 21 20  1  0  0  0  0
 23  5  1  0  0  0  0
 23 24  1  0  0  0  0
 24 26  1  0  0  0  0
 24 25  1  0  0  0  0
 27 24  1  0  0  0  0
 28 30  1  0  0  0  0
 28 23  1  0  0  0  0
 29 28  1  0  0  0  0
 31 28  1  0  0  0  0
 32 23  1  0  0  0  0
 32 33  1  0  0  0  0
 34 32  1  0  0  0  0
 35 32  1  0  0  0  0
 35 36  1  0  0  0  0
 36 37  1  0  0  0  0
 38 37  1  0  0  0  0
 39 40  1  0  0  0  0
 39 38  1  0  0  0  0
 40 35  1  0  0  0  0
M  END
>  <minimizedAffinity>
-5.40672016

>  <minimizedRMSD>
0.593451262

$$$$
