
 OpenBabel03252512283D

 29 30  0  0  1  0  0  0  0  0999 V2000
   34.9540   29.4360   48.5890 C   0  0  0  0  0  0  0  0  0  0  0  0
   34.4620   28.2520   49.1440 C   0  0  0  0  0  0  0  0  0  0  0  0
   33.3390   27.7380   48.6010 C   0  0  0  0  0  0  0  0  0  0  0  0
   32.7720   28.3690   47.5900 C   0  0  0  0  0  0  0  0  0  0  0  0
   33.7930   29.8440   47.2510 S   0  0  0  0  0  0  0  0  0  0  0  0
   35.0300   27.8230   49.9880 H   0  0  0  0  0  0  0  0  0  0  0  0
   32.8830   26.8240   48.9640 H   0  0  0  0  0  0  0  0  0  0  0  0
   37.7770   30.6570   50.5900 C   0  0  0  0  0  0  0  0  0  0  0  0
   38.4030   31.5810   49.7420 C   0  0  0  0  0  0  0  0  0  0  0  0
   37.8440   31.7670   48.5040 C   0  0  0  0  0  0  0  0  0  0  0  0
   36.7300   31.0670   48.1490 N   0  0  0  0  0  0  0  0  0  0  0  0
   36.1780   30.2000   48.9990 C   0  0  0  0  0  0  0  0  0  0  0  0
   36.6550   29.9320   50.2690 N   0  0  0  0  0  0  0  0  0  0  0  0
   38.1300   30.4270   51.5950 H   0  0  0  0  0  0  0  0  0  0  0  0
   39.2800   32.0840   50.1210 H   0  0  0  0  0  0  0  0  0  0  0  0
   38.3060   32.4750   47.8290 H   0  0  0  0  0  0  0  0  0  0  0  0
   31.5560   28.0600   46.7760 C   0  0  2  0  0  0  0  0  0  0  0  0
   31.7610   27.1890   46.1120 H   0  0  0  0  0  0  0  0  0  0  0  0
   31.1900   29.2320   45.9770 C   0  0  0  0  0  0  0  0  0  0  0  0
   31.5380   30.1810   46.4800 H   0  0  0  0  0  0  0  0  0  0  0  0
   31.6150   29.2880   44.9570 H   0  0  0  0  0  0  0  0  0  0  0  0
   30.0720   29.3580   45.9380 H   0  0  0  0  0  0  0  0  0  0  0  0
   30.4660   27.6160   47.7230 C   0  0  0  0  0  0  0  0  0  0  0  0
   30.8040   27.6870   48.7750 H   0  0  0  0  0  0  0  0  0  0  0  0
   29.6710   28.4190   47.6500 H   0  0  0  0  0  0  0  0  0  0  0  0
   29.8620   26.4580   47.3910 O   0  0  0  0  0  0  0  0  0  0  0  0
   28.5690   26.5000   46.9560 C   0  0  0  0  0  0  0  0  0  0  0  0
   27.5850   26.6950   48.1100 C   0  0  0  0  0  0  0  0  0  0  0  0
   28.0340   26.4800   49.0870 H   0  0  0  0  0  0  0  0  0  0  0  0
  1 12  1  0  0  0  0
  1  2  2  0  0  0  0
  2  6  1  0  0  0  0
  3  7  1  0  0  0  0
  3  2  1  0  0  0  0
  4  3  2  0  0  0  0
  5  4  1  0  0  0  0
  5  1  1  0  0  0  0
  8 14  1  0  0  0  0
  9 15  1  0  0  0  0
  9  8  2  0  0  0  0
 10  9  1  0  0  0  0
 11 10  2  0  0  0  0
 11 12  1  0  0  0  0
 12 13  2  0  0  0  0
 13  8  1  0  0  0  0
 16 10  1  0  0  0  0
 17 18  1  6  0  0  0
 17  4  1  0  0  0  0
 17 23  1  0  0  0  0
 19 20  1  0  0  0  0
 19 17  1  0  0  0  0
 21 19  1  0  0  0  0
 22 19  1  0  0  0  0
 23 24  1  0  0  0  0
 25 23  1  0  0  0  0
 26 23  1  0  0  0  0
 27 26  1  0  0  0  0
 27 28  1  0  0  0  0
 28 29  1  0  0  0  0
M  END
>  <minimizedAffinity>
-4.2791419

>  <minimizedRMSD>
1.03513587

$$$$
