
 OpenBabel03252513033D

 29 30  0  0  0  0  0  0  0  0999 V2000
   37.8260   31.0710   47.0470 C   0  0  0  0  0  0  0  0  0  0  0  0
   38.0390   29.9790   46.8630 H   0  0  0  0  0  0  0  0  0  0  0  0
   36.7090   31.1520   47.0230 H   0  0  0  0  0  0  0  0  0  0  0  0
   38.3760   31.8120   45.9930 N   0  0  0  0  0  0  0  0  0  0  0  0
   39.4680   32.5690   45.9800 C   0  0  0  0  0  0  0  0  0  0  0  0
   39.9390   33.2650   44.8960 C   0  0  0  0  0  0  0  0  0  0  0  0
   39.2480   33.1980   43.7020 C   0  0  0  0  0  0  0  0  0  0  0  0
   39.6420   33.8130   42.6950 O   0  0  0  0  0  0  0  0  0  0  0  0
   38.1410   32.4460   43.6760 N   0  0  0  0  0  0  0  0  0  0  0  0
   37.7570   31.8020   44.7820 C   0  0  0  0  0  0  0  0  0  0  0  0
   36.7020   31.1200   44.6470 O   0  0  0  0  0  0  0  0  0  0  0  0
   40.0290   32.6400   46.9030 H   0  0  0  0  0  0  0  0  0  0  0  0
   40.8430   33.8570   44.9860 H   0  0  0  0  0  0  0  0  0  0  0  0
   37.4090   32.3720   42.4310 C   0  0  0  0  0  0  0  0  0  0  0  0
   37.4940   31.0460   41.7400 C   0  0  0  0  0  0  0  0  0  0  0  0
   35.9540   32.7330   42.7560 C   0  0  0  0  0  0  0  0  0  0  0  0
   37.8590   33.4210   41.4140 C   0  0  0  0  0  0  0  0  0  0  0  0
   38.2690   31.3500   48.4390 C   0  0  0  0  0  0  0  0  0  0  0  0
   38.1740   32.4400   48.6250 H   0  0  0  0  0  0  0  0  0  0  0  0
   39.3710   31.1470   48.4960 H   0  0  0  0  0  0  0  0  0  0  0  0
   35.6100   29.3470   50.2310 C   0  0  0  0  0  0  0  0  0  0  0  0
   36.3070   29.9970   49.1980 C   0  0  0  0  0  0  0  0  0  0  0  0
   37.4930   30.6510   49.4700 C   0  0  0  0  0  0  0  0  0  0  0  0
   37.9370   30.6300   50.7510 N   0  0  0  0  0  0  0  0  0  0  0  0
   37.2920   30.0220   51.7340 C   0  0  0  0  0  0  0  0  0  0  0  0
   36.1410   29.3850   51.4830 N   0  0  0  0  0  0  0  0  0  0  0  0
   34.6910   28.8610   49.9340 H   0  0  0  0  0  0  0  0  0  0  0  0
   35.9490   30.0130   48.1690 H   0  0  0  0  0  0  0  0  0  0  0  0
   37.6130   29.9820   52.7680 H   0  0  0  0  0  0  0  0  0  0  0  0
  1 18  1  0  0  0  0
  2  1  1  0  0  0  0
  3  1  1  0  0  0  0
  4  1  1  0  0  0  0
  5  4  1  0  0  0  0
  5 12  1  0  0  0  0
  6 13  1  0  0  0  0
  6  5  2  0  0  0  0
  7  6  1  0  0  0  0
  8  7  2  0  0  0  0
  9  7  1  0  0  0  0
  9 10  1  0  0  0  0
 10  4  1  0  0  0  0
 11 10  2  0  0  0  0
 14 16  1  0  0  0  0
 14  9  1  0  0  0  0
 15 14  1  0  0  0  0
 17 14  1  0  0  0  0
 18 20  1  0  0  0  0
 18 19  1  0  0  0  0
 18 23  1  0  0  0  0
 21 26  1  0  0  0  0
 22 23  1  0  0  0  0
 22 21  2  0  0  0  0
 23 24  2  0  0  0  0
 24 25  1  0  0  0  0
 25 29  1  0  0  0  0
 26 25  2  0  0  0  0
 27 21  1  0  0  0  0
 28 22  1  0  0  0  0
M  END
>  <minimizedAffinity>
-5.12744427

>  <minimizedRMSD>
1.17469823

$$$$
