
 OpenBabel03252514073D

 40 43  0  0  0  0  0  0  0  0999 V2000
   34.4750   30.1240   47.5210 C   0  0  0  0  0  0  0  0  0  0  0  0
   35.4360   29.9530   48.5150 C   0  0  0  0  0  0  0  0  0  0  0  0
   35.3990   28.7360   49.1860 C   0  0  0  0  0  0  0  0  0  0  0  0
   34.4830   27.8010   48.8720 N   0  0  0  0  0  0  0  0  0  0  0  0
   33.5700   27.9960   47.9090 C   0  0  0  0  0  0  0  0  0  0  0  0
   33.5690   29.1610   47.2350 N   0  0  0  0  0  0  0  0  0  0  0  0
   34.4710   31.0700   46.9690 H   0  0  0  0  0  0  0  0  0  0  0  0
   36.1420   28.5730   49.9730 H   0  0  0  0  0  0  0  0  0  0  0  0
   36.3550   30.9980   48.7580 N   0  0  0  0  0  0  0  0  0  0  0  0
   36.3690   31.7490   49.8810 C   0  0  0  0  0  0  0  0  0  0  0  0
   37.3710   32.6560   49.7950 N   0  0  0  0  0  0  0  0  0  0  0  0
   37.9770   32.4550   48.6030 C   0  0  0  0  0  0  0  0  0  0  0  0
   39.0420   33.0480   47.9430 C   0  0  0  0  0  0  0  0  0  0  0  0
   39.4340   32.6390   46.7440 N   0  0  0  0  0  0  0  0  0  0  0  0
   38.8160   31.6160   46.0930 C   0  0  0  0  0  0  0  0  0  0  0  0
   37.7770   31.0420   46.7420 N   0  0  0  0  0  0  0  0  0  0  0  0
   37.3510   31.4190   47.9440 C   0  0  0  0  0  0  0  0  0  0  0  0
   35.7330   31.7020   50.7350 H   0  0  0  0  0  0  0  0  0  0  0  0
   39.1530   31.2870   45.1040 H   0  0  0  0  0  0  0  0  0  0  0  0
   39.7150   34.1140   48.5610 N   0  0  0  0  0  0  0  0  0  0  0  0
   40.6350   34.4910   48.2340 H   0  0  0  0  0  0  0  0  0  0  0  0
   39.4630   34.6930   49.3930 H   0  0  0  0  0  0  0  0  0  0  0  0
   32.5340   26.9970   47.5030 C   0  0  0  0  0  0  0  0  0  0  0  0
   31.3900   27.0650   48.5470 C   0  0  0  0  0  0  0  0  0  0  0  0
   31.7510   27.5550   49.4610 H   0  0  0  0  0  0  0  0  0  0  0  0
   31.0990   26.0260   48.7560 H   0  0  0  0  0  0  0  0  0  0  0  0
   30.5280   27.6240   48.1800 H   0  0  0  0  0  0  0  0  0  0  0  0
   31.8900   27.3430   46.1990 C   0  0  0  0  0  0  0  0  0  0  0  0
   32.4850   27.1930   45.3020 H   0  0  0  0  0  0  0  0  0  0  0  0
   31.7540   28.4810   46.2490 H   0  0  0  0  0  0  0  0  0  0  0  0
   30.8460   26.9680   46.1770 H   0  0  0  0  0  0  0  0  0  0  0  0
   33.0940   25.6170   47.4640 C   0  0  0  0  0  0  0  0  0  0  0  0
   32.7380   25.1220   48.4130 H   0  0  0  0  0  0  0  0  0  0  0  0
   34.2040   25.7420   47.6640 H   0  0  0  0  0  0  0  0  0  0  0  0
   32.7990   24.8320   46.3140 N   0  0  0  0  0  0  0  0  0  0  0  0
   32.0490   23.6440   46.8010 C   0  0  0  0  0  2  0  0  0  0  0  0
   32.7210   23.0720   47.9860 C   0  0  0  0  0  2  0  0  0  0  0  0
   34.0710   22.8920   47.9020 O   0  0  0  0  0  0  0  0  0  0  0  0
   34.7440   23.4470   46.8670 C   0  0  0  0  0  2  0  0  0  0  0  0
   33.9990   24.1350   45.7970 C   0  0  0  0  0  2  0  0  0  0  0  0
  1  2  1  0  0  0  0
  2  9  1  0  0  0  0
  2  3  2  0  0  0  0
  3  8  1  0  0  0  0
  4  3  1  0  0  0  0
  5  4  2  0  0  0  0
  6  1  2  0  0  0  0
  6  5  1  0  0  0  0
  7  1  1  0  0  0  0
  9 10  1  0  0  0  0
 10 18  1  0  0  0  0
 11 10  2  0  0  0  0
 12 11  1  0  0  0  0
 13 20  1  0  0  0  0
 13 12  2  0  0  0  0
 14 13  1  0  0  0  0
 15 16  1  0  0  0  0
 15 14  2  0  0  0  0
 16 17  2  0  0  0  0
 17 12  1  0  0  0  0
 17  9  1  0  0  0  0
 19 15  1  0  0  0  0
 20 22  1  0  0  0  0
 21 20  1  0  0  0  0
 23  5  1  0  0  0  0
 23 24  1  0  0  0  0
 24 26  1  0  0  0  0
 24 25  1  0  0  0  0
 27 24  1  0  0  0  0
 28 30  1  0  0  0  0
 28 23  1  0  0  0  0
 29 28  1  0  0  0  0
 31 28  1  0  0  0  0
 32 23  1  0  0  0  0
 32 34  1  0  0  0  0
 32 33  1  0  0  0  0
 35 36  1  0  0  0  0
 35 32  1  0  0  0  0
 36 37  1  0  0  0  0
 38 37  1  0  0  0  0
 39 38  1  0  0  0  0
 40 35  1  0  0  0  0
 40 39  1  0  0  0  0
M  END
>  <minimizedAffinity>
-5.43789244

>  <minimizedRMSD>
0.806124389

$$$$
