
 OpenBabel03252514073D

 40 43  0  0  0  0  0  0  0  0999 V2000
   34.1740   30.1060   47.5760 C   0  0  0  0  0  0  0  0  0  0  0  0
   35.1560   29.8610   48.5640 C   0  0  0  0  0  0  0  0  0  0  0  0
   35.0490   28.6690   49.2900 C   0  0  0  0  0  0  0  0  0  0  0  0
   34.0260   27.8300   49.0060 N   0  0  0  0  0  0  0  0  0  0  0  0
   33.1030   28.0930   48.0550 C   0  0  0  0  0  0  0  0  0  0  0  0
   33.1780   29.2240   47.3450 N   0  0  0  0  0  0  0  0  0  0  0  0
   34.2330   31.0100   47.0100 H   0  0  0  0  0  0  0  0  0  0  0  0
   35.8090   28.5210   50.0250 H   0  0  0  0  0  0  0  0  0  0  0  0
   36.1750   30.8370   48.7420 N   0  0  0  0  0  0  0  0  0  0  0  0
   36.4060   31.4900   49.9030 C   0  0  0  0  0  0  0  0  0  0  0  0
   37.4420   32.3440   49.7190 N   0  0  0  0  0  0  0  0  0  0  0  0
   37.8370   32.2050   48.4410 C   0  0  0  0  0  0  0  0  0  0  0  0
   38.8280   32.8000   47.6940 C   0  0  0  0  0  0  0  0  0  0  0  0
   39.0220   32.4720   46.3990 N   0  0  0  0  0  0  0  0  0  0  0  0
   38.2450   31.5400   45.7770 C   0  0  0  0  0  0  0  0  0  0  0  0
   37.2830   30.9690   46.5240 N   0  0  0  0  0  0  0  0  0  0  0  0
   37.0540   31.2650   47.8190 C   0  0  0  0  0  0  0  0  0  0  0  0
   35.9170   31.4270   50.8690 H   0  0  0  0  0  0  0  0  0  0  0  0
   38.4270   31.3020   44.7380 H   0  0  0  0  0  0  0  0  0  0  0  0
   39.6670   33.7740   48.2760 N   0  0  0  0  0  0  0  0  0  0  0  0
   39.8070   33.9240   49.2880 H   0  0  0  0  0  0  0  0  0  0  0  0
   40.2400   34.4500   47.7120 H   0  0  0  0  0  0  0  0  0  0  0  0
   32.0110   27.1310   47.7870 C   0  0  0  0  0  0  0  0  0  0  0  0
   30.8900   27.3250   48.8100 C   0  0  0  0  0  0  0  0  0  0  0  0
   30.5430   26.3170   49.1190 H   0  0  0  0  0  0  0  0  0  0  0  0
   30.0340   27.8760   48.4180 H   0  0  0  0  0  0  0  0  0  0  0  0
   31.2890   27.8370   49.7280 H   0  0  0  0  0  0  0  0  0  0  0  0
   31.3460   27.4770   46.4400 C   0  0  0  0  0  0  0  0  0  0  0  0
   32.1030   27.5060   45.6390 H   0  0  0  0  0  0  0  0  0  0  0  0
   30.6020   26.6640   46.2870 H   0  0  0  0  0  0  0  0  0  0  0  0
   30.7990   28.4120   46.6060 H   0  0  0  0  0  0  0  0  0  0  0  0
   32.4160   25.7110   47.6840 C   0  0  0  0  0  0  0  0  0  0  0  0
   31.5110   25.0920   47.8920 H   0  0  0  0  0  0  0  0  0  0  0  0
   33.1780   25.4410   48.4710 H   0  0  0  0  0  0  0  0  0  0  0  0
   32.9020   25.3840   46.3840 N   0  0  0  0  0  0  0  0  0  0  0  0
   34.3010   25.2730   46.1970 C   0  0  0  0  0  2  0  0  0  0  0  0
   34.4840   24.5110   44.8660 C   0  0  0  0  0  2  0  0  0  0  0  0
   33.1030   24.0270   44.5330 C   0  0  0  0  0  2  0  0  0  0  0  0
   32.3450   24.1790   45.8390 C   0  0  0  0  0  3  0  0  0  0  0  0
   32.5680   23.2790   46.4480 H   0  0  0  0  0  0  0  0  0  0  0  0
  1  2  1  0  0  0  0
  2  9  1  0  0  0  0
  2  3  2  0  0  0  0
  3  8  1  0  0  0  0
  4  3  1  0  0  0  0
  5  4  2  0  0  0  0
  6  1  2  0  0  0  0
  6  5  1  0  0  0  0
  7  1  1  0  0  0  0
  9 10  1  0  0  0  0
 10 18  1  0  0  0  0
 11 10  2  0  0  0  0
 12 11  1  0  0  0  0
 13 20  1  0  0  0  0
 13 12  2  0  0  0  0
 14 13  1  0  0  0  0
 15 14  2  0  0  0  0
 15 16  1  0  0  0  0
 16 17  2  0  0  0  0
 17 12  1  0  0  0  0
 17  9  1  0  0  0  0
 19 15  1  0  0  0  0
 20 21  1  0  0  0  0
 22 20  1  0  0  0  0
 23  5  1  0  0  0  0
 23 24  1  0  0  0  0
 24 25  1  0  0  0  0
 24 27  1  0  0  0  0
 26 24  1  0  0  0  0
 28 31  1  0  0  0  0
 28 23  1  0  0  0  0
 29 28  1  0  0  0  0
 30 28  1  0  0  0  0
 32 23  1  0  0  0  0
 32 33  1  0  0  0  0
 32 34  1  0  0  0  0
 35 32  1  0  0  0  0
 36 35  1  0  0  0  0
 37 36  1  0  0  0  0
 38 37  1  0  0  0  0
 38 39  1  0  0  0  0
 39 35  1  0  0  0  0
 39 40  1  0  0  0  0
M  END
>  <minimizedAffinity>
-5.23038054

>  <minimizedRMSD>
1.1139431

$$$$
