
 OpenBabel03252513063D

 34 36  0  0  0  0  0  0  0  0999 V2000
   39.8030   31.5810   45.3030 C   0  0  0  0  0  0  0  0  0  0  0  0
   39.0050   30.8890   45.6770 H   0  0  0  0  0  0  0  0  0  0  0  0
   40.7530   30.9730   45.3700 H   0  0  0  0  0  0  0  0  0  0  0  0
   39.5730   31.8300   43.9340 N   0  0  0  0  0  0  0  0  0  0  0  0
   38.7950   32.7470   43.3700 C   0  0  0  0  0  0  0  0  0  0  0  0
   38.6300   32.9190   42.0180 C   0  0  0  0  0  0  0  0  0  0  0  0
   39.3070   32.1000   41.1460 C   0  0  0  0  0  0  0  0  0  0  0  0
   39.2040   32.2010   39.9090 O   0  0  0  0  0  0  0  0  0  0  0  0
   40.0790   31.1900   41.6890 N   0  0  0  0  0  0  0  0  0  0  0  0
   40.2260   31.0370   43.0100 C   0  0  0  0  0  0  0  0  0  0  0  0
   40.9960   30.1290   43.4250 O   0  0  0  0  0  0  0  0  0  0  0  0
   38.2560   33.3990   44.0620 H   0  0  0  0  0  0  0  0  0  0  0  0
   37.9700   33.6990   41.6590 H   0  0  0  0  0  0  0  0  0  0  0  0
   40.8150   30.2990   40.7940 C   0  0  0  0  0  0  0  0  0  0  0  0
   41.8590   29.6950   41.4730 F   0  0  0  0  0  0  0  0  0  0  0  0
   41.3630   31.1080   39.7920 F   0  0  0  0  0  0  0  0  0  0  0  0
   39.9440   29.4050   40.2630 F   0  0  0  0  0  0  0  0  0  0  0  0
   39.9300   32.7070   46.2370 C   0  0  0  0  0  0  0  0  0  0  0  0
   39.6080   33.6390   45.6950 H   0  0  0  0  0  0  0  0  0  0  0  0
   40.9950   32.8940   46.5250 H   0  0  0  0  0  0  0  0  0  0  0  0
   38.2980   33.4220   49.5730 C   0  0  0  0  0  0  0  0  0  0  0  0
   39.1310   33.5460   48.4420 C   0  0  0  0  0  0  0  0  0  0  0  0
   39.0820   32.6180   47.4330 C   0  0  0  0  0  0  0  0  0  0  0  0
   38.2060   31.5830   47.5680 N   0  0  0  0  0  0  0  0  0  0  0  0
   37.4280   31.4760   48.6380 C   0  0  0  0  0  0  0  0  0  0  0  0
   37.4440   32.3520   49.6360 N   0  0  0  0  0  0  0  0  0  0  0  0
   38.3820   34.1850   50.3350 H   0  0  0  0  0  0  0  0  0  0  0  0
   39.8200   34.3880   48.3650 H   0  0  0  0  0  0  0  0  0  0  0  0
   36.5360   30.3680   48.7130 N   0  0  0  0  0  0  0  0  0  0  0  0
   35.2920   30.0990   48.0310 C   0  0  0  0  0  0  0  0  0  0  0  0
   34.3340   29.5870   49.0990 C   0  0  0  0  0  0  0  0  0  0  0  0
   35.2670   29.1440   50.2120 C   0  0  0  0  0  0  0  0  0  0  0  0
   36.6100   29.1600   49.5080 C   0  0  0  0  0  0  0  0  0  0  0  0
   36.7200   28.2520   48.8850 H   0  0  0  0  0  0  0  0  0  0  0  0
  1  3  1  0  0  0  0
  1  2  1  0  0  0  0
  1 18  1  0  0  0  0
  4  1  1  0  0  0  0
  5  4  1  0  0  0  0
  5 12  1  0  0  0  0
  6  5  2  0  0  0  0
  7  9  1  0  0  0  0
  7  6  1  0  0  0  0
  8  7  2  0  0  0  0
  9 10  1  0  0  0  0
 10 11  2  0  0  0  0
 10  4  1  0  0  0  0
 13  6  1  0  0  0  0
 14 15  1  0  0  0  0
 14  9  1  0  0  0  0
 16 14  1  0  0  0  0
 17 14  1  0  0  0  0
 18 20  1  0  0  0  0
 18 23  1  0  0  0  0
 19 18  1  0  0  0  0
 21 26  1  0  0  0  0
 21 27  1  0  0  0  0
 22 21  2  0  0  0  0
 23 24  2  0  0  0  0
 23 22  1  0  0  0  0
 24 25  1  0  0  0  0
 25 29  1  0  0  0  0
 25 26  2  0  0  0  0
 28 22  1  0  0  0  0
 29 33  1  0  0  0  0
 30 29  1  0  0  0  0
 30 31  1  0  0  0  0
 31 32  1  0  0  0  0
 33 32  1  0  0  0  0
 34 33  1  0  0  0  0
M  END
>  <minimizedAffinity>
-6.11021948

>  <minimizedRMSD>
4.23281765

$$$$
