
 OpenBabel03252513363D

 25 26  0  0  0  0  0  0  0  0999 V2000
   36.9280   29.9450   49.8330 C   0  0  0  0  0  0  0  0  0  0  0  0
   38.0340   30.6610   49.3900 C   0  0  0  0  0  0  0  0  0  0  0  0
   38.0510   31.1070   48.0640 C   0  0  0  0  0  0  0  0  0  0  0  0
   36.9810   30.8120   47.2790 N   0  0  0  0  0  0  0  0  0  0  0  0
   35.9330   30.1150   47.7550 C   0  0  0  0  0  0  0  0  0  0  0  0
   35.9090   29.6890   49.0120 N   0  0  0  0  0  0  0  0  0  0  0  0
   39.1430   31.8360   47.5640 N   0  0  0  0  0  0  0  0  0  0  0  0
   39.0280   32.6210   46.3870 C   0  0  0  0  0  0  0  0  0  0  0  0
   37.9740   32.4650   45.6530 N   0  0  0  0  0  0  0  0  0  0  0  0
   40.0580   33.5370   46.0650 N   0  0  0  0  0  0  0  0  0  0  0  0
   37.9520   32.9620   44.7360 H   0  0  0  0  0  0  0  0  0  0  0  0
   38.8580   30.8690   50.0540 H   0  0  0  0  0  0  0  0  0  0  0  0
   40.0490   31.7850   48.0840 H   0  0  0  0  0  0  0  0  0  0  0  0
   40.5980   33.5690   45.1850 H   0  0  0  0  0  0  0  0  0  0  0  0
   40.3450   34.2840   46.7530 H   0  0  0  0  0  0  0  0  0  0  0  0
   34.8460   29.8420   46.8780 N   0  0  0  0  0  0  0  0  0  0  0  0
   34.9220   29.9880   45.4370 C   0  0  0  0  0  0  0  0  0  0  0  0
   33.5170   29.8940   44.9210 C   0  0  0  0  0  0  0  0  0  0  0  0
   32.6890   30.1340   46.1660 C   0  0  0  0  0  0  0  0  0  0  0  0
   33.5110   29.3870   47.2180 C   0  0  0  0  0  0  0  0  0  0  0  0
   33.3720   28.3110   47.1330 H   0  0  0  0  0  0  0  0  0  0  0  0
   36.8910   29.4580   51.2560 C   0  0  0  0  0  0  0  0  0  0  0  0
   35.5910   29.1560   51.6190 F   0  0  0  0  0  0  0  0  0  0  0  0
   37.7540   28.4150   51.3730 F   0  0  0  0  0  0  0  0  0  0  0  0
   37.3160   30.5290   52.0550 F   0  0  0  0  0  0  0  0  0  0  0  0
  1 22  1  0  0  0  0
  2  1  1  0  0  0  0
  2 12  1  0  0  0  0
  3  2  2  0  0  0  0
  4  5  2  0  0  0  0
  4  3  1  0  0  0  0
  5  6  1  0  0  0  0
  6  1  2  0  0  0  0
  7  3  1  0  0  0  0
  7 13  1  0  0  0  0
  8  7  1  0  0  0  0
  9  8  2  0  0  0  0
 10  8  1  0  0  0  0
 10 15  1  0  0  0  0
 11  9  1  0  0  0  0
 14 10  1  0  0  0  0
 16 20  1  0  0  0  0
 16  5  1  0  0  0  0
 17 16  1  0  0  0  0
 18 17  1  0  0  0  0
 18 19  1  0  0  0  0
 19 20  1  0  0  0  0
 21 20  1  0  0  0  0
 22 24  1  0  0  0  0
 22 23  1  0  0  0  0
 22 25  1  0  0  0  0
M  END
>  <minimizedAffinity>
-6.88847494

>  <minimizedRMSD>
0.14921023

$$$$
