
 OpenBabel03252514073D

 40 43  0  0  0  0  0  0  0  0999 V2000
   33.9620   29.8610   47.3240 C   0  0  0  0  0  0  0  0  0  0  0  0
   34.8880   29.6990   48.3790 C   0  0  0  0  0  0  0  0  0  0  0  0
   34.6620   28.6450   49.2730 C   0  0  0  0  0  0  0  0  0  0  0  0
   33.5830   27.8530   49.0760 N   0  0  0  0  0  0  0  0  0  0  0  0
   32.7150   28.0340   48.0570 C   0  0  0  0  0  0  0  0  0  0  0  0
   32.9050   29.0320   47.1860 N   0  0  0  0  0  0  0  0  0  0  0  0
   34.1120   30.6590   46.6300 H   0  0  0  0  0  0  0  0  0  0  0  0
   35.3840   28.5560   50.0540 H   0  0  0  0  0  0  0  0  0  0  0  0
   35.9780   30.6090   48.4510 N   0  0  0  0  0  0  0  0  0  0  0  0
   36.3570   31.2530   49.5790 C   0  0  0  0  0  0  0  0  0  0  0  0
   37.4220   32.0390   49.2890 N   0  0  0  0  0  0  0  0  0  0  0  0
   37.6860   31.8700   47.9810 C   0  0  0  0  0  0  0  0  0  0  0  0
   38.6360   32.3990   47.1380 C   0  0  0  0  0  0  0  0  0  0  0  0
   38.6860   32.0550   45.8340 N   0  0  0  0  0  0  0  0  0  0  0  0
   37.7990   31.1700   45.2980 C   0  0  0  0  0  0  0  0  0  0  0  0
   36.8780   30.6630   46.1370 N   0  0  0  0  0  0  0  0  0  0  0  0
   36.7910   30.9780   47.4440 C   0  0  0  0  0  0  0  0  0  0  0  0
   35.9590   31.2240   50.5860 H   0  0  0  0  0  0  0  0  0  0  0  0
   37.8660   30.9160   44.2490 H   0  0  0  0  0  0  0  0  0  0  0  0
   39.5850   33.3220   47.6290 N   0  0  0  0  0  0  0  0  0  0  0  0
   39.8280   33.4670   48.6220 H   0  0  0  0  0  0  0  0  0  0  0  0
   40.1430   33.9590   47.0060 H   0  0  0  0  0  0  0  0  0  0  0  0
   31.5570   27.1280   47.8900 C   0  0  0  0  0  0  0  0  0  0  0  0
   30.6170   27.2670   49.0900 C   0  0  0  0  0  0  0  0  0  0  0  0
   30.2830   26.2460   49.3710 H   0  0  0  0  0  0  0  0  0  0  0  0
   29.7340   27.8720   48.8830 H   0  0  0  0  0  0  0  0  0  0  0  0
   31.1740   27.6890   49.9710 H   0  0  0  0  0  0  0  0  0  0  0  0
   30.7040   27.6030   46.6970 C   0  0  0  0  0  0  0  0  0  0  0  0
   31.3280   27.6780   45.7910 H   0  0  0  0  0  0  0  0  0  0  0  0
   29.9140   26.8260   46.6010 H   0  0  0  0  0  0  0  0  0  0  0  0
   30.2280   28.5360   47.0200 H   0  0  0  0  0  0  0  0  0  0  0  0
   31.8840   25.7110   47.6140 C   0  0  0  0  0  0  0  0  0  0  0  0
   31.0010   25.2610   47.1000 H   0  0  0  0  0  0  0  0  0  0  0  0
   32.0300   25.1280   48.5690 H   0  0  0  0  0  0  0  0  0  0  0  0
   33.0220   25.5780   46.7660 N   0  0  0  0  0  0  0  0  0  0  0  0
   34.0590   24.7010   47.1630 C   0  0  0  0  0  2  0  0  0  0  0  0
   34.8990   24.4470   45.8910 C   0  0  0  0  0  2  0  0  0  0  0  0
   34.0730   25.0390   44.7880 C   0  0  0  0  0  2  0  0  0  0  0  0
   32.7020   25.2080   45.4160 C   0  0  0  0  0  3  0  0  0  0  0  0
   32.1900   24.2280   45.3400 H   0  0  0  0  0  0  0  0  0  0  0  0
  1  2  1  0  0  0  0
  2  9  1  0  0  0  0
  2  3  2  0  0  0  0
  3  8  1  0  0  0  0
  4  3  1  0  0  0  0
  5  4  2  0  0  0  0
  6  1  2  0  0  0  0
  6  5  1  0  0  0  0
  7  1  1  0  0  0  0
  9 10  1  0  0  0  0
 10 18  1  0  0  0  0
 11 10  2  0  0  0  0
 12 11  1  0  0  0  0
 13 20  1  0  0  0  0
 13 12  2  0  0  0  0
 14 13  1  0  0  0  0
 15 14  2  0  0  0  0
 15 16  1  0  0  0  0
 16 17  2  0  0  0  0
 17 12  1  0  0  0  0
 17  9  1  0  0  0  0
 19 15  1  0  0  0  0
 20 21  1  0  0  0  0
 22 20  1  0  0  0  0
 23  5  1  0  0  0  0
 23 24  1  0  0  0  0
 24 25  1  0  0  0  0
 24 27  1  0  0  0  0
 26 24  1  0  0  0  0
 28 31  1  0  0  0  0
 28 23  1  0  0  0  0
 29 28  1  0  0  0  0
 30 28  1  0  0  0  0
 32 23  1  0  0  0  0
 32 34  1  0  0  0  0
 33 32  1  0  0  0  0
 35 36  1  0  0  0  0
 35 32  1  0  0  0  0
 37 36  1  0  0  0  0
 38 39  1  0  0  0  0
 38 37  1  0  0  0  0
 39 35  1  0  0  0  0
 40 39  1  0  0  0  0
M  END
>  <minimizedAffinity>
-5.27166796

>  <minimizedRMSD>
1.31959081

$$$$
