
 OpenBabel03252512283D

 30 31  0  0  1  0  0  0  0  0999 V2000
   35.1360   29.3990   48.5440 C   0  0  0  0  0  0  0  0  0  0  0  0
   34.7220   28.2000   49.1340 C   0  0  0  0  0  0  0  0  0  0  0  0
   33.6200   27.6160   48.6100 C   0  0  0  0  0  0  0  0  0  0  0  0
   33.0030   28.1890   47.5950 C   0  0  0  0  0  0  0  0  0  0  0  0
   33.9340   29.7130   47.2110 S   0  0  0  0  0  0  0  0  0  0  0  0
   35.3300   27.8340   49.9750 H   0  0  0  0  0  0  0  0  0  0  0  0
   33.2360   26.6810   49.0150 H   0  0  0  0  0  0  0  0  0  0  0  0
   37.9320   30.7810   50.4880 C   0  0  0  0  0  0  0  0  0  0  0  0
   38.4640   31.7620   49.6380 C   0  0  0  0  0  0  0  0  0  0  0  0
   37.8510   31.9390   48.4000 C   0  0  0  0  0  0  0  0  0  0  0  0
   36.7810   31.1570   48.0890 N   0  0  0  0  0  0  0  0  0  0  0  0
   36.3170   30.2520   48.9150 C   0  0  0  0  0  0  0  0  0  0  0  0
   36.8570   30.0140   50.1450 N   0  0  0  0  0  0  0  0  0  0  0  0
   38.3390   30.5700   51.4700 H   0  0  0  0  0  0  0  0  0  0  0  0
   39.3180   32.3300   49.9810 H   0  0  0  0  0  0  0  0  0  0  0  0
   38.2370   32.6790   47.7330 H   0  0  0  0  0  0  0  0  0  0  0  0
   31.8130   27.7850   46.8210 C   0  0  2  0  0  0  0  0  0  0  0  0
   31.8110   26.6620   46.7940 H   0  0  0  0  0  0  0  0  0  0  0  0
   31.8850   28.3230   45.4650 C   0  0  0  0  0  0  0  0  0  0  0  0
   31.5700   29.3860   45.3870 H   0  0  0  0  0  0  0  0  0  0  0  0
   31.2180   27.7000   44.8000 H   0  0  0  0  0  0  0  0  0  0  0  0
   32.9000   28.2070   45.0720 H   0  0  0  0  0  0  0  0  0  0  0  0
   30.5780   28.1560   47.6070 C   0  0  0  0  0  0  0  0  0  0  0  0
   30.6930   29.1460   48.1240 H   0  0  0  0  0  0  0  0  0  0  0  0
   29.7810   28.3410   46.8520 H   0  0  0  0  0  0  0  0  0  0  0  0
   30.1660   27.2000   48.4690 O   0  0  0  0  0  0  0  0  0  0  0  0
   29.7490   27.6210   49.7080 C   0  0  0  0  0  0  0  0  0  0  0  0
   28.7160   28.5290   49.6080 F   0  0  0  0  0  0  0  0  0  0  0  0
   29.4640   26.5830   50.5500 F   0  0  0  0  0  0  0  0  0  0  0  0
   30.8200   28.3350   50.2650 F   0  0  0  0  0  0  0  0  0  0  0  0
  1 12  1  0  0  0  0
  1  2  2  0  0  0  0
  2  6  1  0  0  0  0
  3  7  1  0  0  0  0
  3  2  1  0  0  0  0
  4  3  2  0  0  0  0
  5  4  1  0  0  0  0
  5  1  1  0  0  0  0
  8 14  1  0  0  0  0
  9 15  1  0  0  0  0
  9  8  2  0  0  0  0
 10  9  1  0  0  0  0
 11 10  2  0  0  0  0
 11 12  1  0  0  0  0
 12 13  2  0  0  0  0
 13  8  1  0  0  0  0
 16 10  1  0  0  0  0
 17 18  1  6  0  0  0
 17  4  1  0  0  0  0
 17 23  1  0  0  0  0
 19 17  1  0  0  0  0
 20 19  1  0  0  0  0
 21 19  1  0  0  0  0
 22 19  1  0  0  0  0
 23 24  1  0  0  0  0
 23 26  1  0  0  0  0
 25 23  1  0  0  0  0
 26 27  1  0  0  0  0
 27 30  1  0  0  0  0
 27 29  1  0  0  0  0
 28 27  1  0  0  0  0
M  END
>  <minimizedAffinity>
-4.99944496

>  <minimizedRMSD>
1.73301196

$$$$
