
 OpenBabel03252513323D

 18 19  0  0  0  0  0  0  0  0999 V2000
   36.8020   29.9710   49.3840 C   0  0  0  0  0  0  0  0  0  0  0  0
   37.9550   30.4980   48.7650 C   0  0  0  0  0  0  0  0  0  0  0  0
   37.8730   30.8770   47.4310 C   0  0  0  0  0  0  0  0  0  0  0  0
   36.6920   30.7200   46.7970 N   0  0  0  0  0  0  0  0  0  0  0  0
   35.5870   30.2100   47.4100 C   0  0  0  0  0  0  0  0  0  0  0  0
   35.6550   29.8420   48.6960 N   0  0  0  0  0  0  0  0  0  0  0  0
   38.8580   30.5870   49.3500 H   0  0  0  0  0  0  0  0  0  0  0  0
   34.6530   30.1020   46.8610 H   0  0  0  0  0  0  0  0  0  0  0  0
   38.9830   31.4030   46.7700 N   0  0  0  0  0  0  0  0  0  0  0  0
   39.5410   32.7350   46.9140 C   0  0  0  0  0  0  0  0  0  0  0  0
   39.7600   33.0910   45.4380 C   0  0  0  0  0  0  0  0  0  0  0  0
   40.4040   31.8100   44.9540 C   0  0  0  0  0  0  0  0  0  0  0  0
   39.8060   30.7000   45.7940 C   0  0  0  0  0  0  0  0  0  0  0  0
   40.5950   30.1790   46.3730 H   0  0  0  0  0  0  0  0  0  0  0  0
   36.8890   29.5590   50.8240 C   0  0  0  0  0  0  0  0  0  0  0  0
   35.6460   29.2100   51.2840 F   0  0  0  0  0  0  0  0  0  0  0  0
   37.8090   28.5430   50.9040 F   0  0  0  0  0  0  0  0  0  0  0  0
   37.3370   30.6530   51.5410 F   0  0  0  0  0  0  0  0  0  0  0  0
  1 15  1  0  0  0  0
  2  7  1  0  0  0  0
  2  1  1  0  0  0  0
  3  2  2  0  0  0  0
  4  5  2  0  0  0  0
  4  3  1  0  0  0  0
  5  6  1  0  0  0  0
  6  1  2  0  0  0  0
  8  5  1  0  0  0  0
  9 10  1  0  0  0  0
  9  3  1  0  0  0  0
 11 10  1  0  0  0  0
 12 11  1  0  0  0  0
 12 13  1  0  0  0  0
 13 14  1  0  0  0  0
 13  9  1  0  0  0  0
 15 17  1  0  0  0  0
 15 16  1  0  0  0  0
 15 18  1  0  0  0  0
M  END
>  <minimizedAffinity>
-5.75919151

>  <minimizedRMSD>
2.23833346

$$$$
