
 OpenBabel03252513413D

 19 20  0  0  0  0  0  0  0  0999 V2000
   37.3570   30.2080   49.1820 C   0  0  0  0  0  0  0  0  0  0  0  0
   37.6680   31.1590   50.1920 C   0  0  0  0  0  0  0  0  0  0  0  0
   38.4300   32.2630   49.8380 C   0  0  0  0  0  0  0  0  0  0  0  0
   38.8470   32.3870   48.5400 N   0  0  0  0  0  0  0  0  0  0  0  0
   38.5310   31.4670   47.6230 C   0  0  0  0  0  0  0  0  0  0  0  0
   37.7980   30.3920   47.9330 N   0  0  0  0  0  0  0  0  0  0  0  0
   37.3510   31.0860   51.2240 H   0  0  0  0  0  0  0  0  0  0  0  0
   38.7160   33.0340   50.5260 H   0  0  0  0  0  0  0  0  0  0  0  0
   39.0070   31.6750   46.2960 N   0  0  0  0  0  0  0  0  0  0  0  0
   40.2820   31.1850   45.8030 C   0  0  0  0  0  0  0  0  0  0  0  0
   40.6800   32.1640   44.7110 C   0  0  0  0  0  0  0  0  0  0  0  0
   39.5710   33.1940   44.6660 C   0  0  0  0  0  0  0  0  0  0  0  0
   38.3910   32.3730   45.1820 C   0  0  0  0  0  0  0  0  0  0  0  0
   38.1210   31.6390   44.4040 H   0  0  0  0  0  0  0  0  0  0  0  0
   36.6040   29.1250   49.5460 O   0  0  0  0  0  0  0  0  0  0  0  0
   35.3650   29.1900   50.2050 C   0  0  0  0  0  0  0  0  0  0  0  0
   35.4760   29.1620   51.5830 F   0  0  0  0  0  0  0  0  0  0  0  0
   34.5830   30.2480   49.8100 F   0  0  0  0  0  0  0  0  0  0  0  0
   34.6770   28.0300   49.8390 F   0  0  0  0  0  0  0  0  0  0  0  0
  1 15  1  0  0  0  0
  1  2  1  0  0  0  0
  2  7  1  0  0  0  0
  3  2  2  0  0  0  0
  3  8  1  0  0  0  0
  4  3  1  0  0  0  0
  5  6  1  0  0  0  0
  5  4  2  0  0  0  0
  6  1  2  0  0  0  0
  9  5  1  0  0  0  0
 10  9  1  0  0  0  0
 11 10  1  0  0  0  0
 12 11  1  0  0  0  0
 12 13  1  0  0  0  0
 13  9  1  0  0  0  0
 14 13  1  0  0  0  0
 15 16  1  0  0  0  0
 16 17  1  0  0  0  0
 18 16  1  0  0  0  0
 19 16  1  0  0  0  0
M  END
>  <minimizedAffinity>
-6.10730457

>  <minimizedRMSD>
1.40580809

$$$$
