
 OpenBabel03252514073D

 42 44  0  0  0  0  0  0  0  0999 V2000
   34.3520   30.0710   47.3940 C   0  0  0  0  0  0  0  0  0  0  0  0
   35.2840   29.8370   48.4330 C   0  0  0  0  0  0  0  0  0  0  0  0
   35.2020   28.6000   49.0430 C   0  0  0  0  0  0  0  0  0  0  0  0
   34.2730   27.7040   48.6360 N   0  0  0  0  0  0  0  0  0  0  0  0
   33.4010   27.9480   47.6520 C   0  0  0  0  0  0  0  0  0  0  0  0
   33.4520   29.1470   47.0320 N   0  0  0  0  0  0  0  0  0  0  0  0
   34.3190   31.0190   46.8340 H   0  0  0  0  0  0  0  0  0  0  0  0
   35.9140   28.4330   49.8290 H   0  0  0  0  0  0  0  0  0  0  0  0
   36.1940   30.8680   48.7480 N   0  0  0  0  0  0  0  0  0  0  0  0
   36.1700   31.5600   49.9240 C   0  0  0  0  0  0  0  0  0  0  0  0
   37.1680   32.4700   49.9070 N   0  0  0  0  0  0  0  0  0  0  0  0
   37.8010   32.3330   48.7210 C   0  0  0  0  0  0  0  0  0  0  0  0
   38.8750   32.9760   48.1470 C   0  0  0  0  0  0  0  0  0  0  0  0
   39.3110   32.6300   46.9170 N   0  0  0  0  0  0  0  0  0  0  0  0
   38.7140   31.6480   46.2080 C   0  0  0  0  0  0  0  0  0  0  0  0
   37.6680   31.0290   46.7780 N   0  0  0  0  0  0  0  0  0  0  0  0
   37.1950   31.3270   47.9860 C   0  0  0  0  0  0  0  0  0  0  0  0
   35.5180   31.4820   50.7840 H   0  0  0  0  0  0  0  0  0  0  0  0
   39.0690   31.3760   45.2200 H   0  0  0  0  0  0  0  0  0  0  0  0
   39.5310   34.0060   48.8490 N   0  0  0  0  0  0  0  0  0  0  0  0
   39.0320   34.5600   49.6070 H   0  0  0  0  0  0  0  0  0  0  0  0
   40.5260   34.2780   48.6620 H   0  0  0  0  0  0  0  0  0  0  0  0
   32.3890   26.9570   47.2230 C   0  0  0  0  0  0  0  0  0  0  0  0
   31.4260   26.6880   48.3680 C   0  0  0  0  0  0  0  0  0  0  0  0
   31.9600   26.4560   49.3090 H   0  0  0  0  0  0  0  0  0  0  0  0
   30.6360   25.9840   48.0870 H   0  0  0  0  0  0  0  0  0  0  0  0
   30.8750   27.6500   48.6030 H   0  0  0  0  0  0  0  0  0  0  0  0
   31.5080   27.5640   46.1150 C   0  0  0  0  0  0  0  0  0  0  0  0
   30.5000   27.0960   46.1140 H   0  0  0  0  0  0  0  0  0  0  0  0
   31.3720   28.6260   46.4450 H   0  0  0  0  0  0  0  0  0  0  0  0
   31.9810   27.4900   45.1310 H   0  0  0  0  0  0  0  0  0  0  0  0
   32.9710   25.7200   46.6360 C   0  0  0  0  0  0  0  0  0  0  0  0
   32.0920   25.0700   46.3400 H   0  0  0  0  0  0  0  0  0  0  0  0
   33.4910   25.9320   45.6730 H   0  0  0  0  0  0  0  0  0  0  0  0
   33.7940   24.9400   47.5280 N   0  0  0  0  0  0  0  0  0  0  0  0
   34.3470   23.6620   47.2690 C   0  0  0  0  0  0  0  0  0  0  0  0
   34.6020   23.4300   46.0120 N   0  0  0  0  0  0  0  0  0  0  0  0
   34.6210   22.6930   48.2720 N   0  0  0  0  0  0  0  0  0  0  0  0
   34.0040   25.3710   48.4790 H   0  0  0  0  0  0  0  0  0  0  0  0
   35.0090   22.5340   45.6900 H   0  0  0  0  0  0  0  0  0  0  0  0
   35.6030   22.3130   48.1510 H   0  0  0  0  0  0  0  0  0  0  0  0
   34.0970   22.2880   49.0670 H   0  0  0  0  0  0  0  0  0  0  0  0
  1  2  1  0  0  0  0
  2  9  1  0  0  0  0
  2  3  2  0  0  0  0
  3  8  1  0  0  0  0
  4  3  1  0  0  0  0
  5  4  2  0  0  0  0
  6  1  2  0  0  0  0
  6  5  1  0  0  0  0
  7  1  1  0  0  0  0
  9 10  1  0  0  0  0
 10 18  1  0  0  0  0
 11 10  2  0  0  0  0
 12 11  1  0  0  0  0
 13 12  1  0  0  0  0
 13 20  1  0  0  0  0
 14 13  2  0  0  0  0
 15 16  2  0  0  0  0
 15 14  1  0  0  0  0
 16 17  1  0  0  0  0
 17 12  2  0  0  0  0
 17  9  1  0  0  0  0
 19 15  1  0  0  0  0
 20 21  1  0  0  0  0
 22 20  1  0  0  0  0
 23  5  1  0  0  0  0
 23 24  1  0  0  0  0
 24 27  1  0  0  0  0
 24 25  1  0  0  0  0
 26 24  1  0  0  0  0
 28 30  1  0  0  0  0
 28 23  1  0  0  0  0
 29 28  1  0  0  0  0
 31 28  1  0  0  0  0
 32 23  1  0  0  0  0
 32 35  1  0  0  0  0
 33 32  1  0  0  0  0
 34 32  1  0  0  0  0
 35 39  1  0  0  0  0
 36 35  1  0  0  0  0
 36 38  1  0  0  0  0
 37 36  2  0  0  0  0
 38 42  1  0  0  0  0
 40 37  1  0  0  0  0
 41 38  1  0  0  0  0
M  END
>  <minimizedAffinity>
-5.11994267

>  <minimizedRMSD>
0.764918149

$$$$
