
 OpenBabel03252514033D

 37 39  0  0  1  0  0  0  0  0999 V2000
   35.1220   29.2390   48.8090 C   0  0  2  0  0  0  0  0  0  0  0  0
   34.0150   29.2950   49.7570 C   0  0  0  0  0  0  0  0  0  0  0  0
   34.3030   27.9840   49.2540 C   0  0  1  0  0  0  0  0  0  0  0  0
   34.9790   29.5710   47.7790 H   0  0  0  0  0  0  0  0  0  0  0  0
   34.2750   29.4860   50.8370 H   0  0  0  0  0  0  0  0  0  0  0  0
   33.0590   29.8200   49.4850 H   0  0  0  0  0  0  0  0  0  0  0  0
   34.9240   27.2060   49.6980 H   0  0  0  0  0  0  0  0  0  0  0  0
   36.5350   29.1970   49.4130 C   0  0  0  0  0  0  0  0  0  0  0  0
   37.0810   28.3120   49.0610 H   0  0  0  0  0  0  0  0  0  0  0  0
   36.4480   29.1070   50.5110 H   0  0  0  0  0  0  0  0  0  0  0  0
   37.5470   32.7030   49.6010 C   0  0  0  0  0  0  0  0  0  0  0  0
   38.4310   32.8270   48.5090 C   0  0  0  0  0  0  0  0  0  0  0  0
   38.6620   31.6770   47.7180 C   0  0  0  0  0  0  0  0  0  0  0  0
   38.0200   30.5180   48.0570 N   0  0  0  0  0  0  0  0  0  0  0  0
   37.1920   30.4570   49.1030 C   0  0  0  0  0  0  0  0  0  0  0  0
   36.9590   31.5570   49.8730 N   0  0  0  0  0  0  0  0  0  0  0  0
   37.4500   33.6390   50.1250 H   0  0  0  0  0  0  0  0  0  0  0  0
   38.9790   33.6830   48.1620 H   0  0  0  0  0  0  0  0  0  0  0  0
   39.3200   31.6710   46.8640 H   0  0  0  0  0  0  0  0  0  0  0  0
   33.3160   27.4510   48.2340 C   0  0  0  0  0  0  0  0  0  0  0  0
   33.6180   26.2660   47.8050 O   0  0  0  0  0  0  0  0  0  0  0  0
   32.1770   28.0970   47.7560 O   0  0  0  0  0  0  0  0  0  0  0  0
   30.9220   27.8610   48.2580 C   0  0  0  0  0  0  0  0  0  0  0  0
   30.5200   27.9990   49.6790 C   0  0  0  0  0  0  0  0  0  0  0  0
   29.2380   27.7270   49.9910 C   0  0  0  0  0  0  0  0  0  0  0  0
   28.2980   27.3300   49.0400 C   0  0  0  0  0  0  0  0  0  0  0  0
   29.2870   27.3130   47.4680 S   0  0  0  0  0  0  0  0  0  0  0  0
   31.2930   28.3050   50.3390 H   0  0  0  0  0  0  0  0  0  0  0  0
   28.9130   27.8080   51.0160 H   0  0  0  0  0  0  0  0  0  0  0  0
   27.0060   27.0130   48.9890 N   0  0  0  0  0  0  0  0  0  0  0  0
   26.0220   27.9250   48.5210 C   0  0  0  0  0  0  0  0  0  0  0  0
   26.2610   28.5670   47.4510 N   0  0  0  0  0  0  0  0  0  0  0  0
   24.7740   28.1530   49.1780 N   0  0  0  0  0  0  0  0  0  0  0  0
   26.6190   26.0730   49.2980 H   0  0  0  0  0  0  0  0  0  0  0  0
   27.1040   28.5190   46.8500 H   0  0  0  0  0  0  0  0  0  0  0  0
   24.3440   28.9730   49.6590 H   0  0  0  0  0  0  0  0  0  0  0  0
   23.9970   27.4630   49.2990 H   0  0  0  0  0  0  0  0  0  0  0  0
  1  4  1  6  0  0  0
  1  3  1  0  0  0  0
  1  8  1  0  0  0  0
  1  2  1  0  0  0  0
  2  5  1  0  0  0  0
  3  7  1  1  0  0  0
  3  2  1  0  0  0  0
  6  2  1  0  0  0  0
  8 10  1  0  0  0  0
  9  8  1  0  0  0  0
 11 16  1  0  0  0  0
 11 17  1  0  0  0  0
 12 11  2  0  0  0  0
 13 14  2  0  0  0  0
 13 12  1  0  0  0  0
 14 15  1  0  0  0  0
 15  8  1  0  0  0  0
 15 16  2  0  0  0  0
 18 12  1  0  0  0  0
 19 13  1  0  0  0  0
 20  3  1  0  0  0  0
 21 20  2  0  0  0  0
 22 20  1  0  0  0  0
 22 23  1  0  0  0  0
 23 24  2  0  0  0  0
 24 25  1  0  0  0  0
 24 28  1  0  0  0  0
 25 29  1  0  0  0  0
 26 25  2  0  0  0  0
 27 23  1  0  0  0  0
 27 26  1  0  0  0  0
 30 26  1  0  0  0  0
 30 34  1  0  0  0  0
 31 30  1  0  0  0  0
 31 33  1  0  0  0  0
 32 31  2  0  0  0  0
 33 37  1  0  0  0  0
 33 36  1  0  0  0  0
 35 32  1  0  0  0  0
M  END
>  <minimizedAffinity>
-6.48865891

>  <minimizedRMSD>
0.732779026

$$$$
