
 OpenBabel03252514073D

 42 44  0  0  0  0  0  0  0  0999 V2000
   34.1930   30.0120   47.4180 C   0  0  0  0  0  0  0  0  0  0  0  0
   35.1120   29.7040   48.4480 C   0  0  0  0  0  0  0  0  0  0  0  0
   35.0240   28.4270   48.9680 C   0  0  0  0  0  0  0  0  0  0  0  0
   34.0990   27.5630   48.4870 N   0  0  0  0  0  0  0  0  0  0  0  0
   33.2400   27.8770   47.5130 C   0  0  0  0  0  0  0  0  0  0  0  0
   33.2980   29.1170   46.9810 N   0  0  0  0  0  0  0  0  0  0  0  0
   34.1670   30.9980   46.9270 H   0  0  0  0  0  0  0  0  0  0  0  0
   35.7260   28.2050   49.7480 H   0  0  0  0  0  0  0  0  0  0  0  0
   36.0190   30.7100   48.8470 N   0  0  0  0  0  0  0  0  0  0  0  0
   35.9860   31.3100   50.0730 C   0  0  0  0  0  0  0  0  0  0  0  0
   36.9820   32.2200   50.1320 N   0  0  0  0  0  0  0  0  0  0  0  0
   37.6230   32.1760   48.9430 C   0  0  0  0  0  0  0  0  0  0  0  0
   38.6980   32.8620   48.4250 C   0  0  0  0  0  0  0  0  0  0  0  0
   39.1430   32.6120   47.1760 N   0  0  0  0  0  0  0  0  0  0  0  0
   38.5520   31.6860   46.3900 C   0  0  0  0  0  0  0  0  0  0  0  0
   37.5040   31.0230   46.9040 N   0  0  0  0  0  0  0  0  0  0  0  0
   37.0240   31.2280   48.1280 C   0  0  0  0  0  0  0  0  0  0  0  0
   35.3290   31.1650   50.9200 H   0  0  0  0  0  0  0  0  0  0  0  0
   38.9130   31.4910   45.3860 H   0  0  0  0  0  0  0  0  0  0  0  0
   39.3480   33.8370   49.2080 N   0  0  0  0  0  0  0  0  0  0  0  0
   38.8430   34.3300   50.0040 H   0  0  0  0  0  0  0  0  0  0  0  0
   40.3440   34.1240   49.0490 H   0  0  0  0  0  0  0  0  0  0  0  0
   32.2330   26.9200   47.0030 C   0  0  0  0  0  0  0  0  0  0  0  0
   31.4840   26.3000   48.1710 C   0  0  0  0  0  0  0  0  0  0  0  0
   32.1760   25.9090   48.9420 H   0  0  0  0  0  0  0  0  0  0  0  0
   30.7030   25.6080   47.8420 H   0  0  0  0  0  0  0  0  0  0  0  0
   30.9220   27.1230   48.7100 H   0  0  0  0  0  0  0  0  0  0  0  0
   31.1510   27.6790   46.2130 C   0  0  0  0  0  0  0  0  0  0  0  0
   30.1860   27.1290   46.2400 H   0  0  0  0  0  0  0  0  0  0  0  0
   31.0060   28.6180   46.8090 H   0  0  0  0  0  0  0  0  0  0  0  0
   31.4630   27.8830   45.1830 H   0  0  0  0  0  0  0  0  0  0  0  0
   32.7860   25.9160   46.0540 C   0  0  0  0  0  0  0  0  0  0  0  0
   31.9850   25.1240   45.9330 H   0  0  0  0  0  0  0  0  0  0  0  0
   32.9050   26.3440   45.0310 H   0  0  0  0  0  0  0  0  0  0  0  0
   33.9830   25.2430   46.4950 N   0  0  0  0  0  0  0  0  0  0  0  0
   34.9070   24.5380   45.6840 C   0  0  0  0  0  0  0  0  0  0  0  0
   34.9950   24.9800   44.4600 N   0  0  0  0  0  0  0  0  0  0  0  0
   35.6900   23.4430   46.1340 N   0  0  0  0  0  0  0  0  0  0  0  0
   34.1910   25.2790   47.5390 H   0  0  0  0  0  0  0  0  0  0  0  0
   35.6340   24.5530   43.7670 H   0  0  0  0  0  0  0  0  0  0  0  0
   36.7040   23.5830   45.8590 H   0  0  0  0  0  0  0  0  0  0  0  0
   35.5040   22.5670   46.6530 H   0  0  0  0  0  0  0  0  0  0  0  0
  1  2  1  0  0  0  0
  2  9  1  0  0  0  0
  2  3  2  0  0  0  0
  3  8  1  0  0  0  0
  4  3  1  0  0  0  0
  5  4  2  0  0  0  0
  6  1  2  0  0  0  0
  6  5  1  0  0  0  0
  7  1  1  0  0  0  0
  9 10  1  0  0  0  0
 10 11  2  0  0  0  0
 10 18  1  0  0  0  0
 12 11  1  0  0  0  0
 13 12  1  0  0  0  0
 13 20  1  0  0  0  0
 14 13  2  0  0  0  0
 15 16  2  0  0  0  0
 15 14  1  0  0  0  0
 16 17  1  0  0  0  0
 17  9  1  0  0  0  0
 17 12  2  0  0  0  0
 19 15  1  0  0  0  0
 20 21  1  0  0  0  0
 22 20  1  0  0  0  0
 23  5  1  0  0  0  0
 23 24  1  0  0  0  0
 24 27  1  0  0  0  0
 24 25  1  0  0  0  0
 26 24  1  0  0  0  0
 28 29  1  0  0  0  0
 28 30  1  0  0  0  0
 28 23  1  0  0  0  0
 31 28  1  0  0  0  0
 32 35  1  0  0  0  0
 32 23  1  0  0  0  0
 33 32  1  0  0  0  0
 34 32  1  0  0  0  0
 35 39  1  0  0  0  0
 36 38  1  0  0  0  0
 36 35  1  0  0  0  0
 37 36  2  0  0  0  0
 38 42  1  0  0  0  0
 40 37  1  0  0  0  0
 41 38  1  0  0  0  0
M  END
>  <minimizedAffinity>
-5.10964346

>  <minimizedRMSD>
1.45631802

$$$$
