
 OpenBabel03252513593D

 25 26  0  0  1  0  0  0  0  0999 V2000
   35.3840   29.4440   49.1170 C   0  0  2  0  0  0  0  0  0  0  0  0
   34.2840   29.4700   50.0910 C   0  0  0  0  0  0  0  0  0  0  0  0
   34.5810   28.1810   49.4860 C   0  0  1  0  0  0  0  0  0  0  0  0
   35.3080   29.6990   48.0560 H   0  0  0  0  0  0  0  0  0  0  0  0
   34.5270   29.7100   51.1510 H   0  0  0  0  0  0  0  0  0  0  0  0
   33.3700   30.0510   49.7740 H   0  0  0  0  0  0  0  0  0  0  0  0
   35.2420   27.4070   49.8870 H   0  0  0  0  0  0  0  0  0  0  0  0
   36.8120   29.3930   49.6600 C   0  0  0  0  0  0  0  0  0  0  0  0
   36.7380   29.4680   50.7590 H   0  0  0  0  0  0  0  0  0  0  0  0
   37.2930   28.4280   49.3640 H   0  0  0  0  0  0  0  0  0  0  0  0
   38.3850   32.6940   49.3940 C   0  0  0  0  0  0  0  0  0  0  0  0
   38.8890   32.6930   48.0850 C   0  0  0  0  0  0  0  0  0  0  0  0
   38.6830   31.5450   47.2990 C   0  0  0  0  0  0  0  0  0  0  0  0
   37.9990   30.4930   47.8580 N   0  0  0  0  0  0  0  0  0  0  0  0
   37.5370   30.5400   49.1090 C   0  0  0  0  0  0  0  0  0  0  0  0
   37.7360   31.6450   49.8650 N   0  0  0  0  0  0  0  0  0  0  0  0
   38.4940   33.5230   50.0660 H   0  0  0  0  0  0  0  0  0  0  0  0
   39.4090   33.5610   47.7370 H   0  0  0  0  0  0  0  0  0  0  0  0
   39.0630   31.5250   46.2920 H   0  0  0  0  0  0  0  0  0  0  0  0
   33.5730   27.6960   48.4820 C   0  0  0  0  0  0  0  0  0  0  0  0
   34.0420   26.8480   47.6210 O   0  0  0  0  0  0  0  0  0  0  0  0
   32.2390   28.0660   48.4220 O   0  0  0  0  0  0  0  0  0  0  0  0
   31.1680   27.2000   48.6260 C   0  0  0  0  0  0  0  0  0  0  0  0
   30.3550   27.1580   47.3320 C   0  0  0  0  0  0  0  0  0  0  0  0
   30.2680   27.8330   49.6670 C   0  0  0  0  0  0  0  0  0  0  0  0
  1  4  1  6  0  0  0
  1  3  1  0  0  0  0
  1  8  1  0  0  0  0
  1  2  1  0  0  0  0
  2  5  1  0  0  0  0
  3  7  1  1  0  0  0
  3  2  1  0  0  0  0
  6  2  1  0  0  0  0
  8  9  1  0  0  0  0
 10  8  1  0  0  0  0
 11 16  1  0  0  0  0
 11 17  1  0  0  0  0
 12 11  2  0  0  0  0
 13 14  2  0  0  0  0
 13 12  1  0  0  0  0
 14 15  1  0  0  0  0
 15  8  1  0  0  0  0
 15 16  2  0  0  0  0
 18 12  1  0  0  0  0
 19 13  1  0  0  0  0
 20  3  1  0  0  0  0
 21 20  2  0  0  0  0
 22 20  1  0  0  0  0
 22 23  1  0  0  0  0
 23 25  1  0  0  0  0
 24 23  1  0  0  0  0
M  END
>  <minimizedAffinity>
-4.82946587

>  <minimizedRMSD>
0.798738778

$$$$
