
 OpenBabel03252514023D

 37 39  0  0  1  0  0  0  0  0999 V2000
   35.1220   29.2370   48.8090 C   0  0  2  0  0  0  0  0  0  0  0  0
   34.0150   29.2930   49.7560 C   0  0  0  0  0  0  0  0  0  0  0  0
   34.3040   27.9820   49.2530 C   0  0  1  0  0  0  0  0  0  0  0  0
   34.9800   29.5690   47.7780 H   0  0  0  0  0  0  0  0  0  0  0  0
   34.2750   29.4840   50.8360 H   0  0  0  0  0  0  0  0  0  0  0  0
   33.0580   29.8170   49.4820 H   0  0  0  0  0  0  0  0  0  0  0  0
   34.9250   27.2040   49.6970 H   0  0  0  0  0  0  0  0  0  0  0  0
   36.5350   29.1960   49.4130 C   0  0  0  0  0  0  0  0  0  0  0  0
   37.0820   28.3110   49.0620 H   0  0  0  0  0  0  0  0  0  0  0  0
   36.4480   29.1060   50.5120 H   0  0  0  0  0  0  0  0  0  0  0  0
   37.5460   32.7020   49.6010 C   0  0  0  0  0  0  0  0  0  0  0  0
   38.4300   32.8260   48.5090 C   0  0  0  0  0  0  0  0  0  0  0  0
   38.6610   31.6770   47.7180 C   0  0  0  0  0  0  0  0  0  0  0  0
   38.0190   30.5170   48.0560 N   0  0  0  0  0  0  0  0  0  0  0  0
   37.1920   30.4560   49.1030 C   0  0  0  0  0  0  0  0  0  0  0  0
   36.9590   31.5560   49.8730 N   0  0  0  0  0  0  0  0  0  0  0  0
   37.4490   33.6370   50.1250 H   0  0  0  0  0  0  0  0  0  0  0  0
   38.9790   33.6830   48.1620 H   0  0  0  0  0  0  0  0  0  0  0  0
   39.3190   31.6710   46.8630 H   0  0  0  0  0  0  0  0  0  0  0  0
   33.3180   27.4480   48.2320 C   0  0  0  0  0  0  0  0  0  0  0  0
   33.6200   26.2630   47.8040 O   0  0  0  0  0  0  0  0  0  0  0  0
   32.1790   28.0930   47.7530 O   0  0  0  0  0  0  0  0  0  0  0  0
   30.9240   27.8580   48.2560 C   0  0  0  0  0  0  0  0  0  0  0  0
   30.5210   27.9990   49.6760 C   0  0  0  0  0  0  0  0  0  0  0  0
   29.2390   27.7270   49.9890 C   0  0  0  0  0  0  0  0  0  0  0  0
   28.2990   27.3270   49.0380 C   0  0  0  0  0  0  0  0  0  0  0  0
   29.2890   27.3070   47.4660 S   0  0  0  0  0  0  0  0  0  0  0  0
   31.2930   28.3080   50.3360 H   0  0  0  0  0  0  0  0  0  0  0  0
   28.9130   27.8110   51.0140 H   0  0  0  0  0  0  0  0  0  0  0  0
   27.0080   27.0100   48.9880 N   0  0  0  0  0  0  0  0  0  0  0  0
   26.0230   27.9220   48.5220 C   0  0  0  0  0  0  0  0  0  0  0  0
   26.2620   28.5670   47.4540 N   0  0  0  0  0  0  0  0  0  0  0  0
   24.7750   28.1470   49.1790 N   0  0  0  0  0  0  0  0  0  0  0  0
   26.6230   26.0690   49.2950 H   0  0  0  0  0  0  0  0  0  0  0  0
   27.1040   28.5210   46.8530 H   0  0  0  0  0  0  0  0  0  0  0  0
   24.3450   28.9670   49.6630 H   0  0  0  0  0  0  0  0  0  0  0  0
   23.9980   27.4560   49.3000 H   0  0  0  0  0  0  0  0  0  0  0  0
  1  4  1  6  0  0  0
  1  3  1  0  0  0  0
  1  8  1  0  0  0  0
  1  2  1  0  0  0  0
  2  5  1  0  0  0  0
  3  7  1  1  0  0  0
  3  2  1  0  0  0  0
  6  2  1  0  0  0  0
  8 10  1  0  0  0  0
  9  8  1  0  0  0  0
 11 16  1  0  0  0  0
 11 17  1  0  0  0  0
 12 11  2  0  0  0  0
 13 14  2  0  0  0  0
 13 12  1  0  0  0  0
 14 15  1  0  0  0  0
 15  8  1  0  0  0  0
 15 16  2  0  0  0  0
 18 12  1  0  0  0  0
 19 13  1  0  0  0  0
 20  3  1  0  0  0  0
 21 20  2  0  0  0  0
 22 20  1  0  0  0  0
 22 23  1  0  0  0  0
 23 24  2  0  0  0  0
 24 25  1  0  0  0  0
 24 28  1  0  0  0  0
 25 29  1  0  0  0  0
 26 25  2  0  0  0  0
 27 23  1  0  0  0  0
 27 26  1  0  0  0  0
 30 26  1  0  0  0  0
 30 34  1  0  0  0  0
 31 30  1  0  0  0  0
 31 33  1  0  0  0  0
 32 31  2  0  0  0  0
 33 37  1  0  0  0  0
 33 36  1  0  0  0  0
 35 32  1  0  0  0  0
M  END
>  <minimizedAffinity>
-6.48607492

>  <minimizedRMSD>
1.14607596

$$$$
