
 OpenBabel03252514033D

 37 39  0  0  1  0  0  0  0  0999 V2000
   35.4500   29.6130   49.1380 C   0  0  2  0  0  0  0  0  0  0  0  0
   34.3550   29.3250   50.0570 C   0  0  0  0  0  0  0  0  0  0  0  0
   34.8010   28.1990   49.2900 C   0  0  1  0  0  0  0  0  0  0  0  0
   35.2560   30.1370   48.2000 H   0  0  0  0  0  0  0  0  0  0  0  0
   34.6010   29.3110   51.1570 H   0  0  0  0  0  0  0  0  0  0  0  0
   33.3380   29.7720   49.8870 H   0  0  0  0  0  0  0  0  0  0  0  0
   35.5190   27.4280   49.5670 H   0  0  0  0  0  0  0  0  0  0  0  0
   36.8640   29.6190   49.7420 C   0  0  0  0  0  0  0  0  0  0  0  0
   37.3450   28.6400   49.6180 H   0  0  0  0  0  0  0  0  0  0  0  0
   36.7840   29.8020   50.8300 H   0  0  0  0  0  0  0  0  0  0  0  0
   38.4560   32.8780   49.3020 C   0  0  0  0  0  0  0  0  0  0  0  0
   38.9920   32.7860   48.0000 C   0  0  0  0  0  0  0  0  0  0  0  0
   38.7880   31.5790   47.2910 C   0  0  0  0  0  0  0  0  0  0  0  0
   38.0880   30.5760   47.9050 N   0  0  0  0  0  0  0  0  0  0  0  0
   37.6030   30.7180   49.1410 C   0  0  0  0  0  0  0  0  0  0  0  0
   37.7910   31.8750   49.8360 N   0  0  0  0  0  0  0  0  0  0  0  0
   38.6740   33.8370   49.7390 H   0  0  0  0  0  0  0  0  0  0  0  0
   39.5510   33.5070   47.4330 H   0  0  0  0  0  0  0  0  0  0  0  0
   39.1580   31.4110   46.2920 H   0  0  0  0  0  0  0  0  0  0  0  0
   33.8780   27.7780   48.1620 C   0  0  0  0  0  0  0  0  0  0  0  0
   34.1190   26.5820   47.7280 O   0  0  0  0  0  0  0  0  0  0  0  0
   32.8510   28.5320   47.5980 O   0  0  0  0  0  0  0  0  0  0  0  0
   31.5270   28.1860   47.7080 C   0  0  0  0  0  0  0  0  0  0  0  0
   30.9440   27.3230   48.7630 C   0  0  0  0  0  0  0  0  0  0  0  0
   29.6170   27.0920   48.7150 C   0  0  0  0  0  0  0  0  0  0  0  0
   28.7940   27.6290   47.7240 C   0  0  0  0  0  0  0  0  0  0  0  0
   29.9860   28.6020   46.6830 S   0  0  0  0  0  0  0  0  0  0  0  0
   31.6360   26.9550   49.4790 H   0  0  0  0  0  0  0  0  0  0  0  0
   29.1610   26.4620   49.4610 H   0  0  0  0  0  0  0  0  0  0  0  0
   27.5050   27.6280   47.3930 N   0  0  0  0  0  0  0  0  0  0  0  0
   27.0690   27.4600   46.0520 C   0  0  0  0  0  0  0  0  0  0  0  0
   27.6060   26.5400   45.3580 N   0  0  0  0  0  0  0  0  0  0  0  0
   26.0570   28.2600   45.4380 N   0  0  0  0  0  0  0  0  0  0  0  0
   26.7180   27.7580   48.0950 H   0  0  0  0  0  0  0  0  0  0  0  0
   28.3420   25.8690   45.6460 H   0  0  0  0  0  0  0  0  0  0  0  0
   26.0500   28.9440   44.6510 H   0  0  0  0  0  0  0  0  0  0  0  0
   25.0450   28.2980   45.7020 H   0  0  0  0  0  0  0  0  0  0  0  0
  1  4  1  6  0  0  0
  1  3  1  0  0  0  0
  1  8  1  0  0  0  0
  1  2  1  0  0  0  0
  2  5  1  0  0  0  0
  3  7  1  1  0  0  0
  3  2  1  0  0  0  0
  6  2  1  0  0  0  0
  8 10  1  0  0  0  0
  9  8  1  0  0  0  0
 11 17  1  0  0  0  0
 11 16  1  0  0  0  0
 12 11  2  0  0  0  0
 13 14  2  0  0  0  0
 13 12  1  0  0  0  0
 14 15  1  0  0  0  0
 15  8  1  0  0  0  0
 15 16  2  0  0  0  0
 18 12  1  0  0  0  0
 19 13  1  0  0  0  0
 20  3  1  0  0  0  0
 21 20  2  0  0  0  0
 22 23  1  0  0  0  0
 22 20  1  0  0  0  0
 23 24  2  0  0  0  0
 24 28  1  0  0  0  0
 25 24  1  0  0  0  0
 25 29  1  0  0  0  0
 26 25  2  0  0  0  0
 27 23  1  0  0  0  0
 27 26  1  0  0  0  0
 30 26  1  0  0  0  0
 30 34  1  0  0  0  0
 31 30  1  0  0  0  0
 32 35  1  0  0  0  0
 32 31  2  0  0  0  0
 33 37  1  0  0  0  0
 33 31  1  0  0  0  0
 36 33  1  0  0  0  0
M  END
>  <minimizedAffinity>
-5.41811132

>  <minimizedRMSD>
1.09029949

$$$$
