
 OpenBabel03252513553D

 27 28  0  0  1  0  0  0  0  0999 V2000
   35.5370   29.8100   49.7300 C   0  0  2  0  0  0  0  0  0  0  0  0
   35.0360   29.2060   50.9780 C   0  0  0  0  0  0  0  0  0  0  0  0
   34.5440   28.6530   49.6770 C   0  0  1  0  0  0  0  0  0  0  0  0
   35.1170   30.7590   49.3410 H   0  0  0  0  0  0  0  0  0  0  0  0
   35.7170   28.6210   51.6190 H   0  0  0  0  0  0  0  0  0  0  0  0
   34.3500   29.8510   51.5660 H   0  0  0  0  0  0  0  0  0  0  0  0
   34.9560   27.6580   49.4430 H   0  0  0  0  0  0  0  0  0  0  0  0
   33.1670   28.9620   49.3620 N   0  0  0  0  0  0  0  0  0  0  0  0
   32.3330   27.9470   48.8260 C   0  0  0  0  0  0  0  0  0  0  0  0
   32.7960   27.0520   48.0350 N   0  0  0  0  0  0  0  0  0  0  0  0
   30.9330   27.9120   49.1710 N   0  0  0  0  0  0  0  0  0  0  0  0
   32.7720   29.9120   49.5190 H   0  0  0  0  0  0  0  0  0  0  0  0
   33.7970   27.0590   47.7740 H   0  0  0  0  0  0  0  0  0  0  0  0
   30.3710   27.3370   49.8660 H   0  0  0  0  0  0  0  0  0  0  0  0
   30.4530   28.6260   48.5730 H   0  0  0  0  0  0  0  0  0  0  0  0
   36.9050   29.4900   49.1960 C   0  0  0  0  0  0  0  0  0  0  0  0
   36.8630   28.9140   48.2400 H   0  0  0  0  0  0  0  0  0  0  0  0
   37.4570   28.9220   49.9810 H   0  0  0  0  0  0  0  0  0  0  0  0
   38.0510   32.9870   49.4070 C   0  0  0  0  0  0  0  0  0  0  0  0
   38.8490   33.1120   48.2620 C   0  0  0  0  0  0  0  0  0  0  0  0
   38.9920   32.0040   47.4280 C   0  0  0  0  0  0  0  0  0  0  0  0
   38.3390   30.8540   47.7790 N   0  0  0  0  0  0  0  0  0  0  0  0
   37.5740   30.7680   48.8930 C   0  0  0  0  0  0  0  0  0  0  0  0
   37.4360   31.8330   49.6980 N   0  0  0  0  0  0  0  0  0  0  0  0
   37.9390   33.8520   50.0580 H   0  0  0  0  0  0  0  0  0  0  0  0
   39.3490   34.0390   48.0220 H   0  0  0  0  0  0  0  0  0  0  0  0
   39.5990   32.0340   46.5220 H   0  0  0  0  0  0  0  0  0  0  0  0
  1  4  1  6  0  0  0
  1  2  1  0  0  0  0
  2  6  1  0  0  0  0
  2  5  1  0  0  0  0
  3  7  1  6  0  0  0
  3  1  1  0  0  0  0
  3  2  1  0  0  0  0
  8 12  1  0  0  0  0
  8  3  1  0  0  0  0
  9 11  1  0  0  0  0
  9  8  1  0  0  0  0
 10  9  2  0  0  0  0
 11 14  1  0  0  0  0
 13 10  1  0  0  0  0
 15 11  1  0  0  0  0
 16  1  1  0  0  0  0
 16 18  1  0  0  0  0
 17 16  1  0  0  0  0
 19 24  1  0  0  0  0
 19 25  1  0  0  0  0
 20 19  2  0  0  0  0
 21 22  2  0  0  0  0
 21 20  1  0  0  0  0
 22 23  1  0  0  0  0
 23 16  1  0  0  0  0
 23 24  2  0  0  0  0
 26 20  1  0  0  0  0
 27 21  1  0  0  0  0
M  END
>  <minimizedAffinity>
-4.85170746

>  <minimizedRMSD>
1.68250036

$$$$
