
 OpenBabel03252513543D

 20 20  0  0  0  0  0  0  0  0999 V2000
   34.8550   28.5760   48.9350 C   0  0  0  0  0  0  0  0  0  0  0  0
   34.4470   27.9080   49.7310 H   0  0  0  0  0  0  0  0  0  0  0  0
   35.2560   27.9450   48.1270 H   0  0  0  0  0  0  0  0  0  0  0  0
   37.1720   30.2050   51.3050 C   0  0  0  0  0  0  0  0  0  0  0  0
   38.1230   30.7810   50.4470 C   0  0  0  0  0  0  0  0  0  0  0  0
   37.9710   30.6110   49.0630 C   0  0  0  0  0  0  0  0  0  0  0  0
   36.8860   29.8820   48.6310 N   0  0  0  0  0  0  0  0  0  0  0  0
   35.9890   29.3440   49.4910 C   0  0  0  0  0  0  0  0  0  0  0  0
   36.1480   29.5130   50.8110 N   0  0  0  0  0  0  0  0  0  0  0  0
   37.3380   30.3670   52.3620 H   0  0  0  0  0  0  0  0  0  0  0  0
   38.9910   31.3600   50.7420 H   0  0  0  0  0  0  0  0  0  0  0  0
   38.6200   30.9950   48.2990 H   0  0  0  0  0  0  0  0  0  0  0  0
   33.8560   29.5310   48.5050 N   0  0  0  0  0  0  0  0  0  0  0  0
   33.8820   29.9270   47.1390 C   0  0  0  0  0  0  0  0  0  0  0  0
   34.6300   29.4370   46.2220 N   0  0  0  0  0  0  0  0  0  0  0  0
   32.9890   30.9730   46.7430 N   0  0  0  0  0  0  0  0  0  0  0  0
   33.1400   29.9290   49.1390 H   0  0  0  0  0  0  0  0  0  0  0  0
   35.3230   28.6910   46.3170 H   0  0  0  0  0  0  0  0  0  0  0  0
   33.4920   31.8590   47.0200 H   0  0  0  0  0  0  0  0  0  0  0  0
   32.1240   31.3860   46.3360 H   0  0  0  0  0  0  0  0  0  0  0  0
  1  8  1  0  0  0  0
  1  2  1  0  0  0  0
  3  1  1  0  0  0  0
  4 10  1  0  0  0  0
  5 11  1  0  0  0  0
  5  4  2  0  0  0  0
  6  5  1  0  0  0  0
  7  6  2  0  0  0  0
  7  8  1  0  0  0  0
  8  9  2  0  0  0  0
  9  4  1  0  0  0  0
 12  6  1  0  0  0  0
 13  1  1  0  0  0  0
 13 17  1  0  0  0  0
 14 13  1  0  0  0  0
 15 18  1  0  0  0  0
 15 14  2  0  0  0  0
 16 19  1  0  0  0  0
 16 14  1  0  0  0  0
 20 16  1  0  0  0  0
M  END
>  <minimizedAffinity>
-4.1998868

>  <minimizedRMSD>
0.874564588

$$$$
