
 OpenBabel03252514003D

 25 26  0  0  1  0  0  0  0  0999 V2000
   35.3770   29.4170   49.0200 C   0  0  2  0  0  0  0  0  0  0  0  0
   34.2410   29.4030   49.9520 C   0  0  0  0  0  0  0  0  0  0  0  0
   34.5890   28.1300   49.3390 C   0  0  1  0  0  0  0  0  0  0  0  0
   35.3360   29.6870   47.9620 H   0  0  0  0  0  0  0  0  0  0  0  0
   34.4370   29.6310   51.0240 H   0  0  0  0  0  0  0  0  0  0  0  0
   33.3270   29.9690   49.6080 H   0  0  0  0  0  0  0  0  0  0  0  0
   35.2520   27.3640   49.7540 H   0  0  0  0  0  0  0  0  0  0  0  0
   36.7840   29.3880   49.6180 C   0  0  0  0  0  0  0  0  0  0  0  0
   36.6660   29.4360   50.7150 H   0  0  0  0  0  0  0  0  0  0  0  0
   37.3000   28.4420   49.3190 H   0  0  0  0  0  0  0  0  0  0  0  0
   38.2360   32.7520   49.4660 C   0  0  0  0  0  0  0  0  0  0  0  0
   38.8350   32.7730   48.1970 C   0  0  0  0  0  0  0  0  0  0  0  0
   38.7340   31.6210   47.4000 C   0  0  0  0  0  0  0  0  0  0  0  0
   38.0550   30.5400   47.9070 N   0  0  0  0  0  0  0  0  0  0  0  0
   37.5000   30.5650   49.1210 C   0  0  0  0  0  0  0  0  0  0  0  0
   37.5980   31.6760   49.8880 N   0  0  0  0  0  0  0  0  0  0  0  0
   38.2610   33.5830   50.1430 H   0  0  0  0  0  0  0  0  0  0  0  0
   39.3430   33.6630   47.8890 H   0  0  0  0  0  0  0  0  0  0  0  0
   39.1890   31.6180   46.4230 H   0  0  0  0  0  0  0  0  0  0  0  0
   33.6320   27.6400   48.2900 C   0  0  0  0  0  0  0  0  0  0  0  0
   33.9770   26.5210   47.7330 O   0  0  0  0  0  0  0  0  0  0  0  0
   32.4570   28.2640   47.9030 O   0  0  0  0  0  0  0  0  0  0  0  0
   31.2140   27.6390   47.8360 C   0  0  0  0  0  3  0  0  0  0  0  0
   30.2910   28.5300   47.0060 C   0  0  0  0  0  1  0  0  0  0  0  0
   30.6400   27.6280   49.2380 C   0  0  0  0  0  1  0  0  0  0  0  0
  1  4  1  6  0  0  0
  1  3  1  0  0  0  0
  1  8  1  0  0  0  0
  1  2  1  0  0  0  0
  2  5  1  0  0  0  0
  3  7  1  1  0  0  0
  3  2  1  0  0  0  0
  6  2  1  0  0  0  0
  8  9  1  0  0  0  0
 10  8  1  0  0  0  0
 11 16  1  0  0  0  0
 11 17  1  0  0  0  0
 12 11  2  0  0  0  0
 13 14  2  0  0  0  0
 13 12  1  0  0  0  0
 14 15  1  0  0  0  0
 15  8  1  0  0  0  0
 15 16  2  0  0  0  0
 18 12  1  0  0  0  0
 19 13  1  0  0  0  0
 20  3  1  0  0  0  0
 21 20  2  0  0  0  0
 22 20  1  0  0  0  0
 23 22  1  0  0  0  0
 23 25  1  0  0  0  0
 24 23  1  0  0  0  0
M  END
>  <minimizedAffinity>
-4.75964117

>  <minimizedRMSD>
0.789272845

$$$$
