
 OpenBabel03252513413D

 13 13  0  0  0  0  0  0  0  0999 V2000
   36.8670   31.4100   49.9640 C   0  0  0  0  0  0  0  0  0  0  0  0
   35.6230   30.8450   49.5520 C   0  0  0  0  0  0  0  0  0  0  0  0
   35.2020   29.7080   50.2490 C   0  0  0  0  0  0  0  0  0  0  0  0
   35.9680   29.2120   51.2500 N   0  0  0  0  0  0  0  0  0  0  0  0
   37.1340   29.7800   51.6000 C   0  0  0  0  0  0  0  0  0  0  0  0
   37.5870   30.8660   50.9710 N   0  0  0  0  0  0  0  0  0  0  0  0
   35.0390   31.2580   48.7620 H   0  0  0  0  0  0  0  0  0  0  0  0
   34.2670   29.2380   49.9820 H   0  0  0  0  0  0  0  0  0  0  0  0
   37.7430   29.3790   52.4000 H   0  0  0  0  0  0  0  0  0  0  0  0
   37.3090   32.5290   49.2970 O   0  0  0  0  0  0  0  0  0  0  0  0
   38.6520   32.5950   48.8680 C   0  0  0  0  0  0  0  0  0  0  0  0
   38.7780   32.3470   47.3780 C   0  0  0  0  0  0  0  0  0  0  0  0
   39.2470   33.9300   49.2390 C   0  0  0  0  0  0  0  0  0  0  0  0
  1  6  1  0  0  0  0
  2  1  2  0  0  0  0
  2  3  1  0  0  0  0
  3  4  2  0  0  0  0
  4  5  1  0  0  0  0
  5  9  1  0  0  0  0
  6  5  2  0  0  0  0
  7  2  1  0  0  0  0
  8  3  1  0  0  0  0
 10  1  1  0  0  0  0
 11 13  1  0  0  0  0
 11 10  1  0  0  0  0
 12 11  1  0  0  0  0
M  END
>  <minimizedAffinity>
-4.11442327

>  <minimizedRMSD>
4.46889973

$$$$
