
 OpenBabel03252514033D

 37 39  0  0  1  0  0  0  0  0999 V2000
   35.5430   29.5600   48.9840 C   0  0  2  0  0  0  0  0  0  0  0  0
   34.4310   29.4410   49.9190 C   0  0  0  0  0  0  0  0  0  0  0  0
   34.8280   28.2070   49.3060 C   0  0  1  0  0  0  0  0  0  0  0  0
   35.3790   29.9690   47.9850 H   0  0  0  0  0  0  0  0  0  0  0  0
   34.6690   29.5560   51.0140 H   0  0  0  0  0  0  0  0  0  0  0  0
   33.4360   29.9080   49.6810 H   0  0  0  0  0  0  0  0  0  0  0  0
   35.5090   27.4470   49.6870 H   0  0  0  0  0  0  0  0  0  0  0  0
   36.9520   29.5790   49.5990 C   0  0  0  0  0  0  0  0  0  0  0  0
   37.4640   28.6230   49.4300 H   0  0  0  0  0  0  0  0  0  0  0  0
   36.8590   29.7060   50.6930 H   0  0  0  0  0  0  0  0  0  0  0  0
   38.3980   32.9230   49.3130 C   0  0  0  0  0  0  0  0  0  0  0  0
   38.9910   32.8930   48.0340 C   0  0  0  0  0  0  0  0  0  0  0  0
   38.8780   31.6980   47.2850 C   0  0  0  0  0  0  0  0  0  0  0  0
   38.2030   30.6460   47.8420 N   0  0  0  0  0  0  0  0  0  0  0  0
   37.6600   30.7300   49.0590 C   0  0  0  0  0  0  0  0  0  0  0  0
   37.7620   31.8750   49.7910 N   0  0  0  0  0  0  0  0  0  0  0  0
   38.5490   33.8790   49.7840 H   0  0  0  0  0  0  0  0  0  0  0  0
   39.5370   33.6570   47.5110 H   0  0  0  0  0  0  0  0  0  0  0  0
   39.2970   31.5770   46.2990 H   0  0  0  0  0  0  0  0  0  0  0  0
   33.8940   27.6890   48.2300 C   0  0  0  0  0  0  0  0  0  0  0  0
   34.2670   26.5490   47.7400 O   0  0  0  0  0  0  0  0  0  0  0  0
   32.7340   28.3030   47.7630 O   0  0  0  0  0  0  0  0  0  0  0  0
   31.4780   27.9340   48.1760 C   0  0  0  0  0  0  0  0  0  0  0  0
   30.9150   28.1500   49.5300 C   0  0  0  0  0  0  0  0  0  0  0  0
   29.6570   27.7220   49.7560 C   0  0  0  0  0  0  0  0  0  0  0  0
   28.8860   27.0970   48.7760 C   0  0  0  0  0  0  0  0  0  0  0  0
   30.0270   27.0730   47.3100 S   0  0  0  0  0  0  0  0  0  0  0  0
   31.5650   28.6310   50.2180 H   0  0  0  0  0  0  0  0  0  0  0  0
   29.2190   27.8550   50.7320 H   0  0  0  0  0  0  0  0  0  0  0  0
   27.6630   26.5880   48.6460 N   0  0  0  0  0  0  0  0  0  0  0  0
   27.0310   25.8670   49.6960 C   0  0  0  0  0  0  0  0  0  0  0  0
   27.0820   26.3510   50.8690 N   0  0  0  0  0  0  0  0  0  0  0  0
   26.3330   24.6350   49.5060 N   0  0  0  0  0  0  0  0  0  0  0  0
   27.0820   26.6710   47.7620 H   0  0  0  0  0  0  0  0  0  0  0  0
   27.5350   27.2290   51.1810 H   0  0  0  0  0  0  0  0  0  0  0  0
   26.4890   23.6540   49.8270 H   0  0  0  0  0  0  0  0  0  0  0  0
   25.4550   24.4930   48.9550 H   0  0  0  0  0  0  0  0  0  0  0  0
  1  4  1  6  0  0  0
  1  3  1  0  0  0  0
  1  8  1  0  0  0  0
  1  2  1  0  0  0  0
  2  5  1  0  0  0  0
  3  7  1  1  0  0  0
  3  2  1  0  0  0  0
  6  2  1  0  0  0  0
  8 10  1  0  0  0  0
  9  8  1  0  0  0  0
 11 17  1  0  0  0  0
 11 16  1  0  0  0  0
 12 11  2  0  0  0  0
 13 14  2  0  0  0  0
 13 12  1  0  0  0  0
 14 15  1  0  0  0  0
 15  8  1  0  0  0  0
 15 16  2  0  0  0  0
 18 12  1  0  0  0  0
 19 13  1  0  0  0  0
 20  3  1  0  0  0  0
 21 20  2  0  0  0  0
 22 23  1  0  0  0  0
 22 20  1  0  0  0  0
 23 24  2  0  0  0  0
 24 25  1  0  0  0  0
 24 28  1  0  0  0  0
 25 29  1  0  0  0  0
 26 25  2  0  0  0  0
 27 23  1  0  0  0  0
 27 26  1  0  0  0  0
 30 26  1  0  0  0  0
 30 31  1  0  0  0  0
 31 32  2  0  0  0  0
 32 35  1  0  0  0  0
 33 31  1  0  0  0  0
 33 36  1  0  0  0  0
 34 30  1  0  0  0  0
 37 33  1  0  0  0  0
M  END
>  <minimizedAffinity>
-4.62599564

>  <minimizedRMSD>
0.422862321

$$$$
