
 OpenBabel03252512503D

 22 23  0  0  0  0  0  0  0  0999 V2000
   38.5310   31.5040   48.0140 C   0  0  0  0  0  0  0  0  0  0  0  0
   39.0470   32.7520   47.9730 N   0  0  0  0  0  0  0  0  0  0  0  0
   39.5990   32.9730   46.8260 O   0  0  0  0  0  0  0  0  0  0  0  0
   39.4640   31.8930   46.0880 C   0  0  0  0  0  0  0  0  0  0  0  0
   38.8030   30.9650   46.8060 N   0  0  0  0  0  0  0  0  0  0  0  0
   39.9290   31.6950   44.7370 N   0  0  0  0  0  0  0  0  0  0  0  0
   40.0040   30.3770   44.1550 C   0  0  0  0  0  0  0  0  0  0  0  0
   39.1330   29.5590   44.6460 N   0  0  0  0  0  0  0  0  0  0  0  0
   41.0010   30.2030   43.1590 N   0  0  0  0  0  0  0  0  0  0  0  0
   40.2130   32.5640   44.1960 H   0  0  0  0  0  0  0  0  0  0  0  0
   39.0250   28.5610   44.3580 H   0  0  0  0  0  0  0  0  0  0  0  0
   40.5620   30.6440   42.3030 H   0  0  0  0  0  0  0  0  0  0  0  0
   41.9320   29.7270   43.3450 H   0  0  0  0  0  0  0  0  0  0  0  0
   37.3310   30.1870   51.3170 C   0  0  0  0  0  0  0  0  0  0  0  0
   38.0680   30.9560   50.4040 C   0  0  0  0  0  0  0  0  0  0  0  0
   37.8180   30.7540   49.0390 C   0  0  0  0  0  0  0  0  0  0  0  0
   36.8910   29.8430   48.6540 N   0  0  0  0  0  0  0  0  0  0  0  0
   36.1970   29.1180   49.5770 C   0  0  0  0  0  0  0  0  0  0  0  0
   36.4170   29.2880   50.9000 N   0  0  0  0  0  0  0  0  0  0  0  0
   37.5780   30.3960   52.3540 H   0  0  0  0  0  0  0  0  0  0  0  0
   38.8120   31.6880   50.7040 H   0  0  0  0  0  0  0  0  0  0  0  0
   35.4920   28.4270   49.1900 H   0  0  0  0  0  0  0  0  0  0  0  0
  1 16  1  0  0  0  0
  2  1  2  0  0  0  0
  3  2  1  0  0  0  0
  4  5  2  0  0  0  0
  4  3  1  0  0  0  0
  5  1  1  0  0  0  0
  6  4  1  0  0  0  0
  7  8  2  0  0  0  0
  7  6  1  0  0  0  0
  9 13  1  0  0  0  0
  9  7  1  0  0  0  0
 10  6  1  0  0  0  0
 11  8  1  0  0  0  0
 12  9  1  0  0  0  0
 14 20  1  0  0  0  0
 15 21  1  0  0  0  0
 15 14  2  0  0  0  0
 16 15  1  0  0  0  0
 17 16  2  0  0  0  0
 17 18  1  0  0  0  0
 18 19  2  0  0  0  0
 19 14  1  0  0  0  0
 22 18  1  0  0  0  0
M  END
>  <minimizedAffinity>
-5.53371239

>  <minimizedRMSD>
0.0986106023

$$$$
