
 OpenBabel03252512553D

 29 31  0  0  0  0  0  0  0  0999 V2000
   37.3020   30.1520   51.4290 C   0  0  0  0  0  0  0  0  0  0  0  0
   38.0500   30.9380   50.5370 C   0  0  0  0  0  0  0  0  0  0  0  0
   37.6960   30.8310   49.1790 C   0  0  0  0  0  0  0  0  0  0  0  0
   36.6870   30.0110   48.7840 N   0  0  0  0  0  0  0  0  0  0  0  0
   36.0020   29.2770   49.7010 C   0  0  0  0  0  0  0  0  0  0  0  0
   36.3130   29.3530   51.0100 N   0  0  0  0  0  0  0  0  0  0  0  0
   37.5800   30.2410   52.4580 H   0  0  0  0  0  0  0  0  0  0  0  0
   38.8470   31.5910   50.8050 H   0  0  0  0  0  0  0  0  0  0  0  0
   34.9490   28.4240   49.2720 N   0  0  0  0  0  0  0  0  0  0  0  0
   33.5990   28.7870   49.4850 C   0  0  0  0  0  0  0  0  0  0  0  0
   33.3140   29.5320   50.5100 N   0  0  0  0  0  0  0  0  0  0  0  0
   32.6000   28.3160   48.5600 N   0  0  0  0  0  0  0  0  0  0  0  0
   35.1660   27.5230   48.7960 H   0  0  0  0  0  0  0  0  0  0  0  0
   32.3800   29.8600   50.7680 H   0  0  0  0  0  0  0  0  0  0  0  0
   32.3200   29.1230   47.9590 H   0  0  0  0  0  0  0  0  0  0  0  0
   32.1710   27.3650   48.4330 H   0  0  0  0  0  0  0  0  0  0  0  0
   38.4180   31.6080   48.1540 C   0  0  0  0  0  0  0  0  0  0  0  0
   39.0810   32.7780   48.1770 N   0  0  0  0  0  0  0  0  0  0  0  0
   39.5550   33.0380   46.9860 O   0  0  0  0  0  0  0  0  0  0  0  0
   39.2190   32.0710   46.1950 C   0  0  0  0  0  0  0  0  0  0  0  0
   38.5020   31.1440   46.8820 N   0  0  0  0  0  0  0  0  0  0  0  0
   39.5220   31.9300   44.7950 N   0  0  0  0  0  0  0  0  0  0  0  0
   39.0070   32.7590   43.8840 N   0  0  0  0  0  0  0  0  0  0  0  0
   39.4660   32.3850   42.6620 C   0  0  0  0  0  0  0  0  0  0  0  0
   40.3000   31.2700   42.8780 C   0  0  0  0  0  0  0  0  0  0  0  0
   40.3230   30.9980   44.2290 C   0  0  0  0  0  0  0  0  0  0  0  0
   39.2810   32.7990   41.6830 H   0  0  0  0  0  0  0  0  0  0  0  0
   40.8450   30.6960   42.1520 H   0  0  0  0  0  0  0  0  0  0  0  0
   40.8450   30.2230   44.7940 H   0  0  0  0  0  0  0  0  0  0  0  0
  1  7  1  0  0  0  0
  2  8  1  0  0  0  0
  2  1  2  0  0  0  0
  3  2  1  0  0  0  0
  4  3  2  0  0  0  0
  4  5  1  0  0  0  0
  5  6  2  0  0  0  0
  6  1  1  0  0  0  0
  9 10  1  0  0  0  0
  9  5  1  0  0  0  0
 10 11  2  0  0  0  0
 11 14  1  0  0  0  0
 12 10  1  0  0  0  0
 13  9  1  0  0  0  0
 15 12  1  0  0  0  0
 16 12  1  0  0  0  0
 17 18  2  0  0  0  0
 17  3  1  0  0  0  0
 19 18  1  0  0  0  0
 20 21  2  0  0  0  0
 20 19  1  0  0  0  0
 21 17  1  0  0  0  0
 22 20  1  0  0  0  0
 23 22  1  0  0  0  0
 24 25  1  0  0  0  0
 24 23  2  0  0  0  0
 25 26  2  0  0  0  0
 26 29  1  0  0  0  0
 26 22  1  0  0  0  0
 27 24  1  0  0  0  0
 28 25  1  0  0  0  0
M  END
>  <minimizedAffinity>
-6.98365211

>  <minimizedRMSD>
0.253902316

$$$$
