
 OpenBabel03252514053D

 26 28  0  0  0  0  0  0  0  0999 V2000
   38.8350   32.2850   46.3840 N   0  0  0  0  0  0  0  0  0  0  0  0
   39.9340   33.0630   46.2170 C   0  0  0  0  0  0  0  0  0  0  0  0
   39.9980   33.4220   44.9090 N   0  0  0  0  0  0  0  0  0  0  0  0
   38.9560   32.8700   44.2970 C   0  0  0  0  0  0  0  0  0  0  0  0
   38.4980   32.8780   42.9910 C   0  0  0  0  0  0  0  0  0  0  0  0
   37.3720   32.2070   42.6370 N   0  0  0  0  0  0  0  0  0  0  0  0
   36.6500   31.5040   43.5390 C   0  0  0  0  0  0  0  0  0  0  0  0
   37.1050   31.5060   44.8000 N   0  0  0  0  0  0  0  0  0  0  0  0
   38.2080   32.1480   45.2110 C   0  0  0  0  0  0  0  0  0  0  0  0
   39.1910   33.5840   41.9970 N   0  0  0  0  0  0  0  0  0  0  0  0
   40.6480   33.3580   46.9810 H   0  0  0  0  0  0  0  0  0  0  0  0
   35.7580   30.9820   43.2180 H   0  0  0  0  0  0  0  0  0  0  0  0
   40.1910   33.3020   41.8060 H   0  0  0  0  0  0  0  0  0  0  0  0
   38.7140   34.3620   41.4720 H   0  0  0  0  0  0  0  0  0  0  0  0
   37.8420   30.4520   47.6340 C   0  0  0  0  0  0  0  0  0  0  0  0
   38.4520   31.7280   47.6270 C   0  0  0  0  0  0  0  0  0  0  0  0
   38.6300   32.3450   48.8760 C   0  0  0  0  0  0  0  0  0  0  0  0
   38.2140   31.6940   50.0010 N   0  0  0  0  0  0  0  0  0  0  0  0
   37.6410   30.4880   49.9560 C   0  0  0  0  0  0  0  0  0  0  0  0
   37.4540   29.8670   48.7860 N   0  0  0  0  0  0  0  0  0  0  0  0
   37.6920   29.9530   46.6750 H   0  0  0  0  0  0  0  0  0  0  0  0
   39.0880   33.3010   48.8690 H   0  0  0  0  0  0  0  0  0  0  0  0
   37.2350   29.8860   51.2210 C   0  0  0  0  0  0  0  0  0  0  0  0
   36.0430   29.5160   51.3690 O   0  0  0  0  0  0  0  0  0  0  0  0
   38.1120   29.6970   52.2880 O   0  0  0  0  0  0  0  0  0  0  0  0
   38.0660   28.8080   52.7970 H   0  0  0  0  0  0  0  0  0  0  0  0
  1 16  1  0  0  0  0
  2  1  1  0  0  0  0
  2 11  1  0  0  0  0
  3  2  2  0  0  0  0
  4  3  1  0  0  0  0
  4  9  1  0  0  0  0
  5  4  2  0  0  0  0
  6  5  1  0  0  0  0
  6  7  2  0  0  0  0
  7  8  1  0  0  0  0
  8  9  2  0  0  0  0
  9  1  1  0  0  0  0
 10  5  1  0  0  0  0
 12  7  1  0  0  0  0
 13 10  1  0  0  0  0
 14 10  1  0  0  0  0
 15 20  1  0  0  0  0
 16 15  2  0  0  0  0
 16 17  1  0  0  0  0
 17 18  2  0  0  0  0
 19 18  1  0  0  0  0
 19 23  1  0  0  0  0
 20 19  2  0  0  0  0
 21 15  1  0  0  0  0
 22 17  1  0  0  0  0
 23 24  2  0  0  0  0
 23 25  1  0  0  0  0
 25 26  1  0  0  0  0
M  END
>  <minimizedAffinity>
-5.87350512

>  <minimizedRMSD>
3.25041771

$$$$
