
 OpenBabel03252513553D

 23 24  0  0  1  0  0  0  0  0999 V2000
   36.8960   29.4210   49.6800 C   0  0  0  0  0  0  0  0  0  0  0  0
   37.4190   28.5180   49.3010 H   0  0  0  0  0  0  0  0  0  0  0  0
   36.9010   29.4960   50.7720 H   0  0  0  0  0  0  0  0  0  0  0  0
   38.4360   32.7480   49.3610 C   0  0  0  0  0  0  0  0  0  0  0  0
   38.9350   32.7520   48.0610 C   0  0  0  0  0  0  0  0  0  0  0  0
   38.7380   31.6030   47.2960 C   0  0  0  0  0  0  0  0  0  0  0  0
   38.0690   30.5420   47.8620 N   0  0  0  0  0  0  0  0  0  0  0  0
   37.6070   30.5880   49.1240 C   0  0  0  0  0  0  0  0  0  0  0  0
   37.7970   31.6950   49.8610 N   0  0  0  0  0  0  0  0  0  0  0  0
   38.5370   33.5980   50.0430 H   0  0  0  0  0  0  0  0  0  0  0  0
   39.4430   33.6120   47.6920 H   0  0  0  0  0  0  0  0  0  0  0  0
   39.1060   31.5520   46.2800 H   0  0  0  0  0  0  0  0  0  0  0  0
   35.4630   29.4940   49.2320 C   0  0  2  0  0  0  0  0  0  0  0  0
   34.3660   29.5360   50.2330 C   0  0  0  0  0  0  0  0  0  0  0  0
   34.6470   28.2610   49.5210 C   0  0  1  0  0  0  0  0  0  0  0  0
   35.2370   29.9650   48.2360 H   0  0  0  0  0  0  0  0  0  0  0  0
   34.6070   29.5260   51.3160 H   0  0  0  0  0  0  0  0  0  0  0  0
   33.4440   30.1400   49.9860 H   0  0  0  0  0  0  0  0  0  0  0  0
   35.0840   27.4100   50.0860 H   0  0  0  0  0  0  0  0  0  0  0  0
   33.5950   27.8450   48.5520 C   0  0  0  0  0  0  0  0  0  0  0  0
   33.8480   26.9030   47.7250 O   0  0  0  0  0  0  0  0  0  0  0  0
   32.3460   28.3900   48.4590 O   0  0  0  0  0  0  0  0  0  0  0  0
   31.9790   28.5710   47.5110 H   0  0  0  0  0  0  0  0  0  0  0  0
  1  3  1  0  0  0  0
  2  1  1  0  0  0  0
  4  9  1  0  0  0  0
  4 10  1  0  0  0  0
  5  4  2  0  0  0  0
  6  7  2  0  0  0  0
  6  5  1  0  0  0  0
  7  8  1  0  0  0  0
  8  1  1  0  0  0  0
  8  9  2  0  0  0  0
 11  5  1  0  0  0  0
 12  6  1  0  0  0  0
 13 16  1  6  0  0  0
 13 15  1  0  0  0  0
 13  1  1  0  0  0  0
 13 14  1  0  0  0  0
 14 17  1  0  0  0  0
 15 19  1  1  0  0  0
 15 14  1  0  0  0  0
 18 14  1  0  0  0  0
 20 15  1  0  0  0  0
 21 20  2  0  0  0  0
 22 20  1  0  0  0  0
 23 22  1  0  0  0  0
M  END
>  <minimizedAffinity>
-4.72408438

>  <minimizedRMSD>
0.520186126

$$$$
