
 OpenBabel03252514033D

 33 35  0  0  1  0  0  0  0  0999 V2000
   35.3450   29.4450   48.9440 C   0  0  2  0  0  0  0  0  0  0  0  0
   34.2240   29.3630   49.8750 C   0  0  0  0  0  0  0  0  0  0  0  0
   34.5900   28.1150   49.2690 C   0  0  1  0  0  0  0  0  0  0  0  0
   35.2960   29.6930   47.8850 H   0  0  0  0  0  0  0  0  0  0  0  0
   34.4460   29.6010   50.9490 H   0  0  0  0  0  0  0  0  0  0  0  0
   33.2780   29.8930   49.5710 H   0  0  0  0  0  0  0  0  0  0  0  0
   35.2460   27.3380   49.6600 H   0  0  0  0  0  0  0  0  0  0  0  0
   36.7500   29.4290   49.5770 C   0  0  0  0  0  0  0  0  0  0  0  0
   37.2480   28.4770   49.2770 H   0  0  0  0  0  0  0  0  0  0  0  0
   36.6690   29.4820   50.6700 H   0  0  0  0  0  0  0  0  0  0  0  0
   38.1540   32.7980   49.4390 C   0  0  0  0  0  0  0  0  0  0  0  0
   38.8150   32.8060   48.1980 C   0  0  0  0  0  0  0  0  0  0  0  0
   38.7640   31.6280   47.4200 C   0  0  0  0  0  0  0  0  0  0  0  0
   38.0780   30.5520   47.9130 N   0  0  0  0  0  0  0  0  0  0  0  0
   37.4650   30.6010   49.1040 C   0  0  0  0  0  0  0  0  0  0  0  0
   37.5080   31.7300   49.8610 N   0  0  0  0  0  0  0  0  0  0  0  0
   38.1540   33.6660   50.0840 H   0  0  0  0  0  0  0  0  0  0  0  0
   39.3360   33.6690   47.8580 H   0  0  0  0  0  0  0  0  0  0  0  0
   39.2520   31.5740   46.4600 H   0  0  0  0  0  0  0  0  0  0  0  0
   33.6470   27.6150   48.1920 C   0  0  0  0  0  0  0  0  0  0  0  0
   33.9740   26.4510   47.7330 O   0  0  0  0  0  0  0  0  0  0  0  0
   32.5220   28.2740   47.7000 O   0  0  0  0  0  0  0  0  0  0  0  0
   31.2420   27.9700   48.0750 C   0  0  0  0  0  0  0  0  0  0  0  0
   30.7940   27.7220   49.4660 C   0  0  0  0  0  0  0  0  0  0  0  0
   29.4890   27.4350   49.6650 C   0  0  0  0  0  0  0  0  0  0  0  0
   28.5710   27.3700   48.5990 C   0  0  0  0  0  0  0  0  0  0  0  0
   29.6250   27.7500   47.1120 S   0  0  0  0  0  0  0  0  0  0  0  0
   31.5360   27.7860   50.2380 H   0  0  0  0  0  0  0  0  0  0  0  0
   29.0690   27.2410   50.6360 H   0  0  0  0  0  0  0  0  0  0  0  0
   27.2580   27.1210   48.4540 C   0  0  0  0  0  0  0  0  0  0  0  0
   26.4950   27.9720   47.9250 O   0  0  0  0  0  0  0  0  0  0  0  0
   26.7400   25.9120   48.8940 O   0  0  0  0  0  0  0  0  0  0  0  0
   25.7430   25.6540   48.8150 H   0  0  0  0  0  0  0  0  0  0  0  0
  1  4  1  6  0  0  0
  1  3  1  0  0  0  0
  1  8  1  0  0  0  0
  1  2  1  0  0  0  0
  2  5  1  0  0  0  0
  3  7  1  1  0  0  0
  3  2  1  0  0  0  0
  6  2  1  0  0  0  0
  8 10  1  0  0  0  0
  9  8  1  0  0  0  0
 11 16  1  0  0  0  0
 11 17  1  0  0  0  0
 12 11  2  0  0  0  0
 13 14  2  0  0  0  0
 13 12  1  0  0  0  0
 14 15  1  0  0  0  0
 15  8  1  0  0  0  0
 15 16  2  0  0  0  0
 18 12  1  0  0  0  0
 19 13  1  0  0  0  0
 20  3  1  0  0  0  0
 21 20  2  0  0  0  0
 22 23  1  0  0  0  0
 22 20  1  0  0  0  0
 23 24  2  0  0  0  0
 24 25  1  0  0  0  0
 24 28  1  0  0  0  0
 25 29  1  0  0  0  0
 26 25  2  0  0  0  0
 27 23  1  0  0  0  0
 27 26  1  0  0  0  0
 30 26  1  0  0  0  0
 30 32  1  0  0  0  0
 31 30  2  0  0  0  0
 33 32  1  0  0  0  0
M  END
>  <minimizedAffinity>
-5.86407089

>  <minimizedRMSD>
0.312176853

$$$$
