
 OpenBabel03252513163D

 25 26  0  0  1  0  0  0  0  0999 V2000
   36.3710   30.4620   48.6700 N   0  0  0  0  0  0  0  0  0  0  0  0
   37.5900   30.6020   47.8830 C   0  0  0  0  0  0  0  0  0  0  0  0
   37.8920   32.0600   48.0450 C   0  0  0  0  0  0  0  0  0  0  0  0
   37.6600   32.2750   49.5100 C   0  0  0  0  0  0  0  0  0  0  0  0
   36.7300   31.1610   49.8880 C   0  0  2  0  0  0  0  0  0  0  0  0
   38.4030   29.9490   48.1980 H   0  0  0  0  0  0  0  0  0  0  0  0
   37.3090   30.4040   46.8240 H   0  0  0  0  0  0  0  0  0  0  0  0
   38.9780   32.2470   47.8770 H   0  0  0  0  0  0  0  0  0  0  0  0
   37.2870   32.6950   47.3780 H   0  0  0  0  0  0  0  0  0  0  0  0
   38.5960   32.2770   50.1050 H   0  0  0  0  0  0  0  0  0  0  0  0
   37.1100   33.2380   49.5940 H   0  0  0  0  0  0  0  0  0  0  0  0
   35.8190   31.5020   50.4020 H   0  0  0  0  0  0  0  0  0  0  0  0
   35.1680   29.8040   48.3010 C   0  0  0  0  0  0  0  0  0  0  0  0
   34.4930   30.1510   47.1210 C   0  0  0  0  0  0  0  0  0  0  0  0
   33.3000   29.4440   46.8270 C   0  0  0  0  0  0  0  0  0  0  0  0
   32.8750   28.4740   47.6990 N   0  0  0  0  0  0  0  0  0  0  0  0
   33.5630   28.1790   48.8230 C   0  0  0  0  0  0  0  0  0  0  0  0
   34.7030   28.8520   49.1040 N   0  0  0  0  0  0  0  0  0  0  0  0
   34.8670   30.9140   46.4760 H   0  0  0  0  0  0  0  0  0  0  0  0
   32.7450   29.6820   45.9230 H   0  0  0  0  0  0  0  0  0  0  0  0
   33.1760   27.4070   49.4650 H   0  0  0  0  0  0  0  0  0  0  0  0
   37.4230   30.2480   50.8160 C   0  0  0  0  0  0  0  0  0  0  0  0
   37.3200   30.1700   52.0630 O   0  0  0  0  0  0  0  0  0  0  0  0
   38.3650   29.2520   50.5000 O   0  0  0  0  0  0  0  0  0  0  0  0
   38.2040   28.2740   50.7440 H   0  0  0  0  0  0  0  0  0  0  0  0
  1  5  1  0  0  0  0
  2  3  1  0  0  0  0
  2  6  1  0  0  0  0
  2  1  1  0  0  0  0
  3  4  1  0  0  0  0
  4 11  1  0  0  0  0
  4  5  1  0  0  0  0
  4 10  1  0  0  0  0
  5 12  1  1  0  0  0
  5 22  1  0  0  0  0
  7  2  1  0  0  0  0
  8  3  1  0  0  0  0
  9  3  1  0  0  0  0
 13  1  1  0  0  0  0
 13 18  1  0  0  0  0
 14 13  2  0  0  0  0
 15 14  1  0  0  0  0
 15 16  2  0  0  0  0
 16 17  1  0  0  0  0
 17 18  2  0  0  0  0
 17 21  1  0  0  0  0
 19 14  1  0  0  0  0
 20 15  1  0  0  0  0
 22 23  2  0  0  0  0
 24 25  1  0  0  0  0
 24 22  1  0  0  0  0
M  END
>  <minimizedAffinity>
-4.83055258

>  <minimizedRMSD>
1.69449139

$$$$
