
 OpenBabel03252514053D

 25 27  0  0  0  0  0  0  0  0999 V2000
   38.3350   31.8150   47.9610 N   0  0  0  0  0  0  0  0  0  0  0  0
   38.8910   33.0050   48.2930 C   0  0  0  0  0  0  0  0  0  0  0  0
   39.7370   33.3770   47.2890 N   0  0  0  0  0  0  0  0  0  0  0  0
   39.6860   32.4100   46.3590 C   0  0  0  0  0  0  0  0  0  0  0  0
   40.3130   32.2380   45.1460 C   0  0  0  0  0  0  0  0  0  0  0  0
   40.0770   31.1410   44.3860 N   0  0  0  0  0  0  0  0  0  0  0  0
   39.2200   30.1830   44.7940 C   0  0  0  0  0  0  0  0  0  0  0  0
   38.6100   30.3540   45.9780 N   0  0  0  0  0  0  0  0  0  0  0  0
   38.8160   31.4270   46.7610 C   0  0  0  0  0  0  0  0  0  0  0  0
   41.2170   33.2050   44.6700 N   0  0  0  0  0  0  0  0  0  0  0  0
   38.7090   33.5860   49.1980 H   0  0  0  0  0  0  0  0  0  0  0  0
   39.0080   29.2930   44.2110 H   0  0  0  0  0  0  0  0  0  0  0  0
   42.0290   33.6120   45.1660 H   0  0  0  0  0  0  0  0  0  0  0  0
   41.1890   33.6580   43.7180 H   0  0  0  0  0  0  0  0  0  0  0  0
   36.1260   30.8510   48.2360 C   0  0  0  0  0  0  0  0  0  0  0  0
   37.4040   31.1240   48.7700 C   0  0  0  0  0  0  0  0  0  0  0  0
   37.6460   30.6840   50.0730 C   0  0  0  0  0  0  0  0  0  0  0  0
   36.6540   30.0240   50.7490 N   0  0  0  0  0  0  0  0  0  0  0  0
   35.4580   29.7880   50.2010 C   0  0  0  0  0  0  0  0  0  0  0  0
   35.1940   30.1960   48.9560 N   0  0  0  0  0  0  0  0  0  0  0  0
   35.9030   31.1800   47.2220 H   0  0  0  0  0  0  0  0  0  0  0  0
   38.6230   30.8990   50.4680 H   0  0  0  0  0  0  0  0  0  0  0  0
   34.4390   29.0830   50.9630 C   0  0  0  0  0  0  0  0  0  0  0  0
   34.7060   28.2260   51.5800 H   0  0  0  0  0  0  0  0  0  0  0  0
   33.2340   29.4330   50.9360 O   0  0  0  0  0  0  0  0  0  0  0  0
  1  2  1  0  0  0  0
  1 16  1  0  0  0  0
  2 11  1  0  0  0  0
  3  2  2  0  0  0  0
  4  9  1  0  0  0  0
  4  3  1  0  0  0  0
  5  4  2  0  0  0  0
  6  7  2  0  0  0  0
  6  5  1  0  0  0  0
  7  8  1  0  0  0  0
  8  9  2  0  0  0  0
  9  1  1  0  0  0  0
 10  5  1  0  0  0  0
 10 13  1  0  0  0  0
 12  7  1  0  0  0  0
 14 10  1  0  0  0  0
 15 16  2  0  0  0  0
 15 20  1  0  0  0  0
 16 17  1  0  0  0  0
 17 22  1  0  0  0  0
 17 18  2  0  0  0  0
 19 18  1  0  0  0  0
 19 23  1  0  0  0  0
 20 19  2  0  0  0  0
 21 15  1  0  0  0  0
 23 24  1  0  0  0  0
 25 23  2  0  0  0  0
M  END
>  <minimizedAffinity>
-3.89849567

>  <minimizedRMSD>
1.27438807

$$$$
