
 OpenBabel03252514073D

 46 50  0  0  0  0  0  0  0  0999 V2000
   31.2350   24.1490   43.6110 C   0  0  0  0  0  0  0  0  0  0  0  0
   32.7140   27.3340   42.5160 C   0  0  0  0  0  0  0  0  0  0  0  0
   32.9560   28.0210   43.7210 C   0  0  0  0  0  0  0  0  0  0  0  0
   32.5980   27.3620   44.9050 C   0  0  0  0  0  0  0  0  0  0  0  0
   32.0530   26.1280   44.8030 N   0  0  0  0  0  0  0  0  0  0  0  0
   31.8330   25.4980   43.6480 C   0  0  0  0  0  0  0  0  0  0  0  0
   32.1650   26.1030   42.5110 N   0  0  0  0  0  0  0  0  0  0  0  0
   32.9560   27.7580   41.5370 H   0  0  0  0  0  0  0  0  0  0  0  0
   32.7850   27.8910   45.8230 H   0  0  0  0  0  0  0  0  0  0  0  0
   33.5380   29.3150   43.6490 N   0  0  0  0  0  0  0  0  0  0  0  0
   32.8260   30.4660   43.6210 C   0  0  0  0  0  0  0  0  0  0  0  0
   33.6830   31.5080   43.5530 N   0  0  0  0  0  0  0  0  0  0  0  0
   34.9170   30.9890   43.5390 C   0  0  0  0  0  0  0  0  0  0  0  0
   36.1860   31.5420   43.4790 C   0  0  0  0  0  0  0  0  0  0  0  0
   37.2740   30.7790   43.4800 N   0  0  0  0  0  0  0  0  0  0  0  0
   37.2090   29.4100   43.5400 C   0  0  0  0  0  0  0  0  0  0  0  0
   35.9680   28.8920   43.5980 N   0  0  0  0  0  0  0  0  0  0  0  0
   34.8490   29.6120   43.6000 C   0  0  0  0  0  0  0  0  0  0  0  0
   31.7340   30.5060   43.6510 H   0  0  0  0  0  0  0  0  0  0  0  0
   38.0870   28.7770   43.5420 H   0  0  0  0  0  0  0  0  0  0  0  0
   36.3360   32.9410   43.4160 N   0  0  0  0  0  0  0  0  0  0  0  0
   36.9020   33.2470   42.5930 H   0  0  0  0  0  0  0  0  0  0  0  0
   35.8710   33.4930   44.1880 H   0  0  0  0  0  0  0  0  0  0  0  0
   29.8720   24.1620   44.3260 C   0  0  0  0  0  0  0  0  0  0  0  0
   29.2610   23.2930   44.0610 H   0  0  0  0  0  0  0  0  0  0  0  0
   30.0400   24.1800   45.4220 H   0  0  0  0  0  0  0  0  0  0  0  0
   29.3310   25.0860   44.0350 H   0  0  0  0  0  0  0  0  0  0  0  0
   30.8650   23.7890   42.1560 C   0  0  0  0  0  0  0  0  0  0  0  0
   30.1590   24.5220   41.7450 H   0  0  0  0  0  0  0  0  0  0  0  0
   31.7820   23.7070   41.5420 H   0  0  0  0  0  0  0  0  0  0  0  0
   30.4190   22.7740   42.2180 H   0  0  0  0  0  0  0  0  0  0  0  0
   32.1060   23.0520   44.0870 C   0  0  0  0  0  0  0  0  0  0  0  0
   33.1560   23.4770   44.1580 H   0  0  0  0  0  0  0  0  0  0  0  0
   32.2130   22.3330   43.2160 H   0  0  0  0  0  0  0  0  0  0  0  0
   31.7400   22.3750   45.2870 N   0  0  0  0  0  0  0  0  0  0  0  0
   32.3170   22.7820   46.4560 C   0  0  0  0  0  3  0  0  0  0  0  0
   31.8850   22.0310   47.4980 N   0  0  0  0  0  0  0  0  0  0  0  0
   31.0280   21.1350   47.0340 C   0  0  0  0  0  0  0  0  0  0  0  0
   30.2690   20.1260   47.5880 C   0  0  0  0  0  0  0  0  0  0  0  0
   29.4760   19.4040   46.7560 N   0  0  0  0  0  0  0  0  0  0  0  0
   29.4250   19.6530   45.4270 C   0  0  0  0  0  3  0  0  0  0  0  0
   30.1580   20.6310   44.8700 N   0  0  0  0  0  0  0  0  0  0  0  0
   30.9510   21.3600   45.6750 C   0  0  0  0  0  0  0  0  0  0  0  0
   30.3350   19.8790   48.9830 N   0  0  0  0  0  0  0  0  0  0  0  0
   29.8970   20.6140   49.5760 H   0  0  0  0  0  0  0  0  0  0  0  0
   30.8470   18.9520   49.0520 H   0  0  0  0  0  0  0  0  0  0  0  0
  1  6  1  0  0  0  0
  1 32  1  0  0  0  0
  1 24  1  0  0  0  0
  2  3  1  0  0  0  0
  3  4  2  0  0  0  0
  4  9  1  0  0  0  0
  5  4  1  0  0  0  0
  6  5  2  0  0  0  0
  7  2  2  0  0  0  0
  7  6  1  0  0  0  0
  8  2  1  0  0  0  0
 10  3  1  0  0  0  0
 11 10  1  0  0  0  0
 11 19  1  0  0  0  0
 12 11  2  0  0  0  0
 13 12  1  0  0  0  0
 13 18  1  0  0  0  0
 14 15  1  0  0  0  0
 14 13  2  0  0  0  0
 15 16  2  0  0  0  0
 16 20  1  0  0  0  0
 16 17  1  0  0  0  0
 17 18  2  0  0  0  0
 18 10  1  0  0  0  0
 21 14  1  0  0  0  0
 21 23  1  0  0  0  0
 22 21  1  0  0  0  0
 24 26  1  0  0  0  0
 25 24  1  0  0  0  0
 27 24  1  0  0  0  0
 28 31  1  0  0  0  0
 28  1  1  0  0  0  0
 29 28  1  0  0  0  0
 30 28  1  0  0  0  0
 32 33  1  0  0  0  0
 32 35  1  0  0  0  0
 34 32  1  0  0  0  0
 35 43  1  0  0  0  0
 35 36  1  0  0  0  0
 36 37  2  0  0  0  0
 38 37  1  0  0  0  0
 38 39  1  0  0  0  0
 39 44  1  0  0  0  0
 40 39  2  0  0  0  0
 41 40  1  0  0  0  0
 42 41  2  0  0  0  0
 42 43  1  0  0  0  0
 43 38  2  0  0  0  0
 44 46  1  0  0  0  0
 44 45  1  0  0  0  0
M  END
>  <minimizedAffinity>
-3.22804236

>  <minimizedRMSD>
5.66725445

$$$$
