
 OpenBabel03252514063D

 25 27  0  0  0  0  0  0  0  0999 V2000
   37.9790   31.6490   46.3200 N   0  0  0  0  0  0  0  0  0  0  0  0
   39.0520   32.4570   46.4990 C   0  0  0  0  0  0  0  0  0  0  0  0
   39.4060   32.9740   45.2880 N   0  0  0  0  0  0  0  0  0  0  0  0
   38.5460   32.4750   44.3850 C   0  0  0  0  0  0  0  0  0  0  0  0
   38.4110   32.6370   43.0250 C   0  0  0  0  0  0  0  0  0  0  0  0
   37.4310   32.0010   42.3390 N   0  0  0  0  0  0  0  0  0  0  0  0
   36.5560   31.1890   42.9670 C   0  0  0  0  0  0  0  0  0  0  0  0
   36.6900   31.0330   44.2940 N   0  0  0  0  0  0  0  0  0  0  0  0
   37.6480   31.6460   45.0110 C   0  0  0  0  0  0  0  0  0  0  0  0
   39.2950   33.4720   42.3180 N   0  0  0  0  0  0  0  0  0  0  0  0
   39.5610   32.6730   47.4390 H   0  0  0  0  0  0  0  0  0  0  0  0
   35.7600   30.6650   42.4490 H   0  0  0  0  0  0  0  0  0  0  0  0
   40.3300   33.4560   42.3330 H   0  0  0  0  0  0  0  0  0  0  0  0
   39.0160   34.2460   41.6590 H   0  0  0  0  0  0  0  0  0  0  0  0
   35.9860   30.5730   47.1910 C   0  0  0  0  0  0  0  0  0  0  0  0
   37.3390   30.9410   47.3620 C   0  0  0  0  0  0  0  0  0  0  0  0
   37.9410   30.5690   48.5660 C   0  0  0  0  0  0  0  0  0  0  0  0
   37.2050   29.8830   49.4950 N   0  0  0  0  0  0  0  0  0  0  0  0
   35.9260   29.5570   49.2880 C   0  0  0  0  0  0  0  0  0  0  0  0
   35.3200   29.8980   48.1460 N   0  0  0  0  0  0  0  0  0  0  0  0
   35.4850   30.8470   46.2630 H   0  0  0  0  0  0  0  0  0  0  0  0
   38.9710   30.8550   48.6850 H   0  0  0  0  0  0  0  0  0  0  0  0
   35.1890   28.8280   50.3090 C   0  0  0  0  0  0  0  0  0  0  0  0
   34.5730   27.9710   50.0390 H   0  0  0  0  0  0  0  0  0  0  0  0
   35.2360   29.1580   51.5190 O   0  0  0  0  0  0  0  0  0  0  0  0
  1  2  1  0  0  0  0
  1 16  1  0  0  0  0
  2 11  1  0  0  0  0
  3  2  2  0  0  0  0
  4  9  1  0  0  0  0
  4  3  1  0  0  0  0
  5  4  2  0  0  0  0
  6  7  2  0  0  0  0
  6  5  1  0  0  0  0
  7  8  1  0  0  0  0
  8  9  2  0  0  0  0
  9  1  1  0  0  0  0
 10 13  1  0  0  0  0
 10  5  1  0  0  0  0
 12  7  1  0  0  0  0
 14 10  1  0  0  0  0
 15 16  2  0  0  0  0
 15 20  1  0  0  0  0
 16 17  1  0  0  0  0
 17 22  1  0  0  0  0
 17 18  2  0  0  0  0
 19 18  1  0  0  0  0
 19 23  1  0  0  0  0
 20 19  2  0  0  0  0
 21 15  1  0  0  0  0
 23 25  2  0  0  0  0
 24 23  1  0  0  0  0
M  END
>  <minimizedAffinity>
-4.59228897

>  <minimizedRMSD>
2.85957932

$$$$
