
 OpenBabel03252513513D

 34 35  0  0  1  0  0  0  0  0999 V2000
   38.4610   31.6030   46.1210 C   0  0  0  0  0  0  0  0  0  0  0  0
   39.0590   32.6060   46.5650 O   0  0  0  0  0  0  0  0  0  0  0  0
   38.7870   31.2600   44.7710 N   0  0  0  0  0  0  0  0  0  0  0  0
   39.0150   29.8540   44.5020 C   0  0  0  0  0  0  0  0  0  0  0  0
   39.7250   29.6510   43.1840 C   0  0  0  0  0  0  0  0  0  0  0  0
   40.6140   30.7160   43.0310 O   0  0  0  0  0  0  0  0  0  0  0  0
   39.8180   31.8020   42.6160 C   0  0  0  0  0  0  0  0  0  0  0  0
   38.8900   32.2670   43.7090 C   0  0  1  0  0  0  0  0  0  0  0  0
   39.5740   29.3480   45.3350 H   0  0  0  0  0  0  0  0  0  0  0  0
   38.0240   29.3450   44.4270 H   0  0  0  0  0  0  0  0  0  0  0  0
   38.9250   29.6960   42.3880 H   0  0  0  0  0  0  0  0  0  0  0  0
   40.2020   28.6720   43.1330 H   0  0  0  0  0  0  0  0  0  0  0  0
   39.2710   31.4790   41.7110 H   0  0  0  0  0  0  0  0  0  0  0  0
   40.5040   32.6190   42.3040 H   0  0  0  0  0  0  0  0  0  0  0  0
   39.3590   33.1530   44.1850 H   0  0  0  0  0  0  0  0  0  0  0  0
   36.9510   29.7210   49.0220 C   0  0  0  0  0  0  0  0  0  0  0  0
   37.9160   30.4340   48.2160 C   0  0  0  0  0  0  0  0  0  0  0  0
   37.5130   30.8790   46.9650 C   0  0  0  0  0  0  0  0  0  0  0  0
   36.2440   30.6160   46.5820 N   0  0  0  0  0  0  0  0  0  0  0  0
   35.3760   29.9540   47.3520 C   0  0  0  0  0  0  0  0  0  0  0  0
   35.7290   29.5170   48.5510 N   0  0  0  0  0  0  0  0  0  0  0  0
   38.9330   30.6340   48.5480 H   0  0  0  0  0  0  0  0  0  0  0  0
   34.0210   29.7580   46.7650 C   0  0  0  0  0  0  0  0  0  0  0  0
   34.1340   29.2880   45.4460 F   0  0  0  0  0  0  0  0  0  0  0  0
   33.3590   28.7740   47.4550 F   0  0  0  0  0  0  0  0  0  0  0  0
   33.2380   30.8890   46.8290 F   0  0  0  0  0  0  0  0  0  0  0  0
   37.3750   29.2880   50.2660 O   0  0  0  0  0  0  0  0  0  0  0  0
   36.9650   29.8260   51.4750 C   0  0  0  0  0  0  0  0  0  0  0  0
   35.7080   29.3950   51.8710 F   0  0  0  0  0  0  0  0  0  0  0  0
   37.8600   29.6810   52.4990 F   0  0  0  0  0  0  0  0  0  0  0  0
   36.8620   31.2180   51.2420 F   0  0  0  0  0  0  0  0  0  0  0  0
   37.5400   32.6130   43.1800 C   0  0  0  0  0  0  0  0  0  0  0  0
   37.3310   33.5270   42.5940 H   0  0  0  0  0  0  0  0  0  0  0  0
   36.5130   31.9340   43.3280 O   0  0  0  0  0  0  0  0  0  0  0  0
  1  2  2  0  0  0  0
  1 18  1  0  0  0  0
  3  1  1  0  0  0  0
  4  3  1  0  0  0  0
  4  9  1  0  0  0  0
  5  4  1  0  0  0  0
  6  5  1  0  0  0  0
  7  6  1  0  0  0  0
  7  8  1  0  0  0  0
  8 15  1  1  0  0  0
  8  3  1  0  0  0  0
 10  4  1  0  0  0  0
 11  5  1  0  0  0  0
 12  5  1  0  0  0  0
 13  7  1  0  0  0  0
 14  7  1  0  0  0  0
 16 27  1  0  0  0  0
 17 22  1  0  0  0  0
 17 16  2  0  0  0  0
 18 17  1  0  0  0  0
 19 18  2  0  0  0  0
 19 20  1  0  0  0  0
 20 21  2  0  0  0  0
 21 16  1  0  0  0  0
 23 26  1  0  0  0  0
 23 20  1  0  0  0  0
 23 25  1  0  0  0  0
 24 23  1  0  0  0  0
 27 28  1  0  0  0  0
 28 29  1  0  0  0  0
 28 30  1  0  0  0  0
 31 28  1  0  0  0  0
 32 34  2  0  0  0  0
 32  8  1  0  0  0  0
 33 32  1  0  0  0  0
M  END
>  <minimizedAffinity>
-6.22823572

>  <minimizedRMSD>
2.58848786

$$$$
