
 OpenBabel03252514053D

 25 27  0  0  0  0  0  0  0  0999 V2000
   38.0410   31.6920   46.3270 N   0  0  0  0  0  0  0  0  0  0  0  0
   39.1220   32.4960   46.4710 C   0  0  0  0  0  0  0  0  0  0  0  0
   39.4490   32.9980   45.2460 N   0  0  0  0  0  0  0  0  0  0  0  0
   38.5640   32.4950   44.3700 C   0  0  0  0  0  0  0  0  0  0  0  0
   38.3960   32.6440   43.0120 C   0  0  0  0  0  0  0  0  0  0  0  0
   37.3960   32.0070   42.3570 N   0  0  0  0  0  0  0  0  0  0  0  0
   36.5330   31.2070   43.0150 C   0  0  0  0  0  0  0  0  0  0  0  0
   36.6990   31.0640   44.3400 N   0  0  0  0  0  0  0  0  0  0  0  0
   37.6780   31.6780   45.0270 C   0  0  0  0  0  0  0  0  0  0  0  0
   39.2670   33.4660   42.2750 N   0  0  0  0  0  0  0  0  0  0  0  0
   39.6550   32.7190   47.3960 H   0  0  0  0  0  0  0  0  0  0  0  0
   35.7210   30.6810   42.5220 H   0  0  0  0  0  0  0  0  0  0  0  0
   40.3020   33.4450   42.2640 H   0  0  0  0  0  0  0  0  0  0  0  0
   38.9760   34.2350   41.6150 H   0  0  0  0  0  0  0  0  0  0  0  0
   36.0800   30.5890   47.2360 C   0  0  0  0  0  0  0  0  0  0  0  0
   37.4230   30.9980   47.3920 C   0  0  0  0  0  0  0  0  0  0  0  0
   38.0370   30.6800   48.6040 C   0  0  0  0  0  0  0  0  0  0  0  0
   37.3220   30.0030   49.5560 N   0  0  0  0  0  0  0  0  0  0  0  0
   36.0530   29.6350   49.3620 C   0  0  0  0  0  0  0  0  0  0  0  0
   35.4350   29.9240   48.2130 N   0  0  0  0  0  0  0  0  0  0  0  0
   35.5700   30.8210   46.3010 H   0  0  0  0  0  0  0  0  0  0  0  0
   39.0590   30.9980   48.7120 H   0  0  0  0  0  0  0  0  0  0  0  0
   35.3380   28.9170   50.4070 C   0  0  0  0  0  0  0  0  0  0  0  0
   34.6820   28.0840   50.1550 H   0  0  0  0  0  0  0  0  0  0  0  0
   35.4520   29.2260   51.6180 O   0  0  0  0  0  0  0  0  0  0  0  0
  1  2  1  0  0  0  0
  1 16  1  0  0  0  0
  2 11  1  0  0  0  0
  3  2  2  0  0  0  0
  4  9  1  0  0  0  0
  4  3  1  0  0  0  0
  5  4  2  0  0  0  0
  6  5  1  0  0  0  0
  6  7  2  0  0  0  0
  7  8  1  0  0  0  0
  8  9  2  0  0  0  0
  9  1  1  0  0  0  0
 10  5  1  0  0  0  0
 12  7  1  0  0  0  0
 13 10  1  0  0  0  0
 14 10  1  0  0  0  0
 15 16  2  0  0  0  0
 15 20  1  0  0  0  0
 16 17  1  0  0  0  0
 17 22  1  0  0  0  0
 17 18  2  0  0  0  0
 19 18  1  0  0  0  0
 19 23  1  0  0  0  0
 20 19  2  0  0  0  0
 21 15  1  0  0  0  0
 23 25  2  0  0  0  0
 24 23  1  0  0  0  0
M  END
>  <minimizedAffinity>
-4.61271667

>  <minimizedRMSD>
2.86303973

$$$$
