
 OpenBabel03252514063D

 25 27  0  0  0  0  0  0  0  0999 V2000
   36.7800   31.0510   48.2660 N   0  0  0  0  0  0  0  0  0  0  0  0
   37.1790   31.8500   49.2850 C   0  0  0  0  0  0  0  0  0  0  0  0
   38.1880   32.6480   48.8330 N   0  0  0  0  0  0  0  0  0  0  0  0
   38.3930   32.3250   47.5460 C   0  0  0  0  0  0  0  0  0  0  0  0
   39.2670   32.7860   46.5880 C   0  0  0  0  0  0  0  0  0  0  0  0
   39.2630   32.2750   45.3330 N   0  0  0  0  0  0  0  0  0  0  0  0
   38.4030   31.2980   44.9830 C   0  0  0  0  0  0  0  0  0  0  0  0
   37.5510   30.8490   45.9200 N   0  0  0  0  0  0  0  0  0  0  0  0
   37.5230   31.3300   47.1750 C   0  0  0  0  0  0  0  0  0  0  0  0
   40.1870   33.8050   46.8970 N   0  0  0  0  0  0  0  0  0  0  0  0
   36.7770   31.8710   50.2990 H   0  0  0  0  0  0  0  0  0  0  0  0
   38.3730   30.8650   43.9880 H   0  0  0  0  0  0  0  0  0  0  0  0
   40.8510   33.8390   47.6900 H   0  0  0  0  0  0  0  0  0  0  0  0
   40.3280   34.6940   46.3480 H   0  0  0  0  0  0  0  0  0  0  0  0
   34.6200   30.2250   47.5320 C   0  0  0  0  0  0  0  0  0  0  0  0
   35.7470   30.0910   48.3720 C   0  0  0  0  0  0  0  0  0  0  0  0
   35.7480   29.0060   49.2500 C   0  0  0  0  0  0  0  0  0  0  0  0
   34.6810   28.1480   49.2510 N   0  0  0  0  0  0  0  0  0  0  0  0
   33.6350   28.3150   48.4370 C   0  0  0  0  0  0  0  0  0  0  0  0
   33.6020   29.3440   47.5840 N   0  0  0  0  0  0  0  0  0  0  0  0
   34.5860   31.0610   46.8340 H   0  0  0  0  0  0  0  0  0  0  0  0
   36.6120   28.9150   49.8840 H   0  0  0  0  0  0  0  0  0  0  0  0
   32.5260   27.3750   48.4780 C   0  0  0  0  0  0  0  0  0  0  0  0
   32.6310   26.3790   48.0500 H   0  0  0  0  0  0  0  0  0  0  0  0
   31.4260   27.6730   49.0030 O   0  0  0  0  0  0  0  0  0  0  0  0
  1 16  1  0  0  0  0
  1  2  1  0  0  0  0
  2 11  1  0  0  0  0
  3  2  2  0  0  0  0
  4  3  1  0  0  0  0
  5 10  1  0  0  0  0
  5  4  2  0  0  0  0
  6  5  1  0  0  0  0
  7  6  2  0  0  0  0
  7  8  1  0  0  0  0
  8  9  2  0  0  0  0
  9  4  1  0  0  0  0
  9  1  1  0  0  0  0
 10 13  1  0  0  0  0
 12  7  1  0  0  0  0
 14 10  1  0  0  0  0
 15 20  2  0  0  0  0
 15 16  1  0  0  0  0
 16 17  2  0  0  0  0
 17 18  1  0  0  0  0
 17 22  1  0  0  0  0
 19 23  1  0  0  0  0
 19 18  2  0  0  0  0
 20 19  1  0  0  0  0
 21 15  1  0  0  0  0
 23 25  2  0  0  0  0
 24 23  1  0  0  0  0
M  END
>  <minimizedAffinity>
-5.14546299

>  <minimizedRMSD>
2.36919332

$$$$
