
 OpenBabel03252512443D

 36 39  0  0  1  0  0  0  0  0999 V2000
   39.2330   30.5600   44.2810 C   0  0  2  0  0  0  0  0  0  0  0  0
   38.8920   29.5080   44.3100 H   0  0  0  0  0  0  0  0  0  0  0  0
   38.3710   31.1560   47.7920 C   0  0  0  0  0  0  0  0  0  0  0  0
   38.9250   32.4560   47.9160 C   0  0  0  0  0  0  0  0  0  0  0  0
   39.6290   32.7980   46.2500 S   0  0  0  0  0  0  0  0  0  0  0  0
   39.0320   31.0780   45.6710 C   0  0  0  0  0  0  0  0  0  0  0  0
   38.5420   30.6640   46.5890 N   0  0  0  0  0  0  0  0  0  0  0  0
   38.9310   33.1040   48.8010 H   0  0  0  0  0  0  0  0  0  0  0  0
   38.1200   30.8850   50.2400 C   0  0  0  0  0  0  0  0  0  0  0  0
   37.7080   30.5610   48.9440 C   0  0  0  0  0  0  0  0  0  0  0  0
   36.6460   29.6640   48.8420 C   0  0  0  0  0  0  0  0  0  0  0  0
   36.0870   29.1680   49.9690 N   0  0  0  0  0  0  0  0  0  0  0  0
   36.5250   29.5160   51.1940 C   0  0  0  0  0  0  0  0  0  0  0  0
   37.5430   30.3760   51.3260 N   0  0  0  0  0  0  0  0  0  0  0  0
   38.9440   31.5820   50.3200 H   0  0  0  0  0  0  0  0  0  0  0  0
   36.3310   29.4170   47.8380 H   0  0  0  0  0  0  0  0  0  0  0  0
   35.9440   29.0080   51.9620 H   0  0  0  0  0  0  0  0  0  0  0  0
   40.6830   30.7180   43.9530 C   0  0  0  0  0  0  0  0  0  0  0  0
   41.0490   31.6960   44.3030 H   0  0  0  0  0  0  0  0  0  0  0  0
   40.7460   30.7430   42.8280 H   0  0  0  0  0  0  0  0  0  0  0  0
   41.2960   29.8690   44.3240 H   0  0  0  0  0  0  0  0  0  0  0  0
   38.3800   31.3800   43.3270 C   0  0  0  0  0  0  0  0  0  0  0  0
   38.5470   32.4530   43.4360 H   0  0  0  0  0  0  0  0  0  0  0  0
   38.7650   31.1180   42.3060 H   0  0  0  0  0  0  0  0  0  0  0  0
   36.9890   31.0100   43.3650 N   0  0  0  0  0  0  0  0  0  0  0  0
   36.5100   29.7770   43.6660 C   0  0  0  0  0  0  0  0  0  0  0  0
   35.1470   29.7390   43.6260 N   0  0  0  0  0  0  0  0  0  0  0  0
   34.7290   30.9760   43.2910 C   0  0  0  0  0  0  0  0  0  0  0  0
   33.4760   31.5520   43.0930 C   0  0  0  0  0  0  0  0  0  0  0  0
   33.3690   32.8590   42.7470 N   0  0  0  0  0  0  0  0  0  0  0  0
   34.5050   33.5820   42.6010 C   0  0  0  0  0  0  0  0  0  0  0  0
   35.6960   33.0030   42.7980 N   0  0  0  0  0  0  0  0  0  0  0  0
   35.8730   31.7200   43.1400 C   0  0  0  0  0  0  0  0  0  0  0  0
   32.3160   30.7430   43.2600 N   0  0  0  0  0  0  0  0  0  0  0  0
   31.4220   31.1650   43.6140 H   0  0  0  0  0  0  0  0  0  0  0  0
   32.3240   29.7240   43.0390 H   0  0  0  0  0  0  0  0  0  0  0  0
  1  2  1  6  0  0  0
  1  6  1  0  0  0  0
  3  4  2  0  0  0  0
  3 10  1  0  0  0  0
  4  8  1  0  0  0  0
  5  4  1  0  0  0  0
  6  5  1  0  0  0  0
  6  7  2  0  0  0  0
  7  3  1  0  0  0  0
  9 15  1  0  0  0  0
  9 14  1  0  0  0  0
 10  9  2  0  0  0  0
 11 10  1  0  0  0  0
 11 12  2  0  0  0  0
 12 13  1  0  0  0  0
 13 14  2  0  0  0  0
 13 17  1  0  0  0  0
 16 11  1  0  0  0  0
 18  1  1  0  0  0  0
 18 19  1  0  0  0  0
 18 21  1  0  0  0  0
 20 18  1  0  0  0  0
 22 25  1  0  0  0  0
 22 23  1  0  0  0  0
 22  1  1  0  0  0  0
 24 22  1  0  0  0  0
 25 26  1  0  0  0  0
 27 26  2  0  0  0  0
 28 27  1  0  0  0  0
 29 34  1  0  0  0  0
 29 28  2  0  0  0  0
 30 29  1  0  0  0  0
 31 30  2  0  0  0  0
 31 32  1  0  0  0  0
 32 33  2  0  0  0  0
 33 28  1  0  0  0  0
 33 25  1  0  0  0  0
 34 35  1  0  0  0  0
 36 34  1  0  0  0  0
M  END
>  <minimizedAffinity>
-5.43878031

>  <minimizedRMSD>
1.64333451

$$$$
