
 OpenBabel03212520573D

 29 31  0  0  0  0  0  0  0  0999 V2000
   41.5670   71.5290   61.0270 C   0  0  0  0  0  0  0  0  0  0  0  0
   41.1540   72.3940   62.0220 C   0  0  0  0  0  0  0  0  0  0  0  0
   40.5390   73.5330   61.6500 C   0  0  0  0  0  0  0  0  0  0  0  0
   40.3410   73.8010   60.3040 C   0  0  0  0  0  0  0  0  0  0  0  0
   41.0830   72.3210   59.4710 S   0  0  0  0  0  0  0  0  0  0  0  0
   41.3090   72.1850   63.0790 H   0  0  0  0  0  0  0  0  0  0  0  0
   40.1470   74.3290   62.2660 H   0  0  0  0  0  0  0  0  0  0  0  0
   42.7760   68.1010   60.5290 C   0  0  0  0  0  0  0  0  0  0  0  0
   43.5080   67.8410   61.7190 C   0  0  0  0  0  0  0  0  0  0  0  0
   43.5750   68.8430   62.6680 C   0  0  0  0  0  0  0  0  0  0  0  0
   42.9440   70.0120   62.4200 N   0  0  0  0  0  0  0  0  0  0  0  0
   42.2580   70.2330   61.2850 C   0  0  0  0  0  0  0  0  0  0  0  0
   42.1780   69.2900   60.3580 N   0  0  0  0  0  0  0  0  0  0  0  0
   42.7130   67.3230   59.7690 H   0  0  0  0  0  0  0  0  0  0  0  0
   44.0020   66.8980   61.8910 H   0  0  0  0  0  0  0  0  0  0  0  0
   44.1080   68.7390   63.6040 H   0  0  0  0  0  0  0  0  0  0  0  0
   39.7530   74.8590   59.5250 C   0  0  0  0  0  0  0  0  0  0  0  0
   40.1930   76.1300   59.6950 C   0  0  0  0  0  0  0  0  0  0  0  0
   39.5240   77.0500   58.8640 C   0  0  0  0  0  0  0  0  0  0  0  0
   38.5580   76.7200   57.9960 N   0  0  0  0  0  0  0  0  0  0  0  0
   38.1890   75.4270   57.8990 C   0  0  0  0  0  0  0  0  0  0  0  0
   38.7830   74.4760   58.6650 N   0  0  0  0  0  0  0  0  0  0  0  0
   40.9550   76.4580   60.3660 H   0  0  0  0  0  0  0  0  0  0  0  0
   39.7800   78.1130   58.8970 H   0  0  0  0  0  0  0  0  0  0  0  0
   37.1400   75.0730   56.9550 C   0  0  0  0  0  0  0  0  0  0  0  0
   36.5650   76.0240   56.3450 O   0  0  0  0  0  0  0  0  0  0  0  0
   36.7960   73.7180   56.7460 N   0  0  0  0  0  0  0  0  0  0  0  0
   37.5100   72.9840   56.9510 H   0  0  0  0  0  0  0  0  0  0  0  0
   35.8320   73.5400   56.3950 H   0  0  0  0  0  0  0  0  0  0  0  0
  1 12  1  0  0  0  0
  1  2  2  0  0  0  0
  2  6  1  0  0  0  0
  3  2  1  0  0  0  0
  3  7  1  0  0  0  0
  4  3  2  0  0  0  0
  5  4  1  0  0  0  0
  5  1  1  0  0  0  0
  8  9  1  0  0  0  0
  9 15  1  0  0  0  0
  9 10  2  0  0  0  0
 10 16  1  0  0  0  0
 11 10  1  0  0  0  0
 12 11  2  0  0  0  0
 13  8  2  0  0  0  0
 13 12  1  0  0  0  0
 14  8  1  0  0  0  0
 17 18  1  0  0  0  0
 17  4  1  0  0  0  0
 18 23  1  0  0  0  0
 19 24  1  0  0  0  0
 19 18  2  0  0  0  0
 20 19  1  0  0  0  0
 21 20  2  0  0  0  0
 21 22  1  0  0  0  0
 22 17  2  0  0  0  0
 25 21  1  0  0  0  0
 26 25  2  0  0  0  0
 27 28  1  0  0  0  0
 27 25  1  0  0  0  0
 29 27  1  0  0  0  0
M  END
>  <minimizedAffinity>
-5.75938845

$$$$

 OpenBabel03212520573D

 29 31  0  0  0  0  0  0  0  0999 V2000
   42.5050   70.3400   61.7290 C   0  0  0  0  0  0  0  0  0  0  0  0
   41.9930   71.1590   62.7180 C   0  0  0  0  0  0  0  0  0  0  0  0
   41.1810   72.1650   62.3430 C   0  0  0  0  0  0  0  0  0  0  0  0
   40.8870   72.3500   61.0010 C   0  0  0  0  0  0  0  0  0  0  0  0
   41.8330   70.9870   60.1760 S   0  0  0  0  0  0  0  0  0  0  0  0
   42.2240   71.0150   63.7720 H   0  0  0  0  0  0  0  0  0  0  0  0
   40.6860   72.9050   62.9550 H   0  0  0  0  0  0  0  0  0  0  0  0
   44.8630   67.5950   61.1240 C   0  0  0  0  0  0  0  0  0  0  0  0
   45.0860   67.0700   62.4250 C   0  0  0  0  0  0  0  0  0  0  0  0
   44.4290   67.6650   63.4850 C   0  0  0  0  0  0  0  0  0  0  0  0
   43.6090   68.7090   63.2320 N   0  0  0  0  0  0  0  0  0  0  0  0
   43.4140   69.1870   61.9910 C   0  0  0  0  0  0  0  0  0  0  0  0
   44.0330   68.6370   60.9570 N   0  0  0  0  0  0  0  0  0  0  0  0
   45.3740   67.1390   60.2770 H   0  0  0  0  0  0  0  0  0  0  0  0
   45.7470   66.2350   62.5980 H   0  0  0  0  0  0  0  0  0  0  0  0
   44.5350   67.3360   64.5100 H   0  0  0  0  0  0  0  0  0  0  0  0
   40.0990   73.2680   60.2200 C   0  0  0  0  0  0  0  0  0  0  0  0
   40.1190   74.5880   60.5300 C   0  0  0  0  0  0  0  0  0  0  0  0
   39.3010   75.3550   59.6780 C   0  0  0  0  0  0  0  0  0  0  0  0
   38.5770   74.8520   58.6700 N   0  0  0  0  0  0  0  0  0  0  0  0
   38.6230   73.5240   58.4410 C   0  0  0  0  0  0  0  0  0  0  0  0
   39.3860   72.7110   59.2160 N   0  0  0  0  0  0  0  0  0  0  0  0
   40.6710   75.0500   61.3160 H   0  0  0  0  0  0  0  0  0  0  0  0
   39.2240   76.4390   59.8140 H   0  0  0  0  0  0  0  0  0  0  0  0
   37.8350   72.9810   57.3450 C   0  0  0  0  0  0  0  0  0  0  0  0
   38.0870   71.7920   56.9840 O   0  0  0  0  0  0  0  0  0  0  0  0
   36.8370   73.7670   56.7250 N   0  0  0  0  0  0  0  0  0  0  0  0
   36.4080   74.5490   57.2680 H   0  0  0  0  0  0  0  0  0  0  0  0
   36.5930   73.5070   55.7470 H   0  0  0  0  0  0  0  0  0  0  0  0
  1 12  1  0  0  0  0
  1  2  2  0  0  0  0
  2  6  1  0  0  0  0
  3  2  1  0  0  0  0
  3  7  1  0  0  0  0
  4  3  2  0  0  0  0
  5  4  1  0  0  0  0
  5  1  1  0  0  0  0
  8  9  1  0  0  0  0
  9 15  1  0  0  0  0
  9 10  2  0  0  0  0
 10 16  1  0  0  0  0
 11 10  1  0  0  0  0
 12 11  2  0  0  0  0
 13  8  2  0  0  0  0
 13 12  1  0  0  0  0
 14  8  1  0  0  0  0
 17 18  1  0  0  0  0
 17  4  1  0  0  0  0
 18 23  1  0  0  0  0
 19 24  1  0  0  0  0
 19 18  2  0  0  0  0
 20 19  1  0  0  0  0
 21 20  2  0  0  0  0
 21 22  1  0  0  0  0
 22 17  2  0  0  0  0
 25 21  1  0  0  0  0
 26 25  2  0  0  0  0
 27 28  1  0  0  0  0
 27 25  1  0  0  0  0
 29 27  1  0  0  0  0
M  END
>  <minimizedAffinity>
-5.63820982

$$$$

 OpenBabel03212520573D

 29 31  0  0  0  0  0  0  0  0999 V2000
   42.0540   70.0200   61.8160 C   0  0  0  0  0  0  0  0  0  0  0  0
   42.1710   70.9530   62.8280 C   0  0  0  0  0  0  0  0  0  0  0  0
   42.2200   72.2530   62.4830 C   0  0  0  0  0  0  0  0  0  0  0  0
   42.1530   72.6140   61.1460 C   0  0  0  0  0  0  0  0  0  0  0  0
   42.0070   70.9820   60.2810 S   0  0  0  0  0  0  0  0  0  0  0  0
   42.2230   70.6700   63.8780 H   0  0  0  0  0  0  0  0  0  0  0  0
   42.3090   73.1240   63.1170 H   0  0  0  0  0  0  0  0  0  0  0  0
   41.4650   66.8080   63.4870 C   0  0  0  0  0  0  0  0  0  0  0  0
   41.8490   65.8570   62.5030 C   0  0  0  0  0  0  0  0  0  0  0  0
   42.3010   66.3320   61.2870 C   0  0  0  0  0  0  0  0  0  0  0  0
   42.3560   67.6690   61.0950 N   0  0  0  0  0  0  0  0  0  0  0  0
   41.9860   68.5480   62.0430 C   0  0  0  0  0  0  0  0  0  0  0  0
   41.5480   68.1200   63.2180 N   0  0  0  0  0  0  0  0  0  0  0  0
   41.1050   66.4500   64.4520 H   0  0  0  0  0  0  0  0  0  0  0  0
   41.7940   64.7950   62.6830 H   0  0  0  0  0  0  0  0  0  0  0  0
   42.6150   65.6870   60.4770 H   0  0  0  0  0  0  0  0  0  0  0  0
   42.1730   73.8410   60.3930 C   0  0  0  0  0  0  0  0  0  0  0  0
   43.3420   74.2680   59.8540 C   0  0  0  0  0  0  0  0  0  0  0  0
   43.2010   75.4790   59.1480 C   0  0  0  0  0  0  0  0  0  0  0  0
   42.0470   76.1460   59.0150 N   0  0  0  0  0  0  0  0  0  0  0  0
   40.9370   75.6390   59.5880 C   0  0  0  0  0  0  0  0  0  0  0  0
   40.9850   74.4770   60.2880 N   0  0  0  0  0  0  0  0  0  0  0  0
   44.2900   73.7860   59.9230 H   0  0  0  0  0  0  0  0  0  0  0  0
   44.0660   75.9390   58.6600 H   0  0  0  0  0  0  0  0  0  0  0  0
   39.6850   76.3660   59.4410 C   0  0  0  0  0  0  0  0  0  0  0  0
   39.7510   77.6320   59.4110 O   0  0  0  0  0  0  0  0  0  0  0  0
   38.4610   75.6670   59.3380 N   0  0  0  0  0  0  0  0  0  0  0  0
   38.4750   74.6830   58.9880 H   0  0  0  0  0  0  0  0  0  0  0  0
   37.6090   76.1920   59.6250 H   0  0  0  0  0  0  0  0  0  0  0  0
  1 12  1  0  0  0  0
  1  2  2  0  0  0  0
  2  6  1  0  0  0  0
  3  2  1  0  0  0  0
  3  7  1  0  0  0  0
  4  3  2  0  0  0  0
  5  4  1  0  0  0  0
  5  1  1  0  0  0  0
  8 14  1  0  0  0  0
  9 15  1  0  0  0  0
  9  8  2  0  0  0  0
 10  9  1  0  0  0  0
 11 10  2  0  0  0  0
 11 12  1  0  0  0  0
 12 13  2  0  0  0  0
 13  8  1  0  0  0  0
 16 10  1  0  0  0  0
 17  4  1  0  0  0  0
 18 23  1  0  0  0  0
 18 17  2  0  0  0  0
 19 18  1  0  0  0  0
 20 19  2  0  0  0  0
 20 21  1  0  0  0  0
 21 22  2  0  0  0  0
 22 17  1  0  0  0  0
 24 19  1  0  0  0  0
 25 21  1  0  0  0  0
 26 25  2  0  0  0  0
 27 25  1  0  0  0  0
 27 29  1  0  0  0  0
 28 27  1  0  0  0  0
M  END
>  <minimizedAffinity>
-5.54971409

$$$$

 OpenBabel03212520573D

 29 31  0  0  0  0  0  0  0  0999 V2000
   42.3060   70.1450   61.5590 C   0  0  0  0  0  0  0  0  0  0  0  0
   42.1170   70.8480   62.7330 C   0  0  0  0  0  0  0  0  0  0  0  0
   41.6000   72.0880   62.6480 C   0  0  0  0  0  0  0  0  0  0  0  0
   41.2770   72.6160   61.4070 C   0  0  0  0  0  0  0  0  0  0  0  0
   41.7390   71.2510   60.2410 S   0  0  0  0  0  0  0  0  0  0  0  0
   42.3700   70.4340   63.7080 H   0  0  0  0  0  0  0  0  0  0  0  0
   41.3780   72.7900   63.4380 H   0  0  0  0  0  0  0  0  0  0  0  0
   42.4580   66.4810   61.4660 C   0  0  0  0  0  0  0  0  0  0  0  0
   43.8520   66.2180   61.3850 C   0  0  0  0  0  0  0  0  0  0  0  0
   44.7130   67.2980   61.3620 C   0  0  0  0  0  0  0  0  0  0  0  0
   44.1900   68.5420   61.4190 N   0  0  0  0  0  0  0  0  0  0  0  0
   42.8670   68.7640   61.4960 C   0  0  0  0  0  0  0  0  0  0  0  0
   42.0180   67.7480   61.5180 N   0  0  0  0  0  0  0  0  0  0  0  0
   41.7640   65.6400   61.4840 H   0  0  0  0  0  0  0  0  0  0  0  0
   44.2420   65.2130   61.3400 H   0  0  0  0  0  0  0  0  0  0  0  0
   45.7890   67.1980   61.3020 H   0  0  0  0  0  0  0  0  0  0  0  0
   40.7300   73.8500   60.9060 C   0  0  0  0  0  0  0  0  0  0  0  0
   39.4210   74.1300   61.1210 C   0  0  0  0  0  0  0  0  0  0  0  0
   39.0370   75.3700   60.5740 C   0  0  0  0  0  0  0  0  0  0  0  0
   39.8610   76.1920   59.9110 N   0  0  0  0  0  0  0  0  0  0  0  0
   41.1480   75.8240   59.7480 C   0  0  0  0  0  0  0  0  0  0  0  0
   41.6010   74.6440   60.2440 N   0  0  0  0  0  0  0  0  0  0  0  0
   38.7150   73.5220   61.6390 H   0  0  0  0  0  0  0  0  0  0  0  0
   38.0060   75.7230   60.6750 H   0  0  0  0  0  0  0  0  0  0  0  0
   42.0400   76.7190   59.0280 C   0  0  0  0  0  0  0  0  0  0  0  0
   42.6050   77.6350   59.6970 O   0  0  0  0  0  0  0  0  0  0  0  0
   42.2510   76.5520   57.6400 N   0  0  0  0  0  0  0  0  0  0  0  0
   42.0950   75.6080   57.2210 H   0  0  0  0  0  0  0  0  0  0  0  0
   42.5540   77.4010   57.1180 H   0  0  0  0  0  0  0  0  0  0  0  0
  1  2  2  0  0  0  0
  2  6  1  0  0  0  0
  3  2  1  0  0  0  0
  3  7  1  0  0  0  0
  4  3  2  0  0  0  0
  5  4  1  0  0  0  0
  5  1  1  0  0  0  0
  8 14  1  0  0  0  0
  8 13  1  0  0  0  0
  9  8  2  0  0  0  0
 10  9  1  0  0  0  0
 10 11  2  0  0  0  0
 11 12  1  0  0  0  0
 12 13  2  0  0  0  0
 12  1  1  0  0  0  0
 15  9  1  0  0  0  0
 16 10  1  0  0  0  0
 17 18  1  0  0  0  0
 17  4  1  0  0  0  0
 18 23  1  0  0  0  0
 19 24  1  0  0  0  0
 19 18  2  0  0  0  0
 20 19  1  0  0  0  0
 21 20  2  0  0  0  0
 21 22  1  0  0  0  0
 22 17  2  0  0  0  0
 25 26  2  0  0  0  0
 25 21  1  0  0  0  0
 27 25  1  0  0  0  0
 28 27  1  0  0  0  0
 29 27  1  0  0  0  0
M  END
>  <minimizedAffinity>
-5.44240904

$$$$

 OpenBabel03212520573D

 29 31  0  0  0  0  0  0  0  0999 V2000
   40.9220   73.1940   60.5180 C   0  0  0  0  0  0  0  0  0  0  0  0
   41.2900   73.1220   61.8480 C   0  0  0  0  0  0  0  0  0  0  0  0
   41.8270   71.9690   62.2900 C   0  0  0  0  0  0  0  0  0  0  0  0
   41.9930   70.9060   61.4160 C   0  0  0  0  0  0  0  0  0  0  0  0
   41.3380   71.5760   59.8170 S   0  0  0  0  0  0  0  0  0  0  0  0
   41.1590   73.9560   62.5350 H   0  0  0  0  0  0  0  0  0  0  0  0
   42.1740   71.7150   63.2810 H   0  0  0  0  0  0  0  0  0  0  0  0
   39.4620   75.3930   57.9700 C   0  0  0  0  0  0  0  0  0  0  0  0
   39.2100   76.5940   58.6860 C   0  0  0  0  0  0  0  0  0  0  0  0
   39.5430   76.6290   60.0270 C   0  0  0  0  0  0  0  0  0  0  0  0
   40.0890   75.5270   60.5860 N   0  0  0  0  0  0  0  0  0  0  0  0
   40.3170   74.4020   59.8850 C   0  0  0  0  0  0  0  0  0  0  0  0
   40.0070   74.3410   58.5990 N   0  0  0  0  0  0  0  0  0  0  0  0
   39.2050   75.3480   56.9120 H   0  0  0  0  0  0  0  0  0  0  0  0
   38.7720   77.4600   58.2140 H   0  0  0  0  0  0  0  0  0  0  0  0
   39.3890   77.4970   60.6550 H   0  0  0  0  0  0  0  0  0  0  0  0
   42.5040   69.5620   61.4900 C   0  0  0  0  0  0  0  0  0  0  0  0
   43.7750   69.3130   61.0900 C   0  0  0  0  0  0  0  0  0  0  0  0
   44.1280   67.9560   61.2230 C   0  0  0  0  0  0  0  0  0  0  0  0
   43.3090   67.0050   61.6910 N   0  0  0  0  0  0  0  0  0  0  0  0
   42.0610   67.3520   62.0640 C   0  0  0  0  0  0  0  0  0  0  0  0
   41.6390   68.6390   61.9670 N   0  0  0  0  0  0  0  0  0  0  0  0
   44.4750   70.0220   60.7100 H   0  0  0  0  0  0  0  0  0  0  0  0
   45.1270   67.6140   60.9380 H   0  0  0  0  0  0  0  0  0  0  0  0
   41.1740   66.3160   62.5720 C   0  0  0  0  0  0  0  0  0  0  0  0
   39.9720   66.3360   62.1710 O   0  0  0  0  0  0  0  0  0  0  0  0
   41.6580   65.3410   63.4740 N   0  0  0  0  0  0  0  0  0  0  0  0
   42.6810   65.1260   63.4760 H   0  0  0  0  0  0  0  0  0  0  0  0
   40.9470   64.8950   64.0890 H   0  0  0  0  0  0  0  0  0  0  0  0
  1  2  2  0  0  0  0
  2  3  1  0  0  0  0
  2  6  1  0  0  0  0
  3  7  1  0  0  0  0
  4 17  1  0  0  0  0
  4  3  2  0  0  0  0
  5  1  1  0  0  0  0
  5  4  1  0  0  0  0
  8 13  2  0  0  0  0
  8  9  1  0  0  0  0
  9 10  2  0  0  0  0
 10 11  1  0  0  0  0
 10 16  1  0  0  0  0
 12  1  1  0  0  0  0
 12 11  2  0  0  0  0
 13 12  1  0  0  0  0
 14  8  1  0  0  0  0
 15  9  1  0  0  0  0
 17 22  1  0  0  0  0
 18 19  1  0  0  0  0
 18 17  2  0  0  0  0
 19 20  2  0  0  0  0
 20 21  1  0  0  0  0
 21 25  1  0  0  0  0
 22 21  2  0  0  0  0
 23 18  1  0  0  0  0
 24 19  1  0  0  0  0
 25 27  1  0  0  0  0
 26 25  2  0  0  0  0
 27 28  1  0  0  0  0
 27 29  1  0  0  0  0
M  END
>  <minimizedAffinity>
-5.23506212

$$$$

 OpenBabel03212520573D

 29 31  0  0  0  0  0  0  0  0999 V2000
   39.0850   74.4850   58.8060 C   0  0  0  0  0  0  0  0  0  0  0  0
   39.4090   75.0920   60.0040 C   0  0  0  0  0  0  0  0  0  0  0  0
   40.1360   74.3860   60.8910 C   0  0  0  0  0  0  0  0  0  0  0  0
   40.5340   73.0940   60.5820 C   0  0  0  0  0  0  0  0  0  0  0  0
   39.8250   72.8330   58.8890 S   0  0  0  0  0  0  0  0  0  0  0  0
   39.0970   76.1060   60.2470 H   0  0  0  0  0  0  0  0  0  0  0  0
   40.4870   74.6770   61.8700 H   0  0  0  0  0  0  0  0  0  0  0  0
   37.7890   77.0840   56.5650 C   0  0  0  0  0  0  0  0  0  0  0  0
   36.8480   76.3810   55.7660 C   0  0  0  0  0  0  0  0  0  0  0  0
   36.6740   75.0320   56.0080 C   0  0  0  0  0  0  0  0  0  0  0  0
   37.4040   74.4520   56.9870 N   0  0  0  0  0  0  0  0  0  0  0  0
   38.2890   75.1400   57.7290 C   0  0  0  0  0  0  0  0  0  0  0  0
   38.4760   76.4340   57.5170 N   0  0  0  0  0  0  0  0  0  0  0  0
   37.9390   78.1490   56.3870 H   0  0  0  0  0  0  0  0  0  0  0  0
   36.2780   76.8700   54.9910 H   0  0  0  0  0  0  0  0  0  0  0  0
   35.9810   74.4130   55.4530 H   0  0  0  0  0  0  0  0  0  0  0  0
   41.2860   72.0490   61.2280 C   0  0  0  0  0  0  0  0  0  0  0  0
   41.1450   71.8600   62.5630 C   0  0  0  0  0  0  0  0  0  0  0  0
   41.9420   70.8040   63.0460 C   0  0  0  0  0  0  0  0  0  0  0  0
   42.7550   70.0610   62.2840 N   0  0  0  0  0  0  0  0  0  0  0  0
   42.8260   70.3270   60.9640 C   0  0  0  0  0  0  0  0  0  0  0  0
   42.0910   71.3280   60.4160 N   0  0  0  0  0  0  0  0  0  0  0  0
   40.5180   72.4150   63.2240 H   0  0  0  0  0  0  0  0  0  0  0  0
   41.9270   70.5410   64.1080 H   0  0  0  0  0  0  0  0  0  0  0  0
   43.7100   69.5170   60.1390 C   0  0  0  0  0  0  0  0  0  0  0  0
   43.4230   69.4180   58.9090 O   0  0  0  0  0  0  0  0  0  0  0  0
   44.8340   68.8780   60.7110 N   0  0  0  0  0  0  0  0  0  0  0  0
   45.2430   69.2750   61.5860 H   0  0  0  0  0  0  0  0  0  0  0  0
   45.1840   68.0360   60.2100 H   0  0  0  0  0  0  0  0  0  0  0  0
  1  5  1  0  0  0  0
  1  2  2  0  0  0  0
  2  6  1  0  0  0  0
  2  3  1  0  0  0  0
  3  7  1  0  0  0  0
  4  3  2  0  0  0  0
  4 17  1  0  0  0  0
  5  4  1  0  0  0  0
  8 13  1  0  0  0  0
  9 10  1  0  0  0  0
  9  8  2  0  0  0  0
 10 11  2  0  0  0  0
 11 12  1  0  0  0  0
 12  1  1  0  0  0  0
 13 12  2  0  0  0  0
 14  8  1  0  0  0  0
 15  9  1  0  0  0  0
 16 10  1  0  0  0  0
 17 18  1  0  0  0  0
 18 19  2  0  0  0  0
 18 23  1  0  0  0  0
 19 24  1  0  0  0  0
 20 19  1  0  0  0  0
 21 20  2  0  0  0  0
 22 21  1  0  0  0  0
 22 17  2  0  0  0  0
 25 27  1  0  0  0  0
 25 21  1  0  0  0  0
 26 25  2  0  0  0  0
 27 28  1  0  0  0  0
 29 27  1  0  0  0  0
M  END
>  <minimizedAffinity>
-5.08283281

$$$$

 OpenBabel03212520573D

 29 31  0  0  0  0  0  0  0  0999 V2000
   41.2460   72.7030   61.0710 C   0  0  0  0  0  0  0  0  0  0  0  0
   41.3860   72.3090   62.3880 C   0  0  0  0  0  0  0  0  0  0  0  0
   41.8090   71.0540   62.6280 C   0  0  0  0  0  0  0  0  0  0  0  0
   42.0890   70.2060   61.5670 C   0  0  0  0  0  0  0  0  0  0  0  0
   41.7270   71.2610   60.0860 S   0  0  0  0  0  0  0  0  0  0  0  0
   41.1660   72.9740   63.2220 H   0  0  0  0  0  0  0  0  0  0  0  0
   41.9790   70.5610   63.5740 H   0  0  0  0  0  0  0  0  0  0  0  0
   39.2370   75.7670   60.8880 C   0  0  0  0  0  0  0  0  0  0  0  0
   39.9170   76.5410   59.9100 C   0  0  0  0  0  0  0  0  0  0  0  0
   41.0510   76.0010   59.3330 C   0  0  0  0  0  0  0  0  0  0  0  0
   41.4520   74.7720   59.7240 N   0  0  0  0  0  0  0  0  0  0  0  0
   40.7900   74.0600   60.6520 C   0  0  0  0  0  0  0  0  0  0  0  0
   39.7010   74.5530   61.2220 N   0  0  0  0  0  0  0  0  0  0  0  0
   38.3410   76.1770   61.3540 H   0  0  0  0  0  0  0  0  0  0  0  0
   39.5740   77.5210   59.6170 H   0  0  0  0  0  0  0  0  0  0  0  0
   41.6350   76.5140   58.5800 H   0  0  0  0  0  0  0  0  0  0  0  0
   42.5420   68.8500   61.4040 C   0  0  0  0  0  0  0  0  0  0  0  0
   41.7020   67.9300   60.8670 C   0  0  0  0  0  0  0  0  0  0  0  0
   42.2880   66.6530   60.7720 C   0  0  0  0  0  0  0  0  0  0  0  0
   43.5360   66.3630   61.1650 N   0  0  0  0  0  0  0  0  0  0  0  0
   44.2950   67.3470   61.6880 C   0  0  0  0  0  0  0  0  0  0  0  0
   43.8060   68.6070   61.8160 N   0  0  0  0  0  0  0  0  0  0  0  0
   40.7020   68.0960   60.5350 H   0  0  0  0  0  0  0  0  0  0  0  0
   41.7220   65.8140   60.3550 H   0  0  0  0  0  0  0  0  0  0  0  0
   45.6490   67.0280   62.1140 C   0  0  0  0  0  0  0  0  0  0  0  0
   46.4860   66.7370   61.2090 O   0  0  0  0  0  0  0  0  0  0  0  0
   45.9890   67.0490   63.4860 N   0  0  0  0  0  0  0  0  0  0  0  0
   45.4220   67.6410   64.1330 H   0  0  0  0  0  0  0  0  0  0  0  0
   46.8010   66.4600   63.7640 H   0  0  0  0  0  0  0  0  0  0  0  0
  1  2  2  0  0  0  0
  2  3  1  0  0  0  0
  2  6  1  0  0  0  0
  3  7  1  0  0  0  0
  4  3  2  0  0  0  0
  5  1  1  0  0  0  0
  5  4  1  0  0  0  0
  8 13  1  0  0  0  0
  8 14  1  0  0  0  0
  9  8  2  0  0  0  0
 10 11  2  0  0  0  0
 10  9  1  0  0  0  0
 11 12  1  0  0  0  0
 12  1  1  0  0  0  0
 12 13  2  0  0  0  0
 15  9  1  0  0  0  0
 16 10  1  0  0  0  0
 17  4  1  0  0  0  0
 17 22  1  0  0  0  0
 18 17  2  0  0  0  0
 19 18  1  0  0  0  0
 19 20  2  0  0  0  0
 20 21  1  0  0  0  0
 21 22  2  0  0  0  0
 21 25  1  0  0  0  0
 23 18  1  0  0  0  0
 24 19  1  0  0  0  0
 25 27  1  0  0  0  0
 26 25  2  0  0  0  0
 27 29  1  0  0  0  0
 27 28  1  0  0  0  0
M  END
>  <minimizedAffinity>
-5.04721928

$$$$

 OpenBabel03212520573D

 29 31  0  0  0  0  0  0  0  0999 V2000
   40.6680   73.3290   60.4470 C   0  0  0  0  0  0  0  0  0  0  0  0
   40.8560   73.3090   61.8160 C   0  0  0  0  0  0  0  0  0  0  0  0
   41.3960   72.2030   62.3610 C   0  0  0  0  0  0  0  0  0  0  0  0
   41.7430   71.1330   61.5490 C   0  0  0  0  0  0  0  0  0  0  0  0
   41.2710   71.7250   59.8570 S   0  0  0  0  0  0  0  0  0  0  0  0
   40.5830   74.1480   62.4540 H   0  0  0  0  0  0  0  0  0  0  0  0
   41.6200   71.9930   63.3960 H   0  0  0  0  0  0  0  0  0  0  0  0
   39.0080   75.2410   57.7930 C   0  0  0  0  0  0  0  0  0  0  0  0
   39.0040   76.5660   58.3050 C   0  0  0  0  0  0  0  0  0  0  0  0
   39.5670   76.7810   59.5480 C   0  0  0  0  0  0  0  0  0  0  0  0
   40.0920   75.7270   60.2100 N   0  0  0  0  0  0  0  0  0  0  0  0
   40.0840   74.4810   59.7030 C   0  0  0  0  0  0  0  0  0  0  0  0
   39.5490   74.2470   58.5140 N   0  0  0  0  0  0  0  0  0  0  0  0
   38.5670   75.0530   56.8140 H   0  0  0  0  0  0  0  0  0  0  0  0
   38.5770   77.3900   57.7540 H   0  0  0  0  0  0  0  0  0  0  0  0
   39.6110   77.7540   60.0200 H   0  0  0  0  0  0  0  0  0  0  0  0
   42.3190   69.8270   61.7320 C   0  0  0  0  0  0  0  0  0  0  0  0
   43.1420   69.6060   62.7860 C   0  0  0  0  0  0  0  0  0  0  0  0
   43.6230   68.2830   62.8290 C   0  0  0  0  0  0  0  0  0  0  0  0
   43.3110   67.3360   61.9340 N   0  0  0  0  0  0  0  0  0  0  0  0
   42.4820   67.6530   60.9190 C   0  0  0  0  0  0  0  0  0  0  0  0
   41.9740   68.9060   60.8030 N   0  0  0  0  0  0  0  0  0  0  0  0
   43.4290   70.3140   63.5300 H   0  0  0  0  0  0  0  0  0  0  0  0
   44.2980   67.9660   63.6290 H   0  0  0  0  0  0  0  0  0  0  0  0
   42.1450   66.6220   59.9500 C   0  0  0  0  0  0  0  0  0  0  0  0
   41.4590   66.9740   58.9450 O   0  0  0  0  0  0  0  0  0  0  0  0
   42.5780   65.2900   60.1450 N   0  0  0  0  0  0  0  0  0  0  0  0
   43.4220   65.1200   60.7360 H   0  0  0  0  0  0  0  0  0  0  0  0
   42.0120   64.5520   59.6770 H   0  0  0  0  0  0  0  0  0  0  0  0
  1  2  2  0  0  0  0
  2  3  1  0  0  0  0
  2  6  1  0  0  0  0
  3  7  1  0  0  0  0
  4 17  1  0  0  0  0
  4  3  2  0  0  0  0
  5  1  1  0  0  0  0
  5  4  1  0  0  0  0
  8  9  2  0  0  0  0
  8 13  1  0  0  0  0
  9 10  1  0  0  0  0
 10 16  1  0  0  0  0
 10 11  2  0  0  0  0
 12 11  1  0  0  0  0
 12  1  1  0  0  0  0
 13 12  2  0  0  0  0
 14  8  1  0  0  0  0
 15  9  1  0  0  0  0
 17 18  1  0  0  0  0
 18 19  2  0  0  0  0
 18 23  1  0  0  0  0
 19 24  1  0  0  0  0
 20 19  1  0  0  0  0
 21 20  2  0  0  0  0
 22 21  1  0  0  0  0
 22 17  2  0  0  0  0
 25 27  1  0  0  0  0
 25 21  1  0  0  0  0
 26 25  2  0  0  0  0
 27 28  1  0  0  0  0
 29 27  1  0  0  0  0
M  END
>  <minimizedAffinity>
-5.00115919

$$$$

 OpenBabel03212520573D

 29 31  0  0  0  0  0  0  0  0999 V2000
   42.1120   69.4070   60.5450 C   0  0  0  0  0  0  0  0  0  0  0  0
   41.7820   69.6200   59.2200 C   0  0  0  0  0  0  0  0  0  0  0  0
   41.7540   70.8910   58.7750 C   0  0  0  0  0  0  0  0  0  0  0  0
   42.0510   71.9310   59.6430 C   0  0  0  0  0  0  0  0  0  0  0  0
   42.4050   71.0550   61.2370 S   0  0  0  0  0  0  0  0  0  0  0  0
   41.5490   68.8040   58.5390 H   0  0  0  0  0  0  0  0  0  0  0  0
   41.5220   71.2620   57.7880 H   0  0  0  0  0  0  0  0  0  0  0  0
   41.0690   66.1290   61.8190 C   0  0  0  0  0  0  0  0  0  0  0  0
   42.2760   65.5840   62.3330 C   0  0  0  0  0  0  0  0  0  0  0  0
   43.4230   66.3470   62.2340 C   0  0  0  0  0  0  0  0  0  0  0  0
   43.3410   67.5660   61.6570 N   0  0  0  0  0  0  0  0  0  0  0  0
   42.1860   68.0590   61.1780 C   0  0  0  0  0  0  0  0  0  0  0  0
   41.0710   67.3490   61.2590 N   0  0  0  0  0  0  0  0  0  0  0  0
   40.1540   65.5410   61.8880 H   0  0  0  0  0  0  0  0  0  0  0  0
   42.3130   64.6070   62.7890 H   0  0  0  0  0  0  0  0  0  0  0  0
   44.3890   66.0180   62.5970 H   0  0  0  0  0  0  0  0  0  0  0  0
   42.1270   73.3670   59.5650 C   0  0  0  0  0  0  0  0  0  0  0  0
   43.3100   73.9520   59.2560 C   0  0  0  0  0  0  0  0  0  0  0  0
   43.2240   75.3570   59.2170 C   0  0  0  0  0  0  0  0  0  0  0  0
   42.1050   76.0530   59.4590 N   0  0  0  0  0  0  0  0  0  0  0  0
   40.9770   75.3790   59.7590 C   0  0  0  0  0  0  0  0  0  0  0  0
   40.9720   74.0230   59.8180 N   0  0  0  0  0  0  0  0  0  0  0  0
   44.2330   73.4580   59.0540 H   0  0  0  0  0  0  0  0  0  0  0  0
   44.1070   75.9590   58.9790 H   0  0  0  0  0  0  0  0  0  0  0  0
   39.7630   76.1380   60.0200 C   0  0  0  0  0  0  0  0  0  0  0  0
   39.7360   76.8420   61.0730 O   0  0  0  0  0  0  0  0  0  0  0  0
   38.6740   76.0750   59.1200 N   0  0  0  0  0  0  0  0  0  0  0  0
   38.8630   75.8190   58.1250 H   0  0  0  0  0  0  0  0  0  0  0  0
   37.7380   76.2930   59.5200 H   0  0  0  0  0  0  0  0  0  0  0  0
  1 12  1  0  0  0  0
  1  5  1  0  0  0  0
  2  1  2  0  0  0  0
  3  2  1  0  0  0  0
  3  4  2  0  0  0  0
  4  5  1  0  0  0  0
  6  2  1  0  0  0  0
  7  3  1  0  0  0  0
  8 14  1  0  0  0  0
  8  9  1  0  0  0  0
  9 15  1  0  0  0  0
 10  9  2  0  0  0  0
 10 16  1  0  0  0  0
 11 10  1  0  0  0  0
 12 13  1  0  0  0  0
 12 11  2  0  0  0  0
 13  8  2  0  0  0  0
 17  4  1  0  0  0  0
 17 22  1  0  0  0  0
 18 17  2  0  0  0  0
 19 18  1  0  0  0  0
 19 20  2  0  0  0  0
 20 21  1  0  0  0  0
 21 22  2  0  0  0  0
 21 25  1  0  0  0  0
 23 18  1  0  0  0  0
 24 19  1  0  0  0  0
 25 26  2  0  0  0  0
 27 29  1  0  0  0  0
 27 25  1  0  0  0  0
 28 27  1  0  0  0  0
M  END
>  <minimizedAffinity>
-4.97502375

$$$$
