
 OpenBabel03212520353D

 30 32  0  0  0  0  0  0  0  0999 V2000
   41.2160   82.8740   58.6830 C   0  0  0  0  0  0  0  0  0  0  0  0
   41.9870   83.9100   58.1060 C   0  0  0  0  0  0  0  0  0  0  0  0
   42.3080   83.9780   56.7880 C   0  0  0  0  0  0  0  0  0  0  0  0
   41.8670   82.9860   55.9360 C   0  0  0  0  0  0  0  0  0  0  0  0
   41.1130   81.9560   56.4700 C   0  0  0  0  0  0  0  0  0  0  0  0
   40.6400   80.9290   55.7020 C   0  0  0  0  0  0  0  0  0  0  0  0
   39.8950   79.9020   56.2580 C   0  0  0  0  0  0  0  0  0  0  0  0
   39.5950   79.8660   57.6170 C   0  0  0  0  0  0  0  0  0  0  0  0
   40.0750   80.9060   58.3870 C   0  0  0  0  0  0  0  0  0  0  0  0
   40.7940   81.8950   57.8160 C   0  0  0  0  0  0  0  0  0  0  0  0
   42.4020   84.7670   58.6210 H   0  0  0  0  0  0  0  0  0  0  0  0
   42.8790   84.7270   56.2970 H   0  0  0  0  0  0  0  0  0  0  0  0
   42.0530   82.9300   54.8780 H   0  0  0  0  0  0  0  0  0  0  0  0
   40.8760   80.9540   54.6320 H   0  0  0  0  0  0  0  0  0  0  0  0
   39.5790   79.1510   55.5440 H   0  0  0  0  0  0  0  0  0  0  0  0
   39.0180   79.0330   57.9380 H   0  0  0  0  0  0  0  0  0  0  0  0
   39.8350   80.7270   59.4090 H   0  0  0  0  0  0  0  0  0  0  0  0
   39.8500   82.5550   60.8340 C   0  0  0  0  0  0  0  0  0  0  0  0
   40.9320   83.0630   60.0870 C   0  0  0  0  0  0  0  0  0  0  0  0
   41.9140   83.9010   60.7380 C   0  0  0  0  0  0  0  0  0  0  0  0
   41.7150   84.1410   62.0620 N   0  0  0  0  0  0  0  0  0  0  0  0
   40.6410   83.6160   62.7520 C   0  0  0  0  0  0  0  0  0  0  0  0
   39.7250   82.8350   62.1350 N   0  0  0  0  0  0  0  0  0  0  0  0
   39.0600   81.9980   60.4080 H   0  0  0  0  0  0  0  0  0  0  0  0
   42.7900   84.3630   60.3560 H   0  0  0  0  0  0  0  0  0  0  0  0
   40.4560   83.9010   64.1790 C   0  0  0  0  0  0  0  0  0  0  0  0
   40.3060   82.9930   65.0230 O   0  0  0  0  0  0  0  0  0  0  0  0
   40.4610   85.2940   64.5130 N   0  0  0  0  0  0  0  0  0  0  0  0
   41.4520   85.2250   64.8900 H   0  0  0  0  0  0  0  0  0  0  0  0
   39.9980   86.2270   64.5530 H   0  0  0  0  0  0  0  0  0  0  0  0
  1 19  1  0  0  0  0
  2 11  1  0  0  0  0
  2  1  1  0  0  0  0
  3  2  2  0  0  0  0
  4  5  2  0  0  0  0
  4  3  1  0  0  0  0
  5 10  1  0  0  0  0
  6  7  2  0  0  0  0
  6  5  1  0  0  0  0
  7  8  1  0  0  0  0
  8 16  1  0  0  0  0
  8  9  2  0  0  0  0
  9 17  1  0  0  0  0
 10  9  1  0  0  0  0
 10  1  2  0  0  0  0
 12  3  1  0  0  0  0
 13  4  1  0  0  0  0
 14  6  1  0  0  0  0
 15  7  1  0  0  0  0
 18 23  1  0  0  0  0
 19 20  1  0  0  0  0
 19 18  2  0  0  0  0
 20 21  2  0  0  0  0
 21 22  1  0  0  0  0
 22 26  1  0  0  0  0
 23 22  2  0  0  0  0
 24 18  1  0  0  0  0
 25 20  1  0  0  0  0
 26 28  1  0  0  0  0
 26 27  2  0  0  0  0
 28 30  1  0  0  0  0
 28 29  1  0  0  0  0
M  END
>  <minimizedAffinity>
-5.54331779

>  <minimizedRMSD>
0.183749914

$$$$
