
 OpenBabel03212520533D

 27 29  0  0  0  0  0  0  0  0999 V2000
   42.3360   80.4090   61.4830 C   0  0  0  0  0  0  0  0  0  0  0  0
   40.9650   80.4620   61.7220 C   0  0  0  0  0  0  0  0  0  0  0  0
   40.2720   81.4920   61.1880 C   0  0  0  0  0  0  0  0  0  0  0  0
   40.9320   82.4560   60.4250 C   0  0  0  0  0  0  0  0  0  0  0  0
   42.6860   81.8740   60.4540 S   0  0  0  0  0  0  0  0  0  0  0  0
   40.4570   79.7140   62.3140 H   0  0  0  0  0  0  0  0  0  0  0  0
   39.2160   81.7070   61.2600 H   0  0  0  0  0  0  0  0  0  0  0  0
   40.5670   83.6510   59.7180 C   0  0  0  0  0  0  0  0  0  0  0  0
   39.4870   84.3740   60.1520 C   0  0  0  0  0  0  0  0  0  0  0  0
   39.2250   85.5130   59.3920 C   0  0  0  0  0  0  0  0  0  0  0  0
   39.9690   85.8710   58.3200 N   0  0  0  0  0  0  0  0  0  0  0  0
   41.0230   85.0880   57.9660 C   0  0  0  0  0  0  0  0  0  0  0  0
   41.3300   83.9610   58.6720 N   0  0  0  0  0  0  0  0  0  0  0  0
   38.8690   84.1230   60.9990 H   0  0  0  0  0  0  0  0  0  0  0  0
   38.4040   86.1790   59.6160 H   0  0  0  0  0  0  0  0  0  0  0  0
   41.7930   85.4770   56.8420 N   0  0  0  0  0  0  0  0  0  0  0  0
   42.0250   84.7670   56.1050 H   0  0  0  0  0  0  0  0  0  0  0  0
   42.1980   86.3990   56.5970 H   0  0  0  0  0  0  0  0  0  0  0  0
   45.3950   78.7270   62.5890 C   0  0  0  0  0  0  0  0  0  0  0  0
   44.9410   77.4260   62.9320 C   0  0  0  0  0  0  0  0  0  0  0  0
   43.5880   77.1490   62.7760 C   0  0  0  0  0  0  0  0  0  0  0  0
   42.7930   78.1290   62.3110 N   0  0  0  0  0  0  0  0  0  0  0  0
   43.2360   79.3480   61.9940 C   0  0  0  0  0  0  0  0  0  0  0  0
   44.5210   79.6480   62.1300 N   0  0  0  0  0  0  0  0  0  0  0  0
   46.4310   79.0020   62.6880 H   0  0  0  0  0  0  0  0  0  0  0  0
   45.6740   76.7480   63.2870 H   0  0  0  0  0  0  0  0  0  0  0  0
   43.2360   76.1670   63.0330 H   0  0  0  0  0  0  0  0  0  0  0  0
  1  2  2  0  0  0  0
  1 23  1  0  0  0  0
  2  6  1  0  0  0  0
  3  7  1  0  0  0  0
  3  2  1  0  0  0  0
  4  5  1  0  0  0  0
  4  3  2  0  0  0  0
  5  1  1  0  0  0  0
  8  9  1  0  0  0  0
  8  4  1  0  0  0  0
  9 14  1  0  0  0  0
 10 15  1  0  0  0  0
 10  9  2  0  0  0  0
 11 10  1  0  0  0  0
 12 11  2  0  0  0  0
 12 13  1  0  0  0  0
 13  8  2  0  0  0  0
 16 12  1  0  0  0  0
 17 16  1  0  0  0  0
 18 16  1  0  0  0  0
 19 25  1  0  0  0  0
 19 20  1  0  0  0  0
 20 26  1  0  0  0  0
 21 20  2  0  0  0  0
 21 27  1  0  0  0  0
 22 21  1  0  0  0  0
 23 24  1  0  0  0  0
 23 22  2  0  0  0  0
 24 19  2  0  0  0  0
M  END
>  <minimizedAffinity>
-4.54558516

>  <minimizedRMSD>
1.51516402

$$$$
