
 OpenBabel03212520033D

 35 38  0  0  0  0  0  0  0  0999 V2000
   40.7720   81.7460   57.2320 C   0  0  0  0  0  0  0  0  0  0  0  0
   41.9530   82.1730   56.5960 C   0  0  0  0  0  0  0  0  0  0  0  0
   42.7980   82.9770   57.3210 C   0  0  0  0  0  0  0  0  0  0  0  0
   42.4850   83.3280   58.6010 N   0  0  0  0  0  0  0  0  0  0  0  0
   41.3370   82.8960   59.1860 C   0  0  0  0  0  0  0  0  0  0  0  0
   40.4700   82.0990   58.4990 N   0  0  0  0  0  0  0  0  0  0  0  0
   40.0160   81.1170   56.7910 H   0  0  0  0  0  0  0  0  0  0  0  0
   42.0010   81.7460   55.6250 H   0  0  0  0  0  0  0  0  0  0  0  0
   39.7130   83.0750   61.0030 C   0  0  0  0  0  0  0  0  0  0  0  0
   41.0270   83.2420   60.5650 C   0  0  0  0  0  0  0  0  0  0  0  0
   42.0210   83.7070   61.4240 C   0  0  0  0  0  0  0  0  0  0  0  0
   41.7400   84.0180   62.7430 C   0  0  0  0  0  0  0  0  0  0  0  0
   42.4150   84.4690   63.8080 N   0  0  0  0  0  0  0  0  0  0  0  0
   41.5900   84.5830   64.8670 C   0  0  0  0  0  0  0  0  0  0  0  0
   40.3660   84.1850   64.4210 N   0  0  0  0  0  0  0  0  0  0  0  0
   40.4300   83.8340   63.1240 C   0  0  0  0  0  0  0  0  0  0  0  0
   39.4110   83.3810   62.3260 C   0  0  0  0  0  0  0  0  0  0  0  0
   38.9200   82.7170   60.3610 H   0  0  0  0  0  0  0  0  0  0  0  0
   43.0430   83.8360   61.0730 H   0  0  0  0  0  0  0  0  0  0  0  0
   43.4390   84.6820   63.7540 H   0  0  0  0  0  0  0  0  0  0  0  0
   41.8670   84.9260   65.8640 H   0  0  0  0  0  0  0  0  0  0  0  0
   38.3990   83.2600   62.6940 H   0  0  0  0  0  0  0  0  0  0  0  0
   42.5510   84.2020   54.6140 Cl  0  0  0  0  0  0  0  0  0  0  0  0
   44.0730   84.0570   55.5050 C   0  0  0  0  0  0  0  0  0  0  0  0
   44.0270   83.4710   56.7450 C   0  0  0  0  0  0  0  0  0  0  0  0
   45.2640   83.4070   57.3840 C   0  0  0  0  0  0  0  0  0  0  0  0
   46.4370   83.8860   56.8280 C   0  0  0  0  0  0  0  0  0  0  0  0
   46.4080   84.4670   55.5660 C   0  0  0  0  0  0  0  0  0  0  0  0
   47.8660   85.0780   54.8370 Cl  0  0  0  0  0  0  0  0  0  0  0  0
   45.2210   84.5440   54.9210 C   0  0  0  0  0  0  0  0  0  0  0  0
   45.3180   82.9610   58.3660 H   0  0  0  0  0  0  0  0  0  0  0  0
   47.3630   83.8040   57.3780 H   0  0  0  0  0  0  0  0  0  0  0  0
   45.1570   85.1330   53.6280 N   0  0  0  0  0  0  0  0  0  0  0  0
   45.2030   84.2450   53.0500 H   0  0  0  0  0  0  0  0  0  0  0  0
   45.0880   86.1420   53.3660 H   0  0  0  0  0  0  0  0  0  0  0  0
  1  6  1  0  0  0  0
  2  1  2  0  0  0  0
  2  3  1  0  0  0  0
  3  4  2  0  0  0  0
  4  5  1  0  0  0  0
  5 10  1  0  0  0  0
  6  5  2  0  0  0  0
  7  1  1  0  0  0  0
  8  2  1  0  0  0  0
  9 17  1  0  0  0  0
 10  9  2  0  0  0  0
 10 11  1  0  0  0  0
 11 12  2  0  0  0  0
 12 16  1  0  0  0  0
 12 13  1  0  0  0  0
 13 14  1  0  0  0  0
 14 21  1  0  0  0  0
 15 14  2  0  0  0  0
 16 15  1  0  0  0  0
 17 22  1  0  0  0  0
 17 16  2  0  0  0  0
 18  9  1  0  0  0  0
 19 11  1  0  0  0  0
 20 13  1  0  0  0  0
 23 24  1  0  0  0  0
 24 25  1  0  0  0  0
 25  3  1  0  0  0  0
 25 26  2  0  0  0  0
 26 31  1  0  0  0  0
 27 32  1  0  0  0  0
 27 26  1  0  0  0  0
 28 27  2  0  0  0  0
 29 28  1  0  0  0  0
 30 24  2  0  0  0  0
 30 28  1  0  0  0  0
 33 30  1  0  0  0  0
 34 33  1  0  0  0  0
 35 33  1  0  0  0  0
M  END
>  <minimizedAffinity>
-4.85844755

>  <minimizedRMSD>
0.529797673

$$$$
