
 OpenBabel03212520533D

 27 29  0  0  0  0  0  0  0  0999 V2000
   42.3370   80.4070   61.4830 C   0  0  0  0  0  0  0  0  0  0  0  0
   40.9660   80.4610   61.7230 C   0  0  0  0  0  0  0  0  0  0  0  0
   40.2730   81.4900   61.1890 C   0  0  0  0  0  0  0  0  0  0  0  0
   40.9330   82.4550   60.4260 C   0  0  0  0  0  0  0  0  0  0  0  0
   42.6870   81.8720   60.4540 S   0  0  0  0  0  0  0  0  0  0  0  0
   40.4580   79.7120   62.3150 H   0  0  0  0  0  0  0  0  0  0  0  0
   39.2170   81.7050   61.2600 H   0  0  0  0  0  0  0  0  0  0  0  0
   40.5680   83.6490   59.7190 C   0  0  0  0  0  0  0  0  0  0  0  0
   39.4880   84.3710   60.1520 C   0  0  0  0  0  0  0  0  0  0  0  0
   39.2250   85.5110   59.3910 C   0  0  0  0  0  0  0  0  0  0  0  0
   39.9710   85.8690   58.3210 N   0  0  0  0  0  0  0  0  0  0  0  0
   41.0260   85.0880   57.9680 C   0  0  0  0  0  0  0  0  0  0  0  0
   41.3330   83.9600   58.6740 N   0  0  0  0  0  0  0  0  0  0  0  0
   38.8680   84.1200   60.9980 H   0  0  0  0  0  0  0  0  0  0  0  0
   38.4050   86.1760   59.6150 H   0  0  0  0  0  0  0  0  0  0  0  0
   41.7970   85.4770   56.8440 N   0  0  0  0  0  0  0  0  0  0  0  0
   42.6540   86.0680   56.9870 H   0  0  0  0  0  0  0  0  0  0  0  0
   41.6620   85.2720   55.8380 H   0  0  0  0  0  0  0  0  0  0  0  0
   45.3960   78.7250   62.5900 C   0  0  0  0  0  0  0  0  0  0  0  0
   44.9410   77.4230   62.9320 C   0  0  0  0  0  0  0  0  0  0  0  0
   43.5880   77.1470   62.7770 C   0  0  0  0  0  0  0  0  0  0  0  0
   42.7940   78.1270   62.3120 N   0  0  0  0  0  0  0  0  0  0  0  0
   43.2360   79.3460   61.9940 C   0  0  0  0  0  0  0  0  0  0  0  0
   44.5220   79.6450   62.1310 N   0  0  0  0  0  0  0  0  0  0  0  0
   46.4320   78.9990   62.6880 H   0  0  0  0  0  0  0  0  0  0  0  0
   45.6740   76.7450   63.2880 H   0  0  0  0  0  0  0  0  0  0  0  0
   43.2360   76.1650   63.0350 H   0  0  0  0  0  0  0  0  0  0  0  0
  1  2  2  0  0  0  0
  1 23  1  0  0  0  0
  2  6  1  0  0  0  0
  3  7  1  0  0  0  0
  3  2  1  0  0  0  0
  4  5  1  0  0  0  0
  4  3  2  0  0  0  0
  5  1  1  0  0  0  0
  8  9  1  0  0  0  0
  8  4  1  0  0  0  0
  9 14  1  0  0  0  0
 10 15  1  0  0  0  0
 10  9  2  0  0  0  0
 11 10  1  0  0  0  0
 12 11  2  0  0  0  0
 12 13  1  0  0  0  0
 13  8  2  0  0  0  0
 16 17  1  0  0  0  0
 16 12  1  0  0  0  0
 18 16  1  0  0  0  0
 19 25  1  0  0  0  0
 19 20  1  0  0  0  0
 20 26  1  0  0  0  0
 21 20  2  0  0  0  0
 21 27  1  0  0  0  0
 22 21  1  0  0  0  0
 23 24  1  0  0  0  0
 23 22  2  0  0  0  0
 24 19  2  0  0  0  0
M  END
>  <minimizedAffinity>
-4.54606152

>  <minimizedRMSD>
1.51600158

$$$$
