
 OpenBabel03212520533D

 27 29  0  0  0  0  0  0  0  0999 V2000
   42.4860   80.2560   61.6090 C   0  0  0  0  0  0  0  0  0  0  0  0
   41.1140   80.2870   61.8470 C   0  0  0  0  0  0  0  0  0  0  0  0
   40.4060   81.3100   61.3210 C   0  0  0  0  0  0  0  0  0  0  0  0
   41.0520   82.2900   60.5660 C   0  0  0  0  0  0  0  0  0  0  0  0
   42.8150   81.7340   60.5910 S   0  0  0  0  0  0  0  0  0  0  0  0
   40.6170   79.5270   62.4330 H   0  0  0  0  0  0  0  0  0  0  0  0
   39.3470   81.5090   61.3930 H   0  0  0  0  0  0  0  0  0  0  0  0
   40.6700   83.4850   59.8670 C   0  0  0  0  0  0  0  0  0  0  0  0
   39.5750   84.1840   60.3020 C   0  0  0  0  0  0  0  0  0  0  0  0
   39.2960   85.3250   59.5500 C   0  0  0  0  0  0  0  0  0  0  0  0
   40.0400   85.7060   58.4870 N   0  0  0  0  0  0  0  0  0  0  0  0
   41.1100   84.9460   58.1310 C   0  0  0  0  0  0  0  0  0  0  0  0
   41.4330   83.8180   58.8290 N   0  0  0  0  0  0  0  0  0  0  0  0
   38.9560   83.9140   61.1420 H   0  0  0  0  0  0  0  0  0  0  0  0
   38.4630   85.9740   59.7750 H   0  0  0  0  0  0  0  0  0  0  0  0
   41.8790   85.3590   57.0150 N   0  0  0  0  0  0  0  0  0  0  0  0
   41.4800   85.2650   56.0490 H   0  0  0  0  0  0  0  0  0  0  0  0
   42.8320   85.7660   56.9750 H   0  0  0  0  0  0  0  0  0  0  0  0
   45.5710   78.6070   62.6920 C   0  0  0  0  0  0  0  0  0  0  0  0
   45.1340   77.3010   63.0360 C   0  0  0  0  0  0  0  0  0  0  0  0
   43.7820   77.0090   62.8890 C   0  0  0  0  0  0  0  0  0  0  0  0
   42.9740   77.9800   62.4310 N   0  0  0  0  0  0  0  0  0  0  0  0
   43.4010   79.2050   62.1120 C   0  0  0  0  0  0  0  0  0  0  0  0
   44.6840   79.5190   62.2400 N   0  0  0  0  0  0  0  0  0  0  0  0
   46.6050   78.8940   62.7840 H   0  0  0  0  0  0  0  0  0  0  0  0
   45.8770   76.6310   63.3860 H   0  0  0  0  0  0  0  0  0  0  0  0
   43.4440   76.0230   63.1480 H   0  0  0  0  0  0  0  0  0  0  0  0
  1  2  2  0  0  0  0
  1 23  1  0  0  0  0
  2  6  1  0  0  0  0
  3  7  1  0  0  0  0
  3  2  1  0  0  0  0
  4  5  1  0  0  0  0
  4  3  2  0  0  0  0
  5  1  1  0  0  0  0
  8  9  1  0  0  0  0
  8  4  1  0  0  0  0
  9 14  1  0  0  0  0
 10 15  1  0  0  0  0
 10  9  2  0  0  0  0
 11 10  1  0  0  0  0
 12 11  2  0  0  0  0
 12 13  1  0  0  0  0
 13  8  2  0  0  0  0
 16 12  1  0  0  0  0
 17 16  1  0  0  0  0
 18 16  1  0  0  0  0
 19 25  1  0  0  0  0
 19 20  1  0  0  0  0
 20 26  1  0  0  0  0
 21 20  2  0  0  0  0
 21 27  1  0  0  0  0
 22 21  1  0  0  0  0
 23 24  1  0  0  0  0
 23 22  2  0  0  0  0
 24 19  2  0  0  0  0
M  END
>  <minimizedAffinity>
-4.51027012

>  <minimizedRMSD>
1.6133939

$$$$
