
 OpenBabel03212520063D

 35 38  0  0  0  0  0  0  0  0999 V2000
   43.4560   74.0870   60.0980 C   0  0  0  0  0  0  0  0  0  0  0  0
   43.3940   72.8520   60.7700 C   0  0  0  0  0  0  0  0  0  0  0  0
   42.1850   72.2020   60.7730 C   0  0  0  0  0  0  0  0  0  0  0  0
   41.1070   72.7490   60.1410 N   0  0  0  0  0  0  0  0  0  0  0  0
   41.2020   73.9430   59.5000 C   0  0  0  0  0  0  0  0  0  0  0  0
   42.3850   74.6220   59.4760 N   0  0  0  0  0  0  0  0  0  0  0  0
   44.3310   74.7110   60.0130 H   0  0  0  0  0  0  0  0  0  0  0  0
   44.3570   72.6110   61.1470 H   0  0  0  0  0  0  0  0  0  0  0  0
   39.9180   75.8920   58.7750 C   0  0  0  0  0  0  0  0  0  0  0  0
   40.0590   74.5040   58.7950 C   0  0  0  0  0  0  0  0  0  0  0  0
   39.1470   73.6760   58.1440 C   0  0  0  0  0  0  0  0  0  0  0  0
   38.0690   74.2020   57.4530 C   0  0  0  0  0  0  0  0  0  0  0  0
   37.0380   73.7290   56.7400 N   0  0  0  0  0  0  0  0  0  0  0  0
   36.2810   74.7480   56.2870 C   0  0  0  0  0  0  0  0  0  0  0  0
   36.8800   75.8800   56.7460 N   0  0  0  0  0  0  0  0  0  0  0  0
   37.9770   75.5750   57.4630 C   0  0  0  0  0  0  0  0  0  0  0  0
   38.8410   76.4390   58.0850 C   0  0  0  0  0  0  0  0  0  0  0  0
   40.6080   76.5610   59.2700 H   0  0  0  0  0  0  0  0  0  0  0  0
   39.2640   72.5940   58.1660 H   0  0  0  0  0  0  0  0  0  0  0  0
   36.9010   72.7010   56.5950 H   0  0  0  0  0  0  0  0  0  0  0  0
   35.3800   74.6580   55.6800 H   0  0  0  0  0  0  0  0  0  0  0  0
   38.7070   77.5140   58.0510 H   0  0  0  0  0  0  0  0  0  0  0  0
   42.2700   69.7920   59.0190 Cl  0  0  0  0  0  0  0  0  0  0  0  0
   42.0390   69.7380   60.7720 C   0  0  0  0  0  0  0  0  0  0  0  0
   42.0260   70.9340   61.4460 C   0  0  0  0  0  0  0  0  0  0  0  0
   41.8520   70.8030   62.8230 C   0  0  0  0  0  0  0  0  0  0  0  0
   41.7040   69.5850   63.4610 C   0  0  0  0  0  0  0  0  0  0  0  0
   41.7270   68.4130   62.7140 C   0  0  0  0  0  0  0  0  0  0  0  0
   41.5420   66.8650   63.4870 Cl  0  0  0  0  0  0  0  0  0  0  0  0
   41.8950   68.5080   61.3750 C   0  0  0  0  0  0  0  0  0  0  0  0
   41.8300   71.6960   63.4300 H   0  0  0  0  0  0  0  0  0  0  0  0
   41.5720   69.5550   64.5330 H   0  0  0  0  0  0  0  0  0  0  0  0
   41.9220   67.3290   60.5810 N   0  0  0  0  0  0  0  0  0  0  0  0
   40.9090   67.3280   60.2670 H   0  0  0  0  0  0  0  0  0  0  0  0
   42.7210   66.6820   60.3890 H   0  0  0  0  0  0  0  0  0  0  0  0
  1  2  1  0  0  0  0
  2  3  2  0  0  0  0
  2  8  1  0  0  0  0
  3 25  1  0  0  0  0
  4  3  1  0  0  0  0
  5  4  2  0  0  0  0
  6  5  1  0  0  0  0
  6  1  2  0  0  0  0
  7  1  1  0  0  0  0
  9 10  1  0  0  0  0
  9 18  1  0  0  0  0
 10  5  1  0  0  0  0
 11 19  1  0  0  0  0
 11 10  2  0  0  0  0
 12 16  2  0  0  0  0
 12 11  1  0  0  0  0
 13 12  1  0  0  0  0
 14 13  1  0  0  0  0
 14 15  2  0  0  0  0
 15 16  1  0  0  0  0
 16 17  1  0  0  0  0
 17  9  2  0  0  0  0
 20 13  1  0  0  0  0
 21 14  1  0  0  0  0
 22 17  1  0  0  0  0
 23 24  1  0  0  0  0
 24 30  2  0  0  0  0
 24 25  1  0  0  0  0
 25 26  2  0  0  0  0
 26 31  1  0  0  0  0
 26 27  1  0  0  0  0
 27 32  1  0  0  0  0
 28 27  2  0  0  0  0
 28 29  1  0  0  0  0
 30 28  1  0  0  0  0
 33 30  1  0  0  0  0
 34 33  1  0  0  0  0
 35 33  1  0  0  0  0
M  END
>  <minimizedAffinity>
-6.62639666

$$$$

 OpenBabel03212520063D

 35 38  0  0  0  0  0  0  0  0999 V2000
   43.5000   73.4830   60.1880 C   0  0  0  0  0  0  0  0  0  0  0  0
   43.4270   72.1120   60.4980 C   0  0  0  0  0  0  0  0  0  0  0  0
   42.2470   71.4690   60.2200 C   0  0  0  0  0  0  0  0  0  0  0  0
   41.2060   72.1520   59.6630 N   0  0  0  0  0  0  0  0  0  0  0  0
   41.3110   73.4750   59.3730 C   0  0  0  0  0  0  0  0  0  0  0  0
   42.4650   74.1510   59.6370 N   0  0  0  0  0  0  0  0  0  0  0  0
   44.3550   74.1180   60.3510 H   0  0  0  0  0  0  0  0  0  0  0  0
   44.3640   71.7920   60.8830 H   0  0  0  0  0  0  0  0  0  0  0  0
   40.1790   75.5800   58.8590 C   0  0  0  0  0  0  0  0  0  0  0  0
   40.2100   74.1900   58.7430 C   0  0  0  0  0  0  0  0  0  0  0  0
   39.2300   73.5030   58.0280 C   0  0  0  0  0  0  0  0  0  0  0  0
   38.1920   74.1760   57.4070 C   0  0  0  0  0  0  0  0  0  0  0  0
   37.1220   73.8570   56.6680 N   0  0  0  0  0  0  0  0  0  0  0  0
   36.4450   74.9710   56.3260 C   0  0  0  0  0  0  0  0  0  0  0  0
   37.1350   76.0030   56.8850 N   0  0  0  0  0  0  0  0  0  0  0  0
   38.2100   75.5450   57.5520 C   0  0  0  0  0  0  0  0  0  0  0  0
   39.1440   76.2740   58.2420 C   0  0  0  0  0  0  0  0  0  0  0  0
   40.9230   76.1410   59.4070 H   0  0  0  0  0  0  0  0  0  0  0  0
   39.2620   72.4180   57.9440 H   0  0  0  0  0  0  0  0  0  0  0  0
   36.9040   72.8620   56.4260 H   0  0  0  0  0  0  0  0  0  0  0  0
   35.5350   75.0110   55.7270 H   0  0  0  0  0  0  0  0  0  0  0  0
   39.0940   77.3540   58.3140 H   0  0  0  0  0  0  0  0  0  0  0  0
   41.9870   70.7820   63.1100 Cl  0  0  0  0  0  0  0  0  0  0  0  0
   41.9500   69.5950   61.7980 C   0  0  0  0  0  0  0  0  0  0  0  0
   42.0790   70.0650   60.5150 C   0  0  0  0  0  0  0  0  0  0  0  0
   42.0270   69.0680   59.5420 C   0  0  0  0  0  0  0  0  0  0  0  0
   41.8620   67.7260   59.8310 C   0  0  0  0  0  0  0  0  0  0  0  0
   41.7390   67.3220   61.1550 C   0  0  0  0  0  0  0  0  0  0  0  0
   41.5320   65.6410   61.5540 Cl  0  0  0  0  0  0  0  0  0  0  0  0
   41.7850   68.2670   62.1230 C   0  0  0  0  0  0  0  0  0  0  0  0
   42.1190   69.3520   58.5030 H   0  0  0  0  0  0  0  0  0  0  0  0
   41.8310   67.0050   59.0280 H   0  0  0  0  0  0  0  0  0  0  0  0
   41.6630   67.8870   63.4870 N   0  0  0  0  0  0  0  0  0  0  0  0
   42.6940   67.8510   63.7330 H   0  0  0  0  0  0  0  0  0  0  0  0
   40.7980   67.7060   64.0460 H   0  0  0  0  0  0  0  0  0  0  0  0
  1  7  1  0  0  0  0
  1  2  1  0  0  0  0
  2  8  1  0  0  0  0
  3  2  2  0  0  0  0
  3 25  1  0  0  0  0
  4  3  1  0  0  0  0
  5  6  1  0  0  0  0
  5  4  2  0  0  0  0
  6  1  2  0  0  0  0
  9 18  1  0  0  0  0
 10  9  1  0  0  0  0
 10  5  1  0  0  0  0
 11 10  2  0  0  0  0
 12 16  2  0  0  0  0
 12 11  1  0  0  0  0
 13 12  1  0  0  0  0
 14 13  1  0  0  0  0
 14 15  2  0  0  0  0
 15 16  1  0  0  0  0
 16 17  1  0  0  0  0
 17 22  1  0  0  0  0
 17  9  2  0  0  0  0
 19 11  1  0  0  0  0
 20 13  1  0  0  0  0
 21 14  1  0  0  0  0
 24 30  1  0  0  0  0
 24 23  1  0  0  0  0
 25 24  2  0  0  0  0
 26 27  2  0  0  0  0
 26 25  1  0  0  0  0
 27 28  1  0  0  0  0
 28 29  1  0  0  0  0
 28 30  2  0  0  0  0
 30 33  1  0  0  0  0
 31 26  1  0  0  0  0
 32 27  1  0  0  0  0
 33 34  1  0  0  0  0
 33 35  1  0  0  0  0
M  END
>  <minimizedAffinity>
-6.52470112

$$$$

 OpenBabel03212520063D

 35 38  0  0  0  0  0  0  0  0999 V2000
   44.3670   74.2910   59.9750 C   0  0  0  0  0  0  0  0  0  0  0  0
   43.3970   75.0530   59.2960 C   0  0  0  0  0  0  0  0  0  0  0  0
   42.1120   74.5710   59.2940 C   0  0  0  0  0  0  0  0  0  0  0  0
   41.8130   73.4040   59.9320 N   0  0  0  0  0  0  0  0  0  0  0  0
   42.7730   72.6940   60.5810 C   0  0  0  0  0  0  0  0  0  0  0  0
   44.0630   73.1370   60.6040 N   0  0  0  0  0  0  0  0  0  0  0  0
   45.4120   74.5390   60.0600 H   0  0  0  0  0  0  0  0  0  0  0  0
   43.8520   75.9330   58.9130 H   0  0  0  0  0  0  0  0  0  0  0  0
   42.1680   71.5580   62.6580 C   0  0  0  0  0  0  0  0  0  0  0  0
   42.4410   71.4690   61.2930 C   0  0  0  0  0  0  0  0  0  0  0  0
   42.3780   70.2490   60.6220 C   0  0  0  0  0  0  0  0  0  0  0  0
   42.0410   69.0830   61.2870 C   0  0  0  0  0  0  0  0  0  0  0  0
   41.8880   67.7880   60.9780 N   0  0  0  0  0  0  0  0  0  0  0  0
   41.5370   67.0870   62.0730 C   0  0  0  0  0  0  0  0  0  0  0  0
   41.4770   67.9970   63.0840 N   0  0  0  0  0  0  0  0  0  0  0  0
   41.7810   69.2260   62.6310 C   0  0  0  0  0  0  0  0  0  0  0  0
   41.8260   70.3970   63.3440 C   0  0  0  0  0  0  0  0  0  0  0  0
   42.2080   72.4890   63.2070 H   0  0  0  0  0  0  0  0  0  0  0  0
   42.5940   70.1880   59.5570 H   0  0  0  0  0  0  0  0  0  0  0  0
   42.0370   67.4400   60.0010 H   0  0  0  0  0  0  0  0  0  0  0  0
   41.3460   66.0140   62.1160 H   0  0  0  0  0  0  0  0  0  0  0  0
   41.6090   70.4350   64.4040 H   0  0  0  0  0  0  0  0  0  0  0  0
   41.6540   73.7880   56.4530 Cl  0  0  0  0  0  0  0  0  0  0  0  0
   40.7290   75.0350   57.3030 C   0  0  0  0  0  0  0  0  0  0  0  0
   41.0540   75.2820   58.6130 C   0  0  0  0  0  0  0  0  0  0  0  0
   40.2720   76.2680   59.2120 C   0  0  0  0  0  0  0  0  0  0  0  0
   39.2580   76.9420   58.5550 C   0  0  0  0  0  0  0  0  0  0  0  0
   38.9840   76.6390   57.2270 C   0  0  0  0  0  0  0  0  0  0  0  0
   37.7170   77.4690   56.3700 Cl  0  0  0  0  0  0  0  0  0  0  0  0
   39.7270   75.6860   56.6180 C   0  0  0  0  0  0  0  0  0  0  0  0
   40.4610   76.5240   60.2440 H   0  0  0  0  0  0  0  0  0  0  0  0
   38.6890   77.6950   59.0780 H   0  0  0  0  0  0  0  0  0  0  0  0
   39.4730   75.3520   55.2590 N   0  0  0  0  0  0  0  0  0  0  0  0
   40.2180   75.9580   54.8080 H   0  0  0  0  0  0  0  0  0  0  0  0
   38.7580   74.7010   54.8630 H   0  0  0  0  0  0  0  0  0  0  0  0
  1  7  1  0  0  0  0
  1  6  1  0  0  0  0
  2  1  2  0  0  0  0
  3  2  1  0  0  0  0
  3  4  2  0  0  0  0
  4  5  1  0  0  0  0
  5  6  2  0  0  0  0
  5 10  1  0  0  0  0
  8  2  1  0  0  0  0
  9 18  1  0  0  0  0
  9 17  1  0  0  0  0
 10  9  2  0  0  0  0
 11 12  2  0  0  0  0
 11 10  1  0  0  0  0
 12 16  1  0  0  0  0
 13 12  1  0  0  0  0
 13 14  1  0  0  0  0
 14 21  1  0  0  0  0
 14 15  2  0  0  0  0
 16 15  1  0  0  0  0
 16 17  2  0  0  0  0
 17 22  1  0  0  0  0
 19 11  1  0  0  0  0
 20 13  1  0  0  0  0
 23 24  1  0  0  0  0
 24 25  1  0  0  0  0
 25 26  2  0  0  0  0
 25  3  1  0  0  0  0
 26 31  1  0  0  0  0
 27 32  1  0  0  0  0
 27 26  1  0  0  0  0
 28 27  2  0  0  0  0
 29 28  1  0  0  0  0
 30 28  1  0  0  0  0
 30 24  2  0  0  0  0
 33 30  1  0  0  0  0
 34 33  1  0  0  0  0
 35 33  1  0  0  0  0
M  END
>  <minimizedAffinity>
-6.32956696

$$$$

 OpenBabel03212520063D

 35 38  0  0  0  0  0  0  0  0999 V2000
   39.7370   76.5440   60.3200 C   0  0  0  0  0  0  0  0  0  0  0  0
   39.4830   76.7450   58.9500 C   0  0  0  0  0  0  0  0  0  0  0  0
   39.7620   75.7010   58.1030 C   0  0  0  0  0  0  0  0  0  0  0  0
   40.2590   74.5300   58.5940 N   0  0  0  0  0  0  0  0  0  0  0  0
   40.4900   74.3690   59.9230 C   0  0  0  0  0  0  0  0  0  0  0  0
   40.2300   75.3820   60.7970 N   0  0  0  0  0  0  0  0  0  0  0  0
   39.5720   77.2690   61.1010 H   0  0  0  0  0  0  0  0  0  0  0  0
   39.0660   77.7110   58.8110 H   0  0  0  0  0  0  0  0  0  0  0  0
   41.6720   72.2580   59.5750 C   0  0  0  0  0  0  0  0  0  0  0  0
   40.9840   73.1030   60.4460 C   0  0  0  0  0  0  0  0  0  0  0  0
   40.7920   72.7600   61.7830 C   0  0  0  0  0  0  0  0  0  0  0  0
   41.2780   71.5700   62.2940 C   0  0  0  0  0  0  0  0  0  0  0  0
   41.2810   70.9400   63.4760 N   0  0  0  0  0  0  0  0  0  0  0  0
   41.9320   69.7640   63.3750 C   0  0  0  0  0  0  0  0  0  0  0  0
   42.3360   69.6820   62.0770 N   0  0  0  0  0  0  0  0  0  0  0  0
   41.9490   70.7740   61.3930 C   0  0  0  0  0  0  0  0  0  0  0  0
   42.1690   71.0570   60.0700 C   0  0  0  0  0  0  0  0  0  0  0  0
   41.8380   72.4950   58.5330 H   0  0  0  0  0  0  0  0  0  0  0  0
   40.2530   73.4250   62.4550 H   0  0  0  0  0  0  0  0  0  0  0  0
   40.8230   71.3610   64.3190 H   0  0  0  0  0  0  0  0  0  0  0  0
   42.0880   69.0450   64.1790 H   0  0  0  0  0  0  0  0  0  0  0  0
   42.7080   70.3810   59.4170 H   0  0  0  0  0  0  0  0  0  0  0  0
   37.1350   74.6950   57.1150 Cl  0  0  0  0  0  0  0  0  0  0  0  0
   38.3840   75.3980   56.0780 C   0  0  0  0  0  0  0  0  0  0  0  0
   39.5420   75.8210   56.6800 C   0  0  0  0  0  0  0  0  0  0  0  0
   40.4680   76.3730   55.7960 C   0  0  0  0  0  0  0  0  0  0  0  0
   40.2490   76.4890   54.4350 C   0  0  0  0  0  0  0  0  0  0  0  0
   39.0510   76.0380   53.8940 C   0  0  0  0  0  0  0  0  0  0  0  0
   38.7450   76.1670   52.1860 Cl  0  0  0  0  0  0  0  0  0  0  0  0
   38.1320   75.4970   54.7280 C   0  0  0  0  0  0  0  0  0  0  0  0
   41.4080   76.7330   56.1870 H   0  0  0  0  0  0  0  0  0  0  0  0
   41.0090   76.9270   53.8060 H   0  0  0  0  0  0  0  0  0  0  0  0
   36.8960   75.0260   54.2060 N   0  0  0  0  0  0  0  0  0  0  0  0
   37.1460   73.9990   54.1160 H   0  0  0  0  0  0  0  0  0  0  0  0
   36.0250   75.5620   53.9900 H   0  0  0  0  0  0  0  0  0  0  0  0
  1  6  1  0  0  0  0
  1  7  1  0  0  0  0
  2  1  2  0  0  0  0
  3  4  2  0  0  0  0
  3  2  1  0  0  0  0
  4  5  1  0  0  0  0
  5 10  1  0  0  0  0
  5  6  2  0  0  0  0
  8  2  1  0  0  0  0
  9 17  2  0  0  0  0
  9 10  1  0  0  0  0
 10 11  2  0  0  0  0
 11 12  1  0  0  0  0
 11 19  1  0  0  0  0
 12 13  1  0  0  0  0
 13 20  1  0  0  0  0
 14 13  1  0  0  0  0
 14 21  1  0  0  0  0
 15 14  2  0  0  0  0
 16 15  1  0  0  0  0
 16 12  2  0  0  0  0
 17 16  1  0  0  0  0
 18  9  1  0  0  0  0
 22 17  1  0  0  0  0
 24 25  1  0  0  0  0
 24 23  1  0  0  0  0
 25  3  1  0  0  0  0
 26 31  1  0  0  0  0
 26 25  2  0  0  0  0
 27 26  1  0  0  0  0
 28 27  2  0  0  0  0
 28 30  1  0  0  0  0
 29 28  1  0  0  0  0
 30 24  2  0  0  0  0
 32 27  1  0  0  0  0
 33 30  1  0  0  0  0
 34 33  1  0  0  0  0
 35 33  1  0  0  0  0
M  END
>  <minimizedAffinity>
-6.31796026

$$$$

 OpenBabel03212520063D

 35 38  0  0  0  0  0  0  0  0999 V2000
   43.1400   75.6870   58.8590 C   0  0  0  0  0  0  0  0  0  0  0  0
   42.0420   75.8700   57.9960 C   0  0  0  0  0  0  0  0  0  0  0  0
   41.0200   74.9570   58.0820 C   0  0  0  0  0  0  0  0  0  0  0  0
   41.0880   73.9300   58.9760 N   0  0  0  0  0  0  0  0  0  0  0  0
   42.1610   73.7840   59.7960 C   0  0  0  0  0  0  0  0  0  0  0  0
   43.1990   74.6670   59.7400 N   0  0  0  0  0  0  0  0  0  0  0  0
   44.0130   76.3170   58.9040 H   0  0  0  0  0  0  0  0  0  0  0  0
   42.1930   76.7510   57.4230 H   0  0  0  0  0  0  0  0  0  0  0  0
   41.3490   72.7760   61.8700 C   0  0  0  0  0  0  0  0  0  0  0  0
   42.2110   72.7070   60.7750 C   0  0  0  0  0  0  0  0  0  0  0  0
   43.0800   71.6310   60.6070 C   0  0  0  0  0  0  0  0  0  0  0  0
   43.1180   70.5920   61.5210 C   0  0  0  0  0  0  0  0  0  0  0  0
   43.7960   69.4470   61.6740 N   0  0  0  0  0  0  0  0  0  0  0  0
   43.3950   68.8160   62.7950 C   0  0  0  0  0  0  0  0  0  0  0  0
   42.4370   69.6150   63.3400 N   0  0  0  0  0  0  0  0  0  0  0  0
   42.2480   70.7090   62.5810 C   0  0  0  0  0  0  0  0  0  0  0  0
   41.3720   71.7410   62.7980 C   0  0  0  0  0  0  0  0  0  0  0  0
   40.6630   73.5980   62.0280 H   0  0  0  0  0  0  0  0  0  0  0  0
   43.7500   71.5860   59.7510 H   0  0  0  0  0  0  0  0  0  0  0  0
   44.5210   69.1460   60.9800 H   0  0  0  0  0  0  0  0  0  0  0  0
   43.7740   67.8640   63.1670 H   0  0  0  0  0  0  0  0  0  0  0  0
   40.7130   71.7680   63.6590 H   0  0  0  0  0  0  0  0  0  0  0  0
   41.1600   73.4250   55.5280 Cl  0  0  0  0  0  0  0  0  0  0  0  0
   39.7780   74.4160   56.0190 C   0  0  0  0  0  0  0  0  0  0  0  0
   39.8590   75.0610   57.2280 C   0  0  0  0  0  0  0  0  0  0  0  0
   38.7270   75.8080   57.5450 C   0  0  0  0  0  0  0  0  0  0  0  0
   37.6170   75.8990   56.7240 C   0  0  0  0  0  0  0  0  0  0  0  0
   37.6050   75.2190   55.5130 C   0  0  0  0  0  0  0  0  0  0  0  0
   36.2260   75.3140   54.4560 Cl  0  0  0  0  0  0  0  0  0  0  0  0
   38.6910   74.4840   55.1770 C   0  0  0  0  0  0  0  0  0  0  0  0
   38.7060   76.3470   58.4810 H   0  0  0  0  0  0  0  0  0  0  0  0
   36.7720   76.4970   57.0310 H   0  0  0  0  0  0  0  0  0  0  0  0
   38.7110   73.7770   53.9440 N   0  0  0  0  0  0  0  0  0  0  0  0
   39.2430   74.4870   53.3640 H   0  0  0  0  0  0  0  0  0  0  0  0
   38.3090   72.8390   53.7160 H   0  0  0  0  0  0  0  0  0  0  0  0
  1  7  1  0  0  0  0
  1  6  1  0  0  0  0
  2  3  1  0  0  0  0
  2  1  2  0  0  0  0
  3  4  2  0  0  0  0
  4  5  1  0  0  0  0
  5 10  1  0  0  0  0
  6  5  2  0  0  0  0
  8  2  1  0  0  0  0
  9 18  1  0  0  0  0
  9 17  1  0  0  0  0
 10  9  2  0  0  0  0
 11 10  1  0  0  0  0
 11 12  2  0  0  0  0
 12 13  1  0  0  0  0
 12 16  1  0  0  0  0
 13 14  1  0  0  0  0
 14 21  1  0  0  0  0
 14 15  2  0  0  0  0
 16 17  2  0  0  0  0
 16 15  1  0  0  0  0
 17 22  1  0  0  0  0
 19 11  1  0  0  0  0
 20 13  1  0  0  0  0
 23 24  1  0  0  0  0
 24 25  1  0  0  0  0
 25 26  2  0  0  0  0
 25  3  1  0  0  0  0
 26 31  1  0  0  0  0
 27 32  1  0  0  0  0
 27 26  1  0  0  0  0
 28 27  2  0  0  0  0
 29 28  1  0  0  0  0
 30 28  1  0  0  0  0
 30 24  2  0  0  0  0
 33 30  1  0  0  0  0
 34 33  1  0  0  0  0
 35 33  1  0  0  0  0
M  END
>  <minimizedAffinity>
-6.29209805

$$$$

 OpenBabel03212520063D

 35 38  0  0  0  0  0  0  0  0999 V2000
   43.2590   75.1290   59.3410 C   0  0  0  0  0  0  0  0  0  0  0  0
   43.2730   73.9650   60.1320 C   0  0  0  0  0  0  0  0  0  0  0  0
   42.0980   73.2620   60.2310 C   0  0  0  0  0  0  0  0  0  0  0  0
   40.9810   73.6930   59.5770 N   0  0  0  0  0  0  0  0  0  0  0  0
   41.0030   74.8200   58.8180 C   0  0  0  0  0  0  0  0  0  0  0  0
   42.1500   75.5490   58.6980 N   0  0  0  0  0  0  0  0  0  0  0  0
   44.1000   75.7820   59.1720 H   0  0  0  0  0  0  0  0  0  0  0  0
   44.2540   73.8100   60.5060 H   0  0  0  0  0  0  0  0  0  0  0  0
   38.7150   74.4020   58.0700 C   0  0  0  0  0  0  0  0  0  0  0  0
   39.8190   75.2540   58.0920 C   0  0  0  0  0  0  0  0  0  0  0  0
   39.7870   76.4940   57.4560 C   0  0  0  0  0  0  0  0  0  0  0  0
   38.6570   76.9240   56.7820 C   0  0  0  0  0  0  0  0  0  0  0  0
   38.2830   78.0070   56.0880 N   0  0  0  0  0  0  0  0  0  0  0  0
   37.0180   77.8630   55.6480 C   0  0  0  0  0  0  0  0  0  0  0  0
   36.6130   76.6430   56.0960 N   0  0  0  0  0  0  0  0  0  0  0  0
   37.5970   76.0460   56.7930 C   0  0  0  0  0  0  0  0  0  0  0  0
   37.5690   74.8160   57.3990 C   0  0  0  0  0  0  0  0  0  0  0  0
   38.7090   73.4340   58.5530 H   0  0  0  0  0  0  0  0  0  0  0  0
   40.6530   77.1520   57.4770 H   0  0  0  0  0  0  0  0  0  0  0  0
   38.9350   78.8140   55.9470 H   0  0  0  0  0  0  0  0  0  0  0  0
   36.4560   78.5880   55.0580 H   0  0  0  0  0  0  0  0  0  0  0  0
   36.6960   74.1760   57.3650 H   0  0  0  0  0  0  0  0  0  0  0  0
   42.4590   70.7010   58.7470 Cl  0  0  0  0  0  0  0  0  0  0  0  0
   42.1580   70.8090   60.4880 C   0  0  0  0  0  0  0  0  0  0  0  0
   42.0160   72.0620   61.0300 C   0  0  0  0  0  0  0  0  0  0  0  0
   41.7940   72.0590   62.4050 C   0  0  0  0  0  0  0  0  0  0  0  0
   41.7210   70.9050   63.1650 C   0  0  0  0  0  0  0  0  0  0  0  0
   41.8730   69.6690   62.5480 C   0  0  0  0  0  0  0  0  0  0  0  0
   41.7850   68.1980   63.4740 Cl  0  0  0  0  0  0  0  0  0  0  0  0
   42.0910   69.6400   61.2130 C   0  0  0  0  0  0  0  0  0  0  0  0
   41.6720   73.0040   62.9130 H   0  0  0  0  0  0  0  0  0  0  0  0
   41.5460   70.9740   64.2280 H   0  0  0  0  0  0  0  0  0  0  0  0
   42.2510   68.3920   60.5510 N   0  0  0  0  0  0  0  0  0  0  0  0
   41.2560   68.2700   60.2030 H   0  0  0  0  0  0  0  0  0  0  0  0
   43.1080   67.8010   60.4560 H   0  0  0  0  0  0  0  0  0  0  0  0
  1  2  1  0  0  0  0
  2  3  2  0  0  0  0
  2  8  1  0  0  0  0
  3 25  1  0  0  0  0
  4  3  1  0  0  0  0
  5  4  2  0  0  0  0
  6  5  1  0  0  0  0
  6  1  2  0  0  0  0
  7  1  1  0  0  0  0
  9 10  1  0  0  0  0
  9 18  1  0  0  0  0
 10  5  1  0  0  0  0
 11 19  1  0  0  0  0
 11 10  2  0  0  0  0
 12 16  2  0  0  0  0
 12 11  1  0  0  0  0
 13 12  1  0  0  0  0
 14 13  1  0  0  0  0
 14 15  2  0  0  0  0
 15 16  1  0  0  0  0
 16 17  1  0  0  0  0
 17  9  2  0  0  0  0
 20 13  1  0  0  0  0
 21 14  1  0  0  0  0
 22 17  1  0  0  0  0
 23 24  1  0  0  0  0
 24 25  2  0  0  0  0
 24 30  1  0  0  0  0
 25 26  1  0  0  0  0
 26 31  1  0  0  0  0
 26 27  2  0  0  0  0
 27 32  1  0  0  0  0
 28 27  1  0  0  0  0
 28 29  1  0  0  0  0
 30 28  2  0  0  0  0
 33 30  1  0  0  0  0
 34 33  1  0  0  0  0
 35 33  1  0  0  0  0
M  END
>  <minimizedAffinity>
-6.26795149

$$$$

 OpenBabel03212520063D

 35 38  0  0  0  0  0  0  0  0999 V2000
   42.8840   70.3970   56.7820 C   0  0  0  0  0  0  0  0  0  0  0  0
   42.4920   71.7040   57.1310 C   0  0  0  0  0  0  0  0  0  0  0  0
   41.8650   71.8660   58.3420 C   0  0  0  0  0  0  0  0  0  0  0  0
   41.6470   70.7920   59.1540 N   0  0  0  0  0  0  0  0  0  0  0  0
   42.0410   69.5440   58.7870 C   0  0  0  0  0  0  0  0  0  0  0  0
   42.6640   69.3400   57.5910 N   0  0  0  0  0  0  0  0  0  0  0  0
   43.3810   70.1150   55.8680 H   0  0  0  0  0  0  0  0  0  0  0  0
   42.7990   72.3750   56.3680 H   0  0  0  0  0  0  0  0  0  0  0  0
   41.8170   67.1320   59.1110 C   0  0  0  0  0  0  0  0  0  0  0  0
   41.8390   68.4080   59.6740 C   0  0  0  0  0  0  0  0  0  0  0  0
   41.6950   68.5940   61.0480 C   0  0  0  0  0  0  0  0  0  0  0  0
   41.5260   67.5170   61.9020 C   0  0  0  0  0  0  0  0  0  0  0  0
   41.3640   67.3280   63.2180 N   0  0  0  0  0  0  0  0  0  0  0  0
   41.2470   66.0130   63.4870 C   0  0  0  0  0  0  0  0  0  0  0  0
   41.3410   65.3840   62.2830 N   0  0  0  0  0  0  0  0  0  0  0  0
   41.5120   66.2820   61.2950 C   0  0  0  0  0  0  0  0  0  0  0  0
   41.6490   66.0380   59.9530 C   0  0  0  0  0  0  0  0  0  0  0  0
   41.9260   66.9550   58.0500 H   0  0  0  0  0  0  0  0  0  0  0  0
   41.7130   69.5930   61.4790 H   0  0  0  0  0  0  0  0  0  0  0  0
   41.3410   68.1340   63.8860 H   0  0  0  0  0  0  0  0  0  0  0  0
   41.1060   65.5680   64.4720 H   0  0  0  0  0  0  0  0  0  0  0  0
   41.6280   65.0350   59.5440 H   0  0  0  0  0  0  0  0  0  0  0  0
   38.9350   72.3680   58.1080 Cl  0  0  0  0  0  0  0  0  0  0  0  0
   40.1010   73.5480   58.7270 C   0  0  0  0  0  0  0  0  0  0  0  0
   41.4190   73.1690   58.7770 C   0  0  0  0  0  0  0  0  0  0  0  0
   42.2680   74.1490   59.2870 C   0  0  0  0  0  0  0  0  0  0  0  0
   41.8330   75.3940   59.7060 C   0  0  0  0  0  0  0  0  0  0  0  0
   40.4820   75.7090   59.6250 C   0  0  0  0  0  0  0  0  0  0  0  0
   39.9020   77.2670   60.1420 Cl  0  0  0  0  0  0  0  0  0  0  0  0
   39.6330   74.7770   59.1340 C   0  0  0  0  0  0  0  0  0  0  0  0
   43.3240   73.9330   59.3630 H   0  0  0  0  0  0  0  0  0  0  0  0
   42.5450   76.1080   60.0910 H   0  0  0  0  0  0  0  0  0  0  0  0
   38.2440   75.0680   59.0380 N   0  0  0  0  0  0  0  0  0  0  0  0
   38.2160   75.3610   58.0190 H   0  0  0  0  0  0  0  0  0  0  0  0
   37.5040   75.0020   59.7730 H   0  0  0  0  0  0  0  0  0  0  0  0
  1  2  2  0  0  0  0
  1  6  1  0  0  0  0
  2  3  1  0  0  0  0
  3 25  1  0  0  0  0
  3  4  2  0  0  0  0
  5  4  1  0  0  0  0
  5 10  1  0  0  0  0
  6  5  2  0  0  0  0
  7  1  1  0  0  0  0
  8  2  1  0  0  0  0
  9 10  2  0  0  0  0
  9 17  1  0  0  0  0
 10 11  1  0  0  0  0
 11 19  1  0  0  0  0
 11 12  2  0  0  0  0
 12 13  1  0  0  0  0
 13 14  1  0  0  0  0
 13 20  1  0  0  0  0
 14 21  1  0  0  0  0
 15 14  2  0  0  0  0
 16 12  1  0  0  0  0
 16 15  1  0  0  0  0
 17 16  2  0  0  0  0
 18  9  1  0  0  0  0
 22 17  1  0  0  0  0
 23 24  1  0  0  0  0
 24 25  2  0  0  0  0
 24 30  1  0  0  0  0
 25 26  1  0  0  0  0
 26 31  1  0  0  0  0
 26 27  2  0  0  0  0
 27 32  1  0  0  0  0
 28 27  1  0  0  0  0
 28 29  1  0  0  0  0
 30 28  2  0  0  0  0
 33 30  1  0  0  0  0
 33 35  1  0  0  0  0
 34 33  1  0  0  0  0
M  END
>  <minimizedAffinity>
-6.23225927

$$$$

 OpenBabel03212520063D

 35 38  0  0  0  0  0  0  0  0999 V2000
   43.8880   75.0120   58.7240 C   0  0  0  0  0  0  0  0  0  0  0  0
   44.0160   73.8120   59.4490 C   0  0  0  0  0  0  0  0  0  0  0  0
   42.8710   73.0830   59.6590 C   0  0  0  0  0  0  0  0  0  0  0  0
   41.6760   73.5230   59.1710 N   0  0  0  0  0  0  0  0  0  0  0  0
   41.5890   74.6850   58.4720 C   0  0  0  0  0  0  0  0  0  0  0  0
   42.7020   75.4400   58.2450 N   0  0  0  0  0  0  0  0  0  0  0  0
   44.6930   75.6880   58.4840 H   0  0  0  0  0  0  0  0  0  0  0  0
   45.0380   73.6580   59.6900 H   0  0  0  0  0  0  0  0  0  0  0  0
   39.1640   74.4390   58.2930 C   0  0  0  0  0  0  0  0  0  0  0  0
   40.3170   75.1300   57.9210 C   0  0  0  0  0  0  0  0  0  0  0  0
   40.2560   76.2290   57.0660 C   0  0  0  0  0  0  0  0  0  0  0  0
   39.0490   76.6720   56.5550 C   0  0  0  0  0  0  0  0  0  0  0  0
   38.6290   77.6510   55.7430 N   0  0  0  0  0  0  0  0  0  0  0  0
   37.2910   77.5960   55.6000 C   0  0  0  0  0  0  0  0  0  0  0  0
   36.8870   76.5390   56.3580 N   0  0  0  0  0  0  0  0  0  0  0  0
   37.9430   75.9560   56.9530 C   0  0  0  0  0  0  0  0  0  0  0  0
   37.9410   74.8690   57.7900 C   0  0  0  0  0  0  0  0  0  0  0  0
   39.1780   73.5830   58.9540 H   0  0  0  0  0  0  0  0  0  0  0  0
   41.1610   76.7620   56.7800 H   0  0  0  0  0  0  0  0  0  0  0  0
   39.3030   78.3290   55.3140 H   0  0  0  0  0  0  0  0  0  0  0  0
   36.6800   78.2680   54.9980 H   0  0  0  0  0  0  0  0  0  0  0  0
   37.0280   74.3520   58.0620 H   0  0  0  0  0  0  0  0  0  0  0  0
   41.2040   73.0170   62.1290 Cl  0  0  0  0  0  0  0  0  0  0  0  0
   42.1940   71.6650   61.5610 C   0  0  0  0  0  0  0  0  0  0  0  0
   42.9060   71.8450   60.4020 C   0  0  0  0  0  0  0  0  0  0  0  0
   43.6490   70.7300   60.0170 C   0  0  0  0  0  0  0  0  0  0  0  0
   43.6750   69.5460   60.7320 C   0  0  0  0  0  0  0  0  0  0  0  0
   42.9290   69.4350   61.8990 C   0  0  0  0  0  0  0  0  0  0  0  0
   42.9400   67.9600   62.8220 Cl  0  0  0  0  0  0  0  0  0  0  0  0
   42.1960   70.5010   62.2970 C   0  0  0  0  0  0  0  0  0  0  0  0
   44.2390   70.7860   59.1140 H   0  0  0  0  0  0  0  0  0  0  0  0
   44.2730   68.7200   60.3780 H   0  0  0  0  0  0  0  0  0  0  0  0
   41.4220   70.4210   63.4870 N   0  0  0  0  0  0  0  0  0  0  0  0
   42.1090   70.8800   64.1520 H   0  0  0  0  0  0  0  0  0  0  0  0
   40.4660   70.0220   63.6250 H   0  0  0  0  0  0  0  0  0  0  0  0
  1  2  1  0  0  0  0
  2  3  2  0  0  0  0
  2  8  1  0  0  0  0
  3 25  1  0  0  0  0
  4  3  1  0  0  0  0
  5  4  2  0  0  0  0
  6  5  1  0  0  0  0
  6  1  2  0  0  0  0
  7  1  1  0  0  0  0
  9 18  1  0  0  0  0
 10  9  1  0  0  0  0
 10  5  1  0  0  0  0
 11 10  2  0  0  0  0
 12 16  2  0  0  0  0
 12 11  1  0  0  0  0
 13 12  1  0  0  0  0
 14 13  1  0  0  0  0
 14 15  2  0  0  0  0
 15 16  1  0  0  0  0
 16 17  1  0  0  0  0
 17 22  1  0  0  0  0
 17  9  2  0  0  0  0
 19 11  1  0  0  0  0
 20 13  1  0  0  0  0
 21 14  1  0  0  0  0
 24 23  1  0  0  0  0
 24 30  1  0  0  0  0
 25 24  2  0  0  0  0
 26 25  1  0  0  0  0
 26 27  2  0  0  0  0
 27 28  1  0  0  0  0
 28 30  2  0  0  0  0
 28 29  1  0  0  0  0
 30 33  1  0  0  0  0
 31 26  1  0  0  0  0
 32 27  1  0  0  0  0
 33 35  1  0  0  0  0
 33 34  1  0  0  0  0
M  END
>  <minimizedAffinity>
-6.05286646

$$$$

 OpenBabel03212520063D

 35 38  0  0  0  0  0  0  0  0999 V2000
   41.5700   74.8970   59.9980 C   0  0  0  0  0  0  0  0  0  0  0  0
   41.7930   73.5090   60.0780 C   0  0  0  0  0  0  0  0  0  0  0  0
   41.0740   72.7090   59.2240 C   0  0  0  0  0  0  0  0  0  0  0  0
   40.1900   73.2620   58.3440 N   0  0  0  0  0  0  0  0  0  0  0  0
   40.0010   74.6060   58.2910 C   0  0  0  0  0  0  0  0  0  0  0  0
   40.6940   75.4340   59.1240 N   0  0  0  0  0  0  0  0  0  0  0  0
   42.0560   75.6450   60.6020 H   0  0  0  0  0  0  0  0  0  0  0  0
   42.5460   73.3180   60.8020 H   0  0  0  0  0  0  0  0  0  0  0  0
   38.6690   76.5080   57.5280 C   0  0  0  0  0  0  0  0  0  0  0  0
   39.0860   75.1930   57.3230 C   0  0  0  0  0  0  0  0  0  0  0  0
   38.6580   74.4640   56.2140 C   0  0  0  0  0  0  0  0  0  0  0  0
   37.8060   75.0210   55.2770 C   0  0  0  0  0  0  0  0  0  0  0  0
   37.2160   74.6350   54.1380 N   0  0  0  0  0  0  0  0  0  0  0  0
   36.4670   75.6390   53.6390 C   0  0  0  0  0  0  0  0  0  0  0  0
   36.6120   76.6720   54.5140 N   0  0  0  0  0  0  0  0  0  0  0  0
   37.4260   76.3210   55.5270 C   0  0  0  0  0  0  0  0  0  0  0  0
   37.8130   77.0860   56.5970 C   0  0  0  0  0  0  0  0  0  0  0  0
   38.9830   77.0990   58.3780 H   0  0  0  0  0  0  0  0  0  0  0  0
   38.9870   73.4380   56.0630 H   0  0  0  0  0  0  0  0  0  0  0  0
   37.3600   73.6740   53.7490 H   0  0  0  0  0  0  0  0  0  0  0  0
   35.8770   75.6060   52.7230 H   0  0  0  0  0  0  0  0  0  0  0  0
   37.4730   78.1060   56.7300 H   0  0  0  0  0  0  0  0  0  0  0  0
   42.3450   71.5860   61.6760 Cl  0  0  0  0  0  0  0  0  0  0  0  0
   41.8020   70.6120   60.3020 C   0  0  0  0  0  0  0  0  0  0  0  0
   41.2300   71.2740   59.2440 C   0  0  0  0  0  0  0  0  0  0  0  0
   40.8190   70.4340   58.2100 C   0  0  0  0  0  0  0  0  0  0  0  0
   40.9690   69.0590   58.2370 C   0  0  0  0  0  0  0  0  0  0  0  0
   41.5570   68.4570   59.3420 C   0  0  0  0  0  0  0  0  0  0  0  0
   41.7620   66.7300   59.4080 Cl  0  0  0  0  0  0  0  0  0  0  0  0
   41.9670   69.2460   60.3630 C   0  0  0  0  0  0  0  0  0  0  0  0
   40.3570   70.8730   57.3380 H   0  0  0  0  0  0  0  0  0  0  0  0
   40.6270   68.4670   57.4010 H   0  0  0  0  0  0  0  0  0  0  0  0
   42.5730   68.6620   61.5080 N   0  0  0  0  0  0  0  0  0  0  0  0
   43.5890   68.8040   61.2370 H   0  0  0  0  0  0  0  0  0  0  0  0
   42.1210   68.2310   62.3460 H   0  0  0  0  0  0  0  0  0  0  0  0
  1  2  1  0  0  0  0
  1  7  1  0  0  0  0
  2  8  1  0  0  0  0
  3 25  1  0  0  0  0
  3  2  2  0  0  0  0
  4  3  1  0  0  0  0
  5  4  2  0  0  0  0
  5  6  1  0  0  0  0
  6  1  2  0  0  0  0
  9 18  1  0  0  0  0
 10  9  1  0  0  0  0
 10  5  1  0  0  0  0
 11 10  2  0  0  0  0
 12 16  2  0  0  0  0
 12 11  1  0  0  0  0
 13 12  1  0  0  0  0
 14 13  1  0  0  0  0
 14 15  2  0  0  0  0
 15 16  1  0  0  0  0
 16 17  1  0  0  0  0
 17 22  1  0  0  0  0
 17  9  2  0  0  0  0
 19 11  1  0  0  0  0
 20 13  1  0  0  0  0
 21 14  1  0  0  0  0
 24 30  1  0  0  0  0
 24 23  1  0  0  0  0
 25 24  2  0  0  0  0
 26 27  2  0  0  0  0
 26 25  1  0  0  0  0
 27 28  1  0  0  0  0
 28 29  1  0  0  0  0
 28 30  2  0  0  0  0
 30 33  1  0  0  0  0
 31 26  1  0  0  0  0
 32 27  1  0  0  0  0
 33 35  1  0  0  0  0
 34 33  1  0  0  0  0
M  END
>  <minimizedAffinity>
-5.98416042

$$$$
