
 OpenBabel03212520543D

 27 29  0  0  0  0  0  0  0  0999 V2000
   41.2860   72.0320   61.0860 C   0  0  0  0  0  0  0  0  0  0  0  0
   40.9130   73.1360   61.8480 C   0  0  0  0  0  0  0  0  0  0  0  0
   40.1780   74.0980   61.2470 C   0  0  0  0  0  0  0  0  0  0  0  0
   39.8180   73.9640   59.9050 C   0  0  0  0  0  0  0  0  0  0  0  0
   40.5740   72.3440   59.4350 S   0  0  0  0  0  0  0  0  0  0  0  0
   41.1940   73.2370   62.8870 H   0  0  0  0  0  0  0  0  0  0  0  0
   39.7970   75.0180   61.6630 H   0  0  0  0  0  0  0  0  0  0  0  0
   39.0760   74.7330   58.9470 C   0  0  0  0  0  0  0  0  0  0  0  0
   39.3350   76.0730   58.8290 C   0  0  0  0  0  0  0  0  0  0  0  0
   38.5560   76.7190   57.8690 C   0  0  0  0  0  0  0  0  0  0  0  0
   37.6280   76.0790   57.1220 N   0  0  0  0  0  0  0  0  0  0  0  0
   37.4430   74.7460   57.3100 C   0  0  0  0  0  0  0  0  0  0  0  0
   38.1750   74.0580   58.2360 N   0  0  0  0  0  0  0  0  0  0  0  0
   40.0640   76.6200   59.4050 H   0  0  0  0  0  0  0  0  0  0  0  0
   38.6500   77.7760   57.6670 H   0  0  0  0  0  0  0  0  0  0  0  0
   36.4670   74.0900   56.5190 N   0  0  0  0  0  0  0  0  0  0  0  0
   36.7560   73.6290   55.6210 H   0  0  0  0  0  0  0  0  0  0  0  0
   35.4490   73.9730   56.6750 H   0  0  0  0  0  0  0  0  0  0  0  0
   43.6700   69.2530   61.1410 C   0  0  0  0  0  0  0  0  0  0  0  0
   43.5900   68.7870   62.4800 C   0  0  0  0  0  0  0  0  0  0  0  0
   42.7150   69.4390   63.3420 C   0  0  0  0  0  0  0  0  0  0  0  0
   42.0010   70.4670   62.8560 N   0  0  0  0  0  0  0  0  0  0  0  0
   42.0880   70.8940   61.5940 C   0  0  0  0  0  0  0  0  0  0  0  0
   42.9120   70.2970   60.7430 N   0  0  0  0  0  0  0  0  0  0  0  0
   44.3280   68.7900   60.4260 H   0  0  0  0  0  0  0  0  0  0  0  0
   44.2100   67.9650   62.7320 H   0  0  0  0  0  0  0  0  0  0  0  0
   42.6500   69.0920   64.3580 H   0  0  0  0  0  0  0  0  0  0  0  0
  1 23  1  0  0  0  0
  1  2  2  0  0  0  0
  2  6  1  0  0  0  0
  3  7  1  0  0  0  0
  3  2  1  0  0  0  0
  4  3  2  0  0  0  0
  5  4  1  0  0  0  0
  5  1  1  0  0  0  0
  8  4  1  0  0  0  0
  9  8  1  0  0  0  0
  9 14  1  0  0  0  0
 10  9  2  0  0  0  0
 11 12  2  0  0  0  0
 11 10  1  0  0  0  0
 12 13  1  0  0  0  0
 13  8  2  0  0  0  0
 15 10  1  0  0  0  0
 16 18  1  0  0  0  0
 16 12  1  0  0  0  0
 17 16  1  0  0  0  0
 19 20  1  0  0  0  0
 20 26  1  0  0  0  0
 20 21  2  0  0  0  0
 21 27  1  0  0  0  0
 22 21  1  0  0  0  0
 23 22  2  0  0  0  0
 24 19  2  0  0  0  0
 24 23  1  0  0  0  0
 25 19  1  0  0  0  0
M  END
>  <minimizedAffinity>
-5.57393599

$$$$

 OpenBabel03212520543D

 27 29  0  0  0  0  0  0  0  0999 V2000
   42.3410   69.3700   61.7510 C   0  0  0  0  0  0  0  0  0  0  0  0
   42.1050   70.0950   62.9170 C   0  0  0  0  0  0  0  0  0  0  0  0
   41.7390   71.3890   62.7910 C   0  0  0  0  0  0  0  0  0  0  0  0
   41.6090   71.9580   61.5230 C   0  0  0  0  0  0  0  0  0  0  0  0
   42.0370   70.5550   60.3980 S   0  0  0  0  0  0  0  0  0  0  0  0
   42.2070   69.6520   63.8980 H   0  0  0  0  0  0  0  0  0  0  0  0
   41.5150   72.1080   63.5650 H   0  0  0  0  0  0  0  0  0  0  0  0
   41.2560   73.2440   60.9910 C   0  0  0  0  0  0  0  0  0  0  0  0
   42.0630   73.8110   60.0410 C   0  0  0  0  0  0  0  0  0  0  0  0
   41.6250   75.0590   59.5960 C   0  0  0  0  0  0  0  0  0  0  0  0
   40.5040   75.6550   60.0640 N   0  0  0  0  0  0  0  0  0  0  0  0
   39.7670   75.0120   61.0090 C   0  0  0  0  0  0  0  0  0  0  0  0
   40.1450   73.7880   61.4830 N   0  0  0  0  0  0  0  0  0  0  0  0
   42.9630   73.3710   59.6430 H   0  0  0  0  0  0  0  0  0  0  0  0
   42.1600   75.6250   58.8490 H   0  0  0  0  0  0  0  0  0  0  0  0
   38.5960   75.6490   61.4870 N   0  0  0  0  0  0  0  0  0  0  0  0
   37.6710   75.4370   61.0360 H   0  0  0  0  0  0  0  0  0  0  0  0
   38.4740   76.3350   62.2550 H   0  0  0  0  0  0  0  0  0  0  0  0
   42.2890   65.7600   62.3620 C   0  0  0  0  0  0  0  0  0  0  0  0
   43.4510   65.3030   61.6870 C   0  0  0  0  0  0  0  0  0  0  0  0
   44.2340   66.2460   61.0320 C   0  0  0  0  0  0  0  0  0  0  0  0
   43.8440   67.5310   61.0780 N   0  0  0  0  0  0  0  0  0  0  0  0
   42.7470   67.9460   61.7170 C   0  0  0  0  0  0  0  0  0  0  0  0
   41.9760   67.0730   62.3530 N   0  0  0  0  0  0  0  0  0  0  0  0
   41.6420   65.0780   62.8880 H   0  0  0  0  0  0  0  0  0  0  0  0
   43.6430   64.2610   61.7300 H   0  0  0  0  0  0  0  0  0  0  0  0
   45.1150   65.9080   60.5170 H   0  0  0  0  0  0  0  0  0  0  0  0
  1  2  2  0  0  0  0
  2  6  1  0  0  0  0
  3  2  1  0  0  0  0
  3  7  1  0  0  0  0
  4  3  2  0  0  0  0
  5  4  1  0  0  0  0
  5  1  1  0  0  0  0
  8 13  1  0  0  0  0
  8  4  1  0  0  0  0
  9  8  2  0  0  0  0
 10  9  1  0  0  0  0
 10 11  2  0  0  0  0
 11 12  1  0  0  0  0
 12 13  2  0  0  0  0
 12 16  1  0  0  0  0
 14  9  1  0  0  0  0
 15 10  1  0  0  0  0
 16 18  1  0  0  0  0
 17 16  1  0  0  0  0
 19 25  1  0  0  0  0
 20 26  1  0  0  0  0
 20 19  2  0  0  0  0
 21 22  2  0  0  0  0
 21 20  1  0  0  0  0
 22 23  1  0  0  0  0
 23  1  1  0  0  0  0
 23 24  2  0  0  0  0
 24 19  1  0  0  0  0
 27 21  1  0  0  0  0
M  END
>  <minimizedAffinity>
-5.33838987

$$$$

 OpenBabel03212520543D

 27 29  0  0  0  0  0  0  0  0999 V2000
   42.0800   71.9250   61.2240 C   0  0  0  0  0  0  0  0  0  0  0  0
   41.8960   71.7910   62.5970 C   0  0  0  0  0  0  0  0  0  0  0  0
   41.7910   70.5420   63.1010 C   0  0  0  0  0  0  0  0  0  0  0  0
   41.8660   69.4380   62.2490 C   0  0  0  0  0  0  0  0  0  0  0  0
   42.1080   70.2150   60.5890 S   0  0  0  0  0  0  0  0  0  0  0  0
   41.8380   72.6480   63.2540 H   0  0  0  0  0  0  0  0  0  0  0  0
   41.6470   70.2340   64.1250 H   0  0  0  0  0  0  0  0  0  0  0  0
   41.8020   68.0110   62.3890 C   0  0  0  0  0  0  0  0  0  0  0  0
   40.5840   67.4200   62.5950 C   0  0  0  0  0  0  0  0  0  0  0  0
   40.6400   66.0320   62.7160 C   0  0  0  0  0  0  0  0  0  0  0  0
   41.7950   65.3320   62.6390 N   0  0  0  0  0  0  0  0  0  0  0  0
   42.9560   66.0090   62.4320 C   0  0  0  0  0  0  0  0  0  0  0  0
   42.9650   67.3680   62.3050 N   0  0  0  0  0  0  0  0  0  0  0  0
   39.6420   67.9410   62.6640 H   0  0  0  0  0  0  0  0  0  0  0  0
   39.7580   65.4320   62.8820 H   0  0  0  0  0  0  0  0  0  0  0  0
   44.1580   65.2610   62.3530 N   0  0  0  0  0  0  0  0  0  0  0  0
   44.5100   64.9480   61.4140 H   0  0  0  0  0  0  0  0  0  0  0  0
   44.7980   64.9440   63.1030 H   0  0  0  0  0  0  0  0  0  0  0  0
   41.1690   75.1370   59.7180 C   0  0  0  0  0  0  0  0  0  0  0  0
   42.4080   75.6210   59.2200 C   0  0  0  0  0  0  0  0  0  0  0  0
   43.5370   74.8330   59.4110 C   0  0  0  0  0  0  0  0  0  0  0  0
   43.3870   73.6630   60.0550 N   0  0  0  0  0  0  0  0  0  0  0  0
   42.2150   73.2210   60.5180 C   0  0  0  0  0  0  0  0  0  0  0  0
   41.1160   73.9470   60.3540 N   0  0  0  0  0  0  0  0  0  0  0  0
   40.2600   75.7010   59.6010 H   0  0  0  0  0  0  0  0  0  0  0  0
   42.3850   76.5620   58.7310 H   0  0  0  0  0  0  0  0  0  0  0  0
   44.4780   75.1930   59.0380 H   0  0  0  0  0  0  0  0  0  0  0  0
  1  2  2  0  0  0  0
  2  3  1  0  0  0  0
  2  6  1  0  0  0  0
  3  7  1  0  0  0  0
  4  8  1  0  0  0  0
  4  3  2  0  0  0  0
  5  1  1  0  0  0  0
  5  4  1  0  0  0  0
  8  9  1  0  0  0  0
  9 14  1  0  0  0  0
  9 10  2  0  0  0  0
 10 15  1  0  0  0  0
 11 10  1  0  0  0  0
 12 11  2  0  0  0  0
 13  8  2  0  0  0  0
 13 12  1  0  0  0  0
 16 12  1  0  0  0  0
 16 18  1  0  0  0  0
 17 16  1  0  0  0  0
 19 24  1  0  0  0  0
 20 21  1  0  0  0  0
 20 19  2  0  0  0  0
 21 22  2  0  0  0  0
 22 23  1  0  0  0  0
 23  1  1  0  0  0  0
 24 23  2  0  0  0  0
 25 19  1  0  0  0  0
 26 20  1  0  0  0  0
 27 21  1  0  0  0  0
M  END
>  <minimizedAffinity>
-5.3199482

$$$$

 OpenBabel03212520543D

 27 29  0  0  0  0  0  0  0  0999 V2000
   42.2550   69.3640   61.6770 C   0  0  0  0  0  0  0  0  0  0  0  0
   42.0600   70.0810   62.8550 C   0  0  0  0  0  0  0  0  0  0  0  0
   41.7190   71.3840   62.7510 C   0  0  0  0  0  0  0  0  0  0  0  0
   41.5720   71.9680   61.4920 C   0  0  0  0  0  0  0  0  0  0  0  0
   41.9450   70.5690   60.3430 S   0  0  0  0  0  0  0  0  0  0  0  0
   42.1760   69.6250   63.8290 H   0  0  0  0  0  0  0  0  0  0  0  0
   41.5270   72.0980   63.5370 H   0  0  0  0  0  0  0  0  0  0  0  0
   41.2340   73.2670   60.9820 C   0  0  0  0  0  0  0  0  0  0  0  0
   42.0440   73.8380   60.0360 C   0  0  0  0  0  0  0  0  0  0  0  0
   41.6210   75.0970   59.6130 C   0  0  0  0  0  0  0  0  0  0  0  0
   40.5100   75.7010   60.0950 N   0  0  0  0  0  0  0  0  0  0  0  0
   39.7690   75.0540   61.0330 C   0  0  0  0  0  0  0  0  0  0  0  0
   40.1330   73.8180   61.4870 N   0  0  0  0  0  0  0  0  0  0  0  0
   42.9360   73.3910   59.6270 H   0  0  0  0  0  0  0  0  0  0  0  0
   42.1610   75.6680   58.8720 H   0  0  0  0  0  0  0  0  0  0  0  0
   38.6090   75.7000   61.5280 N   0  0  0  0  0  0  0  0  0  0  0  0
   37.6800   75.5070   61.0780 H   0  0  0  0  0  0  0  0  0  0  0  0
   38.5000   76.3760   62.3060 H   0  0  0  0  0  0  0  0  0  0  0  0
   43.9570   66.2890   60.6470 C   0  0  0  0  0  0  0  0  0  0  0  0
   43.3580   65.2990   61.4700 C   0  0  0  0  0  0  0  0  0  0  0  0
   42.3770   65.7070   62.3660 C   0  0  0  0  0  0  0  0  0  0  0  0
   42.0570   67.0120   62.3990 N   0  0  0  0  0  0  0  0  0  0  0  0
   42.6290   67.9320   61.6190 C   0  0  0  0  0  0  0  0  0  0  0  0
   43.5700   67.5780   60.7510 N   0  0  0  0  0  0  0  0  0  0  0  0
   44.7220   66.0360   59.9330 H   0  0  0  0  0  0  0  0  0  0  0  0
   43.7040   64.3060   61.3410 H   0  0  0  0  0  0  0  0  0  0  0  0
   41.9190   64.9640   62.9930 H   0  0  0  0  0  0  0  0  0  0  0  0
  1  2  2  0  0  0  0
  2  6  1  0  0  0  0
  3  2  1  0  0  0  0
  3  7  1  0  0  0  0
  4  3  2  0  0  0  0
  5  4  1  0  0  0  0
  5  1  1  0  0  0  0
  8 13  1  0  0  0  0
  8  4  1  0  0  0  0
  9  8  2  0  0  0  0
 10  9  1  0  0  0  0
 10 11  2  0  0  0  0
 11 12  1  0  0  0  0
 12 13  2  0  0  0  0
 12 16  1  0  0  0  0
 14  9  1  0  0  0  0
 15 10  1  0  0  0  0
 16 18  1  0  0  0  0
 17 16  1  0  0  0  0
 19 24  2  0  0  0  0
 19 20  1  0  0  0  0
 20 21  2  0  0  0  0
 21 22  1  0  0  0  0
 21 27  1  0  0  0  0
 23  1  1  0  0  0  0
 23 22  2  0  0  0  0
 24 23  1  0  0  0  0
 25 19  1  0  0  0  0
 26 20  1  0  0  0  0
M  END
>  <minimizedAffinity>
-5.2934823

$$$$

 OpenBabel03212520543D

 27 29  0  0  0  0  0  0  0  0999 V2000
   40.1520   74.3620   59.4180 C   0  0  0  0  0  0  0  0  0  0  0  0
   39.5780   75.6100   59.6490 C   0  0  0  0  0  0  0  0  0  0  0  0
   38.8740   76.1760   58.6450 C   0  0  0  0  0  0  0  0  0  0  0  0
   38.7410   75.5110   57.4250 C   0  0  0  0  0  0  0  0  0  0  0  0
   39.6870   73.9470   57.7030 S   0  0  0  0  0  0  0  0  0  0  0  0
   39.6840   76.1220   60.5950 H   0  0  0  0  0  0  0  0  0  0  0  0
   38.3610   77.1260   58.6290 H   0  0  0  0  0  0  0  0  0  0  0  0
   38.1010   75.7670   56.1650 C   0  0  0  0  0  0  0  0  0  0  0  0
   37.2130   76.8050   56.0730 C   0  0  0  0  0  0  0  0  0  0  0  0
   36.6520   76.9620   54.8060 C   0  0  0  0  0  0  0  0  0  0  0  0
   36.9590   76.1580   53.7610 N   0  0  0  0  0  0  0  0  0  0  0  0
   37.8540   75.1520   53.9510 C   0  0  0  0  0  0  0  0  0  0  0  0
   38.4360   74.9500   55.1690 N   0  0  0  0  0  0  0  0  0  0  0  0
   36.9410   77.4670   56.8800 H   0  0  0  0  0  0  0  0  0  0  0  0
   35.9360   77.7380   54.5850 H   0  0  0  0  0  0  0  0  0  0  0  0
   38.1640   74.3200   52.8470 N   0  0  0  0  0  0  0  0  0  0  0  0
   38.9900   74.5520   52.2420 H   0  0  0  0  0  0  0  0  0  0  0  0
   37.6930   73.4640   52.5020 H   0  0  0  0  0  0  0  0  0  0  0  0
   40.9570   72.2280   62.2830 C   0  0  0  0  0  0  0  0  0  0  0  0
   42.3770   72.2020   62.2750 C   0  0  0  0  0  0  0  0  0  0  0  0
   43.0340   72.9200   61.2830 C   0  0  0  0  0  0  0  0  0  0  0  0
   42.2860   73.5940   60.3930 N   0  0  0  0  0  0  0  0  0  0  0  0
   40.9510   73.6090   60.4130 C   0  0  0  0  0  0  0  0  0  0  0  0
   40.2900   72.9340   61.3450 N   0  0  0  0  0  0  0  0  0  0  0  0
   40.3910   71.6930   63.0260 H   0  0  0  0  0  0  0  0  0  0  0  0
   42.8430   71.6300   63.0360 H   0  0  0  0  0  0  0  0  0  0  0  0
   44.1080   72.9050   61.2700 H   0  0  0  0  0  0  0  0  0  0  0  0
  1  2  2  0  0  0  0
  1 23  1  0  0  0  0
  2  6  1  0  0  0  0
  3  2  1  0  0  0  0
  4  5  1  0  0  0  0
  4  3  2  0  0  0  0
  5  1  1  0  0  0  0
  7  3  1  0  0  0  0
  8  4  1  0  0  0  0
  9  8  1  0  0  0  0
  9 14  1  0  0  0  0
 10  9  2  0  0  0  0
 11 12  2  0  0  0  0
 11 10  1  0  0  0  0
 12 13  1  0  0  0  0
 13  8  2  0  0  0  0
 15 10  1  0  0  0  0
 16 12  1  0  0  0  0
 17 16  1  0  0  0  0
 18 16  1  0  0  0  0
 19 25  1  0  0  0  0
 20 19  1  0  0  0  0
 20 26  1  0  0  0  0
 21 20  2  0  0  0  0
 22 23  2  0  0  0  0
 22 21  1  0  0  0  0
 23 24  1  0  0  0  0
 24 19  2  0  0  0  0
 27 21  1  0  0  0  0
M  END
>  <minimizedAffinity>
-5.19152021

$$$$

 OpenBabel03212520543D

 27 29  0  0  0  0  0  0  0  0999 V2000
   41.8850   70.6620   61.3760 C   0  0  0  0  0  0  0  0  0  0  0  0
   41.7210   70.8420   60.0050 C   0  0  0  0  0  0  0  0  0  0  0  0
   41.3420   72.0640   59.5710 C   0  0  0  0  0  0  0  0  0  0  0  0
   41.1270   73.0940   60.4870 C   0  0  0  0  0  0  0  0  0  0  0  0
   41.4900   72.2850   62.1090 S   0  0  0  0  0  0  0  0  0  0  0  0
   41.8880   70.0410   59.2980 H   0  0  0  0  0  0  0  0  0  0  0  0
   41.1640   72.3980   58.5600 H   0  0  0  0  0  0  0  0  0  0  0  0
   40.7340   74.4740   60.4270 C   0  0  0  0  0  0  0  0  0  0  0  0
   39.6050   74.8700   61.0950 C   0  0  0  0  0  0  0  0  0  0  0  0
   39.3190   76.2290   60.9680 C   0  0  0  0  0  0  0  0  0  0  0  0
   40.0870   77.0790   60.2480 N   0  0  0  0  0  0  0  0  0  0  0  0
   41.1900   76.5910   59.6200 C   0  0  0  0  0  0  0  0  0  0  0  0
   41.5220   75.2700   59.7080 N   0  0  0  0  0  0  0  0  0  0  0  0
   38.9670   74.2250   61.6770 H   0  0  0  0  0  0  0  0  0  0  0  0
   38.4600   76.6830   61.4390 H   0  0  0  0  0  0  0  0  0  0  0  0
   41.9840   77.4950   58.8710 N   0  0  0  0  0  0  0  0  0  0  0  0
   42.8060   77.9610   59.3280 H   0  0  0  0  0  0  0  0  0  0  0  0
   41.8970   77.8020   57.8840 H   0  0  0  0  0  0  0  0  0  0  0  0
   43.7310   68.3070   63.4870 C   0  0  0  0  0  0  0  0  0  0  0  0
   43.1010   67.0640   63.2100 C   0  0  0  0  0  0  0  0  0  0  0  0
   42.0500   67.0590   62.3010 C   0  0  0  0  0  0  0  0  0  0  0  0
   41.6950   68.2280   61.7400 N   0  0  0  0  0  0  0  0  0  0  0  0
   42.2980   69.3880   62.0110 C   0  0  0  0  0  0  0  0  0  0  0  0
   43.3050   69.4310   62.8740 N   0  0  0  0  0  0  0  0  0  0  0  0
   44.5510   68.3760   64.1820 H   0  0  0  0  0  0  0  0  0  0  0  0
   43.4800   66.2180   63.7230 H   0  0  0  0  0  0  0  0  0  0  0  0
   41.5670   66.1230   62.0870 H   0  0  0  0  0  0  0  0  0  0  0  0
  1 23  1  0  0  0  0
  1  5  1  0  0  0  0
  2  1  2  0  0  0  0
  3  2  1  0  0  0  0
  3  4  2  0  0  0  0
  4  5  1  0  0  0  0
  6  2  1  0  0  0  0
  7  3  1  0  0  0  0
  8  4  1  0  0  0  0
  8  9  1  0  0  0  0
  9 14  1  0  0  0  0
 10  9  2  0  0  0  0
 10 15  1  0  0  0  0
 11 10  1  0  0  0  0
 12 13  1  0  0  0  0
 12 11  2  0  0  0  0
 13  8  2  0  0  0  0
 16 17  1  0  0  0  0
 16 12  1  0  0  0  0
 18 16  1  0  0  0  0
 19 25  1  0  0  0  0
 20 19  1  0  0  0  0
 20 26  1  0  0  0  0
 21 20  2  0  0  0  0
 22 23  2  0  0  0  0
 22 21  1  0  0  0  0
 23 24  1  0  0  0  0
 24 19  2  0  0  0  0
 27 21  1  0  0  0  0
M  END
>  <minimizedAffinity>
-5.16042042

$$$$

 OpenBabel03212520543D

 27 29  0  0  0  0  0  0  0  0999 V2000
   42.0790   71.1280   61.5230 C   0  0  0  0  0  0  0  0  0  0  0  0
   41.7060   72.1090   62.4380 C   0  0  0  0  0  0  0  0  0  0  0  0
   40.9400   73.1290   61.9920 C   0  0  0  0  0  0  0  0  0  0  0  0
   40.5480   73.1720   60.6530 C   0  0  0  0  0  0  0  0  0  0  0  0
   41.3200   71.6480   59.9480 S   0  0  0  0  0  0  0  0  0  0  0  0
   42.0130   72.0730   63.4740 H   0  0  0  0  0  0  0  0  0  0  0  0
   40.5530   73.9750   62.5390 H   0  0  0  0  0  0  0  0  0  0  0  0
   39.7680   74.0500   59.8260 C   0  0  0  0  0  0  0  0  0  0  0  0
   39.9790   75.4000   59.9100 C   0  0  0  0  0  0  0  0  0  0  0  0
   39.1670   76.1550   59.0640 C   0  0  0  0  0  0  0  0  0  0  0  0
   38.2520   75.6020   58.2350 N   0  0  0  0  0  0  0  0  0  0  0  0
   38.1150   74.2490   58.2220 C   0  0  0  0  0  0  0  0  0  0  0  0
   38.8820   73.4570   59.0280 N   0  0  0  0  0  0  0  0  0  0  0  0
   40.6960   75.8800   60.5570 H   0  0  0  0  0  0  0  0  0  0  0  0
   39.2220   77.2330   59.0230 H   0  0  0  0  0  0  0  0  0  0  0  0
   37.1530   73.6850   57.3480 N   0  0  0  0  0  0  0  0  0  0  0  0
   37.4460   73.3750   56.3880 H   0  0  0  0  0  0  0  0  0  0  0  0
   36.1410   73.5100   57.4910 H   0  0  0  0  0  0  0  0  0  0  0  0
   43.6900   68.4900   63.4870 C   0  0  0  0  0  0  0  0  0  0  0  0
   44.4400   67.7770   62.5130 C   0  0  0  0  0  0  0  0  0  0  0  0
   44.3770   68.2170   61.1960 C   0  0  0  0  0  0  0  0  0  0  0  0
   43.6130   69.2880   60.9250 N   0  0  0  0  0  0  0  0  0  0  0  0
   42.9130   69.9480   61.8520 C   0  0  0  0  0  0  0  0  0  0  0  0
   42.9490   69.5560   63.1190 N   0  0  0  0  0  0  0  0  0  0  0  0
   43.6980   68.1980   64.5230 H   0  0  0  0  0  0  0  0  0  0  0  0
   45.0010   66.9490   62.8630 H   0  0  0  0  0  0  0  0  0  0  0  0
   44.9410   67.6820   60.4540 H   0  0  0  0  0  0  0  0  0  0  0  0
  1 23  1  0  0  0  0
  1  2  2  0  0  0  0
  2  6  1  0  0  0  0
  3  2  1  0  0  0  0
  3  7  1  0  0  0  0
  4  3  2  0  0  0  0
  5  4  1  0  0  0  0
  5  1  1  0  0  0  0
  8  9  1  0  0  0  0
  8  4  1  0  0  0  0
  9 14  1  0  0  0  0
 10  9  2  0  0  0  0
 11 10  1  0  0  0  0
 12 11  2  0  0  0  0
 12 13  1  0  0  0  0
 13  8  2  0  0  0  0
 15 10  1  0  0  0  0
 16 18  1  0  0  0  0
 16 12  1  0  0  0  0
 17 16  1  0  0  0  0
 19 25  1  0  0  0  0
 20 26  1  0  0  0  0
 20 19  2  0  0  0  0
 21 20  1  0  0  0  0
 22 21  2  0  0  0  0
 22 23  1  0  0  0  0
 23 24  2  0  0  0  0
 24 19  1  0  0  0  0
 27 21  1  0  0  0  0
M  END
>  <minimizedAffinity>
-5.15659237

$$$$

 OpenBabel03212520543D

 27 29  0  0  0  0  0  0  0  0999 V2000
   41.3690   72.6410   61.1160 C   0  0  0  0  0  0  0  0  0  0  0  0
   41.6540   72.3930   62.4560 C   0  0  0  0  0  0  0  0  0  0  0  0
   42.2110   71.2040   62.7730 C   0  0  0  0  0  0  0  0  0  0  0  0
   42.4830   70.2720   61.7700 C   0  0  0  0  0  0  0  0  0  0  0  0
   41.9080   71.1340   60.2390 S   0  0  0  0  0  0  0  0  0  0  0  0
   41.4410   73.1170   63.2300 H   0  0  0  0  0  0  0  0  0  0  0  0
   42.5010   70.8280   63.7420 H   0  0  0  0  0  0  0  0  0  0  0  0
   43.0450   68.9520   61.7010 C   0  0  0  0  0  0  0  0  0  0  0  0
   44.1970   68.7600   60.9860 C   0  0  0  0  0  0  0  0  0  0  0  0
   44.6520   67.4420   60.9870 C   0  0  0  0  0  0  0  0  0  0  0  0
   44.0120   66.4430   61.6370 N   0  0  0  0  0  0  0  0  0  0  0  0
   42.8730   66.7320   62.3210 C   0  0  0  0  0  0  0  0  0  0  0  0
   42.3790   68.0050   62.3570 N   0  0  0  0  0  0  0  0  0  0  0  0
   44.7370   69.5280   60.4540 H   0  0  0  0  0  0  0  0  0  0  0  0
   45.5480   67.1410   60.4650 H   0  0  0  0  0  0  0  0  0  0  0  0
   42.2150   65.6740   62.9960 N   0  0  0  0  0  0  0  0  0  0  0  0
   42.4330   65.4930   64.0070 H   0  0  0  0  0  0  0  0  0  0  0  0
   41.5080   64.9990   62.6520 H   0  0  0  0  0  0  0  0  0  0  0  0
   40.6530   75.4650   58.8960 C   0  0  0  0  0  0  0  0  0  0  0  0
   39.6720   76.1990   59.6160 C   0  0  0  0  0  0  0  0  0  0  0  0
   39.2750   75.7080   60.8550 C   0  0  0  0  0  0  0  0  0  0  0  0
   39.8410   74.5720   61.2940 N   0  0  0  0  0  0  0  0  0  0  0  0
   40.7620   73.8920   60.6050 C   0  0  0  0  0  0  0  0  0  0  0  0
   41.1650   74.3310   59.4190 N   0  0  0  0  0  0  0  0  0  0  0  0
   41.0020   75.7930   57.9320 H   0  0  0  0  0  0  0  0  0  0  0  0
   39.3080   77.0800   59.1530 H   0  0  0  0  0  0  0  0  0  0  0  0
   38.5330   76.2570   61.4050 H   0  0  0  0  0  0  0  0  0  0  0  0
  1  2  2  0  0  0  0
  2  3  1  0  0  0  0
  2  6  1  0  0  0  0
  3  7  1  0  0  0  0
  4  3  2  0  0  0  0
  5  1  1  0  0  0  0
  5  4  1  0  0  0  0
  8  4  1  0  0  0  0
  8 13  1  0  0  0  0
  9 10  1  0  0  0  0
  9  8  2  0  0  0  0
 10 11  2  0  0  0  0
 11 12  1  0  0  0  0
 12 13  2  0  0  0  0
 12 16  1  0  0  0  0
 14  9  1  0  0  0  0
 15 10  1  0  0  0  0
 16 17  1  0  0  0  0
 18 16  1  0  0  0  0
 19 24  2  0  0  0  0
 19 20  1  0  0  0  0
 20 21  2  0  0  0  0
 21 22  1  0  0  0  0
 21 27  1  0  0  0  0
 23  1  1  0  0  0  0
 23 22  2  0  0  0  0
 24 23  1  0  0  0  0
 25 19  1  0  0  0  0
 26 20  1  0  0  0  0
M  END
>  <minimizedAffinity>
-5.07189035

$$$$

 OpenBabel03212520543D

 27 29  0  0  0  0  0  0  0  0999 V2000
   41.2060   72.3610   61.1240 C   0  0  0  0  0  0  0  0  0  0  0  0
   41.1940   72.1770   62.5040 C   0  0  0  0  0  0  0  0  0  0  0  0
   41.6500   71.0010   62.9880 C   0  0  0  0  0  0  0  0  0  0  0  0
   42.1130   70.0190   62.1110 C   0  0  0  0  0  0  0  0  0  0  0  0
   41.8920   70.8090   60.4540 S   0  0  0  0  0  0  0  0  0  0  0  0
   40.8340   72.9400   63.1800 H   0  0  0  0  0  0  0  0  0  0  0  0
   41.7210   70.6720   64.0140 H   0  0  0  0  0  0  0  0  0  0  0  0
   42.6540   68.6940   62.2260 C   0  0  0  0  0  0  0  0  0  0  0  0
   41.9120   67.6350   61.7740 C   0  0  0  0  0  0  0  0  0  0  0  0
   42.5350   66.3970   61.9360 C   0  0  0  0  0  0  0  0  0  0  0  0
   43.7610   66.2560   62.4900 N   0  0  0  0  0  0  0  0  0  0  0  0
   44.4210   67.3690   62.9090 C   0  0  0  0  0  0  0  0  0  0  0  0
   43.8630   68.6080   62.7770 N   0  0  0  0  0  0  0  0  0  0  0  0
   40.9330   67.7040   61.3280 H   0  0  0  0  0  0  0  0  0  0  0  0
   42.0690   65.4730   61.6260 H   0  0  0  0  0  0  0  0  0  0  0  0
   45.7040   67.2040   63.4870 N   0  0  0  0  0  0  0  0  0  0  0  0
   46.5570   67.2790   62.8780 H   0  0  0  0  0  0  0  0  0  0  0  0
   45.9750   67.0100   64.4680 H   0  0  0  0  0  0  0  0  0  0  0  0
   40.6770   74.8330   58.4740 C   0  0  0  0  0  0  0  0  0  0  0  0
   39.9140   75.8400   59.1220 C   0  0  0  0  0  0  0  0  0  0  0  0
   39.5930   75.6510   60.4610 C   0  0  0  0  0  0  0  0  0  0  0  0
   40.0250   74.5280   61.0600 N   0  0  0  0  0  0  0  0  0  0  0  0
   40.7430   73.5890   60.4370 C   0  0  0  0  0  0  0  0  0  0  0  0
   41.0670   73.7370   59.1590 N   0  0  0  0  0  0  0  0  0  0  0  0
   40.9570   74.9220   57.4380 H   0  0  0  0  0  0  0  0  0  0  0  0
   39.6380   76.6770   58.5320 H   0  0  0  0  0  0  0  0  0  0  0  0
   39.0150   76.4080   60.9580 H   0  0  0  0  0  0  0  0  0  0  0  0
  1  2  2  0  0  0  0
  2  3  1  0  0  0  0
  2  6  1  0  0  0  0
  3  7  1  0  0  0  0
  4  8  1  0  0  0  0
  4  3  2  0  0  0  0
  5  1  1  0  0  0  0
  5  4  1  0  0  0  0
  8 13  1  0  0  0  0
  9 10  1  0  0  0  0
  9  8  2  0  0  0  0
 10 11  2  0  0  0  0
 11 12  1  0  0  0  0
 12 16  1  0  0  0  0
 13 12  2  0  0  0  0
 14  9  1  0  0  0  0
 15 10  1  0  0  0  0
 16 18  1  0  0  0  0
 17 16  1  0  0  0  0
 19 20  2  0  0  0  0
 19 24  1  0  0  0  0
 20 21  1  0  0  0  0
 21 27  1  0  0  0  0
 21 22  2  0  0  0  0
 23 22  1  0  0  0  0
 23  1  1  0  0  0  0
 24 23  2  0  0  0  0
 25 19  1  0  0  0  0
 26 20  1  0  0  0  0
M  END
>  <minimizedAffinity>
-4.98478174

$$$$
