
 OpenBabel03212520533D

 27 29  0  0  0  0  0  0  0  0999 V2000
   42.9980   79.7460   61.5640 C   0  0  0  0  0  0  0  0  0  0  0  0
   42.3220   79.4830   60.3760 C   0  0  0  0  0  0  0  0  0  0  0  0
   41.5310   80.4560   59.8720 C   0  0  0  0  0  0  0  0  0  0  0  0
   41.4130   81.6750   60.5400 C   0  0  0  0  0  0  0  0  0  0  0  0
   42.5090   81.4460   62.0120 S   0  0  0  0  0  0  0  0  0  0  0  0
   42.4150   78.5370   59.8610 H   0  0  0  0  0  0  0  0  0  0  0  0
   40.9320   80.4440   58.9730 H   0  0  0  0  0  0  0  0  0  0  0  0
   40.7040   82.9070   60.3390 C   0  0  0  0  0  0  0  0  0  0  0  0
   39.7030   83.2450   61.2100 C   0  0  0  0  0  0  0  0  0  0  0  0
   39.0830   84.4600   60.9190 C   0  0  0  0  0  0  0  0  0  0  0  0
   39.4390   85.2350   59.8680 N   0  0  0  0  0  0  0  0  0  0  0  0
   40.4470   84.8140   59.0580 C   0  0  0  0  0  0  0  0  0  0  0  0
   41.0910   83.6330   59.2920 N   0  0  0  0  0  0  0  0  0  0  0  0
   39.3880   82.6570   62.0580 H   0  0  0  0  0  0  0  0  0  0  0  0
   38.2770   84.8550   61.5190 H   0  0  0  0  0  0  0  0  0  0  0  0
   40.8080   85.6370   57.9620 N   0  0  0  0  0  0  0  0  0  0  0  0
   41.7160   86.1630   57.9890 H   0  0  0  0  0  0  0  0  0  0  0  0
   40.3050   85.8280   57.0770 H   0  0  0  0  0  0  0  0  0  0  0  0
   46.0390   78.3360   63.0390 C   0  0  0  0  0  0  0  0  0  0  0  0
   45.6140   77.0590   63.4930 C   0  0  0  0  0  0  0  0  0  0  0  0
   44.2860   76.7050   63.2840 C   0  0  0  0  0  0  0  0  0  0  0  0
   43.4870   77.5910   62.6650 N   0  0  0  0  0  0  0  0  0  0  0  0
   43.9020   78.7890   62.2440 C   0  0  0  0  0  0  0  0  0  0  0  0
   45.1630   79.1610   62.4280 N   0  0  0  0  0  0  0  0  0  0  0  0
   47.0550   78.6680   63.1720 H   0  0  0  0  0  0  0  0  0  0  0  0
   46.3480   76.4580   63.9660 H   0  0  0  0  0  0  0  0  0  0  0  0
   43.9570   75.7410   63.6250 H   0  0  0  0  0  0  0  0  0  0  0  0
  1  5  1  0  0  0  0
  1 23  1  0  0  0  0
  2  1  2  0  0  0  0
  3  2  1  0  0  0  0
  3  4  2  0  0  0  0
  4  5  1  0  0  0  0
  6  2  1  0  0  0  0
  7  3  1  0  0  0  0
  8  4  1  0  0  0  0
  8  9  1  0  0  0  0
  9 14  1  0  0  0  0
 10  9  2  0  0  0  0
 10 15  1  0  0  0  0
 11 10  1  0  0  0  0
 12 13  1  0  0  0  0
 12 11  2  0  0  0  0
 13  8  2  0  0  0  0
 16 17  1  0  0  0  0
 16 12  1  0  0  0  0
 18 16  1  0  0  0  0
 19 25  1  0  0  0  0
 19 20  1  0  0  0  0
 20 26  1  0  0  0  0
 21 20  2  0  0  0  0
 21 27  1  0  0  0  0
 22 21  1  0  0  0  0
 23 24  1  0  0  0  0
 23 22  2  0  0  0  0
 24 19  2  0  0  0  0
M  END
>  <minimizedAffinity>
-4.30150986

>  <minimizedRMSD>
1.85993505

$$$$
