
 OpenBabel03212521053D

 30 32  0  0  0  0  0  0  0  0999 V2000
   41.8230   84.2370   61.5800 C   0  0  0  0  0  0  0  0  0  0  0  0
   41.4380   83.9680   62.8860 C   0  0  0  0  0  0  0  0  0  0  0  0
   40.1460   83.5580   63.1920 C   0  0  0  0  0  0  0  0  0  0  0  0
   39.2170   83.4140   62.1700 C   0  0  0  0  0  0  0  0  0  0  0  0
   39.5990   83.6820   60.8650 C   0  0  0  0  0  0  0  0  0  0  0  0
   40.8870   84.0890   60.5780 C   0  0  0  0  0  0  0  0  0  0  0  0
   42.1150   84.0630   63.7170 H   0  0  0  0  0  0  0  0  0  0  0  0
   39.8040   83.3380   64.1910 H   0  0  0  0  0  0  0  0  0  0  0  0
   38.1920   83.1010   62.3130 H   0  0  0  0  0  0  0  0  0  0  0  0
   38.8800   83.5740   60.0480 H   0  0  0  0  0  0  0  0  0  0  0  0
   41.2380   84.3590   59.1850 C   0  0  0  0  0  0  0  0  0  0  0  0
   40.7680   85.6140   58.7740 C   0  0  0  0  0  0  0  0  0  0  0  0
   40.9970   86.0630   57.4800 C   0  0  0  0  0  0  0  0  0  0  0  0
   41.6770   85.2550   56.6560 N   0  0  0  0  0  0  0  0  0  0  0  0
   42.1330   84.0330   57.0630 C   0  0  0  0  0  0  0  0  0  0  0  0
   41.9110   83.6000   58.3120 N   0  0  0  0  0  0  0  0  0  0  0  0
   40.2090   86.3190   59.3900 H   0  0  0  0  0  0  0  0  0  0  0  0
   40.6460   87.0270   57.1320 H   0  0  0  0  0  0  0  0  0  0  0  0
   42.8590   83.1250   56.2460 N   0  0  0  0  0  0  0  0  0  0  0  0
   43.9030   83.2850   56.3060 H   0  0  0  0  0  0  0  0  0  0  0  0
   42.2750   82.4400   55.7120 H   0  0  0  0  0  0  0  0  0  0  0  0
   45.3800   84.1000   60.7580 C   0  0  0  0  0  0  0  0  0  0  0  0
   45.7500   85.4490   60.7890 C   0  0  0  0  0  0  0  0  0  0  0  0
   44.7720   86.4100   61.0940 C   0  0  0  0  0  0  0  0  0  0  0  0
   43.5080   85.9810   61.3460 N   0  0  0  0  0  0  0  0  0  0  0  0
   43.1720   84.6600   61.3100 C   0  0  0  0  0  0  0  0  0  0  0  0
   44.1090   83.7480   61.0180 N   0  0  0  0  0  0  0  0  0  0  0  0
   46.1430   83.3690   60.5220 H   0  0  0  0  0  0  0  0  0  0  0  0
   46.7640   85.8020   60.5890 H   0  0  0  0  0  0  0  0  0  0  0  0
   44.9960   87.4560   61.1340 H   0  0  0  0  0  0  0  0  0  0  0  0
  1  2  1  0  0  0  0
  2  3  2  0  0  0  0
  2  7  1  0  0  0  0
  3  8  1  0  0  0  0
  4  9  1  0  0  0  0
  4  3  1  0  0  0  0
  5  4  2  0  0  0  0
  6  5  1  0  0  0  0
  6  1  2  0  0  0  0
 10  5  1  0  0  0  0
 11  6  1  0  0  0  0
 12 11  1  0  0  0  0
 12 17  1  0  0  0  0
 13 12  2  0  0  0  0
 14 15  2  0  0  0  0
 14 13  1  0  0  0  0
 15 16  1  0  0  0  0
 16 11  2  0  0  0  0
 18 13  1  0  0  0  0
 19 20  1  0  0  0  0
 19 15  1  0  0  0  0
 21 19  1  0  0  0  0
 22 23  2  0  0  0  0
 22 27  1  0  0  0  0
 23 24  1  0  0  0  0
 24 30  1  0  0  0  0
 24 25  2  0  0  0  0
 26 25  1  0  0  0  0
 26  1  1  0  0  0  0
 27 26  2  0  0  0  0
 28 22  1  0  0  0  0
 29 23  1  0  0  0  0
M  END
>  <minimizedAffinity>
-5.29459333

>  <minimizedRMSD>
0.0331809223

$$$$
