
 OpenBabel03212520523D

 29 31  0  0  1  0  0  0  0  0999 V2000
   39.1780   75.9220   57.1870 C   0  0  0  0  0  0  0  0  0  0  0  0
   40.3060   76.6480   57.4050 C   0  0  0  0  0  0  0  0  0  0  0  0
   41.1760   76.3290   58.4540 C   0  0  0  0  0  0  0  0  0  0  0  0
   40.9120   75.3020   59.2620 N   0  0  0  0  0  0  0  0  0  0  0  0
   39.7830   74.5900   59.0300 C   0  0  0  0  0  0  0  0  0  0  0  0
   38.9320   74.8780   58.0260 N   0  0  0  0  0  0  0  0  0  0  0  0
   40.5280   77.4840   56.7520 H   0  0  0  0  0  0  0  0  0  0  0  0
   42.0650   76.9350   58.5930 H   0  0  0  0  0  0  0  0  0  0  0  0
   37.3540   75.7990   54.0150 C   0  0  0  0  0  0  0  0  0  0  0  0
   36.4700   76.8600   54.1420 C   0  0  0  0  0  0  0  0  0  0  0  0
   36.4830   77.6340   55.3110 C   0  0  0  0  0  0  0  0  0  0  0  0
   37.3930   77.2710   56.2610 N   0  0  0  0  0  0  0  0  0  0  0  0
   38.2400   76.2360   56.1130 C   0  0  0  0  0  0  0  0  0  0  0  0
   38.2380   75.4880   54.9990 N   0  0  0  0  0  0  0  0  0  0  0  0
   37.2150   75.1070   52.7980 N   0  0  0  0  0  0  0  0  0  0  0  0
   35.7480   77.1730   53.4240 H   0  0  0  0  0  0  0  0  0  0  0  0
   35.8350   78.4680   55.4870 H   0  0  0  0  0  0  0  0  0  0  0  0
   37.9640   74.7510   52.1670 H   0  0  0  0  0  0  0  0  0  0  0  0
   36.2670   74.8740   52.3960 H   0  0  0  0  0  0  0  0  0  0  0  0
   39.5160   73.4540   59.9840 C   0  0  1  0  0  0  0  0  0  0  0  0
   40.1650   73.4060   61.2750 C   0  0  0  0  0  0  0  0  0  0  0  0
   38.7860   73.9450   61.2480 C   0  0  1  0  0  0  0  0  0  0  0  0
   39.0070   72.5720   59.5010 H   0  0  0  0  0  0  0  0  0  0  0  0
   40.9980   74.0990   61.4980 H   0  0  0  0  0  0  0  0  0  0  0  0
   40.3230   72.4100   61.7610 H   0  0  0  0  0  0  0  0  0  0  0  0
   37.9970   73.2790   61.6440 H   0  0  0  0  0  0  0  0  0  0  0  0
   38.4900   75.3310   61.3510 N   0  0  0  0  0  0  0  0  0  0  0  0
   38.3830   75.6600   62.3120 H   0  0  0  0  0  0  0  0  0  0  0  0
   37.6290   75.5250   60.7880 H   0  0  0  0  0  0  0  0  0  0  0  0
  1  2  2  0  0  0  0
  1  6  1  0  0  0  0
  2  3  1  0  0  0  0
  3  8  1  0  0  0  0
  3  4  2  0  0  0  0
  5  4  1  0  0  0  0
  5 20  1  0  0  0  0
  6  5  2  0  0  0  0
  7  2  1  0  0  0  0
  9 10  2  0  0  0  0
  9 14  1  0  0  0  0
 10 11  1  0  0  0  0
 11 17  1  0  0  0  0
 11 12  2  0  0  0  0
 13 12  1  0  0  0  0
 13  1  1  0  0  0  0
 14 13  2  0  0  0  0
 15  9  1  0  0  0  0
 16 10  1  0  0  0  0
 18 15  1  0  0  0  0
 19 15  1  0  0  0  0
 20 23  1  6  0  0  0
 20 22  1  0  0  0  0
 20 21  1  0  0  0  0
 21 24  1  0  0  0  0
 21 25  1  0  0  0  0
 22 21  1  0  0  0  0
 22 27  1  0  0  0  0
 22 26  1  1  0  0  0
 27 28  1  0  0  0  0
 29 27  1  0  0  0  0
M  END
>  <minimizedAffinity>
-5.33207846

$$$$

 OpenBabel03212520523D

 29 31  0  0  1  0  0  0  0  0999 V2000
   41.2870   73.2340   59.7870 C   0  0  0  0  0  0  0  0  0  0  0  0
   42.4780   73.8770   59.9130 C   0  0  0  0  0  0  0  0  0  0  0  0
   43.5680   73.2570   60.5350 C   0  0  0  0  0  0  0  0  0  0  0  0
   43.4570   72.0180   61.0160 N   0  0  0  0  0  0  0  0  0  0  0  0
   42.2620   71.3940   60.8810 C   0  0  0  0  0  0  0  0  0  0  0  0
   41.1990   71.9700   60.2870 N   0  0  0  0  0  0  0  0  0  0  0  0
   42.5760   74.8830   59.5240 H   0  0  0  0  0  0  0  0  0  0  0  0
   44.5000   73.8060   60.6150 H   0  0  0  0  0  0  0  0  0  0  0  0
   38.2200   73.7090   57.8440 C   0  0  0  0  0  0  0  0  0  0  0  0
   37.9700   75.0630   58.0140 C   0  0  0  0  0  0  0  0  0  0  0  0
   38.8440   75.8350   58.7940 C   0  0  0  0  0  0  0  0  0  0  0  0
   39.9050   75.1720   59.3400 N   0  0  0  0  0  0  0  0  0  0  0  0
   40.1250   73.8570   59.1590 C   0  0  0  0  0  0  0  0  0  0  0  0
   39.2960   73.1070   58.4160 N   0  0  0  0  0  0  0  0  0  0  0  0
   37.2530   73.0640   57.0520 N   0  0  0  0  0  0  0  0  0  0  0  0
   37.1550   75.6130   57.6050 H   0  0  0  0  0  0  0  0  0  0  0  0
   38.7220   76.8820   58.9730 H   0  0  0  0  0  0  0  0  0  0  0  0
   37.3980   72.3580   56.3000 H   0  0  0  0  0  0  0  0  0  0  0  0
   36.2210   73.2580   57.1670 H   0  0  0  0  0  0  0  0  0  0  0  0
   42.1780   70.0060   61.4620 C   0  0  1  0  0  0  0  0  0  0  0  0
   43.0320   69.6130   62.5610 C   0  0  0  0  0  0  0  0  0  0  0  0
   41.6560   70.0350   62.9110 C   0  0  1  0  0  0  0  0  0  0  0  0
   41.6140   69.2790   60.8110 H   0  0  0  0  0  0  0  0  0  0  0  0
   43.8760   70.2610   62.8620 H   0  0  0  0  0  0  0  0  0  0  0  0
   43.2870   68.5290   62.6830 H   0  0  0  0  0  0  0  0  0  0  0  0
   40.9570   69.2270   63.1930 H   0  0  0  0  0  0  0  0  0  0  0  0
   41.3530   71.3000   63.4840 N   0  0  0  0  0  0  0  0  0  0  0  0
   41.4000   71.3120   64.5050 H   0  0  0  0  0  0  0  0  0  0  0  0
   40.4080   71.5950   63.1460 H   0  0  0  0  0  0  0  0  0  0  0  0
  1  2  2  0  0  0  0
  1  6  1  0  0  0  0
  2  3  1  0  0  0  0
  3  8  1  0  0  0  0
  3  4  2  0  0  0  0
  5  4  1  0  0  0  0
  5 20  1  0  0  0  0
  6  5  2  0  0  0  0
  7  2  1  0  0  0  0
  9 10  2  0  0  0  0
  9 14  1  0  0  0  0
 10 11  1  0  0  0  0
 11 17  1  0  0  0  0
 11 12  2  0  0  0  0
 13 12  1  0  0  0  0
 13  1  1  0  0  0  0
 14 13  2  0  0  0  0
 15 19  1  0  0  0  0
 15  9  1  0  0  0  0
 16 10  1  0  0  0  0
 18 15  1  0  0  0  0
 20 23  1  6  0  0  0
 20 21  1  0  0  0  0
 20 22  1  0  0  0  0
 21 25  1  0  0  0  0
 21 24  1  0  0  0  0
 21 22  1  0  0  0  0
 22 26  1  1  0  0  0
 22 27  1  0  0  0  0
 27 28  1  0  0  0  0
 29 27  1  0  0  0  0
M  END
>  <minimizedAffinity>
-5.2641201

$$$$

 OpenBabel03212520523D

 29 31  0  0  1  0  0  0  0  0999 V2000
   39.4550   76.3600   57.1450 C   0  0  0  0  0  0  0  0  0  0  0  0
   40.4560   76.9460   56.4380 C   0  0  0  0  0  0  0  0  0  0  0  0
   40.2160   77.5020   55.1760 C   0  0  0  0  0  0  0  0  0  0  0  0
   38.9940   77.4660   54.6430 N   0  0  0  0  0  0  0  0  0  0  0  0
   38.0090   76.8770   55.3630 C   0  0  0  0  0  0  0  0  0  0  0  0
   38.2170   76.3360   56.5790 N   0  0  0  0  0  0  0  0  0  0  0  0
   41.4520   76.9800   56.8650 H   0  0  0  0  0  0  0  0  0  0  0  0
   41.0440   77.9610   54.6450 H   0  0  0  0  0  0  0  0  0  0  0  0
   39.5130   75.8370   60.7690 C   0  0  0  0  0  0  0  0  0  0  0  0
   40.0980   74.5850   60.8770 C   0  0  0  0  0  0  0  0  0  0  0  0
   40.4820   73.8990   59.7150 C   0  0  0  0  0  0  0  0  0  0  0  0
   40.2430   74.5380   58.5340 N   0  0  0  0  0  0  0  0  0  0  0  0
   39.6740   75.7550   58.4570 C   0  0  0  0  0  0  0  0  0  0  0  0
   39.3020   76.4220   59.5610 N   0  0  0  0  0  0  0  0  0  0  0  0
   39.1680   76.3950   62.0140 N   0  0  0  0  0  0  0  0  0  0  0  0
   40.3000   74.0550   61.7790 H   0  0  0  0  0  0  0  0  0  0  0  0
   40.9390   72.9310   59.7130 H   0  0  0  0  0  0  0  0  0  0  0  0
   39.2950   77.3760   62.3410 H   0  0  0  0  0  0  0  0  0  0  0  0
   38.7170   75.8190   62.7750 H   0  0  0  0  0  0  0  0  0  0  0  0
   36.6520   76.8390   54.7090 C   0  0  1  0  0  0  0  0  0  0  0  0
   36.5200   76.9650   53.2750 C   0  0  0  0  0  0  0  0  0  0  0  0
   36.4920   75.5890   53.8230 C   0  0  1  0  0  0  0  0  0  0  0  0
   35.7990   76.9710   55.4350 H   0  0  0  0  0  0  0  0  0  0  0  0
   37.3910   77.2730   52.6670 H   0  0  0  0  0  0  0  0  0  0  0  0
   35.5650   77.3750   52.8570 H   0  0  0  0  0  0  0  0  0  0  0  0
   35.5020   75.0970   53.8500 H   0  0  0  0  0  0  0  0  0  0  0  0
   37.5910   74.6930   53.7310 N   0  0  0  0  0  0  0  0  0  0  0  0
   37.5970   74.1350   52.8760 H   0  0  0  0  0  0  0  0  0  0  0  0
   37.5860   74.0810   54.5800 H   0  0  0  0  0  0  0  0  0  0  0  0
  1 13  1  0  0  0  0
  2  7  1  0  0  0  0
  2  1  2  0  0  0  0
  3  2  1  0  0  0  0
  4  3  2  0  0  0  0
  4  5  1  0  0  0  0
  5  6  2  0  0  0  0
  6  1  1  0  0  0  0
  8  3  1  0  0  0  0
  9 10  1  0  0  0  0
  9 15  1  0  0  0  0
 10 16  1  0  0  0  0
 11 10  2  0  0  0  0
 12 11  1  0  0  0  0
 13 12  2  0  0  0  0
 13 14  1  0  0  0  0
 14  9  2  0  0  0  0
 15 18  1  0  0  0  0
 15 19  1  0  0  0  0
 17 11  1  0  0  0  0
 20  5  1  0  0  0  0
 20 23  1  1  0  0  0
 21 22  1  0  0  0  0
 21 20  1  0  0  0  0
 22 26  1  1  0  0  0
 22 20  1  0  0  0  0
 24 21  1  0  0  0  0
 25 21  1  0  0  0  0
 27 22  1  0  0  0  0
 27 29  1  0  0  0  0
 28 27  1  0  0  0  0
M  END
>  <minimizedAffinity>
-5.19888878

$$$$

 OpenBabel03212520523D

 29 31  0  0  1  0  0  0  0  0999 V2000
   38.8160   74.6140   56.9670 C   0  0  0  0  0  0  0  0  0  0  0  0
   39.0710   73.2810   57.0100 C   0  0  0  0  0  0  0  0  0  0  0  0
   39.8000   72.7210   58.0660 C   0  0  0  0  0  0  0  0  0  0  0  0
   40.2580   73.4900   59.0530 N   0  0  0  0  0  0  0  0  0  0  0  0
   39.9940   74.8180   58.9940 C   0  0  0  0  0  0  0  0  0  0  0  0
   39.2940   75.3790   57.9880 N   0  0  0  0  0  0  0  0  0  0  0  0
   38.7020   72.6490   56.2110 H   0  0  0  0  0  0  0  0  0  0  0  0
   39.9820   71.6510   58.0600 H   0  0  0  0  0  0  0  0  0  0  0  0
   37.4890   75.3330   53.6310 C   0  0  0  0  0  0  0  0  0  0  0  0
   36.6660   76.4230   53.8690 C   0  0  0  0  0  0  0  0  0  0  0  0
   36.5510   76.9300   55.1720 C   0  0  0  0  0  0  0  0  0  0  0  0
   37.2820   76.2920   56.1310 N   0  0  0  0  0  0  0  0  0  0  0  0
   38.0730   75.2340   55.8730 C   0  0  0  0  0  0  0  0  0  0  0  0
   38.1920   74.7390   54.6310 N   0  0  0  0  0  0  0  0  0  0  0  0
   37.4920   74.9270   52.2840 N   0  0  0  0  0  0  0  0  0  0  0  0
   36.0820   76.9460   53.1480 H   0  0  0  0  0  0  0  0  0  0  0  0
   35.9390   77.7660   55.4380 H   0  0  0  0  0  0  0  0  0  0  0  0
   38.3040   74.6410   51.6960 H   0  0  0  0  0  0  0  0  0  0  0  0
   36.6030   74.8750   51.7170 H   0  0  0  0  0  0  0  0  0  0  0  0
   40.5530   75.6490   60.1200 C   0  0  1  0  0  0  0  0  0  0  0  0
   40.0000   76.9500   60.4220 C   0  0  0  0  0  0  0  0  0  0  0  0
   39.5240   75.8200   61.2540 C   0  0  1  0  0  0  0  0  0  0  0  0
   41.5540   75.2870   60.4910 H   0  0  0  0  0  0  0  0  0  0  0  0
   39.2890   77.4230   59.7190 H   0  0  0  0  0  0  0  0  0  0  0  0
   40.6570   77.7120   60.9130 H   0  0  0  0  0  0  0  0  0  0  0  0
   39.9230   75.7730   62.2840 H   0  0  0  0  0  0  0  0  0  0  0  0
   38.2470   75.2180   61.0910 N   0  0  0  0  0  0  0  0  0  0  0  0
   37.5080   75.6660   61.6360 H   0  0  0  0  0  0  0  0  0  0  0  0
   38.3300   74.2030   61.3310 H   0  0  0  0  0  0  0  0  0  0  0  0
  1  2  2  0  0  0  0
  1  6  1  0  0  0  0
  2  3  1  0  0  0  0
  3  4  2  0  0  0  0
  5  4  1  0  0  0  0
  5 20  1  0  0  0  0
  6  5  2  0  0  0  0
  7  2  1  0  0  0  0
  8  3  1  0  0  0  0
  9 10  2  0  0  0  0
  9 14  1  0  0  0  0
 10 11  1  0  0  0  0
 11 17  1  0  0  0  0
 11 12  2  0  0  0  0
 13 12  1  0  0  0  0
 13  1  1  0  0  0  0
 14 13  2  0  0  0  0
 15  9  1  0  0  0  0
 16 10  1  0  0  0  0
 18 15  1  0  0  0  0
 19 15  1  0  0  0  0
 20 21  1  0  0  0  0
 20 23  1  1  0  0  0
 20 22  1  0  0  0  0
 21 25  1  0  0  0  0
 21 22  1  0  0  0  0
 22 26  1  1  0  0  0
 24 21  1  0  0  0  0
 27 22  1  0  0  0  0
 27 29  1  0  0  0  0
 27 28  1  0  0  0  0
M  END
>  <minimizedAffinity>
-5.14686298

$$$$

 OpenBabel03212520523D

 29 31  0  0  1  0  0  0  0  0999 V2000
   40.2720   74.8180   59.8540 C   0  0  0  0  0  0  0  0  0  0  0  0
   40.4340   76.1600   59.9870 C   0  0  0  0  0  0  0  0  0  0  0  0
   39.6340   77.0570   59.2690 C   0  0  0  0  0  0  0  0  0  0  0  0
   38.6940   76.6070   58.4380 N   0  0  0  0  0  0  0  0  0  0  0  0
   38.5470   75.2660   58.3180 C   0  0  0  0  0  0  0  0  0  0  0  0
   39.3040   74.3840   58.9990 N   0  0  0  0  0  0  0  0  0  0  0  0
   41.1960   76.5340   60.6610 H   0  0  0  0  0  0  0  0  0  0  0  0
   39.7980   78.1210   59.4050 H   0  0  0  0  0  0  0  0  0  0  0  0
   41.3250   72.1700   62.1530 C   0  0  0  0  0  0  0  0  0  0  0  0
   42.6820   72.0720   61.8880 C   0  0  0  0  0  0  0  0  0  0  0  0
   43.2600   72.9080   60.9210 C   0  0  0  0  0  0  0  0  0  0  0  0
   42.4140   73.7790   60.2990 N   0  0  0  0  0  0  0  0  0  0  0  0
   41.0990   73.8540   60.5750 C   0  0  0  0  0  0  0  0  0  0  0  0
   40.5340   73.0600   61.4980 N   0  0  0  0  0  0  0  0  0  0  0  0
   40.8860   71.2600   63.1330 N   0  0  0  0  0  0  0  0  0  0  0  0
   43.3730   71.4060   62.3520 H   0  0  0  0  0  0  0  0  0  0  0  0
   44.2970   72.8950   60.6590 H   0  0  0  0  0  0  0  0  0  0  0  0
   40.2280   71.4280   63.9230 H   0  0  0  0  0  0  0  0  0  0  0  0
   41.2140   70.2570   63.1460 H   0  0  0  0  0  0  0  0  0  0  0  0
   37.4880   74.8060   57.3490 C   0  0  1  0  0  0  0  0  0  0  0  0
   37.0440   75.6680   56.2770 C   0  0  0  0  0  0  0  0  0  0  0  0
   38.0600   74.6480   55.9280 C   0  0  1  0  0  0  0  0  0  0  0  0
   36.9270   73.8920   57.6970 H   0  0  0  0  0  0  0  0  0  0  0  0
   37.3410   76.7330   56.2680 H   0  0  0  0  0  0  0  0  0  0  0  0
   36.0110   75.5300   55.8690 H   0  0  0  0  0  0  0  0  0  0  0  0
   37.6960   73.7780   55.3510 H   0  0  0  0  0  0  0  0  0  0  0  0
   39.4330   74.9550   55.7250 N   0  0  0  0  0  0  0  0  0  0  0  0
   39.6580   75.2160   54.7630 H   0  0  0  0  0  0  0  0  0  0  0  0
   40.0020   74.1340   56.0350 H   0  0  0  0  0  0  0  0  0  0  0  0
  1  2  1  0  0  0  0
  1 13  1  0  0  0  0
  2  7  1  0  0  0  0
  3  8  1  0  0  0  0
  3  2  2  0  0  0  0
  4  3  1  0  0  0  0
  5  4  2  0  0  0  0
  5  6  1  0  0  0  0
  6  1  2  0  0  0  0
  9 15  1  0  0  0  0
 10  9  1  0  0  0  0
 10 16  1  0  0  0  0
 11 10  2  0  0  0  0
 12 13  2  0  0  0  0
 12 11  1  0  0  0  0
 13 14  1  0  0  0  0
 14  9  2  0  0  0  0
 15 19  1  0  0  0  0
 15 18  1  0  0  0  0
 17 11  1  0  0  0  0
 20 23  1  1  0  0  0
 20  5  1  0  0  0  0
 21 20  1  0  0  0  0
 22 26  1  6  0  0  0
 22 21  1  0  0  0  0
 22 20  1  0  0  0  0
 24 21  1  0  0  0  0
 25 21  1  0  0  0  0
 27 22  1  0  0  0  0
 27 29  1  0  0  0  0
 28 27  1  0  0  0  0
M  END
>  <minimizedAffinity>
-5.09935951

$$$$

 OpenBabel03212520523D

 29 31  0  0  1  0  0  0  0  0999 V2000
   40.9180   73.1560   58.8170 C   0  0  0  0  0  0  0  0  0  0  0  0
   41.2100   72.0650   59.5730 C   0  0  0  0  0  0  0  0  0  0  0  0
   41.4590   70.8230   58.9770 C   0  0  0  0  0  0  0  0  0  0  0  0
   41.4140   70.6890   57.6520 N   0  0  0  0  0  0  0  0  0  0  0  0
   41.1210   71.7870   56.9150 C   0  0  0  0  0  0  0  0  0  0  0  0
   40.8790   72.9920   57.4660 N   0  0  0  0  0  0  0  0  0  0  0  0
   41.2490   72.1670   60.6510 H   0  0  0  0  0  0  0  0  0  0  0  0
   41.6880   69.9780   59.6180 H   0  0  0  0  0  0  0  0  0  0  0  0
   39.4810   75.7900   60.9160 C   0  0  0  0  0  0  0  0  0  0  0  0
   40.1510   76.9190   60.4730 C   0  0  0  0  0  0  0  0  0  0  0  0
   41.1040   76.8010   59.4500 C   0  0  0  0  0  0  0  0  0  0  0  0
   41.3010   75.5440   58.9570 N   0  0  0  0  0  0  0  0  0  0  0  0
   40.6370   74.4630   59.4060 C   0  0  0  0  0  0  0  0  0  0  0  0
   39.7230   74.5640   60.3840 N   0  0  0  0  0  0  0  0  0  0  0  0
   38.5690   76.0610   61.9530 N   0  0  0  0  0  0  0  0  0  0  0  0
   40.0240   77.9150   60.8320 H   0  0  0  0  0  0  0  0  0  0  0  0
   41.6630   77.6220   59.0520 H   0  0  0  0  0  0  0  0  0  0  0  0
   37.6020   75.6920   62.0770 H   0  0  0  0  0  0  0  0  0  0  0  0
   38.8110   76.7090   62.7510 H   0  0  0  0  0  0  0  0  0  0  0  0
   41.0590   71.5790   55.4240 C   0  0  1  0  0  0  0  0  0  0  0  0
   40.6500   70.3070   54.8720 C   0  0  0  0  0  0  0  0  0  0  0  0
   39.6100   71.3600   54.9490 C   0  0  1  0  0  0  0  0  0  0  0  0
   41.5930   72.3790   54.8360 H   0  0  0  0  0  0  0  0  0  0  0  0
   40.5570   69.4250   55.5320 H   0  0  0  0  0  0  0  0  0  0  0  0
   41.0190   70.0180   53.8550 H   0  0  0  0  0  0  0  0  0  0  0  0
   39.3330   71.8400   53.9930 H   0  0  0  0  0  0  0  0  0  0  0  0
   38.5800   71.3660   55.9290 N   0  0  0  0  0  0  0  0  0  0  0  0
   37.7450   70.8450   55.6520 H   0  0  0  0  0  0  0  0  0  0  0  0
   38.3470   72.3600   56.1530 H   0  0  0  0  0  0  0  0  0  0  0  0
  1 13  1  0  0  0  0
  1  2  1  0  0  0  0
  2  7  1  0  0  0  0
  3  2  2  0  0  0  0
  3  8  1  0  0  0  0
  4  3  1  0  0  0  0
  5  6  1  0  0  0  0
  5  4  2  0  0  0  0
  6  1  2  0  0  0  0
  9 15  1  0  0  0  0
 10 16  1  0  0  0  0
 10  9  1  0  0  0  0
 11 10  2  0  0  0  0
 12 13  2  0  0  0  0
 12 11  1  0  0  0  0
 13 14  1  0  0  0  0
 14  9  2  0  0  0  0
 15 18  1  0  0  0  0
 15 19  1  0  0  0  0
 17 11  1  0  0  0  0
 20 23  1  6  0  0  0
 20  5  1  0  0  0  0
 21 22  1  0  0  0  0
 21 20  1  0  0  0  0
 21 24  1  0  0  0  0
 22 26  1  6  0  0  0
 22 20  1  0  0  0  0
 22 27  1  0  0  0  0
 25 21  1  0  0  0  0
 27 29  1  0  0  0  0
 28 27  1  0  0  0  0
M  END
>  <minimizedAffinity>
-5.07213783

$$$$

 OpenBabel03212520523D

 29 31  0  0  1  0  0  0  0  0999 V2000
   40.5510   73.3390   61.1060 C   0  0  0  0  0  0  0  0  0  0  0  0
   39.2040   73.4200   61.2700 C   0  0  0  0  0  0  0  0  0  0  0  0
   38.4940   74.5480   60.8420 C   0  0  0  0  0  0  0  0  0  0  0  0
   39.1290   75.5680   60.2640 N   0  0  0  0  0  0  0  0  0  0  0  0
   40.4720   75.4690   60.1100 C   0  0  0  0  0  0  0  0  0  0  0  0
   41.1760   74.3930   60.5130 N   0  0  0  0  0  0  0  0  0  0  0  0
   38.6800   72.5950   61.7380 H   0  0  0  0  0  0  0  0  0  0  0  0
   37.4200   74.5720   60.9930 H   0  0  0  0  0  0  0  0  0  0  0  0
   42.9290   70.5550   61.1650 C   0  0  0  0  0  0  0  0  0  0  0  0
   42.7470   70.0390   62.4390 C   0  0  0  0  0  0  0  0  0  0  0  0
   41.8100   70.6320   63.2980 C   0  0  0  0  0  0  0  0  0  0  0  0
   41.1300   71.7030   62.7960 N   0  0  0  0  0  0  0  0  0  0  0  0
   41.3250   72.1850   61.5550 C   0  0  0  0  0  0  0  0  0  0  0  0
   42.2190   71.6260   60.7230 N   0  0  0  0  0  0  0  0  0  0  0  0
   43.9090   69.8680   60.4260 N   0  0  0  0  0  0  0  0  0  0  0  0
   43.2580   69.2060   62.8650 H   0  0  0  0  0  0  0  0  0  0  0  0
   41.6110   70.2950   64.2940 H   0  0  0  0  0  0  0  0  0  0  0  0
   43.8800   69.5790   59.4250 H   0  0  0  0  0  0  0  0  0  0  0  0
   44.8240   69.5700   60.8590 H   0  0  0  0  0  0  0  0  0  0  0  0
   41.1480   76.6560   59.4740 C   0  0  1  0  0  0  0  0  0  0  0  0
   42.4590   76.5280   58.8790 C   0  0  0  0  0  0  0  0  0  0  0  0
   41.3040   76.4630   57.9530 C   0  0  1  0  0  0  0  0  0  0  0  0
   40.6700   77.6420   59.7410 H   0  0  0  0  0  0  0  0  0  0  0  0
   43.0520   75.6100   59.0460 H   0  0  0  0  0  0  0  0  0  0  0  0
   43.1150   77.4330   58.8240 H   0  0  0  0  0  0  0  0  0  0  0  0
   41.1310   77.3590   57.3290 H   0  0  0  0  0  0  0  0  0  0  0  0
   40.8300   75.2510   57.3840 N   0  0  0  0  0  0  0  0  0  0  0  0
   41.2890   75.0010   56.5050 H   0  0  0  0  0  0  0  0  0  0  0  0
   39.7940   75.3300   57.2590 H   0  0  0  0  0  0  0  0  0  0  0  0
  1  2  1  0  0  0  0
  1 13  1  0  0  0  0
  2  7  1  0  0  0  0
  3  8  1  0  0  0  0
  3  2  2  0  0  0  0
  4  3  1  0  0  0  0
  5  4  2  0  0  0  0
  5  6  1  0  0  0  0
  6  1  2  0  0  0  0
  9 10  1  0  0  0  0
 10 16  1  0  0  0  0
 10 11  2  0  0  0  0
 11 17  1  0  0  0  0
 12 11  1  0  0  0  0
 13 12  2  0  0  0  0
 14  9  2  0  0  0  0
 14 13  1  0  0  0  0
 15 19  1  0  0  0  0
 15  9  1  0  0  0  0
 18 15  1  0  0  0  0
 20 23  1  1  0  0  0
 20  5  1  0  0  0  0
 21 24  1  0  0  0  0
 21 20  1  0  0  0  0
 22 26  1  6  0  0  0
 22 21  1  0  0  0  0
 22 20  1  0  0  0  0
 25 21  1  0  0  0  0
 27 22  1  0  0  0  0
 28 27  1  0  0  0  0
 29 27  1  0  0  0  0
M  END
>  <minimizedAffinity>
-4.96516514

$$$$

 OpenBabel03212520523D

 29 31  0  0  1  0  0  0  0  0999 V2000
   39.1050   74.8110   59.1280 C   0  0  0  0  0  0  0  0  0  0  0  0
   38.3430   74.3270   60.1430 C   0  0  0  0  0  0  0  0  0  0  0  0
   38.9270   73.6600   61.2270 C   0  0  0  0  0  0  0  0  0  0  0  0
   40.2480   73.4870   61.2810 N   0  0  0  0  0  0  0  0  0  0  0  0
   40.9910   73.9760   60.2590 C   0  0  0  0  0  0  0  0  0  0  0  0
   40.4520   74.6220   59.2080 N   0  0  0  0  0  0  0  0  0  0  0  0
   37.2690   74.4640   60.1060 H   0  0  0  0  0  0  0  0  0  0  0  0
   38.2810   73.2890   62.0160 H   0  0  0  0  0  0  0  0  0  0  0  0
   37.2710   75.4640   56.0270 C   0  0  0  0  0  0  0  0  0  0  0  0
   37.4720   76.8240   55.8460 C   0  0  0  0  0  0  0  0  0  0  0  0
   38.2360   77.5400   56.7790 C   0  0  0  0  0  0  0  0  0  0  0  0
   38.7380   76.8180   57.8230 N   0  0  0  0  0  0  0  0  0  0  0  0
   38.5280   75.4980   57.9750 C   0  0  0  0  0  0  0  0  0  0  0  0
   37.7990   74.8010   57.0890 N   0  0  0  0  0  0  0  0  0  0  0  0
   36.4740   74.8850   55.0220 N   0  0  0  0  0  0  0  0  0  0  0  0
   37.0970   77.4190   55.0460 H   0  0  0  0  0  0  0  0  0  0  0  0
   38.4380   78.5880   56.7120 H   0  0  0  0  0  0  0  0  0  0  0  0
   36.6110   73.9760   54.5310 H   0  0  0  0  0  0  0  0  0  0  0  0
   35.6050   75.3620   54.6580 H   0  0  0  0  0  0  0  0  0  0  0  0
   42.4760   73.7340   60.3550 C   0  0  1  0  0  0  0  0  0  0  0  0
   42.9980   72.6520   61.1580 C   0  0  0  0  0  0  0  0  0  0  0  0
   42.8680   72.3940   59.7050 C   0  0  1  0  0  0  0  0  0  0  0  0
   43.0960   74.5980   59.9800 H   0  0  0  0  0  0  0  0  0  0  0  0
   42.3290   72.1100   61.8520 H   0  0  0  0  0  0  0  0  0  0  0  0
   44.0320   72.7440   61.5770 H   0  0  0  0  0  0  0  0  0  0  0  0
   43.8100   72.3900   59.1260 H   0  0  0  0  0  0  0  0  0  0  0  0
   41.8330   71.5960   59.1460 N   0  0  0  0  0  0  0  0  0  0  0  0
   42.0600   70.6010   59.0970 H   0  0  0  0  0  0  0  0  0  0  0  0
   41.6000   71.9770   58.2000 H   0  0  0  0  0  0  0  0  0  0  0  0
  1  6  2  0  0  0  0
  1  2  1  0  0  0  0
  2  3  2  0  0  0  0
  3  4  1  0  0  0  0
  3  8  1  0  0  0  0
  5 20  1  0  0  0  0
  5  4  2  0  0  0  0
  6  5  1  0  0  0  0
  7  2  1  0  0  0  0
  9 14  1  0  0  0  0
 10  9  2  0  0  0  0
 10 11  1  0  0  0  0
 11 12  2  0  0  0  0
 12 13  1  0  0  0  0
 13  1  1  0  0  0  0
 14 13  2  0  0  0  0
 15  9  1  0  0  0  0
 16 10  1  0  0  0  0
 17 11  1  0  0  0  0
 18 15  1  0  0  0  0
 19 15  1  0  0  0  0
 20 23  1  6  0  0  0
 20 21  1  0  0  0  0
 21 25  1  0  0  0  0
 21 24  1  0  0  0  0
 22 26  1  6  0  0  0
 22 20  1  0  0  0  0
 22 21  1  0  0  0  0
 27 22  1  0  0  0  0
 28 27  1  0  0  0  0
 29 27  1  0  0  0  0
M  END
>  <minimizedAffinity>
-4.9083147

$$$$

 OpenBabel03212520523D

 29 31  0  0  1  0  0  0  0  0999 V2000
   41.5550   71.6930   61.5130 C   0  0  0  0  0  0  0  0  0  0  0  0
   41.6240   71.3920   62.8360 C   0  0  0  0  0  0  0  0  0  0  0  0
   42.0000   70.1140   63.2660 C   0  0  0  0  0  0  0  0  0  0  0  0
   42.3000   69.1650   62.3800 N   0  0  0  0  0  0  0  0  0  0  0  0
   42.2250   69.4820   61.0650 C   0  0  0  0  0  0  0  0  0  0  0  0
   41.8660   70.7050   60.6280 N   0  0  0  0  0  0  0  0  0  0  0  0
   41.3820   72.1590   63.5630 H   0  0  0  0  0  0  0  0  0  0  0  0
   42.0420   69.9170   64.3320 H   0  0  0  0  0  0  0  0  0  0  0  0
   39.6820   74.8050   61.0520 C   0  0  0  0  0  0  0  0  0  0  0  0
   40.4400   75.4670   60.0990 C   0  0  0  0  0  0  0  0  0  0  0  0
   41.6030   74.8620   59.5980 C   0  0  0  0  0  0  0  0  0  0  0  0
   41.9040   73.6310   60.1040 N   0  0  0  0  0  0  0  0  0  0  0  0
   41.1500   73.0100   61.0290 C   0  0  0  0  0  0  0  0  0  0  0  0
   40.0350   73.5780   61.5160 N   0  0  0  0  0  0  0  0  0  0  0  0
   38.5560   75.5390   61.4700 N   0  0  0  0  0  0  0  0  0  0  0  0
   40.2370   76.4260   59.6810 H   0  0  0  0  0  0  0  0  0  0  0  0
   42.2410   75.3060   58.8630 H   0  0  0  0  0  0  0  0  0  0  0  0
   37.5860   75.1970   61.6350 H   0  0  0  0  0  0  0  0  0  0  0  0
   38.6100   76.5750   61.6660 H   0  0  0  0  0  0  0  0  0  0  0  0
   42.5490   68.3690   60.1020 C   0  0  1  0  0  0  0  0  0  0  0  0
   43.0340   68.6610   58.7720 C   0  0  0  0  0  0  0  0  0  0  0  0
   44.0570   68.3210   59.7890 C   0  0  1  0  0  0  0  0  0  0  0  0
   42.1380   67.3680   60.4170 H   0  0  0  0  0  0  0  0  0  0  0  0
   42.9970   69.6970   58.3880 H   0  0  0  0  0  0  0  0  0  0  0  0
   42.8480   67.9170   57.9560 H   0  0  0  0  0  0  0  0  0  0  0  0
   44.5050   67.3130   59.7080 H   0  0  0  0  0  0  0  0  0  0  0  0
   44.8960   69.2890   60.4030 N   0  0  0  0  0  0  0  0  0  0  0  0
   45.7600   69.4710   59.8880 H   0  0  0  0  0  0  0  0  0  0  0  0
   45.0980   68.9760   61.3800 H   0  0  0  0  0  0  0  0  0  0  0  0
  1  2  1  0  0  0  0
  2  3  2  0  0  0  0
  2  7  1  0  0  0  0
  3  8  1  0  0  0  0
  4  3  1  0  0  0  0
  5  4  2  0  0  0  0
  6  5  1  0  0  0  0
  6  1  2  0  0  0  0
  9 15  1  0  0  0  0
  9 14  1  0  0  0  0
 10  9  2  0  0  0  0
 11 10  1  0  0  0  0
 11 12  2  0  0  0  0
 12 13  1  0  0  0  0
 13  1  1  0  0  0  0
 13 14  2  0  0  0  0
 15 18  1  0  0  0  0
 15 19  1  0  0  0  0
 16 10  1  0  0  0  0
 17 11  1  0  0  0  0
 20 23  1  1  0  0  0
 20  5  1  0  0  0  0
 21 22  1  0  0  0  0
 21 20  1  0  0  0  0
 22 26  1  6  0  0  0
 22 20  1  0  0  0  0
 22 27  1  0  0  0  0
 24 21  1  0  0  0  0
 25 21  1  0  0  0  0
 27 29  1  0  0  0  0
 28 27  1  0  0  0  0
M  END
>  <minimizedAffinity>
-4.88102531

$$$$
