
 OpenBabel03212520553D

 35 38  0  0  0  0  0  0  0  0999 V2000
   39.7290   77.1310   59.4200 C   0  0  0  0  0  0  0  0  0  0  0  0
   40.3200   75.9260   59.2420 C   0  0  0  0  0  0  0  0  0  0  0  0
   39.7520   75.1760   58.2050 C   0  0  0  0  0  0  0  0  0  0  0  0
   38.7210   75.5920   57.4480 N   0  0  0  0  0  0  0  0  0  0  0  0
   38.1880   76.8020   57.6900 C   0  0  0  0  0  0  0  0  0  0  0  0
   38.7040   77.5760   58.6880 N   0  0  0  0  0  0  0  0  0  0  0  0
   41.1490   75.5570   59.8270 H   0  0  0  0  0  0  0  0  0  0  0  0
   40.1500   74.1870   57.9720 H   0  0  0  0  0  0  0  0  0  0  0  0
   40.9840   80.1980   61.8030 C   0  0  0  0  0  0  0  0  0  0  0  0
   40.9900   78.9810   62.4580 C   0  0  0  0  0  0  0  0  0  0  0  0
   40.5980   77.8870   61.7780 C   0  0  0  0  0  0  0  0  0  0  0  0
   40.1990   78.0050   60.4450 C   0  0  0  0  0  0  0  0  0  0  0  0
   40.3920   79.8200   60.1140 S   0  0  0  0  0  0  0  0  0  0  0  0
   41.2980   78.8840   63.4910 H   0  0  0  0  0  0  0  0  0  0  0  0
   40.5340   76.8600   62.1080 H   0  0  0  0  0  0  0  0  0  0  0  0
   43.0560   83.0690   62.7470 C   0  0  0  0  0  0  0  0  0  0  0  0
   42.1720   83.8560   63.5360 C   0  0  0  0  0  0  0  0  0  0  0  0
   40.8880   83.3900   63.7290 C   0  0  0  0  0  0  0  0  0  0  0  0
   40.5300   82.2080   63.1590 N   0  0  0  0  0  0  0  0  0  0  0  0
   41.3890   81.4840   62.4150 C   0  0  0  0  0  0  0  0  0  0  0  0
   42.6060   81.9200   62.2290 N   0  0  0  0  0  0  0  0  0  0  0  0
   44.0260   83.4850   62.6380 H   0  0  0  0  0  0  0  0  0  0  0  0
   42.3720   84.7950   64.0200 H   0  0  0  0  0  0  0  0  0  0  0  0
   40.0940   83.8440   64.2900 H   0  0  0  0  0  0  0  0  0  0  0  0
   37.0750   77.2500   56.8790 C   0  0  0  0  0  0  0  0  0  0  0  0
   35.9090   76.9270   57.2640 O   0  0  0  0  0  0  0  0  0  0  0  0
   37.1080   78.0480   55.6370 C   0  0  0  0  0  0  0  0  0  0  0  0
   37.3870   79.4090   55.7740 C   0  0  0  0  0  0  0  0  0  0  0  0
   37.5730   79.8450   56.7640 H   0  0  0  0  0  0  0  0  0  0  0  0
   37.4340   80.2320   54.6520 C   0  0  0  0  0  3  0  0  0  0  0  0
   37.1990   79.6690   53.4090 C   0  0  0  0  0  0  0  0  0  0  0  0
   37.2240   80.2740   52.4920 H   0  0  0  0  0  0  0  0  0  0  0  0
   36.9230   78.3230   53.2590 C   0  0  0  0  0  0  0  0  0  0  0  0
   36.7320   77.8480   52.3020 H   0  0  0  0  0  0  0  0  0  0  0  0
   36.8740   77.5020   54.3670 C   0  0  0  0  0  3  0  0  0  0  0  0
  1 12  1  0  0  0  0
  2  1  1  0  0  0  0
  2  7  1  0  0  0  0
  3  2  2  0  0  0  0
  4  5  2  0  0  0  0
  4  3  1  0  0  0  0
  5  6  1  0  0  0  0
  6  1  2  0  0  0  0
  8  3  1  0  0  0  0
  9 20  1  0  0  0  0
  9 10  2  0  0  0  0
 10 14  1  0  0  0  0
 11 15  1  0  0  0  0
 11 10  1  0  0  0  0
 12 11  2  0  0  0  0
 13 12  1  0  0  0  0
 13  9  1  0  0  0  0
 16 17  1  0  0  0  0
 17 18  2  0  0  0  0
 17 23  1  0  0  0  0
 18 24  1  0  0  0  0
 19 18  1  0  0  0  0
 20 19  2  0  0  0  0
 21 20  1  0  0  0  0
 21 16  2  0  0  0  0
 22 16  1  0  0  0  0
 25 26  2  0  0  0  0
 25  5  1  0  0  0  0
 27 28  1  0  0  0  0
 27 25  1  0  0  0  0
 28 29  1  0  0  0  0
 30 28  2  0  0  0  0
 31 30  1  0  0  0  0
 32 31  1  0  0  0  0
 33 31  2  0  0  0  0
 33 35  1  0  0  0  0
 34 33  1  0  0  0  0
 35 27  2  0  0  0  0
M  END
>  <minimizedAffinity>
-6.85726976

>  <minimizedRMSD>
0.697432876

$$$$
