
 OpenBabel03212520563D

 35 38  0  0  0  0  0  0  0  0999 V2000
   39.7320   77.1170   59.4430 C   0  0  0  0  0  0  0  0  0  0  0  0
   40.3120   75.9060   59.2750 C   0  0  0  0  0  0  0  0  0  0  0  0
   39.7390   75.1530   58.2410 C   0  0  0  0  0  0  0  0  0  0  0  0
   38.7120   75.5730   57.4810 N   0  0  0  0  0  0  0  0  0  0  0  0
   38.1900   76.7900   57.7130 C   0  0  0  0  0  0  0  0  0  0  0  0
   38.7110   77.5660   58.7070 N   0  0  0  0  0  0  0  0  0  0  0  0
   41.1370   75.5340   59.8630 H   0  0  0  0  0  0  0  0  0  0  0  0
   40.1290   74.1600   58.0160 H   0  0  0  0  0  0  0  0  0  0  0  0
   40.9930   80.1910   61.8130 C   0  0  0  0  0  0  0  0  0  0  0  0
   41.0160   78.9740   62.4670 C   0  0  0  0  0  0  0  0  0  0  0  0
   40.6240   77.8770   61.7920 C   0  0  0  0  0  0  0  0  0  0  0  0
   40.2070   77.9940   60.4630 C   0  0  0  0  0  0  0  0  0  0  0  0
   40.3830   79.8110   60.1310 S   0  0  0  0  0  0  0  0  0  0  0  0
   41.3370   78.8790   63.4970 H   0  0  0  0  0  0  0  0  0  0  0  0
   40.5710   76.8500   62.1210 H   0  0  0  0  0  0  0  0  0  0  0  0
   43.0610   83.0670   62.7500 C   0  0  0  0  0  0  0  0  0  0  0  0
   42.1760   83.8570   63.5350 C   0  0  0  0  0  0  0  0  0  0  0  0
   40.8920   83.3910   63.7270 C   0  0  0  0  0  0  0  0  0  0  0  0
   40.5350   82.2060   63.1610 N   0  0  0  0  0  0  0  0  0  0  0  0
   41.3960   81.4790   62.4210 C   0  0  0  0  0  0  0  0  0  0  0  0
   42.6130   81.9160   62.2360 N   0  0  0  0  0  0  0  0  0  0  0  0
   44.0310   83.4830   62.6410 H   0  0  0  0  0  0  0  0  0  0  0  0
   42.3740   84.7970   64.0150 H   0  0  0  0  0  0  0  0  0  0  0  0
   40.0960   83.8460   64.2840 H   0  0  0  0  0  0  0  0  0  0  0  0
   37.0810   77.2410   56.8980 C   0  0  0  0  0  0  0  0  0  0  0  0
   35.9200   76.8510   57.2290 O   0  0  0  0  0  0  0  0  0  0  0  0
   37.1160   78.1130   55.7070 C   0  0  0  0  0  0  0  0  0  0  0  0
   36.8600   77.5060   54.4770 C   0  0  0  0  0  0  0  0  0  0  0  0
   36.6410   76.4320   54.4200 H   0  0  0  0  0  0  0  0  0  0  0  0
   36.8770   78.2580   53.3050 C   0  0  0  0  0  3  0  0  0  0  0  0
   37.1510   79.6120   53.3930 C   0  0  0  0  0  0  0  0  0  0  0  0
   37.1780   80.2500   52.4990 H   0  0  0  0  0  0  0  0  0  0  0  0
   37.4060   80.2270   54.6040 C   0  0  0  0  0  0  0  0  0  0  0  0
   37.6260   81.2850   54.7110 H   0  0  0  0  0  0  0  0  0  0  0  0
   37.3920   79.4870   55.7680 C   0  0  0  0  0  3  0  0  0  0  0  0
  1 12  1  0  0  0  0
  2  1  1  0  0  0  0
  2  7  1  0  0  0  0
  3  2  2  0  0  0  0
  4  5  2  0  0  0  0
  4  3  1  0  0  0  0
  5  6  1  0  0  0  0
  6  1  2  0  0  0  0
  8  3  1  0  0  0  0
  9 20  1  0  0  0  0
  9 10  2  0  0  0  0
 10 14  1  0  0  0  0
 11 15  1  0  0  0  0
 11 10  1  0  0  0  0
 12 11  2  0  0  0  0
 13 12  1  0  0  0  0
 13  9  1  0  0  0  0
 16 17  1  0  0  0  0
 17 18  2  0  0  0  0
 17 23  1  0  0  0  0
 18 24  1  0  0  0  0
 19 18  1  0  0  0  0
 20 19  2  0  0  0  0
 21 20  1  0  0  0  0
 21 16  2  0  0  0  0
 22 16  1  0  0  0  0
 25 26  2  0  0  0  0
 25  5  1  0  0  0  0
 27 35  1  0  0  0  0
 27 25  1  0  0  0  0
 28 27  2  0  0  0  0
 29 28  1  0  0  0  0
 30 31  2  0  0  0  0
 30 28  1  0  0  0  0
 31 33  1  0  0  0  0
 32 31  1  0  0  0  0
 33 34  1  0  0  0  0
 33 35  2  0  0  0  0
M  END
>  <minimizedAffinity>
-6.82401276

>  <minimizedRMSD>
0.918293893

$$$$
