
 OpenBabel03212520553D

 35 38  0  0  0  0  0  0  0  0999 V2000
   39.7200   77.1230   59.4180 C   0  0  0  0  0  0  0  0  0  0  0  0
   40.3070   75.9150   59.2430 C   0  0  0  0  0  0  0  0  0  0  0  0
   39.7380   75.1650   58.2060 C   0  0  0  0  0  0  0  0  0  0  0  0
   38.7090   75.5830   57.4480 N   0  0  0  0  0  0  0  0  0  0  0  0
   38.1800   76.7960   57.6860 C   0  0  0  0  0  0  0  0  0  0  0  0
   38.6970   77.5690   58.6850 N   0  0  0  0  0  0  0  0  0  0  0  0
   41.1340   75.5450   59.8300 H   0  0  0  0  0  0  0  0  0  0  0  0
   40.1330   74.1750   57.9760 H   0  0  0  0  0  0  0  0  0  0  0  0
   40.9800   80.1890   61.7980 C   0  0  0  0  0  0  0  0  0  0  0  0
   40.9850   78.9730   62.4540 C   0  0  0  0  0  0  0  0  0  0  0  0
   40.5910   77.8790   61.7760 C   0  0  0  0  0  0  0  0  0  0  0  0
   40.1910   77.9970   60.4420 C   0  0  0  0  0  0  0  0  0  0  0  0
   40.3870   79.8110   60.1100 S   0  0  0  0  0  0  0  0  0  0  0  0
   41.2930   78.8770   63.4880 H   0  0  0  0  0  0  0  0  0  0  0  0
   40.5260   76.8530   62.1060 H   0  0  0  0  0  0  0  0  0  0  0  0
   43.0550   83.0610   62.7350 C   0  0  0  0  0  0  0  0  0  0  0  0
   42.1740   83.8470   63.5270 C   0  0  0  0  0  0  0  0  0  0  0  0
   40.8910   83.3820   63.7240 C   0  0  0  0  0  0  0  0  0  0  0  0
   40.5310   82.2000   63.1560 N   0  0  0  0  0  0  0  0  0  0  0  0
   41.3870   81.4750   62.4090 C   0  0  0  0  0  0  0  0  0  0  0  0
   42.6040   81.9110   62.2190 N   0  0  0  0  0  0  0  0  0  0  0  0
   44.0250   83.4760   62.6230 H   0  0  0  0  0  0  0  0  0  0  0  0
   42.3760   84.7860   64.0110 H   0  0  0  0  0  0  0  0  0  0  0  0
   40.0980   83.8360   64.2880 H   0  0  0  0  0  0  0  0  0  0  0  0
   37.0690   77.2450   56.8730 C   0  0  0  0  0  0  0  0  0  0  0  0
   35.9030   76.9220   57.2540 O   0  0  0  0  0  0  0  0  0  0  0  0
   37.1070   78.0470   55.6340 C   0  0  0  0  0  0  0  0  0  0  0  0
   37.3880   79.4070   55.7760 C   0  0  0  0  0  0  0  0  0  0  0  0
   37.5730   79.8390   56.7680 H   0  0  0  0  0  0  0  0  0  0  0  0
   37.4390   80.2330   54.6560 C   0  0  0  0  0  3  0  0  0  0  0  0
   37.2060   79.6750   53.4100 C   0  0  0  0  0  0  0  0  0  0  0  0
   37.2320   80.2830   52.4960 H   0  0  0  0  0  0  0  0  0  0  0  0
   36.9260   78.3300   53.2560 C   0  0  0  0  0  0  0  0  0  0  0  0
   36.7380   77.8580   52.2970 H   0  0  0  0  0  0  0  0  0  0  0  0
   36.8750   77.5060   54.3620 C   0  0  0  0  0  3  0  0  0  0  0  0
  1 12  1  0  0  0  0
  2  1  1  0  0  0  0
  2  7  1  0  0  0  0
  3  2  2  0  0  0  0
  4  5  2  0  0  0  0
  4  3  1  0  0  0  0
  5  6  1  0  0  0  0
  6  1  2  0  0  0  0
  8  3  1  0  0  0  0
  9 20  1  0  0  0  0
  9 10  2  0  0  0  0
 10 14  1  0  0  0  0
 11 15  1  0  0  0  0
 11 10  1  0  0  0  0
 12 11  2  0  0  0  0
 13 12  1  0  0  0  0
 13  9  1  0  0  0  0
 16 17  1  0  0  0  0
 17 18  2  0  0  0  0
 17 23  1  0  0  0  0
 18 24  1  0  0  0  0
 19 18  1  0  0  0  0
 20 19  2  0  0  0  0
 21 20  1  0  0  0  0
 21 16  2  0  0  0  0
 22 16  1  0  0  0  0
 25 26  2  0  0  0  0
 25  5  1  0  0  0  0
 27 28  1  0  0  0  0
 27 25  1  0  0  0  0
 28 29  1  0  0  0  0
 30 28  2  0  0  0  0
 31 30  1  0  0  0  0
 32 31  1  0  0  0  0
 33 31  2  0  0  0  0
 33 35  1  0  0  0  0
 34 33  1  0  0  0  0
 35 27  2  0  0  0  0
M  END
>  <minimizedAffinity>
-6.853405

>  <minimizedRMSD>
0.776105762

$$$$
