
 OpenBabel03212520563D

 35 38  0  0  0  0  0  0  0  0999 V2000
   39.7340   77.1200   59.4430 C   0  0  0  0  0  0  0  0  0  0  0  0
   40.3140   75.9080   59.2740 C   0  0  0  0  0  0  0  0  0  0  0  0
   39.7410   75.1560   58.2410 C   0  0  0  0  0  0  0  0  0  0  0  0
   38.7130   75.5760   57.4810 N   0  0  0  0  0  0  0  0  0  0  0  0
   38.1910   76.7920   57.7140 C   0  0  0  0  0  0  0  0  0  0  0  0
   38.7130   77.5680   58.7080 N   0  0  0  0  0  0  0  0  0  0  0  0
   41.1390   75.5360   59.8630 H   0  0  0  0  0  0  0  0  0  0  0  0
   40.1300   74.1630   58.0150 H   0  0  0  0  0  0  0  0  0  0  0  0
   40.9940   80.1930   61.8140 C   0  0  0  0  0  0  0  0  0  0  0  0
   41.0210   78.9750   62.4660 C   0  0  0  0  0  0  0  0  0  0  0  0
   40.6290   77.8790   61.7910 C   0  0  0  0  0  0  0  0  0  0  0  0
   40.2100   77.9960   60.4630 C   0  0  0  0  0  0  0  0  0  0  0  0
   40.3820   79.8130   60.1330 S   0  0  0  0  0  0  0  0  0  0  0  0
   41.3450   78.8800   63.4950 H   0  0  0  0  0  0  0  0  0  0  0  0
   40.5790   76.8510   62.1200 H   0  0  0  0  0  0  0  0  0  0  0  0
   43.0610   83.0700   62.7530 C   0  0  0  0  0  0  0  0  0  0  0  0
   42.1740   83.8590   63.5370 C   0  0  0  0  0  0  0  0  0  0  0  0
   40.8910   83.3930   63.7280 C   0  0  0  0  0  0  0  0  0  0  0  0
   40.5350   82.2080   63.1610 N   0  0  0  0  0  0  0  0  0  0  0  0
   41.3960   81.4820   62.4220 C   0  0  0  0  0  0  0  0  0  0  0  0
   42.6140   81.9180   62.2380 N   0  0  0  0  0  0  0  0  0  0  0  0
   44.0310   83.4860   62.6450 H   0  0  0  0  0  0  0  0  0  0  0  0
   42.3730   84.8000   64.0180 H   0  0  0  0  0  0  0  0  0  0  0  0
   40.0940   83.8480   64.2840 H   0  0  0  0  0  0  0  0  0  0  0  0
   37.0820   77.2440   56.9000 C   0  0  0  0  0  0  0  0  0  0  0  0
   35.9210   76.8550   57.2320 O   0  0  0  0  0  0  0  0  0  0  0  0
   37.1160   78.1150   55.7080 C   0  0  0  0  0  0  0  0  0  0  0  0
   36.8600   77.5070   54.4790 C   0  0  0  0  0  0  0  0  0  0  0  0
   36.6400   76.4320   54.4220 H   0  0  0  0  0  0  0  0  0  0  0  0
   36.8760   78.2580   53.3060 C   0  0  0  0  0  3  0  0  0  0  0  0
   37.1510   79.6110   53.3930 C   0  0  0  0  0  0  0  0  0  0  0  0
   37.1770   80.2490   52.4980 H   0  0  0  0  0  0  0  0  0  0  0  0
   37.4060   80.2290   54.6030 C   0  0  0  0  0  0  0  0  0  0  0  0
   37.6260   81.2860   54.7080 H   0  0  0  0  0  0  0  0  0  0  0  0
   37.3920   79.4890   55.7690 C   0  0  0  0  0  3  0  0  0  0  0  0
  1 12  1  0  0  0  0
  2  1  1  0  0  0  0
  2  7  1  0  0  0  0
  3  2  2  0  0  0  0
  4  5  2  0  0  0  0
  4  3  1  0  0  0  0
  5  6  1  0  0  0  0
  6  1  2  0  0  0  0
  8  3  1  0  0  0  0
  9 20  1  0  0  0  0
  9 10  2  0  0  0  0
 10 14  1  0  0  0  0
 11 15  1  0  0  0  0
 11 10  1  0  0  0  0
 12 11  2  0  0  0  0
 13 12  1  0  0  0  0
 13  9  1  0  0  0  0
 16 17  1  0  0  0  0
 17 18  2  0  0  0  0
 17 23  1  0  0  0  0
 18 24  1  0  0  0  0
 19 18  1  0  0  0  0
 20 19  2  0  0  0  0
 21 20  1  0  0  0  0
 21 16  2  0  0  0  0
 22 16  1  0  0  0  0
 25 26  2  0  0  0  0
 25  5  1  0  0  0  0
 27 35  1  0  0  0  0
 27 25  1  0  0  0  0
 28 27  2  0  0  0  0
 29 28  1  0  0  0  0
 30 31  2  0  0  0  0
 30 28  1  0  0  0  0
 31 33  1  0  0  0  0
 32 31  1  0  0  0  0
 33 34  1  0  0  0  0
 33 35  2  0  0  0  0
M  END
>  <minimizedAffinity>
-6.83004475

>  <minimizedRMSD>
0.798753858

$$$$
