
 OpenBabel03212520563D

 35 38  0  0  0  0  0  0  0  0999 V2000
   39.7250   77.1270   59.4180 C   0  0  0  0  0  0  0  0  0  0  0  0
   40.3150   75.9210   59.2420 C   0  0  0  0  0  0  0  0  0  0  0  0
   39.7460   75.1700   58.2040 C   0  0  0  0  0  0  0  0  0  0  0  0
   38.7160   75.5870   57.4470 N   0  0  0  0  0  0  0  0  0  0  0  0
   38.1850   76.7990   57.6870 C   0  0  0  0  0  0  0  0  0  0  0  0
   38.7010   77.5720   58.6850 N   0  0  0  0  0  0  0  0  0  0  0  0
   41.1420   75.5510   59.8270 H   0  0  0  0  0  0  0  0  0  0  0  0
   40.1430   74.1820   57.9730 H   0  0  0  0  0  0  0  0  0  0  0  0
   40.9820   80.1930   61.8000 C   0  0  0  0  0  0  0  0  0  0  0  0
   40.9870   78.9770   62.4550 C   0  0  0  0  0  0  0  0  0  0  0  0
   40.5940   77.8830   61.7760 C   0  0  0  0  0  0  0  0  0  0  0  0
   40.1950   78.0010   60.4430 C   0  0  0  0  0  0  0  0  0  0  0  0
   40.3900   79.8160   60.1110 S   0  0  0  0  0  0  0  0  0  0  0  0
   41.2940   78.8800   63.4890 H   0  0  0  0  0  0  0  0  0  0  0  0
   40.5290   76.8560   62.1070 H   0  0  0  0  0  0  0  0  0  0  0  0
   43.0550   83.0650   62.7400 C   0  0  0  0  0  0  0  0  0  0  0  0
   42.1730   83.8510   63.5310 C   0  0  0  0  0  0  0  0  0  0  0  0
   40.8900   83.3850   63.7270 C   0  0  0  0  0  0  0  0  0  0  0  0
   40.5300   82.2040   63.1570 N   0  0  0  0  0  0  0  0  0  0  0  0
   41.3880   81.4790   62.4120 C   0  0  0  0  0  0  0  0  0  0  0  0
   42.6050   81.9150   62.2230 N   0  0  0  0  0  0  0  0  0  0  0  0
   44.0250   83.4810   62.6300 H   0  0  0  0  0  0  0  0  0  0  0  0
   42.3740   84.7900   64.0150 H   0  0  0  0  0  0  0  0  0  0  0  0
   40.0960   83.8390   64.2890 H   0  0  0  0  0  0  0  0  0  0  0  0
   37.0720   77.2470   56.8750 C   0  0  0  0  0  0  0  0  0  0  0  0
   35.9070   76.9240   57.2580 O   0  0  0  0  0  0  0  0  0  0  0  0
   37.1080   78.0470   55.6350 C   0  0  0  0  0  0  0  0  0  0  0  0
   37.3880   79.4080   55.7740 C   0  0  0  0  0  0  0  0  0  0  0  0
   37.5750   79.8410   56.7650 H   0  0  0  0  0  0  0  0  0  0  0  0
   37.4370   80.2320   54.6530 C   0  0  0  0  0  3  0  0  0  0  0  0
   37.2020   79.6730   53.4100 C   0  0  0  0  0  0  0  0  0  0  0  0
   37.2280   80.2780   52.4930 H   0  0  0  0  0  0  0  0  0  0  0  0
   36.9230   78.3270   53.2570 C   0  0  0  0  0  0  0  0  0  0  0  0
   36.7330   77.8540   52.2990 H   0  0  0  0  0  0  0  0  0  0  0  0
   36.8740   77.5050   54.3640 C   0  0  0  0  0  3  0  0  0  0  0  0
  1 12  1  0  0  0  0
  2  1  1  0  0  0  0
  2  7  1  0  0  0  0
  3  2  2  0  0  0  0
  4  5  2  0  0  0  0
  4  3  1  0  0  0  0
  5  6  1  0  0  0  0
  6  1  2  0  0  0  0
  8  3  1  0  0  0  0
  9 20  1  0  0  0  0
  9 10  2  0  0  0  0
 10 14  1  0  0  0  0
 11 15  1  0  0  0  0
 11 10  1  0  0  0  0
 12 11  2  0  0  0  0
 13 12  1  0  0  0  0
 13  9  1  0  0  0  0
 16 17  1  0  0  0  0
 17 18  2  0  0  0  0
 17 23  1  0  0  0  0
 18 24  1  0  0  0  0
 19 18  1  0  0  0  0
 20 19  2  0  0  0  0
 21 20  1  0  0  0  0
 21 16  2  0  0  0  0
 22 16  1  0  0  0  0
 25 26  2  0  0  0  0
 25  5  1  0  0  0  0
 27 28  1  0  0  0  0
 27 25  1  0  0  0  0
 28 29  1  0  0  0  0
 30 28  2  0  0  0  0
 31 30  1  0  0  0  0
 32 31  1  0  0  0  0
 33 31  2  0  0  0  0
 33 35  1  0  0  0  0
 34 33  1  0  0  0  0
 35 27  2  0  0  0  0
M  END
>  <minimizedAffinity>
-6.8544445

>  <minimizedRMSD>
0.772452831

$$$$
