
 OpenBabel03212520553D

 35 38  0  0  0  0  0  0  0  0999 V2000
   39.7250   77.1270   59.4180 C   0  0  0  0  0  0  0  0  0  0  0  0
   40.3130   75.9200   59.2430 C   0  0  0  0  0  0  0  0  0  0  0  0
   39.7440   75.1700   58.2050 C   0  0  0  0  0  0  0  0  0  0  0  0
   38.7130   75.5870   57.4490 N   0  0  0  0  0  0  0  0  0  0  0  0
   38.1840   76.8000   57.6880 C   0  0  0  0  0  0  0  0  0  0  0  0
   38.7010   77.5730   58.6860 N   0  0  0  0  0  0  0  0  0  0  0  0
   41.1400   75.5500   59.8280 H   0  0  0  0  0  0  0  0  0  0  0  0
   40.1390   74.1800   57.9740 H   0  0  0  0  0  0  0  0  0  0  0  0
   40.9830   80.1930   61.8000 C   0  0  0  0  0  0  0  0  0  0  0  0
   40.9920   78.9760   62.4540 C   0  0  0  0  0  0  0  0  0  0  0  0
   40.5990   77.8820   61.7750 C   0  0  0  0  0  0  0  0  0  0  0  0
   40.1960   78.0000   60.4430 C   0  0  0  0  0  0  0  0  0  0  0  0
   40.3870   79.8160   60.1130 S   0  0  0  0  0  0  0  0  0  0  0  0
   41.3030   78.8790   63.4870 H   0  0  0  0  0  0  0  0  0  0  0  0
   40.5370   76.8550   62.1050 H   0  0  0  0  0  0  0  0  0  0  0  0
   43.0560   83.0640   62.7430 C   0  0  0  0  0  0  0  0  0  0  0  0
   42.1720   83.8510   63.5320 C   0  0  0  0  0  0  0  0  0  0  0  0
   40.8890   83.3860   63.7250 C   0  0  0  0  0  0  0  0  0  0  0  0
   40.5300   82.2040   63.1560 N   0  0  0  0  0  0  0  0  0  0  0  0
   41.3880   81.4790   62.4120 C   0  0  0  0  0  0  0  0  0  0  0  0
   42.6060   81.9150   62.2260 N   0  0  0  0  0  0  0  0  0  0  0  0
   44.0260   83.4800   62.6340 H   0  0  0  0  0  0  0  0  0  0  0  0
   42.3730   84.7900   64.0160 H   0  0  0  0  0  0  0  0  0  0  0  0
   40.0940   83.8400   64.2860 H   0  0  0  0  0  0  0  0  0  0  0  0
   37.0720   77.2490   56.8770 C   0  0  0  0  0  0  0  0  0  0  0  0
   35.9060   76.9270   57.2600 O   0  0  0  0  0  0  0  0  0  0  0  0
   37.1070   78.0480   55.6360 C   0  0  0  0  0  0  0  0  0  0  0  0
   37.3880   79.4080   55.7750 C   0  0  0  0  0  0  0  0  0  0  0  0
   37.5750   79.8430   56.7660 H   0  0  0  0  0  0  0  0  0  0  0  0
   37.4370   80.2320   54.6530 C   0  0  0  0  0  3  0  0  0  0  0  0
   37.2020   79.6720   53.4090 C   0  0  0  0  0  0  0  0  0  0  0  0
   37.2280   80.2780   52.4930 H   0  0  0  0  0  0  0  0  0  0  0  0
   36.9240   78.3260   53.2570 C   0  0  0  0  0  0  0  0  0  0  0  0
   36.7350   77.8520   52.3000 H   0  0  0  0  0  0  0  0  0  0  0  0
   36.8740   77.5050   54.3650 C   0  0  0  0  0  3  0  0  0  0  0  0
  1 12  1  0  0  0  0
  2  1  1  0  0  0  0
  2  7  1  0  0  0  0
  3  2  2  0  0  0  0
  4  5  2  0  0  0  0
  4  3  1  0  0  0  0
  5  6  1  0  0  0  0
  6  1  2  0  0  0  0
  8  3  1  0  0  0  0
  9 20  1  0  0  0  0
  9 10  2  0  0  0  0
 10 14  1  0  0  0  0
 11 15  1  0  0  0  0
 11 10  1  0  0  0  0
 12 11  2  0  0  0  0
 13 12  1  0  0  0  0
 13  9  1  0  0  0  0
 16 17  1  0  0  0  0
 17 18  2  0  0  0  0
 17 23  1  0  0  0  0
 18 24  1  0  0  0  0
 19 18  1  0  0  0  0
 20 19  2  0  0  0  0
 21 20  1  0  0  0  0
 21 16  2  0  0  0  0
 22 16  1  0  0  0  0
 25 26  2  0  0  0  0
 25  5  1  0  0  0  0
 27 28  1  0  0  0  0
 27 25  1  0  0  0  0
 28 29  1  0  0  0  0
 30 28  2  0  0  0  0
 31 30  1  0  0  0  0
 32 31  1  0  0  0  0
 33 31  2  0  0  0  0
 33 35  1  0  0  0  0
 34 33  1  0  0  0  0
 35 27  2  0  0  0  0
M  END
>  <minimizedAffinity>
-6.85171223

>  <minimizedRMSD>
0.550536513

$$$$
