
 OpenBabel03212520563D

 35 38  0  0  0  0  0  0  0  0999 V2000
   39.8190   77.2000   59.4830 C   0  0  0  0  0  0  0  0  0  0  0  0
   40.4430   76.0130   59.2960 C   0  0  0  0  0  0  0  0  0  0  0  0
   39.8900   75.2520   58.2580 C   0  0  0  0  0  0  0  0  0  0  0  0
   38.8410   75.6420   57.5120 N   0  0  0  0  0  0  0  0  0  0  0  0
   38.2760   76.8350   57.7630 C   0  0  0  0  0  0  0  0  0  0  0  0
   38.7760   77.6190   58.7620 N   0  0  0  0  0  0  0  0  0  0  0  0
   41.2860   75.6650   59.8730 H   0  0  0  0  0  0  0  0  0  0  0  0
   40.3140   74.2770   58.0180 H   0  0  0  0  0  0  0  0  0  0  0  0
   41.0130   80.2880   61.8700 C   0  0  0  0  0  0  0  0  0  0  0  0
   41.0430   79.0710   62.5240 C   0  0  0  0  0  0  0  0  0  0  0  0
   40.6720   77.9700   61.8430 C   0  0  0  0  0  0  0  0  0  0  0  0
   40.2710   78.0820   60.5100 C   0  0  0  0  0  0  0  0  0  0  0  0
   40.4290   79.9010   60.1810 S   0  0  0  0  0  0  0  0  0  0  0  0
   41.3520   78.9790   63.5580 H   0  0  0  0  0  0  0  0  0  0  0  0
   40.6280   76.9420   62.1720 H   0  0  0  0  0  0  0  0  0  0  0  0
   43.0360   83.1860   62.8390 C   0  0  0  0  0  0  0  0  0  0  0  0
   42.1290   83.9670   63.6080 C   0  0  0  0  0  0  0  0  0  0  0  0
   40.8470   83.4880   63.7780 C   0  0  0  0  0  0  0  0  0  0  0  0
   40.5120   82.3000   63.2070 N   0  0  0  0  0  0  0  0  0  0  0  0
   41.3920   81.5810   62.4840 C   0  0  0  0  0  0  0  0  0  0  0  0
   42.6080   82.0290   62.3190 N   0  0  0  0  0  0  0  0  0  0  0  0
   44.0040   83.6110   62.7480 H   0  0  0  0  0  0  0  0  0  0  0  0
   42.3100   84.9100   64.0910 H   0  0  0  0  0  0  0  0  0  0  0  0
   40.0360   83.9370   64.3210 H   0  0  0  0  0  0  0  0  0  0  0  0
   37.1440   77.2540   56.9630 C   0  0  0  0  0  0  0  0  0  0  0  0
   35.9960   76.8500   57.3230 O   0  0  0  0  0  0  0  0  0  0  0  0
   37.1400   78.1080   55.7580 C   0  0  0  0  0  0  0  0  0  0  0  0
   36.8530   77.4790   54.5450 C   0  0  0  0  0  0  0  0  0  0  0  0
   36.6380   76.4040   54.5120 H   0  0  0  0  0  0  0  0  0  0  0  0
   36.8310   78.2130   53.3620 C   0  0  0  0  0  3  0  0  0  0  0  0
   37.1010   79.5690   53.4200 C   0  0  0  0  0  0  0  0  0  0  0  0
   37.0990   80.1930   52.5150 H   0  0  0  0  0  0  0  0  0  0  0  0
   37.3880   80.2050   54.6130 C   0  0  0  0  0  0  0  0  0  0  0  0
   37.6060   81.2650   54.6970 H   0  0  0  0  0  0  0  0  0  0  0  0
   37.4100   79.4830   55.7900 C   0  0  0  0  0  3  0  0  0  0  0  0
  1 12  1  0  0  0  0
  2  1  1  0  0  0  0
  2  7  1  0  0  0  0
  3  2  2  0  0  0  0
  4  5  2  0  0  0  0
  4  3  1  0  0  0  0
  5  6  1  0  0  0  0
  6  1  2  0  0  0  0
  8  3  1  0  0  0  0
  9 20  1  0  0  0  0
  9 10  2  0  0  0  0
 10 14  1  0  0  0  0
 11 15  1  0  0  0  0
 11 10  1  0  0  0  0
 12 11  2  0  0  0  0
 13 12  1  0  0  0  0
 13  9  1  0  0  0  0
 16 17  1  0  0  0  0
 17 18  2  0  0  0  0
 17 23  1  0  0  0  0
 18 24  1  0  0  0  0
 19 18  1  0  0  0  0
 20 19  2  0  0  0  0
 21 20  1  0  0  0  0
 21 16  2  0  0  0  0
 22 16  1  0  0  0  0
 25 26  2  0  0  0  0
 25  5  1  0  0  0  0
 27 35  1  0  0  0  0
 27 25  1  0  0  0  0
 28 27  2  0  0  0  0
 29 28  1  0  0  0  0
 30 31  2  0  0  0  0
 30 28  1  0  0  0  0
 31 33  1  0  0  0  0
 32 31  1  0  0  0  0
 33 34  1  0  0  0  0
 33 35  2  0  0  0  0
M  END
>  <minimizedAffinity>
-6.83457804

>  <minimizedRMSD>
0.644606948

$$$$
