
 OpenBabel03212520403D

 27 29  0  0  1  0  0  0  0  0999 V2000
   42.0710   85.4010   59.6380 C   0  0  1  0  0  0  0  0  0  0  0  0
   43.1260   85.8900   58.6510 C   0  0  0  0  0  0  0  0  0  0  0  0
   42.0850   84.8390   58.2630 C   0  0  1  0  0  0  0  0  0  0  0  0
   41.3870   86.2280   59.9400 H   0  0  0  0  0  0  0  0  0  0  0  0
   42.9860   86.8750   58.1530 H   0  0  0  0  0  0  0  0  0  0  0  0
   44.1550   85.4820   58.7100 H   0  0  0  0  0  0  0  0  0  0  0  0
   41.2720   85.1830   57.5890 H   0  0  0  0  0  0  0  0  0  0  0  0
   42.6440   84.6410   60.6860 O   0  0  0  0  0  0  0  0  0  0  0  0
   40.0210   83.5130   62.9100 C   0  0  0  0  0  0  0  0  0  0  0  0
   40.6120   83.7060   64.1710 C   0  0  0  0  0  0  0  0  0  0  0  0
   41.9270   84.2310   64.2060 C   0  0  0  0  0  0  0  0  0  0  0  0
   42.4930   84.4990   63.0190 N   0  0  0  0  0  0  0  0  0  0  0  0
   41.9210   84.3110   61.8150 C   0  0  0  0  0  0  0  0  0  0  0  0
   40.6910   83.8210   61.7390 N   0  0  0  0  0  0  0  0  0  0  0  0
   39.0240   83.1150   62.8470 H   0  0  0  0  0  0  0  0  0  0  0  0
   40.0910   83.4650   65.0650 H   0  0  0  0  0  0  0  0  0  0  0  0
   42.4310   84.4000   65.1480 H   0  0  0  0  0  0  0  0  0  0  0  0
   42.4900   83.5280   58.1270 O   0  0  0  0  0  0  0  0  0  0  0  0
   41.6640   82.5840   57.5500 C   0  0  0  0  0  0  0  0  0  0  0  0
   40.8910   82.0050   58.5600 C   0  0  0  0  0  0  0  0  0  0  0  0
   40.8860   82.2080   59.6230 H   0  0  0  0  0  0  0  0  0  0  0  0
   39.9520   81.0050   58.2790 C   0  0  0  0  0  3  0  0  0  0  0  0
   39.7770   80.5730   56.9700 C   0  0  0  0  0  0  0  0  0  0  0  0
   39.0570   79.7960   56.7030 H   0  0  0  0  0  0  0  0  0  0  0  0
   40.5530   81.1600   55.9920 C   0  0  0  0  0  0  0  0  0  0  0  0
   40.4570   80.8630   54.9700 H   0  0  0  0  0  0  0  0  0  0  0  0
   41.4800   82.1440   56.2560 C   0  0  0  0  0  3  0  0  0  0  0  0
  1  4  1  1  0  0  0
  1  8  1  0  0  0  0
  2  6  1  0  0  0  0
  2  1  1  0  0  0  0
  3  7  1  6  0  0  0
  3  2  1  0  0  0  0
  3  1  1  0  0  0  0
  5  2  1  0  0  0  0
  8 13  1  0  0  0  0
  9 10  1  0  0  0  0
 10 11  2  0  0  0  0
 10 16  1  0  0  0  0
 11 17  1  0  0  0  0
 12 11  1  0  0  0  0
 13 12  2  0  0  0  0
 14 13  1  0  0  0  0
 14  9  2  0  0  0  0
 15  9  1  0  0  0  0
 18  3  1  0  0  0  0
 19 18  1  0  0  0  0
 19 20  1  0  0  0  0
 20 21  1  0  0  0  0
 22 20  2  0  0  0  0
 23 22  1  0  0  0  0
 24 23  1  0  0  0  0
 25 27  1  0  0  0  0
 25 23  2  0  0  0  0
 26 25  1  0  0  0  0
 27 19  2  0  0  0  0
M  END
>  <minimizedAffinity>
-4.30736971

>  <minimizedRMSD>
2.50136781

$$$$
