
 OpenBabel03212520413D

 27 29  0  0  1  0  0  0  0  0999 V2000
   42.3140   85.4970   59.7580 C   0  0  1  0  0  0  0  0  0  0  0  0
   43.5480   86.3850   59.6460 C   0  0  0  0  0  0  0  0  0  0  0  0
   43.0040   85.6070   58.4470 C   0  0  1  0  0  0  0  0  0  0  0  0
   41.4070   86.0950   60.0100 H   0  0  0  0  0  0  0  0  0  0  0  0
   43.4170   87.4870   59.5710 H   0  0  0  0  0  0  0  0  0  0  0  0
   44.5250   86.0030   60.0050 H   0  0  0  0  0  0  0  0  0  0  0  0
   42.4820   86.2070   57.6720 H   0  0  0  0  0  0  0  0  0  0  0  0
   42.5580   84.3550   60.5580 O   0  0  0  0  0  0  0  0  0  0  0  0
   40.0590   83.5550   63.0500 C   0  0  0  0  0  0  0  0  0  0  0  0
   40.7450   83.8370   64.2450 C   0  0  0  0  0  0  0  0  0  0  0  0
   42.0780   84.3040   64.1410 C   0  0  0  0  0  0  0  0  0  0  0  0
   42.5680   84.4350   62.8980 N   0  0  0  0  0  0  0  0  0  0  0  0
   41.9050   84.1630   61.7580 C   0  0  0  0  0  0  0  0  0  0  0  0
   40.6550   83.7240   61.8120 N   0  0  0  0  0  0  0  0  0  0  0  0
   39.0460   83.1980   63.0920 H   0  0  0  0  0  0  0  0  0  0  0  0
   40.2800   83.7030   65.1910 H   0  0  0  0  0  0  0  0  0  0  0  0
   42.6540   84.5360   65.0260 H   0  0  0  0  0  0  0  0  0  0  0  0
   43.6970   84.4980   58.0100 O   0  0  0  0  0  0  0  0  0  0  0  0
   43.4500   83.9490   56.7670 C   0  0  0  0  0  0  0  0  0  0  0  0
   44.4430   82.9990   56.5070 C   0  0  0  0  0  0  0  0  0  0  0  0
   45.2820   82.6960   57.1200 H   0  0  0  0  0  0  0  0  0  0  0  0
   44.4590   82.2680   55.3130 C   0  0  0  0  0  3  0  0  0  0  0  0
   43.4720   82.4850   54.3590 C   0  0  0  0  0  0  0  0  0  0  0  0
   43.4430   81.9400   53.4130 H   0  0  0  0  0  0  0  0  0  0  0  0
   42.5050   83.4280   54.6400 C   0  0  0  0  0  0  0  0  0  0  0  0
   41.7240   83.6320   53.9400 H   0  0  0  0  0  0  0  0  0  0  0  0
   42.4780   84.1520   55.8120 C   0  0  0  0  0  3  0  0  0  0  0  0
  1  4  1  1  0  0  0
  1  8  1  0  0  0  0
  2  1  1  0  0  0  0
  2  6  1  0  0  0  0
  3  7  1  6  0  0  0
  3  2  1  0  0  0  0
  3  1  1  0  0  0  0
  5  2  1  0  0  0  0
  8 13  1  0  0  0  0
  9 15  1  0  0  0  0
  9 10  1  0  0  0  0
 10 16  1  0  0  0  0
 11 10  2  0  0  0  0
 11 17  1  0  0  0  0
 12 11  1  0  0  0  0
 13 14  1  0  0  0  0
 13 12  2  0  0  0  0
 14  9  2  0  0  0  0
 18  3  1  0  0  0  0
 19 18  1  0  0  0  0
 20 19  1  0  0  0  0
 20 21  1  0  0  0  0
 22 20  2  0  0  0  0
 23 25  2  0  0  0  0
 23 22  1  0  0  0  0
 24 23  1  0  0  0  0
 25 27  1  0  0  0  0
 26 25  1  0  0  0  0
 27 19  2  0  0  0  0
M  END
>  <minimizedAffinity>
-3.62569547

>  <minimizedRMSD>
0.765721977

$$$$
