
 OpenBabel03212520413D

 27 29  0  0  1  0  0  0  0  0999 V2000
   42.7780   85.6320   60.0560 C   0  0  1  0  0  0  0  0  0  0  0  0
   44.0020   86.5040   60.3230 C   0  0  0  0  0  0  0  0  0  0  0  0
   43.7540   85.8580   58.9590 C   0  0  1  0  0  0  0  0  0  0  0  0
   41.8360   86.2210   60.1500 H   0  0  0  0  0  0  0  0  0  0  0  0
   43.8870   87.6100   60.3310 H   0  0  0  0  0  0  0  0  0  0  0  0
   44.8700   86.0690   60.8580 H   0  0  0  0  0  0  0  0  0  0  0  0
   43.4240   86.5410   58.1480 H   0  0  0  0  0  0  0  0  0  0  0  0
   42.8340   84.4130   60.7720 O   0  0  0  0  0  0  0  0  0  0  0  0
   40.0530   83.5350   62.9150 C   0  0  0  0  0  0  0  0  0  0  0  0
   40.5810   83.7990   64.1920 C   0  0  0  0  0  0  0  0  0  0  0  0
   41.9100   84.2820   64.2660 C   0  0  0  0  0  0  0  0  0  0  0  0
   42.5500   84.4440   63.0970 N   0  0  0  0  0  0  0  0  0  0  0  0
   42.0390   84.1900   61.8780 C   0  0  0  0  0  0  0  0  0  0  0  0
   40.7970   83.7360   61.7660 N   0  0  0  0  0  0  0  0  0  0  0  0
   39.0470   83.1670   62.8230 H   0  0  0  0  0  0  0  0  0  0  0  0
   40.0020   83.6410   65.0690 H   0  0  0  0  0  0  0  0  0  0  0  0
   42.3680   84.5020   65.2200 H   0  0  0  0  0  0  0  0  0  0  0  0
   44.5340   84.7840   58.5850 O   0  0  0  0  0  0  0  0  0  0  0  0
   44.2060   84.0140   57.4870 C   0  0  0  0  0  0  0  0  0  0  0  0
   44.0390   82.6930   57.9160 C   0  0  0  0  0  0  0  0  0  0  0  0
   44.1320   82.2780   58.9110 H   0  0  0  0  0  0  0  0  0  0  0  0
   43.7000   81.6720   57.0200 C   0  0  0  0  0  3  0  0  0  0  0  0
   43.5250   81.9670   55.6730 C   0  0  0  0  0  0  0  0  0  0  0  0
   43.2610   81.2040   54.9390 H   0  0  0  0  0  0  0  0  0  0  0  0
   43.6970   83.2770   55.2770 C   0  0  0  0  0  0  0  0  0  0  0  0
   43.5730   83.5560   54.2530 H   0  0  0  0  0  0  0  0  0  0  0  0
   44.0300   84.2910   56.1480 C   0  0  0  0  0  3  0  0  0  0  0  0
  1  4  1  6  0  0  0
  1  2  1  0  0  0  0
  1  8  1  0  0  0  0
  2  5  1  0  0  0  0
  2  6  1  0  0  0  0
  3  7  1  6  0  0  0
  3  1  1  0  0  0  0
  3  2  1  0  0  0  0
  8 13  1  0  0  0  0
  9 10  1  0  0  0  0
 10 11  2  0  0  0  0
 10 16  1  0  0  0  0
 11 17  1  0  0  0  0
 12 11  1  0  0  0  0
 13 12  2  0  0  0  0
 14 13  1  0  0  0  0
 14  9  2  0  0  0  0
 15  9  1  0  0  0  0
 18  3  1  0  0  0  0
 19 20  1  0  0  0  0
 19 18  1  0  0  0  0
 20 21  1  0  0  0  0
 22 20  2  0  0  0  0
 23 22  1  0  0  0  0
 24 23  1  0  0  0  0
 25 23  2  0  0  0  0
 25 27  1  0  0  0  0
 26 25  1  0  0  0  0
 27 19  2  0  0  0  0
M  END
>  <minimizedAffinity>
-3.44786572

>  <minimizedRMSD>
0.701090455

$$$$
