
 OpenBabel03212520413D

 27 29  0  0  1  0  0  0  0  0999 V2000
   41.9170   85.4000   59.5130 C   0  0  1  0  0  0  0  0  0  0  0  0
   42.9550   85.9700   58.5510 C   0  0  0  0  0  0  0  0  0  0  0  0
   41.9710   84.8800   58.1220 C   0  0  1  0  0  0  0  0  0  0  0  0
   41.1890   86.1820   59.8320 H   0  0  0  0  0  0  0  0  0  0  0  0
   42.7700   86.9610   58.0810 H   0  0  0  0  0  0  0  0  0  0  0  0
   44.0020   85.6120   58.6090 H   0  0  0  0  0  0  0  0  0  0  0  0
   41.1480   85.2020   57.4500 H   0  0  0  0  0  0  0  0  0  0  0  0
   42.5180   84.6390   60.5440 O   0  0  0  0  0  0  0  0  0  0  0  0
   39.9600   83.5220   62.8470 C   0  0  0  0  0  0  0  0  0  0  0  0
   40.5890   83.7180   64.0910 C   0  0  0  0  0  0  0  0  0  0  0  0
   41.9050   84.2400   64.0850 C   0  0  0  0  0  0  0  0  0  0  0  0
   42.4350   84.5040   62.8810 N   0  0  0  0  0  0  0  0  0  0  0  0
   41.8280   84.3140   61.6950 C   0  0  0  0  0  0  0  0  0  0  0  0
   40.5950   83.8260   61.6560 N   0  0  0  0  0  0  0  0  0  0  0  0
   38.9610   83.1260   62.8160 H   0  0  0  0  0  0  0  0  0  0  0  0
   40.0930   83.4810   65.0010 H   0  0  0  0  0  0  0  0  0  0  0  0
   42.4370   84.4110   65.0110 H   0  0  0  0  0  0  0  0  0  0  0  0
   42.4420   83.5950   57.9530 O   0  0  0  0  0  0  0  0  0  0  0  0
   41.6440   82.6110   57.4050 C   0  0  0  0  0  0  0  0  0  0  0  0
   40.8880   82.0420   58.4340 C   0  0  0  0  0  0  0  0  0  0  0  0
   40.8770   82.2770   59.4900 H   0  0  0  0  0  0  0  0  0  0  0  0
   39.9780   81.0070   58.1850 C   0  0  0  0  0  3  0  0  0  0  0  0
   39.8160   80.5280   56.8900 C   0  0  0  0  0  0  0  0  0  0  0  0
   39.1190   79.7230   56.6490 H   0  0  0  0  0  0  0  0  0  0  0  0
   40.5740   81.1060   55.8940 C   0  0  0  0  0  0  0  0  0  0  0  0
   40.4880   80.7760   54.8820 H   0  0  0  0  0  0  0  0  0  0  0  0
   41.4730   82.1250   56.1260 C   0  0  0  0  0  3  0  0  0  0  0  0
  1  4  1  1  0  0  0
  1  8  1  0  0  0  0
  2  6  1  0  0  0  0
  2  1  1  0  0  0  0
  3  7  1  6  0  0  0
  3  2  1  0  0  0  0
  3  1  1  0  0  0  0
  5  2  1  0  0  0  0
  8 13  1  0  0  0  0
  9 10  1  0  0  0  0
 10 16  1  0  0  0  0
 11 10  2  0  0  0  0
 11 17  1  0  0  0  0
 12 11  1  0  0  0  0
 13 12  2  0  0  0  0
 14 13  1  0  0  0  0
 14  9  2  0  0  0  0
 15  9  1  0  0  0  0
 18  3  1  0  0  0  0
 19 18  1  0  0  0  0
 19 20  1  0  0  0  0
 20 21  1  0  0  0  0
 22 20  2  0  0  0  0
 23 22  1  0  0  0  0
 24 23  1  0  0  0  0
 25 27  1  0  0  0  0
 25 23  2  0  0  0  0
 26 25  1  0  0  0  0
 27 19  2  0  0  0  0
M  END
>  <minimizedAffinity>
-4.30973768

>  <minimizedRMSD>
2.48273396

$$$$
