
 OpenBabel03212520413D

 27 29  0  0  1  0  0  0  0  0999 V2000
   41.7210   71.0540   60.5000 C   0  0  1  0  0  0  0  0  0  0  0  0
   43.2230   70.9910   60.7580 C   0  0  0  0  0  0  0  0  0  0  0  0
   42.3170   69.7760   60.9690 C   0  0  1  0  0  0  0  0  0  0  0  0
   41.5050   71.2550   59.4250 H   0  0  0  0  0  0  0  0  0  0  0  0
   43.9180   70.8970   59.8950 H   0  0  0  0  0  0  0  0  0  0  0  0
   43.6280   71.4000   61.7060 H   0  0  0  0  0  0  0  0  0  0  0  0
   42.3980   68.9700   60.2080 H   0  0  0  0  0  0  0  0  0  0  0  0
   41.0600   71.8780   61.4420 O   0  0  0  0  0  0  0  0  0  0  0  0
   40.6250   75.2200   60.1240 C   0  0  0  0  0  0  0  0  0  0  0  0
   39.2740   75.4730   60.4240 C   0  0  0  0  0  0  0  0  0  0  0  0
   38.5480   74.4540   61.0870 C   0  0  0  0  0  0  0  0  0  0  0  0
   39.2230   73.3290   61.3700 N   0  0  0  0  0  0  0  0  0  0  0  0
   40.5160   73.0930   61.0790 C   0  0  0  0  0  0  0  0  0  0  0  0
   41.2320   74.0220   60.4590 N   0  0  0  0  0  0  0  0  0  0  0  0
   41.2050   75.9720   59.6200 H   0  0  0  0  0  0  0  0  0  0  0  0
   38.8160   76.3960   60.1630 H   0  0  0  0  0  0  0  0  0  0  0  0
   37.5060   74.5930   61.3430 H   0  0  0  0  0  0  0  0  0  0  0  0
   42.0250   69.3850   62.2580 O   0  0  0  0  0  0  0  0  0  0  0  0
   41.3080   68.2320   62.5070 C   0  0  0  0  0  0  0  0  0  0  0  0
   41.6320   67.2970   61.5210 C   0  0  0  0  0  0  0  0  0  0  0  0
   42.3120   67.3880   60.6840 H   0  0  0  0  0  0  0  0  0  0  0  0
   41.0580   66.0200   61.5080 C   0  0  0  0  0  3  0  0  0  0  0  0
   40.1440   65.6650   62.4950 C   0  0  0  0  0  0  0  0  0  0  0  0
   39.6710   64.6820   62.5260 H   0  0  0  0  0  0  0  0  0  0  0  0
   39.8420   66.6070   63.4560 C   0  0  0  0  0  0  0  0  0  0  0  0
   39.1460   66.3850   64.2350 H   0  0  0  0  0  0  0  0  0  0  0  0
   40.4010   67.8670   63.4790 C   0  0  0  0  0  3  0  0  0  0  0  0
  1  4  1  6  0  0  0
  1  2  1  0  0  0  0
  1  3  1  0  0  0  0
  1  8  1  0  0  0  0
  2  3  1  0  0  0  0
  2  6  1  0  0  0  0
  3  7  1  6  0  0  0
  3 18  1  0  0  0  0
  5  2  1  0  0  0  0
  9 10  2  0  0  0  0
  9 14  1  0  0  0  0
 10 11  1  0  0  0  0
 11 17  1  0  0  0  0
 11 12  2  0  0  0  0
 13 12  1  0  0  0  0
 13  8  1  0  0  0  0
 14 13  2  0  0  0  0
 15  9  1  0  0  0  0
 16 10  1  0  0  0  0
 18 19  1  0  0  0  0
 19 27  1  0  0  0  0
 20 19  2  0  0  0  0
 21 20  1  0  0  0  0
 22 20  1  0  0  0  0
 22 23  2  0  0  0  0
 23 24  1  0  0  0  0
 23 25  1  0  0  0  0
 25 27  2  0  0  0  0
 25 26  1  0  0  0  0
M  END
>  <minimizedAffinity>
-4.86204386

$$$$

 OpenBabel03212520413D

 27 29  0  0  1  0  0  0  0  0999 V2000
   39.9620   76.9030   58.7540 C   0  0  1  0  0  0  0  0  0  0  0  0
   40.1300   77.2310   60.2340 C   0  0  0  0  0  0  0  0  0  0  0  0
   40.8580   76.0550   59.5810 C   0  0  1  0  0  0  0  0  0  0  0  0
   40.3450   77.7290   58.1100 H   0  0  0  0  0  0  0  0  0  0  0  0
   40.7950   78.0720   60.5290 H   0  0  0  0  0  0  0  0  0  0  0  0
   39.3470   76.9130   60.9510 H   0  0  0  0  0  0  0  0  0  0  0  0
   41.9480   76.1890   59.4110 H   0  0  0  0  0  0  0  0  0  0  0  0
   38.6600   76.4300   58.4640 O   0  0  0  0  0  0  0  0  0  0  0  0
   36.7720   75.6520   55.4760 C   0  0  0  0  0  0  0  0  0  0  0  0
   37.7760   75.1560   54.6240 C   0  0  0  0  0  0  0  0  0  0  0  0
   39.0980   75.1080   55.1270 C   0  0  0  0  0  0  0  0  0  0  0  0
   39.2740   75.5450   56.3840 N   0  0  0  0  0  0  0  0  0  0  0  0
   38.3080   76.0190   57.1940 C   0  0  0  0  0  0  0  0  0  0  0  0
   37.0560   76.0810   56.7610 N   0  0  0  0  0  0  0  0  0  0  0  0
   35.7570   75.7030   55.1250 H   0  0  0  0  0  0  0  0  0  0  0  0
   37.5480   74.8290   53.6390 H   0  0  0  0  0  0  0  0  0  0  0  0
   39.9100   74.7360   54.5170 H   0  0  0  0  0  0  0  0  0  0  0  0
   40.4270   74.7750   59.8600 O   0  0  0  0  0  0  0  0  0  0  0  0
   41.2530   73.8680   60.4940 C   0  0  0  0  0  0  0  0  0  0  0  0
   40.5200   73.2470   61.5080 C   0  0  0  0  0  0  0  0  0  0  0  0
   39.4890   73.3980   61.8020 H   0  0  0  0  0  0  0  0  0  0  0  0
   41.0930   72.2710   62.3310 C   0  0  0  0  0  3  0  0  0  0  0  0
   42.4220   71.9030   62.1420 C   0  0  0  0  0  0  0  0  0  0  0  0
   42.9110   71.1480   62.7600 H   0  0  0  0  0  0  0  0  0  0  0  0
   43.1230   72.5310   61.1350 C   0  0  0  0  0  0  0  0  0  0  0  0
   44.1450   72.2870   60.9490 H   0  0  0  0  0  0  0  0  0  0  0  0
   42.5680   73.4950   60.3180 C   0  0  0  0  0  3  0  0  0  0  0  0
  1  4  1  6  0  0  0
  1  3  1  0  0  0  0
  1  2  1  0  0  0  0
  2  5  1  0  0  0  0
  2  6  1  0  0  0  0
  3  7  1  6  0  0  0
  3 18  1  0  0  0  0
  3  2  1  0  0  0  0
  8  1  1  0  0  0  0
  9 14  1  0  0  0  0
 10 11  1  0  0  0  0
 10  9  2  0  0  0  0
 11 12  2  0  0  0  0
 12 13  1  0  0  0  0
 13  8  1  0  0  0  0
 14 13  2  0  0  0  0
 15  9  1  0  0  0  0
 16 10  1  0  0  0  0
 17 11  1  0  0  0  0
 18 19  1  0  0  0  0
 19 20  1  0  0  0  0
 20 21  1  0  0  0  0
 20 22  2  0  0  0  0
 23 22  1  0  0  0  0
 23 24  1  0  0  0  0
 25 23  2  0  0  0  0
 26 25  1  0  0  0  0
 27 19  2  0  0  0  0
 27 25  1  0  0  0  0
M  END
>  <minimizedAffinity>
-4.77467489

$$$$

 OpenBabel03212520413D

 27 29  0  0  1  0  0  0  0  0999 V2000
   41.7010   71.3150   62.8810 C   0  0  1  0  0  0  0  0  0  0  0  0
   42.4790   72.5780   62.5270 C   0  0  0  0  0  0  0  0  0  0  0  0
   41.0640   72.3290   62.0020 C   0  0  1  0  0  0  0  0  0  0  0  0
   41.4980   71.2600   63.9770 H   0  0  0  0  0  0  0  0  0  0  0  0
   42.5510   73.3970   63.2740 H   0  0  0  0  0  0  0  0  0  0  0  0
   43.2510   72.5330   61.7320 H   0  0  0  0  0  0  0  0  0  0  0  0
   40.2580   72.9370   62.4660 H   0  0  0  0  0  0  0  0  0  0  0  0
   42.2670   70.1620   62.2860 O   0  0  0  0  0  0  0  0  0  0  0  0
   40.3940   67.2950   63.4550 C   0  0  0  0  0  0  0  0  0  0  0  0
   40.4490   66.4420   62.3380 C   0  0  0  0  0  0  0  0  0  0  0  0
   41.1480   66.9020   61.1950 C   0  0  0  0  0  0  0  0  0  0  0  0
   41.6990   68.1220   61.2860 N   0  0  0  0  0  0  0  0  0  0  0  0
   41.6430   68.9330   62.3590 C   0  0  0  0  0  0  0  0  0  0  0  0
   40.9980   68.5400   63.4490 N   0  0  0  0  0  0  0  0  0  0  0  0
   39.8710   66.9770   64.3390 H   0  0  0  0  0  0  0  0  0  0  0  0
   39.9820   65.4870   62.3510 H   0  0  0  0  0  0  0  0  0  0  0  0
   41.2230   66.2890   60.3080 H   0  0  0  0  0  0  0  0  0  0  0  0
   40.9010   71.9920   60.6750 O   0  0  0  0  0  0  0  0  0  0  0  0
   39.9700   72.6380   59.8860 C   0  0  0  0  0  0  0  0  0  0  0  0
   39.3220   73.5950   60.6730 C   0  0  0  0  0  0  0  0  0  0  0  0
   39.4700   73.8410   61.7160 H   0  0  0  0  0  0  0  0  0  0  0  0
   38.3180   74.4150   60.1450 C   0  0  0  0  0  3  0  0  0  0  0  0
   37.9500   74.2830   58.8100 C   0  0  0  0  0  0  0  0  0  0  0  0
   37.1720   74.8990   58.3560 H   0  0  0  0  0  0  0  0  0  0  0  0
   38.6040   73.3320   58.0570 C   0  0  0  0  0  0  0  0  0  0  0  0
   38.3590   73.1890   57.0270 H   0  0  0  0  0  0  0  0  0  0  0  0
   39.5950   72.5180   58.5650 C   0  0  0  0  0  3  0  0  0  0  0  0
  1  4  1  1  0  0  0
  2  1  1  0  0  0  0
  2  5  1  0  0  0  0
  3  7  1  1  0  0  0
  3  2  1  0  0  0  0
  3  1  1  0  0  0  0
  6  2  1  0  0  0  0
  8 13  1  0  0  0  0
  8  1  1  0  0  0  0
  9 15  1  0  0  0  0
 10 16  1  0  0  0  0
 10  9  2  0  0  0  0
 11 12  2  0  0  0  0
 11 10  1  0  0  0  0
 12 13  1  0  0  0  0
 13 14  2  0  0  0  0
 14  9  1  0  0  0  0
 17 11  1  0  0  0  0
 18  3  1  0  0  0  0
 19 20  1  0  0  0  0
 19 18  1  0  0  0  0
 20 21  1  0  0  0  0
 22 20  2  0  0  0  0
 23 22  1  0  0  0  0
 24 23  1  0  0  0  0
 25 27  1  0  0  0  0
 25 23  2  0  0  0  0
 26 25  1  0  0  0  0
 27 19  2  0  0  0  0
M  END
>  <minimizedAffinity>
-4.64371681

$$$$

 OpenBabel03212520413D

 27 29  0  0  1  0  0  0  0  0999 V2000
   42.7360   70.5230   61.2750 C   0  0  1  0  0  0  0  0  0  0  0  0
   43.4710   71.2160   60.1320 C   0  0  0  0  0  0  0  0  0  0  0  0
   42.3580   71.9140   60.9160 C   0  0  1  0  0  0  0  0  0  0  0  0
   43.4290   70.2890   62.1180 H   0  0  0  0  0  0  0  0  0  0  0  0
   44.4860   71.6310   60.3140 H   0  0  0  0  0  0  0  0  0  0  0  0
   43.1860   70.9840   59.0860 H   0  0  0  0  0  0  0  0  0  0  0  0
   42.6830   72.7050   61.6250 H   0  0  0  0  0  0  0  0  0  0  0  0
   41.9250   69.4600   60.8130 O   0  0  0  0  0  0  0  0  0  0  0  0
   42.0850   66.9650   63.4290 C   0  0  0  0  0  0  0  0  0  0  0  0
   41.4910   65.8540   62.8020 C   0  0  0  0  0  0  0  0  0  0  0  0
   41.0470   66.0140   61.4670 C   0  0  0  0  0  0  0  0  0  0  0  0
   41.2360   67.2240   60.9180 N   0  0  0  0  0  0  0  0  0  0  0  0
   41.8060   68.2830   61.5230 C   0  0  0  0  0  0  0  0  0  0  0  0
   42.2350   68.1740   62.7740 N   0  0  0  0  0  0  0  0  0  0  0  0
   42.4330   66.8780   64.4420 H   0  0  0  0  0  0  0  0  0  0  0  0
   41.3800   64.9290   63.3130 H   0  0  0  0  0  0  0  0  0  0  0  0
   40.5830   65.1940   60.9360 H   0  0  0  0  0  0  0  0  0  0  0  0
   41.1340   72.0920   60.3080 O   0  0  0  0  0  0  0  0  0  0  0  0
   40.3820   73.2270   60.5400 C   0  0  0  0  0  0  0  0  0  0  0  0
   41.0660   74.3200   60.0010 C   0  0  0  0  0  0  0  0  0  0  0  0
   42.0160   74.3480   59.4820 H   0  0  0  0  0  0  0  0  0  0  0  0
   40.5480   75.6180   60.0810 C   0  0  0  0  0  3  0  0  0  0  0  0
   39.3250   75.8340   60.7080 C   0  0  0  0  0  0  0  0  0  0  0  0
   38.8830   76.8280   60.7950 H   0  0  0  0  0  0  0  0  0  0  0  0
   38.6710   74.7390   61.2320 C   0  0  0  0  0  0  0  0  0  0  0  0
   37.7300   74.8510   61.7240 H   0  0  0  0  0  0  0  0  0  0  0  0
   39.1720   73.4560   61.1590 C   0  0  0  0  0  3  0  0  0  0  0  0
  1  4  1  1  0  0  0
  2  5  1  0  0  0  0
  2  3  1  0  0  0  0
  2  1  1  0  0  0  0
  3  1  1  0  0  0  0
  3  7  1  1  0  0  0
  6  2  1  0  0  0  0
  8  1  1  0  0  0  0
  8 13  1  0  0  0  0
  9 15  1  0  0  0  0
 10 16  1  0  0  0  0
 10  9  1  0  0  0  0
 11 10  2  0  0  0  0
 12 11  1  0  0  0  0
 12 13  2  0  0  0  0
 13 14  1  0  0  0  0
 14  9  2  0  0  0  0
 17 11  1  0  0  0  0
 18 19  1  0  0  0  0
 18  3  1  0  0  0  0
 19 27  1  0  0  0  0
 20 22  1  0  0  0  0
 20 19  2  0  0  0  0
 21 20  1  0  0  0  0
 22 23  2  0  0  0  0
 23 24  1  0  0  0  0
 23 25  1  0  0  0  0
 25 26  1  0  0  0  0
 27 25  2  0  0  0  0
M  END
>  <minimizedAffinity>
-4.6212368

$$$$

 OpenBabel03212520413D

 27 29  0  0  1  0  0  0  0  0999 V2000
   42.1730   72.1220   61.2550 C   0  0  1  0  0  0  0  0  0  0  0  0
   41.6380   71.8930   62.6640 C   0  0  0  0  0  0  0  0  0  0  0  0
   40.7880   72.5520   61.5760 C   0  0  1  0  0  0  0  0  0  0  0  0
   42.3970   71.1540   60.7460 H   0  0  0  0  0  0  0  0  0  0  0  0
   41.2960   70.8750   62.9550 H   0  0  0  0  0  0  0  0  0  0  0  0
   41.9260   72.5930   63.4740 H   0  0  0  0  0  0  0  0  0  0  0  0
   39.9740   71.9290   61.1490 H   0  0  0  0  0  0  0  0  0  0  0  0
   43.1980   73.0980   61.2330 O   0  0  0  0  0  0  0  0  0  0  0  0
   45.2960   73.3790   58.2980 C   0  0  0  0  0  0  0  0  0  0  0  0
   44.7630   74.5200   57.6730 C   0  0  0  0  0  0  0  0  0  0  0  0
   43.6720   75.1650   58.3040 C   0  0  0  0  0  0  0  0  0  0  0  0
   43.2430   74.6200   59.4540 N   0  0  0  0  0  0  0  0  0  0  0  0
   43.7580   73.5270   60.0470 C   0  0  0  0  0  0  0  0  0  0  0  0
   44.7810   72.8940   59.4870 N   0  0  0  0  0  0  0  0  0  0  0  0
   46.1250   72.8650   57.8450 H   0  0  0  0  0  0  0  0  0  0  0  0
   45.1650   74.8850   56.7590 H   0  0  0  0  0  0  0  0  0  0  0  0
   43.2210   76.0460   57.8690 H   0  0  0  0  0  0  0  0  0  0  0  0
   40.5570   73.9090   61.6510 O   0  0  0  0  0  0  0  0  0  0  0  0
   39.9160   74.5790   60.6280 C   0  0  0  0  0  0  0  0  0  0  0  0
   39.0990   73.6670   59.9560 C   0  0  0  0  0  0  0  0  0  0  0  0
   38.9450   72.6120   60.1440 H   0  0  0  0  0  0  0  0  0  0  0  0
   38.3170   74.0550   58.8610 C   0  0  0  0  0  3  0  0  0  0  0  0
   38.3460   75.3770   58.4270 C   0  0  0  0  0  0  0  0  0  0  0  0
   37.7540   75.7250   57.5790 H   0  0  0  0  0  0  0  0  0  0  0  0
   39.1600   76.2560   59.1090 C   0  0  0  0  0  0  0  0  0  0  0  0
   39.2200   77.2810   58.8150 H   0  0  0  0  0  0  0  0  0  0  0  0
   39.9350   75.8850   60.1870 C   0  0  0  0  0  3  0  0  0  0  0  0
  1  4  1  6  0  0  0
  1  3  1  0  0  0  0
  1  2  1  0  0  0  0
  2  5  1  0  0  0  0
  2  6  1  0  0  0  0
  3  7  1  6  0  0  0
  3 18  1  0  0  0  0
  3  2  1  0  0  0  0
  8  1  1  0  0  0  0
  9 14  1  0  0  0  0
 10  9  2  0  0  0  0
 10 11  1  0  0  0  0
 11 12  2  0  0  0  0
 12 13  1  0  0  0  0
 13  8  1  0  0  0  0
 14 13  2  0  0  0  0
 15  9  1  0  0  0  0
 16 10  1  0  0  0  0
 17 11  1  0  0  0  0
 19 18  1  0  0  0  0
 20 21  1  0  0  0  0
 20 19  2  0  0  0  0
 22 20  1  0  0  0  0
 23 22  2  0  0  0  0
 23 25  1  0  0  0  0
 24 23  1  0  0  0  0
 25 27  2  0  0  0  0
 26 25  1  0  0  0  0
 27 19  1  0  0  0  0
M  END
>  <minimizedAffinity>
-4.56642485

$$$$

 OpenBabel03212520413D

 27 29  0  0  1  0  0  0  0  0999 V2000
   38.9620   73.4100   60.3230 C   0  0  1  0  0  0  0  0  0  0  0  0
   38.3780   74.5350   61.1710 C   0  0  0  0  0  0  0  0  0  0  0  0
   38.2080   74.5000   59.6520 C   0  0  1  0  0  0  0  0  0  0  0  0
   38.4970   72.4290   60.5780 H   0  0  0  0  0  0  0  0  0  0  0  0
   37.4390   74.3530   61.7390 H   0  0  0  0  0  0  0  0  0  0  0  0
   39.0410   75.3540   61.5160 H   0  0  0  0  0  0  0  0  0  0  0  0
   37.1960   74.2330   59.2800 H   0  0  0  0  0  0  0  0  0  0  0  0
   40.3760   73.4500   60.2970 O   0  0  0  0  0  0  0  0  0  0  0  0
   41.9570   71.4240   62.8450 C   0  0  0  0  0  0  0  0  0  0  0  0
   42.7080   70.5220   62.0690 C   0  0  0  0  0  0  0  0  0  0  0  0
   42.6380   70.6520   60.6610 C   0  0  0  0  0  0  0  0  0  0  0  0
   41.8520   71.6340   60.1920 N   0  0  0  0  0  0  0  0  0  0  0  0
   41.1360   72.4940   60.9410 C   0  0  0  0  0  0  0  0  0  0  0  0
   41.1740   72.4060   62.2640 N   0  0  0  0  0  0  0  0  0  0  0  0
   41.9880   71.3530   63.9180 H   0  0  0  0  0  0  0  0  0  0  0  0
   43.3070   69.7710   62.5240 H   0  0  0  0  0  0  0  0  0  0  0  0
   43.1940   69.9870   60.0150 H   0  0  0  0  0  0  0  0  0  0  0  0
   38.9360   75.3850   58.8850 O   0  0  0  0  0  0  0  0  0  0  0  0
   38.3670   76.0230   57.8010 C   0  0  0  0  0  0  0  0  0  0  0  0
   37.4660   75.1410   57.2010 C   0  0  0  0  0  0  0  0  0  0  0  0
   37.2080   74.1270   57.4770 H   0  0  0  0  0  0  0  0  0  0  0  0
   36.7280   75.5080   56.0680 C   0  0  0  0  0  3  0  0  0  0  0  0
   36.8900   76.7780   55.5230 C   0  0  0  0  0  0  0  0  0  0  0  0
   36.3380   77.1080   54.6410 H   0  0  0  0  0  0  0  0  0  0  0  0
   37.7860   77.6290   56.1350 C   0  0  0  0  0  0  0  0  0  0  0  0
   37.9480   78.6130   55.7550 H   0  0  0  0  0  0  0  0  0  0  0  0
   38.5170   77.2780   57.2500 C   0  0  0  0  0  3  0  0  0  0  0  0
  1  4  1  1  0  0  0
  1  2  1  0  0  0  0
  2  6  1  0  0  0  0
  2  5  1  0  0  0  0
  3  7  1  6  0  0  0
  3  1  1  0  0  0  0
  3  2  1  0  0  0  0
  8  1  1  0  0  0  0
  8 13  1  0  0  0  0
  9 15  1  0  0  0  0
 10 16  1  0  0  0  0
 10  9  2  0  0  0  0
 11 10  1  0  0  0  0
 12 11  2  0  0  0  0
 12 13  1  0  0  0  0
 13 14  2  0  0  0  0
 14  9  1  0  0  0  0
 17 11  1  0  0  0  0
 18  3  1  0  0  0  0
 19 18  1  0  0  0  0
 20 21  1  0  0  0  0
 20 19  2  0  0  0  0
 22 20  1  0  0  0  0
 23 22  2  0  0  0  0
 23 25  1  0  0  0  0
 24 23  1  0  0  0  0
 25 27  2  0  0  0  0
 26 25  1  0  0  0  0
 27 19  1  0  0  0  0
M  END
>  <minimizedAffinity>
-4.53796387

$$$$

 OpenBabel03212520413D

 27 29  0  0  1  0  0  0  0  0999 V2000
   41.6490   70.9500   62.7410 C   0  0  1  0  0  0  0  0  0  0  0  0
   42.5960   72.1160   62.4780 C   0  0  0  0  0  0  0  0  0  0  0  0
   41.0780   72.2660   62.3570 C   0  0  1  0  0  0  0  0  0  0  0  0
   41.7120   70.6100   63.8020 H   0  0  0  0  0  0  0  0  0  0  0  0
   43.0400   72.6580   63.3410 H   0  0  0  0  0  0  0  0  0  0  0  0
   43.1180   72.1810   61.5020 H   0  0  0  0  0  0  0  0  0  0  0  0
   40.5780   72.8350   63.1700 H   0  0  0  0  0  0  0  0  0  0  0  0
   41.7630   69.9460   61.7500 O   0  0  0  0  0  0  0  0  0  0  0  0
   41.1750   66.8130   63.4630 C   0  0  0  0  0  0  0  0  0  0  0  0
   41.7580   65.8880   62.5770 C   0  0  0  0  0  0  0  0  0  0  0  0
   42.3460   66.3950   61.3930 C   0  0  0  0  0  0  0  0  0  0  0  0
   42.2920   67.7250   61.2240 N   0  0  0  0  0  0  0  0  0  0  0  0
   41.7320   68.6050   62.0760 C   0  0  0  0  0  0  0  0  0  0  0  0
   41.1710   68.1700   63.1970 N   0  0  0  0  0  0  0  0  0  0  0  0
   40.7190   66.4610   64.3710 H   0  0  0  0  0  0  0  0  0  0  0  0
   41.7560   64.8470   62.7900 H   0  0  0  0  0  0  0  0  0  0  0  0
   42.8080   65.7310   60.6760 H   0  0  0  0  0  0  0  0  0  0  0  0
   40.5220   72.3640   61.0990 O   0  0  0  0  0  0  0  0  0  0  0  0
   40.1130   73.5820   60.5950 C   0  0  0  0  0  0  0  0  0  0  0  0
   40.4380   73.6210   59.2360 C   0  0  0  0  0  0  0  0  0  0  0  0
   40.9220   72.8720   58.6230 H   0  0  0  0  0  0  0  0  0  0  0  0
   40.1440   74.7400   58.4460 C   0  0  0  0  0  3  0  0  0  0  0  0
   39.5140   75.8410   59.0180 C   0  0  0  0  0  0  0  0  0  0  0  0
   39.2660   76.7340   58.4430 H   0  0  0  0  0  0  0  0  0  0  0  0
   39.2050   75.7760   60.3600 C   0  0  0  0  0  0  0  0  0  0  0  0
   38.7230   76.5950   60.8480 H   0  0  0  0  0  0  0  0  0  0  0  0
   39.4900   74.6800   61.1480 C   0  0  0  0  0  3  0  0  0  0  0  0
  1  4  1  1  0  0  0
  2  1  1  0  0  0  0
  2  5  1  0  0  0  0
  3  2  1  0  0  0  0
  3  1  1  0  0  0  0
  3  7  1  1  0  0  0
  6  2  1  0  0  0  0
  8 13  1  0  0  0  0
  8  1  1  0  0  0  0
  9 15  1  0  0  0  0
 10 16  1  0  0  0  0
 10  9  2  0  0  0  0
 11 10  1  0  0  0  0
 12 11  2  0  0  0  0
 12 13  1  0  0  0  0
 13 14  2  0  0  0  0
 14  9  1  0  0  0  0
 17 11  1  0  0  0  0
 18  3  1  0  0  0  0
 19 18  1  0  0  0  0
 19 27  1  0  0  0  0
 20 19  2  0  0  0  0
 21 20  1  0  0  0  0
 22 23  2  0  0  0  0
 22 20  1  0  0  0  0
 23 25  1  0  0  0  0
 24 23  1  0  0  0  0
 25 26  1  0  0  0  0
 25 27  2  0  0  0  0
M  END
>  <minimizedAffinity>
-4.52377653

$$$$

 OpenBabel03212520413D

 27 29  0  0  1  0  0  0  0  0999 V2000
   41.5520   71.1610   61.9280 C   0  0  1  0  0  0  0  0  0  0  0  0
   42.3860   72.2660   62.5670 C   0  0  0  0  0  0  0  0  0  0  0  0
   41.1320   72.5740   61.7490 C   0  0  1  0  0  0  0  0  0  0  0  0
   41.1010   70.4960   62.7030 H   0  0  0  0  0  0  0  0  0  0  0  0
   42.2800   72.4640   63.6570 H   0  0  0  0  0  0  0  0  0  0  0  0
   43.3210   72.5950   62.0700 H   0  0  0  0  0  0  0  0  0  0  0  0
   40.2380   72.8930   62.3270 H   0  0  0  0  0  0  0  0  0  0  0  0
   42.2440   70.5210   60.8730 O   0  0  0  0  0  0  0  0  0  0  0  0
   42.0480   66.9160   61.1180 C   0  0  0  0  0  0  0  0  0  0  0  0
   41.5840   66.5660   59.8370 C   0  0  0  0  0  0  0  0  0  0  0  0
   41.3510   67.6160   58.9150 C   0  0  0  0  0  0  0  0  0  0  0  0
   41.5970   68.8600   59.3540 N   0  0  0  0  0  0  0  0  0  0  0  0
   42.0410   69.1870   60.5820 C   0  0  0  0  0  0  0  0  0  0  0  0
   42.2720   68.2340   61.4750 N   0  0  0  0  0  0  0  0  0  0  0  0
   42.2350   66.1440   61.8420 H   0  0  0  0  0  0  0  0  0  0  0  0
   41.4140   65.5510   59.5710 H   0  0  0  0  0  0  0  0  0  0  0  0
   40.9930   67.4060   57.9160 H   0  0  0  0  0  0  0  0  0  0  0  0
   41.2810   73.1160   60.4900 O   0  0  0  0  0  0  0  0  0  0  0  0
   41.0060   74.4480   60.2510 C   0  0  0  0  0  0  0  0  0  0  0  0
   39.8920   74.8060   61.0150 C   0  0  0  0  0  0  0  0  0  0  0  0
   39.3010   74.2040   61.6930 H   0  0  0  0  0  0  0  0  0  0  0  0
   39.3710   76.1050   60.9830 C   0  0  0  0  0  3  0  0  0  0  0  0
   39.9700   77.0680   60.1770 C   0  0  0  0  0  0  0  0  0  0  0  0
   39.5990   78.0930   60.1190 H   0  0  0  0  0  0  0  0  0  0  0  0
   41.0670   76.6880   59.4330 C   0  0  0  0  0  0  0  0  0  0  0  0
   41.5630   77.3890   58.7970 H   0  0  0  0  0  0  0  0  0  0  0  0
   41.5880   75.4120   59.4560 C   0  0  0  0  0  3  0  0  0  0  0  0
  1  2  1  0  0  0  0
  1  4  1  1  0  0  0
  2  5  1  0  0  0  0
  3  1  1  0  0  0  0
  3  7  1  1  0  0  0
  3  2  1  0  0  0  0
  6  2  1  0  0  0  0
  8  1  1  0  0  0  0
  9 14  1  0  0  0  0
  9 15  1  0  0  0  0
 10  9  2  0  0  0  0
 11 12  2  0  0  0  0
 11 10  1  0  0  0  0
 12 13  1  0  0  0  0
 13  8  1  0  0  0  0
 13 14  2  0  0  0  0
 16 10  1  0  0  0  0
 17 11  1  0  0  0  0
 18  3  1  0  0  0  0
 19 18  1  0  0  0  0
 19 20  1  0  0  0  0
 20 21  1  0  0  0  0
 22 20  2  0  0  0  0
 23 22  1  0  0  0  0
 24 23  1  0  0  0  0
 25 27  1  0  0  0  0
 25 23  2  0  0  0  0
 26 25  1  0  0  0  0
 27 19  2  0  0  0  0
M  END
>  <minimizedAffinity>
-4.52098608

$$$$

 OpenBabel03212520413D

 27 29  0  0  1  0  0  0  0  0999 V2000
   41.3710   72.6530   60.7790 C   0  0  1  0  0  0  0  0  0  0  0  0
   40.8200   72.3050   62.1590 C   0  0  0  0  0  0  0  0  0  0  0  0
   39.9880   73.0690   61.1270 C   0  0  1  0  0  0  0  0  0  0  0  0
   41.5890   71.7330   60.1880 H   0  0  0  0  0  0  0  0  0  0  0  0
   40.4650   71.2700   62.3540 H   0  0  0  0  0  0  0  0  0  0  0  0
   41.1090   72.9270   63.0300 H   0  0  0  0  0  0  0  0  0  0  0  0
   39.1710   72.4960   60.6390 H   0  0  0  0  0  0  0  0  0  0  0  0
   42.4060   73.6150   60.8530 O   0  0  0  0  0  0  0  0  0  0  0  0
   43.5860   74.8730   57.6720 C   0  0  0  0  0  0  0  0  0  0  0  0
   44.9120   74.4030   57.6520 C   0  0  0  0  0  0  0  0  0  0  0  0
   45.3580   73.6510   58.7660 C   0  0  0  0  0  0  0  0  0  0  0  0
   44.4650   73.4550   59.7480 N   0  0  0  0  0  0  0  0  0  0  0  0
   43.1970   73.9080   59.7610 C   0  0  0  0  0  0  0  0  0  0  0  0
   42.7410   74.6160   58.7370 N   0  0  0  0  0  0  0  0  0  0  0  0
   43.2160   75.4480   56.8430 H   0  0  0  0  0  0  0  0  0  0  0  0
   45.5550   74.6060   56.8310 H   0  0  0  0  0  0  0  0  0  0  0  0
   46.3670   73.2650   58.8050 H   0  0  0  0  0  0  0  0  0  0  0  0
   39.7700   74.4160   61.3220 O   0  0  0  0  0  0  0  0  0  0  0  0
   39.4780   75.2500   60.2610 C   0  0  0  0  0  0  0  0  0  0  0  0
   40.1500   76.4590   60.4600 C   0  0  0  0  0  0  0  0  0  0  0  0
   40.7980   76.7600   61.2730 H   0  0  0  0  0  0  0  0  0  0  0  0
   40.0470   77.5120   59.5430 C   0  0  0  0  0  3  0  0  0  0  0  0
   39.2620   77.3600   58.4040 C   0  0  0  0  0  0  0  0  0  0  0  0
   39.1510   78.1530   57.6620 H   0  0  0  0  0  0  0  0  0  0  0  0
   38.6100   76.1580   58.2320 C   0  0  0  0  0  0  0  0  0  0  0  0
   37.9940   75.9900   57.3760 H   0  0  0  0  0  0  0  0  0  0  0  0
   38.7030   75.1140   59.1290 C   0  0  0  0  0  3  0  0  0  0  0  0
  1  4  1  6  0  0  0
  1  8  1  0  0  0  0
  1  3  1  0  0  0  0
  1  2  1  0  0  0  0
  2  5  1  0  0  0  0
  2  6  1  0  0  0  0
  3  7  1  6  0  0  0
  3 18  1  0  0  0  0
  3  2  1  0  0  0  0
  9 14  1  0  0  0  0
 10  9  2  0  0  0  0
 10 11  1  0  0  0  0
 11 17  1  0  0  0  0
 11 12  2  0  0  0  0
 12 13  1  0  0  0  0
 13  8  1  0  0  0  0
 14 13  2  0  0  0  0
 15  9  1  0  0  0  0
 16 10  1  0  0  0  0
 19 20  1  0  0  0  0
 19 18  1  0  0  0  0
 20 21  1  0  0  0  0
 22 20  2  0  0  0  0
 23 22  1  0  0  0  0
 24 23  1  0  0  0  0
 25 23  2  0  0  0  0
 25 27  1  0  0  0  0
 26 25  1  0  0  0  0
 27 19  2  0  0  0  0
M  END
>  <minimizedAffinity>
-4.49056244

$$$$
