
 OpenBabel03212520413D

 27 29  0  0  1  0  0  0  0  0999 V2000
   42.0690   85.4010   59.6360 C   0  0  1  0  0  0  0  0  0  0  0  0
   43.1230   85.8920   58.6490 C   0  0  0  0  0  0  0  0  0  0  0  0
   42.0830   84.8390   58.2610 C   0  0  1  0  0  0  0  0  0  0  0  0
   41.3830   86.2270   59.9390 H   0  0  0  0  0  0  0  0  0  0  0  0
   42.9820   86.8770   58.1520 H   0  0  0  0  0  0  0  0  0  0  0  0
   44.1520   85.4840   58.7090 H   0  0  0  0  0  0  0  0  0  0  0  0
   41.2700   85.1830   57.5880 H   0  0  0  0  0  0  0  0  0  0  0  0
   42.6420   84.6410   60.6840 O   0  0  0  0  0  0  0  0  0  0  0  0
   40.0210   83.5120   62.9090 C   0  0  0  0  0  0  0  0  0  0  0  0
   40.6130   83.7060   64.1710 C   0  0  0  0  0  0  0  0  0  0  0  0
   41.9270   84.2320   64.2050 C   0  0  0  0  0  0  0  0  0  0  0  0
   42.4920   84.4990   63.0170 N   0  0  0  0  0  0  0  0  0  0  0  0
   41.9190   84.3120   61.8130 C   0  0  0  0  0  0  0  0  0  0  0  0
   40.6900   83.8210   61.7380 N   0  0  0  0  0  0  0  0  0  0  0  0
   39.0240   83.1140   62.8470 H   0  0  0  0  0  0  0  0  0  0  0  0
   40.0920   83.4650   65.0650 H   0  0  0  0  0  0  0  0  0  0  0  0
   42.4310   84.4010   65.1460 H   0  0  0  0  0  0  0  0  0  0  0  0
   42.4890   83.5290   58.1250 O   0  0  0  0  0  0  0  0  0  0  0  0
   41.6640   82.5840   57.5480 C   0  0  0  0  0  0  0  0  0  0  0  0
   40.8920   82.0060   58.5580 C   0  0  0  0  0  0  0  0  0  0  0  0
   40.8860   82.2090   59.6210 H   0  0  0  0  0  0  0  0  0  0  0  0
   39.9530   81.0050   58.2780 C   0  0  0  0  0  3  0  0  0  0  0  0
   39.7790   80.5710   56.9690 C   0  0  0  0  0  0  0  0  0  0  0  0
   39.0600   79.7940   56.7020 H   0  0  0  0  0  0  0  0  0  0  0  0
   40.5540   81.1590   55.9910 C   0  0  0  0  0  0  0  0  0  0  0  0
   40.4580   80.8610   54.9700 H   0  0  0  0  0  0  0  0  0  0  0  0
   41.4810   82.1440   56.2540 C   0  0  0  0  0  3  0  0  0  0  0  0
  1  4  1  1  0  0  0
  1  8  1  0  0  0  0
  2  6  1  0  0  0  0
  2  1  1  0  0  0  0
  3  7  1  6  0  0  0
  3  2  1  0  0  0  0
  3  1  1  0  0  0  0
  5  2  1  0  0  0  0
  8 13  1  0  0  0  0
  9 10  1  0  0  0  0
 10 11  2  0  0  0  0
 10 16  1  0  0  0  0
 11 17  1  0  0  0  0
 12 11  1  0  0  0  0
 13 12  2  0  0  0  0
 14 13  1  0  0  0  0
 14  9  2  0  0  0  0
 15  9  1  0  0  0  0
 18  3  1  0  0  0  0
 19 18  1  0  0  0  0
 19 20  1  0  0  0  0
 20 21  1  0  0  0  0
 22 20  2  0  0  0  0
 23 22  1  0  0  0  0
 24 23  1  0  0  0  0
 25 27  1  0  0  0  0
 25 23  2  0  0  0  0
 26 25  1  0  0  0  0
 27 19  2  0  0  0  0
M  END
>  <minimizedAffinity>
-4.30736876

>  <minimizedRMSD>
2.47501493

$$$$
