
 OpenBabel03212520403D

 27 29  0  0  1  0  0  0  0  0999 V2000
   42.2320   85.4680   59.7410 C   0  0  1  0  0  0  0  0  0  0  0  0
   43.3300   85.9620   58.8040 C   0  0  0  0  0  0  0  0  0  0  0  0
   42.2760   84.9510   58.3490 C   0  0  1  0  0  0  0  0  0  0  0  0
   41.5590   86.3020   60.0500 H   0  0  0  0  0  0  0  0  0  0  0  0
   43.2310   86.9660   58.3350 H   0  0  0  0  0  0  0  0  0  0  0  0
   44.3460   85.5250   58.8810 H   0  0  0  0  0  0  0  0  0  0  0  0
   41.4930   85.3380   57.6620 H   0  0  0  0  0  0  0  0  0  0  0  0
   42.7520   84.6600   60.7800 O   0  0  0  0  0  0  0  0  0  0  0  0
   40.0560   83.5470   62.9220 C   0  0  0  0  0  0  0  0  0  0  0  0
   40.6120   83.7300   64.2010 C   0  0  0  0  0  0  0  0  0  0  0  0
   41.9300   84.2440   64.2760 C   0  0  0  0  0  0  0  0  0  0  0  0
   42.5320   84.5100   63.1070 N   0  0  0  0  0  0  0  0  0  0  0  0
   41.9940   84.3330   61.8860 C   0  0  0  0  0  0  0  0  0  0  0  0
   40.7620   83.8540   61.7720 N   0  0  0  0  0  0  0  0  0  0  0  0
   39.0580   83.1580   62.8290 H   0  0  0  0  0  0  0  0  0  0  0  0
   40.0630   83.4910   65.0790 H   0  0  0  0  0  0  0  0  0  0  0  0
   42.4080   84.4050   65.2330 H   0  0  0  0  0  0  0  0  0  0  0  0
   42.6510   83.6350   58.1820 O   0  0  0  0  0  0  0  0  0  0  0  0
   41.7930   82.7170   57.6110 C   0  0  0  0  0  0  0  0  0  0  0  0
   41.0020   82.1720   58.6270 C   0  0  0  0  0  0  0  0  0  0  0  0
   41.0040   82.3830   59.6880 H   0  0  0  0  0  0  0  0  0  0  0  0
   40.0270   81.2030   58.3540 C   0  0  0  0  0  3  0  0  0  0  0  0
   39.8370   80.7680   57.0480 C   0  0  0  0  0  0  0  0  0  0  0  0
   39.0910   80.0140   56.7870 H   0  0  0  0  0  0  0  0  0  0  0  0
   40.6310   81.3210   56.0640 C   0  0  0  0  0  0  0  0  0  0  0  0
   40.5240   81.0200   55.0460 H   0  0  0  0  0  0  0  0  0  0  0  0
   41.5930   82.2740   56.3210 C   0  0  0  0  0  3  0  0  0  0  0  0
  1  4  1  1  0  0  0
  1  8  1  0  0  0  0
  2  6  1  0  0  0  0
  2  1  1  0  0  0  0
  3  7  1  6  0  0  0
  3  2  1  0  0  0  0
  3  1  1  0  0  0  0
  5  2  1  0  0  0  0
  8 13  1  0  0  0  0
  9 10  1  0  0  0  0
 10 11  2  0  0  0  0
 10 16  1  0  0  0  0
 11 17  1  0  0  0  0
 12 11  1  0  0  0  0
 13 12  2  0  0  0  0
 14 13  1  0  0  0  0
 14  9  2  0  0  0  0
 15  9  1  0  0  0  0
 18  3  1  0  0  0  0
 19 18  1  0  0  0  0
 19 20  1  0  0  0  0
 20 21  1  0  0  0  0
 22 20  2  0  0  0  0
 23 22  1  0  0  0  0
 24 23  1  0  0  0  0
 25 27  1  0  0  0  0
 25 23  2  0  0  0  0
 26 25  1  0  0  0  0
 27 19  2  0  0  0  0
M  END
>  <minimizedAffinity>
-4.32178497

>  <minimizedRMSD>
2.4446137

$$$$
