
 OpenBabel03212520403D

 27 29  0  0  1  0  0  0  0  0999 V2000
   42.2460   85.4790   59.7140 C   0  0  1  0  0  0  0  0  0  0  0  0
   43.4310   86.3460   59.3000 C   0  0  0  0  0  0  0  0  0  0  0  0
   42.7320   85.4120   58.3110 C   0  0  1  0  0  0  0  0  0  0  0  0
   41.3740   86.1050   60.0160 H   0  0  0  0  0  0  0  0  0  0  0  0
   43.2670   87.4270   59.1000 H   0  0  0  0  0  0  0  0  0  0  0  0
   44.4580   86.0170   59.5570 H   0  0  0  0  0  0  0  0  0  0  0  0
   42.0880   85.9010   57.5500 H   0  0  0  0  0  0  0  0  0  0  0  0
   42.6300   84.4560   60.6130 O   0  0  0  0  0  0  0  0  0  0  0  0
   40.0050   83.5200   62.9210 C   0  0  0  0  0  0  0  0  0  0  0  0
   40.6210   83.7510   64.1650 C   0  0  0  0  0  0  0  0  0  0  0  0
   41.9520   84.2330   64.1580 C   0  0  0  0  0  0  0  0  0  0  0  0
   42.5090   84.4260   62.9520 N   0  0  0  0  0  0  0  0  0  0  0  0
   41.9130   84.2030   61.7650 C   0  0  0  0  0  0  0  0  0  0  0  0
   40.6670   83.7520   61.7280 N   0  0  0  0  0  0  0  0  0  0  0  0
   38.9940   83.1530   62.8900 H   0  0  0  0  0  0  0  0  0  0  0  0
   40.1050   83.5690   65.0760 H   0  0  0  0  0  0  0  0  0  0  0  0
   42.4750   84.4280   65.0840 H   0  0  0  0  0  0  0  0  0  0  0  0
   43.3760   84.2550   57.9270 O   0  0  0  0  0  0  0  0  0  0  0  0
   43.2110   83.7360   56.6580 C   0  0  0  0  0  0  0  0  0  0  0  0
   43.9790   82.5720   56.5620 C   0  0  0  0  0  0  0  0  0  0  0  0
   44.6110   82.1010   57.3050 H   0  0  0  0  0  0  0  0  0  0  0  0
   44.0160   81.8170   55.3830 C   0  0  0  0  0  3  0  0  0  0  0  0
   43.2770   82.2270   54.2790 C   0  0  0  0  0  0  0  0  0  0  0  0
   43.2750   81.6710   53.3390 H   0  0  0  0  0  0  0  0  0  0  0  0
   42.5290   83.3790   54.4000 C   0  0  0  0  0  0  0  0  0  0  0  0
   41.9430   83.7370   53.5820 H   0  0  0  0  0  0  0  0  0  0  0  0
   42.4840   84.1300   55.5560 C   0  0  0  0  0  3  0  0  0  0  0  0
  1  4  1  1  0  0  0
  1  8  1  0  0  0  0
  2  6  1  0  0  0  0
  2  1  1  0  0  0  0
  3  7  1  6  0  0  0
  3  2  1  0  0  0  0
  3  1  1  0  0  0  0
  5  2  1  0  0  0  0
  8 13  1  0  0  0  0
  9 10  1  0  0  0  0
 10 16  1  0  0  0  0
 11 10  2  0  0  0  0
 11 17  1  0  0  0  0
 12 11  1  0  0  0  0
 13 12  2  0  0  0  0
 14 13  1  0  0  0  0
 14  9  2  0  0  0  0
 15  9  1  0  0  0  0
 18  3  1  0  0  0  0
 19 18  1  0  0  0  0
 20 19  1  0  0  0  0
 20 21  1  0  0  0  0
 22 20  2  0  0  0  0
 23 25  2  0  0  0  0
 23 22  1  0  0  0  0
 24 23  1  0  0  0  0
 25 27  1  0  0  0  0
 26 25  1  0  0  0  0
 27 19  2  0  0  0  0
M  END
>  <minimizedAffinity>
-3.62234592

>  <minimizedRMSD>
0.8622756

$$$$
