
 OpenBabel03212520413D

 27 29  0  0  1  0  0  0  0  0999 V2000
   42.2930   85.4230   59.7700 C   0  0  1  0  0  0  0  0  0  0  0  0
   43.4960   86.2590   59.3440 C   0  0  0  0  0  0  0  0  0  0  0  0
   42.8120   85.2830   58.3850 C   0  0  1  0  0  0  0  0  0  0  0  0
   41.4200   86.0710   60.0200 H   0  0  0  0  0  0  0  0  0  0  0  0
   43.3470   87.3310   59.0870 H   0  0  0  0  0  0  0  0  0  0  0  0
   44.5140   85.9350   59.6410 H   0  0  0  0  0  0  0  0  0  0  0  0
   42.1910   85.7400   57.5850 H   0  0  0  0  0  0  0  0  0  0  0  0
   42.6460   84.4430   60.7270 O   0  0  0  0  0  0  0  0  0  0  0  0
   39.9260   83.4980   62.9190 C   0  0  0  0  0  0  0  0  0  0  0  0
   40.4490   83.8260   64.1830 C   0  0  0  0  0  0  0  0  0  0  0  0
   41.7540   84.3740   64.2310 C   0  0  0  0  0  0  0  0  0  0  0  0
   42.3770   84.5310   63.0520 N   0  0  0  0  0  0  0  0  0  0  0  0
   41.8700   84.2150   61.8460 C   0  0  0  0  0  0  0  0  0  0  0  0
   40.6510   83.7000   61.7580 N   0  0  0  0  0  0  0  0  0  0  0  0
   38.9380   83.0800   62.8470 H   0  0  0  0  0  0  0  0  0  0  0  0
   39.8850   83.6680   65.0690 H   0  0  0  0  0  0  0  0  0  0  0  0
   42.2070   84.6440   65.1740 H   0  0  0  0  0  0  0  0  0  0  0  0
   43.4540   84.1040   58.0730 O   0  0  0  0  0  0  0  0  0  0  0  0
   43.0720   83.3530   56.9800 C   0  0  0  0  0  0  0  0  0  0  0  0
   44.2260   82.9780   56.2850 C   0  0  0  0  0  0  0  0  0  0  0  0
   45.2620   83.2000   56.5040 H   0  0  0  0  0  0  0  0  0  0  0  0
   44.1580   82.2030   55.1200 C   0  0  0  0  0  3  0  0  0  0  0  0
   42.9210   81.7930   54.6380 C   0  0  0  0  0  0  0  0  0  0  0  0
   42.8190   81.1880   53.7330 H   0  0  0  0  0  0  0  0  0  0  0  0
   41.7990   82.1760   55.3420 C   0  0  0  0  0  0  0  0  0  0  0  0
   40.8250   81.8860   55.0120 H   0  0  0  0  0  0  0  0  0  0  0  0
   41.8530   82.9380   56.4880 C   0  0  0  0  0  3  0  0  0  0  0  0
  1  4  1  1  0  0  0
  1  8  1  0  0  0  0
  2  6  1  0  0  0  0
  2  1  1  0  0  0  0
  3  7  1  6  0  0  0
  3  2  1  0  0  0  0
  3  1  1  0  0  0  0
  5  2  1  0  0  0  0
  8 13  1  0  0  0  0
  9 10  1  0  0  0  0
 10 11  2  0  0  0  0
 10 16  1  0  0  0  0
 11 17  1  0  0  0  0
 12 11  1  0  0  0  0
 13 12  2  0  0  0  0
 14 13  1  0  0  0  0
 14  9  2  0  0  0  0
 15  9  1  0  0  0  0
 18  3  1  0  0  0  0
 19 18  1  0  0  0  0
 20 21  1  0  0  0  0
 20 19  2  0  0  0  0
 22 20  1  0  0  0  0
 23 22  2  0  0  0  0
 23 25  1  0  0  0  0
 24 23  1  0  0  0  0
 25 27  2  0  0  0  0
 26 25  1  0  0  0  0
 27 19  1  0  0  0  0
M  END
>  <minimizedAffinity>
-3.63043427

>  <minimizedRMSD>
1.09422898

$$$$
