
 OpenBabel03212520403D

 27 29  0  0  1  0  0  0  0  0999 V2000
   42.3620   85.4330   59.7870 C   0  0  1  0  0  0  0  0  0  0  0  0
   43.4740   86.4230   59.4560 C   0  0  0  0  0  0  0  0  0  0  0  0
   42.9960   85.3810   58.4440 C   0  0  1  0  0  0  0  0  0  0  0  0
   41.3950   85.9590   59.9730 H   0  0  0  0  0  0  0  0  0  0  0  0
   43.2070   87.4700   59.1930 H   0  0  0  0  0  0  0  0  0  0  0  0
   44.5000   86.2290   59.8280 H   0  0  0  0  0  0  0  0  0  0  0  0
   42.3820   85.7640   57.6020 H   0  0  0  0  0  0  0  0  0  0  0  0
   42.7660   84.4940   60.7640 O   0  0  0  0  0  0  0  0  0  0  0  0
   40.0380   83.5340   62.9390 C   0  0  0  0  0  0  0  0  0  0  0  0
   40.5870   83.7770   64.2120 C   0  0  0  0  0  0  0  0  0  0  0  0
   41.9110   84.2750   64.2710 C   0  0  0  0  0  0  0  0  0  0  0  0
   42.5260   84.4710   63.0940 N   0  0  0  0  0  0  0  0  0  0  0  0
   41.9950   84.2360   61.8800 C   0  0  0  0  0  0  0  0  0  0  0  0
   40.7570   83.7690   61.7810 N   0  0  0  0  0  0  0  0  0  0  0  0
   39.0350   83.1550   62.8590 H   0  0  0  0  0  0  0  0  0  0  0  0
   40.0270   83.5930   65.0960 H   0  0  0  0  0  0  0  0  0  0  0  0
   42.3840   84.4800   65.2210 H   0  0  0  0  0  0  0  0  0  0  0  0
   43.8070   84.2980   58.1780 O   0  0  0  0  0  0  0  0  0  0  0  0
   43.6620   83.5690   57.0140 C   0  0  0  0  0  0  0  0  0  0  0  0
   42.7890   84.2640   56.1720 C   0  0  0  0  0  0  0  0  0  0  0  0
   42.2820   85.2060   56.3340 H   0  0  0  0  0  0  0  0  0  0  0  0
   42.4460   83.7690   54.9080 C   0  0  0  0  0  3  0  0  0  0  0  0
   42.9800   82.5600   54.4730 C   0  0  0  0  0  0  0  0  0  0  0  0
   42.7400   82.1350   53.4960 H   0  0  0  0  0  0  0  0  0  0  0  0
   43.8380   81.8960   55.3230 C   0  0  0  0  0  0  0  0  0  0  0  0
   44.2740   80.9640   55.0370 H   0  0  0  0  0  0  0  0  0  0  0  0
   44.1820   82.3730   56.5700 C   0  0  0  0  0  3  0  0  0  0  0  0
  1  4  1  1  0  0  0
  1  8  1  0  0  0  0
  2  1  1  0  0  0  0
  2  6  1  0  0  0  0
  3  7  1  6  0  0  0
  3  2  1  0  0  0  0
  3  1  1  0  0  0  0
  5  2  1  0  0  0  0
  8 13  1  0  0  0  0
  9 10  1  0  0  0  0
 10 11  2  0  0  0  0
 10 16  1  0  0  0  0
 11 17  1  0  0  0  0
 12 11  1  0  0  0  0
 13 12  2  0  0  0  0
 14 13  1  0  0  0  0
 14  9  2  0  0  0  0
 15  9  1  0  0  0  0
 18  3  1  0  0  0  0
 19 18  1  0  0  0  0
 20 21  1  0  0  0  0
 20 19  2  0  0  0  0
 22 20  1  0  0  0  0
 23 22  2  0  0  0  0
 23 25  1  0  0  0  0
 24 23  1  0  0  0  0
 25 27  2  0  0  0  0
 26 25  1  0  0  0  0
 27 19  1  0  0  0  0
M  END
>  <minimizedAffinity>
-3.6353581

>  <minimizedRMSD>
0.507388234

$$$$
