
 OpenBabel03212520413D

 27 29  0  0  1  0  0  0  0  0999 V2000
   42.6400   85.6060   60.0160 C   0  0  1  0  0  0  0  0  0  0  0  0
   43.9250   86.3960   59.7920 C   0  0  0  0  0  0  0  0  0  0  0  0
   43.2540   85.6120   58.6630 C   0  0  1  0  0  0  0  0  0  0  0  0
   41.7940   86.2790   60.2930 H   0  0  0  0  0  0  0  0  0  0  0  0
   43.8680   87.5010   59.6760 H   0  0  0  0  0  0  0  0  0  0  0  0
   44.8930   85.9580   60.1100 H   0  0  0  0  0  0  0  0  0  0  0  0
   42.7290   86.2170   57.8940 H   0  0  0  0  0  0  0  0  0  0  0  0
   42.8510   84.4820   60.8510 O   0  0  0  0  0  0  0  0  0  0  0  0
   40.0480   83.5220   62.9280 C   0  0  0  0  0  0  0  0  0  0  0  0
   40.5450   83.7820   64.2180 C   0  0  0  0  0  0  0  0  0  0  0  0
   41.8610   84.2930   64.3230 C   0  0  0  0  0  0  0  0  0  0  0  0
   42.5200   84.4820   63.1690 N   0  0  0  0  0  0  0  0  0  0  0  0
   42.0390   84.2300   61.9380 C   0  0  0  0  0  0  0  0  0  0  0  0
   40.8100   83.7510   61.7960 N   0  0  0  0  0  0  0  0  0  0  0  0
   39.0520   83.1330   62.8130 H   0  0  0  0  0  0  0  0  0  0  0  0
   39.9530   83.6030   65.0820 H   0  0  0  0  0  0  0  0  0  0  0  0
   42.2950   84.5110   65.2890 H   0  0  0  0  0  0  0  0  0  0  0  0
   43.8390   84.4380   58.2370 O   0  0  0  0  0  0  0  0  0  0  0  0
   43.1040   83.4780   57.5700 C   0  0  0  0  0  0  0  0  0  0  0  0
   43.4380   82.2290   58.1010 C   0  0  0  0  0  0  0  0  0  0  0  0
   44.1350   81.9820   58.8910 H   0  0  0  0  0  0  0  0  0  0  0  0
   42.8510   81.0520   57.6240 C   0  0  0  0  0  3  0  0  0  0  0  0
   41.9130   81.1160   56.5990 C   0  0  0  0  0  0  0  0  0  0  0  0
   41.4280   80.2250   56.1940 H   0  0  0  0  0  0  0  0  0  0  0  0
   41.6020   82.3600   56.0920 C   0  0  0  0  0  0  0  0  0  0  0  0
   40.8880   82.4640   55.3050 H   0  0  0  0  0  0  0  0  0  0  0  0
   42.1740   83.5260   56.5550 C   0  0  0  0  0  3  0  0  0  0  0  0
  1  4  1  1  0  0  0
  1  8  1  0  0  0  0
  2  1  1  0  0  0  0
  2  6  1  0  0  0  0
  3  7  1  6  0  0  0
  3  2  1  0  0  0  0
  3  1  1  0  0  0  0
  5  2  1  0  0  0  0
  8 13  1  0  0  0  0
  9 10  1  0  0  0  0
 10 11  2  0  0  0  0
 10 16  1  0  0  0  0
 11 17  1  0  0  0  0
 12 11  1  0  0  0  0
 13 12  2  0  0  0  0
 14 13  1  0  0  0  0
 14  9  2  0  0  0  0
 15  9  1  0  0  0  0
 18  3  1  0  0  0  0
 19 20  1  0  0  0  0
 19 18  1  0  0  0  0
 20 21  1  0  0  0  0
 22 20  2  0  0  0  0
 23 22  1  0  0  0  0
 24 23  1  0  0  0  0
 25 27  1  0  0  0  0
 25 23  2  0  0  0  0
 26 25  1  0  0  0  0
 27 19  2  0  0  0  0
M  END
>  <minimizedAffinity>
-3.73263669

>  <minimizedRMSD>
1.48059297

$$$$
