
 OpenBabel03212520413D

 27 29  0  0  1  0  0  0  0  0999 V2000
   42.2380   85.4650   59.7460 C   0  0  1  0  0  0  0  0  0  0  0  0
   43.3390   85.9460   58.8050 C   0  0  0  0  0  0  0  0  0  0  0  0
   42.2680   84.9520   58.3520 C   0  0  1  0  0  0  0  0  0  0  0  0
   41.5800   86.3090   60.0600 H   0  0  0  0  0  0  0  0  0  0  0  0
   43.2530   86.9520   58.3410 H   0  0  0  0  0  0  0  0  0  0  0  0
   44.3490   85.4930   58.8770 H   0  0  0  0  0  0  0  0  0  0  0  0
   41.4880   85.3530   57.6700 H   0  0  0  0  0  0  0  0  0  0  0  0
   42.7500   84.6460   60.7800 O   0  0  0  0  0  0  0  0  0  0  0  0
   40.0440   83.5500   62.9180 C   0  0  0  0  0  0  0  0  0  0  0  0
   40.6040   83.7190   64.1980 C   0  0  0  0  0  0  0  0  0  0  0  0
   41.9270   84.2170   64.2750 C   0  0  0  0  0  0  0  0  0  0  0  0
   42.5310   84.4850   63.1060 N   0  0  0  0  0  0  0  0  0  0  0  0
   41.9900   84.3200   61.8850 C   0  0  0  0  0  0  0  0  0  0  0  0
   40.7530   83.8560   61.7690 N   0  0  0  0  0  0  0  0  0  0  0  0
   39.0420   83.1720   62.8240 H   0  0  0  0  0  0  0  0  0  0  0  0
   40.0530   83.4810   65.0740 H   0  0  0  0  0  0  0  0  0  0  0  0
   42.4080   84.3680   65.2310 H   0  0  0  0  0  0  0  0  0  0  0  0
   42.6230   83.6310   58.1790 O   0  0  0  0  0  0  0  0  0  0  0  0
   41.6670   82.6610   57.9510 C   0  0  0  0  0  0  0  0  0  0  0  0
   41.6620   82.3690   56.5850 C   0  0  0  0  0  0  0  0  0  0  0  0
   42.2670   82.7860   55.7900 H   0  0  0  0  0  0  0  0  0  0  0  0
   40.7900   81.4140   56.0450 C   0  0  0  0  0  3  0  0  0  0  0  0
   39.9080   80.7380   56.8800 C   0  0  0  0  0  0  0  0  0  0  0  0
   39.2100   79.9860   56.5050 H   0  0  0  0  0  0  0  0  0  0  0  0
   39.9340   81.0450   58.2240 C   0  0  0  0  0  0  0  0  0  0  0  0
   39.2760   80.5540   58.9070 H   0  0  0  0  0  0  0  0  0  0  0  0
   40.7870   81.9820   58.7660 C   0  0  0  0  0  3  0  0  0  0  0  0
  1  4  1  1  0  0  0
  1  8  1  0  0  0  0
  2  6  1  0  0  0  0
  2  1  1  0  0  0  0
  3  7  1  6  0  0  0
  3  2  1  0  0  0  0
  3  1  1  0  0  0  0
  5  2  1  0  0  0  0
  8 13  1  0  0  0  0
  9 10  1  0  0  0  0
 10 11  2  0  0  0  0
 10 16  1  0  0  0  0
 11 17  1  0  0  0  0
 12 11  1  0  0  0  0
 13 12  2  0  0  0  0
 14 13  1  0  0  0  0
 14  9  2  0  0  0  0
 15  9  1  0  0  0  0
 18  3  1  0  0  0  0
 19 18  1  0  0  0  0
 19 27  1  0  0  0  0
 20 19  2  0  0  0  0
 21 20  1  0  0  0  0
 22 20  1  0  0  0  0
 22 23  2  0  0  0  0
 23 25  1  0  0  0  0
 24 23  1  0  0  0  0
 25 27  2  0  0  0  0
 25 26  1  0  0  0  0
M  END
>  <minimizedAffinity>
-4.30599546

>  <minimizedRMSD>
2.83525801

$$$$
