
 OpenBabel03212520413D

 27 29  0  0  1  0  0  0  0  0999 V2000
   42.1490   85.3700   59.6810 C   0  0  1  0  0  0  0  0  0  0  0  0
   43.1550   85.5600   58.5510 C   0  0  0  0  0  0  0  0  0  0  0  0
   41.9600   84.6160   58.4160 C   0  0  1  0  0  0  0  0  0  0  0  0
   41.6050   86.3190   59.9010 H   0  0  0  0  0  0  0  0  0  0  0  0
   43.0900   86.4710   57.9150 H   0  0  0  0  0  0  0  0  0  0  0  0
   44.1270   85.0280   58.5940 H   0  0  0  0  0  0  0  0  0  0  0  0
   41.1330   84.9650   57.7610 H   0  0  0  0  0  0  0  0  0  0  0  0
   42.7230   84.7020   60.7890 O   0  0  0  0  0  0  0  0  0  0  0  0
   40.0520   83.5020   62.9160 C   0  0  0  0  0  0  0  0  0  0  0  0
   40.5890   83.7170   64.1990 C   0  0  0  0  0  0  0  0  0  0  0  0
   41.8850   84.2820   64.2810 C   0  0  0  0  0  0  0  0  0  0  0  0
   42.4870   84.5620   63.1160 N   0  0  0  0  0  0  0  0  0  0  0  0
   41.9680   84.3540   61.8910 C   0  0  0  0  0  0  0  0  0  0  0  0
   40.7570   83.8270   61.7700 N   0  0  0  0  0  0  0  0  0  0  0  0
   39.0710   83.0740   62.8180 H   0  0  0  0  0  0  0  0  0  0  0  0
   40.0410   83.4640   65.0730 H   0  0  0  0  0  0  0  0  0  0  0  0
   42.3480   84.4690   65.2410 H   0  0  0  0  0  0  0  0  0  0  0  0
   42.1840   83.2560   58.4590 O   0  0  0  0  0  0  0  0  0  0  0  0
   41.4850   82.3930   57.6400 C   0  0  0  0  0  0  0  0  0  0  0  0
   40.5810   81.6780   58.4320 C   0  0  0  0  0  0  0  0  0  0  0  0
   40.4040   81.7380   59.4980 H   0  0  0  0  0  0  0  0  0  0  0  0
   39.7250   80.7180   57.8770 C   0  0  0  0  0  3  0  0  0  0  0  0
   39.7680   80.4640   56.5120 C   0  0  0  0  0  0  0  0  0  0  0  0
   39.1190   79.7250   56.0350 H   0  0  0  0  0  0  0  0  0  0  0  0
   40.6680   81.1810   55.7530 C   0  0  0  0  0  0  0  0  0  0  0  0
   40.7410   81.0230   54.7000 H   0  0  0  0  0  0  0  0  0  0  0  0
   41.5160   82.1290   56.2870 C   0  0  0  0  0  3  0  0  0  0  0  0
  1  4  1  1  0  0  0
  1  8  1  0  0  0  0
  2  6  1  0  0  0  0
  2  1  1  0  0  0  0
  3  7  1  6  0  0  0
  3 18  1  0  0  0  0
  3  2  1  0  0  0  0
  3  1  1  0  0  0  0
  5  2  1  0  0  0  0
  8 13  1  0  0  0  0
  9 10  1  0  0  0  0
 10 11  2  0  0  0  0
 10 16  1  0  0  0  0
 11 17  1  0  0  0  0
 12 11  1  0  0  0  0
 13 12  2  0  0  0  0
 14 13  1  0  0  0  0
 14  9  2  0  0  0  0
 15  9  1  0  0  0  0
 19 20  1  0  0  0  0
 19 18  1  0  0  0  0
 20 21  1  0  0  0  0
 22 20  2  0  0  0  0
 23 22  1  0  0  0  0
 24 23  1  0  0  0  0
 25 27  1  0  0  0  0
 25 23  2  0  0  0  0
 26 25  1  0  0  0  0
 27 19  2  0  0  0  0
M  END
>  <minimizedAffinity>
-4.31148815

>  <minimizedRMSD>
2.61292553

$$$$
