
 OpenBabel03212520403D

 27 29  0  0  1  0  0  0  0  0999 V2000
   42.3890   85.4130   59.7930 C   0  0  1  0  0  0  0  0  0  0  0  0
   43.4630   86.4730   59.5720 C   0  0  0  0  0  0  0  0  0  0  0  0
   43.1190   85.4370   58.5000 C   0  0  1  0  0  0  0  0  0  0  0  0
   41.3830   85.8780   59.9220 H   0  0  0  0  0  0  0  0  0  0  0  0
   43.1560   87.5110   59.3190 H   0  0  0  0  0  0  0  0  0  0  0  0
   44.4700   86.3240   60.0130 H   0  0  0  0  0  0  0  0  0  0  0  0
   42.5460   85.8130   57.6250 H   0  0  0  0  0  0  0  0  0  0  0  0
   42.7760   84.4660   60.7720 O   0  0  0  0  0  0  0  0  0  0  0  0
   40.0340   83.5410   62.9440 C   0  0  0  0  0  0  0  0  0  0  0  0
   40.5780   83.7920   64.2160 C   0  0  0  0  0  0  0  0  0  0  0  0
   41.9050   84.2840   64.2760 C   0  0  0  0  0  0  0  0  0  0  0  0
   42.5260   84.4660   63.1010 N   0  0  0  0  0  0  0  0  0  0  0  0
   41.9980   84.2230   61.8860 C   0  0  0  0  0  0  0  0  0  0  0  0
   40.7590   83.7620   61.7870 N   0  0  0  0  0  0  0  0  0  0  0  0
   39.0290   83.1660   62.8630 H   0  0  0  0  0  0  0  0  0  0  0  0
   40.0140   83.6190   65.1000 H   0  0  0  0  0  0  0  0  0  0  0  0
   42.3750   84.4950   65.2270 H   0  0  0  0  0  0  0  0  0  0  0  0
   44.0080   84.4100   58.2640 O   0  0  0  0  0  0  0  0  0  0  0  0
   44.1120   83.8320   57.0150 C   0  0  0  0  0  0  0  0  0  0  0  0
   45.4120   84.0430   56.5460 C   0  0  0  0  0  0  0  0  0  0  0  0
   46.2390   84.5560   57.0190 H   0  0  0  0  0  0  0  0  0  0  0  0
   45.8230   83.5670   55.2940 C   0  0  0  0  0  3  0  0  0  0  0  0
   44.9250   82.8680   54.4940 C   0  0  0  0  0  0  0  0  0  0  0  0
   45.2000   82.4780   53.5120 H   0  0  0  0  0  0  0  0  0  0  0  0
   43.6490   82.6740   54.9810 C   0  0  0  0  0  0  0  0  0  0  0  0
   42.9230   82.1440   54.4070 H   0  0  0  0  0  0  0  0  0  0  0  0
   43.2340   83.1380   56.2110 C   0  0  0  0  0  3  0  0  0  0  0  0
  1  4  1  6  0  0  0
  1  8  1  0  0  0  0
  2  1  1  0  0  0  0
  2  6  1  0  0  0  0
  3  7  1  6  0  0  0
  3  2  1  0  0  0  0
  3  1  1  0  0  0  0
  5  2  1  0  0  0  0
  8 13  1  0  0  0  0
  9 10  1  0  0  0  0
 10 11  2  0  0  0  0
 10 16  1  0  0  0  0
 11 17  1  0  0  0  0
 12 11  1  0  0  0  0
 13 12  2  0  0  0  0
 14 13  1  0  0  0  0
 14  9  2  0  0  0  0
 15  9  1  0  0  0  0
 18  3  1  0  0  0  0
 19 18  1  0  0  0  0
 20 19  1  0  0  0  0
 20 21  1  0  0  0  0
 22 20  2  0  0  0  0
 23 25  2  0  0  0  0
 23 22  1  0  0  0  0
 24 23  1  0  0  0  0
 25 27  1  0  0  0  0
 26 25  1  0  0  0  0
 27 19  2  0  0  0  0
M  END
>  <minimizedAffinity>
-3.43461156

>  <minimizedRMSD>
0.109599173

$$$$
