
 OpenBabel03212520413D

 27 29  0  0  1  0  0  0  0  0999 V2000
   42.1660   85.3440   59.6850 C   0  0  1  0  0  0  0  0  0  0  0  0
   43.1600   85.4560   58.5340 C   0  0  0  0  0  0  0  0  0  0  0  0
   41.9360   84.5420   58.4550 C   0  0  1  0  0  0  0  0  0  0  0  0
   41.6520   86.3160   59.8710 H   0  0  0  0  0  0  0  0  0  0  0  0
   43.1130   86.3400   57.8620 H   0  0  0  0  0  0  0  0  0  0  0  0
   44.1160   84.8970   58.5870 H   0  0  0  0  0  0  0  0  0  0  0  0
   41.1110   84.8880   57.7970 H   0  0  0  0  0  0  0  0  0  0  0  0
   42.7360   84.7050   60.8130 O   0  0  0  0  0  0  0  0  0  0  0  0
   40.0510   83.5050   62.9210 C   0  0  0  0  0  0  0  0  0  0  0  0
   40.5710   83.7350   64.2070 C   0  0  0  0  0  0  0  0  0  0  0  0
   41.8620   84.3100   64.2990 C   0  0  0  0  0  0  0  0  0  0  0  0
   42.4750   84.5850   63.1370 N   0  0  0  0  0  0  0  0  0  0  0  0
   41.9710   84.3620   61.9090 C   0  0  0  0  0  0  0  0  0  0  0  0
   40.7650   83.8250   61.7800 N   0  0  0  0  0  0  0  0  0  0  0  0
   39.0740   83.0680   62.8150 H   0  0  0  0  0  0  0  0  0  0  0  0
   40.0160   83.4860   65.0780 H   0  0  0  0  0  0  0  0  0  0  0  0
   42.3120   84.5090   65.2610 H   0  0  0  0  0  0  0  0  0  0  0  0
   42.1210   83.1800   58.5530 O   0  0  0  0  0  0  0  0  0  0  0  0
   41.3180   82.3000   57.8550 C   0  0  0  0  0  0  0  0  0  0  0  0
   41.7670   82.2580   56.5320 C   0  0  0  0  0  0  0  0  0  0  0  0
   42.5870   82.7890   56.0670 H   0  0  0  0  0  0  0  0  0  0  0  0
   41.1440   81.4460   55.5750 C   0  0  0  0  0  0  0  0  0  0  0  0
   40.0550   80.6610   55.9410 C   0  0  0  0  0  0  0  0  0  0  0  0
   39.5380   80.0140   55.2300 H   0  0  0  0  0  0  0  0  0  0  0  0
   39.6330   80.7220   57.2520 C   0  0  0  0  0  0  0  0  0  0  0  0
   38.8010   80.1400   57.5840 H   0  0  0  0  0  0  0  0  0  0  0  0
   40.2380   81.5170   58.2020 C   0  0  0  0  0  0  0  0  0  0  0  0
  1  4  1  1  0  0  0
  1  8  1  0  0  0  0
  2  6  1  0  0  0  0
  2  1  1  0  0  0  0
  3  7  1  6  0  0  0
  3  2  1  0  0  0  0
  3 18  1  0  0  0  0
  3  1  1  0  0  0  0
  5  2  1  0  0  0  0
  8 13  1  0  0  0  0
  9 10  1  0  0  0  0
 10 11  2  0  0  0  0
 10 16  1  0  0  0  0
 11 17  1  0  0  0  0
 12 11  1  0  0  0  0
 13 12  2  0  0  0  0
 14 13  1  0  0  0  0
 14  9  2  0  0  0  0
 15  9  1  0  0  0  0
 19 27  1  0  0  0  0
 19 18  1  0  0  0  0
 20 19  2  0  0  0  0
 21 20  1  0  0  0  0
 22 23  2  0  0  0  0
 22 20  1  0  0  0  0
 23 25  1  0  0  0  0
 24 23  1  0  0  0  0
 25 26  1  0  0  0  0
 25 27  2  0  0  0  0
M  END
>  <minimizedAffinity>
-4.32836294

>  <minimizedRMSD>
2.72162652

$$$$
