
 OpenBabel03212520213D

 36 38  0  0  0  0  0  0  0  0999 V2000
   43.1120   83.9450   58.5920 Cl  0  0  0  0  0  0  0  0  0  0  0  0
   41.8810   82.7640   58.2000 C   0  0  0  0  0  0  0  0  0  0  0  0
   40.9950   82.2390   59.1440 C   0  0  0  0  0  0  0  0  0  0  0  0
   40.0930   81.3230   58.6700 C   0  0  0  0  0  0  0  0  0  0  0  0
   39.9610   80.8660   57.3820 C   0  0  0  0  0  0  0  0  0  0  0  0
   40.8460   81.4040   56.4900 C   0  0  0  0  0  0  0  0  0  0  0  0
   40.7970   80.9140   54.8000 Cl  0  0  0  0  0  0  0  0  0  0  0  0
   41.7930   82.3390   56.8850 C   0  0  0  0  0  0  0  0  0  0  0  0
   39.4180   80.9360   59.4400 H   0  0  0  0  0  0  0  0  0  0  0  0
   39.2090   80.1380   57.1160 H   0  0  0  0  0  0  0  0  0  0  0  0
   41.9420   82.1650   61.5010 C   0  0  0  0  0  0  0  0  0  0  0  0
   41.0930   82.6800   60.4860 C   0  0  0  0  0  0  0  0  0  0  0  0
   40.2680   83.7300   60.8480 C   0  0  0  0  0  0  0  0  0  0  0  0
   40.3380   84.1780   62.1330 N   0  0  0  0  0  0  0  0  0  0  0  0
   41.1450   83.6740   63.0600 C   0  0  0  0  0  0  0  0  0  0  0  0
   41.9740   82.6350   62.7390 N   0  0  0  0  0  0  0  0  0  0  0  0
   42.5700   81.3400   61.1640 H   0  0  0  0  0  0  0  0  0  0  0  0
   39.5570   84.2360   60.1810 H   0  0  0  0  0  0  0  0  0  0  0  0
   41.0650   84.3060   64.3970 C   0  0  0  0  0  0  0  0  0  0  0  0
   40.7340   85.6410   64.3340 F   0  0  0  0  0  0  0  0  0  0  0  0
   40.1170   83.6550   65.1830 F   0  0  0  0  0  0  0  0  0  0  0  0
   42.3270   84.2630   65.0460 F   0  0  0  0  0  0  0  0  0  0  0  0
   42.6650   82.8520   55.9410 O   0  0  0  0  0  0  0  0  0  0  0  0
   42.4160   83.9730   55.1600 C   0  0  0  0  0  0  0  0  0  0  0  0
   42.4970   83.6440   54.0900 H   0  0  0  0  0  0  0  0  0  0  0  0
   41.4400   84.4400   55.2920 H   0  0  0  0  0  0  0  0  0  0  0  0
   43.4610   84.9050   55.3640 O   0  0  0  0  0  0  0  0  0  0  0  0
   44.7920   84.6210   55.2620 C   0  0  0  0  0  0  0  0  0  0  0  0
   45.7700   84.5480   56.2250 C   0  0  0  0  0  0  0  0  0  0  0  0
   45.4080   84.7500   57.2080 H   0  0  0  0  0  0  0  0  0  0  0  0
   47.0770   84.2370   55.8770 C   0  0  0  0  0  3  0  0  0  0  0  0
   47.4360   83.9910   54.5520 C   0  0  0  0  0  0  0  0  0  0  0  0
   48.4790   83.7480   54.3130 H   0  0  0  0  0  0  0  0  0  0  0  0
   46.4580   84.0610   53.5610 C   0  0  0  0  0  0  0  0  0  0  0  0
   46.7590   83.8680   52.5570 H   0  0  0  0  0  0  0  0  0  0  0  0
   45.1460   84.3750   53.9300 C   0  0  0  0  0  3  0  0  0  0  0  0
  2  1  1  0  0  0  0
  2  3  1  0  0  0  0
  3 12  1  0  0  0  0
  4  3  2  0  0  0  0
  4  9  1  0  0  0  0
  5  4  1  0  0  0  0
  6  8  1  0  0  0  0
  6  5  2  0  0  0  0
  7  6  1  0  0  0  0
  8  2  2  0  0  0  0
 10  5  1  0  0  0  0
 11 16  1  0  0  0  0
 12 13  1  0  0  0  0
 12 11  2  0  0  0  0
 13 14  2  0  0  0  0
 14 15  1  0  0  0  0
 15 19  1  0  0  0  0
 16 15  2  0  0  0  0
 17 11  1  0  0  0  0
 18 13  1  0  0  0  0
 19 22  1  0  0  0  0
 19 21  1  0  0  0  0
 20 19  1  0  0  0  0
 23  8  1  0  0  0  0
 24 26  1  0  0  0  0
 24 27  1  0  0  0  0
 24 23  1  0  0  0  0
 25 24  1  0  0  0  0
 28 27  1  0  0  0  0
 28 29  1  0  0  0  0
 29 30  1  0  0  0  0
 31 29  2  0  0  0  0
 32 31  1  0  0  0  0
 33 32  1  0  0  0  0
 34 36  1  0  0  0  0
 34 32  2  0  0  0  0
 35 34  1  0  0  0  0
 36 28  2  0  0  0  0
M  END
>  <minimizedAffinity>
-4.774611

>  <minimizedRMSD>
0.371976554

$$$$
