
 OpenBabel03212520213D

 36 38  0  0  0  0  0  0  0  0999 V2000
   40.4240   73.3260   56.9980 Cl  0  0  0  0  0  0  0  0  0  0  0  0
   39.8110   73.5600   58.6210 C   0  0  0  0  0  0  0  0  0  0  0  0
   38.7500   74.4170   58.9220 C   0  0  0  0  0  0  0  0  0  0  0  0
   38.3950   74.4840   60.2440 C   0  0  0  0  0  0  0  0  0  0  0  0
   38.9580   73.8090   61.2980 C   0  0  0  0  0  0  0  0  0  0  0  0
   39.9910   72.9810   60.9610 C   0  0  0  0  0  0  0  0  0  0  0  0
   40.8130   72.0480   62.2080 Cl  0  0  0  0  0  0  0  0  0  0  0  0
   40.4170   72.8530   59.6460 C   0  0  0  0  0  0  0  0  0  0  0  0
   37.5600   75.1670   60.4380 H   0  0  0  0  0  0  0  0  0  0  0  0
   38.5960   73.9370   62.3080 H   0  0  0  0  0  0  0  0  0  0  0  0
   37.1480   74.6630   56.9650 C   0  0  0  0  0  0  0  0  0  0  0  0
   38.1370   75.1360   57.8670 C   0  0  0  0  0  0  0  0  0  0  0  0
   38.5490   76.4460   57.6970 C   0  0  0  0  0  0  0  0  0  0  0  0
   37.9780   77.1650   56.6900 N   0  0  0  0  0  0  0  0  0  0  0  0
   37.0530   76.6920   55.8620 C   0  0  0  0  0  0  0  0  0  0  0  0
   36.6220   75.4020   55.9990 N   0  0  0  0  0  0  0  0  0  0  0  0
   36.8590   73.6270   57.1420 H   0  0  0  0  0  0  0  0  0  0  0  0
   39.3030   76.9580   58.3110 H   0  0  0  0  0  0  0  0  0  0  0  0
   36.5630   77.6390   54.8350 C   0  0  0  0  0  0  0  0  0  0  0  0
   36.1050   77.0050   53.7020 F   0  0  0  0  0  0  0  0  0  0  0  0
   35.5290   78.4180   55.3510 F   0  0  0  0  0  0  0  0  0  0  0  0
   37.6150   78.4850   54.3920 F   0  0  0  0  0  0  0  0  0  0  0  0
   41.4680   72.0010   59.3600 O   0  0  0  0  0  0  0  0  0  0  0  0
   41.3300   70.6680   58.9920 C   0  0  0  0  0  0  0  0  0  0  0  0
   40.2710   70.3780   59.2270 H   0  0  0  0  0  0  0  0  0  0  0  0
   41.5110   70.4410   57.9410 H   0  0  0  0  0  0  0  0  0  0  0  0
   42.1480   69.8800   59.8350 O   0  0  0  0  0  0  0  0  0  0  0  0
   41.9070   68.5780   60.1630 C   0  0  0  0  0  0  0  0  0  0  0  0
   41.7860   67.4620   59.3700 C   0  0  0  0  0  0  0  0  0  0  0  0
   41.9030   67.6680   58.3310 H   0  0  0  0  0  0  0  0  0  0  0  0
   41.5350   66.2200   59.9400 C   0  0  0  0  0  3  0  0  0  0  0  0
   41.4000   66.0690   61.3190 C   0  0  0  0  0  0  0  0  0  0  0  0
   41.2020   65.0720   61.7350 H   0  0  0  0  0  0  0  0  0  0  0  0
   41.5200   67.1900   62.1380 C   0  0  0  0  0  0  0  0  0  0  0  0
   41.4120   67.0460   63.1890 H   0  0  0  0  0  0  0  0  0  0  0  0
   41.7720   68.4320   61.5480 C   0  0  0  0  0  3  0  0  0  0  0  0
  1  2  1  0  0  0  0
  2  3  2  0  0  0  0
  2  8  1  0  0  0  0
  3  4  1  0  0  0  0
  4  9  1  0  0  0  0
  4  5  2  0  0  0  0
  5 10  1  0  0  0  0
  6  5  1  0  0  0  0
  6  7  1  0  0  0  0
  8  6  2  0  0  0  0
 11 17  1  0  0  0  0
 11 12  1  0  0  0  0
 12  3  1  0  0  0  0
 13 12  2  0  0  0  0
 13 18  1  0  0  0  0
 14 13  1  0  0  0  0
 15 16  1  0  0  0  0
 15 14  2  0  0  0  0
 16 11  2  0  0  0  0
 19 21  1  0  0  0  0
 19 15  1  0  0  0  0
 20 19  1  0  0  0  0
 22 19  1  0  0  0  0
 23  8  1  0  0  0  0
 24 25  1  0  0  0  0
 24 23  1  0  0  0  0
 24 27  1  0  0  0  0
 26 24  1  0  0  0  0
 27 28  1  0  0  0  0
 28 36  1  0  0  0  0
 29 31  1  0  0  0  0
 29 28  2  0  0  0  0
 30 29  1  0  0  0  0
 31 32  2  0  0  0  0
 32 33  1  0  0  0  0
 32 34  1  0  0  0  0
 34 35  1  0  0  0  0
 36 34  2  0  0  0  0
M  END
>  <minimizedAffinity>
-6.56321049

$$$$

 OpenBabel03212520213D

 36 38  0  0  0  0  0  0  0  0999 V2000
   43.3580   72.2980   60.7740 Cl  0  0  0  0  0  0  0  0  0  0  0  0
   42.1360   71.6220   59.7180 C   0  0  0  0  0  0  0  0  0  0  0  0
   41.1350   72.3900   59.1180 C   0  0  0  0  0  0  0  0  0  0  0  0
   40.2570   71.7040   58.3190 C   0  0  0  0  0  0  0  0  0  0  0  0
   40.2500   70.3600   58.0430 C   0  0  0  0  0  0  0  0  0  0  0  0
   41.2450   69.6460   58.6490 C   0  0  0  0  0  0  0  0  0  0  0  0
   41.3650   67.9090   58.3880 Cl  0  0  0  0  0  0  0  0  0  0  0  0
   42.1770   70.2600   59.4740 C   0  0  0  0  0  0  0  0  0  0  0  0
   39.4880   72.3410   57.8690 H   0  0  0  0  0  0  0  0  0  0  0  0
   39.5060   69.9210   57.3950 H   0  0  0  0  0  0  0  0  0  0  0  0
   41.9240   74.7830   58.7940 C   0  0  0  0  0  0  0  0  0  0  0  0
   41.1010   73.7820   59.3730 C   0  0  0  0  0  0  0  0  0  0  0  0
   40.1600   74.2140   60.2910 C   0  0  0  0  0  0  0  0  0  0  0  0
   40.1020   75.5500   60.5590 N   0  0  0  0  0  0  0  0  0  0  0  0
   40.8880   76.4620   59.9980 C   0  0  0  0  0  0  0  0  0  0  0  0
   41.8300   76.0720   59.0880 N   0  0  0  0  0  0  0  0  0  0  0  0
   42.6470   74.3900   58.0790 H   0  0  0  0  0  0  0  0  0  0  0  0
   39.4510   73.5670   60.8250 H   0  0  0  0  0  0  0  0  0  0  0  0
   40.6610   77.8600   60.4290 C   0  0  0  0  0  0  0  0  0  0  0  0
   39.8830   78.5700   59.5430 F   0  0  0  0  0  0  0  0  0  0  0  0
   40.0410   77.8860   61.6770 F   0  0  0  0  0  0  0  0  0  0  0  0
   41.8900   78.5680   60.4990 F   0  0  0  0  0  0  0  0  0  0  0  0
   43.1650   69.4900   60.0620 O   0  0  0  0  0  0  0  0  0  0  0  0
   43.1520   69.0570   61.3810 C   0  0  0  0  0  0  0  0  0  0  0  0
   44.2140   69.0930   61.7430 H   0  0  0  0  0  0  0  0  0  0  0  0
   42.5450   69.6450   62.0720 H   0  0  0  0  0  0  0  0  0  0  0  0
   42.7760   67.6930   61.4040 O   0  0  0  0  0  0  0  0  0  0  0  0
   41.7010   67.1900   62.0780 C   0  0  0  0  0  0  0  0  0  0  0  0
   41.0080   66.0150   61.9100 C   0  0  0  0  0  0  0  0  0  0  0  0
   41.3890   65.4100   61.1200 H   0  0  0  0  0  0  0  0  0  0  0  0
   39.9280   65.7140   62.7310 C   0  0  0  0  0  3  0  0  0  0  0  0
   39.5180   66.5860   63.7380 C   0  0  0  0  0  0  0  0  0  0  0  0
   38.6600   66.3150   64.3680 H   0  0  0  0  0  0  0  0  0  0  0  0
   40.2090   67.7820   63.9220 C   0  0  0  0  0  0  0  0  0  0  0  0
   39.8730   68.4290   64.7000 H   0  0  0  0  0  0  0  0  0  0  0  0
   41.2930   68.0690   63.0880 C   0  0  0  0  0  3  0  0  0  0  0  0
  2  1  1  0  0  0  0
  3 12  1  0  0  0  0
  3  2  2  0  0  0  0
  4  3  1  0  0  0  0
  5  4  2  0  0  0  0
  5  6  1  0  0  0  0
  6  8  2  0  0  0  0
  7  6  1  0  0  0  0
  8  2  1  0  0  0  0
  8 23  1  0  0  0  0
  9  4  1  0  0  0  0
 10  5  1  0  0  0  0
 11 16  2  0  0  0  0
 11 12  1  0  0  0  0
 12 13  2  0  0  0  0
 13 14  1  0  0  0  0
 13 18  1  0  0  0  0
 15 19  1  0  0  0  0
 15 14  2  0  0  0  0
 16 15  1  0  0  0  0
 17 11  1  0  0  0  0
 19 22  1  0  0  0  0
 19 21  1  0  0  0  0
 20 19  1  0  0  0  0
 23 24  1  0  0  0  0
 24 27  1  0  0  0  0
 24 25  1  0  0  0  0
 24 26  1  0  0  0  0
 27 28  1  0  0  0  0
 28 36  1  0  0  0  0
 29 28  2  0  0  0  0
 29 31  1  0  0  0  0
 30 29  1  0  0  0  0
 31 32  2  0  0  0  0
 32 34  1  0  0  0  0
 32 33  1  0  0  0  0
 34 35  1  0  0  0  0
 36 34  2  0  0  0  0
M  END
>  <minimizedAffinity>
-6.31800222

$$$$

 OpenBabel03212520213D

 36 38  0  0  0  0  0  0  0  0999 V2000
   40.2980   73.0600   57.0600 Cl  0  0  0  0  0  0  0  0  0  0  0  0
   39.9510   73.5090   58.7160 C   0  0  0  0  0  0  0  0  0  0  0  0
   39.0440   74.5130   59.0630 C   0  0  0  0  0  0  0  0  0  0  0  0
   38.8900   74.7390   60.4050 C   0  0  0  0  0  0  0  0  0  0  0  0
   39.5190   74.0960   61.4420 C   0  0  0  0  0  0  0  0  0  0  0  0
   40.3980   73.1200   61.0600 C   0  0  0  0  0  0  0  0  0  0  0  0
   41.2810   72.2070   62.2790 Cl  0  0  0  0  0  0  0  0  0  0  0  0
   40.6150   72.8260   59.7210 C   0  0  0  0  0  0  0  0  0  0  0  0
   38.1710   75.5340   60.6350 H   0  0  0  0  0  0  0  0  0  0  0  0
   39.3220   74.3550   62.4710 H   0  0  0  0  0  0  0  0  0  0  0  0
   37.2660   74.7470   57.2630 C   0  0  0  0  0  0  0  0  0  0  0  0
   38.3700   75.2060   58.0280 C   0  0  0  0  0  0  0  0  0  0  0  0
   38.8400   76.4730   57.7300 C   0  0  0  0  0  0  0  0  0  0  0  0
   38.2130   77.1660   56.7390 N   0  0  0  0  0  0  0  0  0  0  0  0
   37.1800   76.7060   56.0410 C   0  0  0  0  0  0  0  0  0  0  0  0
   36.6880   75.4600   56.3070 N   0  0  0  0  0  0  0  0  0  0  0  0
   36.9340   73.7450   57.5370 H   0  0  0  0  0  0  0  0  0  0  0  0
   39.6840   76.9690   58.2300 H   0  0  0  0  0  0  0  0  0  0  0  0
   36.6450   77.6210   55.0060 C   0  0  0  0  0  0  0  0  0  0  0  0
   35.5320   78.3120   55.4310 F   0  0  0  0  0  0  0  0  0  0  0  0
   37.6170   78.5440   54.6270 F   0  0  0  0  0  0  0  0  0  0  0  0
   36.2180   76.8900   53.8660 F   0  0  0  0  0  0  0  0  0  0  0  0
   41.5150   71.8290   59.3900 O   0  0  0  0  0  0  0  0  0  0  0  0
   41.1740   70.5070   59.1350 C   0  0  0  0  0  0  0  0  0  0  0  0
   40.3370   70.2490   59.8380 H   0  0  0  0  0  0  0  0  0  0  0  0
   40.8370   70.2870   58.1210 H   0  0  0  0  0  0  0  0  0  0  0  0
   42.2630   69.6810   59.5020 O   0  0  0  0  0  0  0  0  0  0  0  0
   42.4600   69.1560   60.7460 C   0  0  0  0  0  0  0  0  0  0  0  0
   43.3920   69.4580   61.7100 C   0  0  0  0  0  0  0  0  0  0  0  0
   44.0620   70.2340   61.4190 H   0  0  0  0  0  0  0  0  0  0  0  0
   43.3970   68.7760   62.9200 C   0  0  0  0  0  3  0  0  0  0  0  0
   42.4670   67.7740   63.1910 C   0  0  0  0  0  0  0  0  0  0  0  0
   42.5000   67.2560   64.1580 H   0  0  0  0  0  0  0  0  0  0  0  0
   41.5150   67.4540   62.2250 C   0  0  0  0  0  0  0  0  0  0  0  0
   40.8150   66.6840   62.4600 H   0  0  0  0  0  0  0  0  0  0  0  0
   41.5240   68.1500   61.0130 C   0  0  0  0  0  3  0  0  0  0  0  0
  1  2  1  0  0  0  0
  2  3  2  0  0  0  0
  2  8  1  0  0  0  0
  3  4  1  0  0  0  0
  4  9  1  0  0  0  0
  4  5  2  0  0  0  0
  5 10  1  0  0  0  0
  6  5  1  0  0  0  0
  6  7  1  0  0  0  0
  8  6  2  0  0  0  0
 11 17  1  0  0  0  0
 11 12  1  0  0  0  0
 12  3  1  0  0  0  0
 13 12  2  0  0  0  0
 13 18  1  0  0  0  0
 14 13  1  0  0  0  0
 15 16  1  0  0  0  0
 15 14  2  0  0  0  0
 16 11  2  0  0  0  0
 19 20  1  0  0  0  0
 19 15  1  0  0  0  0
 21 19  1  0  0  0  0
 22 19  1  0  0  0  0
 23  8  1  0  0  0  0
 24 23  1  0  0  0  0
 24 27  1  0  0  0  0
 24 25  1  0  0  0  0
 26 24  1  0  0  0  0
 27 28  1  0  0  0  0
 28 36  2  0  0  0  0
 28 29  1  0  0  0  0
 29 31  2  0  0  0  0
 30 29  1  0  0  0  0
 31 32  1  0  0  0  0
 32 33  1  0  0  0  0
 34 35  1  0  0  0  0
 34 32  2  0  0  0  0
 36 34  1  0  0  0  0
M  END
>  <minimizedAffinity>
-6.15480852

$$$$

 OpenBabel03212520213D

 36 38  0  0  0  0  0  0  0  0999 V2000
   39.1970   72.2870   58.4720 Cl  0  0  0  0  0  0  0  0  0  0  0  0
   40.1430   73.7450   58.6780 C   0  0  0  0  0  0  0  0  0  0  0  0
   41.1330   73.8840   59.6540 C   0  0  0  0  0  0  0  0  0  0  0  0
   41.7800   75.0920   59.6790 C   0  0  0  0  0  0  0  0  0  0  0  0
   41.5670   76.1740   58.8610 C   0  0  0  0  0  0  0  0  0  0  0  0
   40.5920   75.9970   57.9210 C   0  0  0  0  0  0  0  0  0  0  0  0
   40.2070   77.2970   56.7980 Cl  0  0  0  0  0  0  0  0  0  0  0  0
   39.8860   74.8050   57.8250 C   0  0  0  0  0  0  0  0  0  0  0  0
   42.5470   75.1610   60.4580 H   0  0  0  0  0  0  0  0  0  0  0  0
   42.1380   77.0840   58.9690 H   0  0  0  0  0  0  0  0  0  0  0  0
   40.8990   72.6150   61.8430 C   0  0  0  0  0  0  0  0  0  0  0  0
   41.3880   72.7950   60.5230 C   0  0  0  0  0  0  0  0  0  0  0  0
   42.2060   71.7950   60.0280 C   0  0  0  0  0  0  0  0  0  0  0  0
   42.4720   70.7320   60.8390 N   0  0  0  0  0  0  0  0  0  0  0  0
   41.9970   70.5950   62.0720 C   0  0  0  0  0  0  0  0  0  0  0  0
   41.1860   71.5630   62.5950 N   0  0  0  0  0  0  0  0  0  0  0  0
   40.2610   73.4300   62.1850 H   0  0  0  0  0  0  0  0  0  0  0  0
   42.6630   71.7860   59.0280 H   0  0  0  0  0  0  0  0  0  0  0  0
   42.4080   69.3640   62.7860 C   0  0  0  0  0  0  0  0  0  0  0  0
   41.8630   69.2730   64.0470 F   0  0  0  0  0  0  0  0  0  0  0  0
   42.0270   68.2360   62.0620 F   0  0  0  0  0  0  0  0  0  0  0  0
   43.8140   69.3450   62.9830 F   0  0  0  0  0  0  0  0  0  0  0  0
   38.9090   74.6790   56.8540 O   0  0  0  0  0  0  0  0  0  0  0  0
   37.5420   74.7410   57.0930 C   0  0  0  0  0  0  0  0  0  0  0  0
   37.0450   74.1550   56.2740 H   0  0  0  0  0  0  0  0  0  0  0  0
   37.2040   74.3330   58.0470 H   0  0  0  0  0  0  0  0  0  0  0  0
   37.1160   76.0800   56.9300 O   0  0  0  0  0  0  0  0  0  0  0  0
   36.8140   76.6640   55.7350 C   0  0  0  0  0  0  0  0  0  0  0  0
   36.6830   77.9890   55.3910 C   0  0  0  0  0  0  0  0  0  0  0  0
   36.8500   78.6540   56.2070 H   0  0  0  0  0  0  0  0  0  0  0  0
   36.3630   78.3480   54.0870 C   0  0  0  0  0  3  0  0  0  0  0  0
   36.1670   77.3850   53.0980 C   0  0  0  0  0  0  0  0  0  0  0  0
   35.9150   77.7050   52.0790 H   0  0  0  0  0  0  0  0  0  0  0  0
   36.2950   76.0370   53.4290 C   0  0  0  0  0  0  0  0  0  0  0  0
   36.1400   75.3230   52.6520 H   0  0  0  0  0  0  0  0  0  0  0  0
   36.6180   75.6940   54.7450 C   0  0  0  0  0  3  0  0  0  0  0  0
  1  2  1  0  0  0  0
  2  3  1  0  0  0  0
  3  4  2  0  0  0  0
  3 12  1  0  0  0  0
  4  9  1  0  0  0  0
  5 10  1  0  0  0  0
  5  4  1  0  0  0  0
  6  5  2  0  0  0  0
  7  6  1  0  0  0  0
  8  6  1  0  0  0  0
  8  2  2  0  0  0  0
 11 17  1  0  0  0  0
 11 16  1  0  0  0  0
 12 11  2  0  0  0  0
 13 12  1  0  0  0  0
 13 14  2  0  0  0  0
 14 15  1  0  0  0  0
 15 16  2  0  0  0  0
 15 19  1  0  0  0  0
 18 13  1  0  0  0  0
 19 22  1  0  0  0  0
 19 20  1  0  0  0  0
 21 19  1  0  0  0  0
 23 24  1  0  0  0  0
 23  8  1  0  0  0  0
 24 26  1  0  0  0  0
 25 24  1  0  0  0  0
 27 24  1  0  0  0  0
 28 27  1  0  0  0  0
 29 28  1  0  0  0  0
 29 30  1  0  0  0  0
 31 29  2  0  0  0  0
 32 34  2  0  0  0  0
 32 31  1  0  0  0  0
 33 32  1  0  0  0  0
 34 36  1  0  0  0  0
 35 34  1  0  0  0  0
 36 28  2  0  0  0  0
M  END
>  <minimizedAffinity>
-6.06847334

$$$$

 OpenBabel03212520213D

 36 38  0  0  0  0  0  0  0  0999 V2000
   41.2640   74.5050   57.4340 Cl  0  0  0  0  0  0  0  0  0  0  0  0
   40.3450   74.1680   58.8850 C   0  0  0  0  0  0  0  0  0  0  0  0
   39.0040   74.5260   59.0410 C   0  0  0  0  0  0  0  0  0  0  0  0
   38.4330   74.1890   60.2400 C   0  0  0  0  0  0  0  0  0  0  0  0
   39.0240   73.5440   61.2980 C   0  0  0  0  0  0  0  0  0  0  0  0
   40.3360   73.2120   61.1050 C   0  0  0  0  0  0  0  0  0  0  0  0
   41.2280   72.3800   62.3740 Cl  0  0  0  0  0  0  0  0  0  0  0  0
   40.9920   73.5160   59.9200 C   0  0  0  0  0  0  0  0  0  0  0  0
   37.3820   74.4860   60.3230 H   0  0  0  0  0  0  0  0  0  0  0  0
   38.4780   73.3260   62.2030 H   0  0  0  0  0  0  0  0  0  0  0  0
   37.5190   74.6170   56.9810 C   0  0  0  0  0  0  0  0  0  0  0  0
   38.3500   75.1940   57.9770 C   0  0  0  0  0  0  0  0  0  0  0  0
   38.5450   76.5610   57.8990 C   0  0  0  0  0  0  0  0  0  0  0  0
   37.9300   77.2340   56.8860 N   0  0  0  0  0  0  0  0  0  0  0  0
   37.1570   76.6630   55.9690 C   0  0  0  0  0  0  0  0  0  0  0  0
   36.9410   75.3140   56.0130 N   0  0  0  0  0  0  0  0  0  0  0  0
   37.3980   73.5390   57.0880 H   0  0  0  0  0  0  0  0  0  0  0  0
   39.1590   77.1540   58.5910 H   0  0  0  0  0  0  0  0  0  0  0  0
   36.5830   77.5740   54.9520 C   0  0  0  0  0  0  0  0  0  0  0  0
   35.5300   78.3170   55.4370 F   0  0  0  0  0  0  0  0  0  0  0  0
   37.5600   78.4510   54.4850 F   0  0  0  0  0  0  0  0  0  0  0  0
   36.0510   76.8360   53.8620 F   0  0  0  0  0  0  0  0  0  0  0  0
   42.3210   73.1560   59.7770 O   0  0  0  0  0  0  0  0  0  0  0  0
   42.7620   71.9550   59.2380 C   0  0  0  0  0  0  0  0  0  0  0  0
   43.1750   72.1910   58.2210 H   0  0  0  0  0  0  0  0  0  0  0  0
   43.5400   71.4360   59.8000 H   0  0  0  0  0  0  0  0  0  0  0  0
   41.6420   71.1180   59.0220 O   0  0  0  0  0  0  0  0  0  0  0  0
   41.5360   70.1980   58.0210 C   0  0  0  0  0  0  0  0  0  0  0  0
   41.4520   68.8260   58.0680 C   0  0  0  0  0  0  0  0  0  0  0  0
   41.4760   68.4370   59.0600 H   0  0  0  0  0  0  0  0  0  0  0  0
   41.3500   68.0880   56.8960 C   0  0  0  0  0  3  0  0  0  0  0  0
   41.3300   68.7090   55.6480 C   0  0  0  0  0  0  0  0  0  0  0  0
   41.2470   68.0940   54.7420 H   0  0  0  0  0  0  0  0  0  0  0  0
   41.4130   70.0980   55.5810 C   0  0  0  0  0  0  0  0  0  0  0  0
   41.3950   70.5460   54.6130 H   0  0  0  0  0  0  0  0  0  0  0  0
   41.5160   70.8260   56.7700 C   0  0  0  0  0  3  0  0  0  0  0  0
  1  2  1  0  0  0  0
  2  3  2  0  0  0  0
  2  8  1  0  0  0  0
  3  4  1  0  0  0  0
  4  9  1  0  0  0  0
  4  5  2  0  0  0  0
  5 10  1  0  0  0  0
  6  5  1  0  0  0  0
  6  7  1  0  0  0  0
  8  6  2  0  0  0  0
 11 17  1  0  0  0  0
 11 12  1  0  0  0  0
 12  3  1  0  0  0  0
 13 12  2  0  0  0  0
 13 18  1  0  0  0  0
 14 13  1  0  0  0  0
 15 16  1  0  0  0  0
 15 14  2  0  0  0  0
 16 11  2  0  0  0  0
 19 20  1  0  0  0  0
 19 15  1  0  0  0  0
 21 19  1  0  0  0  0
 22 19  1  0  0  0  0
 23  8  1  0  0  0  0
 24 23  1  0  0  0  0
 24 26  1  0  0  0  0
 25 24  1  0  0  0  0
 27 24  1  0  0  0  0
 28 29  1  0  0  0  0
 28 27  1  0  0  0  0
 29 30  1  0  0  0  0
 31 29  2  0  0  0  0
 32 31  1  0  0  0  0
 33 32  1  0  0  0  0
 34 32  2  0  0  0  0
 34 36  1  0  0  0  0
 35 34  1  0  0  0  0
 36 28  2  0  0  0  0
M  END
>  <minimizedAffinity>
-5.96417284

$$$$

 OpenBabel03212520213D

 36 38  0  0  0  0  0  0  0  0999 V2000
   39.3520   73.4170   61.3180 Cl  0  0  0  0  0  0  0  0  0  0  0  0
   40.8720   73.9490   60.6320 C   0  0  0  0  0  0  0  0  0  0  0  0
   42.0370   73.1800   60.6650 C   0  0  0  0  0  0  0  0  0  0  0  0
   43.1410   73.7460   60.0820 C   0  0  0  0  0  0  0  0  0  0  0  0
   43.2320   74.9730   59.4740 C   0  0  0  0  0  0  0  0  0  0  0  0
   42.0700   75.6930   59.4630 C   0  0  0  0  0  0  0  0  0  0  0  0
   42.0320   77.2870   58.7180 Cl  0  0  0  0  0  0  0  0  0  0  0  0
   40.9050   75.1960   60.0310 C   0  0  0  0  0  0  0  0  0  0  0  0
   44.0330   73.1120   60.1290 H   0  0  0  0  0  0  0  0  0  0  0  0
   44.1580   75.3230   59.0440 H   0  0  0  0  0  0  0  0  0  0  0  0
   41.9810   71.6240   62.6730 C   0  0  0  0  0  0  0  0  0  0  0  0
   41.9930   71.9060   61.2820 C   0  0  0  0  0  0  0  0  0  0  0  0
   41.9590   70.8140   60.4320 C   0  0  0  0  0  0  0  0  0  0  0  0
   41.9170   69.5730   60.9950 N   0  0  0  0  0  0  0  0  0  0  0  0
   41.9060   69.3440   62.3040 C   0  0  0  0  0  0  0  0  0  0  0  0
   41.9390   70.3980   63.1730 N   0  0  0  0  0  0  0  0  0  0  0  0
   42.0090   72.5170   63.2980 H   0  0  0  0  0  0  0  0  0  0  0  0
   41.9640   70.8650   59.3350 H   0  0  0  0  0  0  0  0  0  0  0  0
   41.8580   67.9200   62.7070 C   0  0  0  0  0  0  0  0  0  0  0  0
   42.6670   67.1200   61.9310 F   0  0  0  0  0  0  0  0  0  0  0  0
   42.2500   67.7810   64.0370 F   0  0  0  0  0  0  0  0  0  0  0  0
   40.5480   67.3980   62.5440 F   0  0  0  0  0  0  0  0  0  0  0  0
   39.7570   75.9670   59.9920 O   0  0  0  0  0  0  0  0  0  0  0  0
   39.0290   76.2460   58.8430 C   0  0  0  0  0  0  0  0  0  0  0  0
   38.2340   76.9830   59.1370 H   0  0  0  0  0  0  0  0  0  0  0  0
   39.5920   76.6780   58.0140 H   0  0  0  0  0  0  0  0  0  0  0  0
   38.3480   75.0730   58.4430 O   0  0  0  0  0  0  0  0  0  0  0  0
   38.8100   74.1750   57.5260 C   0  0  0  0  0  0  0  0  0  0  0  0
   39.7210   74.3220   56.5070 C   0  0  0  0  0  0  0  0  0  0  0  0
   40.1200   75.3080   56.4380 H   0  0  0  0  0  0  0  0  0  0  0  0
   40.0380   73.2460   55.6880 C   0  0  0  0  0  3  0  0  0  0  0  0
   39.4500   71.9960   55.8730 C   0  0  0  0  0  0  0  0  0  0  0  0
   39.7250   71.1670   55.2070 H   0  0  0  0  0  0  0  0  0  0  0  0
   38.5240   71.8280   56.9020 C   0  0  0  0  0  0  0  0  0  0  0  0
   38.0900   70.8610   57.0210 H   0  0  0  0  0  0  0  0  0  0  0  0
   38.2170   72.9220   57.7160 C   0  0  0  0  0  3  0  0  0  0  0  0
  2  3  1  0  0  0  0
  2  1  1  0  0  0  0
  3 12  1  0  0  0  0
  4  9  1  0  0  0  0
  4  3  2  0  0  0  0
  5  4  1  0  0  0  0
  6  5  2  0  0  0  0
  6  8  1  0  0  0  0
  7  6  1  0  0  0  0
  8  2  2  0  0  0  0
 10  5  1  0  0  0  0
 11 16  1  0  0  0  0
 11 17  1  0  0  0  0
 12 11  2  0  0  0  0
 13 14  2  0  0  0  0
 13 12  1  0  0  0  0
 14 15  1  0  0  0  0
 15 19  1  0  0  0  0
 15 16  2  0  0  0  0
 18 13  1  0  0  0  0
 19 21  1  0  0  0  0
 20 19  1  0  0  0  0
 22 19  1  0  0  0  0
 23  8  1  0  0  0  0
 24 25  1  0  0  0  0
 24 23  1  0  0  0  0
 26 24  1  0  0  0  0
 27 24  1  0  0  0  0
 28 36  1  0  0  0  0
 28 27  1  0  0  0  0
 29 28  2  0  0  0  0
 30 29  1  0  0  0  0
 31 32  2  0  0  0  0
 31 29  1  0  0  0  0
 32 34  1  0  0  0  0
 33 32  1  0  0  0  0
 34 35  1  0  0  0  0
 34 36  2  0  0  0  0
M  END
>  <minimizedAffinity>
-5.85594416

$$$$

 OpenBabel03212520213D

 36 38  0  0  0  0  0  0  0  0999 V2000
   42.6290   72.1570   61.6600 Cl  0  0  0  0  0  0  0  0  0  0  0  0
   41.7820   71.5560   60.2520 C   0  0  0  0  0  0  0  0  0  0  0  0
   40.9580   72.3550   59.4550 C   0  0  0  0  0  0  0  0  0  0  0  0
   40.3700   71.7270   58.3890 C   0  0  0  0  0  0  0  0  0  0  0  0
   40.4960   70.4110   58.0170 C   0  0  0  0  0  0  0  0  0  0  0  0
   41.3100   69.6650   58.8220 C   0  0  0  0  0  0  0  0  0  0  0  0
   41.5700   67.9600   58.4690 Cl  0  0  0  0  0  0  0  0  0  0  0  0
   41.9460   70.2210   59.9230 C   0  0  0  0  0  0  0  0  0  0  0  0
   39.7320   72.3860   57.7910 H   0  0  0  0  0  0  0  0  0  0  0  0
   39.9830   70.0180   57.1520 H   0  0  0  0  0  0  0  0  0  0  0  0
   39.8280   74.2760   60.6760 C   0  0  0  0  0  0  0  0  0  0  0  0
   40.7970   73.7190   59.8000 C   0  0  0  0  0  0  0  0  0  0  0  0
   41.6820   74.6080   59.2160 C   0  0  0  0  0  0  0  0  0  0  0  0
   41.5530   75.9280   59.5270 N   0  0  0  0  0  0  0  0  0  0  0  0
   40.6330   76.4180   60.3520 C   0  0  0  0  0  0  0  0  0  0  0  0
   39.7420   75.5700   60.9470 N   0  0  0  0  0  0  0  0  0  0  0  0
   39.1560   73.5340   61.1080 H   0  0  0  0  0  0  0  0  0  0  0  0
   42.4860   74.3350   58.5190 H   0  0  0  0  0  0  0  0  0  0  0  0
   40.6650   77.8840   60.5540 C   0  0  0  0  0  0  0  0  0  0  0  0
   39.9000   78.5650   59.6330 F   0  0  0  0  0  0  0  0  0  0  0  0
   40.2060   78.2060   61.8300 F   0  0  0  0  0  0  0  0  0  0  0  0
   41.9840   78.3840   60.3880 F   0  0  0  0  0  0  0  0  0  0  0  0
   42.7600   69.4200   60.7040 O   0  0  0  0  0  0  0  0  0  0  0  0
   42.3190   68.6330   61.7600 C   0  0  0  0  0  0  0  0  0  0  0  0
   42.2980   69.2950   62.6670 H   0  0  0  0  0  0  0  0  0  0  0  0
   41.3280   68.1920   61.6470 H   0  0  0  0  0  0  0  0  0  0  0  0
   43.2940   67.6420   62.0220 O   0  0  0  0  0  0  0  0  0  0  0  0
   43.5460   66.5640   61.2240 C   0  0  0  0  0  0  0  0  0  0  0  0
   42.7580   65.4860   60.8980 C   0  0  0  0  0  0  0  0  0  0  0  0
   41.7950   65.5140   61.3540 H   0  0  0  0  0  0  0  0  0  0  0  0
   43.2400   64.4940   60.0520 C   0  0  0  0  0  3  0  0  0  0  0  0
   44.5230   64.5630   59.5120 C   0  0  0  0  0  0  0  0  0  0  0  0
   44.8710   63.7620   58.8460 H   0  0  0  0  0  0  0  0  0  0  0  0
   45.3360   65.6500   59.8310 C   0  0  0  0  0  0  0  0  0  0  0  0
   46.3130   65.6760   59.4040 H   0  0  0  0  0  0  0  0  0  0  0  0
   44.8350   66.6370   60.6850 C   0  0  0  0  0  3  0  0  0  0  0  0
  2  1  1  0  0  0  0
  3 12  1  0  0  0  0
  3  2  2  0  0  0  0
  4  3  1  0  0  0  0
  5  4  2  0  0  0  0
  5  6  1  0  0  0  0
  6  8  2  0  0  0  0
  7  6  1  0  0  0  0
  8  2  1  0  0  0  0
  8 23  1  0  0  0  0
  9  4  1  0  0  0  0
 10  5  1  0  0  0  0
 11 16  1  0  0  0  0
 11 17  1  0  0  0  0
 12 11  2  0  0  0  0
 13 14  2  0  0  0  0
 13 12  1  0  0  0  0
 14 15  1  0  0  0  0
 15 19  1  0  0  0  0
 15 16  2  0  0  0  0
 18 13  1  0  0  0  0
 19 21  1  0  0  0  0
 20 19  1  0  0  0  0
 22 19  1  0  0  0  0
 23 24  1  0  0  0  0
 24 27  1  0  0  0  0
 24 25  1  0  0  0  0
 26 24  1  0  0  0  0
 28 27  1  0  0  0  0
 29 28  1  0  0  0  0
 29 30  1  0  0  0  0
 31 29  2  0  0  0  0
 32 34  2  0  0  0  0
 32 31  1  0  0  0  0
 33 32  1  0  0  0  0
 34 36  1  0  0  0  0
 35 34  1  0  0  0  0
 36 28  2  0  0  0  0
M  END
>  <minimizedAffinity>
-5.66478157

$$$$

 OpenBabel03212520213D

 36 38  0  0  0  0  0  0  0  0999 V2000
   40.2770   70.8290   58.0510 Cl  0  0  0  0  0  0  0  0  0  0  0  0
   41.5830   70.3950   59.1340 C   0  0  0  0  0  0  0  0  0  0  0  0
   42.0190   71.2180   60.1750 C   0  0  0  0  0  0  0  0  0  0  0  0
   43.0530   70.7280   60.9290 C   0  0  0  0  0  0  0  0  0  0  0  0
   43.7050   69.5290   60.7790 C   0  0  0  0  0  0  0  0  0  0  0  0
   43.2480   68.7540   59.7500 C   0  0  0  0  0  0  0  0  0  0  0  0
   43.9860   67.1870   59.4340 Cl  0  0  0  0  0  0  0  0  0  0  0  0
   42.2040   69.1740   58.9360 C   0  0  0  0  0  0  0  0  0  0  0  0
   43.3650   71.4020   61.7330 H   0  0  0  0  0  0  0  0  0  0  0  0
   44.5120   69.2400   61.4340 H   0  0  0  0  0  0  0  0  0  0  0  0
   40.2910   72.7480   61.2380 C   0  0  0  0  0  0  0  0  0  0  0  0
   41.3770   72.4650   60.3690 C   0  0  0  0  0  0  0  0  0  0  0  0
   41.8650   73.5270   59.6280 C   0  0  0  0  0  0  0  0  0  0  0  0
   41.2690   74.7420   59.7920 N   0  0  0  0  0  0  0  0  0  0  0  0
   40.2520   74.9730   60.6150 C   0  0  0  0  0  0  0  0  0  0  0  0
   39.7440   73.9480   61.3630 N   0  0  0  0  0  0  0  0  0  0  0  0
   39.9450   71.8790   61.7980 H   0  0  0  0  0  0  0  0  0  0  0  0
   42.6980   73.4720   58.9140 H   0  0  0  0  0  0  0  0  0  0  0  0
   39.7500   76.3660   60.6430 C   0  0  0  0  0  0  0  0  0  0  0  0
   40.7650   77.2960   60.6780 F   0  0  0  0  0  0  0  0  0  0  0  0
   38.9610   76.6180   59.5230 F   0  0  0  0  0  0  0  0  0  0  0  0
   38.9880   76.5990   61.8190 F   0  0  0  0  0  0  0  0  0  0  0  0
   41.7810   68.3500   57.9080 O   0  0  0  0  0  0  0  0  0  0  0  0
   42.2890   68.3700   56.6160 C   0  0  0  0  0  0  0  0  0  0  0  0
   42.8690   69.3270   56.5130 H   0  0  0  0  0  0  0  0  0  0  0  0
   42.9550   67.5480   56.3510 H   0  0  0  0  0  0  0  0  0  0  0  0
   41.2090   68.4670   55.7070 O   0  0  0  0  0  0  0  0  0  0  0  0
   41.2300   68.0190   54.4190 C   0  0  0  0  0  0  0  0  0  0  0  0
   40.2760   68.0850   53.4310 C   0  0  0  0  0  0  0  0  0  0  0  0
   39.3800   68.5690   53.7430 H   0  0  0  0  0  0  0  0  0  0  0  0
   40.5290   67.5490   52.1740 C   0  0  0  0  0  3  0  0  0  0  0  0
   41.7450   66.9360   51.8790 C   0  0  0  0  0  0  0  0  0  0  0  0
   41.9110   66.5240   50.8750 H   0  0  0  0  0  0  0  0  0  0  0  0
   42.7240   66.8600   52.8680 C   0  0  0  0  0  0  0  0  0  0  0  0
   43.6450   66.3850   52.6140 H   0  0  0  0  0  0  0  0  0  0  0  0
   42.4530   67.4040   54.1270 C   0  0  0  0  0  3  0  0  0  0  0  0
  1  2  1  0  0  0  0
  2  3  1  0  0  0  0
  3 12  1  0  0  0  0
  3  4  2  0  0  0  0
  4  9  1  0  0  0  0
  5  4  1  0  0  0  0
  5 10  1  0  0  0  0
  6  5  2  0  0  0  0
  7  6  1  0  0  0  0
  8  2  2  0  0  0  0
  8  6  1  0  0  0  0
 11 16  1  0  0  0  0
 11 17  1  0  0  0  0
 12 11  2  0  0  0  0
 13 14  2  0  0  0  0
 13 12  1  0  0  0  0
 14 15  1  0  0  0  0
 15 19  1  0  0  0  0
 15 16  2  0  0  0  0
 18 13  1  0  0  0  0
 19 20  1  0  0  0  0
 19 22  1  0  0  0  0
 21 19  1  0  0  0  0
 23  8  1  0  0  0  0
 24 23  1  0  0  0  0
 25 24  1  0  0  0  0
 26 24  1  0  0  0  0
 27 24  1  0  0  0  0
 28 27  1  0  0  0  0
 29 30  1  0  0  0  0
 29 28  2  0  0  0  0
 31 29  1  0  0  0  0
 32 31  2  0  0  0  0
 32 34  1  0  0  0  0
 33 32  1  0  0  0  0
 34 36  2  0  0  0  0
 35 34  1  0  0  0  0
 36 28  1  0  0  0  0
M  END
>  <minimizedAffinity>
-5.61532116

$$$$

 OpenBabel03212520213D

 36 38  0  0  0  0  0  0  0  0999 V2000
   39.2480   73.3080   59.5660 Cl  0  0  0  0  0  0  0  0  0  0  0  0
   40.8330   74.0440   59.4730 C   0  0  0  0  0  0  0  0  0  0  0  0
   42.0120   73.3080   59.3280 C   0  0  0  0  0  0  0  0  0  0  0  0
   43.1680   74.0410   59.2720 C   0  0  0  0  0  0  0  0  0  0  0  0
   43.3010   75.4050   59.3410 C   0  0  0  0  0  0  0  0  0  0  0  0
   42.1250   76.0880   59.4820 C   0  0  0  0  0  0  0  0  0  0  0  0
   42.1350   77.8450   59.5840 Cl  0  0  0  0  0  0  0  0  0  0  0  0
   40.9070   75.4250   59.5480 C   0  0  0  0  0  0  0  0  0  0  0  0
   44.0690   73.4280   59.1590 H   0  0  0  0  0  0  0  0  0  0  0  0
   44.2680   75.8820   59.2860 H   0  0  0  0  0  0  0  0  0  0  0  0
   41.9560   70.9740   60.3320 C   0  0  0  0  0  0  0  0  0  0  0  0
   41.9260   71.8970   59.2530 C   0  0  0  0  0  0  0  0  0  0  0  0
   41.8010   71.3570   57.9850 C   0  0  0  0  0  0  0  0  0  0  0  0
   41.7160   70.0010   57.8780 N   0  0  0  0  0  0  0  0  0  0  0  0
   41.7470   69.1650   58.9100 C   0  0  0  0  0  0  0  0  0  0  0  0
   41.8700   69.6610   60.1770 N   0  0  0  0  0  0  0  0  0  0  0  0
   42.0560   71.4500   61.3070 H   0  0  0  0  0  0  0  0  0  0  0  0
   41.7630   71.9350   57.0510 H   0  0  0  0  0  0  0  0  0  0  0  0
   41.6410   67.7260   58.5750 C   0  0  0  0  0  0  0  0  0  0  0  0
   41.1620   66.9700   59.6220 F   0  0  0  0  0  0  0  0  0  0  0  0
   40.7970   67.5450   57.4810 F   0  0  0  0  0  0  0  0  0  0  0  0
   42.9210   67.1860   58.2780 F   0  0  0  0  0  0  0  0  0  0  0  0
   39.7460   76.1640   59.6910 O   0  0  0  0  0  0  0  0  0  0  0  0
   39.1380   76.8870   58.6730 C   0  0  0  0  0  0  0  0  0  0  0  0
   38.5850   77.7330   59.1650 H   0  0  0  0  0  0  0  0  0  0  0  0
   39.8060   77.3170   57.9260 H   0  0  0  0  0  0  0  0  0  0  0  0
   38.1510   76.0740   58.0690 O   0  0  0  0  0  0  0  0  0  0  0  0
   38.1790   75.6420   56.7750 C   0  0  0  0  0  0  0  0  0  0  0  0
   39.0860   74.8470   56.1150 C   0  0  0  0  0  0  0  0  0  0  0  0
   39.8920   74.5250   56.7330 H   0  0  0  0  0  0  0  0  0  0  0  0
   38.9020   74.5370   54.7730 C   0  0  0  0  0  3  0  0  0  0  0  0
   37.8030   75.0180   54.0620 C   0  0  0  0  0  0  0  0  0  0  0  0
   37.6890   74.7530   53.0030 H   0  0  0  0  0  0  0  0  0  0  0  0
   36.8740   75.8250   54.7160 C   0  0  0  0  0  0  0  0  0  0  0  0
   36.0430   76.1790   54.1480 H   0  0  0  0  0  0  0  0  0  0  0  0
   37.0750   76.1270   56.0660 C   0  0  0  0  0  3  0  0  0  0  0  0
  2  8  1  0  0  0  0
  2  1  1  0  0  0  0
  3  2  2  0  0  0  0
  4  3  1  0  0  0  0
  4  5  2  0  0  0  0
  5  6  1  0  0  0  0
  6  8  2  0  0  0  0
  6  7  1  0  0  0  0
  8 23  1  0  0  0  0
  9  4  1  0  0  0  0
 10  5  1  0  0  0  0
 11 17  1  0  0  0  0
 12  3  1  0  0  0  0
 12 11  2  0  0  0  0
 13 12  1  0  0  0  0
 14 13  2  0  0  0  0
 14 15  1  0  0  0  0
 15 16  2  0  0  0  0
 16 11  1  0  0  0  0
 18 13  1  0  0  0  0
 19 15  1  0  0  0  0
 19 20  1  0  0  0  0
 21 19  1  0  0  0  0
 22 19  1  0  0  0  0
 24 25  1  0  0  0  0
 24 23  1  0  0  0  0
 26 24  1  0  0  0  0
 27 24  1  0  0  0  0
 28 27  1  0  0  0  0
 29 30  1  0  0  0  0
 29 28  1  0  0  0  0
 31 29  2  0  0  0  0
 32 34  2  0  0  0  0
 32 31  1  0  0  0  0
 33 32  1  0  0  0  0
 34 36  1  0  0  0  0
 35 34  1  0  0  0  0
 36 28  2  0  0  0  0
M  END
>  <minimizedAffinity>
-5.60986948

$$$$
