
 OpenBabel03212520203D

 36 38  0  0  0  0  0  0  0  0999 V2000
   43.1160   83.9420   58.6130 Cl  0  0  0  0  0  0  0  0  0  0  0  0
   41.8850   82.7610   58.2180 C   0  0  0  0  0  0  0  0  0  0  0  0
   40.9970   82.2380   59.1610 C   0  0  0  0  0  0  0  0  0  0  0  0
   40.0940   81.3230   58.6860 C   0  0  0  0  0  0  0  0  0  0  0  0
   39.9650   80.8650   57.3980 C   0  0  0  0  0  0  0  0  0  0  0  0
   40.8520   81.4010   56.5080 C   0  0  0  0  0  0  0  0  0  0  0  0
   40.8070   80.9090   54.8180 Cl  0  0  0  0  0  0  0  0  0  0  0  0
   41.8000   82.3350   56.9040 C   0  0  0  0  0  0  0  0  0  0  0  0
   39.4170   80.9370   59.4550 H   0  0  0  0  0  0  0  0  0  0  0  0
   39.2130   80.1370   57.1310 H   0  0  0  0  0  0  0  0  0  0  0  0
   41.9320   82.1600   61.5230 C   0  0  0  0  0  0  0  0  0  0  0  0
   41.0920   82.6800   60.5030 C   0  0  0  0  0  0  0  0  0  0  0  0
   40.2740   83.7380   60.8590 C   0  0  0  0  0  0  0  0  0  0  0  0
   40.3420   84.1880   62.1450 N   0  0  0  0  0  0  0  0  0  0  0  0
   41.1400   83.6770   63.0760 C   0  0  0  0  0  0  0  0  0  0  0  0
   41.9610   82.6310   62.7610 N   0  0  0  0  0  0  0  0  0  0  0  0
   42.5540   81.3290   61.1900 H   0  0  0  0  0  0  0  0  0  0  0  0
   39.5710   84.2490   60.1880 H   0  0  0  0  0  0  0  0  0  0  0  0
   41.0590   84.3120   64.4110 C   0  0  0  0  0  0  0  0  0  0  0  0
   40.7260   85.6470   64.3460 F   0  0  0  0  0  0  0  0  0  0  0  0
   40.1130   83.6610   65.1990 F   0  0  0  0  0  0  0  0  0  0  0  0
   42.3210   84.2730   65.0610 F   0  0  0  0  0  0  0  0  0  0  0  0
   42.6740   82.8460   55.9620 O   0  0  0  0  0  0  0  0  0  0  0  0
   42.4150   83.9480   55.1570 C   0  0  0  0  0  0  0  0  0  0  0  0
   42.5010   83.5980   54.0940 H   0  0  0  0  0  0  0  0  0  0  0  0
   41.4340   84.4080   55.2770 H   0  0  0  0  0  0  0  0  0  0  0  0
   43.4500   84.8950   55.3420 O   0  0  0  0  0  0  0  0  0  0  0  0
   44.7820   84.6320   55.2100 C   0  0  0  0  0  0  0  0  0  0  0  0
   45.4670   83.9370   54.2420 C   0  0  0  0  0  0  0  0  0  0  0  0
   44.8350   83.5460   53.4770 H   0  0  0  0  0  0  0  0  0  0  0  0
   46.8470   83.7980   54.3190 C   0  0  0  0  0  3  0  0  0  0  0  0
   47.5730   84.3540   55.3720 C   0  0  0  0  0  0  0  0  0  0  0  0
   48.6620   84.2250   55.4010 H   0  0  0  0  0  0  0  0  0  0  0  0
   46.8950   85.0620   56.3620 C   0  0  0  0  0  0  0  0  0  0  0  0
   47.4750   85.4770   57.1550 H   0  0  0  0  0  0  0  0  0  0  0  0
   45.5060   85.1920   56.2680 C   0  0  0  0  0  3  0  0  0  0  0  0
  2  1  1  0  0  0  0
  2  3  1  0  0  0  0
  3 12  1  0  0  0  0
  4  3  2  0  0  0  0
  4  9  1  0  0  0  0
  5  4  1  0  0  0  0
  6  8  1  0  0  0  0
  6  5  2  0  0  0  0
  7  6  1  0  0  0  0
  8  2  2  0  0  0  0
 10  5  1  0  0  0  0
 11 16  1  0  0  0  0
 12 13  1  0  0  0  0
 12 11  2  0  0  0  0
 13 14  2  0  0  0  0
 14 15  1  0  0  0  0
 15 19  1  0  0  0  0
 16 15  2  0  0  0  0
 17 11  1  0  0  0  0
 18 13  1  0  0  0  0
 19 22  1  0  0  0  0
 19 21  1  0  0  0  0
 20 19  1  0  0  0  0
 23  8  1  0  0  0  0
 24 26  1  0  0  0  0
 24 27  1  0  0  0  0
 24 23  1  0  0  0  0
 25 24  1  0  0  0  0
 28 27  1  0  0  0  0
 28 36  1  0  0  0  0
 29 31  1  0  0  0  0
 29 28  2  0  0  0  0
 30 29  1  0  0  0  0
 31 32  2  0  0  0  0
 32 33  1  0  0  0  0
 32 34  1  0  0  0  0
 34 35  1  0  0  0  0
 36 34  2  0  0  0  0
M  END
>  <minimizedAffinity>
-4.80549335

>  <minimizedRMSD>
0.621876001

$$$$
