
 OpenBabel03212520203D

 36 38  0  0  0  0  0  0  0  0999 V2000
   43.1160   83.9410   58.5860 Cl  0  0  0  0  0  0  0  0  0  0  0  0
   41.8830   82.7630   58.1930 C   0  0  0  0  0  0  0  0  0  0  0  0
   40.9960   82.2390   59.1360 C   0  0  0  0  0  0  0  0  0  0  0  0
   40.0920   81.3260   58.6620 C   0  0  0  0  0  0  0  0  0  0  0  0
   39.9590   80.8690   57.3740 C   0  0  0  0  0  0  0  0  0  0  0  0
   40.8450   81.4050   56.4820 C   0  0  0  0  0  0  0  0  0  0  0  0
   40.7960   80.9160   54.7920 Cl  0  0  0  0  0  0  0  0  0  0  0  0
   41.7950   82.3380   56.8780 C   0  0  0  0  0  0  0  0  0  0  0  0
   39.4150   80.9400   59.4320 H   0  0  0  0  0  0  0  0  0  0  0  0
   39.2060   80.1420   57.1080 H   0  0  0  0  0  0  0  0  0  0  0  0
   41.9430   82.1640   61.4930 C   0  0  0  0  0  0  0  0  0  0  0  0
   41.0940   82.6800   60.4790 C   0  0  0  0  0  0  0  0  0  0  0  0
   40.2700   83.7300   60.8410 C   0  0  0  0  0  0  0  0  0  0  0  0
   40.3400   84.1780   62.1270 N   0  0  0  0  0  0  0  0  0  0  0  0
   41.1470   83.6720   63.0530 C   0  0  0  0  0  0  0  0  0  0  0  0
   41.9750   82.6340   62.7320 N   0  0  0  0  0  0  0  0  0  0  0  0
   42.5710   81.3400   61.1560 H   0  0  0  0  0  0  0  0  0  0  0  0
   39.5580   84.2370   60.1750 H   0  0  0  0  0  0  0  0  0  0  0  0
   41.0670   84.3040   64.3900 C   0  0  0  0  0  0  0  0  0  0  0  0
   40.7370   85.6390   64.3290 F   0  0  0  0  0  0  0  0  0  0  0  0
   40.1200   83.6530   65.1770 F   0  0  0  0  0  0  0  0  0  0  0  0
   42.3300   84.2610   65.0400 F   0  0  0  0  0  0  0  0  0  0  0  0
   42.6680   82.8500   55.9350 O   0  0  0  0  0  0  0  0  0  0  0  0
   42.4190   83.9680   55.1490 C   0  0  0  0  0  0  0  0  0  0  0  0
   42.5010   83.6340   54.0800 H   0  0  0  0  0  0  0  0  0  0  0  0
   41.4410   84.4350   55.2780 H   0  0  0  0  0  0  0  0  0  0  0  0
   43.4620   84.9010   55.3490 O   0  0  0  0  0  0  0  0  0  0  0  0
   44.7930   84.6170   55.2530 C   0  0  0  0  0  0  0  0  0  0  0  0
   45.7700   84.5610   56.2180 C   0  0  0  0  0  0  0  0  0  0  0  0
   45.4090   84.7770   57.1970 H   0  0  0  0  0  0  0  0  0  0  0  0
   47.0790   84.2450   55.8760 C   0  0  0  0  0  3  0  0  0  0  0  0
   47.4380   83.9790   54.5550 C   0  0  0  0  0  0  0  0  0  0  0  0
   48.4820   83.7330   54.3200 H   0  0  0  0  0  0  0  0  0  0  0  0
   46.4610   84.0320   53.5630 C   0  0  0  0  0  0  0  0  0  0  0  0
   46.7640   83.8250   52.5620 H   0  0  0  0  0  0  0  0  0  0  0  0
   45.1490   84.3510   53.9260 C   0  0  0  0  0  3  0  0  0  0  0  0
  2  1  1  0  0  0  0
  2  3  1  0  0  0  0
  3 12  1  0  0  0  0
  4  3  2  0  0  0  0
  4  9  1  0  0  0  0
  5  4  1  0  0  0  0
  6  8  1  0  0  0  0
  6  5  2  0  0  0  0
  7  6  1  0  0  0  0
  8  2  2  0  0  0  0
 10  5  1  0  0  0  0
 11 16  1  0  0  0  0
 12 13  1  0  0  0  0
 12 11  2  0  0  0  0
 13 14  2  0  0  0  0
 14 15  1  0  0  0  0
 15 19  1  0  0  0  0
 16 15  2  0  0  0  0
 17 11  1  0  0  0  0
 18 13  1  0  0  0  0
 19 22  1  0  0  0  0
 19 21  1  0  0  0  0
 20 19  1  0  0  0  0
 23  8  1  0  0  0  0
 24 26  1  0  0  0  0
 24 27  1  0  0  0  0
 24 23  1  0  0  0  0
 25 24  1  0  0  0  0
 28 27  1  0  0  0  0
 28 29  1  0  0  0  0
 29 30  1  0  0  0  0
 31 29  2  0  0  0  0
 32 31  1  0  0  0  0
 33 32  1  0  0  0  0
 34 36  1  0  0  0  0
 34 32  2  0  0  0  0
 35 34  1  0  0  0  0
 36 28  2  0  0  0  0
M  END
>  <minimizedAffinity>
-4.77571344

>  <minimizedRMSD>
0.366322875

$$$$
