
 OpenBabel03212520203D

 36 38  0  0  0  0  0  0  0  0999 V2000
   43.0440   83.9860   58.5660 Cl  0  0  0  0  0  0  0  0  0  0  0  0
   41.8410   82.7710   58.1910 C   0  0  0  0  0  0  0  0  0  0  0  0
   40.9830   82.2230   59.1470 C   0  0  0  0  0  0  0  0  0  0  0  0
   40.1000   81.2830   58.6860 C   0  0  0  0  0  0  0  0  0  0  0  0
   39.9630   80.8200   57.4000 C   0  0  0  0  0  0  0  0  0  0  0  0
   40.8210   81.3810   56.4960 C   0  0  0  0  0  0  0  0  0  0  0  0
   40.7640   80.8880   54.8070 Cl  0  0  0  0  0  0  0  0  0  0  0  0
   41.7480   82.3420   56.8780 C   0  0  0  0  0  0  0  0  0  0  0  0
   39.4450   80.8780   59.4650 H   0  0  0  0  0  0  0  0  0  0  0  0
   39.2290   80.0720   57.1450 H   0  0  0  0  0  0  0  0  0  0  0  0
   41.9450   82.1620   61.4980 C   0  0  0  0  0  0  0  0  0  0  0  0
   41.0860   82.6690   60.4880 C   0  0  0  0  0  0  0  0  0  0  0  0
   40.2560   83.7140   60.8520 C   0  0  0  0  0  0  0  0  0  0  0  0
   40.3310   84.1660   62.1360 N   0  0  0  0  0  0  0  0  0  0  0  0
   41.1470   83.6690   63.0590 C   0  0  0  0  0  0  0  0  0  0  0  0
   41.9810   82.6360   62.7350 N   0  0  0  0  0  0  0  0  0  0  0  0
   42.5760   81.3410   61.1600 H   0  0  0  0  0  0  0  0  0  0  0  0
   39.5380   84.2140   60.1880 H   0  0  0  0  0  0  0  0  0  0  0  0
   41.0720   84.3040   64.3940 C   0  0  0  0  0  0  0  0  0  0  0  0
   40.7410   85.6390   64.3300 F   0  0  0  0  0  0  0  0  0  0  0  0
   40.1260   83.6550   65.1850 F   0  0  0  0  0  0  0  0  0  0  0  0
   42.3360   84.2620   65.0400 F   0  0  0  0  0  0  0  0  0  0  0  0
   42.5920   82.8780   55.9220 O   0  0  0  0  0  0  0  0  0  0  0  0
   42.3570   84.0580   55.2280 C   0  0  0  0  0  0  0  0  0  0  0  0
   42.0860   83.7650   54.1790 H   0  0  0  0  0  0  0  0  0  0  0  0
   41.5550   84.6880   55.6150 H   0  0  0  0  0  0  0  0  0  0  0  0
   43.5710   84.7760   55.1340 O   0  0  0  0  0  0  0  0  0  0  0  0
   44.5610   84.5220   54.2300 C   0  0  0  0  0  0  0  0  0  0  0  0
   45.8230   84.0040   54.4040 C   0  0  0  0  0  0  0  0  0  0  0  0
   46.0460   83.7700   55.4190 H   0  0  0  0  0  0  0  0  0  0  0  0
   46.6680   83.8320   53.3140 C   0  0  0  0  0  3  0  0  0  0  0  0
   46.2670   84.1770   52.0250 C   0  0  0  0  0  0  0  0  0  0  0  0
   46.9610   84.0280   51.1880 H   0  0  0  0  0  0  0  0  0  0  0  0
   44.9910   84.7030   51.8300 C   0  0  0  0  0  0  0  0  0  0  0  0
   44.7110   84.9580   50.8330 H   0  0  0  0  0  0  0  0  0  0  0  0
   44.1540   84.8690   52.9370 C   0  0  0  0  0  3  0  0  0  0  0  0
  2  1  1  0  0  0  0
  2  3  1  0  0  0  0
  3 12  1  0  0  0  0
  4  3  2  0  0  0  0
  4  9  1  0  0  0  0
  5  4  1  0  0  0  0
  6  8  1  0  0  0  0
  6  5  2  0  0  0  0
  7  6  1  0  0  0  0
  8  2  2  0  0  0  0
 10  5  1  0  0  0  0
 11 16  1  0  0  0  0
 12 13  1  0  0  0  0
 12 11  2  0  0  0  0
 13 14  2  0  0  0  0
 14 15  1  0  0  0  0
 15 19  1  0  0  0  0
 16 15  2  0  0  0  0
 17 11  1  0  0  0  0
 18 13  1  0  0  0  0
 19 22  1  0  0  0  0
 19 21  1  0  0  0  0
 20 19  1  0  0  0  0
 23  8  1  0  0  0  0
 24 26  1  0  0  0  0
 24 23  1  0  0  0  0
 25 24  1  0  0  0  0
 27 24  1  0  0  0  0
 28 29  1  0  0  0  0
 28 27  1  0  0  0  0
 29 30  1  0  0  0  0
 31 29  2  0  0  0  0
 32 31  1  0  0  0  0
 33 32  1  0  0  0  0
 34 32  2  0  0  0  0
 34 36  1  0  0  0  0
 35 34  1  0  0  0  0
 36 28  2  0  0  0  0
M  END
>  <minimizedAffinity>
-4.84097862

>  <minimizedRMSD>
0.814695656

$$$$
