
 OpenBabel03212520203D

 36 38  0  0  0  0  0  0  0  0999 V2000
   43.0440   84.1660   58.6480 Cl  0  0  0  0  0  0  0  0  0  0  0  0
   41.8950   82.9070   58.2480 C   0  0  0  0  0  0  0  0  0  0  0  0
   41.0540   82.3110   59.1900 C   0  0  0  0  0  0  0  0  0  0  0  0
   40.2140   81.3410   58.7100 C   0  0  0  0  0  0  0  0  0  0  0  0
   40.1040   80.8920   57.4180 C   0  0  0  0  0  0  0  0  0  0  0  0
   40.9440   81.5000   56.5270 C   0  0  0  0  0  0  0  0  0  0  0  0
   40.9180   81.0280   54.8320 Cl  0  0  0  0  0  0  0  0  0  0  0  0
   41.8280   82.4930   56.9290 C   0  0  0  0  0  0  0  0  0  0  0  0
   39.5720   80.8990   59.4800 H   0  0  0  0  0  0  0  0  0  0  0  0
   39.4030   80.1170   57.1470 H   0  0  0  0  0  0  0  0  0  0  0  0
   41.9870   82.2420   61.5530 C   0  0  0  0  0  0  0  0  0  0  0  0
   41.1300   82.7420   60.5370 C   0  0  0  0  0  0  0  0  0  0  0  0
   40.2730   83.7650   60.9030 C   0  0  0  0  0  0  0  0  0  0  0  0
   40.3210   84.2020   62.1930 N   0  0  0  0  0  0  0  0  0  0  0  0
   41.1360   83.7110   63.1210 C   0  0  0  0  0  0  0  0  0  0  0  0
   41.9970   82.7010   62.7960 N   0  0  0  0  0  0  0  0  0  0  0  0
   42.6410   81.4390   61.2130 H   0  0  0  0  0  0  0  0  0  0  0  0
   39.5520   84.2560   60.2360 H   0  0  0  0  0  0  0  0  0  0  0  0
   41.0290   84.3280   64.4630 C   0  0  0  0  0  0  0  0  0  0  0  0
   40.6630   85.6550   64.4110 F   0  0  0  0  0  0  0  0  0  0  0  0
   40.0930   83.6440   65.2360 F   0  0  0  0  0  0  0  0  0  0  0  0
   42.2870   84.3130   65.1220 F   0  0  0  0  0  0  0  0  0  0  0  0
   42.6560   83.0760   55.9860 O   0  0  0  0  0  0  0  0  0  0  0  0
   42.3640   84.2410   55.2880 C   0  0  0  0  0  0  0  0  0  0  0  0
   41.6340   83.9590   54.4820 H   0  0  0  0  0  0  0  0  0  0  0  0
   41.9200   85.0490   55.8710 H   0  0  0  0  0  0  0  0  0  0  0  0
   43.5350   84.6730   54.6220 O   0  0  0  0  0  0  0  0  0  0  0  0
   43.7980   84.4770   53.2980 C   0  0  0  0  0  0  0  0  0  0  0  0
   43.3470   83.5140   52.4270 C   0  0  0  0  0  0  0  0  0  0  0  0
   42.6830   82.8150   52.8790 H   0  0  0  0  0  0  0  0  0  0  0  0
   43.7600   83.5180   51.1000 C   0  0  0  0  0  3  0  0  0  0  0  0
   44.6370   84.4880   50.6170 C   0  0  0  0  0  0  0  0  0  0  0  0
   44.9420   84.4590   49.5640 H   0  0  0  0  0  0  0  0  0  0  0  0
   45.1050   85.4720   51.4850 C   0  0  0  0  0  0  0  0  0  0  0  0
   45.7750   86.2010   51.0890 H   0  0  0  0  0  0  0  0  0  0  0  0
   44.6780   85.4530   52.8180 C   0  0  0  0  0  3  0  0  0  0  0  0
  2  1  1  0  0  0  0
  2  3  1  0  0  0  0
  3 12  1  0  0  0  0
  4  3  2  0  0  0  0
  4  9  1  0  0  0  0
  5  4  1  0  0  0  0
  6  8  1  0  0  0  0
  6  5  2  0  0  0  0
  7  6  1  0  0  0  0
  8  2  2  0  0  0  0
 10  5  1  0  0  0  0
 11 16  1  0  0  0  0
 12 13  1  0  0  0  0
 12 11  2  0  0  0  0
 13 14  2  0  0  0  0
 14 15  1  0  0  0  0
 15 19  1  0  0  0  0
 16 15  2  0  0  0  0
 17 11  1  0  0  0  0
 18 13  1  0  0  0  0
 19 22  1  0  0  0  0
 19 21  1  0  0  0  0
 20 19  1  0  0  0  0
 23  8  1  0  0  0  0
 24 26  1  0  0  0  0
 24 23  1  0  0  0  0
 25 24  1  0  0  0  0
 27 24  1  0  0  0  0
 28 27  1  0  0  0  0
 29 30  1  0  0  0  0
 29 28  2  0  0  0  0
 31 29  1  0  0  0  0
 32 31  2  0  0  0  0
 32 34  1  0  0  0  0
 33 32  1  0  0  0  0
 34 36  2  0  0  0  0
 35 34  1  0  0  0  0
 36 28  1  0  0  0  0
M  END
>  <minimizedAffinity>
-4.88329411

>  <minimizedRMSD>
1.55718338

$$$$
