
 OpenBabel03212520203D

 36 38  0  0  0  0  0  0  0  0999 V2000
   43.1210   84.1240   58.6750 Cl  0  0  0  0  0  0  0  0  0  0  0  0
   41.9410   82.9000   58.2560 C   0  0  0  0  0  0  0  0  0  0  0  0
   41.0700   82.3280   59.1860 C   0  0  0  0  0  0  0  0  0  0  0  0
   40.2080   81.3840   58.6920 C   0  0  0  0  0  0  0  0  0  0  0  0
   40.1040   80.9400   57.3980 C   0  0  0  0  0  0  0  0  0  0  0  0
   40.9740   81.5240   56.5200 C   0  0  0  0  0  0  0  0  0  0  0  0
   40.9570   81.0560   54.8230 Cl  0  0  0  0  0  0  0  0  0  0  0  0
   41.8810   82.4900   56.9360 C   0  0  0  0  0  0  0  0  0  0  0  0
   39.5430   80.9600   59.4520 H   0  0  0  0  0  0  0  0  0  0  0  0
   39.3840   80.1860   57.1160 H   0  0  0  0  0  0  0  0  0  0  0  0
   41.9810   82.2400   61.5570 C   0  0  0  0  0  0  0  0  0  0  0  0
   41.1400   82.7540   60.5350 C   0  0  0  0  0  0  0  0  0  0  0  0
   40.2920   83.7860   60.8970 C   0  0  0  0  0  0  0  0  0  0  0  0
   40.3350   84.2200   62.1880 N   0  0  0  0  0  0  0  0  0  0  0  0
   41.1360   83.7160   63.1210 C   0  0  0  0  0  0  0  0  0  0  0  0
   41.9860   82.6960   62.8010 N   0  0  0  0  0  0  0  0  0  0  0  0
   42.6280   81.4300   61.2200 H   0  0  0  0  0  0  0  0  0  0  0  0
   39.5830   84.2890   60.2250 H   0  0  0  0  0  0  0  0  0  0  0  0
   41.0250   84.3310   64.4640 C   0  0  0  0  0  0  0  0  0  0  0  0
   40.6570   85.6570   64.4140 F   0  0  0  0  0  0  0  0  0  0  0  0
   40.0890   83.6440   65.2340 F   0  0  0  0  0  0  0  0  0  0  0  0
   42.2820   84.3160   65.1260 F   0  0  0  0  0  0  0  0  0  0  0  0
   42.7380   83.0500   56.0060 O   0  0  0  0  0  0  0  0  0  0  0  0
   42.4500   84.1690   55.2360 C   0  0  0  0  0  0  0  0  0  0  0  0
   41.7940   83.8200   54.3930 H   0  0  0  0  0  0  0  0  0  0  0  0
   41.9300   84.9810   55.7470 H   0  0  0  0  0  0  0  0  0  0  0  0
   43.6480   84.6260   54.6370 O   0  0  0  0  0  0  0  0  0  0  0  0
   43.8630   84.7180   53.2930 C   0  0  0  0  0  0  0  0  0  0  0  0
   44.6010   85.6190   52.5630 C   0  0  0  0  0  0  0  0  0  0  0  0
   45.0770   86.3590   53.1640 H   0  0  0  0  0  0  0  0  0  0  0  0
   44.6730   85.5110   51.1790 C   0  0  0  0  0  0  0  0  0  0  0  0
   44.0050   84.4960   50.4960 C   0  0  0  0  0  0  0  0  0  0  0  0
   44.0850   84.4410   49.4030 H   0  0  0  0  0  0  0  0  0  0  0  0
   43.2520   83.5740   51.2200 C   0  0  0  0  0  0  0  0  0  0  0  0
   42.7520   82.8080   50.6710 H   0  0  0  0  0  0  0  0  0  0  0  0
   43.1900   83.6980   52.6110 C   0  0  0  0  0  0  0  0  0  0  0  0
  2  1  1  0  0  0  0
  2  3  1  0  0  0  0
  3 12  1  0  0  0  0
  4  3  2  0  0  0  0
  4  9  1  0  0  0  0
  5  4  1  0  0  0  0
  6  8  1  0  0  0  0
  6  5  2  0  0  0  0
  7  6  1  0  0  0  0
  8  2  2  0  0  0  0
 10  5  1  0  0  0  0
 11 16  1  0  0  0  0
 12 13  1  0  0  0  0
 12 11  2  0  0  0  0
 13 14  2  0  0  0  0
 14 15  1  0  0  0  0
 15 19  1  0  0  0  0
 16 15  2  0  0  0  0
 17 11  1  0  0  0  0
 18 13  1  0  0  0  0
 19 22  1  0  0  0  0
 19 21  1  0  0  0  0
 20 19  1  0  0  0  0
 23  8  1  0  0  0  0
 24 26  1  0  0  0  0
 24 23  1  0  0  0  0
 25 24  1  0  0  0  0
 27 24  1  0  0  0  0
 28 27  1  0  0  0  0
 29 30  1  0  0  0  0
 29 28  2  0  0  0  0
 31 29  1  0  0  0  0
 32 31  2  0  0  0  0
 32 34  1  0  0  0  0
 33 32  1  0  0  0  0
 34 36  2  0  0  0  0
 35 34  1  0  0  0  0
 36 28  1  0  0  0  0
M  END
>  <minimizedAffinity>
-4.90039492

>  <minimizedRMSD>
1.71290243

$$$$
