
 OpenBabel03212520203D

 36 38  0  0  0  0  0  0  0  0999 V2000
   43.0410   83.9810   58.5510 Cl  0  0  0  0  0  0  0  0  0  0  0  0
   41.8360   82.7680   58.1770 C   0  0  0  0  0  0  0  0  0  0  0  0
   40.9780   82.2210   59.1340 C   0  0  0  0  0  0  0  0  0  0  0  0
   40.0930   81.2820   58.6730 C   0  0  0  0  0  0  0  0  0  0  0  0
   39.9550   80.8200   57.3880 C   0  0  0  0  0  0  0  0  0  0  0  0
   40.8120   81.3800   56.4830 C   0  0  0  0  0  0  0  0  0  0  0  0
   40.7530   80.8880   54.7940 Cl  0  0  0  0  0  0  0  0  0  0  0  0
   41.7410   82.3390   56.8640 C   0  0  0  0  0  0  0  0  0  0  0  0
   39.4390   80.8780   59.4530 H   0  0  0  0  0  0  0  0  0  0  0  0
   39.2190   80.0720   57.1330 H   0  0  0  0  0  0  0  0  0  0  0  0
   41.9440   82.1590   61.4830 C   0  0  0  0  0  0  0  0  0  0  0  0
   41.0830   82.6660   60.4740 C   0  0  0  0  0  0  0  0  0  0  0  0
   40.2530   83.7110   60.8400 C   0  0  0  0  0  0  0  0  0  0  0  0
   40.3300   84.1620   62.1240 N   0  0  0  0  0  0  0  0  0  0  0  0
   41.1480   83.6650   63.0460 C   0  0  0  0  0  0  0  0  0  0  0  0
   41.9820   82.6320   62.7200 N   0  0  0  0  0  0  0  0  0  0  0  0
   42.5760   81.3390   61.1430 H   0  0  0  0  0  0  0  0  0  0  0  0
   39.5330   84.2100   60.1780 H   0  0  0  0  0  0  0  0  0  0  0  0
   41.0740   84.3000   64.3810 C   0  0  0  0  0  0  0  0  0  0  0  0
   40.7460   85.6360   64.3180 F   0  0  0  0  0  0  0  0  0  0  0  0
   40.1270   83.6520   65.1720 F   0  0  0  0  0  0  0  0  0  0  0  0
   42.3380   84.2550   65.0270 F   0  0  0  0  0  0  0  0  0  0  0  0
   42.5860   82.8740   55.9070 O   0  0  0  0  0  0  0  0  0  0  0  0
   42.3530   84.0570   55.2170 C   0  0  0  0  0  0  0  0  0  0  0  0
   42.0840   83.7680   54.1660 H   0  0  0  0  0  0  0  0  0  0  0  0
   41.5500   84.6860   55.6040 H   0  0  0  0  0  0  0  0  0  0  0  0
   43.5690   84.7740   55.1280 O   0  0  0  0  0  0  0  0  0  0  0  0
   44.5600   84.5220   54.2250 C   0  0  0  0  0  0  0  0  0  0  0  0
   45.8220   84.0040   54.3990 C   0  0  0  0  0  0  0  0  0  0  0  0
   46.0430   83.7670   55.4150 H   0  0  0  0  0  0  0  0  0  0  0  0
   46.6680   83.8370   53.3110 C   0  0  0  0  0  3  0  0  0  0  0  0
   46.2700   84.1860   52.0210 C   0  0  0  0  0  0  0  0  0  0  0  0
   46.9640   84.0400   51.1850 H   0  0  0  0  0  0  0  0  0  0  0  0
   44.9940   84.7120   51.8260 C   0  0  0  0  0  0  0  0  0  0  0  0
   44.7140   84.9700   50.8300 H   0  0  0  0  0  0  0  0  0  0  0  0
   44.1540   84.8740   52.9320 C   0  0  0  0  0  3  0  0  0  0  0  0
  2  1  1  0  0  0  0
  2  3  1  0  0  0  0
  3 12  1  0  0  0  0
  4  3  2  0  0  0  0
  4  9  1  0  0  0  0
  5  4  1  0  0  0  0
  6  8  1  0  0  0  0
  6  5  2  0  0  0  0
  7  6  1  0  0  0  0
  8  2  2  0  0  0  0
 10  5  1  0  0  0  0
 11 16  1  0  0  0  0
 12 13  1  0  0  0  0
 12 11  2  0  0  0  0
 13 14  2  0  0  0  0
 14 15  1  0  0  0  0
 15 19  1  0  0  0  0
 16 15  2  0  0  0  0
 17 11  1  0  0  0  0
 18 13  1  0  0  0  0
 19 22  1  0  0  0  0
 19 21  1  0  0  0  0
 20 19  1  0  0  0  0
 23  8  1  0  0  0  0
 24 26  1  0  0  0  0
 24 23  1  0  0  0  0
 25 24  1  0  0  0  0
 27 24  1  0  0  0  0
 28 29  1  0  0  0  0
 28 27  1  0  0  0  0
 29 30  1  0  0  0  0
 31 29  2  0  0  0  0
 32 31  1  0  0  0  0
 33 32  1  0  0  0  0
 34 32  2  0  0  0  0
 34 36  1  0  0  0  0
 35 34  1  0  0  0  0
 36 28  2  0  0  0  0
M  END
>  <minimizedAffinity>
-4.8425703

>  <minimizedRMSD>
0.865744054

$$$$
