
 OpenBabel03212520213D

 36 38  0  0  0  0  0  0  0  0999 V2000
   43.0930   83.9700   58.5590 Cl  0  0  0  0  0  0  0  0  0  0  0  0
   41.8720   82.7780   58.1700 C   0  0  0  0  0  0  0  0  0  0  0  0
   40.9960   82.2430   59.1170 C   0  0  0  0  0  0  0  0  0  0  0  0
   40.1010   81.3190   58.6460 C   0  0  0  0  0  0  0  0  0  0  0  0
   39.9660   80.8630   57.3580 C   0  0  0  0  0  0  0  0  0  0  0  0
   40.8410   81.4110   56.4630 C   0  0  0  0  0  0  0  0  0  0  0  0
   40.7890   80.9240   54.7720 Cl  0  0  0  0  0  0  0  0  0  0  0  0
   41.7820   82.3540   56.8550 C   0  0  0  0  0  0  0  0  0  0  0  0
   39.4330   80.9240   59.4190 H   0  0  0  0  0  0  0  0  0  0  0  0
   39.2210   80.1280   57.0950 H   0  0  0  0  0  0  0  0  0  0  0  0
   41.9540   82.1720   61.4700 C   0  0  0  0  0  0  0  0  0  0  0  0
   41.0970   82.6820   60.4600 C   0  0  0  0  0  0  0  0  0  0  0  0
   40.2650   83.7250   60.8280 C   0  0  0  0  0  0  0  0  0  0  0  0
   40.3370   84.1710   62.1140 N   0  0  0  0  0  0  0  0  0  0  0  0
   41.1520   83.6710   63.0360 C   0  0  0  0  0  0  0  0  0  0  0  0
   41.9880   82.6400   62.7090 N   0  0  0  0  0  0  0  0  0  0  0  0
   42.5880   81.3530   61.1290 H   0  0  0  0  0  0  0  0  0  0  0  0
   39.5470   84.2270   60.1650 H   0  0  0  0  0  0  0  0  0  0  0  0
   41.0730   84.3010   64.3740 C   0  0  0  0  0  0  0  0  0  0  0  0
   40.7450   85.6360   64.3150 F   0  0  0  0  0  0  0  0  0  0  0  0
   40.1240   83.6490   65.1590 F   0  0  0  0  0  0  0  0  0  0  0  0
   42.3350   84.2540   65.0230 F   0  0  0  0  0  0  0  0  0  0  0  0
   42.6440   82.8780   55.9080 O   0  0  0  0  0  0  0  0  0  0  0  0
   42.3900   84.0110   55.1460 C   0  0  0  0  0  0  0  0  0  0  0  0
   42.3590   83.6780   54.0740 H   0  0  0  0  0  0  0  0  0  0  0  0
   41.4550   84.5310   55.3600 H   0  0  0  0  0  0  0  0  0  0  0  0
   43.4970   84.8840   55.2530 O   0  0  0  0  0  0  0  0  0  0  0  0
   44.7970   84.5270   55.0420 C   0  0  0  0  0  0  0  0  0  0  0  0
   45.3880   83.8760   53.9850 C   0  0  0  0  0  0  0  0  0  0  0  0
   44.7000   83.6150   53.2140 H   0  0  0  0  0  0  0  0  0  0  0  0
   46.7520   83.6180   53.9930 C   0  0  0  0  0  3  0  0  0  0  0  0
   47.5580   84.0080   55.0630 C   0  0  0  0  0  0  0  0  0  0  0  0
   48.6330   83.7880   55.0350 H   0  0  0  0  0  0  0  0  0  0  0  0
   46.9770   84.6690   56.1420 C   0  0  0  0  0  0  0  0  0  0  0  0
   47.6160   84.9560   56.9470 H   0  0  0  0  0  0  0  0  0  0  0  0
   45.6010   84.9210   56.1180 C   0  0  0  0  0  3  0  0  0  0  0  0
  2  1  1  0  0  0  0
  2  3  1  0  0  0  0
  3 12  1  0  0  0  0
  4  3  2  0  0  0  0
  4  9  1  0  0  0  0
  5  4  1  0  0  0  0
  6  8  1  0  0  0  0
  6  5  2  0  0  0  0
  7  6  1  0  0  0  0
  8  2  2  0  0  0  0
 10  5  1  0  0  0  0
 11 16  1  0  0  0  0
 12 13  1  0  0  0  0
 12 11  2  0  0  0  0
 13 14  2  0  0  0  0
 14 15  1  0  0  0  0
 15 19  1  0  0  0  0
 16 15  2  0  0  0  0
 17 11  1  0  0  0  0
 18 13  1  0  0  0  0
 19 22  1  0  0  0  0
 19 21  1  0  0  0  0
 20 19  1  0  0  0  0
 23  8  1  0  0  0  0
 24 27  1  0  0  0  0
 24 26  1  0  0  0  0
 24 23  1  0  0  0  0
 25 24  1  0  0  0  0
 28 27  1  0  0  0  0
 28 36  1  0  0  0  0
 29 31  1  0  0  0  0
 29 28  2  0  0  0  0
 30 29  1  0  0  0  0
 31 32  2  0  0  0  0
 32 34  1  0  0  0  0
 33 32  1  0  0  0  0
 34 35  1  0  0  0  0
 36 34  2  0  0  0  0
M  END
>  <minimizedAffinity>
-4.78108311

>  <minimizedRMSD>
0.560779214

$$$$
