
 OpenBabel03212520203D

 36 38  0  0  0  0  0  0  0  0999 V2000
   43.1170   83.9410   58.6100 Cl  0  0  0  0  0  0  0  0  0  0  0  0
   41.8850   82.7610   58.2160 C   0  0  0  0  0  0  0  0  0  0  0  0
   40.9970   82.2380   59.1580 C   0  0  0  0  0  0  0  0  0  0  0  0
   40.0940   81.3240   58.6830 C   0  0  0  0  0  0  0  0  0  0  0  0
   39.9640   80.8650   57.3960 C   0  0  0  0  0  0  0  0  0  0  0  0
   40.8510   81.4010   56.5050 C   0  0  0  0  0  0  0  0  0  0  0  0
   40.8060   80.9100   54.8150 Cl  0  0  0  0  0  0  0  0  0  0  0  0
   41.8000   82.3350   56.9020 C   0  0  0  0  0  0  0  0  0  0  0  0
   39.4170   80.9380   59.4520 H   0  0  0  0  0  0  0  0  0  0  0  0
   39.2120   80.1380   57.1290 H   0  0  0  0  0  0  0  0  0  0  0  0
   41.9320   82.1590   61.5200 C   0  0  0  0  0  0  0  0  0  0  0  0
   41.0920   82.6800   60.5010 C   0  0  0  0  0  0  0  0  0  0  0  0
   40.2750   83.7380   60.8570 C   0  0  0  0  0  0  0  0  0  0  0  0
   40.3430   84.1870   62.1420 N   0  0  0  0  0  0  0  0  0  0  0  0
   41.1410   83.6770   63.0740 C   0  0  0  0  0  0  0  0  0  0  0  0
   41.9620   82.6310   62.7580 N   0  0  0  0  0  0  0  0  0  0  0  0
   42.5550   81.3290   61.1870 H   0  0  0  0  0  0  0  0  0  0  0  0
   39.5710   84.2490   60.1860 H   0  0  0  0  0  0  0  0  0  0  0  0
   41.0610   84.3120   64.4090 C   0  0  0  0  0  0  0  0  0  0  0  0
   40.7280   85.6460   64.3440 F   0  0  0  0  0  0  0  0  0  0  0  0
   40.1140   83.6610   65.1970 F   0  0  0  0  0  0  0  0  0  0  0  0
   42.3230   84.2720   65.0580 F   0  0  0  0  0  0  0  0  0  0  0  0
   42.6740   82.8460   55.9590 O   0  0  0  0  0  0  0  0  0  0  0  0
   42.4160   83.9490   55.1550 C   0  0  0  0  0  0  0  0  0  0  0  0
   42.5020   83.5980   54.0910 H   0  0  0  0  0  0  0  0  0  0  0  0
   41.4340   84.4090   55.2750 H   0  0  0  0  0  0  0  0  0  0  0  0
   43.4510   84.8950   55.3410 O   0  0  0  0  0  0  0  0  0  0  0  0
   44.7830   84.6320   55.2080 C   0  0  0  0  0  0  0  0  0  0  0  0
   45.4670   83.9380   54.2380 C   0  0  0  0  0  0  0  0  0  0  0  0
   44.8350   83.5490   53.4740 H   0  0  0  0  0  0  0  0  0  0  0  0
   46.8480   83.7990   54.3160 C   0  0  0  0  0  3  0  0  0  0  0  0
   47.5740   84.3550   55.3690 C   0  0  0  0  0  0  0  0  0  0  0  0
   48.6620   84.2260   55.3980 H   0  0  0  0  0  0  0  0  0  0  0  0
   46.8960   85.0620   56.3600 C   0  0  0  0  0  0  0  0  0  0  0  0
   47.4770   85.4760   57.1540 H   0  0  0  0  0  0  0  0  0  0  0  0
   45.5070   85.1920   56.2660 C   0  0  0  0  0  3  0  0  0  0  0  0
  2  1  1  0  0  0  0
  2  3  1  0  0  0  0
  3 12  1  0  0  0  0
  4  3  2  0  0  0  0
  4  9  1  0  0  0  0
  5  4  1  0  0  0  0
  6  8  1  0  0  0  0
  6  5  2  0  0  0  0
  7  6  1  0  0  0  0
  8  2  2  0  0  0  0
 10  5  1  0  0  0  0
 11 16  1  0  0  0  0
 12 13  1  0  0  0  0
 12 11  2  0  0  0  0
 13 14  2  0  0  0  0
 14 15  1  0  0  0  0
 15 19  1  0  0  0  0
 16 15  2  0  0  0  0
 17 11  1  0  0  0  0
 18 13  1  0  0  0  0
 19 22  1  0  0  0  0
 19 21  1  0  0  0  0
 20 19  1  0  0  0  0
 23  8  1  0  0  0  0
 24 26  1  0  0  0  0
 24 27  1  0  0  0  0
 24 23  1  0  0  0  0
 25 24  1  0  0  0  0
 28 27  1  0  0  0  0
 28 36  1  0  0  0  0
 29 31  1  0  0  0  0
 29 28  2  0  0  0  0
 30 29  1  0  0  0  0
 31 32  2  0  0  0  0
 32 33  1  0  0  0  0
 32 34  1  0  0  0  0
 34 35  1  0  0  0  0
 36 34  2  0  0  0  0
M  END
>  <minimizedAffinity>
-4.80376863

>  <minimizedRMSD>
0.348838478

$$$$
