
 OpenBabel03212520203D

 36 38  0  0  0  0  0  0  0  0999 V2000
   43.0810   84.0160   58.5750 Cl  0  0  0  0  0  0  0  0  0  0  0  0
   41.8770   82.8060   58.1840 C   0  0  0  0  0  0  0  0  0  0  0  0
   41.0110   82.2550   59.1310 C   0  0  0  0  0  0  0  0  0  0  0  0
   40.1290   81.3200   58.6590 C   0  0  0  0  0  0  0  0  0  0  0  0
   40.0000   80.8650   57.3700 C   0  0  0  0  0  0  0  0  0  0  0  0
   40.8650   81.4280   56.4750 C   0  0  0  0  0  0  0  0  0  0  0  0
   40.8180   80.9450   54.7830 Cl  0  0  0  0  0  0  0  0  0  0  0  0
   41.7920   82.3850   56.8680 C   0  0  0  0  0  0  0  0  0  0  0  0
   39.4680   80.9120   59.4320 H   0  0  0  0  0  0  0  0  0  0  0  0
   39.2650   80.1190   57.1050 H   0  0  0  0  0  0  0  0  0  0  0  0
   41.9590   82.1810   61.4880 C   0  0  0  0  0  0  0  0  0  0  0  0
   41.1060   82.6930   60.4750 C   0  0  0  0  0  0  0  0  0  0  0  0
   40.2740   83.7360   60.8400 C   0  0  0  0  0  0  0  0  0  0  0  0
   40.3410   84.1810   62.1270 N   0  0  0  0  0  0  0  0  0  0  0  0
   41.1520   83.6790   63.0520 C   0  0  0  0  0  0  0  0  0  0  0  0
   41.9880   82.6470   62.7280 N   0  0  0  0  0  0  0  0  0  0  0  0
   42.5930   81.3620   61.1480 H   0  0  0  0  0  0  0  0  0  0  0  0
   39.5590   84.2390   60.1750 H   0  0  0  0  0  0  0  0  0  0  0  0
   41.0680   84.3060   64.3910 C   0  0  0  0  0  0  0  0  0  0  0  0
   40.7340   85.6410   64.3320 F   0  0  0  0  0  0  0  0  0  0  0  0
   40.1200   83.6500   65.1730 F   0  0  0  0  0  0  0  0  0  0  0  0
   42.3290   84.2640   65.0420 F   0  0  0  0  0  0  0  0  0  0  0  0
   42.6450   82.9230   55.9210 O   0  0  0  0  0  0  0  0  0  0  0  0
   42.3910   84.0780   55.1920 C   0  0  0  0  0  0  0  0  0  0  0  0
   42.0380   83.7470   54.1790 H   0  0  0  0  0  0  0  0  0  0  0  0
   41.6350   84.7480   55.6050 H   0  0  0  0  0  0  0  0  0  0  0  0
   43.6140   84.7550   54.9800 O   0  0  0  0  0  0  0  0  0  0  0  0
   44.4280   84.5780   53.8990 C   0  0  0  0  0  0  0  0  0  0  0  0
   45.7920   84.6950   53.7750 C   0  0  0  0  0  0  0  0  0  0  0  0
   46.2760   84.9690   54.6840 H   0  0  0  0  0  0  0  0  0  0  0  0
   46.4090   84.4610   52.5520 C   0  0  0  0  0  3  0  0  0  0  0  0
   45.6700   84.1050   51.4240 C   0  0  0  0  0  0  0  0  0  0  0  0
   46.1900   83.9290   50.4750 H   0  0  0  0  0  0  0  0  0  0  0  0
   44.2860   83.9840   51.5320 C   0  0  0  0  0  0  0  0  0  0  0  0
   43.7460   83.7100   50.6530 H   0  0  0  0  0  0  0  0  0  0  0  0
   43.6820   84.2210   52.7690 C   0  0  0  0  0  3  0  0  0  0  0  0
  2  1  1  0  0  0  0
  2  3  1  0  0  0  0
  3 12  1  0  0  0  0
  4  3  2  0  0  0  0
  4  9  1  0  0  0  0
  5  4  1  0  0  0  0
  6  8  1  0  0  0  0
  6  5  2  0  0  0  0
  7  6  1  0  0  0  0
  8  2  2  0  0  0  0
 10  5  1  0  0  0  0
 11 16  1  0  0  0  0
 12 13  1  0  0  0  0
 12 11  2  0  0  0  0
 13 14  2  0  0  0  0
 14 15  1  0  0  0  0
 15 19  1  0  0  0  0
 16 15  2  0  0  0  0
 17 11  1  0  0  0  0
 18 13  1  0  0  0  0
 19 22  1  0  0  0  0
 19 21  1  0  0  0  0
 20 19  1  0  0  0  0
 23  8  1  0  0  0  0
 24 26  1  0  0  0  0
 24 23  1  0  0  0  0
 25 24  1  0  0  0  0
 27 24  1  0  0  0  0
 28 27  1  0  0  0  0
 29 28  1  0  0  0  0
 29 30  1  0  0  0  0
 31 29  2  0  0  0  0
 32 34  2  0  0  0  0
 32 31  1  0  0  0  0
 33 32  1  0  0  0  0
 34 36  1  0  0  0  0
 35 34  1  0  0  0  0
 36 28  2  0  0  0  0
M  END
>  <minimizedAffinity>
-4.83416653

>  <minimizedRMSD>
1.065956

$$$$
