
 OpenBabel03212520203D

 36 38  0  0  0  0  0  0  0  0999 V2000
   43.1160   83.9410   58.6080 Cl  0  0  0  0  0  0  0  0  0  0  0  0
   41.8840   82.7610   58.2140 C   0  0  0  0  0  0  0  0  0  0  0  0
   40.9960   82.2380   59.1570 C   0  0  0  0  0  0  0  0  0  0  0  0
   40.0930   81.3230   58.6820 C   0  0  0  0  0  0  0  0  0  0  0  0
   39.9630   80.8650   57.3950 C   0  0  0  0  0  0  0  0  0  0  0  0
   40.8500   81.4010   56.5040 C   0  0  0  0  0  0  0  0  0  0  0  0
   40.8040   80.9100   54.8140 Cl  0  0  0  0  0  0  0  0  0  0  0  0
   41.7990   82.3350   56.9000 C   0  0  0  0  0  0  0  0  0  0  0  0
   39.4160   80.9370   59.4520 H   0  0  0  0  0  0  0  0  0  0  0  0
   39.2110   80.1380   57.1280 H   0  0  0  0  0  0  0  0  0  0  0  0
   41.9330   82.1600   61.5180 C   0  0  0  0  0  0  0  0  0  0  0  0
   41.0920   82.6800   60.4990 C   0  0  0  0  0  0  0  0  0  0  0  0
   40.2730   83.7370   60.8560 C   0  0  0  0  0  0  0  0  0  0  0  0
   40.3410   84.1860   62.1420 N   0  0  0  0  0  0  0  0  0  0  0  0
   41.1410   83.6760   63.0720 C   0  0  0  0  0  0  0  0  0  0  0  0
   41.9630   82.6320   62.7560 N   0  0  0  0  0  0  0  0  0  0  0  0
   42.5560   81.3300   61.1850 H   0  0  0  0  0  0  0  0  0  0  0  0
   39.5690   84.2470   60.1860 H   0  0  0  0  0  0  0  0  0  0  0  0
   41.0610   84.3110   64.4080 C   0  0  0  0  0  0  0  0  0  0  0  0
   40.7290   85.6460   64.3430 F   0  0  0  0  0  0  0  0  0  0  0  0
   40.1130   83.6610   65.1950 F   0  0  0  0  0  0  0  0  0  0  0  0
   42.3230   84.2710   65.0570 F   0  0  0  0  0  0  0  0  0  0  0  0
   42.6730   82.8460   55.9570 O   0  0  0  0  0  0  0  0  0  0  0  0
   42.4140   83.9480   55.1530 C   0  0  0  0  0  0  0  0  0  0  0  0
   42.5010   83.5980   54.0900 H   0  0  0  0  0  0  0  0  0  0  0  0
   41.4330   84.4090   55.2740 H   0  0  0  0  0  0  0  0  0  0  0  0
   43.4490   84.8950   55.3390 O   0  0  0  0  0  0  0  0  0  0  0  0
   44.7810   84.6320   55.2070 C   0  0  0  0  0  0  0  0  0  0  0  0
   45.4670   83.9350   54.2400 C   0  0  0  0  0  0  0  0  0  0  0  0
   44.8350   83.5450   53.4750 H   0  0  0  0  0  0  0  0  0  0  0  0
   46.8460   83.7970   54.3170 C   0  0  0  0  0  3  0  0  0  0  0  0
   47.5730   84.3540   55.3690 C   0  0  0  0  0  0  0  0  0  0  0  0
   48.6610   84.2250   55.3990 H   0  0  0  0  0  0  0  0  0  0  0  0
   46.8940   85.0620   56.3590 C   0  0  0  0  0  0  0  0  0  0  0  0
   47.4750   85.4780   57.1520 H   0  0  0  0  0  0  0  0  0  0  0  0
   45.5060   85.1930   56.2650 C   0  0  0  0  0  3  0  0  0  0  0  0
  2  1  1  0  0  0  0
  2  3  1  0  0  0  0
  3 12  1  0  0  0  0
  4  3  2  0  0  0  0
  4  9  1  0  0  0  0
  5  4  1  0  0  0  0
  6  8  1  0  0  0  0
  6  5  2  0  0  0  0
  7  6  1  0  0  0  0
  8  2  2  0  0  0  0
 10  5  1  0  0  0  0
 11 16  1  0  0  0  0
 12 13  1  0  0  0  0
 12 11  2  0  0  0  0
 13 14  2  0  0  0  0
 14 15  1  0  0  0  0
 15 19  1  0  0  0  0
 16 15  2  0  0  0  0
 17 11  1  0  0  0  0
 18 13  1  0  0  0  0
 19 22  1  0  0  0  0
 19 21  1  0  0  0  0
 20 19  1  0  0  0  0
 23  8  1  0  0  0  0
 24 26  1  0  0  0  0
 24 27  1  0  0  0  0
 24 23  1  0  0  0  0
 25 24  1  0  0  0  0
 28 27  1  0  0  0  0
 28 36  1  0  0  0  0
 29 31  1  0  0  0  0
 29 28  2  0  0  0  0
 30 29  1  0  0  0  0
 31 32  2  0  0  0  0
 32 33  1  0  0  0  0
 32 34  1  0  0  0  0
 34 35  1  0  0  0  0
 36 34  2  0  0  0  0
M  END
>  <minimizedAffinity>
-4.80392408

>  <minimizedRMSD>
0.716207862

$$$$
