
 OpenBabel03212520203D

 36 38  0  0  0  0  0  0  0  0999 V2000
   43.1170   83.9410   58.5830 Cl  0  0  0  0  0  0  0  0  0  0  0  0
   41.8830   82.7630   58.1900 C   0  0  0  0  0  0  0  0  0  0  0  0
   40.9960   82.2400   59.1340 C   0  0  0  0  0  0  0  0  0  0  0  0
   40.0920   81.3260   58.6600 C   0  0  0  0  0  0  0  0  0  0  0  0
   39.9590   80.8690   57.3720 C   0  0  0  0  0  0  0  0  0  0  0  0
   40.8450   81.4060   56.4800 C   0  0  0  0  0  0  0  0  0  0  0  0
   40.7950   80.9160   54.7900 Cl  0  0  0  0  0  0  0  0  0  0  0  0
   41.7950   82.3380   56.8760 C   0  0  0  0  0  0  0  0  0  0  0  0
   39.4150   80.9400   59.4300 H   0  0  0  0  0  0  0  0  0  0  0  0
   39.2060   80.1430   57.1060 H   0  0  0  0  0  0  0  0  0  0  0  0
   41.9470   82.1670   61.4900 C   0  0  0  0  0  0  0  0  0  0  0  0
   41.0950   82.6800   60.4770 C   0  0  0  0  0  0  0  0  0  0  0  0
   40.2670   83.7280   60.8400 C   0  0  0  0  0  0  0  0  0  0  0  0
   40.3380   84.1750   62.1260 N   0  0  0  0  0  0  0  0  0  0  0  0
   41.1480   83.6720   63.0510 C   0  0  0  0  0  0  0  0  0  0  0  0
   41.9790   82.6370   62.7280 N   0  0  0  0  0  0  0  0  0  0  0  0
   42.5780   81.3450   61.1520 H   0  0  0  0  0  0  0  0  0  0  0  0
   39.5530   84.2320   60.1750 H   0  0  0  0  0  0  0  0  0  0  0  0
   41.0680   84.3040   64.3880 C   0  0  0  0  0  0  0  0  0  0  0  0
   40.7390   85.6390   64.3270 F   0  0  0  0  0  0  0  0  0  0  0  0
   40.1190   83.6530   65.1740 F   0  0  0  0  0  0  0  0  0  0  0  0
   42.3300   84.2580   65.0390 F   0  0  0  0  0  0  0  0  0  0  0  0
   42.6680   82.8490   55.9320 O   0  0  0  0  0  0  0  0  0  0  0  0
   42.4190   83.9670   55.1460 C   0  0  0  0  0  0  0  0  0  0  0  0
   42.5020   83.6330   54.0770 H   0  0  0  0  0  0  0  0  0  0  0  0
   41.4410   84.4330   55.2740 H   0  0  0  0  0  0  0  0  0  0  0  0
   43.4620   84.9010   55.3470 O   0  0  0  0  0  0  0  0  0  0  0  0
   44.7930   84.6180   55.2500 C   0  0  0  0  0  0  0  0  0  0  0  0
   45.7700   84.5600   56.2150 C   0  0  0  0  0  0  0  0  0  0  0  0
   45.4080   84.7740   57.1950 H   0  0  0  0  0  0  0  0  0  0  0  0
   47.0790   84.2470   55.8710 C   0  0  0  0  0  3  0  0  0  0  0  0
   47.4390   83.9840   54.5500 C   0  0  0  0  0  0  0  0  0  0  0  0
   48.4820   83.7390   54.3160 H   0  0  0  0  0  0  0  0  0  0  0  0
   46.4610   84.0380   53.5590 C   0  0  0  0  0  0  0  0  0  0  0  0
   46.7640   83.8330   52.5570 H   0  0  0  0  0  0  0  0  0  0  0  0
   45.1490   84.3550   53.9220 C   0  0  0  0  0  3  0  0  0  0  0  0
  2  1  1  0  0  0  0
  2  3  1  0  0  0  0
  3 12  1  0  0  0  0
  4  3  2  0  0  0  0
  4  9  1  0  0  0  0
  5  4  1  0  0  0  0
  6  8  1  0  0  0  0
  6  5  2  0  0  0  0
  7  6  1  0  0  0  0
  8  2  2  0  0  0  0
 10  5  1  0  0  0  0
 11 16  1  0  0  0  0
 12 13  1  0  0  0  0
 12 11  2  0  0  0  0
 13 14  2  0  0  0  0
 14 15  1  0  0  0  0
 15 19  1  0  0  0  0
 16 15  2  0  0  0  0
 17 11  1  0  0  0  0
 18 13  1  0  0  0  0
 19 22  1  0  0  0  0
 19 21  1  0  0  0  0
 20 19  1  0  0  0  0
 23  8  1  0  0  0  0
 24 26  1  0  0  0  0
 24 27  1  0  0  0  0
 24 23  1  0  0  0  0
 25 24  1  0  0  0  0
 28 27  1  0  0  0  0
 28 29  1  0  0  0  0
 29 30  1  0  0  0  0
 31 29  2  0  0  0  0
 32 31  1  0  0  0  0
 33 32  1  0  0  0  0
 34 36  1  0  0  0  0
 34 32  2  0  0  0  0
 35 34  1  0  0  0  0
 36 28  2  0  0  0  0
M  END
>  <minimizedAffinity>
-4.77575779

>  <minimizedRMSD>
0.391080409

$$$$
