
 OpenBabel03212520203D

 36 38  0  0  0  0  0  0  0  0999 V2000
   43.0950   83.9710   58.5610 Cl  0  0  0  0  0  0  0  0  0  0  0  0
   41.8740   82.7790   58.1720 C   0  0  0  0  0  0  0  0  0  0  0  0
   40.9980   82.2440   59.1190 C   0  0  0  0  0  0  0  0  0  0  0  0
   40.1020   81.3210   58.6470 C   0  0  0  0  0  0  0  0  0  0  0  0
   39.9680   80.8650   57.3600 C   0  0  0  0  0  0  0  0  0  0  0  0
   40.8430   81.4130   56.4640 C   0  0  0  0  0  0  0  0  0  0  0  0
   40.7920   80.9260   54.7740 Cl  0  0  0  0  0  0  0  0  0  0  0  0
   41.7840   82.3560   56.8570 C   0  0  0  0  0  0  0  0  0  0  0  0
   39.4340   80.9260   59.4200 H   0  0  0  0  0  0  0  0  0  0  0  0
   39.2220   80.1300   57.0960 H   0  0  0  0  0  0  0  0  0  0  0  0
   41.9550   82.1730   61.4720 C   0  0  0  0  0  0  0  0  0  0  0  0
   41.0980   82.6830   60.4620 C   0  0  0  0  0  0  0  0  0  0  0  0
   40.2660   83.7260   60.8290 C   0  0  0  0  0  0  0  0  0  0  0  0
   40.3370   84.1720   62.1150 N   0  0  0  0  0  0  0  0  0  0  0  0
   41.1520   83.6720   63.0380 C   0  0  0  0  0  0  0  0  0  0  0  0
   41.9880   82.6410   62.7110 N   0  0  0  0  0  0  0  0  0  0  0  0
   42.5890   81.3550   61.1310 H   0  0  0  0  0  0  0  0  0  0  0  0
   39.5470   84.2270   60.1660 H   0  0  0  0  0  0  0  0  0  0  0  0
   41.0730   84.3010   64.3760 C   0  0  0  0  0  0  0  0  0  0  0  0
   40.7440   85.6370   64.3170 F   0  0  0  0  0  0  0  0  0  0  0  0
   40.1240   83.6500   65.1600 F   0  0  0  0  0  0  0  0  0  0  0  0
   42.3350   84.2550   65.0260 F   0  0  0  0  0  0  0  0  0  0  0  0
   42.6460   82.8790   55.9100 O   0  0  0  0  0  0  0  0  0  0  0  0
   42.3920   84.0110   55.1470 C   0  0  0  0  0  0  0  0  0  0  0  0
   42.3630   83.6770   54.0750 H   0  0  0  0  0  0  0  0  0  0  0  0
   41.4570   84.5310   55.3590 H   0  0  0  0  0  0  0  0  0  0  0  0
   43.4990   84.8850   55.2550 O   0  0  0  0  0  0  0  0  0  0  0  0
   44.7990   84.5290   55.0450 C   0  0  0  0  0  0  0  0  0  0  0  0
   45.3920   83.8770   53.9900 C   0  0  0  0  0  0  0  0  0  0  0  0
   44.7050   83.6140   53.2180 H   0  0  0  0  0  0  0  0  0  0  0  0
   46.7570   83.6190   54.0000 C   0  0  0  0  0  3  0  0  0  0  0  0
   47.5610   84.0110   55.0700 C   0  0  0  0  0  0  0  0  0  0  0  0
   48.6350   83.7910   55.0440 H   0  0  0  0  0  0  0  0  0  0  0  0
   46.9780   84.6730   56.1480 C   0  0  0  0  0  0  0  0  0  0  0  0
   47.6150   84.9600   56.9530 H   0  0  0  0  0  0  0  0  0  0  0  0
   45.6020   84.9240   56.1210 C   0  0  0  0  0  3  0  0  0  0  0  0
  2  1  1  0  0  0  0
  2  3  1  0  0  0  0
  3 12  1  0  0  0  0
  4  3  2  0  0  0  0
  4  9  1  0  0  0  0
  5  4  1  0  0  0  0
  6  8  1  0  0  0  0
  6  5  2  0  0  0  0
  7  6  1  0  0  0  0
  8  2  2  0  0  0  0
 10  5  1  0  0  0  0
 11 16  1  0  0  0  0
 12 13  1  0  0  0  0
 12 11  2  0  0  0  0
 13 14  2  0  0  0  0
 14 15  1  0  0  0  0
 15 19  1  0  0  0  0
 16 15  2  0  0  0  0
 17 11  1  0  0  0  0
 18 13  1  0  0  0  0
 19 22  1  0  0  0  0
 19 21  1  0  0  0  0
 20 19  1  0  0  0  0
 23  8  1  0  0  0  0
 24 27  1  0  0  0  0
 24 26  1  0  0  0  0
 24 23  1  0  0  0  0
 25 24  1  0  0  0  0
 28 27  1  0  0  0  0
 28 36  1  0  0  0  0
 29 31  1  0  0  0  0
 29 28  2  0  0  0  0
 30 29  1  0  0  0  0
 31 32  2  0  0  0  0
 32 34  1  0  0  0  0
 33 32  1  0  0  0  0
 34 35  1  0  0  0  0
 36 34  2  0  0  0  0
M  END
>  <minimizedAffinity>
-4.7811079

>  <minimizedRMSD>
0.225591809

$$$$
