
 OpenBabel03212520203D

 36 38  0  0  0  0  0  0  0  0999 V2000
   43.1140   83.9450   58.5920 Cl  0  0  0  0  0  0  0  0  0  0  0  0
   41.8830   82.7640   58.1990 C   0  0  0  0  0  0  0  0  0  0  0  0
   40.9970   82.2400   59.1430 C   0  0  0  0  0  0  0  0  0  0  0  0
   40.0940   81.3240   58.6680 C   0  0  0  0  0  0  0  0  0  0  0  0
   39.9620   80.8670   57.3800 C   0  0  0  0  0  0  0  0  0  0  0  0
   40.8470   81.4050   56.4890 C   0  0  0  0  0  0  0  0  0  0  0  0
   40.7990   80.9160   54.7990 Cl  0  0  0  0  0  0  0  0  0  0  0  0
   41.7950   82.3390   56.8840 C   0  0  0  0  0  0  0  0  0  0  0  0
   39.4180   80.9370   59.4380 H   0  0  0  0  0  0  0  0  0  0  0  0
   39.2100   80.1400   57.1140 H   0  0  0  0  0  0  0  0  0  0  0  0
   41.9420   82.1650   61.5000 C   0  0  0  0  0  0  0  0  0  0  0  0
   41.0940   82.6800   60.4850 C   0  0  0  0  0  0  0  0  0  0  0  0
   40.2700   83.7310   60.8470 C   0  0  0  0  0  0  0  0  0  0  0  0
   40.3400   84.1790   62.1320 N   0  0  0  0  0  0  0  0  0  0  0  0
   41.1460   83.6730   63.0590 C   0  0  0  0  0  0  0  0  0  0  0  0
   41.9740   82.6340   62.7390 N   0  0  0  0  0  0  0  0  0  0  0  0
   42.5700   81.3390   61.1640 H   0  0  0  0  0  0  0  0  0  0  0  0
   39.5600   84.2380   60.1790 H   0  0  0  0  0  0  0  0  0  0  0  0
   41.0660   84.3060   64.3960 C   0  0  0  0  0  0  0  0  0  0  0  0
   40.7340   85.6400   64.3340 F   0  0  0  0  0  0  0  0  0  0  0  0
   40.1190   83.6540   65.1830 F   0  0  0  0  0  0  0  0  0  0  0  0
   42.3280   84.2640   65.0450 F   0  0  0  0  0  0  0  0  0  0  0  0
   42.6670   82.8520   55.9410 O   0  0  0  0  0  0  0  0  0  0  0  0
   42.4190   83.9730   55.1590 C   0  0  0  0  0  0  0  0  0  0  0  0
   42.5010   83.6440   54.0890 H   0  0  0  0  0  0  0  0  0  0  0  0
   41.4420   84.4410   55.2900 H   0  0  0  0  0  0  0  0  0  0  0  0
   43.4640   84.9050   55.3630 O   0  0  0  0  0  0  0  0  0  0  0  0
   44.7940   84.6220   55.2610 C   0  0  0  0  0  0  0  0  0  0  0  0
   45.7720   84.5490   56.2240 C   0  0  0  0  0  0  0  0  0  0  0  0
   45.4100   84.7510   57.2070 H   0  0  0  0  0  0  0  0  0  0  0  0
   47.0800   84.2380   55.8760 C   0  0  0  0  0  3  0  0  0  0  0  0
   47.4380   83.9920   54.5510 C   0  0  0  0  0  0  0  0  0  0  0  0
   48.4820   83.7480   54.3130 H   0  0  0  0  0  0  0  0  0  0  0  0
   46.4610   84.0610   53.5610 C   0  0  0  0  0  0  0  0  0  0  0  0
   46.7620   83.8690   52.5560 H   0  0  0  0  0  0  0  0  0  0  0  0
   45.1490   84.3750   53.9300 C   0  0  0  0  0  3  0  0  0  0  0  0
  2  1  1  0  0  0  0
  2  3  1  0  0  0  0
  3 12  1  0  0  0  0
  4  3  2  0  0  0  0
  4  9  1  0  0  0  0
  5  4  1  0  0  0  0
  6  8  1  0  0  0  0
  6  5  2  0  0  0  0
  7  6  1  0  0  0  0
  8  2  2  0  0  0  0
 10  5  1  0  0  0  0
 11 16  1  0  0  0  0
 12 13  1  0  0  0  0
 12 11  2  0  0  0  0
 13 14  2  0  0  0  0
 14 15  1  0  0  0  0
 15 19  1  0  0  0  0
 16 15  2  0  0  0  0
 17 11  1  0  0  0  0
 18 13  1  0  0  0  0
 19 22  1  0  0  0  0
 19 21  1  0  0  0  0
 20 19  1  0  0  0  0
 23  8  1  0  0  0  0
 24 26  1  0  0  0  0
 24 27  1  0  0  0  0
 24 23  1  0  0  0  0
 25 24  1  0  0  0  0
 28 27  1  0  0  0  0
 28 29  1  0  0  0  0
 29 30  1  0  0  0  0
 31 29  2  0  0  0  0
 32 31  1  0  0  0  0
 33 32  1  0  0  0  0
 34 36  1  0  0  0  0
 34 32  2  0  0  0  0
 35 34  1  0  0  0  0
 36 28  2  0  0  0  0
M  END
>  <minimizedAffinity>
-4.77502775

>  <minimizedRMSD>
0.465669274

$$$$
