
 OpenBabel03212520203D

 36 38  0  0  0  0  0  0  0  0999 V2000
   43.1160   83.9400   58.6080 Cl  0  0  0  0  0  0  0  0  0  0  0  0
   41.8840   82.7610   58.2130 C   0  0  0  0  0  0  0  0  0  0  0  0
   40.9960   82.2380   59.1560 C   0  0  0  0  0  0  0  0  0  0  0  0
   40.0930   81.3240   58.6810 C   0  0  0  0  0  0  0  0  0  0  0  0
   39.9630   80.8660   57.3930 C   0  0  0  0  0  0  0  0  0  0  0  0
   40.8500   81.4020   56.5030 C   0  0  0  0  0  0  0  0  0  0  0  0
   40.8040   80.9110   54.8130 Cl  0  0  0  0  0  0  0  0  0  0  0  0
   41.7990   82.3350   56.8990 C   0  0  0  0  0  0  0  0  0  0  0  0
   39.4150   80.9380   59.4500 H   0  0  0  0  0  0  0  0  0  0  0  0
   39.2100   80.1390   57.1260 H   0  0  0  0  0  0  0  0  0  0  0  0
   41.9330   82.1600   61.5170 C   0  0  0  0  0  0  0  0  0  0  0  0
   41.0920   82.6800   60.4980 C   0  0  0  0  0  0  0  0  0  0  0  0
   40.2740   83.7370   60.8550 C   0  0  0  0  0  0  0  0  0  0  0  0
   40.3420   84.1860   62.1400 N   0  0  0  0  0  0  0  0  0  0  0  0
   41.1410   83.6760   63.0710 C   0  0  0  0  0  0  0  0  0  0  0  0
   41.9630   82.6310   62.7550 N   0  0  0  0  0  0  0  0  0  0  0  0
   42.5560   81.3300   61.1840 H   0  0  0  0  0  0  0  0  0  0  0  0
   39.5690   84.2480   60.1850 H   0  0  0  0  0  0  0  0  0  0  0  0
   41.0610   84.3110   64.4070 C   0  0  0  0  0  0  0  0  0  0  0  0
   40.7290   85.6460   64.3420 F   0  0  0  0  0  0  0  0  0  0  0  0
   40.1140   83.6600   65.1940 F   0  0  0  0  0  0  0  0  0  0  0  0
   42.3230   84.2700   65.0560 F   0  0  0  0  0  0  0  0  0  0  0  0
   42.6730   82.8460   55.9560 O   0  0  0  0  0  0  0  0  0  0  0  0
   42.4150   83.9480   55.1520 C   0  0  0  0  0  0  0  0  0  0  0  0
   42.5020   83.5980   54.0890 H   0  0  0  0  0  0  0  0  0  0  0  0
   41.4330   84.4090   55.2720 H   0  0  0  0  0  0  0  0  0  0  0  0
   43.4500   84.8950   55.3390 O   0  0  0  0  0  0  0  0  0  0  0  0
   44.7820   84.6320   55.2060 C   0  0  0  0  0  0  0  0  0  0  0  0
   45.4670   83.9350   54.2390 C   0  0  0  0  0  0  0  0  0  0  0  0
   44.8350   83.5440   53.4740 H   0  0  0  0  0  0  0  0  0  0  0  0
   46.8470   83.7980   54.3170 C   0  0  0  0  0  3  0  0  0  0  0  0
   47.5740   84.3550   55.3690 C   0  0  0  0  0  0  0  0  0  0  0  0
   48.6620   84.2260   55.3990 H   0  0  0  0  0  0  0  0  0  0  0  0
   46.8960   85.0640   56.3580 C   0  0  0  0  0  0  0  0  0  0  0  0
   47.4750   85.4800   57.1520 H   0  0  0  0  0  0  0  0  0  0  0  0
   45.5060   85.1940   56.2650 C   0  0  0  0  0  3  0  0  0  0  0  0
  2  1  1  0  0  0  0
  2  3  1  0  0  0  0
  3 12  1  0  0  0  0
  4  3  2  0  0  0  0
  4  9  1  0  0  0  0
  5  4  1  0  0  0  0
  6  8  1  0  0  0  0
  6  5  2  0  0  0  0
  7  6  1  0  0  0  0
  8  2  2  0  0  0  0
 10  5  1  0  0  0  0
 11 16  1  0  0  0  0
 12 13  1  0  0  0  0
 12 11  2  0  0  0  0
 13 14  2  0  0  0  0
 14 15  1  0  0  0  0
 15 19  1  0  0  0  0
 16 15  2  0  0  0  0
 17 11  1  0  0  0  0
 18 13  1  0  0  0  0
 19 22  1  0  0  0  0
 19 21  1  0  0  0  0
 20 19  1  0  0  0  0
 23  8  1  0  0  0  0
 24 26  1  0  0  0  0
 24 27  1  0  0  0  0
 24 23  1  0  0  0  0
 25 24  1  0  0  0  0
 28 27  1  0  0  0  0
 28 36  1  0  0  0  0
 29 31  1  0  0  0  0
 29 28  2  0  0  0  0
 30 29  1  0  0  0  0
 31 32  2  0  0  0  0
 32 33  1  0  0  0  0
 32 34  1  0  0  0  0
 34 35  1  0  0  0  0
 36 34  2  0  0  0  0
M  END
>  <minimizedAffinity>
-4.80412197

>  <minimizedRMSD>
0.494738579

$$$$
