
 OpenBabel03212520333D

 41 44  0  0  0  0  0  0  0  0999 V2000
   38.3270   75.1490   55.1870 C   0  0  0  0  0  0  0  0  0  0  0  0
   39.1390   74.0270   55.2000 C   0  0  0  0  0  0  0  0  0  0  0  0
   39.5500   73.4290   54.0240 C   0  0  0  0  0  0  0  0  0  0  0  0
   39.1800   73.9120   52.7690 C   0  0  0  0  0  0  0  0  0  0  0  0
   38.3770   75.0220   52.7250 C   0  0  0  0  0  0  0  0  0  0  0  0
   37.9660   75.6180   53.9070 C   0  0  0  0  0  0  0  0  0  0  0  0
   40.1860   72.5500   54.0460 H   0  0  0  0  0  0  0  0  0  0  0  0
   39.5350   73.3990   51.8870 H   0  0  0  0  0  0  0  0  0  0  0  0
   38.0590   75.4400   51.7800 H   0  0  0  0  0  0  0  0  0  0  0  0
   37.3360   76.4890   53.8360 H   0  0  0  0  0  0  0  0  0  0  0  0
   39.3420   72.0880   58.3400 C   0  0  0  0  0  0  0  0  0  0  0  0
   40.5990   72.4190   58.8100 C   0  0  0  0  0  0  0  0  0  0  0  0
   41.3490   73.3060   58.0320 C   0  0  0  0  0  0  0  0  0  0  0  0
   40.8110   73.7880   56.8730 N   0  0  0  0  0  0  0  0  0  0  0  0
   39.6040   73.4480   56.4560 C   0  0  0  0  0  0  0  0  0  0  0  0
   38.8760   72.5980   57.1940 N   0  0  0  0  0  0  0  0  0  0  0  0
   38.7870   71.4060   58.9570 H   0  0  0  0  0  0  0  0  0  0  0  0
   42.3390   73.6010   58.3490 H   0  0  0  0  0  0  0  0  0  0  0  0
   41.1040   71.8840   60.0240 N   0  0  0  0  0  0  0  0  0  0  0  0
   40.8850   72.6810   61.0840 C   0  0  0  0  0  0  0  0  0  0  0  0
   41.3430   72.2570   62.3340 C   0  0  0  0  0  0  0  0  0  0  0  0
   42.0000   71.0430   62.4340 C   0  0  0  0  0  0  0  0  0  0  0  0
   42.4650   70.5400   63.4860 O   0  0  0  0  0  0  0  0  0  0  0  0
   42.1840   70.2850   61.3030 N   0  0  0  0  0  0  0  0  0  0  0  0
   41.7350   70.7040   60.0870 C   0  0  0  0  0  0  0  0  0  0  0  0
   41.8920   70.0310   59.0520 O   0  0  0  0  0  0  0  0  0  0  0  0
   40.3790   73.6300   61.0490 H   0  0  0  0  0  0  0  0  0  0  0  0
   41.2180   72.8170   63.2280 H   0  0  0  0  0  0  0  0  0  0  0  0
   42.6680   69.3540   61.2690 H   0  0  0  0  0  0  0  0  0  0  0  0
   37.7890   75.9100   56.6400 S   0  0  0  0  0  0  0  0  0  0  0  0
   36.8340   75.0000   57.3770 O   0  0  0  0  0  0  0  0  0  0  0  0
   36.8990   77.0840   56.2130 O   0  0  0  0  0  0  0  0  0  0  0  0
   38.9780   76.4020   57.7770 C   0  0  0  0  0  0  0  0  0  0  0  0
   38.7140   75.7830   59.0140 C   0  0  0  0  0  0  0  0  0  0  0  0
   37.9240   75.0590   59.2780 H   0  0  0  0  0  0  0  0  0  0  0  0
   39.4760   76.0260   60.1540 C   0  0  0  0  0  3  0  0  0  0  0  0
   40.5340   76.8970   60.1070 C   0  0  0  0  0  0  0  0  0  0  0  0
   41.1950   77.1650   60.9160 H   0  0  0  0  0  0  0  0  0  0  0  0
   40.8300   77.5220   58.9230 C   0  0  0  0  0  0  0  0  0  0  0  0
   41.6180   78.2360   58.6890 H   0  0  0  0  0  0  0  0  0  0  0  0
   40.0730   77.2760   57.8070 C   0  0  0  0  0  3  0  0  0  0  0  0
  1  2  1  0  0  0  0
  1 30  1  0  0  0  0
  2 15  1  0  0  0  0
  3  7  1  0  0  0  0
  3  2  2  0  0  0  0
  4  3  1  0  0  0  0
  5  4  2  0  0  0  0
  5  6  1  0  0  0  0
  6  1  2  0  0  0  0
  8  4  1  0  0  0  0
  9  5  1  0  0  0  0
 10  6  1  0  0  0  0
 11 12  1  0  0  0  0
 11 17  1  0  0  0  0
 12 19  1  0  0  0  0
 13 18  1  0  0  0  0
 13 12  2  0  0  0  0
 14 13  1  0  0  0  0
 15 14  2  0  0  0  0
 15 16  1  0  0  0  0
 16 11  2  0  0  0  0
 19 25  1  0  0  0  0
 19 20  1  0  0  0  0
 20 21  2  0  0  0  0
 21 22  1  0  0  0  0
 21 28  1  0  0  0  0
 22 23  2  0  0  0  0
 24 22  1  0  0  0  0
 25 24  1  0  0  0  0
 26 25  2  0  0  0  0
 27 20  1  0  0  0  0
 29 24  1  0  0  0  0
 30 31  2  0  0  0  0
 30 33  1  0  0  0  0
 32 30  2  0  0  0  0
 33 41  2  0  0  0  0
 33 34  1  0  0  0  0
 34 35  1  0  0  0  0
 34 36  2  0  0  0  0
 37 36  1  0  0  0  0
 37 38  1  0  0  0  0
 39 37  2  0  0  0  0
 40 39  1  0  0  0  0
 41 39  1  0  0  0  0
M  END
>  <minimizedAffinity>
-6.6340065

$$$$

 OpenBabel03212520333D

 41 44  0  0  0  0  0  0  0  0999 V2000
   41.4350   71.3360   60.1460 C   0  0  0  0  0  0  0  0  0  0  0  0
   41.0380   71.0560   58.8480 C   0  0  0  0  0  0  0  0  0  0  0  0
   41.3240   69.8380   58.2620 C   0  0  0  0  0  0  0  0  0  0  0  0
   42.0190   68.8290   58.9300 C   0  0  0  0  0  0  0  0  0  0  0  0
   42.4230   69.0780   60.2150 C   0  0  0  0  0  0  0  0  0  0  0  0
   42.1350   70.3020   60.8000 C   0  0  0  0  0  0  0  0  0  0  0  0
   41.0090   69.6290   57.2440 H   0  0  0  0  0  0  0  0  0  0  0  0
   42.2110   67.8980   58.4150 H   0  0  0  0  0  0  0  0  0  0  0  0
   42.9650   68.3330   60.7810 H   0  0  0  0  0  0  0  0  0  0  0  0
   42.4670   70.4630   61.8120 H   0  0  0  0  0  0  0  0  0  0  0  0
   38.3010   73.0290   57.3410 C   0  0  0  0  0  0  0  0  0  0  0  0
   38.9890   73.9180   56.5360 C   0  0  0  0  0  0  0  0  0  0  0  0
   40.3830   73.8160   56.5310 C   0  0  0  0  0  0  0  0  0  0  0  0
   40.9790   72.8630   57.3060 N   0  0  0  0  0  0  0  0  0  0  0  0
   40.2880   72.0290   58.0630 C   0  0  0  0  0  0  0  0  0  0  0  0
   38.9510   72.1180   58.0750 N   0  0  0  0  0  0  0  0  0  0  0  0
   37.2320   73.1280   57.3250 H   0  0  0  0  0  0  0  0  0  0  0  0
   40.9730   74.4850   55.9210 H   0  0  0  0  0  0  0  0  0  0  0  0
   38.3100   74.8880   55.7520 N   0  0  0  0  0  0  0  0  0  0  0  0
   38.3300   74.6130   54.4370 C   0  0  0  0  0  0  0  0  0  0  0  0
   37.6960   75.5040   53.5660 C   0  0  0  0  0  0  0  0  0  0  0  0
   37.0760   76.6260   54.0870 C   0  0  0  0  0  0  0  0  0  0  0  0
   36.4730   77.5090   53.4270 O   0  0  0  0  0  0  0  0  0  0  0  0
   37.0990   76.8380   55.4440 N   0  0  0  0  0  0  0  0  0  0  0  0
   37.7200   75.9650   56.2880 C   0  0  0  0  0  0  0  0  0  0  0  0
   37.7500   76.1400   57.5200 O   0  0  0  0  0  0  0  0  0  0  0  0
   38.8000   73.7520   53.9930 H   0  0  0  0  0  0  0  0  0  0  0  0
   37.6590   75.3710   52.5130 H   0  0  0  0  0  0  0  0  0  0  0  0
   36.6620   77.6540   55.9380 H   0  0  0  0  0  0  0  0  0  0  0  0
   41.1010   72.8520   60.9010 S   0  0  0  0  0  0  0  0  0  0  0  0
   41.6560   72.8630   62.3060 O   0  0  0  0  0  0  0  0  0  0  0  0
   39.5840   72.9050   61.1200 O   0  0  0  0  0  0  0  0  0  0  0  0
   41.6770   74.2760   60.1320 C   0  0  0  0  0  0  0  0  0  0  0  0
   40.6160   75.1950   60.0190 C   0  0  0  0  0  0  0  0  0  0  0  0
   39.5760   75.1100   60.3770 H   0  0  0  0  0  0  0  0  0  0  0  0
   40.7550   76.4300   59.3880 C   0  0  0  0  0  3  0  0  0  0  0  0
   41.9600   76.7970   58.8450 C   0  0  0  0  0  0  0  0  0  0  0  0
   42.1920   77.7190   58.3360 H   0  0  0  0  0  0  0  0  0  0  0  0
   43.0210   75.9340   58.9330 C   0  0  0  0  0  0  0  0  0  0  0  0
   44.0420   76.0440   58.5690 H   0  0  0  0  0  0  0  0  0  0  0  0
   42.8730   74.7210   59.5550 C   0  0  0  0  0  3  0  0  0  0  0  0
  1  6  1  0  0  0  0
  1 30  1  0  0  0  0
  2  1  2  0  0  0  0
  3  2  1  0  0  0  0
  3  4  2  0  0  0  0
  4  5  1  0  0  0  0
  5  9  1  0  0  0  0
  5  6  2  0  0  0  0
  6 10  1  0  0  0  0
  7  3  1  0  0  0  0
  8  4  1  0  0  0  0
 11 16  1  0  0  0  0
 12 11  2  0  0  0  0
 13 12  1  0  0  0  0
 13 14  2  0  0  0  0
 14 15  1  0  0  0  0
 15 16  2  0  0  0  0
 15  2  1  0  0  0  0
 17 11  1  0  0  0  0
 18 13  1  0  0  0  0
 19 25  1  0  0  0  0
 19 12  1  0  0  0  0
 20 19  1  0  0  0  0
 21 22  1  0  0  0  0
 21 20  2  0  0  0  0
 22 24  1  0  0  0  0
 23 22  2  0  0  0  0
 24 29  1  0  0  0  0
 24 25  1  0  0  0  0
 25 26  2  0  0  0  0
 27 20  1  0  0  0  0
 28 21  1  0  0  0  0
 30 32  2  0  0  0  0
 30 31  2  0  0  0  0
 33 30  1  0  0  0  0
 34 33  1  0  0  0  0
 34 35  1  0  0  0  0
 36 34  2  0  0  0  0
 37 39  2  0  0  0  0
 37 36  1  0  0  0  0
 38 37  1  0  0  0  0
 39 41  1  0  0  0  0
 40 39  1  0  0  0  0
 41 33  2  0  0  0  0
M  END
>  <minimizedAffinity>
-6.42359686

$$$$

 OpenBabel03212520333D

 41 44  0  0  0  0  0  0  0  0999 V2000
   38.8470   74.7970   55.7390 C   0  0  0  0  0  0  0  0  0  0  0  0
   39.9960   74.0240   55.7180 C   0  0  0  0  0  0  0  0  0  0  0  0
   40.7670   73.9210   54.5760 C   0  0  0  0  0  0  0  0  0  0  0  0
   40.4410   74.5800   53.3900 C   0  0  0  0  0  0  0  0  0  0  0  0
   39.3100   75.3540   53.3820 C   0  0  0  0  0  0  0  0  0  0  0  0
   38.5390   75.4540   54.5300 C   0  0  0  0  0  0  0  0  0  0  0  0
   41.6650   73.3120   54.5700 H   0  0  0  0  0  0  0  0  0  0  0  0
   41.0860   74.4590   52.5310 H   0  0  0  0  0  0  0  0  0  0  0  0
   39.0090   75.8880   52.4910 H   0  0  0  0  0  0  0  0  0  0  0  0
   37.6570   76.0700   54.4880 H   0  0  0  0  0  0  0  0  0  0  0  0
   40.3870   71.4950   58.3840 C   0  0  0  0  0  0  0  0  0  0  0  0
   41.3770   72.0500   59.1730 C   0  0  0  0  0  0  0  0  0  0  0  0
   41.8870   73.2860   58.7670 C   0  0  0  0  0  0  0  0  0  0  0  0
   41.3920   73.8680   57.6360 N   0  0  0  0  0  0  0  0  0  0  0  0
   40.4430   73.3070   56.9060 C   0  0  0  0  0  0  0  0  0  0  0  0
   39.9460   72.1210   57.2870 N   0  0  0  0  0  0  0  0  0  0  0  0
   40.0110   70.5460   58.7190 H   0  0  0  0  0  0  0  0  0  0  0  0
   42.6640   73.7670   59.3450 H   0  0  0  0  0  0  0  0  0  0  0  0
   41.8520   71.3940   60.3390 N   0  0  0  0  0  0  0  0  0  0  0  0
   42.7710   70.4480   60.0770 C   0  0  0  0  0  0  0  0  0  0  0  0
   43.3070   69.7330   61.1510 C   0  0  0  0  0  0  0  0  0  0  0  0
   42.8760   70.0210   62.4330 C   0  0  0  0  0  0  0  0  0  0  0  0
   43.2660   69.4600   63.4870 O   0  0  0  0  0  0  0  0  0  0  0  0
   41.9330   71.0040   62.6200 N   0  0  0  0  0  0  0  0  0  0  0  0
   41.4140   71.6980   61.5690 C   0  0  0  0  0  0  0  0  0  0  0  0
   40.5600   72.5910   61.7180 O   0  0  0  0  0  0  0  0  0  0  0  0
   43.1320   70.1940   59.0960 H   0  0  0  0  0  0  0  0  0  0  0  0
   44.0360   68.9680   61.0430 H   0  0  0  0  0  0  0  0  0  0  0  0
   41.5400   71.2980   63.5470 H   0  0  0  0  0  0  0  0  0  0  0  0
   37.8590   74.9360   57.1480 S   0  0  0  0  0  0  0  0  0  0  0  0
   37.2610   73.5930   57.4930 O   0  0  0  0  0  0  0  0  0  0  0  0
   36.6390   75.7730   56.7440 O   0  0  0  0  0  0  0  0  0  0  0  0
   38.5870   75.5360   58.5830 C   0  0  0  0  0  0  0  0  0  0  0  0
   39.1450   76.8020   58.3180 C   0  0  0  0  0  0  0  0  0  0  0  0
   39.1230   77.3950   57.3870 H   0  0  0  0  0  0  0  0  0  0  0  0
   39.8550   77.5260   59.2740 C   0  0  0  0  0  3  0  0  0  0  0  0
   40.0360   77.0160   60.5340 C   0  0  0  0  0  0  0  0  0  0  0  0
   40.5620   77.4770   61.3550 H   0  0  0  0  0  0  0  0  0  0  0  0
   39.5090   75.7870   60.8370 C   0  0  0  0  0  0  0  0  0  0  0  0
   39.5460   75.2230   61.7680 H   0  0  0  0  0  0  0  0  0  0  0  0
   38.8120   75.0840   59.8890 C   0  0  0  0  0  3  0  0  0  0  0  0
  1 30  1  0  0  0  0
  2  1  1  0  0  0  0
  2 15  1  0  0  0  0
  3  2  2  0  0  0  0
  4  3  1  0  0  0  0
  5  4  2  0  0  0  0
  5  6  1  0  0  0  0
  6  1  2  0  0  0  0
  7  3  1  0  0  0  0
  8  4  1  0  0  0  0
  9  5  1  0  0  0  0
 10  6  1  0  0  0  0
 11 17  1  0  0  0  0
 11 12  1  0  0  0  0
 12 19  1  0  0  0  0
 13 12  2  0  0  0  0
 13 18  1  0  0  0  0
 14 13  1  0  0  0  0
 15 16  1  0  0  0  0
 15 14  2  0  0  0  0
 16 11  2  0  0  0  0
 19 25  1  0  0  0  0
 20 19  1  0  0  0  0
 20 21  2  0  0  0  0
 21 22  1  0  0  0  0
 22 24  1  0  0  0  0
 22 23  2  0  0  0  0
 24 29  1  0  0  0  0
 25 26  2  0  0  0  0
 25 24  1  0  0  0  0
 27 20  1  0  0  0  0
 28 21  1  0  0  0  0
 30 31  2  0  0  0  0
 30 33  1  0  0  0  0
 32 30  2  0  0  0  0
 33 41  1  0  0  0  0
 34 33  2  0  0  0  0
 34 36  1  0  0  0  0
 35 34  1  0  0  0  0
 36 37  2  0  0  0  0
 37 39  1  0  0  0  0
 37 38  1  0  0  0  0
 39 40  1  0  0  0  0
 41 39  2  0  0  0  0
M  END
>  <minimizedAffinity>
-6.42051888

$$$$

 OpenBabel03212520333D

 41 44  0  0  0  0  0  0  0  0999 V2000
   42.2560   70.8460   61.0320 C   0  0  0  0  0  0  0  0  0  0  0  0
   41.8310   70.2710   59.8450 C   0  0  0  0  0  0  0  0  0  0  0  0
   41.8720   68.9020   59.6590 C   0  0  0  0  0  0  0  0  0  0  0  0
   42.3370   68.0260   60.6410 C   0  0  0  0  0  0  0  0  0  0  0  0
   42.7630   68.5660   61.8260 C   0  0  0  0  0  0  0  0  0  0  0  0
   42.7210   69.9400   62.0080 C   0  0  0  0  0  0  0  0  0  0  0  0
   41.5370   68.4620   58.7250 H   0  0  0  0  0  0  0  0  0  0  0  0
   42.3430   66.9660   60.4330 H   0  0  0  0  0  0  0  0  0  0  0  0
   43.1330   67.9360   62.6220 H   0  0  0  0  0  0  0  0  0  0  0  0
   43.0630   70.3310   62.9520 H   0  0  0  0  0  0  0  0  0  0  0  0
   41.5610   72.5130   56.9200 C   0  0  0  0  0  0  0  0  0  0  0  0
   40.1940   72.5960   56.7380 C   0  0  0  0  0  0  0  0  0  0  0  0
   39.3950   71.8760   57.6300 C   0  0  0  0  0  0  0  0  0  0  0  0
   39.9950   71.1440   58.6140 N   0  0  0  0  0  0  0  0  0  0  0  0
   41.3070   71.0890   58.7570 C   0  0  0  0  0  0  0  0  0  0  0  0
   42.0830   71.7760   57.9070 N   0  0  0  0  0  0  0  0  0  0  0  0
   42.1520   73.0770   56.2220 H   0  0  0  0  0  0  0  0  0  0  0  0
   38.3180   71.9020   57.5360 H   0  0  0  0  0  0  0  0  0  0  0  0
   39.6290   73.3750   55.6940 N   0  0  0  0  0  0  0  0  0  0  0  0
   39.3530   74.6370   56.0660 C   0  0  0  0  0  0  0  0  0  0  0  0
   38.7890   75.4960   55.1190 C   0  0  0  0  0  0  0  0  0  0  0  0
   38.5370   75.0200   53.8450 C   0  0  0  0  0  0  0  0  0  0  0  0
   38.0330   75.6750   52.8990 O   0  0  0  0  0  0  0  0  0  0  0  0
   38.8470   73.7160   53.5410 N   0  0  0  0  0  0  0  0  0  0  0  0
   39.3980   72.8840   54.4690 C   0  0  0  0  0  0  0  0  0  0  0  0
   39.6860   71.7010   54.2120 O   0  0  0  0  0  0  0  0  0  0  0  0
   39.5340   75.0450   57.0450 H   0  0  0  0  0  0  0  0  0  0  0  0
   38.5360   76.5080   55.3200 H   0  0  0  0  0  0  0  0  0  0  0  0
   38.6970   73.2590   52.6090 H   0  0  0  0  0  0  0  0  0  0  0  0
   42.2260   72.5520   61.2880 S   0  0  0  0  0  0  0  0  0  0  0  0
   43.3200   73.2140   60.4830 O   0  0  0  0  0  0  0  0  0  0  0  0
   42.6660   72.7820   62.7390 O   0  0  0  0  0  0  0  0  0  0  0  0
   40.7720   73.3920   60.9310 C   0  0  0  0  0  0  0  0  0  0  0  0
   41.0650   74.4720   60.0750 C   0  0  0  0  0  0  0  0  0  0  0  0
   42.0300   74.7690   59.6300 H   0  0  0  0  0  0  0  0  0  0  0  0
   40.0960   75.3770   59.6470 C   0  0  0  0  0  3  0  0  0  0  0  0
   38.7940   75.2410   60.0560 C   0  0  0  0  0  0  0  0  0  0  0  0
   37.9590   75.8720   59.7950 H   0  0  0  0  0  0  0  0  0  0  0  0
   38.4610   74.2040   60.8880 C   0  0  0  0  0  0  0  0  0  0  0  0
   37.4970   73.9330   61.3140 H   0  0  0  0  0  0  0  0  0  0  0  0
   39.4240   73.3190   61.3030 C   0  0  0  0  0  3  0  0  0  0  0  0
  1 30  1  0  0  0  0
  1  6  1  0  0  0  0
  2  1  2  0  0  0  0
  3  2  1  0  0  0  0
  3  4  2  0  0  0  0
  4  5  1  0  0  0  0
  5  6  2  0  0  0  0
  5  9  1  0  0  0  0
  6 10  1  0  0  0  0
  7  3  1  0  0  0  0
  8  4  1  0  0  0  0
 11 16  1  0  0  0  0
 12 11  2  0  0  0  0
 12 13  1  0  0  0  0
 13 14  2  0  0  0  0
 14 15  1  0  0  0  0
 15  2  1  0  0  0  0
 16 15  2  0  0  0  0
 17 11  1  0  0  0  0
 18 13  1  0  0  0  0
 19 20  1  0  0  0  0
 19 12  1  0  0  0  0
 20 27  1  0  0  0  0
 21 28  1  0  0  0  0
 21 20  2  0  0  0  0
 22 21  1  0  0  0  0
 23 22  2  0  0  0  0
 24 22  1  0  0  0  0
 24 25  1  0  0  0  0
 25 19  1  0  0  0  0
 26 25  2  0  0  0  0
 29 24  1  0  0  0  0
 30 32  2  0  0  0  0
 31 30  2  0  0  0  0
 33 30  1  0  0  0  0
 33 41  1  0  0  0  0
 34 33  2  0  0  0  0
 35 34  1  0  0  0  0
 36 37  2  0  0  0  0
 36 34  1  0  0  0  0
 37 39  1  0  0  0  0
 38 37  1  0  0  0  0
 39 41  2  0  0  0  0
 39 40  1  0  0  0  0
M  END
>  <minimizedAffinity>
-6.29123068

$$$$

 OpenBabel03212520333D

 41 44  0  0  0  0  0  0  0  0999 V2000
   44.6470   67.0590   60.8280 C   0  0  0  0  0  0  0  0  0  0  0  0
   44.5110   67.8900   59.7270 C   0  0  0  0  0  0  0  0  0  0  0  0
   45.1810   67.6270   58.5470 C   0  0  0  0  0  0  0  0  0  0  0  0
   46.0230   66.5250   58.3930 C   0  0  0  0  0  0  0  0  0  0  0  0
   46.1750   65.6850   59.4650 C   0  0  0  0  0  0  0  0  0  0  0  0
   45.5020   65.9530   60.6480 C   0  0  0  0  0  0  0  0  0  0  0  0
   45.0680   68.2840   57.6910 H   0  0  0  0  0  0  0  0  0  0  0  0
   46.5180   66.3750   57.4440 H   0  0  0  0  0  0  0  0  0  0  0  0
   46.8140   64.8150   59.4030 H   0  0  0  0  0  0  0  0  0  0  0  0
   45.6440   65.2720   61.4700 H   0  0  0  0  0  0  0  0  0  0  0  0
   41.5510   70.1010   59.6450 C   0  0  0  0  0  0  0  0  0  0  0  0
   42.1070   71.3450   59.8750 C   0  0  0  0  0  0  0  0  0  0  0  0
   43.4930   71.3930   60.0520 C   0  0  0  0  0  0  0  0  0  0  0  0
   44.2090   70.2330   59.9900 N   0  0  0  0  0  0  0  0  0  0  0  0
   43.6420   69.0600   59.7680 C   0  0  0  0  0  0  0  0  0  0  0  0
   42.3130   69.0020   59.5970 N   0  0  0  0  0  0  0  0  0  0  0  0
   40.4850   70.0920   59.5110 H   0  0  0  0  0  0  0  0  0  0  0  0
   43.9830   72.3390   60.2350 H   0  0  0  0  0  0  0  0  0  0  0  0
   41.3080   72.5180   59.9280 N   0  0  0  0  0  0  0  0  0  0  0  0
   40.8300   72.7760   61.1580 C   0  0  0  0  0  0  0  0  0  0  0  0
   40.0250   73.9050   61.3300 C   0  0  0  0  0  0  0  0  0  0  0  0
   39.7510   74.7080   60.2370 C   0  0  0  0  0  0  0  0  0  0  0  0
   39.0450   75.7470   60.2430 O   0  0  0  0  0  0  0  0  0  0  0  0
   40.2780   74.3770   59.0110 N   0  0  0  0  0  0  0  0  0  0  0  0
   41.0620   73.2750   58.8510 C   0  0  0  0  0  0  0  0  0  0  0  0
   41.5480   72.9590   57.7490 O   0  0  0  0  0  0  0  0  0  0  0  0
   41.0200   72.1770   62.0320 H   0  0  0  0  0  0  0  0  0  0  0  0
   39.6030   74.1900   62.2620 H   0  0  0  0  0  0  0  0  0  0  0  0
   40.1310   74.9160   58.1230 H   0  0  0  0  0  0  0  0  0  0  0  0
   43.8310   67.3690   62.3170 S   0  0  0  0  0  0  0  0  0  0  0  0
   43.9130   68.8390   62.6550 O   0  0  0  0  0  0  0  0  0  0  0  0
   44.6680   66.7060   63.4180 O   0  0  0  0  0  0  0  0  0  0  0  0
   42.1760   66.9270   62.4330 C   0  0  0  0  0  0  0  0  0  0  0  0
   41.4900   67.9090   63.1730 C   0  0  0  0  0  0  0  0  0  0  0  0
   41.8690   68.8520   63.6020 H   0  0  0  0  0  0  0  0  0  0  0  0
   40.1360   67.8070   63.4850 C   0  0  0  0  0  3  0  0  0  0  0  0
   39.4100   66.7200   63.0700 C   0  0  0  0  0  0  0  0  0  0  0  0
   38.3640   66.5280   63.2460 H   0  0  0  0  0  0  0  0  0  0  0  0
   40.0360   65.7390   62.3450 C   0  0  0  0  0  0  0  0  0  0  0  0
   39.6360   64.8140   61.9320 H   0  0  0  0  0  0  0  0  0  0  0  0
   41.3690   65.8500   62.0440 C   0  0  0  0  0  3  0  0  0  0  0  0
  1 30  1  0  0  0  0
  2 15  1  0  0  0  0
  2  1  2  0  0  0  0
  3  2  1  0  0  0  0
  4  3  2  0  0  0  0
  4  5  1  0  0  0  0
  5  6  2  0  0  0  0
  6  1  1  0  0  0  0
  6 10  1  0  0  0  0
  7  3  1  0  0  0  0
  8  4  1  0  0  0  0
  9  5  1  0  0  0  0
 11 12  1  0  0  0  0
 12 19  1  0  0  0  0
 12 13  2  0  0  0  0
 13 18  1  0  0  0  0
 14 13  1  0  0  0  0
 15 14  2  0  0  0  0
 16 11  2  0  0  0  0
 16 15  1  0  0  0  0
 17 11  1  0  0  0  0
 19 20  1  0  0  0  0
 20 21  2  0  0  0  0
 20 27  1  0  0  0  0
 21 28  1  0  0  0  0
 22 23  2  0  0  0  0
 22 21  1  0  0  0  0
 24 22  1  0  0  0  0
 25 24  1  0  0  0  0
 25 19  1  0  0  0  0
 26 25  2  0  0  0  0
 29 24  1  0  0  0  0
 30 33  1  0  0  0  0
 30 31  2  0  0  0  0
 30 32  2  0  0  0  0
 33 34  1  0  0  0  0
 34 36  2  0  0  0  0
 34 35  1  0  0  0  0
 37 38  1  0  0  0  0
 37 36  1  0  0  0  0
 39 37  2  0  0  0  0
 40 39  1  0  0  0  0
 41 39  1  0  0  0  0
 41 33  2  0  0  0  0
M  END
>  <minimizedAffinity>
-6.08130217

$$$$

 OpenBabel03212520333D

 41 44  0  0  0  0  0  0  0  0999 V2000
   38.6670   76.1660   56.9960 C   0  0  0  0  0  0  0  0  0  0  0  0
   38.3910   74.9640   56.3640 C   0  0  0  0  0  0  0  0  0  0  0  0
   37.4730   74.8930   55.3330 C   0  0  0  0  0  0  0  0  0  0  0  0
   36.7780   76.0110   54.8700 C   0  0  0  0  0  0  0  0  0  0  0  0
   37.0310   77.2140   55.4760 C   0  0  0  0  0  0  0  0  0  0  0  0
   37.9520   77.2810   56.5100 C   0  0  0  0  0  0  0  0  0  0  0  0
   37.2640   73.9460   54.8460 H   0  0  0  0  0  0  0  0  0  0  0  0
   36.0730   75.8890   54.0600 H   0  0  0  0  0  0  0  0  0  0  0  0
   36.5220   78.1130   55.1580 H   0  0  0  0  0  0  0  0  0  0  0  0
   38.1270   78.2420   56.9630 H   0  0  0  0  0  0  0  0  0  0  0  0
   39.1610   71.6530   57.8120 C   0  0  0  0  0  0  0  0  0  0  0  0
   40.4710   71.4560   57.4170 C   0  0  0  0  0  0  0  0  0  0  0  0
   41.0590   72.4730   56.6590 C   0  0  0  0  0  0  0  0  0  0  0  0
   40.3250   73.5830   56.3560 N   0  0  0  0  0  0  0  0  0  0  0  0
   39.0730   73.7360   56.7520 C   0  0  0  0  0  0  0  0  0  0  0  0
   38.4990   72.7670   57.4790 N   0  0  0  0  0  0  0  0  0  0  0  0
   38.7330   70.8570   58.3930 H   0  0  0  0  0  0  0  0  0  0  0  0
   42.0820   72.3740   56.3220 H   0  0  0  0  0  0  0  0  0  0  0  0
   41.1830   70.2780   57.7640 N   0  0  0  0  0  0  0  0  0  0  0  0
   41.5520   70.2450   59.0560 C   0  0  0  0  0  0  0  0  0  0  0  0
   42.2640   69.1320   59.5110 C   0  0  0  0  0  0  0  0  0  0  0  0
   42.5610   68.1150   58.6220 C   0  0  0  0  0  0  0  0  0  0  0  0
   43.1930   67.0620   58.8890 O   0  0  0  0  0  0  0  0  0  0  0  0
   42.1490   68.2220   57.3150 N   0  0  0  0  0  0  0  0  0  0  0  0
   41.4540   69.3100   56.8780 C   0  0  0  0  0  0  0  0  0  0  0  0
   41.0720   69.4250   55.6990 O   0  0  0  0  0  0  0  0  0  0  0  0
   41.3400   71.0140   59.7780 H   0  0  0  0  0  0  0  0  0  0  0  0
   42.5980   69.0160   60.5130 H   0  0  0  0  0  0  0  0  0  0  0  0
   42.3220   67.5100   56.5640 H   0  0  0  0  0  0  0  0  0  0  0  0
   39.8000   76.2830   58.2930 S   0  0  0  0  0  0  0  0  0  0  0  0
   39.6860   77.6350   58.9570 O   0  0  0  0  0  0  0  0  0  0  0  0
   41.1930   76.3210   57.6520 O   0  0  0  0  0  0  0  0  0  0  0  0
   39.7130   75.1090   59.5420 C   0  0  0  0  0  0  0  0  0  0  0  0
   40.9950   74.5610   59.7450 C   0  0  0  0  0  0  0  0  0  0  0  0
   41.9500   74.8190   59.2580 H   0  0  0  0  0  0  0  0  0  0  0  0
   41.2400   73.5400   60.6610 C   0  0  0  0  0  3  0  0  0  0  0  0
   40.2150   73.0240   61.4120 C   0  0  0  0  0  0  0  0  0  0  0  0
   40.2770   72.2390   62.1490 H   0  0  0  0  0  0  0  0  0  0  0  0
   38.9500   73.5270   61.2490 C   0  0  0  0  0  0  0  0  0  0  0  0
   38.0210   73.2530   61.7460 H   0  0  0  0  0  0  0  0  0  0  0  0
   38.7210   74.5320   60.3450 C   0  0  0  0  0  3  0  0  0  0  0  0
  1 30  1  0  0  0  0
  2 15  1  0  0  0  0
  2  1  2  0  0  0  0
  3  2  1  0  0  0  0
  4  3  2  0  0  0  0
  4  5  1  0  0  0  0
  5  6  2  0  0  0  0
  6 10  1  0  0  0  0
  6  1  1  0  0  0  0
  7  3  1  0  0  0  0
  8  4  1  0  0  0  0
  9  5  1  0  0  0  0
 11 17  1  0  0  0  0
 12 19  1  0  0  0  0
 12 11  2  0  0  0  0
 13 12  1  0  0  0  0
 14 13  2  0  0  0  0
 14 15  1  0  0  0  0
 15 16  2  0  0  0  0
 16 11  1  0  0  0  0
 18 13  1  0  0  0  0
 19 20  1  0  0  0  0
 20 21  2  0  0  0  0
 20 27  1  0  0  0  0
 21 28  1  0  0  0  0
 22 23  2  0  0  0  0
 22 21  1  0  0  0  0
 24 22  1  0  0  0  0
 25 24  1  0  0  0  0
 25 19  1  0  0  0  0
 26 25  2  0  0  0  0
 29 24  1  0  0  0  0
 30 31  2  0  0  0  0
 30 33  1  0  0  0  0
 32 30  2  0  0  0  0
 33 34  2  0  0  0  0
 33 41  1  0  0  0  0
 34 36  1  0  0  0  0
 35 34  1  0  0  0  0
 36 37  2  0  0  0  0
 37 38  1  0  0  0  0
 39 37  1  0  0  0  0
 39 40  1  0  0  0  0
 41 39  2  0  0  0  0
M  END
>  <minimizedAffinity>
-6.01212597

$$$$

 OpenBabel03212520333D

 41 44  0  0  0  0  0  0  0  0999 V2000
   42.1420   70.7240   61.1520 C   0  0  0  0  0  0  0  0  0  0  0  0
   41.9210   70.1860   59.8940 C   0  0  0  0  0  0  0  0  0  0  0  0
   42.2620   68.8790   59.6060 C   0  0  0  0  0  0  0  0  0  0  0  0
   42.8430   68.0300   60.5500 C   0  0  0  0  0  0  0  0  0  0  0  0
   43.0730   68.5350   61.8030 C   0  0  0  0  0  0  0  0  0  0  0  0
   42.7290   69.8480   62.0880 C   0  0  0  0  0  0  0  0  0  0  0  0
   42.0850   68.4670   58.6170 H   0  0  0  0  0  0  0  0  0  0  0  0
   43.0860   67.0180   60.2620 H   0  0  0  0  0  0  0  0  0  0  0  0
   43.5190   67.9230   62.5740 H   0  0  0  0  0  0  0  0  0  0  0  0
   42.9240   70.2110   63.0830 H   0  0  0  0  0  0  0  0  0  0  0  0
   39.4650   71.9930   57.8060 C   0  0  0  0  0  0  0  0  0  0  0  0
   40.2530   72.4830   56.7820 C   0  0  0  0  0  0  0  0  0  0  0  0
   41.6160   72.1770   56.8340 C   0  0  0  0  0  0  0  0  0  0  0  0
   42.0860   71.4270   57.8730 N   0  0  0  0  0  0  0  0  0  0  0  0
   41.3010   70.9750   58.8360 C   0  0  0  0  0  0  0  0  0  0  0  0
   39.9920   71.2630   58.7950 N   0  0  0  0  0  0  0  0  0  0  0  0
   38.4220   72.2420   57.7410 H   0  0  0  0  0  0  0  0  0  0  0  0
   42.2810   72.5330   56.0600 H   0  0  0  0  0  0  0  0  0  0  0  0
   39.7040   73.2590   55.7280 N   0  0  0  0  0  0  0  0  0  0  0  0
   39.5440   74.5540   56.0520 C   0  0  0  0  0  0  0  0  0  0  0  0
   39.0050   75.4140   55.0920 C   0  0  0  0  0  0  0  0  0  0  0  0
   38.6590   74.9050   53.8520 C   0  0  0  0  0  0  0  0  0  0  0  0
   38.1660   75.5570   52.8990 O   0  0  0  0  0  0  0  0  0  0  0  0
   38.8540   73.5690   53.5960 N   0  0  0  0  0  0  0  0  0  0  0  0
   39.3790   72.7360   54.5380 C   0  0  0  0  0  0  0  0  0  0  0  0
   39.5630   71.5230   54.3240 O   0  0  0  0  0  0  0  0  0  0  0  0
   39.8000   74.9880   57.0030 H   0  0  0  0  0  0  0  0  0  0  0  0
   38.8420   76.4510   55.2560 H   0  0  0  0  0  0  0  0  0  0  0  0
   38.6250   73.0860   52.6930 H   0  0  0  0  0  0  0  0  0  0  0  0
   41.7360   72.3570   61.5370 S   0  0  0  0  0  0  0  0  0  0  0  0
   42.3760   72.7530   62.8460 O   0  0  0  0  0  0  0  0  0  0  0  0
   40.2360   72.3680   61.8590 O   0  0  0  0  0  0  0  0  0  0  0  0
   42.1430   73.5750   60.3970 C   0  0  0  0  0  0  0  0  0  0  0  0
   43.5420   73.6010   60.2360 C   0  0  0  0  0  0  0  0  0  0  0  0
   44.3110   72.9540   60.6920 H   0  0  0  0  0  0  0  0  0  0  0  0
   44.1880   74.5220   59.4130 C   0  0  0  0  0  3  0  0  0  0  0  0
   43.4620   75.4550   58.7180 C   0  0  0  0  0  0  0  0  0  0  0  0
   43.8420   76.2150   58.0530 H   0  0  0  0  0  0  0  0  0  0  0  0
   42.0970   75.4670   58.8430 C   0  0  0  0  0  0  0  0  0  0  0  0
   41.3590   76.1200   58.3790 H   0  0  0  0  0  0  0  0  0  0  0  0
   41.4730   74.5560   59.6560 C   0  0  0  0  0  3  0  0  0  0  0  0
  1 30  1  0  0  0  0
  1  6  1  0  0  0  0
  2  1  2  0  0  0  0
  3  2  1  0  0  0  0
  3  4  2  0  0  0  0
  4  5  1  0  0  0  0
  5  6  2  0  0  0  0
  5  9  1  0  0  0  0
  6 10  1  0  0  0  0
  7  3  1  0  0  0  0
  8  4  1  0  0  0  0
 11 16  1  0  0  0  0
 12 13  1  0  0  0  0
 12 11  2  0  0  0  0
 13 14  2  0  0  0  0
 14 15  1  0  0  0  0
 15  2  1  0  0  0  0
 16 15  2  0  0  0  0
 17 11  1  0  0  0  0
 18 13  1  0  0  0  0
 19 20  1  0  0  0  0
 19 12  1  0  0  0  0
 20 27  1  0  0  0  0
 21 28  1  0  0  0  0
 21 20  2  0  0  0  0
 22 21  1  0  0  0  0
 23 22  2  0  0  0  0
 24 22  1  0  0  0  0
 24 25  1  0  0  0  0
 25 19  1  0  0  0  0
 26 25  2  0  0  0  0
 29 24  1  0  0  0  0
 30 32  2  0  0  0  0
 30 31  2  0  0  0  0
 33 30  1  0  0  0  0
 34 33  1  0  0  0  0
 34 35  1  0  0  0  0
 36 34  2  0  0  0  0
 37 39  2  0  0  0  0
 37 36  1  0  0  0  0
 38 37  1  0  0  0  0
 39 41  1  0  0  0  0
 40 39  1  0  0  0  0
 41 33  2  0  0  0  0
M  END
>  <minimizedAffinity>
-6.00296974

$$$$

 OpenBabel03212520333D

 41 44  0  0  0  0  0  0  0  0999 V2000
   41.3510   72.0320   60.7390 C   0  0  0  0  0  0  0  0  0  0  0  0
   41.9110   71.2760   59.7210 C   0  0  0  0  0  0  0  0  0  0  0  0
   42.8050   70.2590   59.9970 C   0  0  0  0  0  0  0  0  0  0  0  0
   43.1940   69.9340   61.2970 C   0  0  0  0  0  0  0  0  0  0  0  0
   42.6560   70.6650   62.3230 C   0  0  0  0  0  0  0  0  0  0  0  0
   41.7590   71.6850   62.0430 C   0  0  0  0  0  0  0  0  0  0  0  0
   43.2380   69.6730   59.1920 H   0  0  0  0  0  0  0  0  0  0  0  0
   43.8970   69.1270   61.4450 H   0  0  0  0  0  0  0  0  0  0  0  0
   42.9200   70.4570   63.3510 H   0  0  0  0  0  0  0  0  0  0  0  0
   41.3550   72.2380   62.8740 H   0  0  0  0  0  0  0  0  0  0  0  0
   41.7980   72.6330   56.2860 C   0  0  0  0  0  0  0  0  0  0  0  0
   40.8120   71.8630   55.6980 C   0  0  0  0  0  0  0  0  0  0  0  0
   40.2070   70.8930   56.5010 C   0  0  0  0  0  0  0  0  0  0  0  0
   40.6140   70.7590   57.7980 N   0  0  0  0  0  0  0  0  0  0  0  0
   41.5610   71.5140   58.3260 C   0  0  0  0  0  0  0  0  0  0  0  0
   42.1480   72.4480   57.5640 N   0  0  0  0  0  0  0  0  0  0  0  0
   42.2460   73.3710   55.6470 H   0  0  0  0  0  0  0  0  0  0  0  0
   39.4300   70.2610   56.0950 H   0  0  0  0  0  0  0  0  0  0  0  0
   40.4330   72.0500   54.3420 N   0  0  0  0  0  0  0  0  0  0  0  0
   41.0200   71.1780   53.5040 C   0  0  0  0  0  0  0  0  0  0  0  0
   40.7250   71.2700   52.1420 C   0  0  0  0  0  0  0  0  0  0  0  0
   39.8470   72.2480   51.7090 C   0  0  0  0  0  0  0  0  0  0  0  0
   39.4930   72.4490   50.5210 O   0  0  0  0  0  0  0  0  0  0  0  0
   39.2870   73.1030   52.6280 N   0  0  0  0  0  0  0  0  0  0  0  0
   39.5790   73.0070   53.9560 C   0  0  0  0  0  0  0  0  0  0  0  0
   39.0820   73.7710   54.8030 O   0  0  0  0  0  0  0  0  0  0  0  0
   41.7070   70.4040   53.8010 H   0  0  0  0  0  0  0  0  0  0  0  0
   41.1390   70.6270   51.4050 H   0  0  0  0  0  0  0  0  0  0  0  0
   38.6130   73.8760   52.4060 H   0  0  0  0  0  0  0  0  0  0  0  0
   40.2400   73.3150   60.4240 S   0  0  0  0  0  0  0  0  0  0  0  0
   39.3270   73.5100   61.6120 O   0  0  0  0  0  0  0  0  0  0  0  0
   39.2930   72.8120   59.3280 O   0  0  0  0  0  0  0  0  0  0  0  0
   40.8850   74.8590   60.0390 C   0  0  0  0  0  0  0  0  0  0  0  0
   39.9960   75.8530   60.4920 C   0  0  0  0  0  0  0  0  0  0  0  0
   39.0490   75.7430   61.0480 H   0  0  0  0  0  0  0  0  0  0  0  0
   40.2160   77.2120   60.2800 C   0  0  0  0  0  3  0  0  0  0  0  0
   41.3330   77.6350   59.6060 C   0  0  0  0  0  0  0  0  0  0  0  0
   41.6140   78.6520   59.3810 H   0  0  0  0  0  0  0  0  0  0  0  0
   42.2270   76.7030   59.1470 C   0  0  0  0  0  0  0  0  0  0  0  0
   43.1580   76.8400   58.5990 H   0  0  0  0  0  0  0  0  0  0  0  0
   42.0010   75.3680   59.3620 C   0  0  0  0  0  3  0  0  0  0  0  0
  1  6  1  0  0  0  0
  2  3  1  0  0  0  0
  2  1  2  0  0  0  0
  3  4  2  0  0  0  0
  4  8  1  0  0  0  0
  4  5  1  0  0  0  0
  5  9  1  0  0  0  0
  6  5  2  0  0  0  0
  6 10  1  0  0  0  0
  7  3  1  0  0  0  0
 11 16  1  0  0  0  0
 12 11  2  0  0  0  0
 12 13  1  0  0  0  0
 13 14  2  0  0  0  0
 14 15  1  0  0  0  0
 15  2  1  0  0  0  0
 16 15  2  0  0  0  0
 17 11  1  0  0  0  0
 18 13  1  0  0  0  0
 19 12  1  0  0  0  0
 20 27  1  0  0  0  0
 20 19  1  0  0  0  0
 21 20  2  0  0  0  0
 22 21  1  0  0  0  0
 22 24  1  0  0  0  0
 23 22  2  0  0  0  0
 24 25  1  0  0  0  0
 25 19  1  0  0  0  0
 25 26  2  0  0  0  0
 28 21  1  0  0  0  0
 29 24  1  0  0  0  0
 30  1  1  0  0  0  0
 30 31  2  0  0  0  0
 32 30  2  0  0  0  0
 33 30  1  0  0  0  0
 33 34  1  0  0  0  0
 34 35  1  0  0  0  0
 36 34  2  0  0  0  0
 37 36  1  0  0  0  0
 38 37  1  0  0  0  0
 39 41  1  0  0  0  0
 39 37  2  0  0  0  0
 40 39  1  0  0  0  0
 41 33  2  0  0  0  0
M  END
>  <minimizedAffinity>
-5.92064333

$$$$

 OpenBabel03212520333D

 41 44  0  0  0  0  0  0  0  0999 V2000
   42.5500   71.1410   60.7880 C   0  0  0  0  0  0  0  0  0  0  0  0
   42.0790   70.2040   59.8820 C   0  0  0  0  0  0  0  0  0  0  0  0
   41.9060   68.8830   60.2460 C   0  0  0  0  0  0  0  0  0  0  0  0
   42.1890   68.4160   61.5300 C   0  0  0  0  0  0  0  0  0  0  0  0
   42.6560   69.3200   62.4480 C   0  0  0  0  0  0  0  0  0  0  0  0
   42.8300   70.6450   62.0780 C   0  0  0  0  0  0  0  0  0  0  0  0
   41.5360   68.1570   59.5290 H   0  0  0  0  0  0  0  0  0  0  0  0
   42.0320   67.3700   61.7520 H   0  0  0  0  0  0  0  0  0  0  0  0
   42.8920   69.0140   63.4580 H   0  0  0  0  0  0  0  0  0  0  0  0
   43.1980   71.3280   62.8250 H   0  0  0  0  0  0  0  0  0  0  0  0
   42.2050   70.8120   56.2390 C   0  0  0  0  0  0  0  0  0  0  0  0
   40.9520   71.3370   55.9850 C   0  0  0  0  0  0  0  0  0  0  0  0
   40.0910   71.4710   57.0780 C   0  0  0  0  0  0  0  0  0  0  0  0
   40.5250   71.0840   58.3130 N   0  0  0  0  0  0  0  0  0  0  0  0
   41.7310   70.5850   58.5180 C   0  0  0  0  0  0  0  0  0  0  0  0
   42.5650   70.4520   57.4770 N   0  0  0  0  0  0  0  0  0  0  0  0
   42.8460   70.7200   55.3820 H   0  0  0  0  0  0  0  0  0  0  0  0
   39.0990   71.8760   56.9400 H   0  0  0  0  0  0  0  0  0  0  0  0
   40.5590   71.7220   54.6760 N   0  0  0  0  0  0  0  0  0  0  0  0
   40.1550   70.6870   53.9200 C   0  0  0  0  0  0  0  0  0  0  0  0
   39.7480   70.9460   52.6080 C   0  0  0  0  0  0  0  0  0  0  0  0
   39.7770   72.2480   52.1400 C   0  0  0  0  0  0  0  0  0  0  0  0
   39.4450   72.6260   50.9900 O   0  0  0  0  0  0  0  0  0  0  0  0
   40.2030   73.2530   52.9760 N   0  0  0  0  0  0  0  0  0  0  0  0
   40.5980   72.9930   54.2540 C   0  0  0  0  0  0  0  0  0  0  0  0
   40.9860   73.8890   55.0250 O   0  0  0  0  0  0  0  0  0  0  0  0
   40.1180   69.6620   54.2460 H   0  0  0  0  0  0  0  0  0  0  0  0
   39.4140   70.1940   51.9360 H   0  0  0  0  0  0  0  0  0  0  0  0
   40.2630   74.2690   52.7200 H   0  0  0  0  0  0  0  0  0  0  0  0
   42.7870   72.7960   60.3590 S   0  0  0  0  0  0  0  0  0  0  0  0
   43.3830   72.8890   58.9740 O   0  0  0  0  0  0  0  0  0  0  0  0
   43.9080   73.3240   61.2620 O   0  0  0  0  0  0  0  0  0  0  0  0
   41.4200   73.8340   60.3790 C   0  0  0  0  0  0  0  0  0  0  0  0
   40.3810   73.2080   61.0950 C   0  0  0  0  0  0  0  0  0  0  0  0
   40.3800   72.2380   61.6210 H   0  0  0  0  0  0  0  0  0  0  0  0
   39.1190   73.7800   61.2430 C   0  0  0  0  0  3  0  0  0  0  0  0
   38.8420   75.0000   60.6820 C   0  0  0  0  0  0  0  0  0  0  0  0
   37.9110   75.5430   60.7260 H   0  0  0  0  0  0  0  0  0  0  0  0
   39.8230   75.6470   59.9770 C   0  0  0  0  0  0  0  0  0  0  0  0
   39.7970   76.6080   59.4660 H   0  0  0  0  0  0  0  0  0  0  0  0
   41.0620   75.0750   59.8380 C   0  0  0  0  0  3  0  0  0  0  0  0
  1  6  1  0  0  0  0
  2  3  1  0  0  0  0
  2  1  2  0  0  0  0
  3  4  2  0  0  0  0
  4  8  1  0  0  0  0
  4  5  1  0  0  0  0
  5  9  1  0  0  0  0
  6  5  2  0  0  0  0
  6 10  1  0  0  0  0
  7  3  1  0  0  0  0
 11 16  1  0  0  0  0
 12 11  2  0  0  0  0
 12 13  1  0  0  0  0
 13 14  2  0  0  0  0
 14 15  1  0  0  0  0
 15  2  1  0  0  0  0
 16 15  2  0  0  0  0
 17 11  1  0  0  0  0
 18 13  1  0  0  0  0
 19 12  1  0  0  0  0
 20 27  1  0  0  0  0
 20 19  1  0  0  0  0
 21 20  2  0  0  0  0
 22 21  1  0  0  0  0
 22 24  1  0  0  0  0
 23 22  2  0  0  0  0
 24 25  1  0  0  0  0
 25 19  1  0  0  0  0
 25 26  2  0  0  0  0
 28 21  1  0  0  0  0
 29 24  1  0  0  0  0
 30 33  1  0  0  0  0
 30  1  1  0  0  0  0
 30 32  2  0  0  0  0
 31 30  2  0  0  0  0
 33 34  1  0  0  0  0
 34 36  2  0  0  0  0
 34 35  1  0  0  0  0
 37 38  1  0  0  0  0
 37 36  1  0  0  0  0
 39 37  2  0  0  0  0
 40 39  1  0  0  0  0
 41 39  1  0  0  0  0
 41 33  2  0  0  0  0
M  END
>  <minimizedAffinity>
-5.84255409

$$$$
