
 OpenBabel03212520273D

 28 30  0  0  0  0  0  0  0  0999 V2000
   42.6520   84.7420   61.2020 C   0  0  0  0  0  0  0  0  0  0  0  0
   43.8660   84.7600   61.8970 C   0  0  0  0  0  0  0  0  0  0  0  0
   44.5150   85.8500   61.2990 C   0  0  0  0  0  0  0  0  0  0  0  0
   43.7410   86.4070   60.3460 N   0  0  0  0  0  0  0  0  0  0  0  0
   42.6080   85.7150   60.3040 N   0  0  0  0  0  0  0  0  0  0  0  0
   44.2340   84.1220   62.6860 H   0  0  0  0  0  0  0  0  0  0  0  0
   45.5190   86.1560   61.6120 H   0  0  0  0  0  0  0  0  0  0  0  0
   40.8090   81.5620   61.7800 C   0  0  0  0  0  0  0  0  0  0  0  0
   41.8800   82.4330   61.5510 C   0  0  0  0  0  0  0  0  0  0  0  0
   41.5900   83.7850   61.4400 C   0  0  0  0  0  0  0  0  0  0  0  0
   40.3050   84.2020   61.5560 N   0  0  0  0  0  0  0  0  0  0  0  0
   39.2980   83.3260   61.7790 C   0  0  0  0  0  0  0  0  0  0  0  0
   39.5630   82.0090   61.8890 N   0  0  0  0  0  0  0  0  0  0  0  0
   40.9430   80.4830   61.8800 H   0  0  0  0  0  0  0  0  0  0  0  0
   42.8810   82.0410   61.4670 H   0  0  0  0  0  0  0  0  0  0  0  0
   38.3290   83.8060   61.8480 H   0  0  0  0  0  0  0  0  0  0  0  0
   44.1020   87.5520   59.5280 C   0  0  0  0  0  0  0  0  0  0  0  0
   43.1350   88.0110   59.2300 H   0  0  0  0  0  0  0  0  0  0  0  0
   44.6180   88.3160   60.1550 H   0  0  0  0  0  0  0  0  0  0  0  0
   44.8440   87.2070   58.3120 C   0  0  0  0  0  0  0  0  0  0  0  0
   45.5410   88.2110   57.6670 C   0  0  0  0  0  0  0  0  0  0  0  0
   45.5280   89.2170   58.0640 H   0  0  0  0  0  0  0  0  0  0  0  0
   46.2800   88.0230   56.5160 C   0  0  0  0  0  3  0  0  0  0  0  0
   46.3330   86.7580   55.9630 C   0  0  0  0  0  0  0  0  0  0  0  0
   46.9190   86.6530   55.0660 H   0  0  0  0  0  0  0  0  0  0  0  0
   45.6490   85.7400   56.5840 C   0  0  0  0  0  0  0  0  0  0  0  0
   45.7150   84.7600   56.1190 H   0  0  0  0  0  0  0  0  0  0  0  0
   44.9200   85.9610   57.7340 C   0  0  0  0  0  3  0  0  0  0  0  0
  1 10  1  0  0  0  0
  1  2  1  0  0  0  0
  2  6  1  0  0  0  0
  3  7  1  0  0  0  0
  3  2  2  0  0  0  0
  4  3  1  0  0  0  0
  5  4  1  0  0  0  0
  5  1  2  0  0  0  0
  8 14  1  0  0  0  0
  8 13  1  0  0  0  0
  9  8  2  0  0  0  0
 10  9  1  0  0  0  0
 10 11  2  0  0  0  0
 11 12  1  0  0  0  0
 12 16  1  0  0  0  0
 12 13  2  0  0  0  0
 15  9  1  0  0  0  0
 17 19  1  0  0  0  0
 17  4  1  0  0  0  0
 18 17  1  0  0  0  0
 20 17  1  0  0  0  0
 21 22  1  0  0  0  0
 21 20  2  0  0  0  0
 23 21  1  0  0  0  0
 24 23  2  0  0  0  0
 24 26  1  0  0  0  0
 25 24  1  0  0  0  0
 26 28  2  0  0  0  0
 27 26  1  0  0  0  0
 28 20  1  0  0  0  0
M  END
>  <minimizedAffinity>
-4.30428934

>  <minimizedRMSD>
0.775808394

$$$$
