
 OpenBabel03212520323D

 41 44  0  0  0  0  0  0  0  0999 V2000
   42.9190   82.6050   62.5690 C   0  0  0  0  0  0  0  0  0  0  0  0
   43.2470   81.5200   61.7710 C   0  0  0  0  0  0  0  0  0  0  0  0
   44.5120   80.9650   61.8050 C   0  0  0  0  0  0  0  0  0  0  0  0
   45.5230   81.4540   62.6330 C   0  0  0  0  0  0  0  0  0  0  0  0
   45.2280   82.5270   63.4340 C   0  0  0  0  0  0  0  0  0  0  0  0
   43.9580   83.0810   63.3960 C   0  0  0  0  0  0  0  0  0  0  0  0
   44.7580   80.1150   61.1760 H   0  0  0  0  0  0  0  0  0  0  0  0
   46.4920   80.9750   62.6130 H   0  0  0  0  0  0  0  0  0  0  0  0
   45.9720   82.9470   64.0950 H   0  0  0  0  0  0  0  0  0  0  0  0
   43.7600   83.9220   64.0390 H   0  0  0  0  0  0  0  0  0  0  0  0
   40.4230   79.5360   60.4500 C   0  0  0  0  0  0  0  0  0  0  0  0
   40.4560   79.8390   59.1010 C   0  0  0  0  0  0  0  0  0  0  0  0
   41.4540   80.7220   58.6790 C   0  0  0  0  0  0  0  0  0  0  0  0
   42.3250   81.2280   59.6000 N   0  0  0  0  0  0  0  0  0  0  0  0
   42.2630   80.9140   60.8830 C   0  0  0  0  0  0  0  0  0  0  0  0
   41.3100   80.0680   61.2990 N   0  0  0  0  0  0  0  0  0  0  0  0
   39.6480   78.8550   60.7480 H   0  0  0  0  0  0  0  0  0  0  0  0
   41.5280   80.9960   57.6360 H   0  0  0  0  0  0  0  0  0  0  0  0
   39.5210   79.2810   58.1910 N   0  0  0  0  0  0  0  0  0  0  0  0
   39.0840   80.1620   57.2750 C   0  0  0  0  0  0  0  0  0  0  0  0
   38.1540   79.7240   56.3280 C   0  0  0  0  0  0  0  0  0  0  0  0
   37.7210   78.4100   56.3690 C   0  0  0  0  0  0  0  0  0  0  0  0
   36.8920   77.8820   55.5870 O   0  0  0  0  0  0  0  0  0  0  0  0
   38.2160   77.5700   57.3370 N   0  0  0  0  0  0  0  0  0  0  0  0
   39.1220   78.0030   58.2580 C   0  0  0  0  0  0  0  0  0  0  0  0
   39.5810   77.2570   59.1410 O   0  0  0  0  0  0  0  0  0  0  0  0
   39.3960   81.1900   57.2100 H   0  0  0  0  0  0  0  0  0  0  0  0
   37.7520   80.3460   55.5670 H   0  0  0  0  0  0  0  0  0  0  0  0
   37.9540   76.5600   57.4550 H   0  0  0  0  0  0  0  0  0  0  0  0
   41.3510   83.3260   62.5390 S   0  0  0  0  0  0  0  0  0  0  0  0
   41.2710   84.4280   63.5690 O   0  0  0  0  0  0  0  0  0  0  0  0
   40.3770   82.2700   63.0750 O   0  0  0  0  0  0  0  0  0  0  0  0
   40.8030   83.9940   61.0560 C   0  0  0  0  0  0  0  0  0  0  0  0
   41.8740   84.6560   60.4270 C   0  0  0  0  0  0  0  0  0  0  0  0
   42.9280   84.7380   60.7460 H   0  0  0  0  0  0  0  0  0  0  0  0
   41.7320   85.3480   59.2260 C   0  0  0  0  0  3  0  0  0  0  0  0
   40.5120   85.4060   58.6020 C   0  0  0  0  0  0  0  0  0  0  0  0
   40.2740   85.9060   57.6760 H   0  0  0  0  0  0  0  0  0  0  0  0
   39.4390   84.7760   59.1780 C   0  0  0  0  0  0  0  0  0  0  0  0
   38.4050   84.7090   58.8410 H   0  0  0  0  0  0  0  0  0  0  0  0
   39.5910   84.0980   60.3610 C   0  0  0  0  0  3  0  0  0  0  0  0
  1  6  1  0  0  0  0
  2  3  1  0  0  0  0
  2  1  2  0  0  0  0
  3  4  2  0  0  0  0
  4  5  1  0  0  0  0
  5  9  1  0  0  0  0
  6  5  2  0  0  0  0
  6 10  1  0  0  0  0
  7  3  1  0  0  0  0
  8  4  1  0  0  0  0
 11 17  1  0  0  0  0
 11 16  1  0  0  0  0
 12 11  2  0  0  0  0
 13 12  1  0  0  0  0
 13 14  2  0  0  0  0
 14 15  1  0  0  0  0
 15 16  2  0  0  0  0
 15  2  1  0  0  0  0
 18 13  1  0  0  0  0
 19 25  1  0  0  0  0
 19 12  1  0  0  0  0
 20 19  1  0  0  0  0
 21 22  1  0  0  0  0
 21 20  2  0  0  0  0
 22 24  1  0  0  0  0
 23 22  2  0  0  0  0
 24 29  1  0  0  0  0
 24 25  1  0  0  0  0
 25 26  2  0  0  0  0
 27 20  1  0  0  0  0
 28 21  1  0  0  0  0
 30  1  1  0  0  0  0
 30 32  2  0  0  0  0
 30 31  2  0  0  0  0
 33 30  1  0  0  0  0
 34 35  1  0  0  0  0
 34 33  1  0  0  0  0
 36 34  2  0  0  0  0
 37 39  2  0  0  0  0
 37 36  1  0  0  0  0
 38 37  1  0  0  0  0
 39 41  1  0  0  0  0
 40 39  1  0  0  0  0
 41 33  2  0  0  0  0
M  END
>  <minimizedAffinity>
-6.87893105

>  <minimizedRMSD>
2.07284522

$$$$
