
 OpenBabel03212520273D

 28 30  0  0  0  0  0  0  0  0999 V2000
   42.4950   84.9330   60.9670 C   0  0  0  0  0  0  0  0  0  0  0  0
   43.5780   85.3700   61.7370 C   0  0  0  0  0  0  0  0  0  0  0  0
   44.1540   86.3300   60.8910 C   0  0  0  0  0  0  0  0  0  0  0  0
   43.4620   86.4330   59.7390 N   0  0  0  0  0  0  0  0  0  0  0  0
   42.4530   85.5710   59.8070 N   0  0  0  0  0  0  0  0  0  0  0  0
   43.9090   85.0710   62.7210 H   0  0  0  0  0  0  0  0  0  0  0  0
   45.0490   86.8860   61.1880 H   0  0  0  0  0  0  0  0  0  0  0  0
   41.0360   81.7360   62.1910 C   0  0  0  0  0  0  0  0  0  0  0  0
   41.9990   82.6710   61.7940 C   0  0  0  0  0  0  0  0  0  0  0  0
   41.5500   83.9190   61.3900 C   0  0  0  0  0  0  0  0  0  0  0  0
   40.2200   84.1820   61.3960 N   0  0  0  0  0  0  0  0  0  0  0  0
   39.3200   83.2500   61.7880 C   0  0  0  0  0  0  0  0  0  0  0  0
   39.7410   82.0310   62.1830 N   0  0  0  0  0  0  0  0  0  0  0  0
   41.2980   80.7300   62.5220 H   0  0  0  0  0  0  0  0  0  0  0  0
   43.0440   82.4020   61.8110 H   0  0  0  0  0  0  0  0  0  0  0  0
   38.2980   83.6040   61.7390 H   0  0  0  0  0  0  0  0  0  0  0  0
   43.7800   87.3270   58.6390 C   0  0  0  0  0  0  0  0  0  0  0  0
   42.9090   87.2650   57.9540 H   0  0  0  0  0  0  0  0  0  0  0  0
   43.8020   88.3810   59.0050 H   0  0  0  0  0  0  0  0  0  0  0  0
   44.9830   86.9510   57.8930 C   0  0  0  0  0  0  0  0  0  0  0  0
   45.0250   85.6970   57.3150 C   0  0  0  0  0  0  0  0  0  0  0  0
   44.1850   85.0250   57.4220 H   0  0  0  0  0  0  0  0  0  0  0  0
   46.0970   85.2150   56.5870 C   0  0  0  0  0  3  0  0  0  0  0  0
   47.1990   86.0300   56.4180 C   0  0  0  0  0  0  0  0  0  0  0  0
   48.0120   85.6180   55.8440 H   0  0  0  0  0  0  0  0  0  0  0  0
   47.1850   87.2840   56.9820 C   0  0  0  0  0  0  0  0  0  0  0  0
   48.0700   87.8930   56.8260 H   0  0  0  0  0  0  0  0  0  0  0  0
   46.1000   87.7330   57.7040 C   0  0  0  0  0  3  0  0  0  0  0  0
  1 10  1  0  0  0  0
  1  2  1  0  0  0  0
  2  6  1  0  0  0  0
  3  7  1  0  0  0  0
  3  2  2  0  0  0  0
  4  5  1  0  0  0  0
  4  3  1  0  0  0  0
  5  1  2  0  0  0  0
  8 14  1  0  0  0  0
  9 15  1  0  0  0  0
  9  8  2  0  0  0  0
 10 11  2  0  0  0  0
 10  9  1  0  0  0  0
 11 12  1  0  0  0  0
 12 13  2  0  0  0  0
 13  8  1  0  0  0  0
 16 12  1  0  0  0  0
 17 19  1  0  0  0  0
 17  4  1  0  0  0  0
 18 17  1  0  0  0  0
 20 17  1  0  0  0  0
 21 22  1  0  0  0  0
 21 20  2  0  0  0  0
 23 21  1  0  0  0  0
 24 23  2  0  0  0  0
 24 26  1  0  0  0  0
 25 24  1  0  0  0  0
 26 28  2  0  0  0  0
 27 26  1  0  0  0  0
 28 20  1  0  0  0  0
M  END
>  <minimizedAffinity>
-4.14791536

>  <minimizedRMSD>
0.505873621

$$$$
