
 OpenBabel03212520273D

 28 30  0  0  0  0  0  0  0  0999 V2000
   42.4690   84.7710   61.2510 C   0  0  0  0  0  0  0  0  0  0  0  0
   43.3060   85.2720   62.2540 C   0  0  0  0  0  0  0  0  0  0  0  0
   44.1370   86.1320   61.5220 C   0  0  0  0  0  0  0  0  0  0  0  0
   43.8060   86.1260   60.2160 N   0  0  0  0  0  0  0  0  0  0  0  0
   42.7840   85.2880   60.0730 N   0  0  0  0  0  0  0  0  0  0  0  0
   43.3310   85.0710   63.3150 H   0  0  0  0  0  0  0  0  0  0  0  0
   44.9330   86.7060   62.0100 H   0  0  0  0  0  0  0  0  0  0  0  0
   40.5970   81.5890   61.7120 C   0  0  0  0  0  0  0  0  0  0  0  0
   41.6710   82.4570   61.4850 C   0  0  0  0  0  0  0  0  0  0  0  0
   41.4030   83.8170   61.4800 C   0  0  0  0  0  0  0  0  0  0  0  0
   40.1340   84.2460   61.6900 N   0  0  0  0  0  0  0  0  0  0  0  0
   39.1220   83.3730   61.9060 C   0  0  0  0  0  0  0  0  0  0  0  0
   39.3670   82.0480   61.9140 N   0  0  0  0  0  0  0  0  0  0  0  0
   40.7160   80.5040   61.7330 H   0  0  0  0  0  0  0  0  0  0  0  0
   42.6590   82.0550   61.3240 H   0  0  0  0  0  0  0  0  0  0  0  0
   38.1680   83.8630   62.0570 H   0  0  0  0  0  0  0  0  0  0  0  0
   44.4590   86.9000   59.1750 C   0  0  0  0  0  0  0  0  0  0  0  0
   43.6440   87.2050   58.4860 H   0  0  0  0  0  0  0  0  0  0  0  0
   44.8620   87.8470   59.6050 H   0  0  0  0  0  0  0  0  0  0  0  0
   45.4550   86.1460   58.4070 C   0  0  0  0  0  0  0  0  0  0  0  0
   45.1470   85.7970   57.1060 C   0  0  0  0  0  0  0  0  0  0  0  0
   44.1930   86.0790   56.6840 H   0  0  0  0  0  0  0  0  0  0  0  0
   45.9920   85.0880   56.2750 C   0  0  0  0  0  3  0  0  0  0  0  0
   47.2250   84.6990   56.7610 C   0  0  0  0  0  0  0  0  0  0  0  0
   47.8550   84.1500   56.0820 H   0  0  0  0  0  0  0  0  0  0  0  0
   47.5580   85.0330   58.0520 C   0  0  0  0  0  0  0  0  0  0  0  0
   48.5360   84.7100   58.3980 H   0  0  0  0  0  0  0  0  0  0  0  0
   46.6910   85.7420   58.8570 C   0  0  0  0  0  3  0  0  0  0  0  0
  1 10  1  0  0  0  0
  1  2  1  0  0  0  0
  2  6  1  0  0  0  0
  3  7  1  0  0  0  0
  3  2  2  0  0  0  0
  4  3  1  0  0  0  0
  5  4  1  0  0  0  0
  5  1  2  0  0  0  0
  8 14  1  0  0  0  0
  8 13  1  0  0  0  0
  9  8  2  0  0  0  0
 10  9  1  0  0  0  0
 10 11  2  0  0  0  0
 11 12  1  0  0  0  0
 12 13  2  0  0  0  0
 12 16  1  0  0  0  0
 15  9  1  0  0  0  0
 17 19  1  0  0  0  0
 17  4  1  0  0  0  0
 18 17  1  0  0  0  0
 20 28  1  0  0  0  0
 20 17  1  0  0  0  0
 21 20  2  0  0  0  0
 22 21  1  0  0  0  0
 23 24  2  0  0  0  0
 23 21  1  0  0  0  0
 24 26  1  0  0  0  0
 25 24  1  0  0  0  0
 26 27  1  0  0  0  0
 26 28  2  0  0  0  0
M  END
>  <minimizedAffinity>
-3.99657226

>  <minimizedRMSD>
0.516326606

$$$$
