
 OpenBabel03212520323D

 41 44  0  0  0  0  0  0  0  0999 V2000
   44.3060   82.3550   62.3950 C   0  0  0  0  0  0  0  0  0  0  0  0
   44.7460   81.6120   61.3110 C   0  0  0  0  0  0  0  0  0  0  0  0
   45.9920   81.0150   61.3140 C   0  0  0  0  0  0  0  0  0  0  0  0
   46.8720   81.1210   62.3920 C   0  0  0  0  0  0  0  0  0  0  0  0
   46.4630   81.8500   63.4780 C   0  0  0  0  0  0  0  0  0  0  0  0
   45.2120   82.4480   63.4710 C   0  0  0  0  0  0  0  0  0  0  0  0
   46.3280   80.4350   60.4590 H   0  0  0  0  0  0  0  0  0  0  0  0
   47.8330   80.6300   62.3310 H   0  0  0  0  0  0  0  0  0  0  0  0
   47.1030   81.9650   64.3410 H   0  0  0  0  0  0  0  0  0  0  0  0
   44.9230   83.0120   64.3420 H   0  0  0  0  0  0  0  0  0  0  0  0
   43.1790   81.9690   57.9840 C   0  0  0  0  0  0  0  0  0  0  0  0
   42.2510   80.9440   57.9840 C   0  0  0  0  0  0  0  0  0  0  0  0
   42.1870   80.1530   59.1340 C   0  0  0  0  0  0  0  0  0  0  0  0
   43.0260   80.4280   60.1750 N   0  0  0  0  0  0  0  0  0  0  0  0
   43.9010   81.4180   60.1380 C   0  0  0  0  0  0  0  0  0  0  0  0
   43.9720   82.1830   59.0400 N   0  0  0  0  0  0  0  0  0  0  0  0
   43.2070   82.5620   57.0890 H   0  0  0  0  0  0  0  0  0  0  0  0
   41.4810   79.3370   59.1910 H   0  0  0  0  0  0  0  0  0  0  0  0
   41.4050   80.7080   56.8680 N   0  0  0  0  0  0  0  0  0  0  0  0
   42.0410   80.1250   55.8370 C   0  0  0  0  0  0  0  0  0  0  0  0
   41.3070   79.8480   54.6810 C   0  0  0  0  0  0  0  0  0  0  0  0
   39.9650   80.1820   54.6400 C   0  0  0  0  0  0  0  0  0  0  0  0
   39.1870   79.9950   53.6720 O   0  0  0  0  0  0  0  0  0  0  0  0
   39.3870   80.7750   55.7360 N   0  0  0  0  0  0  0  0  0  0  0  0
   40.1080   81.0420   56.8610 C   0  0  0  0  0  0  0  0  0  0  0  0
   39.6020   81.5790   57.8640 O   0  0  0  0  0  0  0  0  0  0  0  0
   43.0810   79.8500   55.8290 H   0  0  0  0  0  0  0  0  0  0  0  0
   41.7210   79.3910   53.8160 H   0  0  0  0  0  0  0  0  0  0  0  0
   38.3810   81.0670   55.8080 H   0  0  0  0  0  0  0  0  0  0  0  0
   42.7590   83.1210   62.4160 S   0  0  0  0  0  0  0  0  0  0  0  0
   42.6130   83.9560   63.6650 O   0  0  0  0  0  0  0  0  0  0  0  0
   41.7240   82.0060   62.6130 O   0  0  0  0  0  0  0  0  0  0  0  0
   42.3480   84.1350   61.0920 C   0  0  0  0  0  0  0  0  0  0  0  0
   41.0670   83.7820   60.6270 C   0  0  0  0  0  0  0  0  0  0  0  0
   40.3640   83.0260   61.0170 H   0  0  0  0  0  0  0  0  0  0  0  0
   40.4720   84.3910   59.5220 C   0  0  0  0  0  3  0  0  0  0  0  0
   41.1360   85.3790   58.8390 C   0  0  0  0  0  0  0  0  0  0  0  0
   40.7850   85.9230   57.9750 H   0  0  0  0  0  0  0  0  0  0  0  0
   42.3860   85.7550   59.2570 C   0  0  0  0  0  0  0  0  0  0  0  0
   43.0600   86.5080   58.8510 H   0  0  0  0  0  0  0  0  0  0  0  0
   42.9600   85.1490   60.3440 C   0  0  0  0  0  3  0  0  0  0  0  0
  1 30  1  0  0  0  0
  1  6  1  0  0  0  0
  2  3  1  0  0  0  0
  2  1  2  0  0  0  0
  3  4  2  0  0  0  0
  4  5  1  0  0  0  0
  5  9  1  0  0  0  0
  6  5  2  0  0  0  0
  6 10  1  0  0  0  0
  7  3  1  0  0  0  0
  8  4  1  0  0  0  0
 11 12  2  0  0  0  0
 11 16  1  0  0  0  0
 12 13  1  0  0  0  0
 13 18  1  0  0  0  0
 13 14  2  0  0  0  0
 15 14  1  0  0  0  0
 15  2  1  0  0  0  0
 16 15  2  0  0  0  0
 17 11  1  0  0  0  0
 19 12  1  0  0  0  0
 20 19  1  0  0  0  0
 21 20  2  0  0  0  0
 22 21  1  0  0  0  0
 22 24  1  0  0  0  0
 23 22  2  0  0  0  0
 24 29  1  0  0  0  0
 24 25  1  0  0  0  0
 25 19  1  0  0  0  0
 25 26  2  0  0  0  0
 27 20  1  0  0  0  0
 28 21  1  0  0  0  0
 30 32  2  0  0  0  0
 30 31  2  0  0  0  0
 33 30  1  0  0  0  0
 34 35  1  0  0  0  0
 34 33  1  0  0  0  0
 36 34  2  0  0  0  0
 37 39  2  0  0  0  0
 37 36  1  0  0  0  0
 38 37  1  0  0  0  0
 39 41  1  0  0  0  0
 40 39  1  0  0  0  0
 41 33  2  0  0  0  0
M  END
>  <minimizedAffinity>
-5.14108229

>  <minimizedRMSD>
2.68581009

$$$$
