
 OpenBabel03212520323D

 41 44  0  0  0  0  0  0  0  0999 V2000
   42.8470   82.5690   62.5800 C   0  0  0  0  0  0  0  0  0  0  0  0
   43.1920   81.4460   61.8450 C   0  0  0  0  0  0  0  0  0  0  0  0
   44.4690   80.9200   61.9010 C   0  0  0  0  0  0  0  0  0  0  0  0
   45.4750   81.4780   62.6910 C   0  0  0  0  0  0  0  0  0  0  0  0
   45.1610   82.5890   63.4300 C   0  0  0  0  0  0  0  0  0  0  0  0
   43.8800   83.1140   63.3700 C   0  0  0  0  0  0  0  0  0  0  0  0
   44.7290   80.0410   61.3210 H   0  0  0  0  0  0  0  0  0  0  0  0
   46.4530   81.0190   62.6920 H   0  0  0  0  0  0  0  0  0  0  0  0
   45.9010   83.0630   64.0600 H   0  0  0  0  0  0  0  0  0  0  0  0
   43.6680   83.9870   63.9640 H   0  0  0  0  0  0  0  0  0  0  0  0
   40.4560   79.2670   60.6510 C   0  0  0  0  0  0  0  0  0  0  0  0
   40.4140   79.5610   59.3010 C   0  0  0  0  0  0  0  0  0  0  0  0
   41.3330   80.5050   58.8330 C   0  0  0  0  0  0  0  0  0  0  0  0
   42.2040   81.0750   59.7150 N   0  0  0  0  0  0  0  0  0  0  0  0
   42.2150   80.7680   61.0000 C   0  0  0  0  0  0  0  0  0  0  0  0
   41.3390   79.8640   61.4610 N   0  0  0  0  0  0  0  0  0  0  0  0
   39.7410   78.5390   60.9840 H   0  0  0  0  0  0  0  0  0  0  0  0
   41.3460   80.7740   57.7860 H   0  0  0  0  0  0  0  0  0  0  0  0
   39.4820   78.9340   58.4330 N   0  0  0  0  0  0  0  0  0  0  0  0
   39.0140   79.7550   57.4770 C   0  0  0  0  0  0  0  0  0  0  0  0
   38.0850   79.2460   56.5660 C   0  0  0  0  0  0  0  0  0  0  0  0
   37.6830   77.9270   56.6810 C   0  0  0  0  0  0  0  0  0  0  0  0
   36.8580   77.3400   55.9390 O   0  0  0  0  0  0  0  0  0  0  0  0
   38.2080   77.1510   57.6860 N   0  0  0  0  0  0  0  0  0  0  0  0
   39.1140   77.6530   58.5710 C   0  0  0  0  0  0  0  0  0  0  0  0
   39.6000   76.9650   59.4870 O   0  0  0  0  0  0  0  0  0  0  0  0
   39.3010   80.7850   57.3540 H   0  0  0  0  0  0  0  0  0  0  0  0
   37.6600   79.8180   55.7780 H   0  0  0  0  0  0  0  0  0  0  0  0
   37.9710   76.1430   57.8600 H   0  0  0  0  0  0  0  0  0  0  0  0
   41.2630   83.2530   62.5200 S   0  0  0  0  0  0  0  0  0  0  0  0
   41.1200   84.3150   63.5850 O   0  0  0  0  0  0  0  0  0  0  0  0
   40.2970   82.1560   62.9820 O   0  0  0  0  0  0  0  0  0  0  0  0
   40.7510   83.9630   61.0430 C   0  0  0  0  0  0  0  0  0  0  0  0
   41.8550   84.5840   60.4270 C   0  0  0  0  0  0  0  0  0  0  0  0
   42.9090   84.6170   60.7500 H   0  0  0  0  0  0  0  0  0  0  0  0
   41.7470   85.2960   59.2330 C   0  0  0  0  0  0  0  0  0  0  0  0
   40.5340   85.4160   58.6060 C   0  0  0  0  0  0  0  0  0  0  0  0
   40.3240   85.9360   57.6850 H   0  0  0  0  0  0  0  0  0  0  0  0
   39.4310   84.8260   59.1690 C   0  0  0  0  0  0  0  0  0  0  0  0
   38.3980   84.8100   58.8270 H   0  0  0  0  0  0  0  0  0  0  0  0
   39.5490   84.1280   60.3440 C   0  0  0  0  0  0  0  0  0  0  0  0
  1  6  1  0  0  0  0
  2  3  1  0  0  0  0
  2  1  2  0  0  0  0
  3  4  2  0  0  0  0
  4  8  1  0  0  0  0
  4  5  1  0  0  0  0
  5  9  1  0  0  0  0
  6  5  2  0  0  0  0
  6 10  1  0  0  0  0
  7  3  1  0  0  0  0
 11 17  1  0  0  0  0
 11 16  1  0  0  0  0
 12 11  2  0  0  0  0
 13 12  1  0  0  0  0
 13 14  2  0  0  0  0
 14 15  1  0  0  0  0
 15 16  2  0  0  0  0
 15  2  1  0  0  0  0
 18 13  1  0  0  0  0
 19 25  1  0  0  0  0
 19 12  1  0  0  0  0
 20 19  1  0  0  0  0
 21 22  1  0  0  0  0
 21 20  2  0  0  0  0
 22 24  1  0  0  0  0
 23 22  2  0  0  0  0
 24 29  1  0  0  0  0
 24 25  1  0  0  0  0
 25 26  2  0  0  0  0
 27 20  1  0  0  0  0
 28 21  1  0  0  0  0
 30  1  1  0  0  0  0
 30 32  2  0  0  0  0
 30 31  2  0  0  0  0
 33 30  1  0  0  0  0
 34 35  1  0  0  0  0
 34 33  1  0  0  0  0
 36 34  2  0  0  0  0
 37 39  2  0  0  0  0
 37 36  1  0  0  0  0
 38 37  1  0  0  0  0
 39 41  1  0  0  0  0
 40 39  1  0  0  0  0
 41 33  2  0  0  0  0
M  END
>  <minimizedAffinity>
-6.94628525

>  <minimizedRMSD>
2.34644699

$$$$
