
 OpenBabel03212520323D

 41 44  0  0  0  0  0  0  0  0999 V2000
   42.2730   82.5460   61.6240 C   0  0  0  0  0  0  0  0  0  0  0  0
   42.6200   81.5000   60.7830 C   0  0  0  0  0  0  0  0  0  0  0  0
   43.7670   80.7600   60.9990 C   0  0  0  0  0  0  0  0  0  0  0  0
   44.6350   81.0160   62.0610 C   0  0  0  0  0  0  0  0  0  0  0  0
   44.3170   82.0430   62.9100 C   0  0  0  0  0  0  0  0  0  0  0  0
   43.1660   82.7840   62.6900 C   0  0  0  0  0  0  0  0  0  0  0  0
   44.0300   79.9440   60.3340 H   0  0  0  0  0  0  0  0  0  0  0  0
   45.5160   80.4000   62.1740 H   0  0  0  0  0  0  0  0  0  0  0  0
   44.9530   82.2860   63.7500 H   0  0  0  0  0  0  0  0  0  0  0  0
   42.9460   83.5840   63.3770 H   0  0  0  0  0  0  0  0  0  0  0  0
   40.1280   79.8260   58.6280 C   0  0  0  0  0  0  0  0  0  0  0  0
   40.2350   80.5370   57.4480 C   0  0  0  0  0  0  0  0  0  0  0  0
   41.1670   81.5780   57.4220 C   0  0  0  0  0  0  0  0  0  0  0  0
   41.9060   81.8330   58.5410 N   0  0  0  0  0  0  0  0  0  0  0  0
   41.7760   81.1310   59.6530 C   0  0  0  0  0  0  0  0  0  0  0  0
   40.8850   80.1300   59.6890 N   0  0  0  0  0  0  0  0  0  0  0  0
   39.4050   79.0310   58.6210 H   0  0  0  0  0  0  0  0  0  0  0  0
   41.2940   82.1690   56.5260 H   0  0  0  0  0  0  0  0  0  0  0  0
   39.4360   80.2240   56.3170 N   0  0  0  0  0  0  0  0  0  0  0  0
   38.1620   80.6340   56.4390 C   0  0  0  0  0  0  0  0  0  0  0  0
   37.2810   80.3750   55.3860 C   0  0  0  0  0  0  0  0  0  0  0  0
   37.7480   79.7110   54.2660 C   0  0  0  0  0  0  0  0  0  0  0  0
   37.0730   79.4100   53.2510 O   0  0  0  0  0  0  0  0  0  0  0  0
   39.0660   79.3230   54.2160 N   0  0  0  0  0  0  0  0  0  0  0  0
   39.9200   79.5790   55.2460 C   0  0  0  0  0  0  0  0  0  0  0  0
   41.1160   79.2360   55.2190 O   0  0  0  0  0  0  0  0  0  0  0  0
   37.7600   81.1530   57.2920 H   0  0  0  0  0  0  0  0  0  0  0  0
   36.2570   80.6600   55.3910 H   0  0  0  0  0  0  0  0  0  0  0  0
   39.5180   78.8160   53.4170 H   0  0  0  0  0  0  0  0  0  0  0  0
   40.8530   83.4930   61.3740 S   0  0  0  0  0  0  0  0  0  0  0  0
   40.5510   84.3080   62.6090 O   0  0  0  0  0  0  0  0  0  0  0  0
   39.6790   82.5090   61.3040 O   0  0  0  0  0  0  0  0  0  0  0  0
   40.8390   84.5840   60.0470 C   0  0  0  0  0  0  0  0  0  0  0  0
   39.5060   84.9320   59.7550 C   0  0  0  0  0  0  0  0  0  0  0  0
   38.5770   84.6350   60.2710 H   0  0  0  0  0  0  0  0  0  0  0  0
   39.1610   85.7650   58.6920 C   0  0  0  0  0  3  0  0  0  0  0  0
   40.1350   86.2830   57.8770 C   0  0  0  0  0  0  0  0  0  0  0  0
   39.9960   86.9340   57.0280 H   0  0  0  0  0  0  0  0  0  0  0  0
   41.4470   85.9700   58.1220 C   0  0  0  0  0  0  0  0  0  0  0  0
   42.3480   86.2800   57.5950 H   0  0  0  0  0  0  0  0  0  0  0  0
   41.7730   85.1500   59.1720 C   0  0  0  0  0  3  0  0  0  0  0  0
  1  6  1  0  0  0  0
  2  3  1  0  0  0  0
  2  1  2  0  0  0  0
  3  4  2  0  0  0  0
  4  8  1  0  0  0  0
  4  5  1  0  0  0  0
  5  9  1  0  0  0  0
  6  5  2  0  0  0  0
  6 10  1  0  0  0  0
  7  3  1  0  0  0  0
 11 16  1  0  0  0  0
 12 11  2  0  0  0  0
 13 12  1  0  0  0  0
 13 14  2  0  0  0  0
 14 15  1  0  0  0  0
 15 16  2  0  0  0  0
 15  2  1  0  0  0  0
 17 11  1  0  0  0  0
 18 13  1  0  0  0  0
 19 20  1  0  0  0  0
 19 12  1  0  0  0  0
 20 27  1  0  0  0  0
 21 28  1  0  0  0  0
 21 20  2  0  0  0  0
 22 21  1  0  0  0  0
 23 22  2  0  0  0  0
 24 22  1  0  0  0  0
 24 25  1  0  0  0  0
 25 19  1  0  0  0  0
 26 25  2  0  0  0  0
 29 24  1  0  0  0  0
 30  1  1  0  0  0  0
 30 31  2  0  0  0  0
 32 30  2  0  0  0  0
 33 30  1  0  0  0  0
 34 33  1  0  0  0  0
 34 35  1  0  0  0  0
 36 34  2  0  0  0  0
 37 39  2  0  0  0  0
 37 36  1  0  0  0  0
 38 37  1  0  0  0  0
 39 41  1  0  0  0  0
 40 39  1  0  0  0  0
 41 33  2  0  0  0  0
M  END
>  <minimizedAffinity>
-6.02775192

>  <minimizedRMSD>
1.23734701

$$$$
