
 OpenBabel03212520323D

 41 44  0  0  0  0  0  0  0  0999 V2000
   42.7120   82.4980   61.4870 C   0  0  0  0  0  0  0  0  0  0  0  0
   43.0900   81.1650   61.5450 C   0  0  0  0  0  0  0  0  0  0  0  0
   44.1660   80.7610   62.3120 C   0  0  0  0  0  0  0  0  0  0  0  0
   44.9270   81.6550   63.0660 C   0  0  0  0  0  0  0  0  0  0  0  0
   44.5770   82.9790   63.0280 C   0  0  0  0  0  0  0  0  0  0  0  0
   43.4970   83.3810   62.2570 C   0  0  0  0  0  0  0  0  0  0  0  0
   44.4540   79.7150   62.3500 H   0  0  0  0  0  0  0  0  0  0  0  0
   45.7570   81.2740   63.6450 H   0  0  0  0  0  0  0  0  0  0  0  0
   45.1310   83.7160   63.5930 H   0  0  0  0  0  0  0  0  0  0  0  0
   43.2490   84.4290   62.2510 H   0  0  0  0  0  0  0  0  0  0  0  0
   40.5590   78.6660   60.5440 C   0  0  0  0  0  0  0  0  0  0  0  0
   41.0530   78.2150   59.3340 C   0  0  0  0  0  0  0  0  0  0  0  0
   42.2510   78.7840   58.8910 C   0  0  0  0  0  0  0  0  0  0  0  0
   42.8560   79.7350   59.6610 N   0  0  0  0  0  0  0  0  0  0  0  0
   42.3530   80.1420   60.8140 C   0  0  0  0  0  0  0  0  0  0  0  0
   41.2050   79.6020   61.2480 N   0  0  0  0  0  0  0  0  0  0  0  0
   39.6390   78.2120   60.8610 H   0  0  0  0  0  0  0  0  0  0  0  0
   42.6850   78.4710   57.9520 H   0  0  0  0  0  0  0  0  0  0  0  0
   40.3760   77.2220   58.5780 N   0  0  0  0  0  0  0  0  0  0  0  0
   39.4620   77.7320   57.7350 C   0  0  0  0  0  0  0  0  0  0  0  0
   38.7290   76.8450   56.9420 C   0  0  0  0  0  0  0  0  0  0  0  0
   38.9690   75.4870   57.0530 C   0  0  0  0  0  0  0  0  0  0  0  0
   38.3880   74.5800   56.4080 O   0  0  0  0  0  0  0  0  0  0  0  0
   39.9220   75.0440   57.9390 N   0  0  0  0  0  0  0  0  0  0  0  0
   40.6330   75.9140   58.7100 C   0  0  0  0  0  0  0  0  0  0  0  0
   41.4990   75.5310   59.5170 O   0  0  0  0  0  0  0  0  0  0  0  0
   39.2460   78.7800   57.6190 H   0  0  0  0  0  0  0  0  0  0  0  0
   37.9860   77.1530   56.2470 H   0  0  0  0  0  0  0  0  0  0  0  0
   40.1790   74.0390   58.1000 H   0  0  0  0  0  0  0  0  0  0  0  0
   41.3800   83.0340   60.5300 S   0  0  0  0  0  0  0  0  0  0  0  0
   41.2620   84.5380   60.6060 O   0  0  0  0  0  0  0  0  0  0  0  0
   40.1110   82.5430   61.2360 O   0  0  0  0  0  0  0  0  0  0  0  0
   41.3720   82.6210   58.8630 C   0  0  0  0  0  0  0  0  0  0  0  0
   40.2130   81.8710   58.5830 C   0  0  0  0  0  0  0  0  0  0  0  0
   39.3820   81.5910   59.2540 H   0  0  0  0  0  0  0  0  0  0  0  0
   39.9460   81.3410   57.3220 C   0  0  0  0  0  3  0  0  0  0  0  0
   40.8250   81.5410   56.2880 C   0  0  0  0  0  0  0  0  0  0  0  0
   40.7320   81.1850   55.2740 H   0  0  0  0  0  0  0  0  0  0  0  0
   41.9670   82.2640   56.5140 C   0  0  0  0  0  0  0  0  0  0  0  0
   42.7740   82.5270   55.8310 H   0  0  0  0  0  0  0  0  0  0  0  0
   42.2190   82.7800   57.7600 C   0  0  0  0  0  3  0  0  0  0  0  0
  1  2  2  0  0  0  0
  1  6  1  0  0  0  0
  2  3  1  0  0  0  0
  3  7  1  0  0  0  0
  3  4  2  0  0  0  0
  4  8  1  0  0  0  0
  5  4  1  0  0  0  0
  5  9  1  0  0  0  0
  6  5  2  0  0  0  0
 10  6  1  0  0  0  0
 11 17  1  0  0  0  0
 11 16  1  0  0  0  0
 12 11  2  0  0  0  0
 13 12  1  0  0  0  0
 13 14  2  0  0  0  0
 14 15  1  0  0  0  0
 15 16  2  0  0  0  0
 15  2  1  0  0  0  0
 18 13  1  0  0  0  0
 19 25  1  0  0  0  0
 19 12  1  0  0  0  0
 20 19  1  0  0  0  0
 21 22  1  0  0  0  0
 21 20  2  0  0  0  0
 22 24  1  0  0  0  0
 23 22  2  0  0  0  0
 24 29  1  0  0  0  0
 24 25  1  0  0  0  0
 25 26  2  0  0  0  0
 27 20  1  0  0  0  0
 28 21  1  0  0  0  0
 30 31  2  0  0  0  0
 30 32  2  0  0  0  0
 30  1  1  0  0  0  0
 33 30  1  0  0  0  0
 34 33  1  0  0  0  0
 34 35  1  0  0  0  0
 36 34  2  0  0  0  0
 37 39  2  0  0  0  0
 37 36  1  0  0  0  0
 38 37  1  0  0  0  0
 39 41  1  0  0  0  0
 40 39  1  0  0  0  0
 41 33  2  0  0  0  0
M  END
>  <minimizedAffinity>
-5.28956079

>  <minimizedRMSD>
3.6592679

$$$$
