
 OpenBabel03212520323D

 41 44  0  0  0  0  0  0  0  0999 V2000
   42.3370   82.8640   61.6800 C   0  0  0  0  0  0  0  0  0  0  0  0
   43.1030   81.7100   61.6480 C   0  0  0  0  0  0  0  0  0  0  0  0
   44.1780   81.5430   62.5000 C   0  0  0  0  0  0  0  0  0  0  0  0
   44.5540   82.5110   63.4310 C   0  0  0  0  0  0  0  0  0  0  0  0
   43.8140   83.6630   63.4860 C   0  0  0  0  0  0  0  0  0  0  0  0
   42.7370   83.8280   62.6290 C   0  0  0  0  0  0  0  0  0  0  0  0
   44.7720   80.6340   62.4660 H   0  0  0  0  0  0  0  0  0  0  0  0
   45.4050   82.3190   64.0690 H   0  0  0  0  0  0  0  0  0  0  0  0
   44.0590   84.4470   64.1880 H   0  0  0  0  0  0  0  0  0  0  0  0
   42.1770   84.7450   62.7000 H   0  0  0  0  0  0  0  0  0  0  0  0
   41.6550   78.6650   60.1340 C   0  0  0  0  0  0  0  0  0  0  0  0
   42.2780   78.6260   58.9000 C   0  0  0  0  0  0  0  0  0  0  0  0
   43.1850   79.6510   58.6200 C   0  0  0  0  0  0  0  0  0  0  0  0
   43.4030   80.6180   59.5580 N   0  0  0  0  0  0  0  0  0  0  0  0
   42.7880   80.6230   60.7280 C   0  0  0  0  0  0  0  0  0  0  0  0
   41.9160   79.6440   61.0090 N   0  0  0  0  0  0  0  0  0  0  0  0
   40.9640   77.8660   60.3250 H   0  0  0  0  0  0  0  0  0  0  0  0
   43.7020   79.6720   57.6710 H   0  0  0  0  0  0  0  0  0  0  0  0
   42.0080   77.5920   57.9650 N   0  0  0  0  0  0  0  0  0  0  0  0
   40.7410   77.6040   57.5160 C   0  0  0  0  0  0  0  0  0  0  0  0
   40.3590   76.6280   56.5920 C   0  0  0  0  0  0  0  0  0  0  0  0
   41.2910   75.6930   56.1780 C   0  0  0  0  0  0  0  0  0  0  0  0
   41.0890   74.7620   55.3590 O   0  0  0  0  0  0  0  0  0  0  0  0
   42.5680   75.7470   56.6830 N   0  0  0  0  0  0  0  0  0  0  0  0
   42.9340   76.7020   57.5840 C   0  0  0  0  0  0  0  0  0  0  0  0
   44.0850   76.7680   58.0530 O   0  0  0  0  0  0  0  0  0  0  0  0
   39.9870   78.3130   57.8120 H   0  0  0  0  0  0  0  0  0  0  0  0
   39.3820   76.5570   56.1810 H   0  0  0  0  0  0  0  0  0  0  0  0
   43.3460   75.0880   56.4360 H   0  0  0  0  0  0  0  0  0  0  0  0
   40.9950   83.1060   60.6210 S   0  0  0  0  0  0  0  0  0  0  0  0
   40.1440   84.2500   61.1190 O   0  0  0  0  0  0  0  0  0  0  0  0
   40.0810   81.8860   60.7920 O   0  0  0  0  0  0  0  0  0  0  0  0
   41.3250   83.4180   58.9650 C   0  0  0  0  0  0  0  0  0  0  0  0
   41.8420   84.7220   58.8390 C   0  0  0  0  0  0  0  0  0  0  0  0
   42.0700   85.4620   59.6260 H   0  0  0  0  0  0  0  0  0  0  0  0
   42.1590   85.2900   57.6070 C   0  0  0  0  0  3  0  0  0  0  0  0
   41.9730   84.5780   56.4490 C   0  0  0  0  0  0  0  0  0  0  0  0
   42.1780   84.9060   55.4420 H   0  0  0  0  0  0  0  0  0  0  0  0
   41.4710   83.3050   56.5230 C   0  0  0  0  0  0  0  0  0  0  0  0
   41.2550   82.5930   55.7280 H   0  0  0  0  0  0  0  0  0  0  0  0
   41.1620   82.7570   57.7420 C   0  0  0  0  0  3  0  0  0  0  0  0
  1  6  1  0  0  0  0
  2  1  2  0  0  0  0
  2  3  1  0  0  0  0
  3  4  2  0  0  0  0
  4  5  1  0  0  0  0
  4  8  1  0  0  0  0
  5  9  1  0  0  0  0
  6 10  1  0  0  0  0
  6  5  2  0  0  0  0
  7  3  1  0  0  0  0
 11 17  1  0  0  0  0
 11 16  1  0  0  0  0
 12 11  2  0  0  0  0
 13 12  1  0  0  0  0
 13 14  2  0  0  0  0
 14 15  1  0  0  0  0
 15 16  2  0  0  0  0
 15  2  1  0  0  0  0
 18 13  1  0  0  0  0
 19 12  1  0  0  0  0
 20 27  1  0  0  0  0
 20 19  1  0  0  0  0
 21 20  2  0  0  0  0
 22 21  1  0  0  0  0
 22 24  1  0  0  0  0
 23 22  2  0  0  0  0
 24 25  1  0  0  0  0
 25 19  1  0  0  0  0
 25 26  2  0  0  0  0
 28 21  1  0  0  0  0
 29 24  1  0  0  0  0
 30 32  2  0  0  0  0
 30 31  2  0  0  0  0
 30  1  1  0  0  0  0
 33 30  1  0  0  0  0
 34 33  1  0  0  0  0
 34 35  1  0  0  0  0
 36 34  2  0  0  0  0
 37 39  2  0  0  0  0
 37 36  1  0  0  0  0
 38 37  1  0  0  0  0
 39 41  1  0  0  0  0
 40 39  1  0  0  0  0
 41 33  2  0  0  0  0
M  END
>  <minimizedAffinity>
-3.95164776

>  <minimizedRMSD>
3.55726933

$$$$
