
 OpenBabel03212520323D

 41 44  0  0  0  0  0  0  0  0999 V2000
   42.7090   82.2980   61.7280 C   0  0  0  0  0  0  0  0  0  0  0  0
   42.9670   80.9670   61.4410 C   0  0  0  0  0  0  0  0  0  0  0  0
   44.0630   80.3210   61.9780 C   0  0  0  0  0  0  0  0  0  0  0  0
   44.9650   80.9580   62.8310 C   0  0  0  0  0  0  0  0  0  0  0  0
   44.7350   82.2740   63.1330 C   0  0  0  0  0  0  0  0  0  0  0  0
   43.6340   82.9200   62.5910 C   0  0  0  0  0  0  0  0  0  0  0  0
   44.2560   79.2780   61.7470 H   0  0  0  0  0  0  0  0  0  0  0  0
   45.8030   80.3950   63.2180 H   0  0  0  0  0  0  0  0  0  0  0  0
   45.4010   82.8180   63.7890 H   0  0  0  0  0  0  0  0  0  0  0  0
   43.4830   83.9540   62.8500 H   0  0  0  0  0  0  0  0  0  0  0  0
   40.2400   78.8010   60.2030 C   0  0  0  0  0  0  0  0  0  0  0  0
   40.4730   78.7860   58.8400 C   0  0  0  0  0  0  0  0  0  0  0  0
   41.5670   79.5240   58.3800 C   0  0  0  0  0  0  0  0  0  0  0  0
   42.3320   80.2060   59.2800 N   0  0  0  0  0  0  0  0  0  0  0  0
   42.0790   80.1970   60.5780 C   0  0  0  0  0  0  0  0  0  0  0  0
   41.0320   79.4930   61.0310 N   0  0  0  0  0  0  0  0  0  0  0  0
   39.3950   78.2260   60.5300 H   0  0  0  0  0  0  0  0  0  0  0  0
   41.7970   79.5490   57.3240 H   0  0  0  0  0  0  0  0  0  0  0  0
   39.6390   78.0560   57.9530 N   0  0  0  0  0  0  0  0  0  0  0  0
   38.7390   78.8270   57.3190 C   0  0  0  0  0  0  0  0  0  0  0  0
   37.8590   78.2140   56.4220 C   0  0  0  0  0  0  0  0  0  0  0  0
   37.9480   76.8480   56.2220 C   0  0  0  0  0  0  0  0  0  0  0  0
   37.2260   76.1670   55.4520 O   0  0  0  0  0  0  0  0  0  0  0  0
   38.8970   76.1280   56.9070 N   0  0  0  0  0  0  0  0  0  0  0  0
   39.7510   76.7320   57.7810 C   0  0  0  0  0  0  0  0  0  0  0  0
   40.6170   76.0970   58.4100 O   0  0  0  0  0  0  0  0  0  0  0  0
   38.6380   79.8910   57.4470 H   0  0  0  0  0  0  0  0  0  0  0  0
   37.1150   78.7390   55.8760 H   0  0  0  0  0  0  0  0  0  0  0  0
   39.0460   75.0920   56.8280 H   0  0  0  0  0  0  0  0  0  0  0  0
   41.3530   83.1350   61.0630 S   0  0  0  0  0  0  0  0  0  0  0  0
   40.9780   84.2980   61.9510 O   0  0  0  0  0  0  0  0  0  0  0  0
   40.1520   82.1900   61.1920 O   0  0  0  0  0  0  0  0  0  0  0  0
   41.4970   83.7570   59.4690 C   0  0  0  0  0  0  0  0  0  0  0  0
   40.9810   85.0670   59.4390 C   0  0  0  0  0  0  0  0  0  0  0  0
   40.5780   85.6770   60.2660 H   0  0  0  0  0  0  0  0  0  0  0  0
   40.9080   85.8210   58.2700 C   0  0  0  0  0  3  0  0  0  0  0  0
   41.3480   85.2970   57.0810 C   0  0  0  0  0  0  0  0  0  0  0  0
   41.3440   85.7780   56.1150 H   0  0  0  0  0  0  0  0  0  0  0  0
   41.8570   84.0240   57.0610 C   0  0  0  0  0  0  0  0  0  0  0  0
   42.2510   83.4430   56.2280 H   0  0  0  0  0  0  0  0  0  0  0  0
   41.9240   83.2920   58.2190 C   0  0  0  0  0  3  0  0  0  0  0  0
  1  6  1  0  0  0  0
  2  1  2  0  0  0  0
  2  3  1  0  0  0  0
  3  4  2  0  0  0  0
  4  5  1  0  0  0  0
  4  8  1  0  0  0  0
  5  9  1  0  0  0  0
  6 10  1  0  0  0  0
  6  5  2  0  0  0  0
  7  3  1  0  0  0  0
 11 17  1  0  0  0  0
 11 16  1  0  0  0  0
 12 11  2  0  0  0  0
 13 12  1  0  0  0  0
 13 14  2  0  0  0  0
 14 15  1  0  0  0  0
 15 16  2  0  0  0  0
 15  2  1  0  0  0  0
 18 13  1  0  0  0  0
 19 12  1  0  0  0  0
 20 27  1  0  0  0  0
 20 19  1  0  0  0  0
 21 20  2  0  0  0  0
 22 21  1  0  0  0  0
 22 24  1  0  0  0  0
 23 22  2  0  0  0  0
 24 25  1  0  0  0  0
 25 19  1  0  0  0  0
 25 26  2  0  0  0  0
 28 21  1  0  0  0  0
 29 24  1  0  0  0  0
 30 32  2  0  0  0  0
 30  1  1  0  0  0  0
 30 31  2  0  0  0  0
 33 30  1  0  0  0  0
 34 33  1  0  0  0  0
 34 35  1  0  0  0  0
 36 34  2  0  0  0  0
 37 36  1  0  0  0  0
 38 37  1  0  0  0  0
 39 37  2  0  0  0  0
 39 41  1  0  0  0  0
 40 39  1  0  0  0  0
 41 33  2  0  0  0  0
M  END
>  <minimizedAffinity>
-5.75688171

>  <minimizedRMSD>
2.76405931

$$$$
