
 OpenBabel03212520323D

 41 44  0  0  0  0  0  0  0  0999 V2000
   42.4300   82.6540   61.9040 C   0  0  0  0  0  0  0  0  0  0  0  0
   42.7780   81.5320   61.1680 C   0  0  0  0  0  0  0  0  0  0  0  0
   43.9510   80.8480   61.4210 C   0  0  0  0  0  0  0  0  0  0  0  0
   44.8450   81.2370   62.4180 C   0  0  0  0  0  0  0  0  0  0  0  0
   44.5270   82.3420   63.1630 C   0  0  0  0  0  0  0  0  0  0  0  0
   43.3500   83.0270   62.9050 C   0  0  0  0  0  0  0  0  0  0  0  0
   44.2140   79.9700   60.8380 H   0  0  0  0  0  0  0  0  0  0  0  0
   45.7460   80.6580   62.5660 H   0  0  0  0  0  0  0  0  0  0  0  0
   45.1830   82.6890   63.9490 H   0  0  0  0  0  0  0  0  0  0  0  0
   43.1310   83.8910   63.5100 H   0  0  0  0  0  0  0  0  0  0  0  0
   40.1960   79.6440   59.3170 C   0  0  0  0  0  0  0  0  0  0  0  0
   40.3210   80.1510   58.0370 C   0  0  0  0  0  0  0  0  0  0  0  0
   41.2960   81.1340   57.8420 C   0  0  0  0  0  0  0  0  0  0  0  0
   42.0560   81.5330   58.9030 N   0  0  0  0  0  0  0  0  0  0  0  0
   41.9080   81.0240   60.1140 C   0  0  0  0  0  0  0  0  0  0  0  0
   40.9760   80.0810   60.3120 N   0  0  0  0  0  0  0  0  0  0  0  0
   39.4420   78.8890   59.4390 H   0  0  0  0  0  0  0  0  0  0  0  0
   41.4390   81.5680   56.8620 H   0  0  0  0  0  0  0  0  0  0  0  0
   39.4990   79.6950   56.9730 N   0  0  0  0  0  0  0  0  0  0  0  0
   38.4560   80.5060   56.7270 C   0  0  0  0  0  0  0  0  0  0  0  0
   37.5740   80.1540   55.7020 C   0  0  0  0  0  0  0  0  0  0  0  0
   37.8050   78.9940   54.9850 C   0  0  0  0  0  0  0  0  0  0  0  0
   37.0980   78.5550   54.0440 O   0  0  0  0  0  0  0  0  0  0  0  0
   38.8950   78.2170   55.2970 N   0  0  0  0  0  0  0  0  0  0  0  0
   39.7510   78.5660   56.2980 C   0  0  0  0  0  0  0  0  0  0  0  0
   40.7430   77.8760   56.5950 O   0  0  0  0  0  0  0  0  0  0  0  0
   38.2420   81.4160   57.2600 H   0  0  0  0  0  0  0  0  0  0  0  0
   36.7230   80.7310   55.4340 H   0  0  0  0  0  0  0  0  0  0  0  0
   39.1580   77.3220   54.8170 H   0  0  0  0  0  0  0  0  0  0  0  0
   40.9770   83.5360   61.6030 S   0  0  0  0  0  0  0  0  0  0  0  0
   40.6500   84.4110   62.7890 O   0  0  0  0  0  0  0  0  0  0  0  0
   39.8380   82.5080   61.5970 O   0  0  0  0  0  0  0  0  0  0  0  0
   40.9220   84.5440   60.2140 C   0  0  0  0  0  0  0  0  0  0  0  0
   39.5810   84.8780   59.9430 C   0  0  0  0  0  0  0  0  0  0  0  0
   38.6680   84.6150   60.5050 H   0  0  0  0  0  0  0  0  0  0  0  0
   39.2050   85.6450   58.8430 C   0  0  0  0  0  3  0  0  0  0  0  0
   40.1520   86.1090   57.9680 C   0  0  0  0  0  0  0  0  0  0  0  0
   39.9880   86.7100   57.0850 H   0  0  0  0  0  0  0  0  0  0  0  0
   41.4710   85.8080   58.1910 C   0  0  0  0  0  0  0  0  0  0  0  0
   42.3570   86.0820   57.6180 H   0  0  0  0  0  0  0  0  0  0  0  0
   41.8290   85.0530   59.2770 C   0  0  0  0  0  3  0  0  0  0  0  0
  1  6  1  0  0  0  0
  2  3  1  0  0  0  0
  2  1  2  0  0  0  0
  3  4  2  0  0  0  0
  4  8  1  0  0  0  0
  4  5  1  0  0  0  0
  5  9  1  0  0  0  0
  6  5  2  0  0  0  0
  6 10  1  0  0  0  0
  7  3  1  0  0  0  0
 11 17  1  0  0  0  0
 11 16  1  0  0  0  0
 12 11  2  0  0  0  0
 13 12  1  0  0  0  0
 13 14  2  0  0  0  0
 14 15  1  0  0  0  0
 15 16  2  0  0  0  0
 15  2  1  0  0  0  0
 18 13  1  0  0  0  0
 19 12  1  0  0  0  0
 20 19  1  0  0  0  0
 20 27  1  0  0  0  0
 21 20  2  0  0  0  0
 22 24  1  0  0  0  0
 22 21  1  0  0  0  0
 23 22  2  0  0  0  0
 24 25  1  0  0  0  0
 25 26  2  0  0  0  0
 25 19  1  0  0  0  0
 28 21  1  0  0  0  0
 29 24  1  0  0  0  0
 30  1  1  0  0  0  0
 30 31  2  0  0  0  0
 32 30  2  0  0  0  0
 33 30  1  0  0  0  0
 34 33  1  0  0  0  0
 34 35  1  0  0  0  0
 36 34  2  0  0  0  0
 37 39  2  0  0  0  0
 37 36  1  0  0  0  0
 38 37  1  0  0  0  0
 39 41  1  0  0  0  0
 40 39  1  0  0  0  0
 41 33  2  0  0  0  0
M  END
>  <minimizedAffinity>
-6.17351675

>  <minimizedRMSD>
1.49981356

$$$$
