
 OpenBabel03212520323D

 41 44  0  0  0  0  0  0  0  0999 V2000
   43.2690   82.1300   62.3660 C   0  0  0  0  0  0  0  0  0  0  0  0
   43.7470   80.8640   62.0670 C   0  0  0  0  0  0  0  0  0  0  0  0
   45.0090   80.4650   62.4650 C   0  0  0  0  0  0  0  0  0  0  0  0
   45.8670   81.2990   63.1830 C   0  0  0  0  0  0  0  0  0  0  0  0
   45.4200   82.5560   63.4940 C   0  0  0  0  0  0  0  0  0  0  0  0
   44.1540   82.9530   63.0920 C   0  0  0  0  0  0  0  0  0  0  0  0
   45.3740   79.4710   62.2250 H   0  0  0  0  0  0  0  0  0  0  0  0
   46.8420   80.9260   63.4650 H   0  0  0  0  0  0  0  0  0  0  0  0
   46.0420   83.2450   64.0490 H   0  0  0  0  0  0  0  0  0  0  0  0
   43.8350   83.9480   63.3540 H   0  0  0  0  0  0  0  0  0  0  0  0
   41.1870   78.3490   61.1870 C   0  0  0  0  0  0  0  0  0  0  0  0
   41.4520   78.1140   59.8510 C   0  0  0  0  0  0  0  0  0  0  0  0
   42.5110   78.8290   59.2840 C   0  0  0  0  0  0  0  0  0  0  0  0
   43.2120   79.7030   60.0630 N   0  0  0  0  0  0  0  0  0  0  0  0
   42.9290   79.9020   61.3380 C   0  0  0  0  0  0  0  0  0  0  0  0
   41.9150   79.2220   61.8930 N   0  0  0  0  0  0  0  0  0  0  0  0
   40.3690   77.7860   61.5980 H   0  0  0  0  0  0  0  0  0  0  0  0
   42.7650   78.6860   58.2430 H   0  0  0  0  0  0  0  0  0  0  0  0
   40.6860   77.1900   59.0920 N   0  0  0  0  0  0  0  0  0  0  0  0
   39.6010   77.7450   58.5240 C   0  0  0  0  0  0  0  0  0  0  0  0
   38.7670   76.9280   57.7560 C   0  0  0  0  0  0  0  0  0  0  0  0
   39.0860   75.5900   57.6100 C   0  0  0  0  0  0  0  0  0  0  0  0
   38.4310   74.7420   56.9550 O   0  0  0  0  0  0  0  0  0  0  0  0
   40.2140   75.0970   58.2230 N   0  0  0  0  0  0  0  0  0  0  0  0
   41.0220   75.8990   58.9700 C   0  0  0  0  0  0  0  0  0  0  0  0
   42.0470   75.4720   59.5320 O   0  0  0  0  0  0  0  0  0  0  0  0
   39.3190   78.7800   58.6130 H   0  0  0  0  0  0  0  0  0  0  0  0
   37.8890   77.2750   57.2690 H   0  0  0  0  0  0  0  0  0  0  0  0
   40.5430   74.1020   58.1760 H   0  0  0  0  0  0  0  0  0  0  0  0
   41.7020   82.6590   61.8730 S   0  0  0  0  0  0  0  0  0  0  0  0
   41.5750   84.1510   62.0730 O   0  0  0  0  0  0  0  0  0  0  0  0
   40.7080   82.0800   62.8860 O   0  0  0  0  0  0  0  0  0  0  0  0
   41.2170   82.3340   60.2580 C   0  0  0  0  0  0  0  0  0  0  0  0
   42.1000   82.9850   59.3740 C   0  0  0  0  0  0  0  0  0  0  0  0
   43.0010   83.5810   59.6000 H   0  0  0  0  0  0  0  0  0  0  0  0
   41.9370   82.9540   57.9900 C   0  0  0  0  0  3  0  0  0  0  0  0
   40.8860   82.2730   57.4320 C   0  0  0  0  0  0  0  0  0  0  0  0
   40.6530   82.1770   56.3830 H   0  0  0  0  0  0  0  0  0  0  0  0
   40.0000   81.6260   58.2540 C   0  0  0  0  0  0  0  0  0  0  0  0
   39.1150   81.0410   58.0050 H   0  0  0  0  0  0  0  0  0  0  0  0
   40.1700   81.6620   59.6140 C   0  0  0  0  0  3  0  0  0  0  0  0
  1  6  1  0  0  0  0
  2  1  2  0  0  0  0
  2  3  1  0  0  0  0
  3  4  2  0  0  0  0
  4  8  1  0  0  0  0
  4  5  1  0  0  0  0
  5  9  1  0  0  0  0
  6 10  1  0  0  0  0
  6  5  2  0  0  0  0
  7  3  1  0  0  0  0
 11 17  1  0  0  0  0
 11 16  1  0  0  0  0
 12 11  2  0  0  0  0
 13 12  1  0  0  0  0
 13 14  2  0  0  0  0
 14 15  1  0  0  0  0
 15 16  2  0  0  0  0
 15  2  1  0  0  0  0
 18 13  1  0  0  0  0
 19 12  1  0  0  0  0
 20 27  1  0  0  0  0
 20 19  1  0  0  0  0
 21 20  2  0  0  0  0
 22 21  1  0  0  0  0
 22 24  1  0  0  0  0
 23 22  2  0  0  0  0
 24 25  1  0  0  0  0
 25 19  1  0  0  0  0
 25 26  2  0  0  0  0
 28 21  1  0  0  0  0
 29 24  1  0  0  0  0
 30 31  2  0  0  0  0
 30  1  1  0  0  0  0
 30 32  2  0  0  0  0
 33 30  1  0  0  0  0
 34 35  1  0  0  0  0
 34 33  2  0  0  0  0
 36 34  1  0  0  0  0
 37 36  2  0  0  0  0
 37 39  1  0  0  0  0
 38 37  1  0  0  0  0
 39 41  2  0  0  0  0
 40 39  1  0  0  0  0
 41 33  1  0  0  0  0
M  END
>  <minimizedAffinity>
-5.80207396

>  <minimizedRMSD>
3.81470466

$$$$
