
 OpenBabel03212520323D

 41 44  0  0  0  0  0  0  0  0999 V2000
   42.8720   82.6050   62.5550 C   0  0  0  0  0  0  0  0  0  0  0  0
   43.2070   81.5220   61.7570 C   0  0  0  0  0  0  0  0  0  0  0  0
   44.4720   80.9690   61.7980 C   0  0  0  0  0  0  0  0  0  0  0  0
   45.4770   81.4580   62.6340 C   0  0  0  0  0  0  0  0  0  0  0  0
   45.1740   82.5270   63.4350 C   0  0  0  0  0  0  0  0  0  0  0  0
   43.9040   83.0800   63.3900 C   0  0  0  0  0  0  0  0  0  0  0  0
   44.7250   80.1220   61.1680 H   0  0  0  0  0  0  0  0  0  0  0  0
   46.4460   80.9800   62.6190 H   0  0  0  0  0  0  0  0  0  0  0  0
   45.9130   82.9470   64.1030 H   0  0  0  0  0  0  0  0  0  0  0  0
   43.7000   83.9190   64.0340 H   0  0  0  0  0  0  0  0  0  0  0  0
   40.3960   79.5360   60.4100 C   0  0  0  0  0  0  0  0  0  0  0  0
   40.4370   79.8440   59.0630 C   0  0  0  0  0  0  0  0  0  0  0  0
   41.4350   80.7310   58.6500 C   0  0  0  0  0  0  0  0  0  0  0  0
   42.2990   81.2350   59.5790 N   0  0  0  0  0  0  0  0  0  0  0  0
   42.2300   80.9170   60.8600 C   0  0  0  0  0  0  0  0  0  0  0  0
   41.2760   80.0670   61.2670 N   0  0  0  0  0  0  0  0  0  0  0  0
   39.6210   78.8520   60.7010 H   0  0  0  0  0  0  0  0  0  0  0  0
   41.5150   81.0090   57.6090 H   0  0  0  0  0  0  0  0  0  0  0  0
   39.5090   79.2870   58.1450 N   0  0  0  0  0  0  0  0  0  0  0  0
   39.0770   80.1690   57.2280 C   0  0  0  0  0  0  0  0  0  0  0  0
   38.1550   79.7320   56.2740 C   0  0  0  0  0  0  0  0  0  0  0  0
   37.7230   78.4180   56.3080 C   0  0  0  0  0  0  0  0  0  0  0  0
   36.9000   77.8910   55.5200 O   0  0  0  0  0  0  0  0  0  0  0  0
   38.2120   77.5760   57.2780 N   0  0  0  0  0  0  0  0  0  0  0  0
   39.1110   78.0090   58.2060 C   0  0  0  0  0  0  0  0  0  0  0  0
   39.5650   77.2610   59.0910 O   0  0  0  0  0  0  0  0  0  0  0  0
   39.3880   81.1980   57.1670 H   0  0  0  0  0  0  0  0  0  0  0  0
   37.7570   80.3560   55.5110 H   0  0  0  0  0  0  0  0  0  0  0  0
   37.9500   76.5660   57.3920 H   0  0  0  0  0  0  0  0  0  0  0  0
   41.3030   83.3230   62.5160 S   0  0  0  0  0  0  0  0  0  0  0  0
   41.2090   84.4140   63.5570 O   0  0  0  0  0  0  0  0  0  0  0  0
   40.3250   82.2600   63.0300 O   0  0  0  0  0  0  0  0  0  0  0  0
   40.7690   84.0060   61.0340 C   0  0  0  0  0  0  0  0  0  0  0  0
   41.8530   84.6550   60.4120 C   0  0  0  0  0  0  0  0  0  0  0  0
   42.9060   84.7200   60.7340 H   0  0  0  0  0  0  0  0  0  0  0  0
   41.7240   85.3530   59.2130 C   0  0  0  0  0  3  0  0  0  0  0  0
   40.5070   85.4320   58.5870 C   0  0  0  0  0  0  0  0  0  0  0  0
   40.2800   85.9390   57.6610 H   0  0  0  0  0  0  0  0  0  0  0  0
   39.4220   84.8150   59.1550 C   0  0  0  0  0  0  0  0  0  0  0  0
   38.3890   84.7660   58.8150 H   0  0  0  0  0  0  0  0  0  0  0  0
   39.5620   84.1310   60.3350 C   0  0  0  0  0  3  0  0  0  0  0  0
  1  6  1  0  0  0  0
  2  3  1  0  0  0  0
  2  1  2  0  0  0  0
  3  4  2  0  0  0  0
  4  5  1  0  0  0  0
  5  9  1  0  0  0  0
  6  5  2  0  0  0  0
  6 10  1  0  0  0  0
  7  3  1  0  0  0  0
  8  4  1  0  0  0  0
 11 17  1  0  0  0  0
 11 16  1  0  0  0  0
 12 11  2  0  0  0  0
 13 12  1  0  0  0  0
 13 14  2  0  0  0  0
 14 15  1  0  0  0  0
 15 16  2  0  0  0  0
 15  2  1  0  0  0  0
 18 13  1  0  0  0  0
 19 25  1  0  0  0  0
 19 12  1  0  0  0  0
 20 19  1  0  0  0  0
 21 22  1  0  0  0  0
 21 20  2  0  0  0  0
 22 24  1  0  0  0  0
 23 22  2  0  0  0  0
 24 29  1  0  0  0  0
 24 25  1  0  0  0  0
 25 26  2  0  0  0  0
 27 20  1  0  0  0  0
 28 21  1  0  0  0  0
 30  1  1  0  0  0  0
 30 32  2  0  0  0  0
 30 31  2  0  0  0  0
 33 30  1  0  0  0  0
 34 35  1  0  0  0  0
 34 33  1  0  0  0  0
 36 34  2  0  0  0  0
 37 39  2  0  0  0  0
 37 36  1  0  0  0  0
 38 37  1  0  0  0  0
 39 41  1  0  0  0  0
 40 39  1  0  0  0  0
 41 33  2  0  0  0  0
M  END
>  <minimizedAffinity>
-6.87418747

>  <minimizedRMSD>
2.05124903

$$$$
