
 OpenBabel03212520183D

 35 37  0  0  0  0  0  0  0  0999 V2000
   43.0470   83.8490   58.6190 Cl  0  0  0  0  0  0  0  0  0  0  0  0
   41.8120   82.6610   58.2650 C   0  0  0  0  0  0  0  0  0  0  0  0
   40.9530   82.1620   59.2310 C   0  0  0  0  0  0  0  0  0  0  0  0
   40.0340   81.2270   58.7840 C   0  0  0  0  0  0  0  0  0  0  0  0
   39.8870   80.7510   57.5040 C   0  0  0  0  0  0  0  0  0  0  0  0
   40.7510   81.2660   56.5820 C   0  0  0  0  0  0  0  0  0  0  0  0
   40.6950   80.7600   54.8940 Cl  0  0  0  0  0  0  0  0  0  0  0  0
   41.7010   82.2100   56.9610 C   0  0  0  0  0  0  0  0  0  0  0  0
   39.3660   80.8490   59.5740 H   0  0  0  0  0  0  0  0  0  0  0  0
   39.1460   80.0250   57.2500 H   0  0  0  0  0  0  0  0  0  0  0  0
   41.9170   82.1430   61.5720 C   0  0  0  0  0  0  0  0  0  0  0  0
   41.0640   82.6200   60.5630 C   0  0  0  0  0  0  0  0  0  0  0  0
   40.2280   83.6700   60.9090 C   0  0  0  0  0  0  0  0  0  0  0  0
   40.2970   84.1480   62.1820 N   0  0  0  0  0  0  0  0  0  0  0  0
   41.1300   83.6580   63.1160 C   0  0  0  0  0  0  0  0  0  0  0  0
   41.9490   82.6430   62.8030 N   0  0  0  0  0  0  0  0  0  0  0  0
   42.5550   81.3170   61.2480 H   0  0  0  0  0  0  0  0  0  0  0  0
   39.5150   84.1350   60.2180 H   0  0  0  0  0  0  0  0  0  0  0  0
   41.0580   84.3130   64.4470 C   0  0  0  0  0  0  0  0  0  0  0  0
   40.7350   85.6510   64.3520 F   0  0  0  0  0  0  0  0  0  0  0  0
   40.1030   83.6900   65.2300 F   0  0  0  0  0  0  0  0  0  0  0  0
   42.3010   84.2870   65.0860 F   0  0  0  0  0  0  0  0  0  0  0  0
   42.5590   82.7070   55.9890 O   0  0  0  0  0  0  0  0  0  0  0  0
   42.3560   83.9210   55.3050 C   0  0  0  0  0  0  0  0  0  0  0  0
   42.7940   84.7240   55.9340 H   0  0  0  0  0  0  0  0  0  0  0  0
   41.2590   84.1390   55.2870 H   0  0  0  0  0  0  0  0  0  0  0  0
   42.9600   83.9430   53.9680 C   0  0  0  0  0  0  0  0  0  0  0  0
   44.1230   84.5920   53.6100 C   0  0  0  0  0  0  0  0  0  0  0  0
   44.6190   85.1300   54.4090 H   0  0  0  0  0  0  0  0  0  0  0  0
   44.5960   84.5390   52.3030 C   0  0  0  0  0  3  0  0  0  0  0  0
   43.9240   83.8380   51.3210 C   0  0  0  0  0  0  0  0  0  0  0  0
   44.2910   83.7940   50.2970 H   0  0  0  0  0  0  0  0  0  0  0  0
   42.7520   83.1810   51.6660 C   0  0  0  0  0  0  0  0  0  0  0  0
   42.2580   82.6460   50.8750 H   0  0  0  0  0  0  0  0  0  0  0  0
   42.2970   83.2430   52.9620 C   0  0  0  0  0  3  0  0  0  0  0  0
  2  1  1  0  0  0  0
  2  3  1  0  0  0  0
  3 12  1  0  0  0  0
  4  3  2  0  0  0  0
  4  9  1  0  0  0  0
  5  4  1  0  0  0  0
  6  8  1  0  0  0  0
  6  5  2  0  0  0  0
  7  6  1  0  0  0  0
  8  2  2  0  0  0  0
 10  5  1  0  0  0  0
 11 16  1  0  0  0  0
 12 13  1  0  0  0  0
 12 11  2  0  0  0  0
 13 14  2  0  0  0  0
 14 15  1  0  0  0  0
 15 19  1  0  0  0  0
 16 15  2  0  0  0  0
 17 11  1  0  0  0  0
 18 13  1  0  0  0  0
 19 22  1  0  0  0  0
 19 21  1  0  0  0  0
 20 19  1  0  0  0  0
 23  8  1  0  0  0  0
 24 25  1  0  0  0  0
 24 23  1  0  0  0  0
 26 24  1  0  0  0  0
 27 24  1  0  0  0  0
 28 27  1  0  0  0  0
 28 29  1  0  0  0  0
 30 28  2  0  0  0  0
 31 33  2  0  0  0  0
 31 30  1  0  0  0  0
 32 31  1  0  0  0  0
 33 35  1  0  0  0  0
 34 33  1  0  0  0  0
 35 27  2  0  0  0  0
M  END
>  <minimizedAffinity>
-4.99653721

>  <minimizedRMSD>
0.766636193

$$$$
