
 OpenBabel03212520183D

 35 37  0  0  0  0  0  0  0  0999 V2000
   43.1690   83.6950   58.6460 Cl  0  0  0  0  0  0  0  0  0  0  0  0
   41.8720   82.5820   58.2700 C   0  0  0  0  0  0  0  0  0  0  0  0
   40.9620   82.1430   59.2200 C   0  0  0  0  0  0  0  0  0  0  0  0
   39.9980   81.2640   58.7570 C   0  0  0  0  0  0  0  0  0  0  0  0
   39.8500   80.7890   57.4760 C   0  0  0  0  0  0  0  0  0  0  0  0
   40.7650   81.2440   56.5710 C   0  0  0  0  0  0  0  0  0  0  0  0
   40.7150   80.7320   54.8850 Cl  0  0  0  0  0  0  0  0  0  0  0  0
   41.7620   82.1310   56.9670 C   0  0  0  0  0  0  0  0  0  0  0  0
   39.2910   80.9320   59.5340 H   0  0  0  0  0  0  0  0  0  0  0  0
   39.0720   80.1080   57.2090 H   0  0  0  0  0  0  0  0  0  0  0  0
   41.9080   82.1120   61.5680 C   0  0  0  0  0  0  0  0  0  0  0  0
   41.0720   82.6020   60.5520 C   0  0  0  0  0  0  0  0  0  0  0  0
   40.2530   83.6680   60.8890 C   0  0  0  0  0  0  0  0  0  0  0  0
   40.3220   84.1480   62.1620 N   0  0  0  0  0  0  0  0  0  0  0  0
   41.1380   83.6450   63.1030 C   0  0  0  0  0  0  0  0  0  0  0  0
   41.9400   82.6130   62.7980 N   0  0  0  0  0  0  0  0  0  0  0  0
   42.5320   81.2720   61.2510 H   0  0  0  0  0  0  0  0  0  0  0  0
   39.5540   84.1450   60.1910 H   0  0  0  0  0  0  0  0  0  0  0  0
   41.0690   84.3040   64.4320 C   0  0  0  0  0  0  0  0  0  0  0  0
   40.7480   85.6420   64.3330 F   0  0  0  0  0  0  0  0  0  0  0  0
   40.1120   83.6860   65.2170 F   0  0  0  0  0  0  0  0  0  0  0  0
   42.3120   84.2770   65.0700 F   0  0  0  0  0  0  0  0  0  0  0  0
   42.6700   82.5670   56.0120 O   0  0  0  0  0  0  0  0  0  0  0  0
   42.4910   83.7210   55.2250 C   0  0  0  0  0  0  0  0  0  0  0  0
   41.9360   84.4540   55.8470 H   0  0  0  0  0  0  0  0  0  0  0  0
   41.7950   83.4740   54.3860 H   0  0  0  0  0  0  0  0  0  0  0  0
   43.7530   84.3100   54.7610 C   0  0  0  0  0  0  0  0  0  0  0  0
   44.8470   84.6170   55.5450 C   0  0  0  0  0  0  0  0  0  0  0  0
   44.7380   84.3920   56.5980 H   0  0  0  0  0  0  0  0  0  0  0  0
   45.9900   85.1740   54.9850 C   0  0  0  0  0  3  0  0  0  0  0  0
   46.0750   85.4400   53.6340 C   0  0  0  0  0  0  0  0  0  0  0  0
   46.9700   85.8770   53.1920 H   0  0  0  0  0  0  0  0  0  0  0  0
   44.9830   85.1380   52.8310 C   0  0  0  0  0  0  0  0  0  0  0  0
   45.0880   85.3600   51.7850 H   0  0  0  0  0  0  0  0  0  0  0  0
   43.8590   84.5870   53.3990 C   0  0  0  0  0  3  0  0  0  0  0  0
  2  1  1  0  0  0  0
  2  3  1  0  0  0  0
  3 12  1  0  0  0  0
  4  3  2  0  0  0  0
  4  9  1  0  0  0  0
  5  4  1  0  0  0  0
  6  8  1  0  0  0  0
  6  5  2  0  0  0  0
  7  6  1  0  0  0  0
  8  2  2  0  0  0  0
 10  5  1  0  0  0  0
 11 16  1  0  0  0  0
 12 13  1  0  0  0  0
 12 11  2  0  0  0  0
 13 14  2  0  0  0  0
 14 15  1  0  0  0  0
 15 19  1  0  0  0  0
 16 15  2  0  0  0  0
 17 11  1  0  0  0  0
 18 13  1  0  0  0  0
 19 22  1  0  0  0  0
 19 21  1  0  0  0  0
 20 19  1  0  0  0  0
 23  8  1  0  0  0  0
 24 25  1  0  0  0  0
 24 23  1  0  0  0  0
 26 24  1  0  0  0  0
 27 24  1  0  0  0  0
 27 28  1  0  0  0  0
 28 29  1  0  0  0  0
 30 28  2  0  0  0  0
 31 30  1  0  0  0  0
 32 31  1  0  0  0  0
 33 35  1  0  0  0  0
 33 31  2  0  0  0  0
 34 33  1  0  0  0  0
 35 27  2  0  0  0  0
M  END
>  <minimizedAffinity>
-4.87059164

>  <minimizedRMSD>
0.62083292

$$$$
