
 OpenBabel03212520183D

 35 37  0  0  0  0  0  0  0  0999 V2000
   43.0680   83.8370   58.6360 Cl  0  0  0  0  0  0  0  0  0  0  0  0
   41.8260   82.6590   58.2760 C   0  0  0  0  0  0  0  0  0  0  0  0
   40.9580   82.1660   59.2380 C   0  0  0  0  0  0  0  0  0  0  0  0
   40.0340   81.2390   58.7860 C   0  0  0  0  0  0  0  0  0  0  0  0
   39.8890   80.7640   57.5050 C   0  0  0  0  0  0  0  0  0  0  0  0
   40.7620   81.2720   56.5870 C   0  0  0  0  0  0  0  0  0  0  0  0
   40.7110   80.7670   54.8990 Cl  0  0  0  0  0  0  0  0  0  0  0  0
   41.7180   82.2090   56.9720 C   0  0  0  0  0  0  0  0  0  0  0  0
   39.3590   80.8660   59.5730 H   0  0  0  0  0  0  0  0  0  0  0  0
   39.1440   80.0440   57.2470 H   0  0  0  0  0  0  0  0  0  0  0  0
   41.9120   82.1430   61.5830 C   0  0  0  0  0  0  0  0  0  0  0  0
   41.0660   82.6240   60.5710 C   0  0  0  0  0  0  0  0  0  0  0  0
   40.2330   83.6780   60.9130 C   0  0  0  0  0  0  0  0  0  0  0  0
   40.2990   84.1550   62.1870 N   0  0  0  0  0  0  0  0  0  0  0  0
   41.1260   83.6610   63.1240 C   0  0  0  0  0  0  0  0  0  0  0  0
   41.9410   82.6410   62.8140 N   0  0  0  0  0  0  0  0  0  0  0  0
   42.5470   81.3130   61.2610 H   0  0  0  0  0  0  0  0  0  0  0  0
   39.5250   84.1470   60.2200 H   0  0  0  0  0  0  0  0  0  0  0  0
   41.0530   84.3160   64.4550 C   0  0  0  0  0  0  0  0  0  0  0  0
   40.7260   85.6530   64.3590 F   0  0  0  0  0  0  0  0  0  0  0  0
   40.0970   83.6910   65.2370 F   0  0  0  0  0  0  0  0  0  0  0  0
   42.2950   84.2920   65.0940 F   0  0  0  0  0  0  0  0  0  0  0  0
   42.5840   82.6990   56.0040 O   0  0  0  0  0  0  0  0  0  0  0  0
   42.3880   83.9090   55.3110 C   0  0  0  0  0  0  0  0  0  0  0  0
   42.9280   84.6970   55.8760 H   0  0  0  0  0  0  0  0  0  0  0  0
   41.3080   84.1910   55.3890 H   0  0  0  0  0  0  0  0  0  0  0  0
   42.8650   83.8680   53.9230 C   0  0  0  0  0  0  0  0  0  0  0  0
   42.2590   83.2130   52.8720 C   0  0  0  0  0  0  0  0  0  0  0  0
   41.3470   82.6860   53.1190 H   0  0  0  0  0  0  0  0  0  0  0  0
   42.8130   83.2490   51.5960 C   0  0  0  0  0  3  0  0  0  0  0  0
   43.9810   83.9370   51.3360 C   0  0  0  0  0  0  0  0  0  0  0  0
   44.4170   83.9670   50.3380 H   0  0  0  0  0  0  0  0  0  0  0  0
   44.6020   84.6020   52.3840 C   0  0  0  0  0  0  0  0  0  0  0  0
   45.5090   85.1260   52.1420 H   0  0  0  0  0  0  0  0  0  0  0  0
   44.0430   84.5570   53.6390 C   0  0  0  0  0  3  0  0  0  0  0  0
  2  1  1  0  0  0  0
  2  3  1  0  0  0  0
  3 12  1  0  0  0  0
  4  3  2  0  0  0  0
  4  9  1  0  0  0  0
  5  4  1  0  0  0  0
  6  8  1  0  0  0  0
  6  5  2  0  0  0  0
  7  6  1  0  0  0  0
  8  2  2  0  0  0  0
 10  5  1  0  0  0  0
 11 16  1  0  0  0  0
 12 13  1  0  0  0  0
 12 11  2  0  0  0  0
 13 14  2  0  0  0  0
 14 15  1  0  0  0  0
 15 19  1  0  0  0  0
 16 15  2  0  0  0  0
 17 11  1  0  0  0  0
 18 13  1  0  0  0  0
 19 22  1  0  0  0  0
 19 21  1  0  0  0  0
 20 19  1  0  0  0  0
 23  8  1  0  0  0  0
 24 26  1  0  0  0  0
 24 25  1  0  0  0  0
 24 23  1  0  0  0  0
 27 24  1  0  0  0  0
 28 29  1  0  0  0  0
 28 27  2  0  0  0  0
 30 28  1  0  0  0  0
 31 30  2  0  0  0  0
 31 33  1  0  0  0  0
 32 31  1  0  0  0  0
 33 35  2  0  0  0  0
 34 33  1  0  0  0  0
 35 27  1  0  0  0  0
M  END
>  <minimizedAffinity>
-4.99903107

>  <minimizedRMSD>
0.92241776

$$$$
