
 OpenBabel03212520183D

 35 37  0  0  0  0  0  0  0  0999 V2000
   43.0480   83.8510   58.6190 Cl  0  0  0  0  0  0  0  0  0  0  0  0
   41.8140   82.6630   58.2650 C   0  0  0  0  0  0  0  0  0  0  0  0
   40.9550   82.1640   59.2310 C   0  0  0  0  0  0  0  0  0  0  0  0
   40.0360   81.2290   58.7840 C   0  0  0  0  0  0  0  0  0  0  0  0
   39.8890   80.7530   57.5030 C   0  0  0  0  0  0  0  0  0  0  0  0
   40.7540   81.2680   56.5810 C   0  0  0  0  0  0  0  0  0  0  0  0
   40.6980   80.7630   54.8940 Cl  0  0  0  0  0  0  0  0  0  0  0  0
   41.7030   82.2120   56.9620 C   0  0  0  0  0  0  0  0  0  0  0  0
   39.3680   80.8510   59.5730 H   0  0  0  0  0  0  0  0  0  0  0  0
   39.1480   80.0270   57.2490 H   0  0  0  0  0  0  0  0  0  0  0  0
   41.9200   82.1470   61.5710 C   0  0  0  0  0  0  0  0  0  0  0  0
   41.0660   82.6220   60.5640 C   0  0  0  0  0  0  0  0  0  0  0  0
   40.2270   83.6700   60.9100 C   0  0  0  0  0  0  0  0  0  0  0  0
   40.2960   84.1470   62.1830 N   0  0  0  0  0  0  0  0  0  0  0  0
   41.1300   83.6600   63.1170 C   0  0  0  0  0  0  0  0  0  0  0  0
   41.9510   82.6460   62.8020 N   0  0  0  0  0  0  0  0  0  0  0  0
   42.5590   81.3220   61.2470 H   0  0  0  0  0  0  0  0  0  0  0  0
   39.5120   84.1340   60.2190 H   0  0  0  0  0  0  0  0  0  0  0  0
   41.0580   84.3140   64.4470 C   0  0  0  0  0  0  0  0  0  0  0  0
   40.7350   85.6520   64.3520 F   0  0  0  0  0  0  0  0  0  0  0  0
   40.1010   83.6920   65.2290 F   0  0  0  0  0  0  0  0  0  0  0  0
   42.3000   84.2870   65.0870 F   0  0  0  0  0  0  0  0  0  0  0  0
   42.5610   82.7090   55.9890 O   0  0  0  0  0  0  0  0  0  0  0  0
   42.3570   83.9230   55.3050 C   0  0  0  0  0  0  0  0  0  0  0  0
   42.7960   84.7260   55.9340 H   0  0  0  0  0  0  0  0  0  0  0  0
   41.2610   84.1410   55.2880 H   0  0  0  0  0  0  0  0  0  0  0  0
   42.9610   83.9450   53.9670 C   0  0  0  0  0  0  0  0  0  0  0  0
   44.1240   84.5930   53.6080 C   0  0  0  0  0  0  0  0  0  0  0  0
   44.6200   85.1310   54.4070 H   0  0  0  0  0  0  0  0  0  0  0  0
   44.5960   84.5390   52.3010 C   0  0  0  0  0  3  0  0  0  0  0  0
   43.9230   83.8390   51.3210 C   0  0  0  0  0  0  0  0  0  0  0  0
   44.2900   83.7940   50.2960 H   0  0  0  0  0  0  0  0  0  0  0  0
   42.7510   83.1800   51.6670 C   0  0  0  0  0  0  0  0  0  0  0  0
   42.2570   82.6470   50.8760 H   0  0  0  0  0  0  0  0  0  0  0  0
   42.2980   83.2430   52.9630 C   0  0  0  0  0  3  0  0  0  0  0  0
  2  1  1  0  0  0  0
  2  3  1  0  0  0  0
  3 12  1  0  0  0  0
  4  3  2  0  0  0  0
  4  9  1  0  0  0  0
  5  4  1  0  0  0  0
  6  8  1  0  0  0  0
  6  5  2  0  0  0  0
  7  6  1  0  0  0  0
  8  2  2  0  0  0  0
 10  5  1  0  0  0  0
 11 16  1  0  0  0  0
 12 13  1  0  0  0  0
 12 11  2  0  0  0  0
 13 14  2  0  0  0  0
 14 15  1  0  0  0  0
 15 19  1  0  0  0  0
 16 15  2  0  0  0  0
 17 11  1  0  0  0  0
 18 13  1  0  0  0  0
 19 22  1  0  0  0  0
 19 21  1  0  0  0  0
 20 19  1  0  0  0  0
 23  8  1  0  0  0  0
 24 25  1  0  0  0  0
 24 23  1  0  0  0  0
 26 24  1  0  0  0  0
 27 24  1  0  0  0  0
 28 27  1  0  0  0  0
 28 29  1  0  0  0  0
 30 28  2  0  0  0  0
 31 33  2  0  0  0  0
 31 30  1  0  0  0  0
 32 31  1  0  0  0  0
 33 35  1  0  0  0  0
 34 33  1  0  0  0  0
 35 27  2  0  0  0  0
M  END
>  <minimizedAffinity>
-4.99660063

>  <minimizedRMSD>
0.807636082

$$$$
