
 OpenBabel03212520183D

 35 37  0  0  0  0  0  0  0  0999 V2000
   43.0640   83.8440   58.6430 Cl  0  0  0  0  0  0  0  0  0  0  0  0
   41.8250   82.6640   58.2820 C   0  0  0  0  0  0  0  0  0  0  0  0
   40.9580   82.1690   59.2440 C   0  0  0  0  0  0  0  0  0  0  0  0
   40.0360   81.2400   58.7920 C   0  0  0  0  0  0  0  0  0  0  0  0
   39.8930   80.7650   57.5100 C   0  0  0  0  0  0  0  0  0  0  0  0
   40.7650   81.2750   56.5930 C   0  0  0  0  0  0  0  0  0  0  0  0
   40.7150   80.7700   54.9050 Cl  0  0  0  0  0  0  0  0  0  0  0  0
   41.7180   82.2140   56.9780 C   0  0  0  0  0  0  0  0  0  0  0  0
   39.3620   80.8650   59.5780 H   0  0  0  0  0  0  0  0  0  0  0  0
   39.1490   80.0430   57.2520 H   0  0  0  0  0  0  0  0  0  0  0  0
   41.9100   82.1450   61.5890 C   0  0  0  0  0  0  0  0  0  0  0  0
   41.0650   82.6260   60.5770 C   0  0  0  0  0  0  0  0  0  0  0  0
   40.2310   83.6790   60.9190 C   0  0  0  0  0  0  0  0  0  0  0  0
   40.2960   84.1560   62.1930 N   0  0  0  0  0  0  0  0  0  0  0  0
   41.1220   83.6630   63.1310 C   0  0  0  0  0  0  0  0  0  0  0  0
   41.9380   82.6440   62.8200 N   0  0  0  0  0  0  0  0  0  0  0  0
   42.5460   81.3160   61.2680 H   0  0  0  0  0  0  0  0  0  0  0  0
   39.5230   84.1480   60.2250 H   0  0  0  0  0  0  0  0  0  0  0  0
   41.0470   84.3170   64.4610 C   0  0  0  0  0  0  0  0  0  0  0  0
   40.7190   85.6540   64.3660 F   0  0  0  0  0  0  0  0  0  0  0  0
   40.0930   83.6910   65.2430 F   0  0  0  0  0  0  0  0  0  0  0  0
   42.2890   84.2950   65.1010 F   0  0  0  0  0  0  0  0  0  0  0  0
   42.5840   82.7060   56.0100 O   0  0  0  0  0  0  0  0  0  0  0  0
   42.3790   83.9100   55.3100 C   0  0  0  0  0  0  0  0  0  0  0  0
   42.9050   84.7070   55.8750 H   0  0  0  0  0  0  0  0  0  0  0  0
   41.2960   84.1800   55.3770 H   0  0  0  0  0  0  0  0  0  0  0  0
   42.8680   83.8680   53.9260 C   0  0  0  0  0  0  0  0  0  0  0  0
   42.2670   83.2180   52.8680 C   0  0  0  0  0  0  0  0  0  0  0  0
   41.3480   82.6980   53.1070 H   0  0  0  0  0  0  0  0  0  0  0  0
   42.8310   83.2520   51.5970 C   0  0  0  0  0  3  0  0  0  0  0  0
   44.0060   83.9320   51.3490 C   0  0  0  0  0  0  0  0  0  0  0  0
   44.4510   83.9600   50.3550 H   0  0  0  0  0  0  0  0  0  0  0  0
   44.6230   84.5900   52.4020 C   0  0  0  0  0  0  0  0  0  0  0  0
   45.5360   85.1080   52.1690 H   0  0  0  0  0  0  0  0  0  0  0  0
   44.0540   84.5480   53.6530 C   0  0  0  0  0  3  0  0  0  0  0  0
  2  1  1  0  0  0  0
  2  3  1  0  0  0  0
  3 12  1  0  0  0  0
  4  3  2  0  0  0  0
  4  9  1  0  0  0  0
  5  4  1  0  0  0  0
  6  8  1  0  0  0  0
  6  5  2  0  0  0  0
  7  6  1  0  0  0  0
  8  2  2  0  0  0  0
 10  5  1  0  0  0  0
 11 16  1  0  0  0  0
 12 13  1  0  0  0  0
 12 11  2  0  0  0  0
 13 14  2  0  0  0  0
 14 15  1  0  0  0  0
 15 19  1  0  0  0  0
 16 15  2  0  0  0  0
 17 11  1  0  0  0  0
 18 13  1  0  0  0  0
 19 22  1  0  0  0  0
 19 21  1  0  0  0  0
 20 19  1  0  0  0  0
 23  8  1  0  0  0  0
 24 26  1  0  0  0  0
 24 25  1  0  0  0  0
 24 23  1  0  0  0  0
 27 24  1  0  0  0  0
 28 29  1  0  0  0  0
 28 27  2  0  0  0  0
 30 28  1  0  0  0  0
 31 30  2  0  0  0  0
 31 33  1  0  0  0  0
 32 31  1  0  0  0  0
 33 35  2  0  0  0  0
 34 33  1  0  0  0  0
 35 27  1  0  0  0  0
M  END
>  <minimizedAffinity>
-4.99366903

>  <minimizedRMSD>
0.96912241

$$$$
