
 OpenBabel03212520183D

 35 37  0  0  0  0  0  0  0  0999 V2000
   43.2690   83.7590   58.6030 Cl  0  0  0  0  0  0  0  0  0  0  0  0
   41.9560   82.6800   58.1860 C   0  0  0  0  0  0  0  0  0  0  0  0
   41.0230   82.2410   59.1130 C   0  0  0  0  0  0  0  0  0  0  0  0
   40.0490   81.3900   58.6180 C   0  0  0  0  0  0  0  0  0  0  0  0
   39.9120   80.9430   57.3270 C   0  0  0  0  0  0  0  0  0  0  0  0
   40.8500   81.3970   56.4440 C   0  0  0  0  0  0  0  0  0  0  0  0
   40.8160   80.9180   54.7480 Cl  0  0  0  0  0  0  0  0  0  0  0  0
   41.8580   82.2560   56.8730 C   0  0  0  0  0  0  0  0  0  0  0  0
   39.3230   81.0580   59.3770 H   0  0  0  0  0  0  0  0  0  0  0  0
   39.1250   80.2830   57.0350 H   0  0  0  0  0  0  0  0  0  0  0  0
   41.9370   82.1510   61.4720 C   0  0  0  0  0  0  0  0  0  0  0  0
   41.1210   82.6730   60.4550 C   0  0  0  0  0  0  0  0  0  0  0  0
   40.3120   83.7430   60.8020 C   0  0  0  0  0  0  0  0  0  0  0  0
   40.3690   84.1960   62.0850 N   0  0  0  0  0  0  0  0  0  0  0  0
   41.1670   83.6640   63.0270 C   0  0  0  0  0  0  0  0  0  0  0  0
   41.9590   82.6280   62.7120 N   0  0  0  0  0  0  0  0  0  0  0  0
   42.5540   81.3100   61.1470 H   0  0  0  0  0  0  0  0  0  0  0  0
   39.6290   84.2430   60.1050 H   0  0  0  0  0  0  0  0  0  0  0  0
   41.0880   84.2980   64.3670 C   0  0  0  0  0  0  0  0  0  0  0  0
   40.7650   85.6370   64.2910 F   0  0  0  0  0  0  0  0  0  0  0  0
   40.1280   83.6630   65.1350 F   0  0  0  0  0  0  0  0  0  0  0  0
   42.3270   84.2620   65.0120 F   0  0  0  0  0  0  0  0  0  0  0  0
   42.7890   82.6920   55.9400 O   0  0  0  0  0  0  0  0  0  0  0  0
   42.6120   83.8240   55.1210 C   0  0  0  0  0  0  0  0  0  0  0  0
   42.8880   84.7110   55.7300 H   0  0  0  0  0  0  0  0  0  0  0  0
   41.5190   83.9470   54.9170 H   0  0  0  0  0  0  0  0  0  0  0  0
   43.4180   83.7860   53.8950 C   0  0  0  0  0  0  0  0  0  0  0  0
   43.9950   84.8700   53.2650 C   0  0  0  0  0  0  0  0  0  0  0  0
   43.8230   85.8270   53.7390 H   0  0  0  0  0  0  0  0  0  0  0  0
   44.7400   84.7030   52.1020 C   0  0  0  0  0  3  0  0  0  0  0  0
   44.9290   83.4570   51.5390 C   0  0  0  0  0  0  0  0  0  0  0  0
   45.5110   83.3240   50.6280 H   0  0  0  0  0  0  0  0  0  0  0  0
   44.3540   82.3570   52.1610 C   0  0  0  0  0  0  0  0  0  0  0  0
   44.5230   81.4060   51.6930 H   0  0  0  0  0  0  0  0  0  0  0  0
   43.6210   82.5380   53.3090 C   0  0  0  0  0  3  0  0  0  0  0  0
  2  1  1  0  0  0  0
  2  3  1  0  0  0  0
  3 12  1  0  0  0  0
  4  3  2  0  0  0  0
  4  9  1  0  0  0  0
  5  4  1  0  0  0  0
  6  8  1  0  0  0  0
  6  5  2  0  0  0  0
  7  6  1  0  0  0  0
  8  2  2  0  0  0  0
 10  5  1  0  0  0  0
 11 16  1  0  0  0  0
 12 13  1  0  0  0  0
 12 11  2  0  0  0  0
 13 14  2  0  0  0  0
 14 15  1  0  0  0  0
 15 19  1  0  0  0  0
 16 15  2  0  0  0  0
 17 11  1  0  0  0  0
 18 13  1  0  0  0  0
 19 22  1  0  0  0  0
 19 21  1  0  0  0  0
 20 19  1  0  0  0  0
 23  8  1  0  0  0  0
 24 25  1  0  0  0  0
 24 23  1  0  0  0  0
 26 24  1  0  0  0  0
 27 24  1  0  0  0  0
 28 29  1  0  0  0  0
 28 27  2  0  0  0  0
 30 28  1  0  0  0  0
 31 30  2  0  0  0  0
 31 33  1  0  0  0  0
 32 31  1  0  0  0  0
 33 35  2  0  0  0  0
 34 33  1  0  0  0  0
 35 27  1  0  0  0  0
M  END
>  <minimizedAffinity>
-4.78636312

>  <minimizedRMSD>
0.647644877

$$$$
