
 OpenBabel03212520183D

 35 37  0  0  0  0  0  0  0  0999 V2000
   43.0630   83.8410   58.6360 Cl  0  0  0  0  0  0  0  0  0  0  0  0
   41.8230   82.6610   58.2770 C   0  0  0  0  0  0  0  0  0  0  0  0
   40.9570   82.1660   59.2400 C   0  0  0  0  0  0  0  0  0  0  0  0
   40.0340   81.2380   58.7880 C   0  0  0  0  0  0  0  0  0  0  0  0
   39.8900   80.7630   57.5080 C   0  0  0  0  0  0  0  0  0  0  0  0
   40.7610   81.2720   56.5890 C   0  0  0  0  0  0  0  0  0  0  0  0
   40.7100   80.7670   54.9010 Cl  0  0  0  0  0  0  0  0  0  0  0  0
   41.7150   82.2110   56.9730 C   0  0  0  0  0  0  0  0  0  0  0  0
   39.3600   80.8630   59.5750 H   0  0  0  0  0  0  0  0  0  0  0  0
   39.1460   80.0410   57.2500 H   0  0  0  0  0  0  0  0  0  0  0  0
   41.9120   82.1440   61.5840 C   0  0  0  0  0  0  0  0  0  0  0  0
   41.0650   82.6240   60.5730 C   0  0  0  0  0  0  0  0  0  0  0  0
   40.2310   83.6770   60.9150 C   0  0  0  0  0  0  0  0  0  0  0  0
   40.2970   84.1540   62.1890 N   0  0  0  0  0  0  0  0  0  0  0  0
   41.1250   83.6610   63.1260 C   0  0  0  0  0  0  0  0  0  0  0  0
   41.9420   82.6430   62.8150 N   0  0  0  0  0  0  0  0  0  0  0  0
   42.5480   81.3150   61.2620 H   0  0  0  0  0  0  0  0  0  0  0  0
   39.5220   84.1450   60.2220 H   0  0  0  0  0  0  0  0  0  0  0  0
   41.0510   84.3160   64.4560 C   0  0  0  0  0  0  0  0  0  0  0  0
   40.7250   85.6530   64.3610 F   0  0  0  0  0  0  0  0  0  0  0  0
   40.0950   83.6920   65.2380 F   0  0  0  0  0  0  0  0  0  0  0  0
   42.2930   84.2920   65.0960 F   0  0  0  0  0  0  0  0  0  0  0  0
   42.5800   82.7020   56.0040 O   0  0  0  0  0  0  0  0  0  0  0  0
   42.3760   83.9070   55.3050 C   0  0  0  0  0  0  0  0  0  0  0  0
   42.9020   84.7030   55.8720 H   0  0  0  0  0  0  0  0  0  0  0  0
   41.2930   84.1770   55.3720 H   0  0  0  0  0  0  0  0  0  0  0  0
   42.8660   83.8660   53.9220 C   0  0  0  0  0  0  0  0  0  0  0  0
   42.2660   83.2170   52.8630 C   0  0  0  0  0  0  0  0  0  0  0  0
   41.3470   82.6960   53.1010 H   0  0  0  0  0  0  0  0  0  0  0  0
   42.8320   83.2530   51.5930 C   0  0  0  0  0  3  0  0  0  0  0  0
   44.0060   83.9340   51.3460 C   0  0  0  0  0  0  0  0  0  0  0  0
   44.4520   83.9630   50.3510 H   0  0  0  0  0  0  0  0  0  0  0  0
   44.6220   84.5920   52.4000 C   0  0  0  0  0  0  0  0  0  0  0  0
   45.5340   85.1110   52.1680 H   0  0  0  0  0  0  0  0  0  0  0  0
   44.0510   84.5480   53.6510 C   0  0  0  0  0  3  0  0  0  0  0  0
  2  1  1  0  0  0  0
  2  3  1  0  0  0  0
  3 12  1  0  0  0  0
  4  3  2  0  0  0  0
  4  9  1  0  0  0  0
  5  4  1  0  0  0  0
  6  8  1  0  0  0  0
  6  5  2  0  0  0  0
  7  6  1  0  0  0  0
  8  2  2  0  0  0  0
 10  5  1  0  0  0  0
 11 16  1  0  0  0  0
 12 13  1  0  0  0  0
 12 11  2  0  0  0  0
 13 14  2  0  0  0  0
 14 15  1  0  0  0  0
 15 19  1  0  0  0  0
 16 15  2  0  0  0  0
 17 11  1  0  0  0  0
 18 13  1  0  0  0  0
 19 22  1  0  0  0  0
 19 21  1  0  0  0  0
 20 19  1  0  0  0  0
 23  8  1  0  0  0  0
 24 26  1  0  0  0  0
 24 25  1  0  0  0  0
 24 23  1  0  0  0  0
 27 24  1  0  0  0  0
 28 29  1  0  0  0  0
 28 27  2  0  0  0  0
 30 28  1  0  0  0  0
 31 30  2  0  0  0  0
 31 33  1  0  0  0  0
 32 31  1  0  0  0  0
 33 35  2  0  0  0  0
 34 33  1  0  0  0  0
 35 27  1  0  0  0  0
M  END
>  <minimizedAffinity>
-4.99499273

>  <minimizedRMSD>
0.898867309

$$$$
