
 OpenBabel03212520183D

 35 37  0  0  0  0  0  0  0  0999 V2000
   43.1410   83.7440   58.6370 Cl  0  0  0  0  0  0  0  0  0  0  0  0
   41.8610   82.6110   58.2640 C   0  0  0  0  0  0  0  0  0  0  0  0
   40.9630   82.1540   59.2180 C   0  0  0  0  0  0  0  0  0  0  0  0
   40.0110   81.2610   58.7570 C   0  0  0  0  0  0  0  0  0  0  0  0
   39.8650   80.7880   57.4760 C   0  0  0  0  0  0  0  0  0  0  0  0
   40.7670   81.2600   56.5670 C   0  0  0  0  0  0  0  0  0  0  0  0
   40.7170   80.7520   54.8800 Cl  0  0  0  0  0  0  0  0  0  0  0  0
   41.7520   82.1620   56.9610 C   0  0  0  0  0  0  0  0  0  0  0  0
   39.3130   80.9160   59.5360 H   0  0  0  0  0  0  0  0  0  0  0  0
   39.0960   80.0950   57.2110 H   0  0  0  0  0  0  0  0  0  0  0  0
   41.9090   82.1220   61.5650 C   0  0  0  0  0  0  0  0  0  0  0  0
   41.0720   82.6120   60.5500 C   0  0  0  0  0  0  0  0  0  0  0  0
   40.2510   83.6760   60.8890 C   0  0  0  0  0  0  0  0  0  0  0  0
   40.3190   84.1540   62.1620 N   0  0  0  0  0  0  0  0  0  0  0  0
   41.1370   83.6510   63.1030 C   0  0  0  0  0  0  0  0  0  0  0  0
   41.9400   82.6210   62.7960 N   0  0  0  0  0  0  0  0  0  0  0  0
   42.5350   81.2840   61.2470 H   0  0  0  0  0  0  0  0  0  0  0  0
   39.5510   84.1530   60.1920 H   0  0  0  0  0  0  0  0  0  0  0  0
   41.0660   84.3080   64.4320 C   0  0  0  0  0  0  0  0  0  0  0  0
   40.7450   85.6460   64.3350 F   0  0  0  0  0  0  0  0  0  0  0  0
   40.1080   83.6880   65.2160 F   0  0  0  0  0  0  0  0  0  0  0  0
   42.3080   84.2800   65.0720 F   0  0  0  0  0  0  0  0  0  0  0  0
   42.6470   82.6160   56.0020 O   0  0  0  0  0  0  0  0  0  0  0  0
   42.4320   83.7520   55.1980 C   0  0  0  0  0  0  0  0  0  0  0  0
   41.9400   84.5130   55.8390 H   0  0  0  0  0  0  0  0  0  0  0  0
   41.6690   83.4970   54.4210 H   0  0  0  0  0  0  0  0  0  0  0  0
   43.6670   84.3000   54.6240 C   0  0  0  0  0  0  0  0  0  0  0  0
   43.8850   84.6010   53.2960 C   0  0  0  0  0  0  0  0  0  0  0  0
   43.0500   84.4060   52.6340 H   0  0  0  0  0  0  0  0  0  0  0  0
   45.1030   85.1190   52.8730 C   0  0  0  0  0  3  0  0  0  0  0  0
   46.1350   85.3490   53.7610 C   0  0  0  0  0  0  0  0  0  0  0  0
   47.0920   85.7550   53.4320 H   0  0  0  0  0  0  0  0  0  0  0  0
   45.9320   85.0510   55.1000 C   0  0  0  0  0  0  0  0  0  0  0  0
   46.7580   85.2440   55.7600 H   0  0  0  0  0  0  0  0  0  0  0  0
   44.7210   84.5410   55.5030 C   0  0  0  0  0  3  0  0  0  0  0  0
  2  1  1  0  0  0  0
  2  3  1  0  0  0  0
  3 12  1  0  0  0  0
  4  3  2  0  0  0  0
  4  9  1  0  0  0  0
  5  4  1  0  0  0  0
  6  8  1  0  0  0  0
  6  5  2  0  0  0  0
  7  6  1  0  0  0  0
  8  2  2  0  0  0  0
 10  5  1  0  0  0  0
 11 16  1  0  0  0  0
 12 13  1  0  0  0  0
 12 11  2  0  0  0  0
 13 14  2  0  0  0  0
 14 15  1  0  0  0  0
 15 19  1  0  0  0  0
 16 15  2  0  0  0  0
 17 11  1  0  0  0  0
 18 13  1  0  0  0  0
 19 22  1  0  0  0  0
 19 21  1  0  0  0  0
 20 19  1  0  0  0  0
 23  8  1  0  0  0  0
 24 25  1  0  0  0  0
 24 23  1  0  0  0  0
 26 24  1  0  0  0  0
 27 24  1  0  0  0  0
 27 35  1  0  0  0  0
 28 27  2  0  0  0  0
 29 28  1  0  0  0  0
 30 28  1  0  0  0  0
 30 31  2  0  0  0  0
 31 33  1  0  0  0  0
 32 31  1  0  0  0  0
 33 35  2  0  0  0  0
 33 34  1  0  0  0  0
M  END
>  <minimizedAffinity>
-4.88270569

>  <minimizedRMSD>
0.470256686

$$$$
