
 OpenBabel03212520183D

 35 37  0  0  0  0  0  0  0  0999 V2000
   43.1430   83.7420   58.6380 Cl  0  0  0  0  0  0  0  0  0  0  0  0
   41.8620   82.6110   58.2650 C   0  0  0  0  0  0  0  0  0  0  0  0
   40.9630   82.1540   59.2180 C   0  0  0  0  0  0  0  0  0  0  0  0
   40.0110   81.2610   58.7570 C   0  0  0  0  0  0  0  0  0  0  0  0
   39.8650   80.7880   57.4750 C   0  0  0  0  0  0  0  0  0  0  0  0
   40.7670   81.2600   56.5670 C   0  0  0  0  0  0  0  0  0  0  0  0
   40.7180   80.7520   54.8800 Cl  0  0  0  0  0  0  0  0  0  0  0  0
   41.7530   82.1610   56.9610 C   0  0  0  0  0  0  0  0  0  0  0  0
   39.3120   80.9160   59.5360 H   0  0  0  0  0  0  0  0  0  0  0  0
   39.0960   80.0960   57.2100 H   0  0  0  0  0  0  0  0  0  0  0  0
   41.9070   82.1190   61.5670 C   0  0  0  0  0  0  0  0  0  0  0  0
   41.0720   82.6110   60.5500 C   0  0  0  0  0  0  0  0  0  0  0  0
   40.2540   83.6780   60.8880 C   0  0  0  0  0  0  0  0  0  0  0  0
   40.3210   84.1550   62.1610 N   0  0  0  0  0  0  0  0  0  0  0  0
   41.1370   83.6500   63.1030 C   0  0  0  0  0  0  0  0  0  0  0  0
   41.9380   82.6180   62.7970 N   0  0  0  0  0  0  0  0  0  0  0  0
   42.5300   81.2790   61.2490 H   0  0  0  0  0  0  0  0  0  0  0  0
   39.5560   84.1570   60.1910 H   0  0  0  0  0  0  0  0  0  0  0  0
   41.0660   84.3070   64.4330 C   0  0  0  0  0  0  0  0  0  0  0  0
   40.7450   85.6460   64.3350 F   0  0  0  0  0  0  0  0  0  0  0  0
   40.1100   83.6880   65.2170 F   0  0  0  0  0  0  0  0  0  0  0  0
   42.3090   84.2800   65.0710 F   0  0  0  0  0  0  0  0  0  0  0  0
   42.6490   82.6150   56.0020 O   0  0  0  0  0  0  0  0  0  0  0  0
   42.4330   83.7490   55.1970 C   0  0  0  0  0  0  0  0  0  0  0  0
   41.9370   84.5100   55.8350 H   0  0  0  0  0  0  0  0  0  0  0  0
   41.6730   83.4910   54.4170 H   0  0  0  0  0  0  0  0  0  0  0  0
   43.6680   84.3000   54.6260 C   0  0  0  0  0  0  0  0  0  0  0  0
   43.8860   84.6060   53.2990 C   0  0  0  0  0  0  0  0  0  0  0  0
   43.0530   84.4130   52.6350 H   0  0  0  0  0  0  0  0  0  0  0  0
   45.1060   85.1250   52.8790 C   0  0  0  0  0  3  0  0  0  0  0  0
   46.1370   85.3530   53.7690 C   0  0  0  0  0  0  0  0  0  0  0  0
   47.0940   85.7600   53.4420 H   0  0  0  0  0  0  0  0  0  0  0  0
   45.9330   85.0500   55.1070 C   0  0  0  0  0  0  0  0  0  0  0  0
   46.7590   85.2410   55.7680 H   0  0  0  0  0  0  0  0  0  0  0  0
   44.7200   84.5380   55.5070 C   0  0  0  0  0  3  0  0  0  0  0  0
  2  1  1  0  0  0  0
  2  3  1  0  0  0  0
  3 12  1  0  0  0  0
  4  3  2  0  0  0  0
  4  9  1  0  0  0  0
  5  4  1  0  0  0  0
  6  8  1  0  0  0  0
  6  5  2  0  0  0  0
  7  6  1  0  0  0  0
  8  2  2  0  0  0  0
 10  5  1  0  0  0  0
 11 16  1  0  0  0  0
 12 13  1  0  0  0  0
 12 11  2  0  0  0  0
 13 14  2  0  0  0  0
 14 15  1  0  0  0  0
 15 19  1  0  0  0  0
 16 15  2  0  0  0  0
 17 11  1  0  0  0  0
 18 13  1  0  0  0  0
 19 22  1  0  0  0  0
 19 21  1  0  0  0  0
 20 19  1  0  0  0  0
 23  8  1  0  0  0  0
 24 25  1  0  0  0  0
 24 23  1  0  0  0  0
 26 24  1  0  0  0  0
 27 24  1  0  0  0  0
 27 35  1  0  0  0  0
 28 27  2  0  0  0  0
 29 28  1  0  0  0  0
 30 28  1  0  0  0  0
 30 31  2  0  0  0  0
 31 33  1  0  0  0  0
 32 31  1  0  0  0  0
 33 35  2  0  0  0  0
 33 34  1  0  0  0  0
M  END
>  <minimizedAffinity>
-4.88309193

>  <minimizedRMSD>
0.524606705

$$$$
