
 OpenBabel03212520193D

 35 37  0  0  0  0  0  0  0  0999 V2000
   42.3160   72.5730   62.5170 Cl  0  0  0  0  0  0  0  0  0  0  0  0
   41.8440   71.7640   61.0400 C   0  0  0  0  0  0  0  0  0  0  0  0
   41.2390   72.4260   59.9820 C   0  0  0  0  0  0  0  0  0  0  0  0
   40.9300   71.6370   58.8870 C   0  0  0  0  0  0  0  0  0  0  0  0
   41.1550   70.2900   58.7410 C   0  0  0  0  0  0  0  0  0  0  0  0
   41.7510   69.6740   59.8030 C   0  0  0  0  0  0  0  0  0  0  0  0
   42.1110   67.9490   59.7760 Cl  0  0  0  0  0  0  0  0  0  0  0  0
   42.0910   70.4060   60.9370 C   0  0  0  0  0  0  0  0  0  0  0  0
   40.4500   72.1900   58.0640 H   0  0  0  0  0  0  0  0  0  0  0  0
   40.8810   69.7620   57.8540 H   0  0  0  0  0  0  0  0  0  0  0  0
   39.8960   74.4470   60.7010 C   0  0  0  0  0  0  0  0  0  0  0  0
   40.9850   73.8120   60.0840 C   0  0  0  0  0  0  0  0  0  0  0  0
   41.9340   74.6400   59.5040 C   0  0  0  0  0  0  0  0  0  0  0  0
   41.7350   75.9860   59.5750 N   0  0  0  0  0  0  0  0  0  0  0  0
   40.6730   76.5500   60.1770 C   0  0  0  0  0  0  0  0  0  0  0  0
   39.7440   75.7660   60.7450 N   0  0  0  0  0  0  0  0  0  0  0  0
   39.1780   73.7500   61.1420 H   0  0  0  0  0  0  0  0  0  0  0  0
   42.8320   74.2750   58.9920 H   0  0  0  0  0  0  0  0  0  0  0  0
   40.6340   78.0340   60.1510 C   0  0  0  0  0  0  0  0  0  0  0  0
   41.8380   78.5790   59.7550 F   0  0  0  0  0  0  0  0  0  0  0  0
   39.6540   78.4660   59.2750 F   0  0  0  0  0  0  0  0  0  0  0  0
   40.4060   78.5510   61.4280 F   0  0  0  0  0  0  0  0  0  0  0  0
   42.6960   69.7380   61.9930 O   0  0  0  0  0  0  0  0  0  0  0  0
   42.0600   69.4610   63.2180 C   0  0  0  0  0  0  0  0  0  0  0  0
   41.2900   70.2460   63.3680 H   0  0  0  0  0  0  0  0  0  0  0  0
   42.7960   69.6210   64.0450 H   0  0  0  0  0  0  0  0  0  0  0  0
   41.4380   68.1320   63.2620 C   0  0  0  0  0  0  0  0  0  0  0  0
   42.0420   66.9380   62.9280 C   0  0  0  0  0  0  0  0  0  0  0  0
   43.0720   67.0150   62.6050 H   0  0  0  0  0  0  0  0  0  0  0  0
   41.3430   65.7380   63.0120 C   0  0  0  0  0  3  0  0  0  0  0  0
   40.0290   65.6970   63.4300 C   0  0  0  0  0  0  0  0  0  0  0  0
   39.4790   64.7590   63.4970 H   0  0  0  0  0  0  0  0  0  0  0  0
   39.4070   66.8900   63.7710 C   0  0  0  0  0  0  0  0  0  0  0  0
   38.3840   66.8170   64.0930 H   0  0  0  0  0  0  0  0  0  0  0  0
   40.1110   68.0680   63.6830 C   0  0  0  0  0  3  0  0  0  0  0  0
  2  1  1  0  0  0  0
  3 12  1  0  0  0  0
  3  2  2  0  0  0  0
  4  3  1  0  0  0  0
  5  4  2  0  0  0  0
  5  6  1  0  0  0  0
  6  8  2  0  0  0  0
  7  6  1  0  0  0  0
  8  2  1  0  0  0  0
  8 23  1  0  0  0  0
  9  4  1  0  0  0  0
 10  5  1  0  0  0  0
 11 16  1  0  0  0  0
 11 17  1  0  0  0  0
 12 11  2  0  0  0  0
 13 14  2  0  0  0  0
 13 12  1  0  0  0  0
 14 15  1  0  0  0  0
 15 16  2  0  0  0  0
 18 13  1  0  0  0  0
 19 15  1  0  0  0  0
 19 22  1  0  0  0  0
 20 19  1  0  0  0  0
 21 19  1  0  0  0  0
 23 24  1  0  0  0  0
 24 27  1  0  0  0  0
 24 25  1  0  0  0  0
 24 26  1  0  0  0  0
 27 35  1  0  0  0  0
 28 30  1  0  0  0  0
 28 27  2  0  0  0  0
 29 28  1  0  0  0  0
 30 31  2  0  0  0  0
 31 32  1  0  0  0  0
 31 33  1  0  0  0  0
 33 34  1  0  0  0  0
 35 33  2  0  0  0  0
M  END
>  <minimizedAffinity>
-6.76531219

$$$$

 OpenBabel03212520193D

 35 37  0  0  0  0  0  0  0  0999 V2000
   39.5870   73.0770   61.4060 Cl  0  0  0  0  0  0  0  0  0  0  0  0
   41.1630   73.4330   60.7350 C   0  0  0  0  0  0  0  0  0  0  0  0
   42.2410   72.5690   60.8520 C   0  0  0  0  0  0  0  0  0  0  0  0
   43.4170   73.0030   60.2640 C   0  0  0  0  0  0  0  0  0  0  0  0
   43.6240   74.1810   59.5880 C   0  0  0  0  0  0  0  0  0  0  0  0
   42.5400   75.0050   59.4950 C   0  0  0  0  0  0  0  0  0  0  0  0
   42.6380   76.5540   58.6590 Cl  0  0  0  0  0  0  0  0  0  0  0  0
   41.3250   74.6310   60.0620 C   0  0  0  0  0  0  0  0  0  0  0  0
   44.2550   72.2970   60.3740 H   0  0  0  0  0  0  0  0  0  0  0  0
   44.5720   74.4340   59.1650 H   0  0  0  0  0  0  0  0  0  0  0  0
   41.9290   71.1430   62.9200 C   0  0  0  0  0  0  0  0  0  0  0  0
   42.0780   71.3450   61.5390 C   0  0  0  0  0  0  0  0  0  0  0  0
   42.0640   70.2080   60.7450 C   0  0  0  0  0  0  0  0  0  0  0  0
   41.9100   69.0030   61.3600 N   0  0  0  0  0  0  0  0  0  0  0  0
   41.7710   68.8580   62.6890 C   0  0  0  0  0  0  0  0  0  0  0  0
   41.7820   69.9450   63.4750 N   0  0  0  0  0  0  0  0  0  0  0  0
   41.9470   72.0700   63.5000 H   0  0  0  0  0  0  0  0  0  0  0  0
   42.1710   70.2250   59.6540 H   0  0  0  0  0  0  0  0  0  0  0  0
   41.6150   67.4620   63.1690 C   0  0  0  0  0  0  0  0  0  0  0  0
   42.8260   66.8120   63.2810 F   0  0  0  0  0  0  0  0  0  0  0  0
   41.0030   67.4550   64.4110 F   0  0  0  0  0  0  0  0  0  0  0  0
   40.8770   66.6990   62.2610 F   0  0  0  0  0  0  0  0  0  0  0  0
   40.2490   75.5010   59.9410 O   0  0  0  0  0  0  0  0  0  0  0  0
   39.1970   75.3280   59.0210 C   0  0  0  0  0  0  0  0  0  0  0  0
   38.2930   75.0640   59.6090 H   0  0  0  0  0  0  0  0  0  0  0  0
   39.4110   74.4210   58.4030 H   0  0  0  0  0  0  0  0  0  0  0  0
   38.9370   76.5220   58.2070 C   0  0  0  0  0  0  0  0  0  0  0  0
   38.2570   76.5570   57.0070 C   0  0  0  0  0  0  0  0  0  0  0  0
   37.8910   75.6010   56.6540 H   0  0  0  0  0  0  0  0  0  0  0  0
   38.0740   77.7560   56.3270 C   0  0  0  0  0  3  0  0  0  0  0  0
   38.5630   78.9480   56.8220 C   0  0  0  0  0  0  0  0  0  0  0  0
   38.4220   79.8890   56.2920 H   0  0  0  0  0  0  0  0  0  0  0  0
   39.2490   78.9290   58.0290 C   0  0  0  0  0  0  0  0  0  0  0  0
   39.6140   79.8770   58.3820 H   0  0  0  0  0  0  0  0  0  0  0  0
   39.4220   77.7360   58.6890 C   0  0  0  0  0  3  0  0  0  0  0  0
  2  3  1  0  0  0  0
  2  1  1  0  0  0  0
  3 12  1  0  0  0  0
  4  9  1  0  0  0  0
  4  3  2  0  0  0  0
  5  4  1  0  0  0  0
  6  5  2  0  0  0  0
  6  8  1  0  0  0  0
  7  6  1  0  0  0  0
  8  2  2  0  0  0  0
 10  5  1  0  0  0  0
 11 16  1  0  0  0  0
 11 17  1  0  0  0  0
 12 11  2  0  0  0  0
 13 14  2  0  0  0  0
 13 12  1  0  0  0  0
 14 15  1  0  0  0  0
 15 19  1  0  0  0  0
 15 16  2  0  0  0  0
 18 13  1  0  0  0  0
 19 20  1  0  0  0  0
 19 21  1  0  0  0  0
 22 19  1  0  0  0  0
 23  8  1  0  0  0  0
 24 25  1  0  0  0  0
 24 23  1  0  0  0  0
 26 24  1  0  0  0  0
 27 35  1  0  0  0  0
 27 24  1  0  0  0  0
 28 27  2  0  0  0  0
 29 28  1  0  0  0  0
 30 31  2  0  0  0  0
 30 28  1  0  0  0  0
 31 33  1  0  0  0  0
 32 31  1  0  0  0  0
 33 34  1  0  0  0  0
 33 35  2  0  0  0  0
M  END
>  <minimizedAffinity>
-6.62034702

$$$$

 OpenBabel03212520193D

 35 37  0  0  0  0  0  0  0  0999 V2000
   42.9180   71.4910   62.0560 Cl  0  0  0  0  0  0  0  0  0  0  0  0
   42.2270   70.6270   60.7000 C   0  0  0  0  0  0  0  0  0  0  0  0
   41.4270   71.2410   59.7480 C   0  0  0  0  0  0  0  0  0  0  0  0
   40.9610   70.4140   58.7400 C   0  0  0  0  0  0  0  0  0  0  0  0
   41.2050   69.0710   58.5870 C   0  0  0  0  0  0  0  0  0  0  0  0
   41.9950   68.5030   59.5440 C   0  0  0  0  0  0  0  0  0  0  0  0
   42.4030   66.7880   59.4930 Cl  0  0  0  0  0  0  0  0  0  0  0  0
   42.4990   69.2760   60.5870 C   0  0  0  0  0  0  0  0  0  0  0  0
   40.3290   70.9290   58.0000 H   0  0  0  0  0  0  0  0  0  0  0  0
   40.8000   68.5100   57.7740 H   0  0  0  0  0  0  0  0  0  0  0  0
   41.8720   73.6970   59.3220 C   0  0  0  0  0  0  0  0  0  0  0  0
   41.1480   72.6220   59.8620 C   0  0  0  0  0  0  0  0  0  0  0  0
   40.0180   72.9470   60.5960 C   0  0  0  0  0  0  0  0  0  0  0  0
   39.7060   74.2650   60.7360 N   0  0  0  0  0  0  0  0  0  0  0  0
   40.4310   75.2620   60.2000 C   0  0  0  0  0  0  0  0  0  0  0  0
   41.5280   74.9690   59.4850 N   0  0  0  0  0  0  0  0  0  0  0  0
   42.7520   73.3860   58.7530 H   0  0  0  0  0  0  0  0  0  0  0  0
   39.3640   72.2060   61.0720 H   0  0  0  0  0  0  0  0  0  0  0  0
   39.9280   76.6340   60.4630 C   0  0  0  0  0  0  0  0  0  0  0  0
   40.9540   77.5510   60.5780 F   0  0  0  0  0  0  0  0  0  0  0  0
   39.0980   77.0400   59.4330 F   0  0  0  0  0  0  0  0  0  0  0  0
   39.2520   76.6950   61.6840 F   0  0  0  0  0  0  0  0  0  0  0  0
   43.2990   68.6550   61.5360 O   0  0  0  0  0  0  0  0  0  0  0  0
   42.9730   68.5630   62.9030 C   0  0  0  0  0  0  0  0  0  0  0  0
   42.7400   69.5920   63.2500 H   0  0  0  0  0  0  0  0  0  0  0  0
   43.8920   68.2720   63.4690 H   0  0  0  0  0  0  0  0  0  0  0  0
   41.8360   67.6730   63.1700 C   0  0  0  0  0  0  0  0  0  0  0  0
   41.7920   66.3150   62.9330 C   0  0  0  0  0  0  0  0  0  0  0  0
   42.6920   65.8890   62.5090 H   0  0  0  0  0  0  0  0  0  0  0  0
   40.6500   65.5770   63.2300 C   0  0  0  0  0  3  0  0  0  0  0  0
   39.5280   66.1710   63.7700 C   0  0  0  0  0  0  0  0  0  0  0  0
   38.6320   65.5960   64.0040 H   0  0  0  0  0  0  0  0  0  0  0  0
   39.5570   67.5380   64.0150 C   0  0  0  0  0  0  0  0  0  0  0  0
   38.6650   67.9630   64.4360 H   0  0  0  0  0  0  0  0  0  0  0  0
   40.6920   68.2530   63.7160 C   0  0  0  0  0  3  0  0  0  0  0  0
  2  1  1  0  0  0  0
  3 12  1  0  0  0  0
  3  2  2  0  0  0  0
  4  3  1  0  0  0  0
  5  4  2  0  0  0  0
  5  6  1  0  0  0  0
  6  8  2  0  0  0  0
  7  6  1  0  0  0  0
  8  2  1  0  0  0  0
  8 23  1  0  0  0  0
  9  4  1  0  0  0  0
 10  5  1  0  0  0  0
 11 16  2  0  0  0  0
 11 12  1  0  0  0  0
 12 13  2  0  0  0  0
 13 14  1  0  0  0  0
 13 18  1  0  0  0  0
 15 19  1  0  0  0  0
 15 14  2  0  0  0  0
 16 15  1  0  0  0  0
 17 11  1  0  0  0  0
 19 20  1  0  0  0  0
 19 22  1  0  0  0  0
 21 19  1  0  0  0  0
 23 24  1  0  0  0  0
 24 27  1  0  0  0  0
 24 25  1  0  0  0  0
 24 26  1  0  0  0  0
 27 35  1  0  0  0  0
 28 27  2  0  0  0  0
 28 30  1  0  0  0  0
 29 28  1  0  0  0  0
 30 31  2  0  0  0  0
 31 32  1  0  0  0  0
 31 33  1  0  0  0  0
 33 34  1  0  0  0  0
 35 33  2  0  0  0  0
M  END
>  <minimizedAffinity>
-6.52920961

$$$$

 OpenBabel03212520193D

 35 37  0  0  0  0  0  0  0  0999 V2000
   38.3920   73.6530   58.4410 Cl  0  0  0  0  0  0  0  0  0  0  0  0
   39.2810   75.1260   58.7590 C   0  0  0  0  0  0  0  0  0  0  0  0
   40.4080   75.1610   59.5670 C   0  0  0  0  0  0  0  0  0  0  0  0
   40.9930   76.4070   59.7150 C   0  0  0  0  0  0  0  0  0  0  0  0
   40.5810   77.5930   59.1560 C   0  0  0  0  0  0  0  0  0  0  0  0
   39.4690   77.5170   58.3690 C   0  0  0  0  0  0  0  0  0  0  0  0
   38.8100   78.9470   57.5770 Cl  0  0  0  0  0  0  0  0  0  0  0  0
   38.8300   76.2950   58.1750 C   0  0  0  0  0  0  0  0  0  0  0  0
   41.8850   76.4040   60.3620 H   0  0  0  0  0  0  0  0  0  0  0  0
   41.0980   78.5110   59.3280 H   0  0  0  0  0  0  0  0  0  0  0  0
   41.7490   73.0150   59.6240 C   0  0  0  0  0  0  0  0  0  0  0  0
   40.8720   73.9680   60.1660 C   0  0  0  0  0  0  0  0  0  0  0  0
   40.3990   73.7150   61.4440 C   0  0  0  0  0  0  0  0  0  0  0  0
   40.8160   72.5770   62.0640 N   0  0  0  0  0  0  0  0  0  0  0  0
   41.6590   71.6910   61.5050 C   0  0  0  0  0  0  0  0  0  0  0  0
   42.1280   71.9170   60.2690 N   0  0  0  0  0  0  0  0  0  0  0  0
   42.0910   73.2620   58.6160 H   0  0  0  0  0  0  0  0  0  0  0  0
   39.7100   74.3770   61.9820 H   0  0  0  0  0  0  0  0  0  0  0  0
   41.9960   70.5110   62.3400 C   0  0  0  0  0  0  0  0  0  0  0  0
   41.4400   69.3490   61.8480 F   0  0  0  0  0  0  0  0  0  0  0  0
   43.3690   70.3460   62.3930 F   0  0  0  0  0  0  0  0  0  0  0  0
   41.4740   70.6440   63.6290 F   0  0  0  0  0  0  0  0  0  0  0  0
   37.7020   76.2660   57.3650 O   0  0  0  0  0  0  0  0  0  0  0  0
   37.6960   75.7870   56.0410 C   0  0  0  0  0  0  0  0  0  0  0  0
   36.9940   74.9270   56.0110 H   0  0  0  0  0  0  0  0  0  0  0  0
   38.6990   75.3450   55.8190 H   0  0  0  0  0  0  0  0  0  0  0  0
   37.2920   76.8000   55.0580 C   0  0  0  0  0  0  0  0  0  0  0  0
   37.7720   76.9230   53.7710 C   0  0  0  0  0  0  0  0  0  0  0  0
   38.5150   76.1920   53.4820 H   0  0  0  0  0  0  0  0  0  0  0  0
   37.3090   77.9310   52.9320 C   0  0  0  0  0  3  0  0  0  0  0  0
   36.3580   78.8390   53.3520 C   0  0  0  0  0  0  0  0  0  0  0  0
   35.9930   79.6300   52.6970 H   0  0  0  0  0  0  0  0  0  0  0  0
   35.8650   78.7280   54.6450 C   0  0  0  0  0  0  0  0  0  0  0  0
   35.1260   79.4530   54.9340 H   0  0  0  0  0  0  0  0  0  0  0  0
   36.3330   77.7270   55.4620 C   0  0  0  0  0  3  0  0  0  0  0  0
  1  2  1  0  0  0  0
  2  3  1  0  0  0  0
  3  4  2  0  0  0  0
  3 12  1  0  0  0  0
  4  9  1  0  0  0  0
  5 10  1  0  0  0  0
  5  4  1  0  0  0  0
  6  5  2  0  0  0  0
  7  6  1  0  0  0  0
  8  6  1  0  0  0  0
  8  2  2  0  0  0  0
 11 12  2  0  0  0  0
 11 16  1  0  0  0  0
 12 13  1  0  0  0  0
 13 18  1  0  0  0  0
 13 14  2  0  0  0  0
 15 14  1  0  0  0  0
 15 19  1  0  0  0  0
 16 15  2  0  0  0  0
 17 11  1  0  0  0  0
 19 21  1  0  0  0  0
 19 22  1  0  0  0  0
 20 19  1  0  0  0  0
 23  8  1  0  0  0  0
 24 23  1  0  0  0  0
 25 24  1  0  0  0  0
 26 24  1  0  0  0  0
 27 35  1  0  0  0  0
 27 24  1  0  0  0  0
 28 27  2  0  0  0  0
 29 28  1  0  0  0  0
 30 31  2  0  0  0  0
 30 28  1  0  0  0  0
 31 33  1  0  0  0  0
 32 31  1  0  0  0  0
 33 34  1  0  0  0  0
 33 35  2  0  0  0  0
M  END
>  <minimizedAffinity>
-6.43002319

$$$$

 OpenBabel03212520193D

 35 37  0  0  0  0  0  0  0  0999 V2000
   40.6260   73.4290   57.1850 Cl  0  0  0  0  0  0  0  0  0  0  0  0
   39.9340   73.5840   58.7840 C   0  0  0  0  0  0  0  0  0  0  0  0
   38.8250   74.3740   59.0480 C   0  0  0  0  0  0  0  0  0  0  0  0
   38.4040   74.3860   60.3670 C   0  0  0  0  0  0  0  0  0  0  0  0
   38.9610   73.7080   61.4240 C   0  0  0  0  0  0  0  0  0  0  0  0
   40.0500   72.9430   61.1250 C   0  0  0  0  0  0  0  0  0  0  0  0
   40.8810   72.0090   62.3680 Cl  0  0  0  0  0  0  0  0  0  0  0  0
   40.5280   72.8830   59.8190 C   0  0  0  0  0  0  0  0  0  0  0  0
   37.5230   75.0220   60.5450 H   0  0  0  0  0  0  0  0  0  0  0  0
   38.5660   73.7780   62.4140 H   0  0  0  0  0  0  0  0  0  0  0  0
   37.3150   74.6100   57.0300 C   0  0  0  0  0  0  0  0  0  0  0  0
   38.2160   75.0910   57.9930 C   0  0  0  0  0  0  0  0  0  0  0  0
   38.5540   76.4320   57.9060 C   0  0  0  0  0  0  0  0  0  0  0  0
   37.9940   77.1670   56.9060 N   0  0  0  0  0  0  0  0  0  0  0  0
   37.1340   76.6630   56.0040 C   0  0  0  0  0  0  0  0  0  0  0  0
   36.7930   75.3670   56.0710 N   0  0  0  0  0  0  0  0  0  0  0  0
   37.0820   73.5490   57.1430 H   0  0  0  0  0  0  0  0  0  0  0  0
   39.2460   76.9340   58.5940 H   0  0  0  0  0  0  0  0  0  0  0  0
   36.6310   77.6240   54.9900 C   0  0  0  0  0  0  0  0  0  0  0  0
   35.5180   78.3090   55.4300 F   0  0  0  0  0  0  0  0  0  0  0  0
   37.6150   78.5470   54.6830 F   0  0  0  0  0  0  0  0  0  0  0  0
   36.2130   76.9590   53.8340 F   0  0  0  0  0  0  0  0  0  0  0  0
   41.6380   72.0900   59.5610 O   0  0  0  0  0  0  0  0  0  0  0  0
   41.5690   70.7840   59.0400 C   0  0  0  0  0  0  0  0  0  0  0  0
   42.0950   70.7960   58.0630 H   0  0  0  0  0  0  0  0  0  0  0  0
   40.5030   70.5590   58.7870 H   0  0  0  0  0  0  0  0  0  0  0  0
   42.1680   69.7740   59.9220 C   0  0  0  0  0  0  0  0  0  0  0  0
   43.2850   69.9420   60.7120 C   0  0  0  0  0  0  0  0  0  0  0  0
   43.7470   70.9200   60.6600 H   0  0  0  0  0  0  0  0  0  0  0  0
   43.7580   68.9040   61.5080 C   0  0  0  0  0  3  0  0  0  0  0  0
   43.1300   67.6750   61.5380 C   0  0  0  0  0  0  0  0  0  0  0  0
   43.4980   66.8600   62.1600 H   0  0  0  0  0  0  0  0  0  0  0  0
   42.0030   67.4900   60.7480 C   0  0  0  0  0  0  0  0  0  0  0  0
   41.5430   66.5200   60.7990 H   0  0  0  0  0  0  0  0  0  0  0  0
   41.5490   68.5260   59.9670 C   0  0  0  0  0  3  0  0  0  0  0  0
  1  2  1  0  0  0  0
  2  3  2  0  0  0  0
  2  8  1  0  0  0  0
  3  4  1  0  0  0  0
  4  9  1  0  0  0  0
  4  5  2  0  0  0  0
  5 10  1  0  0  0  0
  6  5  1  0  0  0  0
  6  7  1  0  0  0  0
  8  6  2  0  0  0  0
 11 17  1  0  0  0  0
 11 12  1  0  0  0  0
 12  3  1  0  0  0  0
 13 12  2  0  0  0  0
 13 18  1  0  0  0  0
 14 13  1  0  0  0  0
 15 16  1  0  0  0  0
 15 14  2  0  0  0  0
 16 11  2  0  0  0  0
 19 20  1  0  0  0  0
 19 15  1  0  0  0  0
 21 19  1  0  0  0  0
 22 19  1  0  0  0  0
 23  8  1  0  0  0  0
 24 23  1  0  0  0  0
 24 27  1  0  0  0  0
 25 24  1  0  0  0  0
 26 24  1  0  0  0  0
 27 35  2  0  0  0  0
 27 28  1  0  0  0  0
 28 30  2  0  0  0  0
 29 28  1  0  0  0  0
 30 31  1  0  0  0  0
 31 32  1  0  0  0  0
 33 34  1  0  0  0  0
 33 31  2  0  0  0  0
 35 33  1  0  0  0  0
M  END
>  <minimizedAffinity>
-6.21203089

$$$$

 OpenBabel03212520193D

 35 37  0  0  0  0  0  0  0  0999 V2000
   39.5530   73.0170   61.2240 Cl  0  0  0  0  0  0  0  0  0  0  0  0
   41.1550   73.4530   60.6720 C   0  0  0  0  0  0  0  0  0  0  0  0
   42.2650   72.6490   60.8820 C   0  0  0  0  0  0  0  0  0  0  0  0
   43.4590   73.1400   60.3820 C   0  0  0  0  0  0  0  0  0  0  0  0
   43.6550   74.3220   59.7090 C   0  0  0  0  0  0  0  0  0  0  0  0
   42.5400   75.0860   59.5220 C   0  0  0  0  0  0  0  0  0  0  0  0
   42.6200   76.6310   58.6770 Cl  0  0  0  0  0  0  0  0  0  0  0  0
   41.3050   74.6520   59.9990 C   0  0  0  0  0  0  0  0  0  0  0  0
   44.3220   72.4810   60.5640 H   0  0  0  0  0  0  0  0  0  0  0  0
   44.6180   74.6220   59.3580 H   0  0  0  0  0  0  0  0  0  0  0  0
   41.9720   71.2200   62.9510 C   0  0  0  0  0  0  0  0  0  0  0  0
   42.1150   71.4230   61.5700 C   0  0  0  0  0  0  0  0  0  0  0  0
   42.1070   70.2870   60.7760 C   0  0  0  0  0  0  0  0  0  0  0  0
   41.9650   69.0800   61.3910 N   0  0  0  0  0  0  0  0  0  0  0  0
   41.8310   68.9340   62.7200 C   0  0  0  0  0  0  0  0  0  0  0  0
   41.8360   70.0210   63.5070 N   0  0  0  0  0  0  0  0  0  0  0  0
   41.9850   72.1470   63.5310 H   0  0  0  0  0  0  0  0  0  0  0  0
   42.2090   70.3040   59.6840 H   0  0  0  0  0  0  0  0  0  0  0  0
   41.6880   67.5370   63.2020 C   0  0  0  0  0  0  0  0  0  0  0  0
   42.9080   66.9100   63.3500 F   0  0  0  0  0  0  0  0  0  0  0  0
   41.0410   67.5210   64.4250 F   0  0  0  0  0  0  0  0  0  0  0  0
   40.9910   66.7570   62.2750 F   0  0  0  0  0  0  0  0  0  0  0  0
   40.1980   75.4620   59.7850 O   0  0  0  0  0  0  0  0  0  0  0  0
   39.5520   75.5980   58.5410 C   0  0  0  0  0  0  0  0  0  0  0  0
   40.0960   76.3850   57.9780 H   0  0  0  0  0  0  0  0  0  0  0  0
   38.5330   76.0260   58.7160 H   0  0  0  0  0  0  0  0  0  0  0  0
   39.5190   74.3540   57.7630 C   0  0  0  0  0  0  0  0  0  0  0  0
   40.4890   73.9150   56.8870 C   0  0  0  0  0  0  0  0  0  0  0  0
   41.3460   74.5670   56.7790 H   0  0  0  0  0  0  0  0  0  0  0  0
   40.3410   72.7110   56.2050 C   0  0  0  0  0  3  0  0  0  0  0  0
   39.2260   71.9160   56.3790 C   0  0  0  0  0  0  0  0  0  0  0  0
   39.1070   70.9730   55.8470 H   0  0  0  0  0  0  0  0  0  0  0  0
   38.2410   72.3440   57.2590 C   0  0  0  0  0  0  0  0  0  0  0  0
   37.3890   71.6980   57.3670 H   0  0  0  0  0  0  0  0  0  0  0  0
   38.4020   73.5360   57.9250 C   0  0  0  0  0  3  0  0  0  0  0  0
  2  3  1  0  0  0  0
  2  1  1  0  0  0  0
  3 12  1  0  0  0  0
  4  9  1  0  0  0  0
  4  3  2  0  0  0  0
  5  4  1  0  0  0  0
  6  5  2  0  0  0  0
  6  8  1  0  0  0  0
  7  6  1  0  0  0  0
  8  2  2  0  0  0  0
 10  5  1  0  0  0  0
 11 16  1  0  0  0  0
 11 17  1  0  0  0  0
 12 11  2  0  0  0  0
 13 14  2  0  0  0  0
 13 12  1  0  0  0  0
 14 15  1  0  0  0  0
 15 19  1  0  0  0  0
 15 16  2  0  0  0  0
 18 13  1  0  0  0  0
 19 20  1  0  0  0  0
 19 21  1  0  0  0  0
 22 19  1  0  0  0  0
 23  8  1  0  0  0  0
 24 26  1  0  0  0  0
 24 23  1  0  0  0  0
 25 24  1  0  0  0  0
 27 35  1  0  0  0  0
 27 24  1  0  0  0  0
 28 27  2  0  0  0  0
 29 28  1  0  0  0  0
 30 31  2  0  0  0  0
 30 28  1  0  0  0  0
 31 33  1  0  0  0  0
 32 31  1  0  0  0  0
 33 34  1  0  0  0  0
 33 35  2  0  0  0  0
M  END
>  <minimizedAffinity>
-6.00498343

$$$$

 OpenBabel03212520193D

 35 37  0  0  0  0  0  0  0  0999 V2000
   39.3910   73.0510   58.3560 Cl  0  0  0  0  0  0  0  0  0  0  0  0
   40.7610   74.1140   58.5940 C   0  0  0  0  0  0  0  0  0  0  0  0
   40.8210   75.3910   58.0570 C   0  0  0  0  0  0  0  0  0  0  0  0
   41.9760   76.1000   58.3410 C   0  0  0  0  0  0  0  0  0  0  0  0
   43.0500   75.6780   59.0860 C   0  0  0  0  0  0  0  0  0  0  0  0
   42.9540   74.4160   59.5960 C   0  0  0  0  0  0  0  0  0  0  0  0
   44.2460   73.7240   60.5740 Cl  0  0  0  0  0  0  0  0  0  0  0  0
   41.8200   73.6460   59.3510 C   0  0  0  0  0  0  0  0  0  0  0  0
   41.9960   77.1100   57.9020 H   0  0  0  0  0  0  0  0  0  0  0  0
   43.9040   76.2980   59.2520 H   0  0  0  0  0  0  0  0  0  0  0  0
   38.5260   76.4100   57.7370 C   0  0  0  0  0  0  0  0  0  0  0  0
   39.7410   75.8710   57.2840 C   0  0  0  0  0  0  0  0  0  0  0  0
   39.9090   75.8000   55.9090 C   0  0  0  0  0  0  0  0  0  0  0  0
   38.8950   76.2500   55.1190 N   0  0  0  0  0  0  0  0  0  0  0  0
   37.7470   76.7580   55.5990 C   0  0  0  0  0  0  0  0  0  0  0  0
   37.5650   76.8370   56.9260 N   0  0  0  0  0  0  0  0  0  0  0  0
   38.4450   76.4430   58.8270 H   0  0  0  0  0  0  0  0  0  0  0  0
   40.8070   75.4020   55.4240 H   0  0  0  0  0  0  0  0  0  0  0  0
   36.7620   77.1970   54.5780 C   0  0  0  0  0  0  0  0  0  0  0  0
   35.7660   77.9830   55.1200 F   0  0  0  0  0  0  0  0  0  0  0  0
   37.3990   77.9240   53.5880 F   0  0  0  0  0  0  0  0  0  0  0  0
   36.0950   76.1020   54.0230 F   0  0  0  0  0  0  0  0  0  0  0  0
   41.7650   72.3680   59.8910 O   0  0  0  0  0  0  0  0  0  0  0  0
   41.3080   72.0820   61.1910 C   0  0  0  0  0  0  0  0  0  0  0  0
   40.2230   71.8630   61.1130 H   0  0  0  0  0  0  0  0  0  0  0  0
   41.3680   73.0160   61.8020 H   0  0  0  0  0  0  0  0  0  0  0  0
   42.0050   70.9500   61.8160 C   0  0  0  0  0  0  0  0  0  0  0  0
   42.9890   70.1790   61.2370 C   0  0  0  0  0  0  0  0  0  0  0  0
   43.2570   70.4530   60.2240 H   0  0  0  0  0  0  0  0  0  0  0  0
   43.5760   69.1280   61.9350 C   0  0  0  0  0  3  0  0  0  0  0  0
   43.1960   68.8210   63.2260 C   0  0  0  0  0  0  0  0  0  0  0  0
   43.6530   67.9990   63.7760 H   0  0  0  0  0  0  0  0  0  0  0  0
   42.2060   69.5890   63.8240 C   0  0  0  0  0  0  0  0  0  0  0  0
   41.9390   69.3180   64.8290 H   0  0  0  0  0  0  0  0  0  0  0  0
   41.6370   70.6230   63.1200 C   0  0  0  0  0  3  0  0  0  0  0  0
  1  2  1  0  0  0  0
  2  8  1  0  0  0  0
  3  4  1  0  0  0  0
  3  2  2  0  0  0  0
  4  5  2  0  0  0  0
  5 10  1  0  0  0  0
  5  6  1  0  0  0  0
  6  7  1  0  0  0  0
  8  6  2  0  0  0  0
  8 23  1  0  0  0  0
  9  4  1  0  0  0  0
 11 17  1  0  0  0  0
 12 11  1  0  0  0  0
 12  3  1  0  0  0  0
 13 12  2  0  0  0  0
 14 15  2  0  0  0  0
 14 13  1  0  0  0  0
 15 16  1  0  0  0  0
 16 11  2  0  0  0  0
 18 13  1  0  0  0  0
 19 20  1  0  0  0  0
 19 15  1  0  0  0  0
 21 19  1  0  0  0  0
 22 19  1  0  0  0  0
 23 24  1  0  0  0  0
 24 26  1  0  0  0  0
 24 27  1  0  0  0  0
 25 24  1  0  0  0  0
 27 35  1  0  0  0  0
 28 27  2  0  0  0  0
 28 30  1  0  0  0  0
 29 28  1  0  0  0  0
 30 31  2  0  0  0  0
 31 32  1  0  0  0  0
 31 33  1  0  0  0  0
 33 34  1  0  0  0  0
 35 33  2  0  0  0  0
M  END
>  <minimizedAffinity>
-5.97669888

$$$$

 OpenBabel03212520193D

 35 37  0  0  0  0  0  0  0  0999 V2000
   40.1380   73.5390   56.8440 Cl  0  0  0  0  0  0  0  0  0  0  0  0
   39.8690   74.0910   58.4830 C   0  0  0  0  0  0  0  0  0  0  0  0
   38.9960   75.1240   58.7920 C   0  0  0  0  0  0  0  0  0  0  0  0
   38.9000   75.4360   60.1380 C   0  0  0  0  0  0  0  0  0  0  0  0
   39.5670   74.8410   61.1800 C   0  0  0  0  0  0  0  0  0  0  0  0
   40.4170   73.8310   60.8360 C   0  0  0  0  0  0  0  0  0  0  0  0
   41.3490   72.9640   62.0550 Cl  0  0  0  0  0  0  0  0  0  0  0  0
   40.5630   73.4630   59.5010 C   0  0  0  0  0  0  0  0  0  0  0  0
   38.2000   76.2600   60.3520 H   0  0  0  0  0  0  0  0  0  0  0  0
   39.4300   75.1520   62.1930 H   0  0  0  0  0  0  0  0  0  0  0  0
   37.1830   75.2840   57.0330 C   0  0  0  0  0  0  0  0  0  0  0  0
   38.2860   75.7680   57.7540 C   0  0  0  0  0  0  0  0  0  0  0  0
   38.7390   77.0330   57.4120 C   0  0  0  0  0  0  0  0  0  0  0  0
   38.0880   77.6950   56.4160 N   0  0  0  0  0  0  0  0  0  0  0  0
   37.0340   77.1910   55.7520 C   0  0  0  0  0  0  0  0  0  0  0  0
   36.5790   75.9680   56.0680 N   0  0  0  0  0  0  0  0  0  0  0  0
   36.8660   74.2840   57.3410 H   0  0  0  0  0  0  0  0  0  0  0  0
   39.5900   77.5280   57.8950 H   0  0  0  0  0  0  0  0  0  0  0  0
   36.4600   78.0660   54.7000 C   0  0  0  0  0  0  0  0  0  0  0  0
   36.0230   77.3470   53.6060 F   0  0  0  0  0  0  0  0  0  0  0  0
   35.3860   78.7760   55.2080 F   0  0  0  0  0  0  0  0  0  0  0  0
   37.4250   78.9410   54.1940 F   0  0  0  0  0  0  0  0  0  0  0  0
   41.4380   72.4280   59.1970 O   0  0  0  0  0  0  0  0  0  0  0  0
   41.0560   71.0760   59.1050 C   0  0  0  0  0  0  0  0  0  0  0  0
   39.9520   71.0580   58.9920 H   0  0  0  0  0  0  0  0  0  0  0  0
   41.2510   70.5840   60.0900 H   0  0  0  0  0  0  0  0  0  0  0  0
   41.6880   70.3700   57.9830 C   0  0  0  0  0  0  0  0  0  0  0  0
   41.4440   69.0680   57.5990 C   0  0  0  0  0  0  0  0  0  0  0  0
   40.7140   68.5380   58.1960 H   0  0  0  0  0  0  0  0  0  0  0  0
   42.1100   68.5090   56.5130 C   0  0  0  0  0  3  0  0  0  0  0  0
   43.0340   69.2310   55.7840 C   0  0  0  0  0  0  0  0  0  0  0  0
   43.5570   68.7960   54.9330 H   0  0  0  0  0  0  0  0  0  0  0  0
   43.2900   70.5430   56.1580 C   0  0  0  0  0  0  0  0  0  0  0  0
   44.0150   71.0710   55.5670 H   0  0  0  0  0  0  0  0  0  0  0  0
   42.6240   71.0810   57.2340 C   0  0  0  0  0  3  0  0  0  0  0  0
  1  2  1  0  0  0  0
  2  3  2  0  0  0  0
  2  8  1  0  0  0  0
  3  4  1  0  0  0  0
  4  9  1  0  0  0  0
  4  5  2  0  0  0  0
  5 10  1  0  0  0  0
  6  5  1  0  0  0  0
  6  7  1  0  0  0  0
  8  6  2  0  0  0  0
 11 17  1  0  0  0  0
 11 12  1  0  0  0  0
 12  3  1  0  0  0  0
 13 12  2  0  0  0  0
 13 18  1  0  0  0  0
 14 13  1  0  0  0  0
 15 16  1  0  0  0  0
 15 14  2  0  0  0  0
 16 11  2  0  0  0  0
 19 21  1  0  0  0  0
 19 15  1  0  0  0  0
 20 19  1  0  0  0  0
 22 19  1  0  0  0  0
 23  8  1  0  0  0  0
 24 23  1  0  0  0  0
 24 26  1  0  0  0  0
 25 24  1  0  0  0  0
 27 24  1  0  0  0  0
 28 27  1  0  0  0  0
 28 29  1  0  0  0  0
 30 28  2  0  0  0  0
 31 33  2  0  0  0  0
 31 30  1  0  0  0  0
 32 31  1  0  0  0  0
 33 35  1  0  0  0  0
 34 33  1  0  0  0  0
 35 27  2  0  0  0  0
M  END
>  <minimizedAffinity>
-5.95156527

$$$$

 OpenBabel03212520193D

 35 37  0  0  0  0  0  0  0  0999 V2000
   42.8830   72.5160   60.9780 Cl  0  0  0  0  0  0  0  0  0  0  0  0
   41.7100   71.9680   59.8020 C   0  0  0  0  0  0  0  0  0  0  0  0
   40.7070   72.7870   59.3040 C   0  0  0  0  0  0  0  0  0  0  0  0
   39.8620   72.1970   58.3800 C   0  0  0  0  0  0  0  0  0  0  0  0
   39.9120   70.9070   57.9110 C   0  0  0  0  0  0  0  0  0  0  0  0
   40.9120   70.1320   58.4240 C   0  0  0  0  0  0  0  0  0  0  0  0
   41.1150   68.4530   57.9260 Cl  0  0  0  0  0  0  0  0  0  0  0  0
   41.7990   70.6610   59.3580 C   0  0  0  0  0  0  0  0  0  0  0  0
   39.0760   72.8710   58.0040 H   0  0  0  0  0  0  0  0  0  0  0  0
   39.2130   70.5360   57.1930 H   0  0  0  0  0  0  0  0  0  0  0  0
   39.8180   74.6280   60.7970 C   0  0  0  0  0  0  0  0  0  0  0  0
   40.6130   74.1230   59.7560 C   0  0  0  0  0  0  0  0  0  0  0  0
   41.4080   75.0400   59.0860 C   0  0  0  0  0  0  0  0  0  0  0  0
   41.3530   76.3410   59.4830 N   0  0  0  0  0  0  0  0  0  0  0  0
   40.5750   76.7800   60.4870 C   0  0  0  0  0  0  0  0  0  0  0  0
   39.7980   75.9090   61.1490 N   0  0  0  0  0  0  0  0  0  0  0  0
   39.2120   73.8650   61.2910 H   0  0  0  0  0  0  0  0  0  0  0  0
   42.0750   74.7790   58.2560 H   0  0  0  0  0  0  0  0  0  0  0  0
   40.6540   78.2350   60.7720 C   0  0  0  0  0  0  0  0  0  0  0  0
   41.9560   78.6910   60.7940 F   0  0  0  0  0  0  0  0  0  0  0  0
   39.9630   78.9450   59.8060 F   0  0  0  0  0  0  0  0  0  0  0  0
   40.1480   78.5260   62.0410 F   0  0  0  0  0  0  0  0  0  0  0  0
   42.8010   69.8360   59.8520 O   0  0  0  0  0  0  0  0  0  0  0  0
   42.6850   69.0760   61.0310 C   0  0  0  0  0  0  0  0  0  0  0  0
   41.6440   69.2000   61.3960 H   0  0  0  0  0  0  0  0  0  0  0  0
   43.3220   69.5460   61.8210 H   0  0  0  0  0  0  0  0  0  0  0  0
   42.9830   67.6510   60.8360 C   0  0  0  0  0  0  0  0  0  0  0  0
   43.7810   67.1140   59.8490 C   0  0  0  0  0  0  0  0  0  0  0  0
   44.2180   67.8300   59.1650 H   0  0  0  0  0  0  0  0  0  0  0  0
   43.9870   65.7400   59.7690 C   0  0  0  0  0  3  0  0  0  0  0  0
   43.4040   64.8700   60.6680 C   0  0  0  0  0  0  0  0  0  0  0  0
   43.5640   63.7940   60.6080 H   0  0  0  0  0  0  0  0  0  0  0  0
   42.5980   65.3960   61.6680 C   0  0  0  0  0  0  0  0  0  0  0  0
   42.1630   64.6870   62.3480 H   0  0  0  0  0  0  0  0  0  0  0  0
   42.4040   66.7560   61.7340 C   0  0  0  0  0  3  0  0  0  0  0  0
  2  1  1  0  0  0  0
  3 12  1  0  0  0  0
  3  2  2  0  0  0  0
  4  3  1  0  0  0  0
  5  4  2  0  0  0  0
  5  6  1  0  0  0  0
  6  8  2  0  0  0  0
  7  6  1  0  0  0  0
  8  2  1  0  0  0  0
  8 23  1  0  0  0  0
  9  4  1  0  0  0  0
 10  5  1  0  0  0  0
 11 16  1  0  0  0  0
 11 17  1  0  0  0  0
 12 11  2  0  0  0  0
 13 14  2  0  0  0  0
 13 12  1  0  0  0  0
 14 15  1  0  0  0  0
 15 19  1  0  0  0  0
 15 16  2  0  0  0  0
 18 13  1  0  0  0  0
 19 20  1  0  0  0  0
 19 22  1  0  0  0  0
 21 19  1  0  0  0  0
 23 24  1  0  0  0  0
 24 25  1  0  0  0  0
 24 26  1  0  0  0  0
 27 24  1  0  0  0  0
 27 35  1  0  0  0  0
 28 27  2  0  0  0  0
 29 28  1  0  0  0  0
 30 28  1  0  0  0  0
 30 31  2  0  0  0  0
 31 33  1  0  0  0  0
 32 31  1  0  0  0  0
 33 35  2  0  0  0  0
 33 34  1  0  0  0  0
M  END
>  <minimizedAffinity>
-5.88384724

$$$$
