
 OpenBabel03212520183D

 35 37  0  0  0  0  0  0  0  0999 V2000
   43.1580   83.7730   58.6300 Cl  0  0  0  0  0  0  0  0  0  0  0  0
   41.8780   82.6430   58.2490 C   0  0  0  0  0  0  0  0  0  0  0  0
   40.9780   82.1810   59.1980 C   0  0  0  0  0  0  0  0  0  0  0  0
   40.0270   81.2910   58.7310 C   0  0  0  0  0  0  0  0  0  0  0  0
   39.8830   80.8240   57.4470 C   0  0  0  0  0  0  0  0  0  0  0  0
   40.7880   81.3000   56.5430 C   0  0  0  0  0  0  0  0  0  0  0  0
   40.7410   80.8000   54.8530 Cl  0  0  0  0  0  0  0  0  0  0  0  0
   41.7720   82.2000   56.9430 C   0  0  0  0  0  0  0  0  0  0  0  0
   39.3270   80.9410   59.5060 H   0  0  0  0  0  0  0  0  0  0  0  0
   39.1150   80.1320   57.1770 H   0  0  0  0  0  0  0  0  0  0  0  0
   41.9180   82.1360   61.5480 C   0  0  0  0  0  0  0  0  0  0  0  0
   41.0840   82.6320   60.5330 C   0  0  0  0  0  0  0  0  0  0  0  0
   40.2640   83.6960   60.8740 C   0  0  0  0  0  0  0  0  0  0  0  0
   40.3280   84.1670   62.1500 N   0  0  0  0  0  0  0  0  0  0  0  0
   41.1430   83.6590   63.0910 C   0  0  0  0  0  0  0  0  0  0  0  0
   41.9460   82.6300   62.7810 N   0  0  0  0  0  0  0  0  0  0  0  0
   42.5430   81.2990   61.2270 H   0  0  0  0  0  0  0  0  0  0  0  0
   39.5660   84.1770   60.1780 H   0  0  0  0  0  0  0  0  0  0  0  0
   41.0700   84.3090   64.4230 C   0  0  0  0  0  0  0  0  0  0  0  0
   40.7490   85.6480   64.3320 F   0  0  0  0  0  0  0  0  0  0  0  0
   40.1110   83.6860   65.2020 F   0  0  0  0  0  0  0  0  0  0  0  0
   42.3110   84.2790   65.0650 F   0  0  0  0  0  0  0  0  0  0  0  0
   42.6700   82.6580   55.9880 O   0  0  0  0  0  0  0  0  0  0  0  0
   42.4910   83.8390   55.2420 C   0  0  0  0  0  0  0  0  0  0  0  0
   42.2580   84.6470   55.9660 H   0  0  0  0  0  0  0  0  0  0  0  0
   41.5640   83.7320   54.6260 H   0  0  0  0  0  0  0  0  0  0  0  0
   43.6660   84.2040   54.4420 C   0  0  0  0  0  0  0  0  0  0  0  0
   44.8900   84.6140   54.9300 C   0  0  0  0  0  0  0  0  0  0  0  0
   44.9650   84.6620   56.0090 H   0  0  0  0  0  0  0  0  0  0  0  0
   45.9300   84.9340   54.0640 C   0  0  0  0  0  3  0  0  0  0  0  0
   45.7800   84.8540   52.6950 C   0  0  0  0  0  0  0  0  0  0  0  0
   46.5940   85.1050   52.0150 H   0  0  0  0  0  0  0  0  0  0  0  0
   44.5540   84.4430   52.1890 C   0  0  0  0  0  0  0  0  0  0  0  0
   44.4770   84.3940   51.1180 H   0  0  0  0  0  0  0  0  0  0  0  0
   43.5360   84.1310   53.0570 C   0  0  0  0  0  3  0  0  0  0  0  0
  2  1  1  0  0  0  0
  2  3  1  0  0  0  0
  3 12  1  0  0  0  0
  4  3  2  0  0  0  0
  4  9  1  0  0  0  0
  5  4  1  0  0  0  0
  6  8  1  0  0  0  0
  6  5  2  0  0  0  0
  7  6  1  0  0  0  0
  8  2  2  0  0  0  0
 10  5  1  0  0  0  0
 11 16  1  0  0  0  0
 12 13  1  0  0  0  0
 12 11  2  0  0  0  0
 13 14  2  0  0  0  0
 14 15  1  0  0  0  0
 15 19  1  0  0  0  0
 16 15  2  0  0  0  0
 17 11  1  0  0  0  0
 18 13  1  0  0  0  0
 19 22  1  0  0  0  0
 19 21  1  0  0  0  0
 20 19  1  0  0  0  0
 23  8  1  0  0  0  0
 24 25  1  0  0  0  0
 24 23  1  0  0  0  0
 26 24  1  0  0  0  0
 27 28  1  0  0  0  0
 27 24  1  0  0  0  0
 28 29  1  0  0  0  0
 30 28  2  0  0  0  0
 31 30  1  0  0  0  0
 32 31  1  0  0  0  0
 33 31  2  0  0  0  0
 33 35  1  0  0  0  0
 34 33  1  0  0  0  0
 35 27  2  0  0  0  0
M  END
>  <minimizedAffinity>
-4.84105873

>  <minimizedRMSD>
0.269629687

$$$$
