
 OpenBabel03212520053D

 41 45  0  0  0  0  0  0  0  0999 V2000
   40.7020   81.7740   57.1020 C   0  0  0  0  0  0  0  0  0  0  0  0
   41.7810   82.3480   56.4140 C   0  0  0  0  0  0  0  0  0  0  0  0
   42.5760   83.2460   57.1020 C   0  0  0  0  0  0  0  0  0  0  0  0
   42.3100   83.5520   58.4040 N   0  0  0  0  0  0  0  0  0  0  0  0
   41.2460   82.9640   59.0380 C   0  0  0  0  0  0  0  0  0  0  0  0
   40.4370   82.0770   58.3970 N   0  0  0  0  0  0  0  0  0  0  0  0
   39.9960   81.0610   56.6990 H   0  0  0  0  0  0  0  0  0  0  0  0
   41.8190   81.9390   55.4370 H   0  0  0  0  0  0  0  0  0  0  0  0
   39.6870   83.0900   60.9080 C   0  0  0  0  0  0  0  0  0  0  0  0
   40.9870   83.2720   60.4360 C   0  0  0  0  0  0  0  0  0  0  0  0
   42.0040   83.7230   61.2770 C   0  0  0  0  0  0  0  0  0  0  0  0
   41.7640   84.0080   62.6080 C   0  0  0  0  0  0  0  0  0  0  0  0
   42.4640   84.4420   63.6690 N   0  0  0  0  0  0  0  0  0  0  0  0
   41.6870   84.5370   64.7480 C   0  0  0  0  0  0  0  0  0  0  0  0
   40.4600   84.1440   64.3300 N   0  0  0  0  0  0  0  0  0  0  0  0
   40.4810   83.8150   63.0250 C   0  0  0  0  0  0  0  0  0  0  0  0
   39.4320   83.3740   62.2550 C   0  0  0  0  0  0  0  0  0  0  0  0
   38.8840   82.7470   60.2980 H   0  0  0  0  0  0  0  0  0  0  0  0
   43.0170   83.8630   60.9020 H   0  0  0  0  0  0  0  0  0  0  0  0
   43.4800   84.6600   63.5970 H   0  0  0  0  0  0  0  0  0  0  0  0
   42.0530   84.8670   65.7070 H   0  0  0  0  0  0  0  0  0  0  0  0
   38.4380   83.2460   62.6590 H   0  0  0  0  0  0  0  0  0  0  0  0
   42.3510   83.5890   54.1470 Cl  0  0  0  0  0  0  0  0  0  0  0  0
   43.7380   84.0870   55.0940 C   0  0  0  0  0  0  0  0  0  0  0  0
   43.6940   83.8820   56.4460 C   0  0  0  0  0  0  0  0  0  0  0  0
   44.8250   84.3400   57.1180 C   0  0  0  0  0  0  0  0  0  0  0  0
   45.9020   84.9420   56.5250 C   0  0  0  0  0  0  0  0  0  0  0  0
   45.8790   85.1180   55.1390 C   0  0  0  0  0  0  0  0  0  0  0  0
   47.2170   85.8780   54.3060 Cl  0  0  0  0  0  0  0  0  0  0  0  0
   44.7830   84.6840   54.4220 C   0  0  0  0  0  0  0  0  0  0  0  0
   44.8800   84.2220   58.1910 H   0  0  0  0  0  0  0  0  0  0  0  0
   46.7460   85.2730   57.1110 H   0  0  0  0  0  0  0  0  0  0  0  0
   44.7970   84.8850   52.9770 C   0  0  0  0  0  0  0  0  0  0  0  0
   44.3620   85.9920   52.3100 C   0  0  0  0  0  0  0  0  0  0  0  0
   43.9690   86.7990   52.9020 H   0  0  0  0  0  0  0  0  0  0  0  0
   44.4500   86.0140   50.9340 C   0  0  0  0  0  3  0  0  0  0  0  0
   44.9510   84.9860   50.1620 C   0  0  0  0  0  0  0  0  0  0  0  0
   45.0230   84.9910   49.1010 H   0  0  0  0  0  0  0  0  0  0  0  0
   45.3890   83.8650   50.8660 C   0  0  0  0  0  0  0  0  0  0  0  0
   45.7930   83.0290   50.3060 H   0  0  0  0  0  0  0  0  0  0  0  0
   45.3070   83.8330   52.2430 C   0  0  0  0  0  3  0  0  0  0  0  0
  1  6  1  0  0  0  0
  2  1  2  0  0  0  0
  2  3  1  0  0  0  0
  3  4  2  0  0  0  0
  4  5  1  0  0  0  0
  5 10  1  0  0  0  0
  6  5  2  0  0  0  0
  7  1  1  0  0  0  0
  8  2  1  0  0  0  0
  9 17  1  0  0  0  0
 10  9  2  0  0  0  0
 10 11  1  0  0  0  0
 11 12  2  0  0  0  0
 12 16  1  0  0  0  0
 12 13  1  0  0  0  0
 13 14  1  0  0  0  0
 14 21  1  0  0  0  0
 15 14  2  0  0  0  0
 16 15  1  0  0  0  0
 17 22  1  0  0  0  0
 17 16  2  0  0  0  0
 18  9  1  0  0  0  0
 19 11  1  0  0  0  0
 20 13  1  0  0  0  0
 23 24  1  0  0  0  0
 24 25  1  0  0  0  0
 25  3  1  0  0  0  0
 25 26  2  0  0  0  0
 26 31  1  0  0  0  0
 27 32  1  0  0  0  0
 27 26  1  0  0  0  0
 28 27  2  0  0  0  0
 29 28  1  0  0  0  0
 30 24  2  0  0  0  0
 30 28  1  0  0  0  0
 33 30  1  0  0  0  0
 34 35  1  0  0  0  0
 34 33  1  0  0  0  0
 36 34  2  0  0  0  0
 37 39  2  0  0  0  0
 37 36  1  0  0  0  0
 38 37  1  0  0  0  0
 39 41  1  0  0  0  0
 40 39  1  0  0  0  0
 41 33  2  0  0  0  0
M  END
>  <minimizedAffinity>
-5.06527281

>  <minimizedRMSD>
0.237918064

$$$$
