
 OpenBabel03212520053D

 41 45  0  0  0  0  0  0  0  0999 V2000
   40.7010   81.7740   57.1030 C   0  0  0  0  0  0  0  0  0  0  0  0
   41.7810   82.3480   56.4150 C   0  0  0  0  0  0  0  0  0  0  0  0
   42.5750   83.2460   57.1030 C   0  0  0  0  0  0  0  0  0  0  0  0
   42.3100   83.5520   58.4040 N   0  0  0  0  0  0  0  0  0  0  0  0
   41.2460   82.9650   59.0390 C   0  0  0  0  0  0  0  0  0  0  0  0
   40.4370   82.0780   58.3980 N   0  0  0  0  0  0  0  0  0  0  0  0
   39.9950   81.0620   56.7000 H   0  0  0  0  0  0  0  0  0  0  0  0
   41.8190   81.9390   55.4380 H   0  0  0  0  0  0  0  0  0  0  0  0
   39.6870   83.0900   60.9090 C   0  0  0  0  0  0  0  0  0  0  0  0
   40.9870   83.2720   60.4370 C   0  0  0  0  0  0  0  0  0  0  0  0
   42.0030   83.7240   61.2780 C   0  0  0  0  0  0  0  0  0  0  0  0
   41.7640   84.0080   62.6080 C   0  0  0  0  0  0  0  0  0  0  0  0
   42.4630   84.4430   63.6700 N   0  0  0  0  0  0  0  0  0  0  0  0
   41.6870   84.5380   64.7490 C   0  0  0  0  0  0  0  0  0  0  0  0
   40.4600   84.1440   64.3310 N   0  0  0  0  0  0  0  0  0  0  0  0
   40.4810   83.8150   63.0260 C   0  0  0  0  0  0  0  0  0  0  0  0
   39.4320   83.3740   62.2560 C   0  0  0  0  0  0  0  0  0  0  0  0
   38.8840   82.7470   60.2990 H   0  0  0  0  0  0  0  0  0  0  0  0
   43.0160   83.8640   60.9020 H   0  0  0  0  0  0  0  0  0  0  0  0
   43.4800   84.6610   63.5980 H   0  0  0  0  0  0  0  0  0  0  0  0
   42.0530   84.8690   65.7070 H   0  0  0  0  0  0  0  0  0  0  0  0
   38.4380   83.2450   62.6600 H   0  0  0  0  0  0  0  0  0  0  0  0
   42.3510   83.5880   54.1480 Cl  0  0  0  0  0  0  0  0  0  0  0  0
   43.7380   84.0860   55.0950 C   0  0  0  0  0  0  0  0  0  0  0  0
   43.6940   83.8810   56.4470 C   0  0  0  0  0  0  0  0  0  0  0  0
   44.8250   84.3390   57.1180 C   0  0  0  0  0  0  0  0  0  0  0  0
   45.9020   84.9410   56.5260 C   0  0  0  0  0  0  0  0  0  0  0  0
   45.8800   85.1170   55.1400 C   0  0  0  0  0  0  0  0  0  0  0  0
   47.2170   85.8760   54.3070 Cl  0  0  0  0  0  0  0  0  0  0  0  0
   44.7830   84.6830   54.4230 C   0  0  0  0  0  0  0  0  0  0  0  0
   44.8800   84.2210   58.1920 H   0  0  0  0  0  0  0  0  0  0  0  0
   46.7460   85.2720   57.1120 H   0  0  0  0  0  0  0  0  0  0  0  0
   44.7970   84.8840   52.9770 C   0  0  0  0  0  0  0  0  0  0  0  0
   44.3620   85.9910   52.3110 C   0  0  0  0  0  0  0  0  0  0  0  0
   43.9680   86.7970   52.9020 H   0  0  0  0  0  0  0  0  0  0  0  0
   44.4490   86.0130   50.9340 C   0  0  0  0  0  3  0  0  0  0  0  0
   44.9520   84.9840   50.1630 C   0  0  0  0  0  0  0  0  0  0  0  0
   45.0230   84.9910   49.1010 H   0  0  0  0  0  0  0  0  0  0  0  0
   45.3900   83.8650   50.8670 C   0  0  0  0  0  0  0  0  0  0  0  0
   45.7940   83.0290   50.3070 H   0  0  0  0  0  0  0  0  0  0  0  0
   45.3080   83.8310   52.2440 C   0  0  0  0  0  3  0  0  0  0  0  0
  1  6  1  0  0  0  0
  2  1  2  0  0  0  0
  2  3  1  0  0  0  0
  3  4  2  0  0  0  0
  4  5  1  0  0  0  0
  5 10  1  0  0  0  0
  6  5  2  0  0  0  0
  7  1  1  0  0  0  0
  8  2  1  0  0  0  0
  9 17  1  0  0  0  0
 10  9  2  0  0  0  0
 10 11  1  0  0  0  0
 11 12  2  0  0  0  0
 12 16  1  0  0  0  0
 12 13  1  0  0  0  0
 13 14  1  0  0  0  0
 14 21  1  0  0  0  0
 15 14  2  0  0  0  0
 16 15  1  0  0  0  0
 17 22  1  0  0  0  0
 17 16  2  0  0  0  0
 18  9  1  0  0  0  0
 19 11  1  0  0  0  0
 20 13  1  0  0  0  0
 23 24  1  0  0  0  0
 24 25  1  0  0  0  0
 25  3  1  0  0  0  0
 25 26  2  0  0  0  0
 26 31  1  0  0  0  0
 27 32  1  0  0  0  0
 27 26  1  0  0  0  0
 28 27  2  0  0  0  0
 29 28  1  0  0  0  0
 30 24  2  0  0  0  0
 30 28  1  0  0  0  0
 33 30  1  0  0  0  0
 34 35  1  0  0  0  0
 34 33  1  0  0  0  0
 36 34  2  0  0  0  0
 37 39  2  0  0  0  0
 37 36  1  0  0  0  0
 38 37  1  0  0  0  0
 39 41  1  0  0  0  0
 40 39  1  0  0  0  0
 41 33  2  0  0  0  0
M  END
>  <minimizedAffinity>
-5.06782103

>  <minimizedRMSD>
0.134952351

$$$$
