
 OpenBabel03212520053D

 41 45  0  0  0  0  0  0  0  0999 V2000
   40.6870   81.7880   57.0970 C   0  0  0  0  0  0  0  0  0  0  0  0
   41.7500   82.3830   56.4010 C   0  0  0  0  0  0  0  0  0  0  0  0
   42.5340   83.2930   57.0830 C   0  0  0  0  0  0  0  0  0  0  0  0
   42.2750   83.5920   58.3880 N   0  0  0  0  0  0  0  0  0  0  0  0
   41.2270   82.9850   59.0300 C   0  0  0  0  0  0  0  0  0  0  0  0
   40.4280   82.0850   58.3940 N   0  0  0  0  0  0  0  0  0  0  0  0
   39.9900   81.0640   56.6980 H   0  0  0  0  0  0  0  0  0  0  0  0
   41.7870   81.9750   55.4220 H   0  0  0  0  0  0  0  0  0  0  0  0
   39.6780   83.0960   60.9090 C   0  0  0  0  0  0  0  0  0  0  0  0
   40.9750   83.2850   60.4310 C   0  0  0  0  0  0  0  0  0  0  0  0
   41.9940   83.7360   61.2690 C   0  0  0  0  0  0  0  0  0  0  0  0
   41.7610   84.0140   62.6020 C   0  0  0  0  0  0  0  0  0  0  0  0
   42.4650   84.4460   63.6610 N   0  0  0  0  0  0  0  0  0  0  0  0
   41.6940   84.5330   64.7450 C   0  0  0  0  0  0  0  0  0  0  0  0
   40.4660   84.1380   64.3320 N   0  0  0  0  0  0  0  0  0  0  0  0
   40.4810   83.8140   63.0250 C   0  0  0  0  0  0  0  0  0  0  0  0
   39.4290   83.3740   62.2590 C   0  0  0  0  0  0  0  0  0  0  0  0
   38.8730   82.7530   60.3030 H   0  0  0  0  0  0  0  0  0  0  0  0
   43.0050   83.8810   60.8880 H   0  0  0  0  0  0  0  0  0  0  0  0
   43.4800   84.6680   63.5850 H   0  0  0  0  0  0  0  0  0  0  0  0
   42.0640   84.8610   65.7030 H   0  0  0  0  0  0  0  0  0  0  0  0
   38.4380   83.2400   62.6680 H   0  0  0  0  0  0  0  0  0  0  0  0
   42.4170   83.3760   54.1040 Cl  0  0  0  0  0  0  0  0  0  0  0  0
   43.7260   84.0450   55.0570 C   0  0  0  0  0  0  0  0  0  0  0  0
   43.6360   83.9490   56.4190 C   0  0  0  0  0  0  0  0  0  0  0  0
   44.7040   84.5390   57.0920 C   0  0  0  0  0  0  0  0  0  0  0  0
   45.7630   85.1640   56.4930 C   0  0  0  0  0  0  0  0  0  0  0  0
   45.7900   85.2230   55.0970 C   0  0  0  0  0  0  0  0  0  0  0  0
   47.1090   86.0040   54.2540 Cl  0  0  0  0  0  0  0  0  0  0  0  0
   44.7570   84.6560   54.3780 C   0  0  0  0  0  0  0  0  0  0  0  0
   44.7190   84.5130   58.1730 H   0  0  0  0  0  0  0  0  0  0  0  0
   46.5570   85.6000   57.0800 H   0  0  0  0  0  0  0  0  0  0  0  0
   44.8210   84.7390   52.9220 C   0  0  0  0  0  0  0  0  0  0  0  0
   45.3580   83.8090   52.0820 C   0  0  0  0  0  0  0  0  0  0  0  0
   45.7770   82.9270   52.5300 H   0  0  0  0  0  0  0  0  0  0  0  0
   45.3340   84.0500   50.7240 C   0  0  0  0  0  3  0  0  0  0  0  0
   44.8010   85.1780   50.1350 C   0  0  0  0  0  0  0  0  0  0  0  0
   44.7770   85.3740   49.0900 H   0  0  0  0  0  0  0  0  0  0  0  0
   44.2580   86.1140   51.0140 C   0  0  0  0  0  0  0  0  0  0  0  0
   43.8260   87.0180   50.6020 H   0  0  0  0  0  0  0  0  0  0  0  0
   44.2760   85.8840   52.3750 C   0  0  0  0  0  3  0  0  0  0  0  0
  1  6  1  0  0  0  0
  2  3  1  0  0  0  0
  2  1  2  0  0  0  0
  3  4  2  0  0  0  0
  4  5  1  0  0  0  0
  5 10  1  0  0  0  0
  6  5  2  0  0  0  0
  7  1  1  0  0  0  0
  8  2  1  0  0  0  0
  9 17  1  0  0  0  0
 10  9  2  0  0  0  0
 10 11  1  0  0  0  0
 11 12  2  0  0  0  0
 12 16  1  0  0  0  0
 12 13  1  0  0  0  0
 13 14  1  0  0  0  0
 14 21  1  0  0  0  0
 15 14  2  0  0  0  0
 16 15  1  0  0  0  0
 17 22  1  0  0  0  0
 17 16  2  0  0  0  0
 18  9  1  0  0  0  0
 19 11  1  0  0  0  0
 20 13  1  0  0  0  0
 23 24  1  0  0  0  0
 24 25  1  0  0  0  0
 25  3  1  0  0  0  0
 25 26  2  0  0  0  0
 26 31  1  0  0  0  0
 27 32  1  0  0  0  0
 27 26  1  0  0  0  0
 28 27  2  0  0  0  0
 29 28  1  0  0  0  0
 30 24  2  0  0  0  0
 30 28  1  0  0  0  0
 33 30  1  0  0  0  0
 34 35  1  0  0  0  0
 34 33  2  0  0  0  0
 36 34  1  0  0  0  0
 37 36  2  0  0  0  0
 37 39  1  0  0  0  0
 38 37  1  0  0  0  0
 39 41  2  0  0  0  0
 40 39  1  0  0  0  0
 41 33  1  0  0  0  0
M  END
>  <minimizedAffinity>
-5.10820532

>  <minimizedRMSD>
0.513651848

$$$$
