
 OpenBabel03212520053D

 41 45  0  0  0  0  0  0  0  0999 V2000
   40.1070   81.0580   57.4190 C   0  0  0  0  0  0  0  0  0  0  0  0
   41.2940   81.2130   56.6880 C   0  0  0  0  0  0  0  0  0  0  0  0
   42.3250   81.9190   57.2790 C   0  0  0  0  0  0  0  0  0  0  0  0
   42.1810   82.4390   58.5310 N   0  0  0  0  0  0  0  0  0  0  0  0
   41.0040   82.2610   59.2110 C   0  0  0  0  0  0  0  0  0  0  0  0
   39.9630   81.5750   58.6640 N   0  0  0  0  0  0  0  0  0  0  0  0
   39.2200   80.5370   57.0900 H   0  0  0  0  0  0  0  0  0  0  0  0
   41.1960   80.6980   55.7660 H   0  0  0  0  0  0  0  0  0  0  0  0
   39.5790   82.9200   61.0760 C   0  0  0  0  0  0  0  0  0  0  0  0
   40.8680   82.7920   60.5580 C   0  0  0  0  0  0  0  0  0  0  0  0
   41.9860   83.1510   61.3100 C   0  0  0  0  0  0  0  0  0  0  0  0
   41.8620   83.6470   62.5930 C   0  0  0  0  0  0  0  0  0  0  0  0
   42.6760   84.0780   63.5720 N   0  0  0  0  0  0  0  0  0  0  0  0
   41.9780   84.4580   64.6420 C   0  0  0  0  0  0  0  0  0  0  0  0
   40.6830   84.2500   64.3060 N   0  0  0  0  0  0  0  0  0  0  0  0
   40.5850   83.7550   63.0580 C   0  0  0  0  0  0  0  0  0  0  0  0
   39.4400   83.4220   62.3750 C   0  0  0  0  0  0  0  0  0  0  0  0
   38.7000   82.6580   60.5340 H   0  0  0  0  0  0  0  0  0  0  0  0
   42.9900   83.0490   60.8990 H   0  0  0  0  0  0  0  0  0  0  0  0
   43.7110   84.0910   63.4510 H   0  0  0  0  0  0  0  0  0  0  0  0
   42.4410   84.8360   65.5390 H   0  0  0  0  0  0  0  0  0  0  0  0
   38.4590   83.5360   62.8130 H   0  0  0  0  0  0  0  0  0  0  0  0
   42.6060   84.5120   55.8310 Cl  0  0  0  0  0  0  0  0  0  0  0  0
   43.8280   83.2570   55.8500 C   0  0  0  0  0  0  0  0  0  0  0  0
   43.5680   82.1250   56.5730 C   0  0  0  0  0  0  0  0  0  0  0  0
   44.6090   81.2000   56.5570 C   0  0  0  0  0  0  0  0  0  0  0  0
   45.7960   81.3630   55.8960 C   0  0  0  0  0  0  0  0  0  0  0  0
   45.9930   82.5450   55.1760 C   0  0  0  0  0  0  0  0  0  0  0  0
   47.4820   82.8290   54.3030 Cl  0  0  0  0  0  0  0  0  0  0  0  0
   44.9950   83.4970   55.1570 C   0  0  0  0  0  0  0  0  0  0  0  0
   44.4950   80.2730   57.1020 H   0  0  0  0  0  0  0  0  0  0  0  0
   46.5600   80.6020   55.9280 H   0  0  0  0  0  0  0  0  0  0  0  0
   45.2380   84.7180   54.3940 C   0  0  0  0  0  0  0  0  0  0  0  0
   45.9430   85.8070   54.8160 C   0  0  0  0  0  0  0  0  0  0  0  0
   46.3620   85.7690   55.8030 H   0  0  0  0  0  0  0  0  0  0  0  0
   46.0750   86.8810   53.9580 C   0  0  0  0  0  3  0  0  0  0  0  0
   45.5420   86.9430   52.6880 C   0  0  0  0  0  0  0  0  0  0  0  0
   45.6390   87.7650   52.0200 H   0  0  0  0  0  0  0  0  0  0  0  0
   44.8280   85.8180   52.2810 C   0  0  0  0  0  0  0  0  0  0  0  0
   44.3880   85.8170   51.2900 H   0  0  0  0  0  0  0  0  0  0  0  0
   44.6880   84.7380   53.1280 C   0  0  0  0  0  3  0  0  0  0  0  0
  1  6  1  0  0  0  0
  2  3  1  0  0  0  0
  2  1  2  0  0  0  0
  3  4  2  0  0  0  0
  4  5  1  0  0  0  0
  5 10  1  0  0  0  0
  6  5  2  0  0  0  0
  7  1  1  0  0  0  0
  8  2  1  0  0  0  0
  9 17  1  0  0  0  0
 10  9  2  0  0  0  0
 10 11  1  0  0  0  0
 11 12  2  0  0  0  0
 12 16  1  0  0  0  0
 12 13  1  0  0  0  0
 13 14  1  0  0  0  0
 14 21  1  0  0  0  0
 15 14  2  0  0  0  0
 16 15  1  0  0  0  0
 17 22  1  0  0  0  0
 17 16  2  0  0  0  0
 18  9  1  0  0  0  0
 19 11  1  0  0  0  0
 20 13  1  0  0  0  0
 23 24  1  0  0  0  0
 24 25  1  0  0  0  0
 25  3  1  0  0  0  0
 26 25  2  0  0  0  0
 26 31  1  0  0  0  0
 27 32  1  0  0  0  0
 27 26  1  0  0  0  0
 28 27  2  0  0  0  0
 29 28  1  0  0  0  0
 30 28  1  0  0  0  0
 30 24  2  0  0  0  0
 33 34  1  0  0  0  0
 33 30  1  0  0  0  0
 34 35  1  0  0  0  0
 36 34  2  0  0  0  0
 37 36  1  0  0  0  0
 38 37  1  0  0  0  0
 39 37  2  0  0  0  0
 39 41  1  0  0  0  0
 40 39  1  0  0  0  0
 41 33  2  0  0  0  0
M  END
>  <minimizedAffinity>
-4.69777918

>  <minimizedRMSD>
1.87902236

$$$$
