
 OpenBabel03212520053D

 41 45  0  0  0  0  0  0  0  0999 V2000
   40.6810   81.7980   57.0920 C   0  0  0  0  0  0  0  0  0  0  0  0
   41.7460   82.3920   56.3970 C   0  0  0  0  0  0  0  0  0  0  0  0
   42.5320   83.2990   57.0810 C   0  0  0  0  0  0  0  0  0  0  0  0
   42.2740   83.5960   58.3860 N   0  0  0  0  0  0  0  0  0  0  0  0
   41.2250   82.9900   59.0280 C   0  0  0  0  0  0  0  0  0  0  0  0
   40.4240   82.0930   58.3900 N   0  0  0  0  0  0  0  0  0  0  0  0
   39.9830   81.0770   56.6930 H   0  0  0  0  0  0  0  0  0  0  0  0
   41.7810   81.9860   55.4180 H   0  0  0  0  0  0  0  0  0  0  0  0
   39.6770   83.0970   60.9090 C   0  0  0  0  0  0  0  0  0  0  0  0
   40.9730   83.2880   60.4290 C   0  0  0  0  0  0  0  0  0  0  0  0
   41.9930   83.7400   61.2660 C   0  0  0  0  0  0  0  0  0  0  0  0
   41.7610   84.0160   62.6000 C   0  0  0  0  0  0  0  0  0  0  0  0
   42.4650   84.4480   63.6590 N   0  0  0  0  0  0  0  0  0  0  0  0
   41.6950   84.5330   64.7440 C   0  0  0  0  0  0  0  0  0  0  0  0
   40.4680   84.1360   64.3320 N   0  0  0  0  0  0  0  0  0  0  0  0
   40.4810   83.8140   63.0240 C   0  0  0  0  0  0  0  0  0  0  0  0
   39.4290   83.3730   62.2590 C   0  0  0  0  0  0  0  0  0  0  0  0
   38.8720   82.7540   60.3030 H   0  0  0  0  0  0  0  0  0  0  0  0
   43.0030   83.8870   60.8850 H   0  0  0  0  0  0  0  0  0  0  0  0
   43.4810   84.6710   63.5820 H   0  0  0  0  0  0  0  0  0  0  0  0
   42.0660   84.8600   65.7020 H   0  0  0  0  0  0  0  0  0  0  0  0
   38.4390   83.2370   62.6690 H   0  0  0  0  0  0  0  0  0  0  0  0
   42.4180   83.3820   54.1020 Cl  0  0  0  0  0  0  0  0  0  0  0  0
   43.7260   84.0500   55.0560 C   0  0  0  0  0  0  0  0  0  0  0  0
   43.6360   83.9540   56.4180 C   0  0  0  0  0  0  0  0  0  0  0  0
   44.7030   84.5420   57.0920 C   0  0  0  0  0  0  0  0  0  0  0  0
   45.7640   85.1650   56.4930 C   0  0  0  0  0  0  0  0  0  0  0  0
   45.7920   85.2250   55.0970 C   0  0  0  0  0  0  0  0  0  0  0  0
   47.1130   86.0040   54.2560 Cl  0  0  0  0  0  0  0  0  0  0  0  0
   44.7590   84.6590   54.3780 C   0  0  0  0  0  0  0  0  0  0  0  0
   44.7180   84.5160   58.1730 H   0  0  0  0  0  0  0  0  0  0  0  0
   46.5580   85.6000   57.0810 H   0  0  0  0  0  0  0  0  0  0  0  0
   44.8250   84.7420   52.9220 C   0  0  0  0  0  0  0  0  0  0  0  0
   45.3630   83.8110   52.0830 C   0  0  0  0  0  0  0  0  0  0  0  0
   45.7820   82.9300   52.5310 H   0  0  0  0  0  0  0  0  0  0  0  0
   45.3400   84.0530   50.7250 C   0  0  0  0  0  0  0  0  0  0  0  0
   44.8060   85.1800   50.1350 C   0  0  0  0  0  0  0  0  0  0  0  0
   44.7830   85.3760   49.0900 H   0  0  0  0  0  0  0  0  0  0  0  0
   44.2620   86.1140   51.0140 C   0  0  0  0  0  0  0  0  0  0  0  0
   43.8290   87.0190   50.6010 H   0  0  0  0  0  0  0  0  0  0  0  0
   44.2790   85.8850   52.3740 C   0  0  0  0  0  0  0  0  0  0  0  0
  1  6  1  0  0  0  0
  2  3  1  0  0  0  0
  2  1  2  0  0  0  0
  3  4  2  0  0  0  0
  4  5  1  0  0  0  0
  5 10  1  0  0  0  0
  6  5  2  0  0  0  0
  7  1  1  0  0  0  0
  8  2  1  0  0  0  0
  9 17  1  0  0  0  0
 10  9  2  0  0  0  0
 10 11  1  0  0  0  0
 11 12  2  0  0  0  0
 12 16  1  0  0  0  0
 12 13  1  0  0  0  0
 13 14  1  0  0  0  0
 14 21  1  0  0  0  0
 15 14  2  0  0  0  0
 16 15  1  0  0  0  0
 17 22  1  0  0  0  0
 17 16  2  0  0  0  0
 18  9  1  0  0  0  0
 19 11  1  0  0  0  0
 20 13  1  0  0  0  0
 23 24  1  0  0  0  0
 24 25  1  0  0  0  0
 25  3  1  0  0  0  0
 25 26  2  0  0  0  0
 26 31  1  0  0  0  0
 27 32  1  0  0  0  0
 27 26  1  0  0  0  0
 28 27  2  0  0  0  0
 29 28  1  0  0  0  0
 30 24  2  0  0  0  0
 30 28  1  0  0  0  0
 33 30  1  0  0  0  0
 34 35  1  0  0  0  0
 34 33  2  0  0  0  0
 36 34  1  0  0  0  0
 37 36  2  0  0  0  0
 37 39  1  0  0  0  0
 38 37  1  0  0  0  0
 39 41  2  0  0  0  0
 40 39  1  0  0  0  0
 41 33  1  0  0  0  0
M  END
>  <minimizedAffinity>
-5.11479044

>  <minimizedRMSD>
0.385084182

$$$$
