
 OpenBabel03212520053D

 41 45  0  0  0  0  0  0  0  0999 V2000
   40.7010   81.7730   57.1040 C   0  0  0  0  0  0  0  0  0  0  0  0
   41.7810   82.3470   56.4160 C   0  0  0  0  0  0  0  0  0  0  0  0
   42.5750   83.2450   57.1030 C   0  0  0  0  0  0  0  0  0  0  0  0
   42.3090   83.5510   58.4040 N   0  0  0  0  0  0  0  0  0  0  0  0
   41.2460   82.9640   59.0390 C   0  0  0  0  0  0  0  0  0  0  0  0
   40.4370   82.0770   58.3980 N   0  0  0  0  0  0  0  0  0  0  0  0
   39.9960   81.0600   56.7010 H   0  0  0  0  0  0  0  0  0  0  0  0
   41.8190   81.9370   55.4380 H   0  0  0  0  0  0  0  0  0  0  0  0
   39.6860   83.0900   60.9090 C   0  0  0  0  0  0  0  0  0  0  0  0
   40.9870   83.2720   60.4370 C   0  0  0  0  0  0  0  0  0  0  0  0
   42.0040   83.7230   61.2780 C   0  0  0  0  0  0  0  0  0  0  0  0
   41.7640   84.0080   62.6090 C   0  0  0  0  0  0  0  0  0  0  0  0
   42.4630   84.4420   63.6700 N   0  0  0  0  0  0  0  0  0  0  0  0
   41.6870   84.5380   64.7490 C   0  0  0  0  0  0  0  0  0  0  0  0
   40.4600   84.1450   64.3310 N   0  0  0  0  0  0  0  0  0  0  0  0
   40.4800   83.8150   63.0260 C   0  0  0  0  0  0  0  0  0  0  0  0
   39.4310   83.3750   62.2550 C   0  0  0  0  0  0  0  0  0  0  0  0
   38.8840   82.7480   60.2990 H   0  0  0  0  0  0  0  0  0  0  0  0
   43.0160   83.8620   60.9030 H   0  0  0  0  0  0  0  0  0  0  0  0
   43.4800   84.6600   63.5980 H   0  0  0  0  0  0  0  0  0  0  0  0
   42.0530   84.8680   65.7070 H   0  0  0  0  0  0  0  0  0  0  0  0
   38.4380   83.2470   62.6600 H   0  0  0  0  0  0  0  0  0  0  0  0
   42.3500   83.5870   54.1480 Cl  0  0  0  0  0  0  0  0  0  0  0  0
   43.7370   84.0860   55.0940 C   0  0  0  0  0  0  0  0  0  0  0  0
   43.6940   83.8800   56.4470 C   0  0  0  0  0  0  0  0  0  0  0  0
   44.8250   84.3390   57.1180 C   0  0  0  0  0  0  0  0  0  0  0  0
   45.9010   84.9400   56.5260 C   0  0  0  0  0  0  0  0  0  0  0  0
   45.8790   85.1160   55.1390 C   0  0  0  0  0  0  0  0  0  0  0  0
   47.2160   85.8760   54.3060 Cl  0  0  0  0  0  0  0  0  0  0  0  0
   44.7820   84.6820   54.4230 C   0  0  0  0  0  0  0  0  0  0  0  0
   44.8800   84.2210   58.1920 H   0  0  0  0  0  0  0  0  0  0  0  0
   46.7460   85.2710   57.1110 H   0  0  0  0  0  0  0  0  0  0  0  0
   44.7960   84.8830   52.9770 C   0  0  0  0  0  0  0  0  0  0  0  0
   44.3610   85.9910   52.3100 C   0  0  0  0  0  0  0  0  0  0  0  0
   43.9680   86.7970   52.9020 H   0  0  0  0  0  0  0  0  0  0  0  0
   44.4480   86.0110   50.9340 C   0  0  0  0  0  3  0  0  0  0  0  0
   44.9500   84.9830   50.1620 C   0  0  0  0  0  0  0  0  0  0  0  0
   45.0210   84.9900   49.1010 H   0  0  0  0  0  0  0  0  0  0  0  0
   45.3870   83.8640   50.8670 C   0  0  0  0  0  0  0  0  0  0  0  0
   45.7900   83.0280   50.3060 H   0  0  0  0  0  0  0  0  0  0  0  0
   45.3060   83.8300   52.2430 C   0  0  0  0  0  3  0  0  0  0  0  0
  1  6  1  0  0  0  0
  2  3  1  0  0  0  0
  2  1  2  0  0  0  0
  3  4  2  0  0  0  0
  4  5  1  0  0  0  0
  5 10  1  0  0  0  0
  6  5  2  0  0  0  0
  7  1  1  0  0  0  0
  8  2  1  0  0  0  0
  9 17  1  0  0  0  0
 10  9  2  0  0  0  0
 10 11  1  0  0  0  0
 11 12  2  0  0  0  0
 12 16  1  0  0  0  0
 12 13  1  0  0  0  0
 13 14  1  0  0  0  0
 14 21  1  0  0  0  0
 15 14  2  0  0  0  0
 16 15  1  0  0  0  0
 17 22  1  0  0  0  0
 17 16  2  0  0  0  0
 18  9  1  0  0  0  0
 19 11  1  0  0  0  0
 20 13  1  0  0  0  0
 23 24  1  0  0  0  0
 24 25  1  0  0  0  0
 25  3  1  0  0  0  0
 25 26  2  0  0  0  0
 26 31  1  0  0  0  0
 27 32  1  0  0  0  0
 27 26  1  0  0  0  0
 28 27  2  0  0  0  0
 29 28  1  0  0  0  0
 30 24  2  0  0  0  0
 30 28  1  0  0  0  0
 33 30  1  0  0  0  0
 34 35  1  0  0  0  0
 34 33  1  0  0  0  0
 36 34  2  0  0  0  0
 37 39  2  0  0  0  0
 37 36  1  0  0  0  0
 38 37  1  0  0  0  0
 39 41  1  0  0  0  0
 40 39  1  0  0  0  0
 41 33  2  0  0  0  0
M  END
>  <minimizedAffinity>
-5.06464195

>  <minimizedRMSD>
0.149327129

$$$$
