
 OpenBabel03212520053D

 41 45  0  0  0  0  0  0  0  0999 V2000
   40.7020   81.7750   57.1040 C   0  0  0  0  0  0  0  0  0  0  0  0
   41.7820   82.3490   56.4160 C   0  0  0  0  0  0  0  0  0  0  0  0
   42.5760   83.2470   57.1040 C   0  0  0  0  0  0  0  0  0  0  0  0
   42.3110   83.5530   58.4060 N   0  0  0  0  0  0  0  0  0  0  0  0
   41.2470   82.9650   59.0400 C   0  0  0  0  0  0  0  0  0  0  0  0
   40.4380   82.0790   58.3990 N   0  0  0  0  0  0  0  0  0  0  0  0
   39.9960   81.0630   56.7010 H   0  0  0  0  0  0  0  0  0  0  0  0
   41.8200   81.9400   55.4390 H   0  0  0  0  0  0  0  0  0  0  0  0
   39.6880   83.0900   60.9100 C   0  0  0  0  0  0  0  0  0  0  0  0
   40.9880   83.2730   60.4380 C   0  0  0  0  0  0  0  0  0  0  0  0
   42.0040   83.7250   61.2790 C   0  0  0  0  0  0  0  0  0  0  0  0
   41.7650   84.0090   62.6100 C   0  0  0  0  0  0  0  0  0  0  0  0
   42.4630   84.4450   63.6710 N   0  0  0  0  0  0  0  0  0  0  0  0
   41.6870   84.5390   64.7500 C   0  0  0  0  0  0  0  0  0  0  0  0
   40.4610   84.1450   64.3320 N   0  0  0  0  0  0  0  0  0  0  0  0
   40.4810   83.8160   63.0270 C   0  0  0  0  0  0  0  0  0  0  0  0
   39.4320   83.3740   62.2570 C   0  0  0  0  0  0  0  0  0  0  0  0
   38.8850   82.7460   60.3010 H   0  0  0  0  0  0  0  0  0  0  0  0
   43.0170   83.8660   60.9030 H   0  0  0  0  0  0  0  0  0  0  0  0
   43.4800   84.6640   63.5990 H   0  0  0  0  0  0  0  0  0  0  0  0
   42.0530   84.8700   65.7080 H   0  0  0  0  0  0  0  0  0  0  0  0
   38.4390   83.2450   62.6610 H   0  0  0  0  0  0  0  0  0  0  0  0
   42.3520   83.5890   54.1490 Cl  0  0  0  0  0  0  0  0  0  0  0  0
   43.7390   84.0870   55.0960 C   0  0  0  0  0  0  0  0  0  0  0  0
   43.6950   83.8820   56.4480 C   0  0  0  0  0  0  0  0  0  0  0  0
   44.8260   84.3400   57.1200 C   0  0  0  0  0  0  0  0  0  0  0  0
   45.9030   84.9420   56.5280 C   0  0  0  0  0  0  0  0  0  0  0  0
   45.8810   85.1180   55.1420 C   0  0  0  0  0  0  0  0  0  0  0  0
   47.2180   85.8780   54.3090 Cl  0  0  0  0  0  0  0  0  0  0  0  0
   44.7840   84.6840   54.4250 C   0  0  0  0  0  0  0  0  0  0  0  0
   44.8810   84.2230   58.1940 H   0  0  0  0  0  0  0  0  0  0  0  0
   46.7470   85.2730   57.1130 H   0  0  0  0  0  0  0  0  0  0  0  0
   44.7990   84.8850   52.9790 C   0  0  0  0  0  0  0  0  0  0  0  0
   44.3630   85.9930   52.3120 C   0  0  0  0  0  0  0  0  0  0  0  0
   43.9700   86.7980   52.9030 H   0  0  0  0  0  0  0  0  0  0  0  0
   44.4510   86.0130   50.9360 C   0  0  0  0  0  3  0  0  0  0  0  0
   44.9540   84.9850   50.1640 C   0  0  0  0  0  0  0  0  0  0  0  0
   45.0260   84.9910   49.1030 H   0  0  0  0  0  0  0  0  0  0  0  0
   45.3920   83.8660   50.8680 C   0  0  0  0  0  0  0  0  0  0  0  0
   45.7960   83.0300   50.3090 H   0  0  0  0  0  0  0  0  0  0  0  0
   45.3100   83.8320   52.2450 C   0  0  0  0  0  3  0  0  0  0  0  0
  1  6  1  0  0  0  0
  2  1  2  0  0  0  0
  2  3  1  0  0  0  0
  3  4  2  0  0  0  0
  4  5  1  0  0  0  0
  5 10  1  0  0  0  0
  6  5  2  0  0  0  0
  7  1  1  0  0  0  0
  8  2  1  0  0  0  0
  9 17  1  0  0  0  0
 10  9  2  0  0  0  0
 10 11  1  0  0  0  0
 11 12  2  0  0  0  0
 12 16  1  0  0  0  0
 12 13  1  0  0  0  0
 13 14  1  0  0  0  0
 14 21  1  0  0  0  0
 15 14  2  0  0  0  0
 16 15  1  0  0  0  0
 17 22  1  0  0  0  0
 17 16  2  0  0  0  0
 18  9  1  0  0  0  0
 19 11  1  0  0  0  0
 20 13  1  0  0  0  0
 23 24  1  0  0  0  0
 24 25  1  0  0  0  0
 25  3  1  0  0  0  0
 25 26  2  0  0  0  0
 26 31  1  0  0  0  0
 27 32  1  0  0  0  0
 27 26  1  0  0  0  0
 28 27  2  0  0  0  0
 29 28  1  0  0  0  0
 30 24  2  0  0  0  0
 30 28  1  0  0  0  0
 33 30  1  0  0  0  0
 34 35  1  0  0  0  0
 34 33  1  0  0  0  0
 36 34  2  0  0  0  0
 37 39  2  0  0  0  0
 37 36  1  0  0  0  0
 38 37  1  0  0  0  0
 39 41  1  0  0  0  0
 40 39  1  0  0  0  0
 41 33  2  0  0  0  0
M  END
>  <minimizedAffinity>
-5.06763124

>  <minimizedRMSD>
0.345423549

$$$$
