
 OpenBabel03212520063D

 41 45  0  0  0  0  0  0  0  0999 V2000
   42.4560   73.0620   56.4650 C   0  0  0  0  0  0  0  0  0  0  0  0
   42.3450   71.7590   56.9730 C   0  0  0  0  0  0  0  0  0  0  0  0
   41.8550   71.6100   58.2560 C   0  0  0  0  0  0  0  0  0  0  0  0
   41.4920   72.7000   58.9910 N   0  0  0  0  0  0  0  0  0  0  0  0
   41.6140   73.9550   58.4540 C   0  0  0  0  0  0  0  0  0  0  0  0
   42.0950   74.1460   57.1950 N   0  0  0  0  0  0  0  0  0  0  0  0
   42.8220   73.3350   55.4850 H   0  0  0  0  0  0  0  0  0  0  0  0
   42.6440   71.0740   56.2200 H   0  0  0  0  0  0  0  0  0  0  0  0
   40.0880   74.9630   60.0660 C   0  0  0  0  0  0  0  0  0  0  0  0
   41.1970   75.1110   59.2320 C   0  0  0  0  0  0  0  0  0  0  0  0
   41.8850   76.3210   59.1550 C   0  0  0  0  0  0  0  0  0  0  0  0
   41.4970   77.4190   59.8990 C   0  0  0  0  0  0  0  0  0  0  0  0
   41.8990   78.6890   60.0750 N   0  0  0  0  0  0  0  0  0  0  0  0
   41.1190   79.3210   60.9510 C   0  0  0  0  0  0  0  0  0  0  0  0
   40.2010   78.3990   61.3290 N   0  0  0  0  0  0  0  0  0  0  0  0
   40.4100   77.2280   60.6990 C   0  0  0  0  0  0  0  0  0  0  0  0
   39.6850   76.0670   60.8250 C   0  0  0  0  0  0  0  0  0  0  0  0
   39.5360   74.0560   60.1530 H   0  0  0  0  0  0  0  0  0  0  0  0
   42.7490   76.4300   58.5010 H   0  0  0  0  0  0  0  0  0  0  0  0
   42.7220   79.0730   59.5640 H   0  0  0  0  0  0  0  0  0  0  0  0
   41.2700   80.3500   61.2350 H   0  0  0  0  0  0  0  0  0  0  0  0
   38.8320   75.9930   61.4830 H   0  0  0  0  0  0  0  0  0  0  0  0
   42.8160   71.3200   61.0650 Cl  0  0  0  0  0  0  0  0  0  0  0  0
   42.1450   70.0110   60.1130 C   0  0  0  0  0  0  0  0  0  0  0  0
   41.7290   70.2960   58.8410 C   0  0  0  0  0  0  0  0  0  0  0  0
   41.1800   69.2030   58.1740 C   0  0  0  0  0  0  0  0  0  0  0  0
   41.0500   67.9460   58.6990 C   0  0  0  0  0  0  0  0  0  0  0  0
   41.4980   67.7260   60.0040 C   0  0  0  0  0  0  0  0  0  0  0  0
   41.3680   66.1480   60.7470 Cl  0  0  0  0  0  0  0  0  0  0  0  0
   42.0500   68.7740   60.7130 C   0  0  0  0  0  0  0  0  0  0  0  0
   40.8210   69.3330   57.1620 H   0  0  0  0  0  0  0  0  0  0  0  0
   40.6130   67.1450   58.1230 H   0  0  0  0  0  0  0  0  0  0  0  0
   42.5070   68.5050   62.0730 C   0  0  0  0  0  0  0  0  0  0  0  0
   43.7670   68.1360   62.4440 C   0  0  0  0  0  0  0  0  0  0  0  0
   44.4970   68.0310   61.6640 H   0  0  0  0  0  0  0  0  0  0  0  0
   44.0250   67.9200   63.7820 C   0  0  0  0  0  3  0  0  0  0  0  0
   43.0960   68.0510   64.7940 C   0  0  0  0  0  0  0  0  0  0  0  0
   43.2850   67.8870   65.8280 H   0  0  0  0  0  0  0  0  0  0  0  0
   41.8180   68.4290   64.3880 C   0  0  0  0  0  0  0  0  0  0  0  0
   41.0500   68.5450   65.1450 H   0  0  0  0  0  0  0  0  0  0  0  0
   41.5460   68.6480   63.0530 C   0  0  0  0  0  3  0  0  0  0  0  0
  1  2  2  0  0  0  0
  1  6  1  0  0  0  0
  2  3  1  0  0  0  0
  3 25  1  0  0  0  0
  3  4  2  0  0  0  0
  5  4  1  0  0  0  0
  5 10  1  0  0  0  0
  6  5  2  0  0  0  0
  7  1  1  0  0  0  0
  8  2  1  0  0  0  0
  9 18  1  0  0  0  0
  9 17  1  0  0  0  0
 10  9  2  0  0  0  0
 11 10  1  0  0  0  0
 11 12  2  0  0  0  0
 12 13  1  0  0  0  0
 12 16  1  0  0  0  0
 13 14  1  0  0  0  0
 14 21  1  0  0  0  0
 14 15  2  0  0  0  0
 16 17  2  0  0  0  0
 16 15  1  0  0  0  0
 17 22  1  0  0  0  0
 19 11  1  0  0  0  0
 20 13  1  0  0  0  0
 24 30  1  0  0  0  0
 24 23  1  0  0  0  0
 25 24  2  0  0  0  0
 26 27  2  0  0  0  0
 26 25  1  0  0  0  0
 27 28  1  0  0  0  0
 28 30  2  0  0  0  0
 28 29  1  0  0  0  0
 30 33  1  0  0  0  0
 31 26  1  0  0  0  0
 32 27  1  0  0  0  0
 33 34  2  0  0  0  0
 33 41  1  0  0  0  0
 34 36  1  0  0  0  0
 35 34  1  0  0  0  0
 36 37  2  0  0  0  0
 37 38  1  0  0  0  0
 39 37  1  0  0  0  0
 39 40  1  0  0  0  0
 41 39  2  0  0  0  0
M  END
>  <minimizedAffinity>
-7.73633528

$$$$

 OpenBabel03212520063D

 41 45  0  0  0  0  0  0  0  0999 V2000
   43.8490   69.9360   58.7370 C   0  0  0  0  0  0  0  0  0  0  0  0
   43.0780   71.0490   58.3730 C   0  0  0  0  0  0  0  0  0  0  0  0
   41.9220   71.2910   59.0900 C   0  0  0  0  0  0  0  0  0  0  0  0
   41.5570   70.4710   60.1160 N   0  0  0  0  0  0  0  0  0  0  0  0
   42.3430   69.3950   60.4410 C   0  0  0  0  0  0  0  0  0  0  0  0
   43.4880   69.1190   59.7580 N   0  0  0  0  0  0  0  0  0  0  0  0
   44.7720   69.6190   58.2710 H   0  0  0  0  0  0  0  0  0  0  0  0
   43.5680   71.5600   57.5830 H   0  0  0  0  0  0  0  0  0  0  0  0
   42.3810   68.9220   62.8320 C   0  0  0  0  0  0  0  0  0  0  0  0
   41.9640   68.5420   61.5560 C   0  0  0  0  0  0  0  0  0  0  0  0
   41.2040   67.3900   61.3590 C   0  0  0  0  0  0  0  0  0  0  0  0
   40.8340   66.5810   62.4160 C   0  0  0  0  0  0  0  0  0  0  0  0
   40.1380   65.4470   62.6000 N   0  0  0  0  0  0  0  0  0  0  0  0
   40.1010   65.1110   63.8890 C   0  0  0  0  0  0  0  0  0  0  0  0
   40.8040   66.0800   64.5220 N   0  0  0  0  0  0  0  0  0  0  0  0
   41.2630   66.9910   63.6430 C   0  0  0  0  0  0  0  0  0  0  0  0
   42.0130   68.1110   63.9120 C   0  0  0  0  0  0  0  0  0  0  0  0
   42.9620   69.7930   63.0240 H   0  0  0  0  0  0  0  0  0  0  0  0
   40.8820   67.0980   60.3600 H   0  0  0  0  0  0  0  0  0  0  0  0
   39.7050   64.9400   61.7980 H   0  0  0  0  0  0  0  0  0  0  0  0
   39.5920   64.2330   64.2510 H   0  0  0  0  0  0  0  0  0  0  0  0
   42.3160   68.3710   64.9160 H   0  0  0  0  0  0  0  0  0  0  0  0
   42.4570   73.8280   60.5650 Cl  0  0  0  0  0  0  0  0  0  0  0  0
   41.1960   73.6340   59.3660 C   0  0  0  0  0  0  0  0  0  0  0  0
   41.0770   72.4140   58.7560 C   0  0  0  0  0  0  0  0  0  0  0  0
   40.0710   72.3650   57.7950 C   0  0  0  0  0  0  0  0  0  0  0  0
   39.2530   73.4090   57.4590 C   0  0  0  0  0  0  0  0  0  0  0  0
   39.4290   74.6260   58.1230 C   0  0  0  0  0  0  0  0  0  0  0  0
   38.4240   76.0080   57.7510 Cl  0  0  0  0  0  0  0  0  0  0  0  0
   40.4130   74.7320   59.0850 C   0  0  0  0  0  0  0  0  0  0  0  0
   39.9030   71.4410   57.2590 H   0  0  0  0  0  0  0  0  0  0  0  0
   38.4920   73.2980   56.7010 H   0  0  0  0  0  0  0  0  0  0  0  0
   40.5660   76.0190   59.7570 C   0  0  0  0  0  0  0  0  0  0  0  0
   39.8360   76.4690   60.8180 C   0  0  0  0  0  0  0  0  0  0  0  0
   39.0730   75.8170   61.2010 H   0  0  0  0  0  0  0  0  0  0  0  0
   40.1160   77.7180   61.3310 C   0  0  0  0  0  3  0  0  0  0  0  0
   41.0930   78.5660   60.8490 C   0  0  0  0  0  0  0  0  0  0  0  0
   41.3160   79.5310   61.2370 H   0  0  0  0  0  0  0  0  0  0  0  0
   41.8230   78.0830   59.7660 C   0  0  0  0  0  0  0  0  0  0  0  0
   42.6020   78.7110   59.3480 H   0  0  0  0  0  0  0  0  0  0  0  0
   41.5530   76.8350   59.2430 C   0  0  0  0  0  3  0  0  0  0  0  0
  1  6  1  0  0  0  0
  2  1  2  0  0  0  0
  2  3  1  0  0  0  0
  3  4  2  0  0  0  0
  4  5  1  0  0  0  0
  5 10  1  0  0  0  0
  6  5  2  0  0  0  0
  7  1  1  0  0  0  0
  8  2  1  0  0  0  0
  9 18  1  0  0  0  0
  9 17  1  0  0  0  0
 10  9  2  0  0  0  0
 11 10  1  0  0  0  0
 11 12  2  0  0  0  0
 12 13  1  0  0  0  0
 12 16  1  0  0  0  0
 13 14  1  0  0  0  0
 14 21  1  0  0  0  0
 14 15  2  0  0  0  0
 16 17  2  0  0  0  0
 16 15  1  0  0  0  0
 17 22  1  0  0  0  0
 19 11  1  0  0  0  0
 20 13  1  0  0  0  0
 24 23  1  0  0  0  0
 25  3  1  0  0  0  0
 25 24  2  0  0  0  0
 26 25  1  0  0  0  0
 27 26  2  0  0  0  0
 27 28  1  0  0  0  0
 28 30  2  0  0  0  0
 29 28  1  0  0  0  0
 30 24  1  0  0  0  0
 30 33  1  0  0  0  0
 31 26  1  0  0  0  0
 32 27  1  0  0  0  0
 33 34  1  0  0  0  0
 34 35  1  0  0  0  0
 34 36  2  0  0  0  0
 37 38  1  0  0  0  0
 37 36  1  0  0  0  0
 39 37  2  0  0  0  0
 40 39  1  0  0  0  0
 41 33  2  0  0  0  0
 41 39  1  0  0  0  0
M  END
>  <minimizedAffinity>
-7.45331478

$$$$

 OpenBabel03212520063D

 41 45  0  0  0  0  0  0  0  0999 V2000
   43.5260   74.4460   59.9150 C   0  0  0  0  0  0  0  0  0  0  0  0
   43.4570   73.2720   60.6790 C   0  0  0  0  0  0  0  0  0  0  0  0
   42.2400   72.6220   60.7490 C   0  0  0  0  0  0  0  0  0  0  0  0
   41.1520   73.1140   60.0910 N   0  0  0  0  0  0  0  0  0  0  0  0
   41.2650   74.2640   59.3540 C   0  0  0  0  0  0  0  0  0  0  0  0
   42.4440   74.9360   59.2610 N   0  0  0  0  0  0  0  0  0  0  0  0
   44.4030   75.0610   59.7690 H   0  0  0  0  0  0  0  0  0  0  0  0
   44.4230   73.0590   61.0640 H   0  0  0  0  0  0  0  0  0  0  0  0
   39.9480   76.1490   58.5450 C   0  0  0  0  0  0  0  0  0  0  0  0
   40.1080   74.7660   58.6290 C   0  0  0  0  0  0  0  0  0  0  0  0
   39.1950   73.8970   58.0320 C   0  0  0  0  0  0  0  0  0  0  0  0
   38.1000   74.3700   57.3360 C   0  0  0  0  0  0  0  0  0  0  0  0
   37.0570   73.8570   56.6610 N   0  0  0  0  0  0  0  0  0  0  0  0
   36.2790   74.8230   56.1750 C   0  0  0  0  0  0  0  0  0  0  0  0
   36.8700   75.9760   56.5670 N   0  0  0  0  0  0  0  0  0  0  0  0
   37.9850   75.7270   57.2790 C   0  0  0  0  0  0  0  0  0  0  0  0
   38.8420   76.6410   57.8410 C   0  0  0  0  0  0  0  0  0  0  0  0
   40.6220   76.8460   58.9860 H   0  0  0  0  0  0  0  0  0  0  0  0
   39.3250   72.8180   58.1030 H   0  0  0  0  0  0  0  0  0  0  0  0
   36.9280   72.8270   56.5650 H   0  0  0  0  0  0  0  0  0  0  0  0
   35.3880   74.6240   55.6010 H   0  0  0  0  0  0  0  0  0  0  0  0
   38.6830   77.7060   57.7530 H   0  0  0  0  0  0  0  0  0  0  0  0
   42.9660   70.0750   59.3770 Cl  0  0  0  0  0  0  0  0  0  0  0  0
   42.3790   70.1730   61.0250 C   0  0  0  0  0  0  0  0  0  0  0  0
   42.1010   71.4150   61.5300 C   0  0  0  0  0  0  0  0  0  0  0  0
   41.6740   71.3960   62.8550 C   0  0  0  0  0  0  0  0  0  0  0  0
   41.5290   70.2700   63.6190 C   0  0  0  0  0  0  0  0  0  0  0  0
   41.8290   69.0350   63.0380 C   0  0  0  0  0  0  0  0  0  0  0  0
   41.6690   67.5500   63.9480 Cl  0  0  0  0  0  0  0  0  0  0  0  0
   42.2580   68.9940   61.7270 C   0  0  0  0  0  0  0  0  0  0  0  0
   41.4320   72.3320   63.3400 H   0  0  0  0  0  0  0  0  0  0  0  0
   41.1930   70.3320   64.6430 H   0  0  0  0  0  0  0  0  0  0  0  0
   42.5620   67.6850   61.1560 C   0  0  0  0  0  0  0  0  0  0  0  0
   43.7650   67.0430   61.2010 C   0  0  0  0  0  0  0  0  0  0  0  0
   44.5710   67.5450   61.7030 H   0  0  0  0  0  0  0  0  0  0  0  0
   43.8750   65.8040   60.6050 C   0  0  0  0  0  3  0  0  0  0  0  0
   42.8480   65.1480   59.9560 C   0  0  0  0  0  0  0  0  0  0  0  0
   42.9230   64.1930   59.4940 H   0  0  0  0  0  0  0  0  0  0  0  0
   41.6310   65.8260   59.9250 C   0  0  0  0  0  0  0  0  0  0  0  0
   40.7920   65.3540   59.4260 H   0  0  0  0  0  0  0  0  0  0  0  0
   41.5070   67.0660   60.5160 C   0  0  0  0  0  3  0  0  0  0  0  0
  1  2  1  0  0  0  0
  2  3  2  0  0  0  0
  2  8  1  0  0  0  0
  3 25  1  0  0  0  0
  4  3  1  0  0  0  0
  5  4  2  0  0  0  0
  6  5  1  0  0  0  0
  6  1  2  0  0  0  0
  7  1  1  0  0  0  0
  9 10  1  0  0  0  0
  9 18  1  0  0  0  0
 10  5  1  0  0  0  0
 11 19  1  0  0  0  0
 11 10  2  0  0  0  0
 12 11  1  0  0  0  0
 13 12  1  0  0  0  0
 14 15  2  0  0  0  0
 14 13  1  0  0  0  0
 15 16  1  0  0  0  0
 16 12  2  0  0  0  0
 16 17  1  0  0  0  0
 17  9  2  0  0  0  0
 20 13  1  0  0  0  0
 21 14  1  0  0  0  0
 22 17  1  0  0  0  0
 23 24  1  0  0  0  0
 24 25  2  0  0  0  0
 24 30  1  0  0  0  0
 25 26  1  0  0  0  0
 26 31  1  0  0  0  0
 26 27  2  0  0  0  0
 27 32  1  0  0  0  0
 28 27  1  0  0  0  0
 28 29  1  0  0  0  0
 30 28  2  0  0  0  0
 33 34  1  0  0  0  0
 33 30  1  0  0  0  0
 34 35  1  0  0  0  0
 36 34  2  0  0  0  0
 37 36  1  0  0  0  0
 38 37  1  0  0  0  0
 39 37  2  0  0  0  0
 39 41  1  0  0  0  0
 40 39  1  0  0  0  0
 41 33  2  0  0  0  0
M  END
>  <minimizedAffinity>
-7.43972683

$$$$

 OpenBabel03212520063D

 41 45  0  0  0  0  0  0  0  0999 V2000
   44.7930   73.7210   59.1380 C   0  0  0  0  0  0  0  0  0  0  0  0
   43.9700   74.8120   58.8230 C   0  0  0  0  0  0  0  0  0  0  0  0
   42.6840   74.8130   59.3300 C   0  0  0  0  0  0  0  0  0  0  0  0
   42.2450   73.7850   60.1100 N   0  0  0  0  0  0  0  0  0  0  0  0
   43.0850   72.7400   60.3960 C   0  0  0  0  0  0  0  0  0  0  0  0
   44.3570   72.6980   59.9140 N   0  0  0  0  0  0  0  0  0  0  0  0
   45.8150   73.5790   58.8150 H   0  0  0  0  0  0  0  0  0  0  0  0
   44.5270   75.5030   58.2440 H   0  0  0  0  0  0  0  0  0  0  0  0
   41.9630   72.0120   62.4340 C   0  0  0  0  0  0  0  0  0  0  0  0
   42.6200   71.6620   61.2540 C   0  0  0  0  0  0  0  0  0  0  0  0
   42.8150   70.3250   60.9060 C   0  0  0  0  0  0  0  0  0  0  0  0
   42.3680   69.2980   61.7140 C   0  0  0  0  0  0  0  0  0  0  0  0
   42.3760   67.9550   61.7050 N   0  0  0  0  0  0  0  0  0  0  0  0
   41.7740   67.4640   62.7880 C   0  0  0  0  0  0  0  0  0  0  0  0
   41.3800   68.5530   63.4900 N   0  0  0  0  0  0  0  0  0  0  0  0
   41.7310   69.6870   62.8550 C   0  0  0  0  0  0  0  0  0  0  0  0
   41.5040   70.9800   63.2610 C   0  0  0  0  0  0  0  0  0  0  0  0
   41.7940   73.0190   62.7350 H   0  0  0  0  0  0  0  0  0  0  0  0
   43.3300   70.0590   59.9840 H   0  0  0  0  0  0  0  0  0  0  0  0
   42.8110   67.4200   60.9230 H   0  0  0  0  0  0  0  0  0  0  0  0
   41.6720   66.4070   62.9740 H   0  0  0  0  0  0  0  0  0  0  0  0
   40.9900   71.2090   64.1830 H   0  0  0  0  0  0  0  0  0  0  0  0
   40.8110   74.3860   57.0490 Cl  0  0  0  0  0  0  0  0  0  0  0  0
   40.8830   75.8540   58.0020 C   0  0  0  0  0  0  0  0  0  0  0  0
   41.7830   75.9020   59.0320 C   0  0  0  0  0  0  0  0  0  0  0  0
   41.7440   77.0930   59.7530 C   0  0  0  0  0  0  0  0  0  0  0  0
   40.9060   78.1420   59.4930 C   0  0  0  0  0  0  0  0  0  0  0  0
   40.0140   78.0250   58.4240 C   0  0  0  0  0  0  0  0  0  0  0  0
   38.9100   79.3230   58.0260 Cl  0  0  0  0  0  0  0  0  0  0  0  0
   40.0070   76.8660   57.6750 C   0  0  0  0  0  0  0  0  0  0  0  0
   42.4200   77.2220   60.5870 H   0  0  0  0  0  0  0  0  0  0  0  0
   40.9320   79.0380   60.0960 H   0  0  0  0  0  0  0  0  0  0  0  0
   39.0610   76.7820   56.5670 C   0  0  0  0  0  0  0  0  0  0  0  0
   39.2770   77.1980   55.2860 C   0  0  0  0  0  0  0  0  0  0  0  0
   40.2350   77.6300   55.0650 H   0  0  0  0  0  0  0  0  0  0  0  0
   38.2660   77.0410   54.3610 C   0  0  0  0  0  3  0  0  0  0  0  0
   37.0310   76.4870   54.6300 C   0  0  0  0  0  0  0  0  0  0  0  0
   36.2460   76.3620   53.9240 H   0  0  0  0  0  0  0  0  0  0  0  0
   36.8370   76.0700   55.9450 C   0  0  0  0  0  0  0  0  0  0  0  0
   35.8820   75.6290   56.2100 H   0  0  0  0  0  0  0  0  0  0  0  0
   37.8390   76.2220   56.8810 C   0  0  0  0  0  3  0  0  0  0  0  0
  1  6  1  0  0  0  0
  2  1  2  0  0  0  0
  2  3  1  0  0  0  0
  3  4  2  0  0  0  0
  4  5  1  0  0  0  0
  5 10  1  0  0  0  0
  6  5  2  0  0  0  0
  7  1  1  0  0  0  0
  8  2  1  0  0  0  0
  9 18  1  0  0  0  0
  9 17  1  0  0  0  0
 10  9  2  0  0  0  0
 11 10  1  0  0  0  0
 11 12  2  0  0  0  0
 12 16  1  0  0  0  0
 13 12  1  0  0  0  0
 13 14  1  0  0  0  0
 14 21  1  0  0  0  0
 14 15  2  0  0  0  0
 16 17  2  0  0  0  0
 16 15  1  0  0  0  0
 17 22  1  0  0  0  0
 19 11  1  0  0  0  0
 20 13  1  0  0  0  0
 23 24  1  0  0  0  0
 24 25  1  0  0  0  0
 25  3  1  0  0  0  0
 25 26  2  0  0  0  0
 26 31  1  0  0  0  0
 27 26  1  0  0  0  0
 27 32  1  0  0  0  0
 28 27  2  0  0  0  0
 29 28  1  0  0  0  0
 30 24  2  0  0  0  0
 30 28  1  0  0  0  0
 33 41  1  0  0  0  0
 33 30  1  0  0  0  0
 34 33  2  0  0  0  0
 35 34  1  0  0  0  0
 36 37  2  0  0  0  0
 36 34  1  0  0  0  0
 37 39  1  0  0  0  0
 38 37  1  0  0  0  0
 39 40  1  0  0  0  0
 39 41  2  0  0  0  0
M  END
>  <minimizedAffinity>
-7.3783989

$$$$

 OpenBabel03212520063D

 41 45  0  0  0  0  0  0  0  0999 V2000
   44.3880   74.1530   60.0930 C   0  0  0  0  0  0  0  0  0  0  0  0
   43.4280   74.9280   59.4250 C   0  0  0  0  0  0  0  0  0  0  0  0
   42.1300   74.4560   59.3940 C   0  0  0  0  0  0  0  0  0  0  0  0
   41.8060   73.2780   60.0000 N   0  0  0  0  0  0  0  0  0  0  0  0
   42.7750   72.5540   60.6440 C   0  0  0  0  0  0  0  0  0  0  0  0
   44.0660   72.9820   60.6950 N   0  0  0  0  0  0  0  0  0  0  0  0
   45.4370   74.3900   60.1980 H   0  0  0  0  0  0  0  0  0  0  0  0
   43.8920   75.8130   59.0690 H   0  0  0  0  0  0  0  0  0  0  0  0
   42.4490   70.1400   60.5610 C   0  0  0  0  0  0  0  0  0  0  0  0
   42.4160   71.3140   61.3140 C   0  0  0  0  0  0  0  0  0  0  0  0
   42.0620   71.2970   62.6630 C   0  0  0  0  0  0  0  0  0  0  0  0
   41.7300   70.1200   63.3060 C   0  0  0  0  0  0  0  0  0  0  0  0
   41.3540   69.7350   64.5360 N   0  0  0  0  0  0  0  0  0  0  0  0
   41.1560   68.4190   64.5870 C   0  0  0  0  0  0  0  0  0  0  0  0
   41.4220   67.9780   63.3350 N   0  0  0  0  0  0  0  0  0  0  0  0
   41.7750   68.9990   62.5320 C   0  0  0  0  0  0  0  0  0  0  0  0
   42.1140   68.9400   61.2010 C   0  0  0  0  0  0  0  0  0  0  0  0
   42.7140   70.1110   59.5310 H   0  0  0  0  0  0  0  0  0  0  0  0
   42.0390   72.2180   63.2440 H   0  0  0  0  0  0  0  0  0  0  0  0
   41.2480   70.4240   65.3120 H   0  0  0  0  0  0  0  0  0  0  0  0
   40.8500   67.9060   65.4850 H   0  0  0  0  0  0  0  0  0  0  0  0
   42.1270   68.0090   60.6530 H   0  0  0  0  0  0  0  0  0  0  0  0
   41.7870   73.8730   56.4890 Cl  0  0  0  0  0  0  0  0  0  0  0  0
   40.8410   75.0520   57.3760 C   0  0  0  0  0  0  0  0  0  0  0  0
   41.0980   75.2010   58.7120 C   0  0  0  0  0  0  0  0  0  0  0  0
   40.2750   76.1340   59.3380 C   0  0  0  0  0  0  0  0  0  0  0  0
   39.2930   76.8570   58.7190 C   0  0  0  0  0  0  0  0  0  0  0  0
   39.0870   76.6550   57.3510 C   0  0  0  0  0  0  0  0  0  0  0  0
   37.8510   77.5410   56.4870 Cl  0  0  0  0  0  0  0  0  0  0  0  0
   39.8730   75.7410   56.6790 C   0  0  0  0  0  0  0  0  0  0  0  0
   40.4040   76.3180   60.3960 H   0  0  0  0  0  0  0  0  0  0  0  0
   38.6920   77.5650   59.2700 H   0  0  0  0  0  0  0  0  0  0  0  0
   39.6270   75.5580   55.2520 C   0  0  0  0  0  0  0  0  0  0  0  0
   38.7540   74.6740   54.6890 C   0  0  0  0  0  0  0  0  0  0  0  0
   38.1910   74.0480   55.3550 H   0  0  0  0  0  0  0  0  0  0  0  0
   38.6480   74.6340   53.3140 C   0  0  0  0  0  3  0  0  0  0  0  0
   39.3660   75.4320   52.4460 C   0  0  0  0  0  0  0  0  0  0  0  0
   39.2910   75.4090   51.3850 H   0  0  0  0  0  0  0  0  0  0  0  0
   40.2490   76.3270   53.0470 C   0  0  0  0  0  0  0  0  0  0  0  0
   40.8380   76.9760   52.4080 H   0  0  0  0  0  0  0  0  0  0  0  0
   40.3650   76.3760   54.4210 C   0  0  0  0  0  3  0  0  0  0  0  0
  1  7  1  0  0  0  0
  1  6  1  0  0  0  0
  2  1  2  0  0  0  0
  3  2  1  0  0  0  0
  3  4  2  0  0  0  0
  4  5  1  0  0  0  0
  5  6  2  0  0  0  0
  5 10  1  0  0  0  0
  8  2  1  0  0  0  0
  9 17  2  0  0  0  0
  9 10  1  0  0  0  0
 10 11  2  0  0  0  0
 11 19  1  0  0  0  0
 11 12  1  0  0  0  0
 12 13  1  0  0  0  0
 13 14  1  0  0  0  0
 13 20  1  0  0  0  0
 14 21  1  0  0  0  0
 15 14  2  0  0  0  0
 16 12  2  0  0  0  0
 16 15  1  0  0  0  0
 17 16  1  0  0  0  0
 18  9  1  0  0  0  0
 22 17  1  0  0  0  0
 23 24  1  0  0  0  0
 24 25  1  0  0  0  0
 25 26  2  0  0  0  0
 25  3  1  0  0  0  0
 26 31  1  0  0  0  0
 27 32  1  0  0  0  0
 27 26  1  0  0  0  0
 28 27  2  0  0  0  0
 29 28  1  0  0  0  0
 30 28  1  0  0  0  0
 30 24  2  0  0  0  0
 33 30  1  0  0  0  0
 34 33  1  0  0  0  0
 34 35  1  0  0  0  0
 36 34  2  0  0  0  0
 37 39  2  0  0  0  0
 37 36  1  0  0  0  0
 38 37  1  0  0  0  0
 39 41  1  0  0  0  0
 40 39  1  0  0  0  0
 41 33  2  0  0  0  0
M  END
>  <minimizedAffinity>
-7.1870594

$$$$

 OpenBabel03212520063D

 41 45  0  0  0  0  0  0  0  0999 V2000
   43.3580   74.8320   59.2360 C   0  0  0  0  0  0  0  0  0  0  0  0
   43.3330   73.7050   60.0710 C   0  0  0  0  0  0  0  0  0  0  0  0
   42.1240   73.0570   60.2390 C   0  0  0  0  0  0  0  0  0  0  0  0
   41.0020   73.5070   59.6070 N   0  0  0  0  0  0  0  0  0  0  0  0
   41.0730   74.6110   58.7970 C   0  0  0  0  0  0  0  0  0  0  0  0
   42.2430   75.2800   58.6070 N   0  0  0  0  0  0  0  0  0  0  0  0
   44.2230   75.4400   59.0110 H   0  0  0  0  0  0  0  0  0  0  0  0
   44.3170   73.5170   60.4190 H   0  0  0  0  0  0  0  0  0  0  0  0
   38.7670   74.2250   58.1070 C   0  0  0  0  0  0  0  0  0  0  0  0
   39.8790   75.0660   58.1020 C   0  0  0  0  0  0  0  0  0  0  0  0
   39.8440   76.3050   57.4610 C   0  0  0  0  0  0  0  0  0  0  0  0
   38.7100   76.7450   56.8070 C   0  0  0  0  0  0  0  0  0  0  0  0
   38.3250   77.8280   56.1110 N   0  0  0  0  0  0  0  0  0  0  0  0
   37.0650   77.7070   55.6940 C   0  0  0  0  0  0  0  0  0  0  0  0
   36.6610   76.4990   56.1550 N   0  0  0  0  0  0  0  0  0  0  0  0
   37.6480   75.8910   56.8380 C   0  0  0  0  0  0  0  0  0  0  0  0
   37.6110   74.6600   57.4480 C   0  0  0  0  0  0  0  0  0  0  0  0
   38.7530   73.2730   58.5850 H   0  0  0  0  0  0  0  0  0  0  0  0
   40.7170   76.9570   57.4600 H   0  0  0  0  0  0  0  0  0  0  0  0
   38.9730   78.6290   55.9510 H   0  0  0  0  0  0  0  0  0  0  0  0
   36.5630   78.4670   55.1180 H   0  0  0  0  0  0  0  0  0  0  0  0
   36.7280   74.0380   57.4300 H   0  0  0  0  0  0  0  0  0  0  0  0
   42.5450   70.4120   58.9280 Cl  0  0  0  0  0  0  0  0  0  0  0  0
   42.1810   70.6210   60.6280 C   0  0  0  0  0  0  0  0  0  0  0  0
   42.0290   71.8980   61.0950 C   0  0  0  0  0  0  0  0  0  0  0  0
   41.7760   71.9670   62.4630 C   0  0  0  0  0  0  0  0  0  0  0  0
   41.6770   70.8890   63.3000 C   0  0  0  0  0  0  0  0  0  0  0  0
   41.8410   69.6130   62.7540 C   0  0  0  0  0  0  0  0  0  0  0  0
   41.7300   68.1840   63.7560 Cl  0  0  0  0  0  0  0  0  0  0  0  0
   42.0960   69.4850   61.4030 C   0  0  0  0  0  0  0  0  0  0  0  0
   41.6430   72.9370   62.9230 H   0  0  0  0  0  0  0  0  0  0  0  0
   41.4790   71.0180   64.3530 H   0  0  0  0  0  0  0  0  0  0  0  0
   42.2610   68.1360   60.8710 C   0  0  0  0  0  0  0  0  0  0  0  0
   41.2730   67.3350   60.3780 C   0  0  0  0  0  0  0  0  0  0  0  0
   40.2740   67.7300   60.3800 H   0  0  0  0  0  0  0  0  0  0  0  0
   41.6100   66.0810   59.9130 C   0  0  0  0  0  3  0  0  0  0  0  0
   42.8880   65.5610   59.9050 C   0  0  0  0  0  0  0  0  0  0  0  0
   43.1570   64.5960   59.5490 H   0  0  0  0  0  0  0  0  0  0  0  0
   43.8780   66.3990   60.4130 C   0  0  0  0  0  0  0  0  0  0  0  0
   44.9000   66.0380   60.4300 H   0  0  0  0  0  0  0  0  0  0  0  0
   43.5550   67.6560   60.8820 C   0  0  0  0  0  3  0  0  0  0  0  0
  1  2  1  0  0  0  0
  2  3  2  0  0  0  0
  2  8  1  0  0  0  0
  3 25  1  0  0  0  0
  4  3  1  0  0  0  0
  5  4  2  0  0  0  0
  6  5  1  0  0  0  0
  6  1  2  0  0  0  0
  7  1  1  0  0  0  0
  9 18  1  0  0  0  0
 10  9  1  0  0  0  0
 10  5  1  0  0  0  0
 11 10  2  0  0  0  0
 12 16  2  0  0  0  0
 12 11  1  0  0  0  0
 13 12  1  0  0  0  0
 14 13  1  0  0  0  0
 14 15  2  0  0  0  0
 15 16  1  0  0  0  0
 16 17  1  0  0  0  0
 17  9  2  0  0  0  0
 19 11  1  0  0  0  0
 20 13  1  0  0  0  0
 21 14  1  0  0  0  0
 22 17  1  0  0  0  0
 23 24  1  0  0  0  0
 24 25  2  0  0  0  0
 24 30  1  0  0  0  0
 25 26  1  0  0  0  0
 26 31  1  0  0  0  0
 26 27  2  0  0  0  0
 27 32  1  0  0  0  0
 28 27  1  0  0  0  0
 28 29  1  0  0  0  0
 30 28  2  0  0  0  0
 33 41  1  0  0  0  0
 33 30  1  0  0  0  0
 34 35  1  0  0  0  0
 34 33  2  0  0  0  0
 36 34  1  0  0  0  0
 37 36  2  0  0  0  0
 37 39  1  0  0  0  0
 38 37  1  0  0  0  0
 39 40  1  0  0  0  0
 39 41  2  0  0  0  0
M  END
>  <minimizedAffinity>
-7.16876459

$$$$

 OpenBabel03212520063D

 41 45  0  0  0  0  0  0  0  0999 V2000
   43.5340   73.6980   59.4910 C   0  0  0  0  0  0  0  0  0  0  0  0
   43.4680   72.3090   59.6800 C   0  0  0  0  0  0  0  0  0  0  0  0
   42.2830   71.6730   59.3600 C   0  0  0  0  0  0  0  0  0  0  0  0
   41.2250   72.3820   58.8750 N   0  0  0  0  0  0  0  0  0  0  0  0
   41.3340   73.7380   58.7020 C   0  0  0  0  0  0  0  0  0  0  0  0
   42.4810   74.4030   59.0080 N   0  0  0  0  0  0  0  0  0  0  0  0
   44.3870   74.3290   59.6970 H   0  0  0  0  0  0  0  0  0  0  0  0
   44.4110   71.9670   60.0250 H   0  0  0  0  0  0  0  0  0  0  0  0
   40.0040   75.7790   58.6280 C   0  0  0  0  0  0  0  0  0  0  0  0
   40.2120   74.4830   58.1550 C   0  0  0  0  0  0  0  0  0  0  0  0
   39.3780   73.9270   57.1860 C   0  0  0  0  0  0  0  0  0  0  0  0
   38.3160   74.6340   56.6570 C   0  0  0  0  0  0  0  0  0  0  0  0
   37.3440   74.4340   55.7510 N   0  0  0  0  0  0  0  0  0  0  0  0
   36.5640   75.5080   55.6390 C   0  0  0  0  0  0  0  0  0  0  0  0
   37.0800   76.4050   56.5120 N   0  0  0  0  0  0  0  0  0  0  0  0
   38.1510   75.8960   57.1480 C   0  0  0  0  0  0  0  0  0  0  0  0
   38.9310   76.5070   58.1000 C   0  0  0  0  0  0  0  0  0  0  0  0
   40.6170   76.2400   59.3670 H   0  0  0  0  0  0  0  0  0  0  0  0
   39.5460   72.9140   56.8210 H   0  0  0  0  0  0  0  0  0  0  0  0
   37.2620   73.5320   55.2340 H   0  0  0  0  0  0  0  0  0  0  0  0
   35.7240   75.5550   54.9650 H   0  0  0  0  0  0  0  0  0  0  0  0
   38.7370   77.5140   58.4390 H   0  0  0  0  0  0  0  0  0  0  0  0
   41.7810   70.7470   62.1500 Cl  0  0  0  0  0  0  0  0  0  0  0  0
   41.9340   69.6790   60.7700 C   0  0  0  0  0  0  0  0  0  0  0  0
   42.1470   70.2480   59.5440 C   0  0  0  0  0  0  0  0  0  0  0  0
   42.2210   69.3230   58.5050 C   0  0  0  0  0  0  0  0  0  0  0  0
   42.1010   67.9680   58.6470 C   0  0  0  0  0  0  0  0  0  0  0  0
   41.8860   67.4560   59.9300 C   0  0  0  0  0  0  0  0  0  0  0  0
   41.7210   65.7350   60.1960 Cl  0  0  0  0  0  0  0  0  0  0  0  0
   41.8020   68.3260   60.9980 C   0  0  0  0  0  0  0  0  0  0  0  0
   42.3870   69.6810   57.4970 H   0  0  0  0  0  0  0  0  0  0  0  0
   42.1690   67.3100   57.7940 H   0  0  0  0  0  0  0  0  0  0  0  0
   41.5770   67.7530   62.3210 C   0  0  0  0  0  0  0  0  0  0  0  0
   42.5170   67.5700   63.2930 C   0  0  0  0  0  0  0  0  0  0  0  0
   43.5220   67.8750   63.0680 H   0  0  0  0  0  0  0  0  0  0  0  0
   42.1270   67.0100   64.4920 C   0  0  0  0  0  3  0  0  0  0  0  0
   40.8400   66.6140   64.7950 C   0  0  0  0  0  0  0  0  0  0  0  0
   40.5300   66.1820   65.7150 H   0  0  0  0  0  0  0  0  0  0  0  0
   39.9000   66.8120   63.7850 C   0  0  0  0  0  0  0  0  0  0  0  0
   38.8740   66.5170   63.9720 H   0  0  0  0  0  0  0  0  0  0  0  0
   40.2770   67.3710   62.5810 C   0  0  0  0  0  3  0  0  0  0  0  0
  1  2  1  0  0  0  0
  1  7  1  0  0  0  0
  2  8  1  0  0  0  0
  3 25  1  0  0  0  0
  3  2  2  0  0  0  0
  4  3  1  0  0  0  0
  5  4  2  0  0  0  0
  5  6  1  0  0  0  0
  6  1  2  0  0  0  0
  9 18  1  0  0  0  0
 10  9  1  0  0  0  0
 10  5  1  0  0  0  0
 11 10  2  0  0  0  0
 12 16  2  0  0  0  0
 12 11  1  0  0  0  0
 13 12  1  0  0  0  0
 14 13  1  0  0  0  0
 14 15  2  0  0  0  0
 15 16  1  0  0  0  0
 16 17  1  0  0  0  0
 17 22  1  0  0  0  0
 17  9  2  0  0  0  0
 19 11  1  0  0  0  0
 20 13  1  0  0  0  0
 21 14  1  0  0  0  0
 24 30  1  0  0  0  0
 24 23  1  0  0  0  0
 25 24  2  0  0  0  0
 26 27  2  0  0  0  0
 26 25  1  0  0  0  0
 27 28  1  0  0  0  0
 28 29  1  0  0  0  0
 28 30  2  0  0  0  0
 30 33  1  0  0  0  0
 31 26  1  0  0  0  0
 32 27  1  0  0  0  0
 33 41  2  0  0  0  0
 33 34  1  0  0  0  0
 34 36  2  0  0  0  0
 35 34  1  0  0  0  0
 36 37  1  0  0  0  0
 37 38  1  0  0  0  0
 39 40  1  0  0  0  0
 39 37  2  0  0  0  0
 41 39  1  0  0  0  0
M  END
>  <minimizedAffinity>
-7.03035688

$$$$

 OpenBabel03212520063D

 41 45  0  0  0  0  0  0  0  0999 V2000
   40.1710   75.6150   61.0430 C   0  0  0  0  0  0  0  0  0  0  0  0
   40.8540   74.3910   60.9790 C   0  0  0  0  0  0  0  0  0  0  0  0
   40.7210   73.6410   59.8250 C   0  0  0  0  0  0  0  0  0  0  0  0
   39.9530   74.0890   58.7920 N   0  0  0  0  0  0  0  0  0  0  0  0
   39.3060   75.2930   58.8960 C   0  0  0  0  0  0  0  0  0  0  0  0
   39.4070   76.0610   60.0150 N   0  0  0  0  0  0  0  0  0  0  0  0
   40.1770   76.3050   61.8750 H   0  0  0  0  0  0  0  0  0  0  0  0
   41.4140   74.2660   61.8710 H   0  0  0  0  0  0  0  0  0  0  0  0
   37.6180   74.8890   57.1840 C   0  0  0  0  0  0  0  0  0  0  0  0
   38.5140   75.7800   57.7770 C   0  0  0  0  0  0  0  0  0  0  0  0
   38.6370   77.0910   57.3200 C   0  0  0  0  0  0  0  0  0  0  0  0
   37.8800   77.5600   56.2630 C   0  0  0  0  0  0  0  0  0  0  0  0
   37.7350   78.7080   55.5810 N   0  0  0  0  0  0  0  0  0  0  0  0
   36.8200   78.5810   54.6200 C   0  0  0  0  0  0  0  0  0  0  0  0
   36.3860   77.3020   54.7180 N   0  0  0  0  0  0  0  0  0  0  0  0
   37.0180   76.6560   55.7150 C   0  0  0  0  0  0  0  0  0  0  0  0
   36.8440   75.3520   56.1130 C   0  0  0  0  0  0  0  0  0  0  0  0
   37.4940   73.8810   57.5030 H   0  0  0  0  0  0  0  0  0  0  0  0
   39.3380   77.7810   57.7870 H   0  0  0  0  0  0  0  0  0  0  0  0
   38.2940   79.5550   55.8190 H   0  0  0  0  0  0  0  0  0  0  0  0
   36.5530   79.3870   53.9550 H   0  0  0  0  0  0  0  0  0  0  0  0
   36.1390   74.6940   55.6260 H   0  0  0  0  0  0  0  0  0  0  0  0
   40.6920   71.9000   62.2470 Cl  0  0  0  0  0  0  0  0  0  0  0  0
   41.4710   71.4740   60.7370 C   0  0  0  0  0  0  0  0  0  0  0  0
   41.3880   72.3670   59.7020 C   0  0  0  0  0  0  0  0  0  0  0  0
   42.0070   71.9270   58.5340 C   0  0  0  0  0  0  0  0  0  0  0  0
   42.6490   70.7280   58.3880 C   0  0  0  0  0  0  0  0  0  0  0  0
   42.6970   69.8660   59.4870 C   0  0  0  0  0  0  0  0  0  0  0  0
   43.4990   68.3160   59.3810 Cl  0  0  0  0  0  0  0  0  0  0  0  0
   42.0990   70.2500   60.6700 C   0  0  0  0  0  0  0  0  0  0  0  0
   41.9910   72.5660   57.6620 H   0  0  0  0  0  0  0  0  0  0  0  0
   43.1070   70.4530   57.4500 H   0  0  0  0  0  0  0  0  0  0  0  0
   42.1700   69.3220   61.7950 C   0  0  0  0  0  0  0  0  0  0  0  0
   41.3320   68.2720   62.0310 C   0  0  0  0  0  0  0  0  0  0  0  0
   40.5400   68.1080   61.3250 H   0  0  0  0  0  0  0  0  0  0  0  0
   41.5460   67.4940   63.1500 C   0  0  0  0  0  3  0  0  0  0  0  0
   42.5590   67.6940   64.0660 C   0  0  0  0  0  0  0  0  0  0  0  0
   42.7320   67.1000   64.9310 H   0  0  0  0  0  0  0  0  0  0  0  0
   43.4000   68.7720   63.8010 C   0  0  0  0  0  0  0  0  0  0  0  0
   44.2120   68.9740   64.4920 H   0  0  0  0  0  0  0  0  0  0  0  0
   43.1970   69.5590   62.6860 C   0  0  0  0  0  3  0  0  0  0  0  0
  1  7  1  0  0  0  0
  2  1  1  0  0  0  0
  2  8  1  0  0  0  0
  3  2  2  0  0  0  0
  4  5  2  0  0  0  0
  4  3  1  0  0  0  0
  5  6  1  0  0  0  0
  6  1  2  0  0  0  0
  9 18  1  0  0  0  0
  9 10  1  0  0  0  0
 10  5  1  0  0  0  0
 11 10  2  0  0  0  0
 11 19  1  0  0  0  0
 12 11  1  0  0  0  0
 13 20  1  0  0  0  0
 13 12  1  0  0  0  0
 14 15  2  0  0  0  0
 14 13  1  0  0  0  0
 15 16  1  0  0  0  0
 16 17  1  0  0  0  0
 16 12  2  0  0  0  0
 17  9  2  0  0  0  0
 21 14  1  0  0  0  0
 22 17  1  0  0  0  0
 24 23  1  0  0  0  0
 25  3  1  0  0  0  0
 25 24  2  0  0  0  0
 26 25  1  0  0  0  0
 27 26  2  0  0  0  0
 27 28  1  0  0  0  0
 28 30  2  0  0  0  0
 29 28  1  0  0  0  0
 30 24  1  0  0  0  0
 30 33  1  0  0  0  0
 31 26  1  0  0  0  0
 32 27  1  0  0  0  0
 33 34  2  0  0  0  0
 33 41  1  0  0  0  0
 34 36  1  0  0  0  0
 35 34  1  0  0  0  0
 36 37  2  0  0  0  0
 37 38  1  0  0  0  0
 39 37  1  0  0  0  0
 39 40  1  0  0  0  0
 41 39  2  0  0  0  0
M  END
>  <minimizedAffinity>
-6.92334938

$$$$

 OpenBabel03212520063D

 41 45  0  0  0  0  0  0  0  0999 V2000
   40.2070   78.1590   59.6340 C   0  0  0  0  0  0  0  0  0  0  0  0
   40.6350   76.9330   60.1650 C   0  0  0  0  0  0  0  0  0  0  0  0
   40.2270   75.7780   59.5250 C   0  0  0  0  0  0  0  0  0  0  0  0
   39.4390   75.8430   58.4140 N   0  0  0  0  0  0  0  0  0  0  0  0
   39.0460   77.0620   57.9270 C   0  0  0  0  0  0  0  0  0  0  0  0
   39.4230   78.2230   58.5300 N   0  0  0  0  0  0  0  0  0  0  0  0
   40.4410   79.1390   60.0240 H   0  0  0  0  0  0  0  0  0  0  0  0
   41.2640   77.1230   60.9970 H   0  0  0  0  0  0  0  0  0  0  0  0
   37.4390   76.0170   56.4220 C   0  0  0  0  0  0  0  0  0  0  0  0
   38.2310   77.1250   56.7250 C   0  0  0  0  0  0  0  0  0  0  0  0
   38.2330   78.2550   55.9070 C   0  0  0  0  0  0  0  0  0  0  0  0
   37.4530   78.3220   54.7690 C   0  0  0  0  0  0  0  0  0  0  0  0
   37.2090   79.2050   53.7860 N   0  0  0  0  0  0  0  0  0  0  0  0
   36.3300   78.7170   52.9120 C   0  0  0  0  0  0  0  0  0  0  0  0
   36.0220   77.4830   53.3780 N   0  0  0  0  0  0  0  0  0  0  0  0
   36.6960   77.2180   54.5130 C   0  0  0  0  0  0  0  0  0  0  0  0
   36.6440   76.0730   55.2710 C   0  0  0  0  0  0  0  0  0  0  0  0
   37.4090   75.1360   57.0190 H   0  0  0  0  0  0  0  0  0  0  0  0
   38.8540   79.1160   56.1500 H   0  0  0  0  0  0  0  0  0  0  0  0
   37.6770   80.1360   53.7640 H   0  0  0  0  0  0  0  0  0  0  0  0
   35.9970   79.2670   52.0460 H   0  0  0  0  0  0  0  0  0  0  0  0
   36.0160   75.2360   55.0020 H   0  0  0  0  0  0  0  0  0  0  0  0
   42.0000   74.1590   57.7550 Cl  0  0  0  0  0  0  0  0  0  0  0  0
   41.4180   73.6270   59.3190 C   0  0  0  0  0  0  0  0  0  0  0  0
   40.6230   74.4850   60.0300 C   0  0  0  0  0  0  0  0  0  0  0  0
   40.2380   73.9890   61.2730 C   0  0  0  0  0  0  0  0  0  0  0  0
   40.5930   72.7680   61.7780 C   0  0  0  0  0  0  0  0  0  0  0  0
   41.4060   71.9420   60.9960 C   0  0  0  0  0  0  0  0  0  0  0  0
   41.9030   70.3660   61.5690 Cl  0  0  0  0  0  0  0  0  0  0  0  0
   41.8190   72.3830   59.7550 C   0  0  0  0  0  0  0  0  0  0  0  0
   39.6080   74.5980   61.9070 H   0  0  0  0  0  0  0  0  0  0  0  0
   40.2560   72.4490   62.7520 H   0  0  0  0  0  0  0  0  0  0  0  0
   42.6670   71.4920   58.9690 C   0  0  0  0  0  0  0  0  0  0  0  0
   42.2420   70.5490   58.0780 C   0  0  0  0  0  0  0  0  0  0  0  0
   41.1820   70.4480   57.9380 H   0  0  0  0  0  0  0  0  0  0  0  0
   43.1870   69.7900   57.4190 C   0  0  0  0  0  3  0  0  0  0  0  0
   44.5510   69.9090   57.5890 C   0  0  0  0  0  0  0  0  0  0  0  0
   45.2870   69.3290   57.0860 H   0  0  0  0  0  0  0  0  0  0  0  0
   44.9580   70.8790   58.5040 C   0  0  0  0  0  0  0  0  0  0  0  0
   46.0200   71.0120   58.6750 H   0  0  0  0  0  0  0  0  0  0  0  0
   44.0230   71.6440   59.1700 C   0  0  0  0  0  3  0  0  0  0  0  0
  1  7  1  0  0  0  0
  1  2  1  0  0  0  0
  2  8  1  0  0  0  0
  3 25  1  0  0  0  0
  3  2  2  0  0  0  0
  4  3  1  0  0  0  0
  5  4  2  0  0  0  0
  5  6  1  0  0  0  0
  6  1  2  0  0  0  0
  9 10  1  0  0  0  0
  9 18  1  0  0  0  0
 10  5  1  0  0  0  0
 11 19  1  0  0  0  0
 11 10  2  0  0  0  0
 12 11  1  0  0  0  0
 13 12  1  0  0  0  0
 14 15  2  0  0  0  0
 14 13  1  0  0  0  0
 15 16  1  0  0  0  0
 16 12  2  0  0  0  0
 16 17  1  0  0  0  0
 17  9  2  0  0  0  0
 20 13  1  0  0  0  0
 21 14  1  0  0  0  0
 22 17  1  0  0  0  0
 23 24  1  0  0  0  0
 24 30  2  0  0  0  0
 24 25  1  0  0  0  0
 25 26  2  0  0  0  0
 26 27  1  0  0  0  0
 26 31  1  0  0  0  0
 27 32  1  0  0  0  0
 28 29  1  0  0  0  0
 28 27  2  0  0  0  0
 30 28  1  0  0  0  0
 33 41  1  0  0  0  0
 33 30  1  0  0  0  0
 34 33  2  0  0  0  0
 35 34  1  0  0  0  0
 36 37  2  0  0  0  0
 36 34  1  0  0  0  0
 37 39  1  0  0  0  0
 38 37  1  0  0  0  0
 39 40  1  0  0  0  0
 39 41  2  0  0  0  0
M  END
>  <minimizedAffinity>
-6.8968792

$$$$
