
 OpenBabel03212521003D

 42 46  0  0  1  0  0  0  0  0999 V2000
   39.6940   77.2150   59.1100 C   0  0  0  0  0  0  0  0  0  0  0  0
   40.3810   76.0770   58.8310 C   0  0  0  0  0  0  0  0  0  0  0  0
   39.8120   75.3640   57.7600 C   0  0  0  0  0  0  0  0  0  0  0  0
   38.7170   75.7560   57.0850 N   0  0  0  0  0  0  0  0  0  0  0  0
   38.1050   76.9210   57.4530 C   0  0  0  0  0  0  0  0  0  0  0  0
   38.6060   77.6500   58.4740 N   0  0  0  0  0  0  0  0  0  0  0  0
   41.2620   75.7130   59.3350 H   0  0  0  0  0  0  0  0  0  0  0  0
   40.2580   74.4250   57.4210 H   0  0  0  0  0  0  0  0  0  0  0  0
   40.9650   80.1570   61.6360 C   0  0  0  0  0  0  0  0  0  0  0  0
   40.9260   78.9290   62.2460 C   0  0  0  0  0  0  0  0  0  0  0  0
   40.5240   77.8700   61.5210 C   0  0  0  0  0  0  0  0  0  0  0  0
   40.1650   78.0590   60.1900 C   0  0  0  0  0  0  0  0  0  0  0  0
   40.4090   79.8620   59.9300 S   0  0  0  0  0  0  0  0  0  0  0  0
   41.2090   78.7820   63.2920 H   0  0  0  0  0  0  0  0  0  0  0  0
   40.4240   76.8320   61.8080 H   0  0  0  0  0  0  0  0  0  0  0  0
   43.1060   82.9230   62.7420 C   0  0  0  0  0  0  0  0  0  0  0  0
   42.2240   83.7100   63.5290 C   0  0  0  0  0  0  0  0  0  0  0  0
   40.8920   83.2880   63.6750 C   0  0  0  0  0  0  0  0  0  0  0  0
   40.5130   82.1470   63.0550 N   0  0  0  0  0  0  0  0  0  0  0  0
   41.3860   81.4150   62.3070 C   0  0  0  0  0  0  0  0  0  0  0  0
   42.6520   81.8130   62.1670 N   0  0  0  0  0  0  0  0  0  0  0  0
   44.1050   83.2980   62.6710 H   0  0  0  0  0  0  0  0  0  0  0  0
   42.4610   84.6200   64.0440 H   0  0  0  0  0  0  0  0  0  0  0  0
   40.1700   83.8390   64.2580 H   0  0  0  0  0  0  0  0  0  0  0  0
   36.9310   77.3300   56.7090 C   0  0  0  0  0  0  0  0  0  0  0  0
   35.8230   77.0910   57.2120 O   0  0  0  0  0  0  0  0  0  0  0  0
   37.0220   78.0130   55.3660 C   0  0  1  0  0  0  0  0  0  0  0  0
   37.3890   79.4720   55.4700 C   0  0  0  0  0  0  0  0  0  0  0  0
   38.3040   78.4920   54.8860 C   0  0  2  0  0  0  0  0  0  0  0  0
   36.0490   77.8940   54.8110 H   0  0  0  0  0  0  0  0  0  0  0  0
   36.7810   80.1630   54.8720 H   0  0  0  0  0  0  0  0  0  0  0  0
   37.6160   79.8870   56.4850 H   0  0  0  0  0  0  0  0  0  0  0  0
   39.1880   78.1990   55.5210 H   0  0  0  0  0  0  0  0  0  0  0  0
   38.6100   78.6070   53.4330 C   0  0  0  0  0  0  0  0  0  0  0  0
   38.1840   79.7250   52.7260 C   0  0  0  0  0  0  0  0  0  0  0  0
   37.6260   80.5340   53.2030 H   0  0  0  0  0  0  0  0  0  0  0  0
   38.4380   79.8860   51.3790 C   0  0  0  0  0  3  0  0  0  0  0  0
   39.1390   78.8940   50.7230 C   0  0  0  0  0  0  0  0  0  0  0  0
   39.3650   78.9710   49.6640 H   0  0  0  0  0  0  0  0  0  0  0  0
   39.5680   77.7730   51.4240 C   0  0  0  0  0  0  0  0  0  0  0  0
   40.1240   76.9690   50.9400 H   0  0  0  0  0  0  0  0  0  0  0  0
   39.3160   77.6130   52.7600 C   0  0  0  0  0  3  0  0  0  0  0  0
  1 12  1  0  0  0  0
  2  1  1  0  0  0  0
  2  7  1  0  0  0  0
  3  2  2  0  0  0  0
  4  5  2  0  0  0  0
  4  3  1  0  0  0  0
  5  6  1  0  0  0  0
  6  1  2  0  0  0  0
  8  3  1  0  0  0  0
  9 10  2  0  0  0  0
  9 20  1  0  0  0  0
 10 14  1  0  0  0  0
 11 15  1  0  0  0  0
 11 10  1  0  0  0  0
 12 11  2  0  0  0  0
 13 12  1  0  0  0  0
 13  9  1  0  0  0  0
 16 17  1  0  0  0  0
 17 18  2  0  0  0  0
 17 23  1  0  0  0  0
 18 24  1  0  0  0  0
 19 18  1  0  0  0  0
 20 19  2  0  0  0  0
 21 20  1  0  0  0  0
 21 16  2  0  0  0  0
 22 16  1  0  0  0  0
 25 26  2  0  0  0  0
 25  5  1  0  0  0  0
 27 30  1  6  0  0  0
 27 28  1  0  0  0  0
 27 25  1  0  0  0  0
 28 32  1  0  0  0  0
 29 27  1  0  0  0  0
 29 28  1  0  0  0  0
 29 33  1  1  0  0  0
 31 28  1  0  0  0  0
 34 29  1  0  0  0  0
 35 36  1  0  0  0  0
 35 34  2  0  0  0  0
 37 35  1  0  0  0  0
 38 37  2  0  0  0  0
 38 40  1  0  0  0  0
 39 38  1  0  0  0  0
 40 42  2  0  0  0  0
 41 40  1  0  0  0  0
 42 34  1  0  0  0  0
M  END
>  <minimizedAffinity>
-6.32246971

>  <minimizedRMSD>
0.794299424

$$$$
