
 OpenBabel03212521003D

 42 46  0  0  1  0  0  0  0  0999 V2000
   39.7990   77.4210   59.1810 C   0  0  0  0  0  0  0  0  0  0  0  0
   40.5210   76.3110   58.8780 C   0  0  0  0  0  0  0  0  0  0  0  0
   39.9710   75.6010   57.7950 C   0  0  0  0  0  0  0  0  0  0  0  0
   38.8610   75.9700   57.1320 N   0  0  0  0  0  0  0  0  0  0  0  0
   38.2130   77.1070   57.5240 C   0  0  0  0  0  0  0  0  0  0  0  0
   38.6940   77.8320   58.5580 N   0  0  0  0  0  0  0  0  0  0  0  0
   41.4150   75.9660   59.3720 H   0  0  0  0  0  0  0  0  0  0  0  0
   40.4460   74.6830   57.4370 H   0  0  0  0  0  0  0  0  0  0  0  0
   40.9870   80.3530   61.7580 C   0  0  0  0  0  0  0  0  0  0  0  0
   40.9840   79.1130   62.3470 C   0  0  0  0  0  0  0  0  0  0  0  0
   40.6110   78.0560   61.6030 C   0  0  0  0  0  0  0  0  0  0  0  0
   40.2460   78.2580   60.2760 C   0  0  0  0  0  0  0  0  0  0  0  0
   40.4390   80.0720   60.0480 S   0  0  0  0  0  0  0  0  0  0  0  0
   41.2710   78.9570   63.3900 H   0  0  0  0  0  0  0  0  0  0  0  0
   40.5400   77.0120   61.8720 H   0  0  0  0  0  0  0  0  0  0  0  0
   43.0520   83.1560   62.9160 C   0  0  0  0  0  0  0  0  0  0  0  0
   42.1470   83.9060   63.7130 C   0  0  0  0  0  0  0  0  0  0  0  0
   40.8260   83.4460   63.8480 C   0  0  0  0  0  0  0  0  0  0  0  0
   40.4790   82.3060   63.2090 N   0  0  0  0  0  0  0  0  0  0  0  0
   41.3730   81.6110   62.4510 C   0  0  0  0  0  0  0  0  0  0  0  0
   42.6280   82.0440   62.3210 N   0  0  0  0  0  0  0  0  0  0  0  0
   44.0400   83.5590   62.8540 H   0  0  0  0  0  0  0  0  0  0  0  0
   42.3580   84.8130   64.2440 H   0  0  0  0  0  0  0  0  0  0  0  0
   40.0890   83.9680   64.4390 H   0  0  0  0  0  0  0  0  0  0  0  0
   37.0230   77.4920   56.7920 C   0  0  0  0  0  0  0  0  0  0  0  0
   35.9440   77.0010   57.1560 O   0  0  0  0  0  0  0  0  0  0  0  0
   37.0670   78.4430   55.6210 C   0  0  1  0  0  0  0  0  0  0  0  0
   37.2570   79.8800   56.0350 C   0  0  0  0  0  0  0  0  0  0  0  0
   38.2960   79.1490   55.3100 C   0  0  2  0  0  0  0  0  0  0  0  0
   36.1290   78.3350   55.0070 H   0  0  0  0  0  0  0  0  0  0  0  0
   36.5870   80.6090   55.5610 H   0  0  0  0  0  0  0  0  0  0  0  0
   37.4080   80.0990   57.1230 H   0  0  0  0  0  0  0  0  0  0  0  0
   39.1920   78.8300   55.9150 H   0  0  0  0  0  0  0  0  0  0  0  0
   38.6220   79.5940   53.9270 C   0  0  0  0  0  0  0  0  0  0  0  0
   37.5960   79.8460   53.0250 C   0  0  0  0  0  0  0  0  0  0  0  0
   36.5440   79.7270   53.2950 H   0  0  0  0  0  0  0  0  0  0  0  0
   37.8380   80.2600   51.7300 C   0  0  0  0  0  3  0  0  0  0  0  0
   39.1470   80.4260   51.3310 C   0  0  0  0  0  0  0  0  0  0  0  0
   39.3920   80.7500   50.3250 H   0  0  0  0  0  0  0  0  0  0  0  0
   40.1800   80.1760   52.2290 C   0  0  0  0  0  0  0  0  0  0  0  0
   41.2270   80.2960   51.9500 H   0  0  0  0  0  0  0  0  0  0  0  0
   39.9390   79.7640   53.5120 C   0  0  0  0  0  3  0  0  0  0  0  0
  1 12  1  0  0  0  0
  2  1  1  0  0  0  0
  2  7  1  0  0  0  0
  3  2  2  0  0  0  0
  4  5  2  0  0  0  0
  4  3  1  0  0  0  0
  5  6  1  0  0  0  0
  6  1  2  0  0  0  0
  8  3  1  0  0  0  0
  9 10  2  0  0  0  0
  9 20  1  0  0  0  0
 10 14  1  0  0  0  0
 11 15  1  0  0  0  0
 11 10  1  0  0  0  0
 12 11  2  0  0  0  0
 13 12  1  0  0  0  0
 13  9  1  0  0  0  0
 16 17  1  0  0  0  0
 17 18  2  0  0  0  0
 17 23  1  0  0  0  0
 18 24  1  0  0  0  0
 19 18  1  0  0  0  0
 20 19  2  0  0  0  0
 21 20  1  0  0  0  0
 21 16  2  0  0  0  0
 22 16  1  0  0  0  0
 25 26  2  0  0  0  0
 25  5  1  0  0  0  0
 27 30  1  6  0  0  0
 27 28  1  0  0  0  0
 27 25  1  0  0  0  0
 28 32  1  0  0  0  0
 29 27  1  0  0  0  0
 29 33  1  1  0  0  0
 29 28  1  0  0  0  0
 31 28  1  0  0  0  0
 34 29  1  0  0  0  0
 35 36  1  0  0  0  0
 35 34  2  0  0  0  0
 37 35  1  0  0  0  0
 38 37  2  0  0  0  0
 38 40  1  0  0  0  0
 39 38  1  0  0  0  0
 40 42  2  0  0  0  0
 41 40  1  0  0  0  0
 42 34  1  0  0  0  0
M  END
>  <minimizedAffinity>
-6.52789736

>  <minimizedRMSD>
0.396615922

$$$$
