
 OpenBabel03212521003D

 42 46  0  0  1  0  0  0  0  0999 V2000
   39.6680   77.1790   59.1570 C   0  0  0  0  0  0  0  0  0  0  0  0
   40.3200   76.0110   58.9210 C   0  0  0  0  0  0  0  0  0  0  0  0
   39.7490   75.2930   57.8540 C   0  0  0  0  0  0  0  0  0  0  0  0
   38.6830   75.7080   57.1450 N   0  0  0  0  0  0  0  0  0  0  0  0
   38.1060   76.9020   57.4720 C   0  0  0  0  0  0  0  0  0  0  0  0
   38.6110   77.6370   58.4870 N   0  0  0  0  0  0  0  0  0  0  0  0
   41.1750   75.6280   59.4530 H   0  0  0  0  0  0  0  0  0  0  0  0
   40.1680   74.3310   57.5470 H   0  0  0  0  0  0  0  0  0  0  0  0
   40.9570   80.1400   61.6520 C   0  0  0  0  0  0  0  0  0  0  0  0
   40.9160   78.9180   62.2740 C   0  0  0  0  0  0  0  0  0  0  0  0
   40.5070   77.8530   61.5600 C   0  0  0  0  0  0  0  0  0  0  0  0
   40.1450   78.0310   60.2290 C   0  0  0  0  0  0  0  0  0  0  0  0
   40.3950   79.8300   59.9510 S   0  0  0  0  0  0  0  0  0  0  0  0
   41.2000   78.7800   63.3200 H   0  0  0  0  0  0  0  0  0  0  0  0
   40.4040   76.8190   61.8580 H   0  0  0  0  0  0  0  0  0  0  0  0
   43.1110   82.9100   62.7230 C   0  0  0  0  0  0  0  0  0  0  0  0
   42.2350   83.7060   63.5080 C   0  0  0  0  0  0  0  0  0  0  0  0
   40.9020   83.2880   63.6640 C   0  0  0  0  0  0  0  0  0  0  0  0
   40.5170   82.1430   63.0570 N   0  0  0  0  0  0  0  0  0  0  0  0
   41.3850   81.4030   62.3100 C   0  0  0  0  0  0  0  0  0  0  0  0
   42.6510   81.7970   62.1600 N   0  0  0  0  0  0  0  0  0  0  0  0
   44.1100   83.2820   62.6420 H   0  0  0  0  0  0  0  0  0  0  0  0
   42.4770   84.6200   64.0140 H   0  0  0  0  0  0  0  0  0  0  0  0
   40.1860   83.8460   64.2470 H   0  0  0  0  0  0  0  0  0  0  0  0
   36.9640   77.3350   56.6920 C   0  0  0  0  0  0  0  0  0  0  0  0
   35.8380   77.1460   57.1750 O   0  0  0  0  0  0  0  0  0  0  0  0
   37.1090   77.9810   55.3360 C   0  0  1  0  0  0  0  0  0  0  0  0
   37.4320   79.4520   55.4170 C   0  0  0  0  0  0  0  0  0  0  0  0
   38.4020   78.4820   54.9110 C   0  0  2  0  0  0  0  0  0  0  0  0
   36.1710   77.8210   54.7350 H   0  0  0  0  0  0  0  0  0  0  0  0
   36.8390   80.1100   54.7680 H   0  0  0  0  0  0  0  0  0  0  0  0
   37.5930   79.9010   56.4300 H   0  0  0  0  0  0  0  0  0  0  0  0
   39.2580   78.2310   55.6000 H   0  0  0  0  0  0  0  0  0  0  0  0
   38.7820   78.5640   53.4730 C   0  0  0  0  0  0  0  0  0  0  0  0
   39.2850   77.4410   52.8280 C   0  0  0  0  0  0  0  0  0  0  0  0
   39.4130   76.4860   53.3420 H   0  0  0  0  0  0  0  0  0  0  0  0
   39.6530   77.4580   51.4960 C   0  0  0  0  0  3  0  0  0  0  0  0
   39.5120   78.6370   50.7950 C   0  0  0  0  0  0  0  0  0  0  0  0
   39.7860   78.7050   49.7480 H   0  0  0  0  0  0  0  0  0  0  0  0
   39.0090   79.7650   51.4350 C   0  0  0  0  0  0  0  0  0  0  0  0
   38.8840   80.7150   50.9130 H   0  0  0  0  0  0  0  0  0  0  0  0
   38.6440   79.7480   52.7540 C   0  0  0  0  0  3  0  0  0  0  0  0
  1 12  1  0  0  0  0
  2  1  1  0  0  0  0
  2  7  1  0  0  0  0
  3  2  2  0  0  0  0
  4  5  2  0  0  0  0
  4  3  1  0  0  0  0
  5  6  1  0  0  0  0
  6  1  2  0  0  0  0
  8  3  1  0  0  0  0
  9 10  2  0  0  0  0
  9 20  1  0  0  0  0
 10 14  1  0  0  0  0
 11 15  1  0  0  0  0
 11 10  1  0  0  0  0
 12 11  2  0  0  0  0
 13 12  1  0  0  0  0
 13  9  1  0  0  0  0
 16 17  1  0  0  0  0
 17 18  2  0  0  0  0
 17 23  1  0  0  0  0
 18 24  1  0  0  0  0
 19 18  1  0  0  0  0
 20 19  2  0  0  0  0
 21 20  1  0  0  0  0
 21 16  2  0  0  0  0
 22 16  1  0  0  0  0
 25 26  2  0  0  0  0
 25  5  1  0  0  0  0
 27 30  1  6  0  0  0
 27 28  1  0  0  0  0
 27 25  1  0  0  0  0
 28 32  1  0  0  0  0
 29 27  1  0  0  0  0
 29 28  1  0  0  0  0
 29 33  1  1  0  0  0
 31 28  1  0  0  0  0
 34 29  1  0  0  0  0
 35 36  1  0  0  0  0
 35 34  1  0  0  0  0
 37 35  2  0  0  0  0
 38 40  2  0  0  0  0
 38 37  1  0  0  0  0
 39 38  1  0  0  0  0
 40 42  1  0  0  0  0
 41 40  1  0  0  0  0
 42 34  2  0  0  0  0
M  END
>  <minimizedAffinity>
-6.2736907

>  <minimizedRMSD>
0.784198523

$$$$
