
 OpenBabel03212521003D

 42 46  0  0  1  0  0  0  0  0999 V2000
   39.7860   77.3910   59.1790 C   0  0  0  0  0  0  0  0  0  0  0  0
   40.5050   76.2760   58.8840 C   0  0  0  0  0  0  0  0  0  0  0  0
   39.9560   75.5630   57.8040 C   0  0  0  0  0  0  0  0  0  0  0  0
   38.8490   75.9330   57.1350 N   0  0  0  0  0  0  0  0  0  0  0  0
   38.2050   77.0750   57.5190 C   0  0  0  0  0  0  0  0  0  0  0  0
   38.6860   77.8030   58.5500 N   0  0  0  0  0  0  0  0  0  0  0  0
   41.3960   75.9300   59.3840 H   0  0  0  0  0  0  0  0  0  0  0  0
   40.4280   74.6410   57.4520 H   0  0  0  0  0  0  0  0  0  0  0  0
   40.9800   80.3310   61.7450 C   0  0  0  0  0  0  0  0  0  0  0  0
   40.9660   79.0950   62.3410 C   0  0  0  0  0  0  0  0  0  0  0  0
   40.5910   78.0360   61.6020 C   0  0  0  0  0  0  0  0  0  0  0  0
   40.2330   78.2320   60.2720 C   0  0  0  0  0  0  0  0  0  0  0  0
   40.4380   80.0430   60.0330 S   0  0  0  0  0  0  0  0  0  0  0  0
   41.2480   78.9430   63.3860 H   0  0  0  0  0  0  0  0  0  0  0  0
   40.5130   76.9930   61.8770 H   0  0  0  0  0  0  0  0  0  0  0  0
   43.0530   83.1330   62.8900 C   0  0  0  0  0  0  0  0  0  0  0  0
   42.1510   83.8890   63.6840 C   0  0  0  0  0  0  0  0  0  0  0  0
   40.8280   83.4340   63.8210 C   0  0  0  0  0  0  0  0  0  0  0  0
   40.4780   82.2920   63.1870 N   0  0  0  0  0  0  0  0  0  0  0  0
   41.3700   81.5900   62.4320 C   0  0  0  0  0  0  0  0  0  0  0  0
   42.6260   82.0200   62.3000 N   0  0  0  0  0  0  0  0  0  0  0  0
   44.0420   83.5320   62.8250 H   0  0  0  0  0  0  0  0  0  0  0  0
   42.3650   84.7980   64.2110 H   0  0  0  0  0  0  0  0  0  0  0  0
   40.0930   83.9610   64.4090 H   0  0  0  0  0  0  0  0  0  0  0  0
   37.0190   77.4610   56.7810 C   0  0  0  0  0  0  0  0  0  0  0  0
   35.9300   77.0220   57.1800 O   0  0  0  0  0  0  0  0  0  0  0  0
   37.0780   78.3510   55.5640 C   0  0  1  0  0  0  0  0  0  0  0  0
   37.3120   79.8010   55.9060 C   0  0  0  0  0  0  0  0  0  0  0  0
   38.3230   79.0060   55.2100 C   0  0  2  0  0  0  0  0  0  0  0  0
   36.1320   78.2400   54.9640 H   0  0  0  0  0  0  0  0  0  0  0  0
   36.6590   80.5250   55.4010 H   0  0  0  0  0  0  0  0  0  0  0  0
   37.4800   80.0690   56.9800 H   0  0  0  0  0  0  0  0  0  0  0  0
   39.2160   78.6920   55.8220 H   0  0  0  0  0  0  0  0  0  0  0  0
   38.6490   79.3730   53.8040 C   0  0  0  0  0  0  0  0  0  0  0  0
   37.6730   79.2650   52.8200 C   0  0  0  0  0  0  0  0  0  0  0  0
   36.6630   78.9140   53.0420 H   0  0  0  0  0  0  0  0  0  0  0  0
   37.9170   79.5900   51.5000 C   0  0  0  0  0  3  0  0  0  0  0  0
   39.1760   80.0380   51.1610 C   0  0  0  0  0  0  0  0  0  0  0  0
   39.4200   80.3080   50.1380 H   0  0  0  0  0  0  0  0  0  0  0  0
   40.1580   80.1500   52.1400 C   0  0  0  0  0  0  0  0  0  0  0  0
   41.1650   80.4990   51.9090 H   0  0  0  0  0  0  0  0  0  0  0  0
   39.9160   79.8260   53.4480 C   0  0  0  0  0  3  0  0  0  0  0  0
  1 12  1  0  0  0  0
  2  1  1  0  0  0  0
  2  7  1  0  0  0  0
  3  2  2  0  0  0  0
  4  5  2  0  0  0  0
  4  3  1  0  0  0  0
  5  6  1  0  0  0  0
  6  1  2  0  0  0  0
  8  3  1  0  0  0  0
  9 10  2  0  0  0  0
  9 20  1  0  0  0  0
 10 14  1  0  0  0  0
 11 15  1  0  0  0  0
 11 10  1  0  0  0  0
 12 11  2  0  0  0  0
 13 12  1  0  0  0  0
 13  9  1  0  0  0  0
 16 17  1  0  0  0  0
 17 18  2  0  0  0  0
 17 23  1  0  0  0  0
 18 24  1  0  0  0  0
 19 18  1  0  0  0  0
 20 19  2  0  0  0  0
 21 20  1  0  0  0  0
 21 16  2  0  0  0  0
 22 16  1  0  0  0  0
 25 26  2  0  0  0  0
 25  5  1  0  0  0  0
 27 30  1  6  0  0  0
 27 28  1  0  0  0  0
 27 25  1  0  0  0  0
 28 32  1  0  0  0  0
 29 27  1  0  0  0  0
 29 33  1  1  0  0  0
 29 28  1  0  0  0  0
 31 28  1  0  0  0  0
 34 29  1  0  0  0  0
 35 36  1  0  0  0  0
 35 34  2  0  0  0  0
 37 35  1  0  0  0  0
 38 37  2  0  0  0  0
 38 40  1  0  0  0  0
 39 38  1  0  0  0  0
 40 42  2  0  0  0  0
 41 40  1  0  0  0  0
 42 34  1  0  0  0  0
M  END
>  <minimizedAffinity>
-6.46873665

>  <minimizedRMSD>
0.387031913

$$$$
