
 OpenBabel03212521003D

 42 46  0  0  1  0  0  0  0  0999 V2000
   39.8030   77.4270   59.1790 C   0  0  0  0  0  0  0  0  0  0  0  0
   40.5270   76.3190   58.8740 C   0  0  0  0  0  0  0  0  0  0  0  0
   39.9780   75.6090   57.7910 C   0  0  0  0  0  0  0  0  0  0  0  0
   38.8660   75.9780   57.1290 N   0  0  0  0  0  0  0  0  0  0  0  0
   38.2170   77.1130   57.5230 C   0  0  0  0  0  0  0  0  0  0  0  0
   38.6980   77.8380   58.5570 N   0  0  0  0  0  0  0  0  0  0  0  0
   41.4220   75.9750   59.3680 H   0  0  0  0  0  0  0  0  0  0  0  0
   40.4530   74.6930   57.4320 H   0  0  0  0  0  0  0  0  0  0  0  0
   40.9880   80.3580   61.7590 C   0  0  0  0  0  0  0  0  0  0  0  0
   40.9880   79.1180   62.3450 C   0  0  0  0  0  0  0  0  0  0  0  0
   40.6170   78.0610   61.6010 C   0  0  0  0  0  0  0  0  0  0  0  0
   40.2500   78.2640   60.2750 C   0  0  0  0  0  0  0  0  0  0  0  0
   40.4380   80.0790   60.0490 S   0  0  0  0  0  0  0  0  0  0  0  0
   41.2770   78.9610   63.3880 H   0  0  0  0  0  0  0  0  0  0  0  0
   40.5490   77.0160   61.8690 H   0  0  0  0  0  0  0  0  0  0  0  0
   43.0480   83.1620   62.9230 C   0  0  0  0  0  0  0  0  0  0  0  0
   42.1410   83.9120   63.7180 C   0  0  0  0  0  0  0  0  0  0  0  0
   40.8200   83.4510   63.8490 C   0  0  0  0  0  0  0  0  0  0  0  0
   40.4750   82.3110   63.2090 N   0  0  0  0  0  0  0  0  0  0  0  0
   41.3710   81.6160   62.4530 C   0  0  0  0  0  0  0  0  0  0  0  0
   42.6270   82.0500   62.3270 N   0  0  0  0  0  0  0  0  0  0  0  0
   44.0360   83.5650   62.8630 H   0  0  0  0  0  0  0  0  0  0  0  0
   42.3510   84.8190   64.2490 H   0  0  0  0  0  0  0  0  0  0  0  0
   40.0810   83.9730   64.4380 H   0  0  0  0  0  0  0  0  0  0  0  0
   37.0260   77.4970   56.7920 C   0  0  0  0  0  0  0  0  0  0  0  0
   35.9480   77.0070   57.1580 O   0  0  0  0  0  0  0  0  0  0  0  0
   37.0690   78.4460   55.6190 C   0  0  1  0  0  0  0  0  0  0  0  0
   37.2540   79.8840   56.0310 C   0  0  0  0  0  0  0  0  0  0  0  0
   38.2960   79.1540   55.3080 C   0  0  2  0  0  0  0  0  0  0  0  0
   36.1320   78.3350   55.0040 H   0  0  0  0  0  0  0  0  0  0  0  0
   36.5830   80.6110   55.5550 H   0  0  0  0  0  0  0  0  0  0  0  0
   37.4040   80.1060   57.1180 H   0  0  0  0  0  0  0  0  0  0  0  0
   39.1920   78.8390   55.9140 H   0  0  0  0  0  0  0  0  0  0  0  0
   38.6220   79.5980   53.9250 C   0  0  0  0  0  0  0  0  0  0  0  0
   37.5950   79.8500   53.0230 C   0  0  0  0  0  0  0  0  0  0  0  0
   36.5440   79.7350   53.2930 H   0  0  0  0  0  0  0  0  0  0  0  0
   37.8380   80.2640   51.7280 C   0  0  0  0  0  3  0  0  0  0  0  0
   39.1470   80.4280   51.3270 C   0  0  0  0  0  0  0  0  0  0  0  0
   39.3920   80.7510   50.3210 H   0  0  0  0  0  0  0  0  0  0  0  0
   40.1790   80.1770   52.2250 C   0  0  0  0  0  0  0  0  0  0  0  0
   41.2280   80.2950   51.9450 H   0  0  0  0  0  0  0  0  0  0  0  0
   39.9390   79.7670   53.5090 C   0  0  0  0  0  3  0  0  0  0  0  0
  1 12  1  0  0  0  0
  2  1  1  0  0  0  0
  2  7  1  0  0  0  0
  3  2  2  0  0  0  0
  4  5  2  0  0  0  0
  4  3  1  0  0  0  0
  5  6  1  0  0  0  0
  6  1  2  0  0  0  0
  8  3  1  0  0  0  0
  9 10  2  0  0  0  0
  9 20  1  0  0  0  0
 10 14  1  0  0  0  0
 11 15  1  0  0  0  0
 11 10  1  0  0  0  0
 12 11  2  0  0  0  0
 13 12  1  0  0  0  0
 13  9  1  0  0  0  0
 16 17  1  0  0  0  0
 17 18  2  0  0  0  0
 17 23  1  0  0  0  0
 18 24  1  0  0  0  0
 19 18  1  0  0  0  0
 20 19  2  0  0  0  0
 21 20  1  0  0  0  0
 21 16  2  0  0  0  0
 22 16  1  0  0  0  0
 25 26  2  0  0  0  0
 25  5  1  0  0  0  0
 27 30  1  6  0  0  0
 27 28  1  0  0  0  0
 27 25  1  0  0  0  0
 28 32  1  0  0  0  0
 29 27  1  0  0  0  0
 29 33  1  1  0  0  0
 29 28  1  0  0  0  0
 31 28  1  0  0  0  0
 34 29  1  0  0  0  0
 35 36  1  0  0  0  0
 35 34  2  0  0  0  0
 37 35  1  0  0  0  0
 38 37  2  0  0  0  0
 38 40  1  0  0  0  0
 39 38  1  0  0  0  0
 40 42  2  0  0  0  0
 41 40  1  0  0  0  0
 42 34  1  0  0  0  0
M  END
>  <minimizedAffinity>
-6.53146982

>  <minimizedRMSD>
0.33127889

$$$$
