
 OpenBabel03212521003D

 42 46  0  0  1  0  0  0  0  0999 V2000
   39.7100   77.2230   59.1020 C   0  0  0  0  0  0  0  0  0  0  0  0
   40.4230   76.1090   58.7930 C   0  0  0  0  0  0  0  0  0  0  0  0
   39.8520   75.3940   57.7240 C   0  0  0  0  0  0  0  0  0  0  0  0
   38.7320   75.7640   57.0770 N   0  0  0  0  0  0  0  0  0  0  0  0
   38.0950   76.9050   57.4740 C   0  0  0  0  0  0  0  0  0  0  0  0
   38.5960   77.6340   58.4950 N   0  0  0  0  0  0  0  0  0  0  0  0
   41.3240   75.7640   59.2740 H   0  0  0  0  0  0  0  0  0  0  0  0
   40.3170   74.4730   57.3630 H   0  0  0  0  0  0  0  0  0  0  0  0
   40.9720   80.1620   61.6350 C   0  0  0  0  0  0  0  0  0  0  0  0
   40.9380   78.9320   62.2410 C   0  0  0  0  0  0  0  0  0  0  0  0
   40.5390   77.8740   61.5140 C   0  0  0  0  0  0  0  0  0  0  0  0
   40.1780   78.0650   60.1840 C   0  0  0  0  0  0  0  0  0  0  0  0
   40.4150   79.8700   59.9290 S   0  0  0  0  0  0  0  0  0  0  0  0
   41.2220   78.7840   63.2870 H   0  0  0  0  0  0  0  0  0  0  0  0
   40.4430   76.8350   61.7990 H   0  0  0  0  0  0  0  0  0  0  0  0
   43.1060   82.9310   62.7510 C   0  0  0  0  0  0  0  0  0  0  0  0
   42.2200   83.7150   63.5370 C   0  0  0  0  0  0  0  0  0  0  0  0
   40.8880   83.2900   63.6780 C   0  0  0  0  0  0  0  0  0  0  0  0
   40.5130   82.1490   63.0560 N   0  0  0  0  0  0  0  0  0  0  0  0
   41.3890   81.4200   62.3090 C   0  0  0  0  0  0  0  0  0  0  0  0
   42.6550   81.8210   62.1730 N   0  0  0  0  0  0  0  0  0  0  0  0
   44.1030   83.3070   62.6820 H   0  0  0  0  0  0  0  0  0  0  0  0
   42.4540   84.6240   64.0540 H   0  0  0  0  0  0  0  0  0  0  0  0
   40.1640   83.8380   64.2610 H   0  0  0  0  0  0  0  0  0  0  0  0
   36.8940   77.2900   56.7600 C   0  0  0  0  0  0  0  0  0  0  0  0
   35.8050   76.9910   57.2710 O   0  0  0  0  0  0  0  0  0  0  0  0
   36.9380   78.0170   55.4380 C   0  0  1  0  0  0  0  0  0  0  0  0
   37.2890   79.4770   55.5800 C   0  0  0  0  0  0  0  0  0  0  0  0
   38.2000   78.5290   54.9380 C   0  0  2  0  0  0  0  0  0  0  0  0
   35.9510   77.9040   54.9080 H   0  0  0  0  0  0  0  0  0  0  0  0
   36.6550   80.1790   55.0230 H   0  0  0  0  0  0  0  0  0  0  0  0
   37.5400   79.8620   56.6010 H   0  0  0  0  0  0  0  0  0  0  0  0
   39.1050   78.2280   55.5370 H   0  0  0  0  0  0  0  0  0  0  0  0
   38.4620   78.6960   53.4810 C   0  0  0  0  0  0  0  0  0  0  0  0
   39.2730   77.7820   52.8180 C   0  0  0  0  0  0  0  0  0  0  0  0
   39.7320   76.9360   53.3320 H   0  0  0  0  0  0  0  0  0  0  0  0
   39.5500   77.8870   51.4700 C   0  0  0  0  0  3  0  0  0  0  0  0
   38.9970   78.9380   50.7680 C   0  0  0  0  0  0  0  0  0  0  0  0
   39.1830   79.0650   49.7070 H   0  0  0  0  0  0  0  0  0  0  0  0
   38.1840   79.8540   51.4250 C   0  0  0  0  0  0  0  0  0  0  0  0
   37.7300   80.6980   50.9040 H   0  0  0  0  0  0  0  0  0  0  0  0
   37.9090   79.7510   52.7620 C   0  0  0  0  0  3  0  0  0  0  0  0
  1 12  1  0  0  0  0
  2  1  1  0  0  0  0
  2  7  1  0  0  0  0
  3  2  2  0  0  0  0
  4  5  2  0  0  0  0
  4  3  1  0  0  0  0
  5  6  1  0  0  0  0
  6  1  2  0  0  0  0
  8  3  1  0  0  0  0
  9 10  2  0  0  0  0
  9 20  1  0  0  0  0
 10 14  1  0  0  0  0
 11 15  1  0  0  0  0
 11 10  1  0  0  0  0
 12 11  2  0  0  0  0
 13 12  1  0  0  0  0
 13  9  1  0  0  0  0
 16 17  1  0  0  0  0
 17 18  2  0  0  0  0
 17 23  1  0  0  0  0
 18 24  1  0  0  0  0
 19 18  1  0  0  0  0
 20 19  2  0  0  0  0
 21 20  1  0  0  0  0
 21 16  2  0  0  0  0
 22 16  1  0  0  0  0
 25 26  2  0  0  0  0
 25  5  1  0  0  0  0
 27 30  1  6  0  0  0
 27 28  1  0  0  0  0
 27 25  1  0  0  0  0
 28 32  1  0  0  0  0
 29 27  1  0  0  0  0
 29 33  1  1  0  0  0
 29 28  1  0  0  0  0
 31 28  1  0  0  0  0
 34 29  1  0  0  0  0
 35 36  1  0  0  0  0
 35 34  1  0  0  0  0
 37 35  2  0  0  0  0
 38 40  2  0  0  0  0
 38 37  1  0  0  0  0
 39 38  1  0  0  0  0
 40 42  1  0  0  0  0
 41 40  1  0  0  0  0
 42 34  2  0  0  0  0
M  END
>  <minimizedAffinity>
-6.32574987

>  <minimizedRMSD>
0.774454951

$$$$
