
 OpenBabel03212521003D

 42 46  0  0  1  0  0  0  0  0999 V2000
   39.7880   77.3920   59.1790 C   0  0  0  0  0  0  0  0  0  0  0  0
   40.5100   76.2820   58.8780 C   0  0  0  0  0  0  0  0  0  0  0  0
   39.9590   75.5690   57.7980 C   0  0  0  0  0  0  0  0  0  0  0  0
   38.8480   75.9350   57.1350 N   0  0  0  0  0  0  0  0  0  0  0  0
   38.2000   77.0730   57.5260 C   0  0  0  0  0  0  0  0  0  0  0  0
   38.6820   77.8010   58.5560 N   0  0  0  0  0  0  0  0  0  0  0  0
   41.4050   75.9390   59.3720 H   0  0  0  0  0  0  0  0  0  0  0  0
   40.4340   74.6500   57.4410 H   0  0  0  0  0  0  0  0  0  0  0  0
   40.9820   80.3310   61.7450 C   0  0  0  0  0  0  0  0  0  0  0  0
   40.9730   79.0950   62.3390 C   0  0  0  0  0  0  0  0  0  0  0  0
   40.5980   78.0360   61.6000 C   0  0  0  0  0  0  0  0  0  0  0  0
   40.2360   78.2330   60.2710 C   0  0  0  0  0  0  0  0  0  0  0  0
   40.4350   80.0450   60.0350 S   0  0  0  0  0  0  0  0  0  0  0  0
   41.2580   78.9420   63.3840 H   0  0  0  0  0  0  0  0  0  0  0  0
   40.5230   76.9920   61.8730 H   0  0  0  0  0  0  0  0  0  0  0  0
   43.0530   83.1340   62.8920 C   0  0  0  0  0  0  0  0  0  0  0  0
   42.1500   83.8900   63.6860 C   0  0  0  0  0  0  0  0  0  0  0  0
   40.8280   83.4340   63.8230 C   0  0  0  0  0  0  0  0  0  0  0  0
   40.4780   82.2920   63.1880 N   0  0  0  0  0  0  0  0  0  0  0  0
   41.3710   81.5910   62.4330 C   0  0  0  0  0  0  0  0  0  0  0  0
   42.6270   82.0210   62.3020 N   0  0  0  0  0  0  0  0  0  0  0  0
   44.0420   83.5340   62.8290 H   0  0  0  0  0  0  0  0  0  0  0  0
   42.3640   84.7980   64.2140 H   0  0  0  0  0  0  0  0  0  0  0  0
   40.0920   83.9600   64.4110 H   0  0  0  0  0  0  0  0  0  0  0  0
   37.0080   77.4550   56.7940 C   0  0  0  0  0  0  0  0  0  0  0  0
   35.9220   77.0180   57.2030 O   0  0  0  0  0  0  0  0  0  0  0  0
   37.0590   78.3400   55.5730 C   0  0  1  0  0  0  0  0  0  0  0  0
   37.3180   79.7880   55.9050 C   0  0  0  0  0  0  0  0  0  0  0  0
   38.3060   78.9760   55.1940 C   0  0  2  0  0  0  0  0  0  0  0  0
   36.1010   78.2390   54.9900 H   0  0  0  0  0  0  0  0  0  0  0  0
   36.6660   80.5180   55.4090 H   0  0  0  0  0  0  0  0  0  0  0  0
   37.5070   80.0570   56.9750 H   0  0  0  0  0  0  0  0  0  0  0  0
   39.2040   78.6520   55.7920 H   0  0  0  0  0  0  0  0  0  0  0  0
   38.6120   79.3330   53.7810 C   0  0  0  0  0  0  0  0  0  0  0  0
   39.8730   79.8140   53.4490 C   0  0  0  0  0  0  0  0  0  0  0  0
   40.6590   79.9410   54.1960 H   0  0  0  0  0  0  0  0  0  0  0  0
   40.2130   80.1610   52.1570 C   0  0  0  0  0  3  0  0  0  0  0  0
   39.2590   80.0220   51.1700 C   0  0  0  0  0  0  0  0  0  0  0  0
   39.4750   80.2810   50.1390 H   0  0  0  0  0  0  0  0  0  0  0  0
   37.9960   79.5420   51.4950 C   0  0  0  0  0  0  0  0  0  0  0  0
   37.2150   79.4180   50.7430 H   0  0  0  0  0  0  0  0  0  0  0  0
   37.6580   79.1970   52.7770 C   0  0  0  0  0  3  0  0  0  0  0  0
  1 12  1  0  0  0  0
  2  1  1  0  0  0  0
  2  7  1  0  0  0  0
  3  2  2  0  0  0  0
  4  5  2  0  0  0  0
  4  3  1  0  0  0  0
  5  6  1  0  0  0  0
  6  1  2  0  0  0  0
  8  3  1  0  0  0  0
  9 10  2  0  0  0  0
  9 20  1  0  0  0  0
 10 14  1  0  0  0  0
 11 15  1  0  0  0  0
 11 10  1  0  0  0  0
 12 11  2  0  0  0  0
 13 12  1  0  0  0  0
 13  9  1  0  0  0  0
 16 17  1  0  0  0  0
 17 18  2  0  0  0  0
 17 23  1  0  0  0  0
 18 24  1  0  0  0  0
 19 18  1  0  0  0  0
 20 19  2  0  0  0  0
 21 20  1  0  0  0  0
 21 16  2  0  0  0  0
 22 16  1  0  0  0  0
 25 26  2  0  0  0  0
 25  5  1  0  0  0  0
 27 30  1  6  0  0  0
 27 28  1  0  0  0  0
 27 25  1  0  0  0  0
 28 32  1  0  0  0  0
 29 27  1  0  0  0  0
 29 33  1  1  0  0  0
 29 28  1  0  0  0  0
 31 28  1  0  0  0  0
 34 29  1  0  0  0  0
 35 34  1  0  0  0  0
 35 36  1  0  0  0  0
 37 35  2  0  0  0  0
 38 40  2  0  0  0  0
 38 37  1  0  0  0  0
 39 38  1  0  0  0  0
 40 42  1  0  0  0  0
 41 40  1  0  0  0  0
 42 34  2  0  0  0  0
M  END
>  <minimizedAffinity>
-6.44809246

>  <minimizedRMSD>
0.414867699

$$$$
