
 OpenBabel03212521003D

 42 46  0  0  1  0  0  0  0  0999 V2000
   39.8030   77.4270   59.1700 C   0  0  0  0  0  0  0  0  0  0  0  0
   40.5300   76.3230   58.8570 C   0  0  0  0  0  0  0  0  0  0  0  0
   39.9790   75.6140   57.7750 C   0  0  0  0  0  0  0  0  0  0  0  0
   38.8620   75.9790   57.1200 N   0  0  0  0  0  0  0  0  0  0  0  0
   38.2090   77.1100   57.5220 C   0  0  0  0  0  0  0  0  0  0  0  0
   38.6920   77.8330   58.5550 N   0  0  0  0  0  0  0  0  0  0  0  0
   41.4300   75.9820   59.3450 H   0  0  0  0  0  0  0  0  0  0  0  0
   40.4570   74.7010   57.4100 H   0  0  0  0  0  0  0  0  0  0  0  0
   40.9890   80.3540   61.7530 C   0  0  0  0  0  0  0  0  0  0  0  0
   40.9940   79.1130   62.3370 C   0  0  0  0  0  0  0  0  0  0  0  0
   40.6220   78.0570   61.5910 C   0  0  0  0  0  0  0  0  0  0  0  0
   40.2510   78.2620   60.2660 C   0  0  0  0  0  0  0  0  0  0  0  0
   40.4350   80.0770   60.0430 S   0  0  0  0  0  0  0  0  0  0  0  0
   41.2860   78.9540   63.3780 H   0  0  0  0  0  0  0  0  0  0  0  0
   40.5580   77.0110   61.8570 H   0  0  0  0  0  0  0  0  0  0  0  0
   43.0490   83.1580   62.9190 C   0  0  0  0  0  0  0  0  0  0  0  0
   42.1420   83.9060   63.7160 C   0  0  0  0  0  0  0  0  0  0  0  0
   40.8210   83.4440   63.8470 C   0  0  0  0  0  0  0  0  0  0  0  0
   40.4760   82.3050   63.2050 N   0  0  0  0  0  0  0  0  0  0  0  0
   41.3730   81.6110   62.4480 C   0  0  0  0  0  0  0  0  0  0  0  0
   42.6280   82.0460   62.3220 N   0  0  0  0  0  0  0  0  0  0  0  0
   44.0370   83.5610   62.8600 H   0  0  0  0  0  0  0  0  0  0  0  0
   42.3510   84.8120   64.2480 H   0  0  0  0  0  0  0  0  0  0  0  0
   40.0820   83.9650   64.4370 H   0  0  0  0  0  0  0  0  0  0  0  0
   37.0120   77.4900   56.7990 C   0  0  0  0  0  0  0  0  0  0  0  0
   35.9390   76.9920   57.1680 O   0  0  0  0  0  0  0  0  0  0  0  0
   37.0430   78.4450   55.6300 C   0  0  1  0  0  0  0  0  0  0  0  0
   37.2620   79.8770   56.0450 C   0  0  0  0  0  0  0  0  0  0  0  0
   38.2740   79.1340   55.2940 C   0  0  2  0  0  0  0  0  0  0  0  0
   36.0900   78.3520   55.0370 H   0  0  0  0  0  0  0  0  0  0  0  0
   36.5920   80.6180   55.5890 H   0  0  0  0  0  0  0  0  0  0  0  0
   37.4410   80.0900   57.1300 H   0  0  0  0  0  0  0  0  0  0  0  0
   39.1790   78.8010   55.8770 H   0  0  0  0  0  0  0  0  0  0  0  0
   38.5750   79.5800   53.9060 C   0  0  0  0  0  0  0  0  0  0  0  0
   39.8950   79.7560   53.5090 C   0  0  0  0  0  0  0  0  0  0  0  0
   40.7320   79.5770   54.1860 H   0  0  0  0  0  0  0  0  0  0  0  0
   40.2330   80.1670   52.2350 C   0  0  0  0  0  3  0  0  0  0  0  0
   39.2160   80.4090   51.3350 C   0  0  0  0  0  0  0  0  0  0  0  0
   39.4280   80.7330   50.3210 H   0  0  0  0  0  0  0  0  0  0  0  0
   37.8930   80.2350   51.7250 C   0  0  0  0  0  0  0  0  0  0  0  0
   37.0630   80.4170   51.0410 H   0  0  0  0  0  0  0  0  0  0  0  0
   37.5580   79.8270   52.9870 C   0  0  0  0  0  3  0  0  0  0  0  0
  1 12  1  0  0  0  0
  2  1  1  0  0  0  0
  2  7  1  0  0  0  0
  3  2  2  0  0  0  0
  4  5  2  0  0  0  0
  4  3  1  0  0  0  0
  5  6  1  0  0  0  0
  6  1  2  0  0  0  0
  8  3  1  0  0  0  0
  9 10  2  0  0  0  0
  9 20  1  0  0  0  0
 10 14  1  0  0  0  0
 11 15  1  0  0  0  0
 11 10  1  0  0  0  0
 12 11  2  0  0  0  0
 13 12  1  0  0  0  0
 13  9  1  0  0  0  0
 16 17  1  0  0  0  0
 17 18  2  0  0  0  0
 17 23  1  0  0  0  0
 18 24  1  0  0  0  0
 19 18  1  0  0  0  0
 20 19  2  0  0  0  0
 21 20  1  0  0  0  0
 21 16  2  0  0  0  0
 22 16  1  0  0  0  0
 25 26  2  0  0  0  0
 25  5  1  0  0  0  0
 27 30  1  6  0  0  0
 27 28  1  0  0  0  0
 27 25  1  0  0  0  0
 28 32  1  0  0  0  0
 29 27  1  0  0  0  0
 29 33  1  1  0  0  0
 29 28  1  0  0  0  0
 31 28  1  0  0  0  0
 34 29  1  0  0  0  0
 35 34  1  0  0  0  0
 35 36  1  0  0  0  0
 37 35  2  0  0  0  0
 38 40  2  0  0  0  0
 38 37  1  0  0  0  0
 39 38  1  0  0  0  0
 40 42  1  0  0  0  0
 41 40  1  0  0  0  0
 42 34  2  0  0  0  0
M  END
>  <minimizedAffinity>
-6.52145624

>  <minimizedRMSD>
0.364134401

$$$$
