
 OpenBabel03212521003D

 42 46  0  0  1  0  0  0  0  0999 V2000
   39.7870   77.3900   59.1780 C   0  0  0  0  0  0  0  0  0  0  0  0
   40.5050   76.2760   58.8820 C   0  0  0  0  0  0  0  0  0  0  0  0
   39.9560   75.5630   57.8020 C   0  0  0  0  0  0  0  0  0  0  0  0
   38.8500   75.9330   57.1330 N   0  0  0  0  0  0  0  0  0  0  0  0
   38.2050   77.0750   57.5170 C   0  0  0  0  0  0  0  0  0  0  0  0
   38.6860   77.8030   58.5490 N   0  0  0  0  0  0  0  0  0  0  0  0
   41.3970   75.9300   59.3820 H   0  0  0  0  0  0  0  0  0  0  0  0
   40.4290   74.6420   57.4500 H   0  0  0  0  0  0  0  0  0  0  0  0
   40.9800   80.3300   61.7440 C   0  0  0  0  0  0  0  0  0  0  0  0
   40.9670   79.0940   62.3390 C   0  0  0  0  0  0  0  0  0  0  0  0
   40.5910   78.0350   61.6000 C   0  0  0  0  0  0  0  0  0  0  0  0
   40.2340   78.2310   60.2700 C   0  0  0  0  0  0  0  0  0  0  0  0
   40.4380   80.0420   60.0320 S   0  0  0  0  0  0  0  0  0  0  0  0
   41.2480   78.9420   63.3850 H   0  0  0  0  0  0  0  0  0  0  0  0
   40.5130   76.9920   61.8750 H   0  0  0  0  0  0  0  0  0  0  0  0
   43.0530   83.1320   62.8900 C   0  0  0  0  0  0  0  0  0  0  0  0
   42.1500   83.8880   63.6840 C   0  0  0  0  0  0  0  0  0  0  0  0
   40.8280   83.4330   63.8200 C   0  0  0  0  0  0  0  0  0  0  0  0
   40.4770   82.2910   63.1860 N   0  0  0  0  0  0  0  0  0  0  0  0
   41.3690   81.5900   62.4310 C   0  0  0  0  0  0  0  0  0  0  0  0
   42.6260   82.0190   62.3000 N   0  0  0  0  0  0  0  0  0  0  0  0
   44.0420   83.5310   62.8260 H   0  0  0  0  0  0  0  0  0  0  0  0
   42.3640   84.7970   64.2100 H   0  0  0  0  0  0  0  0  0  0  0  0
   40.0920   83.9600   64.4090 H   0  0  0  0  0  0  0  0  0  0  0  0
   37.0190   77.4610   56.7800 C   0  0  0  0  0  0  0  0  0  0  0  0
   35.9300   77.0220   57.1780 O   0  0  0  0  0  0  0  0  0  0  0  0
   37.0790   78.3510   55.5620 C   0  0  1  0  0  0  0  0  0  0  0  0
   37.3100   79.8010   55.9040 C   0  0  0  0  0  0  0  0  0  0  0  0
   38.3230   79.0070   55.2090 C   0  0  2  0  0  0  0  0  0  0  0  0
   36.1330   78.2380   54.9610 H   0  0  0  0  0  0  0  0  0  0  0  0
   36.6560   80.5240   55.3990 H   0  0  0  0  0  0  0  0  0  0  0  0
   37.4760   80.0690   56.9780 H   0  0  0  0  0  0  0  0  0  0  0  0
   39.2150   78.6940   55.8220 H   0  0  0  0  0  0  0  0  0  0  0  0
   38.6490   79.3740   53.8030 C   0  0  0  0  0  0  0  0  0  0  0  0
   37.6740   79.2660   52.8180 C   0  0  0  0  0  0  0  0  0  0  0  0
   36.6630   78.9190   53.0400 H   0  0  0  0  0  0  0  0  0  0  0  0
   37.9190   79.5930   51.5000 C   0  0  0  0  0  3  0  0  0  0  0  0
   39.1780   80.0400   51.1600 C   0  0  0  0  0  0  0  0  0  0  0  0
   39.4240   80.3090   50.1380 H   0  0  0  0  0  0  0  0  0  0  0  0
   40.1600   80.1490   52.1390 C   0  0  0  0  0  0  0  0  0  0  0  0
   41.1670   80.4980   51.9090 H   0  0  0  0  0  0  0  0  0  0  0  0
   39.9170   79.8260   53.4470 C   0  0  0  0  0  3  0  0  0  0  0  0
  1 12  1  0  0  0  0
  2  1  1  0  0  0  0
  2  7  1  0  0  0  0
  3  2  2  0  0  0  0
  4  5  2  0  0  0  0
  4  3  1  0  0  0  0
  5  6  1  0  0  0  0
  6  1  2  0  0  0  0
  8  3  1  0  0  0  0
  9 10  2  0  0  0  0
  9 20  1  0  0  0  0
 10 14  1  0  0  0  0
 11 15  1  0  0  0  0
 11 10  1  0  0  0  0
 12 11  2  0  0  0  0
 13 12  1  0  0  0  0
 13  9  1  0  0  0  0
 16 17  1  0  0  0  0
 17 18  2  0  0  0  0
 17 23  1  0  0  0  0
 18 24  1  0  0  0  0
 19 18  1  0  0  0  0
 20 19  2  0  0  0  0
 21 20  1  0  0  0  0
 21 16  2  0  0  0  0
 22 16  1  0  0  0  0
 25 26  2  0  0  0  0
 25  5  1  0  0  0  0
 27 30  1  6  0  0  0
 27 28  1  0  0  0  0
 27 25  1  0  0  0  0
 28 32  1  0  0  0  0
 29 27  1  0  0  0  0
 29 33  1  1  0  0  0
 29 28  1  0  0  0  0
 31 28  1  0  0  0  0
 34 29  1  0  0  0  0
 35 36  1  0  0  0  0
 35 34  2  0  0  0  0
 37 35  1  0  0  0  0
 38 37  2  0  0  0  0
 38 40  1  0  0  0  0
 39 38  1  0  0  0  0
 40 42  2  0  0  0  0
 41 40  1  0  0  0  0
 42 34  1  0  0  0  0
M  END
>  <minimizedAffinity>
-6.46873236

>  <minimizedRMSD>
0.456821829

$$$$
