
 OpenBabel03212520503D

 28 30  0  0  0  0  0  0  0  0999 V2000
   39.1770   76.1660   57.9130 C   0  0  0  0  0  0  0  0  0  0  0  0
   39.3270   77.4210   58.4560 C   0  0  0  0  0  0  0  0  0  0  0  0
   40.0480   77.6350   59.6350 C   0  0  0  0  0  0  0  0  0  0  0  0
   40.6160   76.5800   60.2650 N   0  0  0  0  0  0  0  0  0  0  0  0
   40.4660   75.3620   59.7320 C   0  0  0  0  0  0  0  0  0  0  0  0
   39.7620   75.1410   58.5770 N   0  0  0  0  0  0  0  0  0  0  0  0
   38.8600   78.2400   57.9250 H   0  0  0  0  0  0  0  0  0  0  0  0
   40.0910   78.6700   59.9560 H   0  0  0  0  0  0  0  0  0  0  0  0
   38.1960   74.8510   54.6540 C   0  0  0  0  0  0  0  0  0  0  0  0
   36.9940   75.5220   54.4110 C   0  0  0  0  0  0  0  0  0  0  0  0
   36.5240   76.4290   55.3750 C   0  0  0  0  0  0  0  0  0  0  0  0
   37.2930   76.5790   56.4820 N   0  0  0  0  0  0  0  0  0  0  0  0
   38.4310   75.9300   56.6910 C   0  0  0  0  0  0  0  0  0  0  0  0
   38.9020   75.0590   55.7870 N   0  0  0  0  0  0  0  0  0  0  0  0
   38.5480   73.9660   53.5950 N   0  0  0  0  0  0  0  0  0  0  0  0
   36.3920   75.4000   53.5380 H   0  0  0  0  0  0  0  0  0  0  0  0
   35.6050   76.9530   55.2080 H   0  0  0  0  0  0  0  0  0  0  0  0
   38.6330   72.9300   53.6830 H   0  0  0  0  0  0  0  0  0  0  0  0
   38.7770   74.1260   52.5880 H   0  0  0  0  0  0  0  0  0  0  0  0
   41.0780   74.2220   60.4090 C   0  0  0  0  0  0  0  0  0  0  0  0
   42.3650   73.8220   60.1080 C   0  0  0  0  0  0  0  0  0  0  0  0
   42.9510   74.3410   59.3650 H   0  0  0  0  0  0  0  0  0  0  0  0
   42.9520   72.7370   60.7500 C   0  0  0  0  0  3  0  0  0  0  0  0
   42.1430   72.1250   61.6860 C   0  0  0  0  0  0  0  0  0  0  0  0
   42.5750   71.2680   62.2100 H   0  0  0  0  0  0  0  0  0  0  0  0
   40.8550   72.4690   62.0370 C   0  0  0  0  0  0  0  0  0  0  0  0
   40.3270   71.9030   62.7910 H   0  0  0  0  0  0  0  0  0  0  0  0
   40.3360   73.5540   61.3600 C   0  0  0  0  0  3  0  0  0  0  0  0
  1  2  2  0  0  0  0
  1  6  1  0  0  0  0
  2  3  1  0  0  0  0
  3  8  1  0  0  0  0
  3  4  2  0  0  0  0
  5  4  1  0  0  0  0
  5 20  1  0  0  0  0
  6  5  2  0  0  0  0
  7  2  1  0  0  0  0
  9 14  1  0  0  0  0
 10  9  2  0  0  0  0
 10 11  1  0  0  0  0
 11 12  2  0  0  0  0
 12 13  1  0  0  0  0
 13  1  1  0  0  0  0
 14 13  2  0  0  0  0
 15 18  1  0  0  0  0
 15  9  1  0  0  0  0
 16 10  1  0  0  0  0
 17 11  1  0  0  0  0
 19 15  1  0  0  0  0
 20 28  1  0  0  0  0
 21 20  2  0  0  0  0
 21 23  1  0  0  0  0
 22 21  1  0  0  0  0
 23 24  2  0  0  0  0
 24 26  1  0  0  0  0
 24 25  1  0  0  0  0
 26 27  1  0  0  0  0
 28 26  2  0  0  0  0
M  END
>  <minimizedAffinity>
-5.77446222

$$$$

 OpenBabel03212520503D

 28 30  0  0  0  0  0  0  0  0999 V2000
   41.8310   74.4490   59.5160 C   0  0  0  0  0  0  0  0  0  0  0  0
   43.0850   74.9830   59.3280 C   0  0  0  0  0  0  0  0  0  0  0  0
   44.2310   74.3790   59.8540 C   0  0  0  0  0  0  0  0  0  0  0  0
   44.1090   73.2360   60.5700 N   0  0  0  0  0  0  0  0  0  0  0  0
   42.8860   72.7230   60.7490 C   0  0  0  0  0  0  0  0  0  0  0  0
   41.7560   73.3060   60.2380 N   0  0  0  0  0  0  0  0  0  0  0  0
   43.1440   75.8960   58.7510 H   0  0  0  0  0  0  0  0  0  0  0  0
   45.1580   74.8980   59.6340 H   0  0  0  0  0  0  0  0  0  0  0  0
   38.4650   74.8930   58.1800 C   0  0  0  0  0  0  0  0  0  0  0  0
   38.4080   76.2730   57.9650 C   0  0  0  0  0  0  0  0  0  0  0  0
   39.5350   77.0490   58.2830 C   0  0  0  0  0  0  0  0  0  0  0  0
   40.6030   76.3790   58.7810 N   0  0  0  0  0  0  0  0  0  0  0  0
   40.6330   75.0670   58.9760 C   0  0  0  0  0  0  0  0  0  0  0  0
   39.5720   74.3030   58.6810 N   0  0  0  0  0  0  0  0  0  0  0  0
   37.2550   74.2370   57.8140 N   0  0  0  0  0  0  0  0  0  0  0  0
   37.5640   76.7960   57.5730 H   0  0  0  0  0  0  0  0  0  0  0  0
   39.5120   78.1090   58.1270 H   0  0  0  0  0  0  0  0  0  0  0  0
   36.6310   73.7200   58.4710 H   0  0  0  0  0  0  0  0  0  0  0  0
   36.7580   74.1300   56.9010 H   0  0  0  0  0  0  0  0  0  0  0  0
   42.7510   71.4900   61.5210 C   0  0  0  0  0  0  0  0  0  0  0  0
   42.0070   71.4570   62.6840 C   0  0  0  0  0  0  0  0  0  0  0  0
   41.5070   72.3400   63.0530 H   0  0  0  0  0  0  0  0  0  0  0  0
   41.8750   70.2860   63.4220 C   0  0  0  0  0  3  0  0  0  0  0  0
   42.5400   69.2000   62.8890 C   0  0  0  0  0  0  0  0  0  0  0  0
   42.4560   68.2630   63.4460 H   0  0  0  0  0  0  0  0  0  0  0  0
   43.2970   69.1610   61.7380 C   0  0  0  0  0  0  0  0  0  0  0  0
   43.7700   68.2400   61.4290 H   0  0  0  0  0  0  0  0  0  0  0  0
   43.3850   70.3580   61.0560 C   0  0  0  0  0  3  0  0  0  0  0  0
  1  6  1  0  0  0  0
  2  1  2  0  0  0  0
  2  3  1  0  0  0  0
  3  4  2  0  0  0  0
  4  5  1  0  0  0  0
  5 20  1  0  0  0  0
  6  5  2  0  0  0  0
  7  2  1  0  0  0  0
  8  3  1  0  0  0  0
  9 14  1  0  0  0  0
 10  9  2  0  0  0  0
 10 11  1  0  0  0  0
 11 12  2  0  0  0  0
 12 13  1  0  0  0  0
 13  1  1  0  0  0  0
 14 13  2  0  0  0  0
 15  9  1  0  0  0  0
 15 18  1  0  0  0  0
 16 10  1  0  0  0  0
 17 11  1  0  0  0  0
 19 15  1  0  0  0  0
 20 21  1  0  0  0  0
 21 22  1  0  0  0  0
 21 23  2  0  0  0  0
 24 23  1  0  0  0  0
 24 25  1  0  0  0  0
 26 24  2  0  0  0  0
 27 26  1  0  0  0  0
 28 20  2  0  0  0  0
 28 26  1  0  0  0  0
M  END
>  <minimizedAffinity>
-5.73379993

$$$$

 OpenBabel03212520503D

 28 30  0  0  0  0  0  0  0  0999 V2000
   41.4760   74.0440   59.3900 C   0  0  0  0  0  0  0  0  0  0  0  0
   42.6450   74.7550   59.2420 C   0  0  0  0  0  0  0  0  0  0  0  0
   43.8440   74.3360   59.8260 C   0  0  0  0  0  0  0  0  0  0  0  0
   43.8620   73.1990   60.5620 N   0  0  0  0  0  0  0  0  0  0  0  0
   42.7210   72.5120   60.7020 C   0  0  0  0  0  0  0  0  0  0  0  0
   41.5400   72.9140   60.1330 N   0  0  0  0  0  0  0  0  0  0  0  0
   42.5940   75.6580   58.6480 H   0  0  0  0  0  0  0  0  0  0  0  0
   44.6930   74.9830   59.6330 H   0  0  0  0  0  0  0  0  0  0  0  0
   38.2420   73.9640   57.7050 C   0  0  0  0  0  0  0  0  0  0  0  0
   37.8880   75.3170   57.6740 C   0  0  0  0  0  0  0  0  0  0  0  0
   38.7690   76.2540   58.2360 C   0  0  0  0  0  0  0  0  0  0  0  0
   39.9110   75.7580   58.7720 N   0  0  0  0  0  0  0  0  0  0  0  0
   40.2250   74.4690   58.7900 C   0  0  0  0  0  0  0  0  0  0  0  0
   39.4030   73.5530   58.2600 N   0  0  0  0  0  0  0  0  0  0  0  0
   37.2570   73.1310   57.1010 N   0  0  0  0  0  0  0  0  0  0  0  0
   36.9870   75.7020   57.2510 H   0  0  0  0  0  0  0  0  0  0  0  0
   38.5160   77.2960   58.2230 H   0  0  0  0  0  0  0  0  0  0  0  0
   36.7110   72.3940   57.5960 H   0  0  0  0  0  0  0  0  0  0  0  0
   36.8880   73.0690   56.1260 H   0  0  0  0  0  0  0  0  0  0  0  0
   42.7360   71.2850   61.4940 C   0  0  0  0  0  0  0  0  0  0  0  0
   43.4180   70.1660   61.0600 C   0  0  0  0  0  0  0  0  0  0  0  0
   43.9560   70.1690   60.1230 H   0  0  0  0  0  0  0  0  0  0  0  0
   43.4350   68.9950   61.8100 C   0  0  0  0  0  3  0  0  0  0  0  0
   42.7260   69.0680   62.9920 C   0  0  0  0  0  0  0  0  0  0  0  0
   42.7200   68.1630   63.6060 H   0  0  0  0  0  0  0  0  0  0  0  0
   42.0250   70.1470   63.4870 C   0  0  0  0  0  0  0  0  0  0  0  0
   41.5080   70.0720   64.4330 H   0  0  0  0  0  0  0  0  0  0  0  0
   42.0510   71.2740   62.6910 C   0  0  0  0  0  3  0  0  0  0  0  0
  1  6  1  0  0  0  0
  2  1  2  0  0  0  0
  2  3  1  0  0  0  0
  3  4  2  0  0  0  0
  4  5  1  0  0  0  0
  5 20  1  0  0  0  0
  6  5  2  0  0  0  0
  7  2  1  0  0  0  0
  8  3  1  0  0  0  0
  9 14  1  0  0  0  0
 10  9  2  0  0  0  0
 10 11  1  0  0  0  0
 11 12  2  0  0  0  0
 12 13  1  0  0  0  0
 13  1  1  0  0  0  0
 14 13  2  0  0  0  0
 15 18  1  0  0  0  0
 15  9  1  0  0  0  0
 16 10  1  0  0  0  0
 17 11  1  0  0  0  0
 19 15  1  0  0  0  0
 20 28  1  0  0  0  0
 21 20  2  0  0  0  0
 21 23  1  0  0  0  0
 22 21  1  0  0  0  0
 23 24  2  0  0  0  0
 24 26  1  0  0  0  0
 24 25  1  0  0  0  0
 26 27  1  0  0  0  0
 28 26  2  0  0  0  0
M  END
>  <minimizedAffinity>
-5.60278273

$$$$

 OpenBabel03212520503D

 28 30  0  0  0  0  0  0  0  0999 V2000
   38.5380   74.4230   55.3830 C   0  0  0  0  0  0  0  0  0  0  0  0
   37.5730   75.2550   54.8640 C   0  0  0  0  0  0  0  0  0  0  0  0
   37.0340   76.3120   55.6030 C   0  0  0  0  0  0  0  0  0  0  0  0
   37.4700   76.5290   56.8670 N   0  0  0  0  0  0  0  0  0  0  0  0
   38.4090   75.7160   57.3660 C   0  0  0  0  0  0  0  0  0  0  0  0
   38.9440   74.6760   56.6500 N   0  0  0  0  0  0  0  0  0  0  0  0
   37.2490   75.0520   53.8520 H   0  0  0  0  0  0  0  0  0  0  0  0
   36.2820   76.8930   55.0790 H   0  0  0  0  0  0  0  0  0  0  0  0
   39.9300   71.1590   54.5370 C   0  0  0  0  0  0  0  0  0  0  0  0
   40.1700   71.2830   53.1650 C   0  0  0  0  0  0  0  0  0  0  0  0
   39.8500   72.4960   52.5350 C   0  0  0  0  0  0  0  0  0  0  0  0
   39.3240   73.4630   53.3270 N   0  0  0  0  0  0  0  0  0  0  0  0
   39.1060   73.3220   54.6280 C   0  0  0  0  0  0  0  0  0  0  0  0
   39.4020   72.1750   55.2540 N   0  0  0  0  0  0  0  0  0  0  0  0
   40.3010   69.8780   55.0390 N   0  0  0  0  0  0  0  0  0  0  0  0
   40.5830   70.5180   52.5460 H   0  0  0  0  0  0  0  0  0  0  0  0
   40.0260   72.6120   51.4840 H   0  0  0  0  0  0  0  0  0  0  0  0
   39.6440   69.1860   55.4590 H   0  0  0  0  0  0  0  0  0  0  0  0
   41.2190   69.3830   55.0990 H   0  0  0  0  0  0  0  0  0  0  0  0
   38.8820   75.9460   58.7280 C   0  0  0  0  0  0  0  0  0  0  0  0
   39.5910   77.0860   59.0520 C   0  0  0  0  0  0  0  0  0  0  0  0
   39.8150   77.8350   58.3070 H   0  0  0  0  0  0  0  0  0  0  0  0
   40.0430   77.3100   60.3480 C   0  0  0  0  0  3  0  0  0  0  0  0
   39.7200   76.3110   61.2430 C   0  0  0  0  0  0  0  0  0  0  0  0
   40.0600   76.4570   62.2720 H   0  0  0  0  0  0  0  0  0  0  0  0
   39.0170   75.1520   60.9910 C   0  0  0  0  0  0  0  0  0  0  0  0
   38.8300   74.4450   61.7870 H   0  0  0  0  0  0  0  0  0  0  0  0
   38.5990   74.9950   59.6850 C   0  0  0  0  0  3  0  0  0  0  0  0
  1  6  1  0  0  0  0
  2  1  2  0  0  0  0
  2  3  1  0  0  0  0
  3  4  2  0  0  0  0
  4  5  1  0  0  0  0
  5 20  1  0  0  0  0
  6  5  2  0  0  0  0
  7  2  1  0  0  0  0
  8  3  1  0  0  0  0
  9 15  1  0  0  0  0
  9 14  1  0  0  0  0
 10  9  2  0  0  0  0
 11 10  1  0  0  0  0
 11 12  2  0  0  0  0
 12 13  1  0  0  0  0
 13 14  2  0  0  0  0
 13  1  1  0  0  0  0
 15 19  1  0  0  0  0
 15 18  1  0  0  0  0
 16 10  1  0  0  0  0
 17 11  1  0  0  0  0
 20 21  2  0  0  0  0
 20 28  1  0  0  0  0
 21 23  1  0  0  0  0
 22 21  1  0  0  0  0
 23 24  2  0  0  0  0
 24 25  1  0  0  0  0
 26 24  1  0  0  0  0
 26 27  1  0  0  0  0
 28 26  2  0  0  0  0
M  END
>  <minimizedAffinity>
-5.57262135

$$$$

 OpenBabel03212520503D

 28 30  0  0  0  0  0  0  0  0999 V2000
   39.6110   75.2760   57.2400 C   0  0  0  0  0  0  0  0  0  0  0  0
   39.1140   76.4460   57.7670 C   0  0  0  0  0  0  0  0  0  0  0  0
   39.3140   76.7980   59.1050 C   0  0  0  0  0  0  0  0  0  0  0  0
   40.0150   75.9670   59.9120 N   0  0  0  0  0  0  0  0  0  0  0  0
   40.4960   74.8300   59.3930 C   0  0  0  0  0  0  0  0  0  0  0  0
   40.3060   74.4760   58.0830 N   0  0  0  0  0  0  0  0  0  0  0  0
   38.5590   77.0850   57.0930 H   0  0  0  0  0  0  0  0  0  0  0  0
   38.8710   77.7450   59.3940 H   0  0  0  0  0  0  0  0  0  0  0  0
   38.0740   74.8230   53.9630 C   0  0  0  0  0  0  0  0  0  0  0  0
   39.0830   74.1690   53.2480 C   0  0  0  0  0  0  0  0  0  0  0  0
   40.2930   73.8860   53.9020 C   0  0  0  0  0  0  0  0  0  0  0  0
   40.3820   74.2790   55.1960 N   0  0  0  0  0  0  0  0  0  0  0  0
   39.4110   74.8990   55.8540 C   0  0  0  0  0  0  0  0  0  0  0  0
   38.2460   75.1810   55.2540 N   0  0  0  0  0  0  0  0  0  0  0  0
   36.9080   75.0440   53.1760 N   0  0  0  0  0  0  0  0  0  0  0  0
   39.0070   73.8620   52.2280 H   0  0  0  0  0  0  0  0  0  0  0  0
   41.0790   73.3850   53.3720 H   0  0  0  0  0  0  0  0  0  0  0  0
   36.5240   75.9810   52.9240 H   0  0  0  0  0  0  0  0  0  0  0  0
   36.2340   74.3920   52.7150 H   0  0  0  0  0  0  0  0  0  0  0  0
   41.2540   73.9320   60.2600 C   0  0  0  0  0  0  0  0  0  0  0  0
   40.7200   73.4690   61.4470 C   0  0  0  0  0  0  0  0  0  0  0  0
   39.7300   73.7610   61.7650 H   0  0  0  0  0  0  0  0  0  0  0  0
   41.4380   72.6140   62.2750 C   0  0  0  0  0  3  0  0  0  0  0  0
   42.6920   72.2860   61.8040 C   0  0  0  0  0  0  0  0  0  0  0  0
   43.2830   71.6140   62.4320 H   0  0  0  0  0  0  0  0  0  0  0  0
   43.2870   72.7070   60.6330 C   0  0  0  0  0  0  0  0  0  0  0  0
   44.2830   72.3750   60.3790 H   0  0  0  0  0  0  0  0  0  0  0  0
   42.5180   73.5540   59.8610 C   0  0  0  0  0  3  0  0  0  0  0  0
  1  2  2  0  0  0  0
  1  6  1  0  0  0  0
  2  3  1  0  0  0  0
  3  8  1  0  0  0  0
  3  4  2  0  0  0  0
  5  4  1  0  0  0  0
  5 20  1  0  0  0  0
  6  5  2  0  0  0  0
  7  2  1  0  0  0  0
  9 14  1  0  0  0  0
 10 11  1  0  0  0  0
 10  9  2  0  0  0  0
 11 12  2  0  0  0  0
 12 13  1  0  0  0  0
 13  1  1  0  0  0  0
 14 13  2  0  0  0  0
 15  9  1  0  0  0  0
 16 10  1  0  0  0  0
 17 11  1  0  0  0  0
 18 15  1  0  0  0  0
 19 15  1  0  0  0  0
 20 21  1  0  0  0  0
 21 22  1  0  0  0  0
 21 23  2  0  0  0  0
 24 23  1  0  0  0  0
 24 25  1  0  0  0  0
 26 24  2  0  0  0  0
 27 26  1  0  0  0  0
 28 20  2  0  0  0  0
 28 26  1  0  0  0  0
M  END
>  <minimizedAffinity>
-5.37249231

$$$$

 OpenBabel03212520503D

 28 30  0  0  0  0  0  0  0  0999 V2000
   42.3290   73.1710   59.9600 C   0  0  0  0  0  0  0  0  0  0  0  0
   43.4360   73.1630   59.1430 C   0  0  0  0  0  0  0  0  0  0  0  0
   44.2820   72.0530   59.0530 C   0  0  0  0  0  0  0  0  0  0  0  0
   44.0090   70.9510   59.7910 N   0  0  0  0  0  0  0  0  0  0  0  0
   42.9310   70.9650   60.5840 C   0  0  0  0  0  0  0  0  0  0  0  0
   42.0950   72.0470   60.6790 N   0  0  0  0  0  0  0  0  0  0  0  0
   43.6230   74.0610   58.5680 H   0  0  0  0  0  0  0  0  0  0  0  0
   45.1180   72.1750   58.3730 H   0  0  0  0  0  0  0  0  0  0  0  0
   39.5170   75.3010   60.8880 C   0  0  0  0  0  0  0  0  0  0  0  0
   39.8150   76.4950   60.2230 C   0  0  0  0  0  0  0  0  0  0  0  0
   40.9880   76.5600   59.4540 C   0  0  0  0  0  0  0  0  0  0  0  0
   41.7480   75.4380   59.4220 N   0  0  0  0  0  0  0  0  0  0  0  0
   41.4440   74.3160   60.0620 C   0  0  0  0  0  0  0  0  0  0  0  0
   40.3310   74.2270   60.8030 N   0  0  0  0  0  0  0  0  0  0  0  0
   38.3020   75.3800   61.6270 N   0  0  0  0  0  0  0  0  0  0  0  0
   39.2130   77.3760   60.2520 H   0  0  0  0  0  0  0  0  0  0  0  0
   41.2340   77.4660   58.9360 H   0  0  0  0  0  0  0  0  0  0  0  0
   38.2240   75.2910   62.6630 H   0  0  0  0  0  0  0  0  0  0  0  0
   37.3090   75.5310   61.3380 H   0  0  0  0  0  0  0  0  0  0  0  0
   42.6330   69.7780   61.3810 C   0  0  0  0  0  0  0  0  0  0  0  0
   42.9500   69.7230   62.7240 C   0  0  0  0  0  0  0  0  0  0  0  0
   43.4270   70.5570   63.2190 H   0  0  0  0  0  0  0  0  0  0  0  0
   42.6690   68.5950   63.4870 C   0  0  0  0  0  3  0  0  0  0  0  0
   42.0610   67.5730   62.7860 C   0  0  0  0  0  0  0  0  0  0  0  0
   41.8260   66.6710   63.3580 H   0  0  0  0  0  0  0  0  0  0  0  0
   41.7160   67.5580   61.4520 C   0  0  0  0  0  0  0  0  0  0  0  0
   41.2410   66.6880   61.0230 H   0  0  0  0  0  0  0  0  0  0  0  0
   42.0240   68.7100   60.7560 C   0  0  0  0  0  3  0  0  0  0  0  0
  1 13  1  0  0  0  0
  1  6  1  0  0  0  0
  2  1  2  0  0  0  0
  3  2  1  0  0  0  0
  3  4  2  0  0  0  0
  4  5  1  0  0  0  0
  5  6  2  0  0  0  0
  5 20  1  0  0  0  0
  7  2  1  0  0  0  0
  8  3  1  0  0  0  0
  9 15  1  0  0  0  0
 10 16  1  0  0  0  0
 10  9  2  0  0  0  0
 11 10  1  0  0  0  0
 12 11  2  0  0  0  0
 12 13  1  0  0  0  0
 13 14  2  0  0  0  0
 14  9  1  0  0  0  0
 15 18  1  0  0  0  0
 17 11  1  0  0  0  0
 19 15  1  0  0  0  0
 20 21  1  0  0  0  0
 21 22  1  0  0  0  0
 21 23  2  0  0  0  0
 24 25  1  0  0  0  0
 24 23  1  0  0  0  0
 26 24  2  0  0  0  0
 27 26  1  0  0  0  0
 28 20  2  0  0  0  0
 28 26  1  0  0  0  0
M  END
>  <minimizedAffinity>
-5.35109568

$$$$

 OpenBabel03212520503D

 28 30  0  0  0  0  0  0  0  0999 V2000
   40.2630   74.7220   59.8060 C   0  0  0  0  0  0  0  0  0  0  0  0
   40.5660   75.8670   60.5060 C   0  0  0  0  0  0  0  0  0  0  0  0
   40.0750   77.1190   60.1230 C   0  0  0  0  0  0  0  0  0  0  0  0
   39.2790   77.2130   59.0310 N   0  0  0  0  0  0  0  0  0  0  0  0
   38.9890   76.0950   58.3540 C   0  0  0  0  0  0  0  0  0  0  0  0
   39.4640   74.8630   58.7220 N   0  0  0  0  0  0  0  0  0  0  0  0
   41.2040   75.7530   61.3720 H   0  0  0  0  0  0  0  0  0  0  0  0
   40.3860   77.9410   60.7580 H   0  0  0  0  0  0  0  0  0  0  0  0
   41.1880   71.8250   61.8220 C   0  0  0  0  0  0  0  0  0  0  0  0
   41.7250   70.9560   60.8670 C   0  0  0  0  0  0  0  0  0  0  0  0
   41.7670   71.3740   59.5270 C   0  0  0  0  0  0  0  0  0  0  0  0
   41.2720   72.6090   59.2680 N   0  0  0  0  0  0  0  0  0  0  0  0
   40.7670   73.4170   60.1920 C   0  0  0  0  0  0  0  0  0  0  0  0
   40.7150   73.0430   61.4780 N   0  0  0  0  0  0  0  0  0  0  0  0
   41.2100   71.2710   63.1340 N   0  0  0  0  0  0  0  0  0  0  0  0
   42.1130   69.9840   61.0760 H   0  0  0  0  0  0  0  0  0  0  0  0
   42.1750   70.7230   58.7800 H   0  0  0  0  0  0  0  0  0  0  0  0
   40.3660   71.0600   63.7090 H   0  0  0  0  0  0  0  0  0  0  0  0
   41.9910   70.9750   63.7620 H   0  0  0  0  0  0  0  0  0  0  0  0
   38.1310   76.1930   57.1770 C   0  0  0  0  0  0  0  0  0  0  0  0
   37.4160   75.1010   56.7240 C   0  0  0  0  0  0  0  0  0  0  0  0
   37.4750   74.1480   57.2280 H   0  0  0  0  0  0  0  0  0  0  0  0
   36.5980   75.1900   55.6030 C   0  0  0  0  0  3  0  0  0  0  0  0
   36.5740   76.4370   55.0140 C   0  0  0  0  0  0  0  0  0  0  0  0
   35.9390   76.5400   54.1300 H   0  0  0  0  0  0  0  0  0  0  0  0
   37.2580   77.5670   55.4100 C   0  0  0  0  0  0  0  0  0  0  0  0
   37.1520   78.4890   54.8560 H   0  0  0  0  0  0  0  0  0  0  0  0
   38.0510   77.4070   56.5290 C   0  0  0  0  0  3  0  0  0  0  0  0
  1 13  1  0  0  0  0
  1  2  1  0  0  0  0
  2  7  1  0  0  0  0
  3  2  2  0  0  0  0
  3  8  1  0  0  0  0
  4  3  1  0  0  0  0
  5  6  1  0  0  0  0
  5  4  2  0  0  0  0
  6  1  2  0  0  0  0
  9 15  1  0  0  0  0
 10 16  1  0  0  0  0
 10  9  2  0  0  0  0
 11 10  1  0  0  0  0
 12 11  2  0  0  0  0
 12 13  1  0  0  0  0
 13 14  2  0  0  0  0
 14  9  1  0  0  0  0
 15 18  1  0  0  0  0
 15 19  1  0  0  0  0
 17 11  1  0  0  0  0
 20  5  1  0  0  0  0
 21 20  1  0  0  0  0
 21 22  1  0  0  0  0
 23 21  2  0  0  0  0
 24 26  2  0  0  0  0
 24 23  1  0  0  0  0
 25 24  1  0  0  0  0
 26 28  1  0  0  0  0
 27 26  1  0  0  0  0
 28 20  2  0  0  0  0
M  END
>  <minimizedAffinity>
-5.2862196

$$$$

 OpenBabel03212520503D

 28 30  0  0  0  0  0  0  0  0999 V2000
   40.1840   73.4280   59.7660 C   0  0  0  0  0  0  0  0  0  0  0  0
   40.3040   74.2000   60.8990 C   0  0  0  0  0  0  0  0  0  0  0  0
   39.7510   75.4820   60.9810 C   0  0  0  0  0  0  0  0  0  0  0  0
   39.0770   75.9830   59.9190 N   0  0  0  0  0  0  0  0  0  0  0  0
   38.9650   75.2260   58.8200 C   0  0  0  0  0  0  0  0  0  0  0  0
   39.5020   73.9690   58.7290 N   0  0  0  0  0  0  0  0  0  0  0  0
   40.8480   73.7670   61.7270 H   0  0  0  0  0  0  0  0  0  0  0  0
   39.9160   75.9850   61.9280 H   0  0  0  0  0  0  0  0  0  0  0  0
   41.0270   70.1070   58.5130 C   0  0  0  0  0  0  0  0  0  0  0  0
   41.8460   69.6040   59.5280 C   0  0  0  0  0  0  0  0  0  0  0  0
   42.1060   70.4150   60.6460 C   0  0  0  0  0  0  0  0  0  0  0  0
   41.5280   71.6410   60.6440 N   0  0  0  0  0  0  0  0  0  0  0  0
   40.7530   72.0970   59.6670 C   0  0  0  0  0  0  0  0  0  0  0  0
   40.4890   71.3440   58.5910 N   0  0  0  0  0  0  0  0  0  0  0  0
   40.8520   69.1780   57.4470 N   0  0  0  0  0  0  0  0  0  0  0  0
   42.2990   68.6370   59.5250 H   0  0  0  0  0  0  0  0  0  0  0  0
   42.7310   70.0480   61.4350 H   0  0  0  0  0  0  0  0  0  0  0  0
   41.1640   69.3310   56.4630 H   0  0  0  0  0  0  0  0  0  0  0  0
   40.4190   68.2290   57.4020 H   0  0  0  0  0  0  0  0  0  0  0  0
   38.2390   75.7640   57.6720 C   0  0  0  0  0  0  0  0  0  0  0  0
   37.3260   74.9910   56.9820 C   0  0  0  0  0  0  0  0  0  0  0  0
   37.1260   73.9700   57.2720 H   0  0  0  0  0  0  0  0  0  0  0  0
   36.6320   75.4980   55.8890 C   0  0  0  0  0  3  0  0  0  0  0  0
   36.9400   76.8070   55.5780 C   0  0  0  0  0  0  0  0  0  0  0  0
   36.4110   77.2360   54.7230 H   0  0  0  0  0  0  0  0  0  0  0  0
   37.8360   77.6350   56.2200 C   0  0  0  0  0  0  0  0  0  0  0  0
   37.9860   78.6470   55.8740 H   0  0  0  0  0  0  0  0  0  0  0  0
   38.4880   77.0660   57.2960 C   0  0  0  0  0  3  0  0  0  0  0  0
  1  2  1  0  0  0  0
  2  3  2  0  0  0  0
  2  7  1  0  0  0  0
  3  8  1  0  0  0  0
  4  3  1  0  0  0  0
  5  4  2  0  0  0  0
  6  5  1  0  0  0  0
  6  1  2  0  0  0  0
  9 14  2  0  0  0  0
  9 10  1  0  0  0  0
 10 11  2  0  0  0  0
 11 17  1  0  0  0  0
 12 11  1  0  0  0  0
 13  1  1  0  0  0  0
 13 12  2  0  0  0  0
 14 13  1  0  0  0  0
 15  9  1  0  0  0  0
 16 10  1  0  0  0  0
 18 15  1  0  0  0  0
 19 15  1  0  0  0  0
 20  5  1  0  0  0  0
 21 22  1  0  0  0  0
 21 20  2  0  0  0  0
 23 21  1  0  0  0  0
 24 23  2  0  0  0  0
 24 26  1  0  0  0  0
 25 24  1  0  0  0  0
 26 28  2  0  0  0  0
 27 26  1  0  0  0  0
 28 20  1  0  0  0  0
M  END
>  <minimizedAffinity>
-5.2739296

$$$$

 OpenBabel03212520503D

 28 30  0  0  0  0  0  0  0  0999 V2000
   41.9670   70.6340   60.5710 C   0  0  0  0  0  0  0  0  0  0  0  0
   42.0170   70.3530   61.9170 C   0  0  0  0  0  0  0  0  0  0  0  0
   41.6560   71.2970   62.8830 C   0  0  0  0  0  0  0  0  0  0  0  0
   41.2450   72.5260   62.4880 N   0  0  0  0  0  0  0  0  0  0  0  0
   41.2000   72.7930   61.1770 C   0  0  0  0  0  0  0  0  0  0  0  0
   41.5510   71.8740   60.2220 N   0  0  0  0  0  0  0  0  0  0  0  0
   42.3490   69.3620   62.1950 H   0  0  0  0  0  0  0  0  0  0  0  0
   41.7380   70.9510   63.9070 H   0  0  0  0  0  0  0  0  0  0  0  0
   41.8720   68.5220   57.5980 C   0  0  0  0  0  0  0  0  0  0  0  0
   43.0850   67.8310   57.6840 C   0  0  0  0  0  0  0  0  0  0  0  0
   43.9340   68.0970   58.7700 C   0  0  0  0  0  0  0  0  0  0  0  0
   43.4960   69.0200   59.6610 N   0  0  0  0  0  0  0  0  0  0  0  0
   42.3390   69.6630   59.5590 C   0  0  0  0  0  0  0  0  0  0  0  0
   41.5110   69.4280   58.5320 N   0  0  0  0  0  0  0  0  0  0  0  0
   41.1170   68.1510   56.4490 N   0  0  0  0  0  0  0  0  0  0  0  0
   43.4250   67.1050   56.9790 H   0  0  0  0  0  0  0  0  0  0  0  0
   44.8680   67.5790   58.8540 H   0  0  0  0  0  0  0  0  0  0  0  0
   40.8620   68.7940   55.6670 H   0  0  0  0  0  0  0  0  0  0  0  0
   40.6870   67.2480   56.1480 H   0  0  0  0  0  0  0  0  0  0  0  0
   40.7570   74.1170   60.7480 C   0  0  0  0  0  0  0  0  0  0  0  0
   41.4820   74.8450   59.8240 C   0  0  0  0  0  0  0  0  0  0  0  0
   42.3940   74.4540   59.3970 H   0  0  0  0  0  0  0  0  0  0  0  0
   41.0650   76.1060   59.4120 C   0  0  0  0  0  3  0  0  0  0  0  0
   39.8930   76.5370   60.0010 C   0  0  0  0  0  0  0  0  0  0  0  0
   39.5370   77.5250   59.6980 H   0  0  0  0  0  0  0  0  0  0  0  0
   39.1210   75.8660   60.9250 C   0  0  0  0  0  0  0  0  0  0  0  0
   38.2190   76.3200   61.3110 H   0  0  0  0  0  0  0  0  0  0  0  0
   39.5940   74.6220   61.2880 C   0  0  0  0  0  3  0  0  0  0  0  0
  1  2  1  0  0  0  0
  2  7  1  0  0  0  0
  2  3  2  0  0  0  0
  3  8  1  0  0  0  0
  4  3  1  0  0  0  0
  5  4  2  0  0  0  0
  6  1  2  0  0  0  0
  6  5  1  0  0  0  0
  9 10  2  0  0  0  0
  9 14  1  0  0  0  0
 10 11  1  0  0  0  0
 11 17  1  0  0  0  0
 11 12  2  0  0  0  0
 13 12  1  0  0  0  0
 13  1  1  0  0  0  0
 14 13  2  0  0  0  0
 15  9  1  0  0  0  0
 16 10  1  0  0  0  0
 18 15  1  0  0  0  0
 19 15  1  0  0  0  0
 20  5  1  0  0  0  0
 20 28  1  0  0  0  0
 21 20  2  0  0  0  0
 22 21  1  0  0  0  0
 23 21  1  0  0  0  0
 23 24  2  0  0  0  0
 24 26  1  0  0  0  0
 25 24  1  0  0  0  0
 26 28  2  0  0  0  0
 26 27  1  0  0  0  0
M  END
>  <minimizedAffinity>
-5.14844561

$$$$
