
 OpenBabel03212521013D

 42 46  0  0  1  0  0  0  0  0999 V2000
   41.9500   74.4130   59.4870 C   0  0  0  0  0  0  0  0  0  0  0  0
   43.2070   74.5260   58.9840 C   0  0  0  0  0  0  0  0  0  0  0  0
   44.1120   73.6550   59.6170 C   0  0  0  0  0  0  0  0  0  0  0  0
   43.7810   72.8060   60.6060 N   0  0  0  0  0  0  0  0  0  0  0  0
   42.4840   72.7770   61.0350 C   0  0  0  0  0  0  0  0  0  0  0  0
   41.5680   73.5900   60.4640 N   0  0  0  0  0  0  0  0  0  0  0  0
   43.5300   75.1860   58.1950 H   0  0  0  0  0  0  0  0  0  0  0  0
   45.1630   73.6350   59.3170 H   0  0  0  0  0  0  0  0  0  0  0  0
   39.2770   76.5220   57.2390 C   0  0  0  0  0  0  0  0  0  0  0  0
   39.0890   76.7120   58.5840 C   0  0  0  0  0  0  0  0  0  0  0  0
   39.9070   76.0720   59.4390 C   0  0  0  0  0  0  0  0  0  0  0  0
   40.9050   75.2480   58.9300 C   0  0  0  0  0  0  0  0  0  0  0  0
   40.6830   75.3760   57.1100 S   0  0  0  0  0  0  0  0  0  0  0  0
   38.3040   77.3610   58.9830 H   0  0  0  0  0  0  0  0  0  0  0  0
   39.9270   76.0860   60.5200 H   0  0  0  0  0  0  0  0  0  0  0  0
   38.4160   78.3850   54.1980 C   0  0  0  0  0  0  0  0  0  0  0  0
   36.9960   78.3640   54.2060 C   0  0  0  0  0  0  0  0  0  0  0  0
   36.3370   77.7040   55.2580 C   0  0  0  0  0  0  0  0  0  0  0  0
   37.0920   77.1190   56.2160 N   0  0  0  0  0  0  0  0  0  0  0  0
   38.4540   77.1590   56.1770 C   0  0  0  0  0  0  0  0  0  0  0  0
   39.0820   77.7850   55.1800 N   0  0  0  0  0  0  0  0  0  0  0  0
   38.8550   78.9020   53.3720 H   0  0  0  0  0  0  0  0  0  0  0  0
   36.3430   78.8060   53.4800 H   0  0  0  0  0  0  0  0  0  0  0  0
   35.2620   77.6510   55.3240 H   0  0  0  0  0  0  0  0  0  0  0  0
   42.1450   71.8500   62.0970 C   0  0  0  0  0  0  0  0  0  0  0  0
   41.9670   72.3200   63.2300 O   0  0  0  0  0  0  0  0  0  0  0  0
   42.0190   70.3640   61.8630 C   0  0  1  0  0  0  0  0  0  0  0  0
   43.2140   69.5870   62.3550 C   0  0  0  0  0  0  0  0  0  0  0  0
   41.9030   69.4640   62.9940 C   0  0  2  0  0  0  0  0  0  0  0  0
   41.8480   70.1640   60.7680 H   0  0  0  0  0  0  0  0  0  0  0  0
   43.6210   68.8410   61.6610 H   0  0  0  0  0  0  0  0  0  0  0  0
   44.0240   70.1480   62.8870 H   0  0  0  0  0  0  0  0  0  0  0  0
   41.7890   69.9700   63.9940 H   0  0  0  0  0  0  0  0  0  0  0  0
   41.2010   68.1550   62.8910 C   0  0  0  0  0  0  0  0  0  0  0  0
   41.4940   67.2980   61.8370 C   0  0  0  0  0  0  0  0  0  0  0  0
   42.2300   67.5500   61.0710 H   0  0  0  0  0  0  0  0  0  0  0  0
   40.8750   66.0720   61.6910 C   0  0  0  0  0  3  0  0  0  0  0  0
   39.9360   65.6970   62.6280 C   0  0  0  0  0  0  0  0  0  0  0  0
   39.4210   64.7450   62.5600 H   0  0  0  0  0  0  0  0  0  0  0  0
   39.6380   66.5500   63.6850 C   0  0  0  0  0  0  0  0  0  0  0  0
   38.9010   66.2890   64.4470 H   0  0  0  0  0  0  0  0  0  0  0  0
   40.2510   67.7650   63.8310 C   0  0  0  0  0  3  0  0  0  0  0  0
  1  6  1  0  0  0  0
  2  1  2  0  0  0  0
  2  3  1  0  0  0  0
  3  4  2  0  0  0  0
  4  5  1  0  0  0  0
  5 25  1  0  0  0  0
  6  5  2  0  0  0  0
  7  2  1  0  0  0  0
  8  3  1  0  0  0  0
  9 10  2  0  0  0  0
 10 14  1  0  0  0  0
 10 11  1  0  0  0  0
 11 15  1  0  0  0  0
 12 11  2  0  0  0  0
 12  1  1  0  0  0  0
 13  9  1  0  0  0  0
 13 12  1  0  0  0  0
 16 17  2  0  0  0  0
 16 21  1  0  0  0  0
 17 18  1  0  0  0  0
 18 24  1  0  0  0  0
 18 19  2  0  0  0  0
 20 19  1  0  0  0  0
 20  9  1  0  0  0  0
 21 20  2  0  0  0  0
 22 16  1  0  0  0  0
 23 17  1  0  0  0  0
 25 26  2  0  0  0  0
 27 30  1  6  0  0  0
 27 25  1  0  0  0  0
 27 28  1  0  0  0  0
 27 29  1  0  0  0  0
 28 32  1  0  0  0  0
 28 29  1  0  0  0  0
 29 33  1  1  0  0  0
 31 28  1  0  0  0  0
 34 29  1  0  0  0  0
 34 42  1  0  0  0  0
 35 34  2  0  0  0  0
 36 35  1  0  0  0  0
 37 35  1  0  0  0  0
 37 38  2  0  0  0  0
 38 40  1  0  0  0  0
 39 38  1  0  0  0  0
 40 42  2  0  0  0  0
 40 41  1  0  0  0  0
M  END
>  <minimizedAffinity>
-7.36041975

$$$$

 OpenBabel03212521013D

 42 46  0  0  1  0  0  0  0  0999 V2000
   43.0640   73.2510   60.0980 C   0  0  0  0  0  0  0  0  0  0  0  0
   44.1040   72.9990   59.2610 C   0  0  0  0  0  0  0  0  0  0  0  0
   44.3950   74.0960   58.4320 C   0  0  0  0  0  0  0  0  0  0  0  0
   43.7270   75.2630   58.4560 N   0  0  0  0  0  0  0  0  0  0  0  0
   42.6950   75.4060   59.3400 C   0  0  0  0  0  0  0  0  0  0  0  0
   42.3690   74.3870   60.1640 N   0  0  0  0  0  0  0  0  0  0  0  0
   44.6750   72.0860   59.1970 H   0  0  0  0  0  0  0  0  0  0  0  0
   45.2100   74.0400   57.7050 H   0  0  0  0  0  0  0  0  0  0  0  0
   42.0090   69.8500   62.0910 C   0  0  0  0  0  0  0  0  0  0  0  0
   41.9290   70.9650   62.8860 C   0  0  0  0  0  0  0  0  0  0  0  0
   42.2510   72.1560   62.3490 C   0  0  0  0  0  0  0  0  0  0  0  0
   42.6490   72.2110   61.0180 C   0  0  0  0  0  0  0  0  0  0  0  0
   42.5680   70.4580   60.4710 S   0  0  0  0  0  0  0  0  0  0  0  0
   41.6160   70.9200   63.9330 H   0  0  0  0  0  0  0  0  0  0  0  0
   42.2550   73.1390   62.7980 H   0  0  0  0  0  0  0  0  0  0  0  0
   42.1530   66.1950   62.3770 C   0  0  0  0  0  0  0  0  0  0  0  0
   41.1310   65.9120   63.3210 C   0  0  0  0  0  0  0  0  0  0  0  0
   40.3950   66.9820   63.8600 C   0  0  0  0  0  0  0  0  0  0  0  0
   40.6990   68.2350   63.4510 N   0  0  0  0  0  0  0  0  0  0  0  0
   41.6870   68.4710   62.5430 C   0  0  0  0  0  0  0  0  0  0  0  0
   42.3870   67.4580   62.0290 N   0  0  0  0  0  0  0  0  0  0  0  0
   42.6750   65.3400   62.0050 H   0  0  0  0  0  0  0  0  0  0  0  0
   40.8420   64.9460   63.6850 H   0  0  0  0  0  0  0  0  0  0  0  0
   39.6060   66.8360   64.5810 H   0  0  0  0  0  0  0  0  0  0  0  0
   41.9910   76.6740   59.3560 C   0  0  0  0  0  0  0  0  0  0  0  0
   42.6260   77.6750   59.7190 O   0  0  0  0  0  0  0  0  0  0  0  0
   40.5390   76.7970   58.9640 C   0  0  1  0  0  0  0  0  0  0  0  0
   39.9660   78.1620   59.2490 C   0  0  0  0  0  0  0  0  0  0  0  0
   40.1580   77.6830   57.8800 C   0  0  2  0  0  0  0  0  0  0  0  0
   39.9340   76.0040   59.4860 H   0  0  0  0  0  0  0  0  0  0  0  0
   38.9920   78.1780   59.7530 H   0  0  0  0  0  0  0  0  0  0  0  0
   40.6550   78.9500   59.6480 H   0  0  0  0  0  0  0  0  0  0  0  0
   41.0200   78.1360   57.3120 H   0  0  0  0  0  0  0  0  0  0  0  0
   38.9440   77.4400   57.0530 C   0  0  0  0  0  0  0  0  0  0  0  0
   38.2450   76.2470   57.1910 C   0  0  0  0  0  0  0  0  0  0  0  0
   38.5550   75.4710   57.8930 H   0  0  0  0  0  0  0  0  0  0  0  0
   37.1130   75.9670   56.4510 C   0  0  0  0  0  3  0  0  0  0  0  0
   36.6720   76.9110   55.5480 C   0  0  0  0  0  0  0  0  0  0  0  0
   35.7880   76.7400   54.9420 H   0  0  0  0  0  0  0  0  0  0  0  0
   37.3670   78.1060   55.4040 C   0  0  0  0  0  0  0  0  0  0  0  0
   37.0490   78.8770   54.7000 H   0  0  0  0  0  0  0  0  0  0  0  0
   38.4890   78.3840   56.1370 C   0  0  0  0  0  3  0  0  0  0  0  0
  1  6  1  0  0  0  0
  1 12  1  0  0  0  0
  2  1  2  0  0  0  0
  3  4  2  0  0  0  0
  3  2  1  0  0  0  0
  4  5  1  0  0  0  0
  5 25  1  0  0  0  0
  5  6  2  0  0  0  0
  7  2  1  0  0  0  0
  8  3  1  0  0  0  0
  9 20  1  0  0  0  0
  9 10  2  0  0  0  0
 10 14  1  0  0  0  0
 11 15  1  0  0  0  0
 11 10  1  0  0  0  0
 12 11  2  0  0  0  0
 13 12  1  0  0  0  0
 13  9  1  0  0  0  0
 16 17  1  0  0  0  0
 17 23  1  0  0  0  0
 17 18  2  0  0  0  0
 18 24  1  0  0  0  0
 19 18  1  0  0  0  0
 20 19  2  0  0  0  0
 21 16  2  0  0  0  0
 21 20  1  0  0  0  0
 22 16  1  0  0  0  0
 25 26  2  0  0  0  0
 27 28  1  0  0  0  0
 27 25  1  0  0  0  0
 27 30  1  1  0  0  0
 28 32  1  0  0  0  0
 28 31  1  0  0  0  0
 29 33  1  6  0  0  0
 29 27  1  0  0  0  0
 29 28  1  0  0  0  0
 34 35  1  0  0  0  0
 34 29  1  0  0  0  0
 35 36  1  0  0  0  0
 37 35  2  0  0  0  0
 38 37  1  0  0  0  0
 39 38  1  0  0  0  0
 40 38  2  0  0  0  0
 40 42  1  0  0  0  0
 41 40  1  0  0  0  0
 42 34  2  0  0  0  0
M  END
>  <minimizedAffinity>
-6.9641223

$$$$

 OpenBabel03212521013D

 42 46  0  0  1  0  0  0  0  0999 V2000
   39.2800   75.9770   59.0390 C   0  0  0  0  0  0  0  0  0  0  0  0
   39.8080   77.1930   59.3370 C   0  0  0  0  0  0  0  0  0  0  0  0
   39.4280   78.1780   58.4070 C   0  0  0  0  0  0  0  0  0  0  0  0
   38.6350   77.9510   57.3440 N   0  0  0  0  0  0  0  0  0  0  0  0
   38.1600   76.6860   57.1410 C   0  0  0  0  0  0  0  0  0  0  0  0
   38.4910   75.6980   58.0020 N   0  0  0  0  0  0  0  0  0  0  0  0
   40.4470   77.4340   60.1710 H   0  0  0  0  0  0  0  0  0  0  0  0
   39.7770   79.2080   58.5180 H   0  0  0  0  0  0  0  0  0  0  0  0
   40.7840   72.7890   61.0930 C   0  0  0  0  0  0  0  0  0  0  0  0
   39.5560   73.1770   61.5630 C   0  0  0  0  0  0  0  0  0  0  0  0
   38.9470   74.2210   60.9710 C   0  0  0  0  0  0  0  0  0  0  0  0
   39.5820   74.8600   59.9120 C   0  0  0  0  0  0  0  0  0  0  0  0
   41.1570   73.9300   59.7280 S   0  0  0  0  0  0  0  0  0  0  0  0
   39.0580   72.6730   62.3960 H   0  0  0  0  0  0  0  0  0  0  0  0
   37.9920   74.6780   61.1860 H   0  0  0  0  0  0  0  0  0  0  0  0
   43.2410   70.0700   61.2840 C   0  0  0  0  0  0  0  0  0  0  0  0
   43.0510   69.5650   62.5980 C   0  0  0  0  0  0  0  0  0  0  0  0
   42.0790   70.1640   63.4160 C   0  0  0  0  0  0  0  0  0  0  0  0
   41.3680   71.1970   62.9110 N   0  0  0  0  0  0  0  0  0  0  0  0
   41.5760   71.6580   61.6450 C   0  0  0  0  0  0  0  0  0  0  0  0
   42.4980   71.0910   60.8650 N   0  0  0  0  0  0  0  0  0  0  0  0
   43.9950   69.5730   60.7130 H   0  0  0  0  0  0  0  0  0  0  0  0
   43.5790   68.7520   63.0560 H   0  0  0  0  0  0  0  0  0  0  0  0
   41.8840   69.8280   64.4230 H   0  0  0  0  0  0  0  0  0  0  0  0
   37.3020   76.4640   55.9950 C   0  0  0  0  0  0  0  0  0  0  0  0
   36.3580   77.2500   55.8270 O   0  0  0  0  0  0  0  0  0  0  0  0
   37.5170   75.3200   55.0340 C   0  0  1  0  0  0  0  0  0  0  0  0
   37.9960   75.7730   53.6780 C   0  0  0  0  0  0  0  0  0  0  0  0
   38.8570   75.0050   54.5770 C   0  0  2  0  0  0  0  0  0  0  0  0
   36.5670   74.7240   54.9320 H   0  0  0  0  0  0  0  0  0  0  0  0
   37.4790   75.3350   52.8150 H   0  0  0  0  0  0  0  0  0  0  0  0
   38.2040   76.8630   53.5300 H   0  0  0  0  0  0  0  0  0  0  0  0
   39.6800   75.5800   55.0880 H   0  0  0  0  0  0  0  0  0  0  0  0
   39.2450   73.6290   54.1600 C   0  0  0  0  0  0  0  0  0  0  0  0
   39.3600   72.6270   55.1160 C   0  0  0  0  0  0  0  0  0  0  0  0
   39.1750   72.8120   56.1760 H   0  0  0  0  0  0  0  0  0  0  0  0
   39.7160   71.3330   54.7880 C   0  0  0  0  0  3  0  0  0  0  0  0
   39.9630   71.0380   53.4650 C   0  0  0  0  0  0  0  0  0  0  0  0
   40.2450   70.0380   53.1540 H   0  0  0  0  0  0  0  0  0  0  0  0
   39.8490   72.0360   52.5030 C   0  0  0  0  0  0  0  0  0  0  0  0
   40.0370   71.8420   51.4450 H   0  0  0  0  0  0  0  0  0  0  0  0
   39.4970   73.3190   52.8270 C   0  0  0  0  0  3  0  0  0  0  0  0
  1  2  1  0  0  0  0
  1 12  1  0  0  0  0
  2  7  1  0  0  0  0
  3  8  1  0  0  0  0
  3  2  2  0  0  0  0
  4  3  1  0  0  0  0
  5  4  2  0  0  0  0
  5  6  1  0  0  0  0
  6  1  2  0  0  0  0
  9 10  2  0  0  0  0
  9 20  1  0  0  0  0
 10 14  1  0  0  0  0
 11 15  1  0  0  0  0
 11 10  1  0  0  0  0
 12 11  2  0  0  0  0
 13 12  1  0  0  0  0
 13  9  1  0  0  0  0
 16 17  1  0  0  0  0
 17 23  1  0  0  0  0
 17 18  2  0  0  0  0
 18 24  1  0  0  0  0
 19 18  1  0  0  0  0
 20 19  2  0  0  0  0
 21 16  2  0  0  0  0
 21 20  1  0  0  0  0
 22 16  1  0  0  0  0
 25  5  1  0  0  0  0
 26 25  2  0  0  0  0
 27 30  1  1  0  0  0
 27 25  1  0  0  0  0
 28 29  1  0  0  0  0
 28 27  1  0  0  0  0
 29 27  1  0  0  0  0
 29 33  1  1  0  0  0
 31 28  1  0  0  0  0
 32 28  1  0  0  0  0
 34 29  1  0  0  0  0
 34 35  1  0  0  0  0
 35 36  1  0  0  0  0
 37 35  2  0  0  0  0
 38 37  1  0  0  0  0
 39 38  1  0  0  0  0
 40 42  1  0  0  0  0
 40 38  2  0  0  0  0
 41 40  1  0  0  0  0
 42 34  2  0  0  0  0
M  END
>  <minimizedAffinity>
-6.91047764

$$$$

 OpenBabel03212521013D

 42 46  0  0  1  0  0  0  0  0999 V2000
   39.4150   76.1440   59.1790 C   0  0  0  0  0  0  0  0  0  0  0  0
   39.8570   77.3520   59.6160 C   0  0  0  0  0  0  0  0  0  0  0  0
   39.5570   78.3850   58.7090 C   0  0  0  0  0  0  0  0  0  0  0  0
   38.9070   78.2070   57.5450 N   0  0  0  0  0  0  0  0  0  0  0  0
   38.5070   76.9460   57.2070 C   0  0  0  0  0  0  0  0  0  0  0  0
   38.7670   75.9130   58.0370 N   0  0  0  0  0  0  0  0  0  0  0  0
   40.3820   77.5550   60.5360 H   0  0  0  0  0  0  0  0  0  0  0  0
   39.8520   79.4150   58.9270 H   0  0  0  0  0  0  0  0  0  0  0  0
   40.7650   72.8550   61.1800 C   0  0  0  0  0  0  0  0  0  0  0  0
   39.4920   73.2040   61.5530 C   0  0  0  0  0  0  0  0  0  0  0  0
   38.9270   74.2740   60.9670 C   0  0  0  0  0  0  0  0  0  0  0  0
   39.6500   74.9810   60.0110 C   0  0  0  0  0  0  0  0  0  0  0  0
   41.2480   74.0780   59.9240 S   0  0  0  0  0  0  0  0  0  0  0  0
   38.9260   72.6470   62.3050 H   0  0  0  0  0  0  0  0  0  0  0  0
   37.9490   74.7090   61.1170 H   0  0  0  0  0  0  0  0  0  0  0  0
   43.1880   70.1090   61.4170 C   0  0  0  0  0  0  0  0  0  0  0  0
   42.9250   69.5660   62.7030 C   0  0  0  0  0  0  0  0  0  0  0  0
   41.9140   70.1490   63.4870 C   0  0  0  0  0  0  0  0  0  0  0  0
   41.2390   71.2040   62.9770 N   0  0  0  0  0  0  0  0  0  0  0  0
   41.5180   71.7000   61.7380 C   0  0  0  0  0  0  0  0  0  0  0  0
   42.4760   71.1490   60.9910 N   0  0  0  0  0  0  0  0  0  0  0  0
   43.9680   69.6220   60.8720 H   0  0  0  0  0  0  0  0  0  0  0  0
   43.4210   68.7350   63.1630 H   0  0  0  0  0  0  0  0  0  0  0  0
   41.6640   69.7850   64.4710 H   0  0  0  0  0  0  0  0  0  0  0  0
   37.8020   76.7760   55.9520 C   0  0  0  0  0  0  0  0  0  0  0  0
   36.5680   76.8900   55.9690 O   0  0  0  0  0  0  0  0  0  0  0  0
   38.5170   76.4590   54.6600 C   0  0  1  0  0  0  0  0  0  0  0  0
   37.9420   77.1920   53.4750 C   0  0  0  0  0  0  0  0  0  0  0  0
   39.2790   77.4920   53.9860 C   0  0  2  0  0  0  0  0  0  0  0  0
   38.4990   75.3480   54.4770 H   0  0  0  0  0  0  0  0  0  0  0  0
   37.7590   76.5870   52.5780 H   0  0  0  0  0  0  0  0  0  0  0  0
   37.1160   77.9250   53.6580 H   0  0  0  0  0  0  0  0  0  0  0  0
   39.3860   78.4550   54.5620 H   0  0  0  0  0  0  0  0  0  0  0  0
   40.4440   77.1710   53.1150 C   0  0  0  0  0  0  0  0  0  0  0  0
   41.3080   78.1860   52.7200 C   0  0  0  0  0  0  0  0  0  0  0  0
   41.1630   79.2230   53.0270 H   0  0  0  0  0  0  0  0  0  0  0  0
   42.4030   77.9470   51.9130 C   0  0  0  0  0  3  0  0  0  0  0  0
   42.6380   76.6550   51.4930 C   0  0  0  0  0  0  0  0  0  0  0  0
   43.4840   76.4140   50.8590 H   0  0  0  0  0  0  0  0  0  0  0  0
   41.7780   75.6360   51.8860 C   0  0  0  0  0  0  0  0  0  0  0  0
   41.9300   74.6010   51.5740 H   0  0  0  0  0  0  0  0  0  0  0  0
   40.6910   75.8710   52.6850 C   0  0  0  0  0  3  0  0  0  0  0  0
  1  2  1  0  0  0  0
  1 12  1  0  0  0  0
  2  7  1  0  0  0  0
  3  8  1  0  0  0  0
  3  2  2  0  0  0  0
  4  3  1  0  0  0  0
  5  4  2  0  0  0  0
  5  6  1  0  0  0  0
  6  1  2  0  0  0  0
  9 10  2  0  0  0  0
  9 20  1  0  0  0  0
 10 14  1  0  0  0  0
 11 15  1  0  0  0  0
 11 10  1  0  0  0  0
 12 11  2  0  0  0  0
 13 12  1  0  0  0  0
 13  9  1  0  0  0  0
 16 17  1  0  0  0  0
 17 23  1  0  0  0  0
 17 18  2  0  0  0  0
 18 24  1  0  0  0  0
 19 18  1  0  0  0  0
 20 19  2  0  0  0  0
 21 16  2  0  0  0  0
 21 20  1  0  0  0  0
 22 16  1  0  0  0  0
 25 26  2  0  0  0  0
 25  5  1  0  0  0  0
 27 30  1  6  0  0  0
 27 25  1  0  0  0  0
 28 32  1  0  0  0  0
 28 29  1  0  0  0  0
 28 27  1  0  0  0  0
 29 33  1  1  0  0  0
 29 27  1  0  0  0  0
 31 28  1  0  0  0  0
 34 29  1  0  0  0  0
 35 36  1  0  0  0  0
 35 34  1  0  0  0  0
 37 35  2  0  0  0  0
 38 40  2  0  0  0  0
 38 37  1  0  0  0  0
 39 38  1  0  0  0  0
 40 42  1  0  0  0  0
 41 40  1  0  0  0  0
 42 34  2  0  0  0  0
M  END
>  <minimizedAffinity>
-6.21408176

$$$$

 OpenBabel03212521013D

 42 46  0  0  1  0  0  0  0  0999 V2000
   39.2090   74.5150   56.6980 C   0  0  0  0  0  0  0  0  0  0  0  0
   38.5450   75.6900   56.5480 C   0  0  0  0  0  0  0  0  0  0  0  0
   38.4590   76.4070   57.7550 C   0  0  0  0  0  0  0  0  0  0  0  0
   38.9710   75.9860   58.9250 N   0  0  0  0  0  0  0  0  0  0  0  0
   39.6210   74.7850   58.9590 C   0  0  0  0  0  0  0  0  0  0  0  0
   39.7360   74.0510   57.8310 N   0  0  0  0  0  0  0  0  0  0  0  0
   38.1140   76.0780   55.6390 H   0  0  0  0  0  0  0  0  0  0  0  0
   37.9500   77.3750   57.7890 H   0  0  0  0  0  0  0  0  0  0  0  0
   39.7100   71.5500   53.9400 C   0  0  0  0  0  0  0  0  0  0  0  0
   39.6270   72.7900   53.3600 C   0  0  0  0  0  0  0  0  0  0  0  0
   39.4610   73.8580   54.1610 C   0  0  0  0  0  0  0  0  0  0  0  0
   39.3810   73.6650   55.5360 C   0  0  0  0  0  0  0  0  0  0  0  0
   39.5510   71.8450   55.7260 S   0  0  0  0  0  0  0  0  0  0  0  0
   39.6900   72.9400   52.2790 H   0  0  0  0  0  0  0  0  0  0  0  0
   39.3730   74.9050   53.9080 H   0  0  0  0  0  0  0  0  0  0  0  0
   39.7050   69.1660   51.1500 C   0  0  0  0  0  0  0  0  0  0  0  0
   40.1890   67.9750   51.7520 C   0  0  0  0  0  0  0  0  0  0  0  0
   40.5190   67.9950   53.1180 C   0  0  0  0  0  0  0  0  0  0  0  0
   40.3590   69.1550   53.7960 N   0  0  0  0  0  0  0  0  0  0  0  0
   39.8920   70.2810   53.1860 C   0  0  0  0  0  0  0  0  0  0  0  0
   39.5770   70.2640   51.8900 N   0  0  0  0  0  0  0  0  0  0  0  0
   39.4720   69.0850   50.1100 H   0  0  0  0  0  0  0  0  0  0  0  0
   40.3370   67.0270   51.2730 H   0  0  0  0  0  0  0  0  0  0  0  0
   40.8920   67.1260   53.6370 H   0  0  0  0  0  0  0  0  0  0  0  0
   40.1720   74.3520   60.2280 C   0  0  0  0  0  0  0  0  0  0  0  0
   39.8990   75.0290   61.2300 O   0  0  0  0  0  0  0  0  0  0  0  0
   41.0580   73.1370   60.3510 C   0  0  1  0  0  0  0  0  0  0  0  0
   42.5220   73.4820   60.4520 C   0  0  0  0  0  0  0  0  0  0  0  0
   41.7930   72.9020   61.5800 C   0  0  2  0  0  0  0  0  0  0  0  0
   40.8800   72.4450   59.4800 H   0  0  0  0  0  0  0  0  0  0  0  0
   43.1970   72.9050   59.8070 H   0  0  0  0  0  0  0  0  0  0  0  0
   42.8070   74.5640   60.4910 H   0  0  0  0  0  0  0  0  0  0  0  0
   41.5430   73.6050   62.4240 H   0  0  0  0  0  0  0  0  0  0  0  0
   42.1730   71.5310   62.0210 C   0  0  0  0  0  0  0  0  0  0  0  0
   43.0520   70.7790   61.2510 C   0  0  0  0  0  0  0  0  0  0  0  0
   43.4810   71.1590   60.3220 H   0  0  0  0  0  0  0  0  0  0  0  0
   43.4400   69.5040   61.6110 C   0  0  0  0  0  3  0  0  0  0  0  0
   42.9320   68.9690   62.7750 C   0  0  0  0  0  0  0  0  0  0  0  0
   43.2050   67.9710   63.1030 H   0  0  0  0  0  0  0  0  0  0  0  0
   42.0520   69.7160   63.5510 C   0  0  0  0  0  0  0  0  0  0  0  0
   41.6280   69.3270   64.4790 H   0  0  0  0  0  0  0  0  0  0  0  0
   41.6660   70.9810   63.1940 C   0  0  0  0  0  3  0  0  0  0  0  0
  1  6  1  0  0  0  0
  2  1  2  0  0  0  0
  2  3  1  0  0  0  0
  3  8  1  0  0  0  0
  3  4  2  0  0  0  0
  4  5  1  0  0  0  0
  5 25  1  0  0  0  0
  6  5  2  0  0  0  0
  7  2  1  0  0  0  0
  9 13  1  0  0  0  0
 10  9  2  0  0  0  0
 10 11  1  0  0  0  0
 11 12  2  0  0  0  0
 12 13  1  0  0  0  0
 12  1  1  0  0  0  0
 14 10  1  0  0  0  0
 15 11  1  0  0  0  0
 16 17  2  0  0  0  0
 16 21  1  0  0  0  0
 17 18  1  0  0  0  0
 18 24  1  0  0  0  0
 18 19  2  0  0  0  0
 20 19  1  0  0  0  0
 20  9  1  0  0  0  0
 21 20  2  0  0  0  0
 22 16  1  0  0  0  0
 23 17  1  0  0  0  0
 25 27  1  0  0  0  0
 25 26  2  0  0  0  0
 27 30  1  6  0  0  0
 27 28  1  0  0  0  0
 27 29  1  0  0  0  0
 28 32  1  0  0  0  0
 28 29  1  0  0  0  0
 29 34  1  0  0  0  0
 29 33  1  1  0  0  0
 31 28  1  0  0  0  0
 34 42  1  0  0  0  0
 35 37  1  0  0  0  0
 35 34  2  0  0  0  0
 36 35  1  0  0  0  0
 37 38  2  0  0  0  0
 38 39  1  0  0  0  0
 38 40  1  0  0  0  0
 40 41  1  0  0  0  0
 42 40  2  0  0  0  0
M  END
>  <minimizedAffinity>
-6.16514826

$$$$

 OpenBabel03212521013D

 42 46  0  0  1  0  0  0  0  0999 V2000
   40.4500   71.6970   56.6720 C   0  0  0  0  0  0  0  0  0  0  0  0
   40.6210   70.8100   55.6580 C   0  0  0  0  0  0  0  0  0  0  0  0
   40.1050   71.2900   54.4410 C   0  0  0  0  0  0  0  0  0  0  0  0
   39.5110   72.4870   54.2890 N   0  0  0  0  0  0  0  0  0  0  0  0
   39.3920   73.3000   55.3810 C   0  0  0  0  0  0  0  0  0  0  0  0
   39.8690   72.8930   56.5770 N   0  0  0  0  0  0  0  0  0  0  0  0
   41.0880   69.8400   55.7190 H   0  0  0  0  0  0  0  0  0  0  0  0
   40.1710   70.6840   53.5330 H   0  0  0  0  0  0  0  0  0  0  0  0
   41.8090   69.9750   60.1120 C   0  0  0  0  0  0  0  0  0  0  0  0
   41.6900   71.3370   60.2250 C   0  0  0  0  0  0  0  0  0  0  0  0
   41.2500   72.0280   59.1580 C   0  0  0  0  0  0  0  0  0  0  0  0
   40.9350   71.3410   57.9910 C   0  0  0  0  0  0  0  0  0  0  0  0
   41.2810   69.5870   58.4170 S   0  0  0  0  0  0  0  0  0  0  0  0
   41.9390   71.8760   61.1430 H   0  0  0  0  0  0  0  0  0  0  0  0
   41.0880   73.0910   59.0410 H   0  0  0  0  0  0  0  0  0  0  0  0
   43.5640   68.8520   63.1330 C   0  0  0  0  0  0  0  0  0  0  0  0
   43.1960   67.4830   63.2200 C   0  0  0  0  0  0  0  0  0  0  0  0
   42.3420   66.9500   62.2390 C   0  0  0  0  0  0  0  0  0  0  0  0
   41.9090   67.7710   61.2560 N   0  0  0  0  0  0  0  0  0  0  0  0
   42.2820   69.0810   61.2020 C   0  0  0  0  0  0  0  0  0  0  0  0
   43.0930   69.5900   62.1310 N   0  0  0  0  0  0  0  0  0  0  0  0
   44.2140   69.1950   63.9080 H   0  0  0  0  0  0  0  0  0  0  0  0
   43.5030   66.7810   63.9710 H   0  0  0  0  0  0  0  0  0  0  0  0
   42.0250   65.9190   62.2470 H   0  0  0  0  0  0  0  0  0  0  0  0
   38.7550   74.5890   55.1960 C   0  0  0  0  0  0  0  0  0  0  0  0
   38.0520   74.7390   54.1850 O   0  0  0  0  0  0  0  0  0  0  0  0
   38.9320   75.7250   56.1730 C   0  0  1  0  0  0  0  0  0  0  0  0
   37.6230   76.3130   56.6360 C   0  0  0  0  0  0  0  0  0  0  0  0
   38.4930   75.5700   57.5470 C   0  0  2  0  0  0  0  0  0  0  0  0
   39.5770   76.5260   55.7140 H   0  0  0  0  0  0  0  0  0  0  0  0
   37.5560   77.4090   56.6210 H   0  0  0  0  0  0  0  0  0  0  0  0
   36.6750   75.8330   56.2810 H   0  0  0  0  0  0  0  0  0  0  0  0
   38.1530   74.5320   57.8220 H   0  0  0  0  0  0  0  0  0  0  0  0
   39.1280   76.3190   58.6670 C   0  0  0  0  0  0  0  0  0  0  0  0
   39.6470   77.5880   58.4390 C   0  0  0  0  0  0  0  0  0  0  0  0
   39.6070   78.0630   57.4580 H   0  0  0  0  0  0  0  0  0  0  0  0
   40.2460   78.3290   59.4390 C   0  0  0  0  0  3  0  0  0  0  0  0
   40.3260   77.7800   60.7010 C   0  0  0  0  0  0  0  0  0  0  0  0
   40.7870   78.3200   61.5210 H   0  0  0  0  0  0  0  0  0  0  0  0
   39.8090   76.5110   60.9350 C   0  0  0  0  0  0  0  0  0  0  0  0
   39.8540   76.0430   61.9210 H   0  0  0  0  0  0  0  0  0  0  0  0
   39.2150   75.7760   59.9450 C   0  0  0  0  0  3  0  0  0  0  0  0
  1 12  1  0  0  0  0
  2  7  1  0  0  0  0
  2  1  2  0  0  0  0
  3  2  1  0  0  0  0
  4  3  2  0  0  0  0
  4  5  1  0  0  0  0
  5  6  2  0  0  0  0
  6  1  1  0  0  0  0
  8  3  1  0  0  0  0
  9 10  2  0  0  0  0
  9 20  1  0  0  0  0
 10 14  1  0  0  0  0
 11 10  1  0  0  0  0
 12 13  1  0  0  0  0
 12 11  2  0  0  0  0
 13  9  1  0  0  0  0
 15 11  1  0  0  0  0
 16 17  1  0  0  0  0
 16 22  1  0  0  0  0
 17 23  1  0  0  0  0
 18 24  1  0  0  0  0
 18 17  2  0  0  0  0
 19 18  1  0  0  0  0
 20 19  2  0  0  0  0
 20 21  1  0  0  0  0
 21 16  2  0  0  0  0
 25  5  1  0  0  0  0
 25 27  1  0  0  0  0
 26 25  2  0  0  0  0
 27 30  1  6  0  0  0
 27 28  1  0  0  0  0
 27 29  1  0  0  0  0
 28 29  1  0  0  0  0
 29 33  1  1  0  0  0
 29 34  1  0  0  0  0
 31 28  1  0  0  0  0
 32 28  1  0  0  0  0
 34 42  1  0  0  0  0
 35 34  2  0  0  0  0
 35 37  1  0  0  0  0
 36 35  1  0  0  0  0
 37 38  2  0  0  0  0
 38 40  1  0  0  0  0
 38 39  1  0  0  0  0
 40 41  1  0  0  0  0
 42 40  2  0  0  0  0
M  END
>  <minimizedAffinity>
-6.13063192

$$$$

 OpenBabel03212521013D

 42 46  0  0  1  0  0  0  0  0999 V2000
   38.6630   74.7190   55.5750 C   0  0  0  0  0  0  0  0  0  0  0  0
   37.3530   75.0130   55.3650 C   0  0  0  0  0  0  0  0  0  0  0  0
   36.9270   76.1100   56.1370 C   0  0  0  0  0  0  0  0  0  0  0  0
   37.7170   76.7930   56.9850 N   0  0  0  0  0  0  0  0  0  0  0  0
   39.0210   76.4070   57.1170 C   0  0  0  0  0  0  0  0  0  0  0  0
   39.4890   75.3610   56.4010 N   0  0  0  0  0  0  0  0  0  0  0  0
   36.6740   74.5040   54.7010 H   0  0  0  0  0  0  0  0  0  0  0  0
   35.8950   76.4630   56.0730 H   0  0  0  0  0  0  0  0  0  0  0  0
   40.4260   71.2980   54.2170 C   0  0  0  0  0  0  0  0  0  0  0  0
   40.0520   72.1320   53.1940 C   0  0  0  0  0  0  0  0  0  0  0  0
   39.4580   73.2970   53.5060 C   0  0  0  0  0  0  0  0  0  0  0  0
   39.2470   73.6110   54.8450 C   0  0  0  0  0  0  0  0  0  0  0  0
   39.9340   72.1610   55.7410 S   0  0  0  0  0  0  0  0  0  0  0  0
   40.2180   71.8830   52.1420 H   0  0  0  0  0  0  0  0  0  0  0  0
   39.0920   74.0820   52.8590 H   0  0  0  0  0  0  0  0  0  0  0  0
   41.5440   67.8720   54.9050 C   0  0  0  0  0  0  0  0  0  0  0  0
   42.3010   67.5490   53.7470 C   0  0  0  0  0  0  0  0  0  0  0  0
   42.4230   68.5120   52.7310 C   0  0  0  0  0  0  0  0  0  0  0  0
   41.8090   69.7040   52.9050 N   0  0  0  0  0  0  0  0  0  0  0  0
   41.0900   69.9810   54.0290 C   0  0  0  0  0  0  0  0  0  0  0  0
   40.9730   69.0700   54.9960 N   0  0  0  0  0  0  0  0  0  0  0  0
   41.4890   67.0980   55.6400 H   0  0  0  0  0  0  0  0  0  0  0  0
   42.8100   66.6260   53.5490 H   0  0  0  0  0  0  0  0  0  0  0  0
   42.9830   68.3310   51.8270 H   0  0  0  0  0  0  0  0  0  0  0  0
   39.8580   77.1600   58.0300 C   0  0  0  0  0  0  0  0  0  0  0  0
   39.9740   78.3780   57.8270 O   0  0  0  0  0  0  0  0  0  0  0  0
   40.5820   76.5110   59.1840 C   0  0  1  0  0  0  0  0  0  0  0  0
   39.7980   76.5570   60.4710 C   0  0  0  0  0  0  0  0  0  0  0  0
   40.0530   75.2960   59.7750 C   0  0  2  0  0  0  0  0  0  0  0  0
   41.5890   76.9950   59.3240 H   0  0  0  0  0  0  0  0  0  0  0  0
   40.3540   76.8800   61.3610 H   0  0  0  0  0  0  0  0  0  0  0  0
   38.7660   76.9900   60.4450 H   0  0  0  0  0  0  0  0  0  0  0  0
   39.1770   74.8440   59.2290 H   0  0  0  0  0  0  0  0  0  0  0  0
   40.9330   74.2980   60.4450 C   0  0  0  0  0  0  0  0  0  0  0  0
   42.2390   74.1260   60.0040 C   0  0  0  0  0  0  0  0  0  0  0  0
   42.6520   74.7020   59.1740 H   0  0  0  0  0  0  0  0  0  0  0  0
   43.0990   73.2160   60.5870 C   0  0  0  0  0  3  0  0  0  0  0  0
   42.6340   72.4590   61.6410 C   0  0  0  0  0  0  0  0  0  0  0  0
   43.2690   71.7300   62.1340 H   0  0  0  0  0  0  0  0  0  0  0  0
   41.3280   72.6260   62.0870 C   0  0  0  0  0  0  0  0  0  0  0  0
   40.9240   72.0450   62.9180 H   0  0  0  0  0  0  0  0  0  0  0  0
   40.4750   73.5270   61.5100 C   0  0  0  0  0  3  0  0  0  0  0  0
  1  6  1  0  0  0  0
  2  1  2  0  0  0  0
  2  3  1  0  0  0  0
  3  4  2  0  0  0  0
  4  5  1  0  0  0  0
  5 25  1  0  0  0  0
  6  5  2  0  0  0  0
  7  2  1  0  0  0  0
  8  3  1  0  0  0  0
  9 13  1  0  0  0  0
 10 11  1  0  0  0  0
 10  9  2  0  0  0  0
 11 12  2  0  0  0  0
 12  1  1  0  0  0  0
 12 13  1  0  0  0  0
 14 10  1  0  0  0  0
 15 11  1  0  0  0  0
 16 21  1  0  0  0  0
 16 22  1  0  0  0  0
 17 16  2  0  0  0  0
 18 19  2  0  0  0  0
 18 17  1  0  0  0  0
 19 20  1  0  0  0  0
 20  9  1  0  0  0  0
 20 21  2  0  0  0  0
 23 17  1  0  0  0  0
 24 18  1  0  0  0  0
 25 27  1  0  0  0  0
 26 25  2  0  0  0  0
 27 30  1  1  0  0  0
 27 29  1  0  0  0  0
 27 28  1  0  0  0  0
 28 31  1  0  0  0  0
 29 33  1  6  0  0  0
 29 34  1  0  0  0  0
 29 28  1  0  0  0  0
 32 28  1  0  0  0  0
 34 42  1  0  0  0  0
 35 34  2  0  0  0  0
 35 37  1  0  0  0  0
 36 35  1  0  0  0  0
 37 38  2  0  0  0  0
 38 40  1  0  0  0  0
 38 39  1  0  0  0  0
 40 41  1  0  0  0  0
 42 40  2  0  0  0  0
M  END
>  <minimizedAffinity>
-6.09674788

$$$$

 OpenBabel03212521013D

 42 46  0  0  1  0  0  0  0  0999 V2000
   40.4290   71.4090   55.5360 C   0  0  0  0  0  0  0  0  0  0  0  0
   40.5220   70.7590   54.3470 C   0  0  0  0  0  0  0  0  0  0  0  0
   39.9850   71.5120   53.2880 C   0  0  0  0  0  0  0  0  0  0  0  0
   39.4400   72.7340   53.4270 N   0  0  0  0  0  0  0  0  0  0  0  0
   39.3980   73.2930   54.6730 C   0  0  0  0  0  0  0  0  0  0  0  0
   39.9000   72.6180   55.7300 N   0  0  0  0  0  0  0  0  0  0  0  0
   40.9470   69.7830   54.1760 H   0  0  0  0  0  0  0  0  0  0  0  0
   39.9900   71.1160   52.2690 H   0  0  0  0  0  0  0  0  0  0  0  0
   41.6190   70.1940   59.2450 C   0  0  0  0  0  0  0  0  0  0  0  0
   41.9350   69.2800   58.2720 C   0  0  0  0  0  0  0  0  0  0  0  0
   41.5970   69.5600   57.0010 C   0  0  0  0  0  0  0  0  0  0  0  0
   40.9450   70.7570   56.7230 C   0  0  0  0  0  0  0  0  0  0  0  0
   40.7910   71.5560   58.3710 S   0  0  0  0  0  0  0  0  0  0  0  0
   42.4480   68.3390   58.4930 H   0  0  0  0  0  0  0  0  0  0  0  0
   41.7520   68.9820   56.1000 H   0  0  0  0  0  0  0  0  0  0  0  0
   42.3840   68.5520   62.4360 C   0  0  0  0  0  0  0  0  0  0  0  0
   42.4790   69.6450   63.3390 C   0  0  0  0  0  0  0  0  0  0  0  0
   42.2820   70.9460   62.8450 C   0  0  0  0  0  0  0  0  0  0  0  0
   42.0110   71.0950   61.5280 N   0  0  0  0  0  0  0  0  0  0  0  0
   41.9270   70.0240   60.6900 C   0  0  0  0  0  0  0  0  0  0  0  0
   42.1130   68.7870   61.1550 N   0  0  0  0  0  0  0  0  0  0  0  0
   42.5440   67.5900   62.8730 H   0  0  0  0  0  0  0  0  0  0  0  0
   42.6900   69.5950   64.3880 H   0  0  0  0  0  0  0  0  0  0  0  0
   42.3400   71.8190   63.4760 H   0  0  0  0  0  0  0  0  0  0  0  0
   38.8140   74.6130   54.8010 C   0  0  0  0  0  0  0  0  0  0  0  0
   38.2820   75.1030   53.7930 O   0  0  0  0  0  0  0  0  0  0  0  0
   38.8460   75.3890   56.0950 C   0  0  1  0  0  0  0  0  0  0  0  0
   37.5060   75.9700   56.4670 C   0  0  0  0  0  0  0  0  0  0  0  0
   38.1190   74.8970   57.2490 C   0  0  2  0  0  0  0  0  0  0  0  0
   39.6200   76.2050   56.0300 H   0  0  0  0  0  0  0  0  0  0  0  0
   37.5080   77.0230   56.7770 H   0  0  0  0  0  0  0  0  0  0  0  0
   36.6280   75.7300   55.8140 H   0  0  0  0  0  0  0  0  0  0  0  0
   37.6680   73.8720   57.1250 H   0  0  0  0  0  0  0  0  0  0  0  0
   38.5450   75.2100   58.6410 C   0  0  0  0  0  0  0  0  0  0  0  0
   38.2310   74.3310   59.6710 C   0  0  0  0  0  0  0  0  0  0  0  0
   37.6770   73.4070   59.4960 H   0  0  0  0  0  0  0  0  0  0  0  0
   38.6010   74.5680   60.9800 C   0  0  0  0  0  3  0  0  0  0  0  0
   39.3040   75.7190   61.2630 C   0  0  0  0  0  0  0  0  0  0  0  0
   39.6180   75.9530   62.2750 H   0  0  0  0  0  0  0  0  0  0  0  0
   39.6220   76.6030   60.2380 C   0  0  0  0  0  0  0  0  0  0  0  0
   40.1770   77.5250   60.4220 H   0  0  0  0  0  0  0  0  0  0  0  0
   39.2560   76.3690   58.9400 C   0  0  0  0  0  3  0  0  0  0  0  0
  1  6  1  0  0  0  0
  1 12  1  0  0  0  0
  2  1  2  0  0  0  0
  3  4  2  0  0  0  0
  3  2  1  0  0  0  0
  4  5  1  0  0  0  0
  5 25  1  0  0  0  0
  5  6  2  0  0  0  0
  7  2  1  0  0  0  0
  8  3  1  0  0  0  0
  9 20  1  0  0  0  0
 10 14  1  0  0  0  0
 10  9  2  0  0  0  0
 11 10  1  0  0  0  0
 12 11  2  0  0  0  0
 12 13  1  0  0  0  0
 13  9  1  0  0  0  0
 15 11  1  0  0  0  0
 16 22  1  0  0  0  0
 16 17  1  0  0  0  0
 17 23  1  0  0  0  0
 18 17  2  0  0  0  0
 18 24  1  0  0  0  0
 19 18  1  0  0  0  0
 20 21  1  0  0  0  0
 20 19  2  0  0  0  0
 21 16  2  0  0  0  0
 25 27  1  0  0  0  0
 26 25  2  0  0  0  0
 27 30  1  1  0  0  0
 27 28  1  0  0  0  0
 27 29  1  0  0  0  0
 28 31  1  0  0  0  0
 28 29  1  0  0  0  0
 29 33  1  6  0  0  0
 29 34  1  0  0  0  0
 32 28  1  0  0  0  0
 34 42  2  0  0  0  0
 34 35  1  0  0  0  0
 35 37  2  0  0  0  0
 36 35  1  0  0  0  0
 37 38  1  0  0  0  0
 38 39  1  0  0  0  0
 40 41  1  0  0  0  0
 40 38  2  0  0  0  0
 42 40  1  0  0  0  0
M  END
>  <minimizedAffinity>
-6.09640408

$$$$

 OpenBabel03212521013D

 42 46  0  0  1  0  0  0  0  0999 V2000
   41.8240   70.3450   57.6210 C   0  0  0  0  0  0  0  0  0  0  0  0
   41.3330   69.6740   58.6950 C   0  0  0  0  0  0  0  0  0  0  0  0
   41.8860   70.1350   59.9040 C   0  0  0  0  0  0  0  0  0  0  0  0
   42.7940   71.1220   59.9950 N   0  0  0  0  0  0  0  0  0  0  0  0
   43.2180   71.7280   58.8460 C   0  0  0  0  0  0  0  0  0  0  0  0
   42.7230   71.3290   57.6540 N   0  0  0  0  0  0  0  0  0  0  0  0
   40.6070   68.8770   58.6840 H   0  0  0  0  0  0  0  0  0  0  0  0
   41.5850   69.6880   60.8560 H   0  0  0  0  0  0  0  0  0  0  0  0
   40.7840   68.6370   54.0640 C   0  0  0  0  0  0  0  0  0  0  0  0
   40.3670   69.9410   54.1560 C   0  0  0  0  0  0  0  0  0  0  0  0
   40.6470   70.6210   55.2820 C   0  0  0  0  0  0  0  0  0  0  0  0
   41.3440   69.9820   56.3020 C   0  0  0  0  0  0  0  0  0  0  0  0
   41.6320   68.2940   55.6350 S   0  0  0  0  0  0  0  0  0  0  0  0
   39.8190   70.4420   53.3540 H   0  0  0  0  0  0  0  0  0  0  0  0
   40.4110   71.6410   55.5510 H   0  0  0  0  0  0  0  0  0  0  0  0
   39.1130   67.1450   51.1570 C   0  0  0  0  0  0  0  0  0  0  0  0
   40.0480   66.1680   50.7230 C   0  0  0  0  0  0  0  0  0  0  0  0
   41.2540   66.0270   51.4310 C   0  0  0  0  0  0  0  0  0  0  0  0
   41.4670   66.8330   52.4970 N   0  0  0  0  0  0  0  0  0  0  0  0
   40.5470   67.7610   52.8860 C   0  0  0  0  0  0  0  0  0  0  0  0
   39.4010   67.8970   52.2160 N   0  0  0  0  0  0  0  0  0  0  0  0
   38.2180   67.2030   50.5780 H   0  0  0  0  0  0  0  0  0  0  0  0
   39.9410   65.5010   49.8910 H   0  0  0  0  0  0  0  0  0  0  0  0
   42.0060   65.3050   51.1550 H   0  0  0  0  0  0  0  0  0  0  0  0
   44.1920   72.7940   58.9650 C   0  0  0  0  0  0  0  0  0  0  0  0
   45.3910   72.4860   58.8870 O   0  0  0  0  0  0  0  0  0  0  0  0
   43.7920   74.2330   59.1880 C   0  0  1  0  0  0  0  0  0  0  0  0
   43.6760   75.0170   57.9050 C   0  0  0  0  0  0  0  0  0  0  0  0
   42.5020   74.7030   58.7200 C   0  0  2  0  0  0  0  0  0  0  0  0
   44.5260   74.7290   59.8830 H   0  0  0  0  0  0  0  0  0  0  0  0
   44.1620   76.0010   57.8990 H   0  0  0  0  0  0  0  0  0  0  0  0
   43.8250   74.4720   56.9390 H   0  0  0  0  0  0  0  0  0  0  0  0
   41.8210   73.8990   58.3200 H   0  0  0  0  0  0  0  0  0  0  0  0
   41.7890   75.8340   59.3770 C   0  0  0  0  0  0  0  0  0  0  0  0
   42.3800   77.0910   59.4120 C   0  0  0  0  0  0  0  0  0  0  0  0
   43.3590   77.2850   58.9710 H   0  0  0  0  0  0  0  0  0  0  0  0
   41.7660   78.1760   60.0070 C   0  0  0  0  0  3  0  0  0  0  0  0
   40.5260   77.9930   60.5810 C   0  0  0  0  0  0  0  0  0  0  0  0
   40.0010   78.8120   61.0610 H   0  0  0  0  0  0  0  0  0  0  0  0
   39.9300   76.7370   60.5490 C   0  0  0  0  0  0  0  0  0  0  0  0
   38.9500   76.5530   60.9930 H   0  0  0  0  0  0  0  0  0  0  0  0
   40.5380   75.6610   59.9600 C   0  0  0  0  0  3  0  0  0  0  0  0
  1  6  2  0  0  0  0
  1  2  1  0  0  0  0
  2  3  2  0  0  0  0
  3  4  1  0  0  0  0
  3  8  1  0  0  0  0
  5 25  1  0  0  0  0
  5  4  2  0  0  0  0
  6  5  1  0  0  0  0
  7  2  1  0  0  0  0
  9 10  2  0  0  0  0
  9 13  1  0  0  0  0
 10 11  1  0  0  0  0
 11 15  1  0  0  0  0
 11 12  2  0  0  0  0
 12  1  1  0  0  0  0
 13 12  1  0  0  0  0
 14 10  1  0  0  0  0
 16 21  1  0  0  0  0
 17 16  2  0  0  0  0
 17 18  1  0  0  0  0
 18 19  2  0  0  0  0
 19 20  1  0  0  0  0
 20  9  1  0  0  0  0
 21 20  2  0  0  0  0
 22 16  1  0  0  0  0
 23 17  1  0  0  0  0
 24 18  1  0  0  0  0
 25 27  1  0  0  0  0
 26 25  2  0  0  0  0
 27 30  1  1  0  0  0
 28 29  1  0  0  0  0
 28 27  1  0  0  0  0
 29 33  1  6  0  0  0
 29 27  1  0  0  0  0
 29 34  1  0  0  0  0
 31 28  1  0  0  0  0
 32 28  1  0  0  0  0
 34 35  2  0  0  0  0
 34 42  1  0  0  0  0
 35 37  1  0  0  0  0
 36 35  1  0  0  0  0
 37 38  2  0  0  0  0
 38 39  1  0  0  0  0
 40 38  1  0  0  0  0
 40 41  1  0  0  0  0
 42 40  2  0  0  0  0
M  END
>  <minimizedAffinity>
-6.07231617

$$$$
