
 OpenBabel03212521003D

 42 46  0  0  1  0  0  0  0  0999 V2000
   39.7870   77.3920   59.1780 C   0  0  0  0  0  0  0  0  0  0  0  0
   40.5100   76.2820   58.8770 C   0  0  0  0  0  0  0  0  0  0  0  0
   39.9590   75.5690   57.7970 C   0  0  0  0  0  0  0  0  0  0  0  0
   38.8470   75.9350   57.1350 N   0  0  0  0  0  0  0  0  0  0  0  0
   38.1990   77.0730   57.5250 C   0  0  0  0  0  0  0  0  0  0  0  0
   38.6810   77.8010   58.5560 N   0  0  0  0  0  0  0  0  0  0  0  0
   41.4050   75.9390   59.3710 H   0  0  0  0  0  0  0  0  0  0  0  0
   40.4340   74.6500   57.4410 H   0  0  0  0  0  0  0  0  0  0  0  0
   40.9810   80.3310   61.7450 C   0  0  0  0  0  0  0  0  0  0  0  0
   40.9730   79.0940   62.3390 C   0  0  0  0  0  0  0  0  0  0  0  0
   40.5970   78.0350   61.5990 C   0  0  0  0  0  0  0  0  0  0  0  0
   40.2350   78.2330   60.2710 C   0  0  0  0  0  0  0  0  0  0  0  0
   40.4350   80.0440   60.0340 S   0  0  0  0  0  0  0  0  0  0  0  0
   41.2570   78.9410   63.3830 H   0  0  0  0  0  0  0  0  0  0  0  0
   40.5220   76.9920   61.8730 H   0  0  0  0  0  0  0  0  0  0  0  0
   43.0530   83.1330   62.8930 C   0  0  0  0  0  0  0  0  0  0  0  0
   42.1500   83.8890   63.6860 C   0  0  0  0  0  0  0  0  0  0  0  0
   40.8280   83.4330   63.8220 C   0  0  0  0  0  0  0  0  0  0  0  0
   40.4780   82.2920   63.1870 N   0  0  0  0  0  0  0  0  0  0  0  0
   41.3710   81.5910   62.4330 C   0  0  0  0  0  0  0  0  0  0  0  0
   42.6270   82.0200   62.3020 N   0  0  0  0  0  0  0  0  0  0  0  0
   44.0430   83.5320   62.8290 H   0  0  0  0  0  0  0  0  0  0  0  0
   42.3640   84.7980   64.2130 H   0  0  0  0  0  0  0  0  0  0  0  0
   40.0920   83.9600   64.4100 H   0  0  0  0  0  0  0  0  0  0  0  0
   37.0080   77.4550   56.7940 C   0  0  0  0  0  0  0  0  0  0  0  0
   35.9220   77.0170   57.2030 O   0  0  0  0  0  0  0  0  0  0  0  0
   37.0580   78.3400   55.5730 C   0  0  1  0  0  0  0  0  0  0  0  0
   37.3190   79.7870   55.9040 C   0  0  0  0  0  0  0  0  0  0  0  0
   38.3060   78.9750   55.1930 C   0  0  2  0  0  0  0  0  0  0  0  0
   36.0990   78.2410   54.9900 H   0  0  0  0  0  0  0  0  0  0  0  0
   36.6670   80.5190   55.4090 H   0  0  0  0  0  0  0  0  0  0  0  0
   37.5100   80.0570   56.9740 H   0  0  0  0  0  0  0  0  0  0  0  0
   39.2040   78.6500   55.7900 H   0  0  0  0  0  0  0  0  0  0  0  0
   38.6100   79.3320   53.7800 C   0  0  0  0  0  0  0  0  0  0  0  0
   39.8700   79.8150   53.4480 C   0  0  0  0  0  0  0  0  0  0  0  0
   40.6560   79.9450   54.1940 H   0  0  0  0  0  0  0  0  0  0  0  0
   40.2090   80.1630   52.1550 C   0  0  0  0  0  3  0  0  0  0  0  0
   39.2560   80.0200   51.1680 C   0  0  0  0  0  0  0  0  0  0  0  0
   39.4700   80.2780   50.1370 H   0  0  0  0  0  0  0  0  0  0  0  0
   37.9930   79.5370   51.4930 C   0  0  0  0  0  0  0  0  0  0  0  0
   37.2140   79.4100   50.7410 H   0  0  0  0  0  0  0  0  0  0  0  0
   37.6570   79.1920   52.7750 C   0  0  0  0  0  3  0  0  0  0  0  0
  1 12  1  0  0  0  0
  2  1  1  0  0  0  0
  2  7  1  0  0  0  0
  3  2  2  0  0  0  0
  4  5  2  0  0  0  0
  4  3  1  0  0  0  0
  5  6  1  0  0  0  0
  6  1  2  0  0  0  0
  8  3  1  0  0  0  0
  9 10  2  0  0  0  0
  9 20  1  0  0  0  0
 10 14  1  0  0  0  0
 11 15  1  0  0  0  0
 11 10  1  0  0  0  0
 12 11  2  0  0  0  0
 13 12  1  0  0  0  0
 13  9  1  0  0  0  0
 16 17  1  0  0  0  0
 17 18  2  0  0  0  0
 17 23  1  0  0  0  0
 18 24  1  0  0  0  0
 19 18  1  0  0  0  0
 20 19  2  0  0  0  0
 21 20  1  0  0  0  0
 21 16  2  0  0  0  0
 22 16  1  0  0  0  0
 25 26  2  0  0  0  0
 25  5  1  0  0  0  0
 27 30  1  6  0  0  0
 27 28  1  0  0  0  0
 27 25  1  0  0  0  0
 28 32  1  0  0  0  0
 29 27  1  0  0  0  0
 29 33  1  1  0  0  0
 29 28  1  0  0  0  0
 31 28  1  0  0  0  0
 34 29  1  0  0  0  0
 35 34  1  0  0  0  0
 35 36  1  0  0  0  0
 37 35  2  0  0  0  0
 38 40  2  0  0  0  0
 38 37  1  0  0  0  0
 39 38  1  0  0  0  0
 40 42  1  0  0  0  0
 41 40  1  0  0  0  0
 42 34  2  0  0  0  0
M  END
>  <minimizedAffinity>
-6.44822884

>  <minimizedRMSD>
0.378970951

$$$$
