
 OpenBabel03212521003D

 42 46  0  0  1  0  0  0  0  0999 V2000
   39.6370   77.1270   59.2350 C   0  0  0  0  0  0  0  0  0  0  0  0
   40.2360   75.9220   59.0520 C   0  0  0  0  0  0  0  0  0  0  0  0
   39.6550   75.1970   57.9960 C   0  0  0  0  0  0  0  0  0  0  0  0
   38.6270   75.6380   57.2490 N   0  0  0  0  0  0  0  0  0  0  0  0
   38.1010   76.8690   57.5230 C   0  0  0  0  0  0  0  0  0  0  0  0
   38.6180   77.6120   58.5260 N   0  0  0  0  0  0  0  0  0  0  0  0
   41.0600   75.5160   59.6170 H   0  0  0  0  0  0  0  0  0  0  0  0
   40.0330   74.2060   57.7310 H   0  0  0  0  0  0  0  0  0  0  0  0
   40.9580   80.1160   61.6790 C   0  0  0  0  0  0  0  0  0  0  0  0
   40.9370   78.8990   62.3110 C   0  0  0  0  0  0  0  0  0  0  0  0
   40.5210   77.8260   61.6140 C   0  0  0  0  0  0  0  0  0  0  0  0
   40.1300   77.9910   60.2900 C   0  0  0  0  0  0  0  0  0  0  0  0
   40.3630   79.7890   59.9920 S   0  0  0  0  0  0  0  0  0  0  0  0
   41.2450   78.7710   63.3530 H   0  0  0  0  0  0  0  0  0  0  0  0
   40.4310   76.7940   61.9220 H   0  0  0  0  0  0  0  0  0  0  0  0
   43.1220   82.8970   62.7000 C   0  0  0  0  0  0  0  0  0  0  0  0
   42.2520   83.7040   63.4800 C   0  0  0  0  0  0  0  0  0  0  0  0
   40.9200   83.2900   63.6510 C   0  0  0  0  0  0  0  0  0  0  0  0
   40.5300   82.1370   63.0610 N   0  0  0  0  0  0  0  0  0  0  0  0
   41.3920   81.3870   62.3180 C   0  0  0  0  0  0  0  0  0  0  0  0
   42.6570   81.7770   62.1540 N   0  0  0  0  0  0  0  0  0  0  0  0
   44.1210   83.2670   62.6090 H   0  0  0  0  0  0  0  0  0  0  0  0
   42.4980   84.6240   63.9730 H   0  0  0  0  0  0  0  0  0  0  0  0
   40.2080   83.8560   64.2310 H   0  0  0  0  0  0  0  0  0  0  0  0
   36.9990   77.3300   56.7030 C   0  0  0  0  0  0  0  0  0  0  0  0
   35.8510   77.1550   57.1370 O   0  0  0  0  0  0  0  0  0  0  0  0
   37.2100   77.9890   55.3620 C   0  0  1  0  0  0  0  0  0  0  0  0
   37.4580   79.4730   55.4680 C   0  0  0  0  0  0  0  0  0  0  0  0
   38.5060   78.5500   55.0300 C   0  0  2  0  0  0  0  0  0  0  0  0
   36.3250   77.7890   54.6950 H   0  0  0  0  0  0  0  0  0  0  0  0
   36.8840   80.1060   54.7790 H   0  0  0  0  0  0  0  0  0  0  0  0
   37.5270   79.9240   56.4900 H   0  0  0  0  0  0  0  0  0  0  0  0
   39.3220   78.3350   55.7770 H   0  0  0  0  0  0  0  0  0  0  0  0
   38.9830   78.6570   53.6230 C   0  0  0  0  0  0  0  0  0  0  0  0
   39.4160   79.8840   53.1340 C   0  0  0  0  0  0  0  0  0  0  0  0
   39.4190   80.7840   53.7500 H   0  0  0  0  0  0  0  0  0  0  0  0
   39.8670   80.0420   51.8380 C   0  0  0  0  0  3  0  0  0  0  0  0
   39.8850   78.9390   51.0120 C   0  0  0  0  0  0  0  0  0  0  0  0
   40.2300   79.0090   49.9860 H   0  0  0  0  0  0  0  0  0  0  0  0
   39.4530   77.7090   51.4950 C   0  0  0  0  0  0  0  0  0  0  0  0
   39.4530   76.8130   50.8720 H   0  0  0  0  0  0  0  0  0  0  0  0
   39.0050   77.5510   52.7790 C   0  0  0  0  0  3  0  0  0  0  0  0
  1 12  1  0  0  0  0
  2  1  1  0  0  0  0
  2  7  1  0  0  0  0
  3  2  2  0  0  0  0
  4  5  2  0  0  0  0
  4  3  1  0  0  0  0
  5  6  1  0  0  0  0
  6  1  2  0  0  0  0
  8  3  1  0  0  0  0
  9 10  2  0  0  0  0
  9 20  1  0  0  0  0
 10 14  1  0  0  0  0
 11 15  1  0  0  0  0
 11 10  1  0  0  0  0
 12 11  2  0  0  0  0
 13 12  1  0  0  0  0
 13  9  1  0  0  0  0
 16 17  1  0  0  0  0
 17 18  2  0  0  0  0
 17 23  1  0  0  0  0
 18 24  1  0  0  0  0
 19 18  1  0  0  0  0
 20 19  2  0  0  0  0
 21 20  1  0  0  0  0
 21 16  2  0  0  0  0
 22 16  1  0  0  0  0
 25 26  2  0  0  0  0
 25  5  1  0  0  0  0
 27 30  1  6  0  0  0
 27 28  1  0  0  0  0
 27 25  1  0  0  0  0
 28 32  1  0  0  0  0
 29 27  1  0  0  0  0
 29 28  1  0  0  0  0
 29 33  1  1  0  0  0
 31 28  1  0  0  0  0
 34 29  1  0  0  0  0
 35 34  1  0  0  0  0
 35 36  1  0  0  0  0
 37 35  2  0  0  0  0
 38 40  2  0  0  0  0
 38 37  1  0  0  0  0
 39 38  1  0  0  0  0
 40 42  1  0  0  0  0
 41 40  1  0  0  0  0
 42 34  2  0  0  0  0
M  END
>  <minimizedAffinity>
-6.21539736

>  <minimizedRMSD>
0.696826637

$$$$
