
 OpenBabel03212521003D

 42 46  0  0  1  0  0  0  0  0999 V2000
   39.7250   77.2420   59.1060 C   0  0  0  0  0  0  0  0  0  0  0  0
   40.4480   76.1380   58.7860 C   0  0  0  0  0  0  0  0  0  0  0  0
   39.8780   75.4230   57.7170 C   0  0  0  0  0  0  0  0  0  0  0  0
   38.7500   75.7830   57.0800 N   0  0  0  0  0  0  0  0  0  0  0  0
   38.1030   76.9150   57.4880 C   0  0  0  0  0  0  0  0  0  0  0  0
   38.6020   77.6440   58.5100 N   0  0  0  0  0  0  0  0  0  0  0  0
   41.3570   75.8000   59.2590 H   0  0  0  0  0  0  0  0  0  0  0  0
   40.3520   74.5090   57.3480 H   0  0  0  0  0  0  0  0  0  0  0  0
   40.9780   80.1800   61.6450 C   0  0  0  0  0  0  0  0  0  0  0  0
   40.9510   78.9480   62.2490 C   0  0  0  0  0  0  0  0  0  0  0  0
   40.5550   77.8900   61.5190 C   0  0  0  0  0  0  0  0  0  0  0  0
   40.1910   78.0830   60.1900 C   0  0  0  0  0  0  0  0  0  0  0  0
   40.4210   79.8890   59.9390 S   0  0  0  0  0  0  0  0  0  0  0  0
   41.2370   78.7980   63.2930 H   0  0  0  0  0  0  0  0  0  0  0  0
   40.4640   76.8500   61.8010 H   0  0  0  0  0  0  0  0  0  0  0  0
   43.1030   82.9520   62.7690 C   0  0  0  0  0  0  0  0  0  0  0  0
   42.2140   83.7320   63.5550 C   0  0  0  0  0  0  0  0  0  0  0  0
   40.8830   83.3030   63.6950 C   0  0  0  0  0  0  0  0  0  0  0  0
   40.5120   82.1630   63.0700 N   0  0  0  0  0  0  0  0  0  0  0  0
   41.3910   81.4380   62.3220 C   0  0  0  0  0  0  0  0  0  0  0  0
   42.6560   81.8420   62.1880 N   0  0  0  0  0  0  0  0  0  0  0  0
   44.1000   83.3320   62.7020 H   0  0  0  0  0  0  0  0  0  0  0  0
   42.4450   84.6410   64.0740 H   0  0  0  0  0  0  0  0  0  0  0  0
   40.1580   83.8490   64.2780 H   0  0  0  0  0  0  0  0  0  0  0  0
   36.8920   77.2900   56.7850 C   0  0  0  0  0  0  0  0  0  0  0  0
   35.8100   76.9650   57.2960 O   0  0  0  0  0  0  0  0  0  0  0  0
   36.9180   78.0370   55.4740 C   0  0  1  0  0  0  0  0  0  0  0  0
   37.2910   79.4900   55.6300 C   0  0  0  0  0  0  0  0  0  0  0  0
   38.1760   78.5410   54.9550 C   0  0  2  0  0  0  0  0  0  0  0  0
   35.9190   77.9450   54.9630 H   0  0  0  0  0  0  0  0  0  0  0  0
   36.6560   80.2090   55.0980 H   0  0  0  0  0  0  0  0  0  0  0  0
   37.5690   79.8550   56.6520 H   0  0  0  0  0  0  0  0  0  0  0  0
   39.0890   78.2180   55.5300 H   0  0  0  0  0  0  0  0  0  0  0  0
   38.4090   78.7260   53.4960 C   0  0  0  0  0  0  0  0  0  0  0  0
   37.7840   79.7710   52.8260 C   0  0  0  0  0  0  0  0  0  0  0  0
   37.1200   80.4720   53.3360 H   0  0  0  0  0  0  0  0  0  0  0  0
   37.9640   79.9930   51.4750 C   0  0  0  0  0  3  0  0  0  0  0  0
   38.7930   79.1390   50.7770 C   0  0  0  0  0  0  0  0  0  0  0  0
   38.9680   79.2680   49.7150 H   0  0  0  0  0  0  0  0  0  0  0  0
   39.4200   78.0910   51.4410 C   0  0  0  0  0  0  0  0  0  0  0  0
   40.0830   77.3960   50.9240 H   0  0  0  0  0  0  0  0  0  0  0  0
   39.2440   77.8720   52.7810 C   0  0  0  0  0  3  0  0  0  0  0  0
  1 12  1  0  0  0  0
  2  1  1  0  0  0  0
  2  7  1  0  0  0  0
  3  2  2  0  0  0  0
  4  5  2  0  0  0  0
  4  3  1  0  0  0  0
  5  6  1  0  0  0  0
  6  1  2  0  0  0  0
  8  3  1  0  0  0  0
  9 10  2  0  0  0  0
  9 20  1  0  0  0  0
 10 14  1  0  0  0  0
 11 15  1  0  0  0  0
 11 10  1  0  0  0  0
 12 11  2  0  0  0  0
 13 12  1  0  0  0  0
 13  9  1  0  0  0  0
 16 17  1  0  0  0  0
 17 18  2  0  0  0  0
 17 23  1  0  0  0  0
 18 24  1  0  0  0  0
 19 18  1  0  0  0  0
 20 19  2  0  0  0  0
 21 20  1  0  0  0  0
 21 16  2  0  0  0  0
 22 16  1  0  0  0  0
 25 26  2  0  0  0  0
 25  5  1  0  0  0  0
 27 30  1  6  0  0  0
 27 28  1  0  0  0  0
 27 25  1  0  0  0  0
 28 32  1  0  0  0  0
 29 27  1  0  0  0  0
 29 33  1  1  0  0  0
 29 28  1  0  0  0  0
 31 28  1  0  0  0  0
 34 29  1  0  0  0  0
 35 36  1  0  0  0  0
 35 34  1  0  0  0  0
 37 35  2  0  0  0  0
 38 40  2  0  0  0  0
 38 37  1  0  0  0  0
 39 38  1  0  0  0  0
 40 42  1  0  0  0  0
 41 40  1  0  0  0  0
 42 34  2  0  0  0  0
M  END
>  <minimizedAffinity>
-6.35024881

>  <minimizedRMSD>
0.768717647

$$$$
