
 OpenBabel03212521003D

 42 46  0  0  1  0  0  0  0  0999 V2000
   39.6940   77.2160   59.1090 C   0  0  0  0  0  0  0  0  0  0  0  0
   40.3810   76.0770   58.8300 C   0  0  0  0  0  0  0  0  0  0  0  0
   39.8120   75.3650   57.7600 C   0  0  0  0  0  0  0  0  0  0  0  0
   38.7170   75.7570   57.0850 N   0  0  0  0  0  0  0  0  0  0  0  0
   38.1050   76.9220   57.4530 C   0  0  0  0  0  0  0  0  0  0  0  0
   38.6060   77.6510   58.4740 N   0  0  0  0  0  0  0  0  0  0  0  0
   41.2620   75.7130   59.3350 H   0  0  0  0  0  0  0  0  0  0  0  0
   40.2580   74.4260   57.4210 H   0  0  0  0  0  0  0  0  0  0  0  0
   40.9640   80.1570   61.6360 C   0  0  0  0  0  0  0  0  0  0  0  0
   40.9260   78.9290   62.2460 C   0  0  0  0  0  0  0  0  0  0  0  0
   40.5230   77.8700   61.5210 C   0  0  0  0  0  0  0  0  0  0  0  0
   40.1650   78.0590   60.1900 C   0  0  0  0  0  0  0  0  0  0  0  0
   40.4090   79.8620   59.9300 S   0  0  0  0  0  0  0  0  0  0  0  0
   41.2080   78.7820   63.2920 H   0  0  0  0  0  0  0  0  0  0  0  0
   40.4230   76.8330   61.8080 H   0  0  0  0  0  0  0  0  0  0  0  0
   43.1060   82.9230   62.7430 C   0  0  0  0  0  0  0  0  0  0  0  0
   42.2240   83.7100   63.5300 C   0  0  0  0  0  0  0  0  0  0  0  0
   40.8910   83.2870   63.6750 C   0  0  0  0  0  0  0  0  0  0  0  0
   40.5120   82.1470   63.0560 N   0  0  0  0  0  0  0  0  0  0  0  0
   41.3850   81.4150   62.3070 C   0  0  0  0  0  0  0  0  0  0  0  0
   42.6510   81.8140   62.1670 N   0  0  0  0  0  0  0  0  0  0  0  0
   44.1040   83.2990   62.6710 H   0  0  0  0  0  0  0  0  0  0  0  0
   42.4600   84.6200   64.0450 H   0  0  0  0  0  0  0  0  0  0  0  0
   40.1700   83.8380   64.2590 H   0  0  0  0  0  0  0  0  0  0  0  0
   36.9310   77.3310   56.7090 C   0  0  0  0  0  0  0  0  0  0  0  0
   35.8230   77.0920   57.2120 O   0  0  0  0  0  0  0  0  0  0  0  0
   37.0220   78.0140   55.3650 C   0  0  1  0  0  0  0  0  0  0  0  0
   37.3880   79.4720   55.4700 C   0  0  0  0  0  0  0  0  0  0  0  0
   38.3040   78.4920   54.8860 C   0  0  2  0  0  0  0  0  0  0  0  0
   36.0490   77.8950   54.8110 H   0  0  0  0  0  0  0  0  0  0  0  0
   36.7810   80.1640   54.8720 H   0  0  0  0  0  0  0  0  0  0  0  0
   37.6150   79.8870   56.4850 H   0  0  0  0  0  0  0  0  0  0  0  0
   39.1880   78.1990   55.5200 H   0  0  0  0  0  0  0  0  0  0  0  0
   38.6100   78.6070   53.4330 C   0  0  0  0  0  0  0  0  0  0  0  0
   38.1840   79.7250   52.7260 C   0  0  0  0  0  0  0  0  0  0  0  0
   37.6270   80.5350   53.2020 H   0  0  0  0  0  0  0  0  0  0  0  0
   38.4380   79.8860   51.3780 C   0  0  0  0  0  3  0  0  0  0  0  0
   39.1390   78.8950   50.7230 C   0  0  0  0  0  0  0  0  0  0  0  0
   39.3650   78.9720   49.6640 H   0  0  0  0  0  0  0  0  0  0  0  0
   39.5670   77.7730   51.4230 C   0  0  0  0  0  0  0  0  0  0  0  0
   40.1250   76.9700   50.9400 H   0  0  0  0  0  0  0  0  0  0  0  0
   39.3170   77.6140   52.7600 C   0  0  0  0  0  3  0  0  0  0  0  0
  1 12  1  0  0  0  0
  2  1  1  0  0  0  0
  2  7  1  0  0  0  0
  3  2  2  0  0  0  0
  4  5  2  0  0  0  0
  4  3  1  0  0  0  0
  5  6  1  0  0  0  0
  6  1  2  0  0  0  0
  8  3  1  0  0  0  0
  9 10  2  0  0  0  0
  9 20  1  0  0  0  0
 10 14  1  0  0  0  0
 11 15  1  0  0  0  0
 11 10  1  0  0  0  0
 12 11  2  0  0  0  0
 13 12  1  0  0  0  0
 13  9  1  0  0  0  0
 16 17  1  0  0  0  0
 17 18  2  0  0  0  0
 17 23  1  0  0  0  0
 18 24  1  0  0  0  0
 19 18  1  0  0  0  0
 20 19  2  0  0  0  0
 21 20  1  0  0  0  0
 21 16  2  0  0  0  0
 22 16  1  0  0  0  0
 25 26  2  0  0  0  0
 25  5  1  0  0  0  0
 27 30  1  6  0  0  0
 27 28  1  0  0  0  0
 27 25  1  0  0  0  0
 28 32  1  0  0  0  0
 29 27  1  0  0  0  0
 29 28  1  0  0  0  0
 29 33  1  1  0  0  0
 31 28  1  0  0  0  0
 34 29  1  0  0  0  0
 35 36  1  0  0  0  0
 35 34  2  0  0  0  0
 37 35  1  0  0  0  0
 38 37  2  0  0  0  0
 38 40  1  0  0  0  0
 39 38  1  0  0  0  0
 40 42  2  0  0  0  0
 41 40  1  0  0  0  0
 42 34  1  0  0  0  0
M  END
>  <minimizedAffinity>
-6.32225704

>  <minimizedRMSD>
0.811526954

$$$$
