
 OpenBabel03212521043D

 28 30  0  0  0  0  0  0  0  0999 V2000
   39.7710   72.9970   59.0300 C   0  0  0  0  0  0  0  0  0  0  0  0
   39.3740   71.9080   58.2420 C   0  0  0  0  0  0  0  0  0  0  0  0
   38.3820   72.0050   57.2970 C   0  0  0  0  0  0  0  0  0  0  0  0
   37.7460   73.2330   57.1130 C   0  0  0  0  0  0  0  0  0  0  0  0
   38.1370   74.3140   57.8950 C   0  0  0  0  0  0  0  0  0  0  0  0
   39.1440   74.2240   58.8570 C   0  0  0  0  0  0  0  0  0  0  0  0
   39.8630   70.9540   58.3790 H   0  0  0  0  0  0  0  0  0  0  0  0
   38.0930   71.1540   56.7030 H   0  0  0  0  0  0  0  0  0  0  0  0
   36.9570   73.3800   56.3870 H   0  0  0  0  0  0  0  0  0  0  0  0
   37.6580   75.2940   57.7770 H   0  0  0  0  0  0  0  0  0  0  0  0
   43.1110   72.8170   60.5090 C   0  0  0  0  0  0  0  0  0  0  0  0
   42.8410   72.4470   61.8330 C   0  0  0  0  0  0  0  0  0  0  0  0
   41.4970   72.2570   62.2210 C   0  0  0  0  0  0  0  0  0  0  0  0
   40.5520   72.4500   61.2740 N   0  0  0  0  0  0  0  0  0  0  0  0
   40.8280   72.8060   60.0030 C   0  0  0  0  0  0  0  0  0  0  0  0
   42.0950   72.9810   59.6490 N   0  0  0  0  0  0  0  0  0  0  0  0
   44.1080   72.9680   60.1770 H   0  0  0  0  0  0  0  0  0  0  0  0
   43.6570   72.3150   62.5210 H   0  0  0  0  0  0  0  0  0  0  0  0
   41.2670   71.9720   63.2410 H   0  0  0  0  0  0  0  0  0  0  0  0
   39.5210   75.3840   59.6570 C   0  0  0  0  0  0  0  0  0  0  0  0
   39.0530   75.6140   60.9560 C   0  0  0  0  0  0  0  0  0  0  0  0
   38.3860   74.8340   61.2930 H   0  0  0  0  0  0  0  0  0  0  0  0
   39.4700   76.7300   61.6100 C   0  0  0  0  0  3  0  0  0  0  0  0
   40.3470   77.6350   61.0040 C   0  0  0  0  0  0  0  0  0  0  0  0
   40.6540   78.5070   61.5540 H   0  0  0  0  0  0  0  0  0  0  0  0
   40.8000   77.3970   59.7210 C   0  0  0  0  0  0  0  0  0  0  0  0
   41.4910   78.1070   59.2410 H   0  0  0  0  0  0  0  0  0  0  0  0
   40.3960   76.2720   59.0310 C   0  0  0  0  0  3  0  0  0  0  0  0
  1 15  1  0  0  0  0
  2  7  1  0  0  0  0
  2  1  2  0  0  0  0
  3  2  1  0  0  0  0
  4  3  2  0  0  0  0
  4  5  1  0  0  0  0
  5  6  2  0  0  0  0
  6  1  1  0  0  0  0
  6 20  1  0  0  0  0
  8  3  1  0  0  0  0
  9  4  1  0  0  0  0
 10  5  1  0  0  0  0
 11 12  1  0  0  0  0
 12 13  2  0  0  0  0
 12 18  1  0  0  0  0
 13 19  1  0  0  0  0
 14 13  1  0  0  0  0
 15 14  2  0  0  0  0
 16 15  1  0  0  0  0
 16 11  2  0  0  0  0
 17 11  1  0  0  0  0
 20 21  1  0  0  0  0
 21 22  1  0  0  0  0
 21 23  2  0  0  0  0
 24 25  1  0  0  0  0
 24 23  1  0  0  0  0
 26 24  2  0  0  0  0
 27 26  1  0  0  0  0
 28 20  2  0  0  0  0
 28 26  1  0  0  0  0
M  END
>  <minimizedAffinity>
-5.27280521

$$$$

 OpenBabel03212521043D

 28 30  0  0  0  0  0  0  0  0999 V2000
   39.8950   73.0050   58.8230 C   0  0  0  0  0  0  0  0  0  0  0  0
   39.2050   71.9330   58.2400 C   0  0  0  0  0  0  0  0  0  0  0  0
   38.3400   72.0990   57.1850 C   0  0  0  0  0  0  0  0  0  0  0  0
   38.1390   73.3810   56.6750 C   0  0  0  0  0  0  0  0  0  0  0  0
   38.8210   74.4460   57.2530 C   0  0  0  0  0  0  0  0  0  0  0  0
   39.7020   74.2870   58.3240 C   0  0  0  0  0  0  0  0  0  0  0  0
   39.3560   70.9370   58.6300 H   0  0  0  0  0  0  0  0  0  0  0  0
   37.8210   71.2590   56.7530 H   0  0  0  0  0  0  0  0  0  0  0  0
   37.4730   73.5840   55.8460 H   0  0  0  0  0  0  0  0  0  0  0  0
   38.6870   75.4690   56.8770 H   0  0  0  0  0  0  0  0  0  0  0  0
   41.1260   72.5750   62.2390 C   0  0  0  0  0  0  0  0  0  0  0  0
   42.4720   72.2420   62.0400 C   0  0  0  0  0  0  0  0  0  0  0  0
   42.9620   72.1640   60.7180 C   0  0  0  0  0  0  0  0  0  0  0  0
   42.0830   72.4200   59.7230 N   0  0  0  0  0  0  0  0  0  0  0  0
   40.7900   72.7400   59.9310 C   0  0  0  0  0  0  0  0  0  0  0  0
   40.3410   72.8100   61.1770 N   0  0  0  0  0  0  0  0  0  0  0  0
   40.7190   72.6450   63.2170 H   0  0  0  0  0  0  0  0  0  0  0  0
   43.1010   72.0540   62.8920 H   0  0  0  0  0  0  0  0  0  0  0  0
   43.9990   71.9070   60.5430 H   0  0  0  0  0  0  0  0  0  0  0  0
   40.3940   75.4340   58.9010 C   0  0  0  0  0  0  0  0  0  0  0  0
   41.7100   75.7860   58.5770 C   0  0  0  0  0  0  0  0  0  0  0  0
   42.1470   75.1130   57.8550 H   0  0  0  0  0  0  0  0  0  0  0  0
   42.2570   76.8770   59.1770 C   0  0  0  0  0  3  0  0  0  0  0  0
   41.5280   77.6350   60.0980 C   0  0  0  0  0  0  0  0  0  0  0  0
   41.9960   78.4910   60.5510 H   0  0  0  0  0  0  0  0  0  0  0  0
   40.2310   77.2750   60.4080 C   0  0  0  0  0  0  0  0  0  0  0  0
   39.6540   77.8700   61.1330 H   0  0  0  0  0  0  0  0  0  0  0  0
   39.6470   76.1740   59.8170 C   0  0  0  0  0  3  0  0  0  0  0  0
  1 15  1  0  0  0  0
  2  7  1  0  0  0  0
  2  1  2  0  0  0  0
  3  2  1  0  0  0  0
  4  3  2  0  0  0  0
  4  5  1  0  0  0  0
  5  6  2  0  0  0  0
  6  1  1  0  0  0  0
  6 20  1  0  0  0  0
  8  3  1  0  0  0  0
  9  4  1  0  0  0  0
 10  5  1  0  0  0  0
 11 17  1  0  0  0  0
 12 11  1  0  0  0  0
 12 18  1  0  0  0  0
 13 12  2  0  0  0  0
 14 15  2  0  0  0  0
 14 13  1  0  0  0  0
 15 16  1  0  0  0  0
 16 11  2  0  0  0  0
 19 13  1  0  0  0  0
 20 28  1  0  0  0  0
 21 20  2  0  0  0  0
 21 23  1  0  0  0  0
 22 21  1  0  0  0  0
 23 24  2  0  0  0  0
 24 26  1  0  0  0  0
 24 25  1  0  0  0  0
 26 27  1  0  0  0  0
 28 26  2  0  0  0  0
M  END
>  <minimizedAffinity>
-5.18279648

$$$$

 OpenBabel03212521043D

 28 30  0  0  0  0  0  0  0  0999 V2000
   39.6590   74.2790   58.3930 C   0  0  0  0  0  0  0  0  0  0  0  0
   38.7930   74.4660   57.3070 C   0  0  0  0  0  0  0  0  0  0  0  0
   38.1350   73.4230   56.7010 C   0  0  0  0  0  0  0  0  0  0  0  0
   38.3350   72.1300   57.1840 C   0  0  0  0  0  0  0  0  0  0  0  0
   39.1950   71.9430   58.2600 C   0  0  0  0  0  0  0  0  0  0  0  0
   39.8680   72.9970   58.8810 C   0  0  0  0  0  0  0  0  0  0  0  0
   38.6320   75.4650   56.9280 H   0  0  0  0  0  0  0  0  0  0  0  0
   37.4730   73.5910   55.8670 H   0  0  0  0  0  0  0  0  0  0  0  0
   37.8490   71.2630   56.7550 H   0  0  0  0  0  0  0  0  0  0  0  0
   39.3760   70.9390   58.6650 H   0  0  0  0  0  0  0  0  0  0  0  0
   40.2430   77.2360   60.4630 C   0  0  0  0  0  0  0  0  0  0  0  0
   41.5320   77.6310   60.0780 C   0  0  0  0  0  0  0  0  0  0  0  0
   42.2060   76.8730   59.0970 C   0  0  0  0  0  0  0  0  0  0  0  0
   41.5520   75.8030   58.5910 N   0  0  0  0  0  0  0  0  0  0  0  0
   40.3110   75.4360   58.9720 C   0  0  0  0  0  0  0  0  0  0  0  0
   39.6870   76.1570   59.8950 N   0  0  0  0  0  0  0  0  0  0  0  0
   39.7020   77.7800   61.1970 H   0  0  0  0  0  0  0  0  0  0  0  0
   41.9770   78.4970   60.5340 H   0  0  0  0  0  0  0  0  0  0  0  0
   43.2030   77.1610   58.7860 H   0  0  0  0  0  0  0  0  0  0  0  0
   40.7630   72.7530   60.0060 C   0  0  0  0  0  0  0  0  0  0  0  0
   40.3780   72.8900   61.3460 C   0  0  0  0  0  0  0  0  0  0  0  0
   39.3460   73.1940   61.4440 H   0  0  0  0  0  0  0  0  0  0  0  0
   41.2960   72.6370   62.3160 C   0  0  0  0  0  3  0  0  0  0  0  0
   42.6000   72.2490   61.9910 C   0  0  0  0  0  0  0  0  0  0  0  0
   43.2980   72.0590   62.7870 H   0  0  0  0  0  0  0  0  0  0  0  0
   42.9670   72.1190   60.6660 C   0  0  0  0  0  0  0  0  0  0  0  0
   43.9920   71.8140   60.4060 H   0  0  0  0  0  0  0  0  0  0  0  0
   42.0570   72.3680   59.6580 C   0  0  0  0  0  3  0  0  0  0  0  0
  1  6  1  0  0  0  0
  1 15  1  0  0  0  0
  2  1  2  0  0  0  0
  3  4  2  0  0  0  0
  3  2  1  0  0  0  0
  4  5  1  0  0  0  0
  5 10  1  0  0  0  0
  5  6  2  0  0  0  0
  6 20  1  0  0  0  0
  7  2  1  0  0  0  0
  8  3  1  0  0  0  0
  9  4  1  0  0  0  0
 11 17  1  0  0  0  0
 12 11  1  0  0  0  0
 12 18  1  0  0  0  0
 13 12  2  0  0  0  0
 14 15  2  0  0  0  0
 14 13  1  0  0  0  0
 15 16  1  0  0  0  0
 16 11  2  0  0  0  0
 19 13  1  0  0  0  0
 20 21  1  0  0  0  0
 21 22  1  0  0  0  0
 21 23  2  0  0  0  0
 24 23  1  0  0  0  0
 24 25  1  0  0  0  0
 26 24  2  0  0  0  0
 27 26  1  0  0  0  0
 28 20  2  0  0  0  0
 28 26  1  0  0  0  0
M  END
>  <minimizedAffinity>
-5.08185005

$$$$

 OpenBabel03212521043D

 28 30  0  0  0  0  0  0  0  0999 V2000
   41.3270   71.7720   59.9590 C   0  0  0  0  0  0  0  0  0  0  0  0
   41.8550   70.5170   60.2940 C   0  0  0  0  0  0  0  0  0  0  0  0
   42.4580   70.2700   61.5030 C   0  0  0  0  0  0  0  0  0  0  0  0
   42.5500   71.3050   62.4330 C   0  0  0  0  0  0  0  0  0  0  0  0
   42.0280   72.5510   62.1020 C   0  0  0  0  0  0  0  0  0  0  0  0
   41.4140   72.8100   60.8760 C   0  0  0  0  0  0  0  0  0  0  0  0
   41.7870   69.7100   59.5780 H   0  0  0  0  0  0  0  0  0  0  0  0
   42.8570   69.2970   61.7390 H   0  0  0  0  0  0  0  0  0  0  0  0
   43.0110   71.1810   63.4040 H   0  0  0  0  0  0  0  0  0  0  0  0
   42.0830   73.3880   62.8100 H   0  0  0  0  0  0  0  0  0  0  0  0
   40.9320   72.3660   56.3730 C   0  0  0  0  0  0  0  0  0  0  0  0
   39.5440   72.2740   56.1980 C   0  0  0  0  0  0  0  0  0  0  0  0
   38.7370   72.0050   57.3240 C   0  0  0  0  0  0  0  0  0  0  0  0
   39.3690   71.8520   58.5090 N   0  0  0  0  0  0  0  0  0  0  0  0
   40.7060   71.9440   58.6610 C   0  0  0  0  0  0  0  0  0  0  0  0
   41.4540   72.1980   57.5960 N   0  0  0  0  0  0  0  0  0  0  0  0
   41.5730   72.5680   55.5520 H   0  0  0  0  0  0  0  0  0  0  0  0
   39.1260   72.4100   55.2160 H   0  0  0  0  0  0  0  0  0  0  0  0
   37.6620   71.9290   57.2090 H   0  0  0  0  0  0  0  0  0  0  0  0
   40.8830   74.1340   60.5700 C   0  0  0  0  0  0  0  0  0  0  0  0
   41.5380   75.0610   59.7500 C   0  0  0  0  0  0  0  0  0  0  0  0
   42.4760   74.6800   59.3740 H   0  0  0  0  0  0  0  0  0  0  0  0
   40.9510   76.2680   59.5330 C   0  0  0  0  0  3  0  0  0  0  0  0
   39.7180   76.5840   60.1130 C   0  0  0  0  0  0  0  0  0  0  0  0
   39.2860   77.5490   59.9180 H   0  0  0  0  0  0  0  0  0  0  0  0
   39.0830   75.6610   60.9210 C   0  0  0  0  0  0  0  0  0  0  0  0
   38.1130   75.9070   61.3790 H   0  0  0  0  0  0  0  0  0  0  0  0
   39.6540   74.4270   61.1600 C   0  0  0  0  0  3  0  0  0  0  0  0
  1  2  2  0  0  0  0
  1  6  1  0  0  0  0
  2  3  1  0  0  0  0
  3  8  1  0  0  0  0
  3  4  2  0  0  0  0
  4  9  1  0  0  0  0
  5  4  1  0  0  0  0
  5 10  1  0  0  0  0
  6  5  2  0  0  0  0
  7  2  1  0  0  0  0
 11 16  1  0  0  0  0
 12 11  2  0  0  0  0
 12 13  1  0  0  0  0
 13 14  2  0  0  0  0
 14 15  1  0  0  0  0
 15  1  1  0  0  0  0
 16 15  2  0  0  0  0
 17 11  1  0  0  0  0
 18 12  1  0  0  0  0
 19 13  1  0  0  0  0
 20  6  1  0  0  0  0
 20 28  1  0  0  0  0
 21 20  2  0  0  0  0
 22 21  1  0  0  0  0
 23 21  1  0  0  0  0
 23 24  2  0  0  0  0
 24 26  1  0  0  0  0
 25 24  1  0  0  0  0
 26 28  2  0  0  0  0
 26 27  1  0  0  0  0
M  END
>  <minimizedAffinity>
-5.02169895

$$$$

 OpenBabel03212521043D

 28 30  0  0  0  0  0  0  0  0999 V2000
   41.2320   74.3830   59.9440 C   0  0  0  0  0  0  0  0  0  0  0  0
   40.5210   75.5690   59.7150 C   0  0  0  0  0  0  0  0  0  0  0  0
   39.2870   75.8060   60.2710 C   0  0  0  0  0  0  0  0  0  0  0  0
   38.7200   74.8330   61.0920 C   0  0  0  0  0  0  0  0  0  0  0  0
   39.4230   73.6550   61.3190 C   0  0  0  0  0  0  0  0  0  0  0  0
   40.6770   73.4050   60.7590 C   0  0  0  0  0  0  0  0  0  0  0  0
   40.9540   76.3270   59.0800 H   0  0  0  0  0  0  0  0  0  0  0  0
   38.7580   76.7260   60.0810 H   0  0  0  0  0  0  0  0  0  0  0  0
   37.7520   74.9540   61.5630 H   0  0  0  0  0  0  0  0  0  0  0  0
   39.0070   72.8680   61.9600 H   0  0  0  0  0  0  0  0  0  0  0  0
   43.7870   73.8510   57.3830 C   0  0  0  0  0  0  0  0  0  0  0  0
   44.9770   73.8950   58.1230 C   0  0  0  0  0  0  0  0  0  0  0  0
   44.8990   74.1090   59.5150 C   0  0  0  0  0  0  0  0  0  0  0  0
   43.6650   74.2600   60.0450 N   0  0  0  0  0  0  0  0  0  0  0  0
   42.5290   74.2150   59.3190 C   0  0  0  0  0  0  0  0  0  0  0  0
   42.6140   74.0130   58.0110 N   0  0  0  0  0  0  0  0  0  0  0  0
   43.8020   73.6910   56.3340 H   0  0  0  0  0  0  0  0  0  0  0  0
   45.9180   73.7640   57.6180 H   0  0  0  0  0  0  0  0  0  0  0  0
   45.8070   74.1470   60.1050 H   0  0  0  0  0  0  0  0  0  0  0  0
   41.3780   72.1540   61.0220 C   0  0  0  0  0  0  0  0  0  0  0  0
   41.5730   71.1580   60.0570 C   0  0  0  0  0  0  0  0  0  0  0  0
   41.1460   71.4260   59.1030 H   0  0  0  0  0  0  0  0  0  0  0  0
   42.2420   70.0290   60.4130 C   0  0  0  0  0  3  0  0  0  0  0  0
   42.7270   69.8580   61.7140 C   0  0  0  0  0  0  0  0  0  0  0  0
   43.2510   68.9510   61.9570 H   0  0  0  0  0  0  0  0  0  0  0  0
   42.5270   70.8490   62.6560 C   0  0  0  0  0  0  0  0  0  0  0  0
   42.9080   70.7180   63.6800 H   0  0  0  0  0  0  0  0  0  0  0  0
   41.8530   72.0060   62.3250 C   0  0  0  0  0  3  0  0  0  0  0  0
  1  6  1  0  0  0  0
  2  1  2  0  0  0  0
  2  3  1  0  0  0  0
  3  4  2  0  0  0  0
  4  5  1  0  0  0  0
  4  9  1  0  0  0  0
  5 10  1  0  0  0  0
  6 20  1  0  0  0  0
  6  5  2  0  0  0  0
  7  2  1  0  0  0  0
  8  3  1  0  0  0  0
 11 16  2  0  0  0  0
 11 12  1  0  0  0  0
 12 13  2  0  0  0  0
 13 14  1  0  0  0  0
 13 19  1  0  0  0  0
 15  1  1  0  0  0  0
 15 14  2  0  0  0  0
 16 15  1  0  0  0  0
 17 11  1  0  0  0  0
 18 12  1  0  0  0  0
 20 28  1  0  0  0  0
 21 23  1  0  0  0  0
 21 20  2  0  0  0  0
 22 21  1  0  0  0  0
 23 24  2  0  0  0  0
 24 25  1  0  0  0  0
 24 26  1  0  0  0  0
 26 27  1  0  0  0  0
 28 26  2  0  0  0  0
M  END
>  <minimizedAffinity>
-4.84058619

$$$$

 OpenBabel03212521043D

 28 30  0  0  0  0  0  0  0  0999 V2000
   39.9830   75.0340   58.4010 C   0  0  0  0  0  0  0  0  0  0  0  0
   39.2970   76.0440   57.7120 C   0  0  0  0  0  0  0  0  0  0  0  0
   39.1870   77.3240   58.1990 C   0  0  0  0  0  0  0  0  0  0  0  0
   39.7800   77.6320   59.4240 C   0  0  0  0  0  0  0  0  0  0  0  0
   40.4600   76.6310   60.1090 C   0  0  0  0  0  0  0  0  0  0  0  0
   40.5760   75.3280   59.6210 C   0  0  0  0  0  0  0  0  0  0  0  0
   38.8360   75.8130   56.7630 H   0  0  0  0  0  0  0  0  0  0  0  0
   38.6540   78.0850   57.6520 H   0  0  0  0  0  0  0  0  0  0  0  0
   39.7330   78.6190   59.8650 H   0  0  0  0  0  0  0  0  0  0  0  0
   40.9380   76.8380   61.0750 H   0  0  0  0  0  0  0  0  0  0  0  0
   39.1290   71.5770   57.5720 C   0  0  0  0  0  0  0  0  0  0  0  0
   40.1680   71.2020   56.7100 C   0  0  0  0  0  0  0  0  0  0  0  0
   41.1720   72.1470   56.4110 C   0  0  0  0  0  0  0  0  0  0  0  0
   41.0590   73.3660   56.9850 N   0  0  0  0  0  0  0  0  0  0  0  0
   40.0510   73.7110   57.8130 C   0  0  0  0  0  0  0  0  0  0  0  0
   39.1130   72.8140   58.0870 N   0  0  0  0  0  0  0  0  0  0  0  0
   38.3540   70.8950   57.8220 H   0  0  0  0  0  0  0  0  0  0  0  0
   40.1790   70.2090   56.2970 H   0  0  0  0  0  0  0  0  0  0  0  0
   41.9850   71.8780   55.7460 H   0  0  0  0  0  0  0  0  0  0  0  0
   41.2970   74.3090   60.3760 C   0  0  0  0  0  0  0  0  0  0  0  0
   42.6410   73.9860   60.1510 C   0  0  0  0  0  0  0  0  0  0  0  0
   43.0760   74.5780   59.3600 H   0  0  0  0  0  0  0  0  0  0  0  0
   43.2140   73.0170   60.9150 C   0  0  0  0  0  3  0  0  0  0  0  0
   42.4820   72.3530   61.9040 C   0  0  0  0  0  0  0  0  0  0  0  0
   42.9700   71.5920   62.4860 H   0  0  0  0  0  0  0  0  0  0  0  0
   41.1570   72.6800   62.1130 C   0  0  0  0  0  0  0  0  0  0  0  0
   40.5780   72.1590   62.8910 H   0  0  0  0  0  0  0  0  0  0  0  0
   40.5470   73.6590   61.3560 C   0  0  0  0  0  3  0  0  0  0  0  0
  1  6  1  0  0  0  0
  2  3  1  0  0  0  0
  2  1  2  0  0  0  0
  3  4  2  0  0  0  0
  4  9  1  0  0  0  0
  4  5  1  0  0  0  0
  5 10  1  0  0  0  0
  6  5  2  0  0  0  0
  6 20  1  0  0  0  0
  7  2  1  0  0  0  0
  8  3  1  0  0  0  0
 11 17  1  0  0  0  0
 11 16  1  0  0  0  0
 12 11  2  0  0  0  0
 13 12  1  0  0  0  0
 13 14  2  0  0  0  0
 14 15  1  0  0  0  0
 15 16  2  0  0  0  0
 15  1  1  0  0  0  0
 18 12  1  0  0  0  0
 19 13  1  0  0  0  0
 20 28  1  0  0  0  0
 21 20  2  0  0  0  0
 21 23  1  0  0  0  0
 22 21  1  0  0  0  0
 23 24  2  0  0  0  0
 24 26  1  0  0  0  0
 24 25  1  0  0  0  0
 26 27  1  0  0  0  0
 28 26  2  0  0  0  0
M  END
>  <minimizedAffinity>
-4.82661676

$$$$

 OpenBabel03212521043D

 28 30  0  0  0  0  0  0  0  0999 V2000
   40.3410   73.3940   60.1530 C   0  0  0  0  0  0  0  0  0  0  0  0
   39.1510   73.5250   60.8820 C   0  0  0  0  0  0  0  0  0  0  0  0
   38.6370   74.7470   61.2400 C   0  0  0  0  0  0  0  0  0  0  0  0
   39.3220   75.9020   60.8650 C   0  0  0  0  0  0  0  0  0  0  0  0
   40.5030   75.7750   60.1430 C   0  0  0  0  0  0  0  0  0  0  0  0
   41.0330   74.5360   59.7750 C   0  0  0  0  0  0  0  0  0  0  0  0
   38.6140   72.6350   61.1760 H   0  0  0  0  0  0  0  0  0  0  0  0
   37.7200   74.8230   61.8010 H   0  0  0  0  0  0  0  0  0  0  0  0
   38.9740   76.8970   61.1120 H   0  0  0  0  0  0  0  0  0  0  0  0
   41.0690   76.6620   59.8310 H   0  0  0  0  0  0  0  0  0  0  0  0
   42.0580   70.1750   60.3970 C   0  0  0  0  0  0  0  0  0  0  0  0
   41.7100   69.5500   59.1920 C   0  0  0  0  0  0  0  0  0  0  0  0
   40.8770   70.2420   58.2870 C   0  0  0  0  0  0  0  0  0  0  0  0
   40.4670   71.4770   58.6520 N   0  0  0  0  0  0  0  0  0  0  0  0
   40.8110   72.0650   59.8160 C   0  0  0  0  0  0  0  0  0  0  0  0
   41.5950   71.4050   60.6590 N   0  0  0  0  0  0  0  0  0  0  0  0
   42.6830   69.6890   61.1040 H   0  0  0  0  0  0  0  0  0  0  0  0
   42.0830   68.5620   58.9830 H   0  0  0  0  0  0  0  0  0  0  0  0
   40.5960   69.7750   57.3500 H   0  0  0  0  0  0  0  0  0  0  0  0
   42.2780   74.4500   59.0190 C   0  0  0  0  0  0  0  0  0  0  0  0
   42.3350   74.4590   57.6190 C   0  0  0  0  0  0  0  0  0  0  0  0
   41.3560   74.5380   57.1720 H   0  0  0  0  0  0  0  0  0  0  0  0
   43.5510   74.3730   57.0180 C   0  0  0  0  0  3  0  0  0  0  0  0
   44.7240   74.2760   57.7730 C   0  0  0  0  0  0  0  0  0  0  0  0
   45.6670   74.2090   57.2610 H   0  0  0  0  0  0  0  0  0  0  0  0
   44.6520   74.2680   59.1530 C   0  0  0  0  0  0  0  0  0  0  0  0
   45.5740   74.1920   59.7510 H   0  0  0  0  0  0  0  0  0  0  0  0
   43.4330   74.3540   59.7930 C   0  0  0  0  0  3  0  0  0  0  0  0
  1  2  1  0  0  0  0
  2  7  1  0  0  0  0
  2  3  2  0  0  0  0
  3  8  1  0  0  0  0
  4  9  1  0  0  0  0
  4  3  1  0  0  0  0
  5  4  2  0  0  0  0
  6  5  1  0  0  0  0
  6  1  2  0  0  0  0
 10  5  1  0  0  0  0
 11 16  1  0  0  0  0
 11 17  1  0  0  0  0
 12 11  2  0  0  0  0
 13 14  2  0  0  0  0
 13 12  1  0  0  0  0
 14 15  1  0  0  0  0
 15  1  1  0  0  0  0
 15 16  2  0  0  0  0
 18 12  1  0  0  0  0
 19 13  1  0  0  0  0
 20  6  1  0  0  0  0
 20 28  1  0  0  0  0
 21 20  2  0  0  0  0
 22 21  1  0  0  0  0
 23 21  1  0  0  0  0
 23 24  2  0  0  0  0
 24 26  1  0  0  0  0
 25 24  1  0  0  0  0
 26 27  1  0  0  0  0
 26 28  2  0  0  0  0
M  END
>  <minimizedAffinity>
-4.80091381

$$$$

 OpenBabel03212521043D

 28 30  0  0  0  0  0  0  0  0999 V2000
   41.3250   72.6220   61.0330 C   0  0  0  0  0  0  0  0  0  0  0  0
   41.8550   72.3860   62.3090 C   0  0  0  0  0  0  0  0  0  0  0  0
   42.4430   71.1930   62.6530 C   0  0  0  0  0  0  0  0  0  0  0  0
   42.5170   70.1790   61.6990 C   0  0  0  0  0  0  0  0  0  0  0  0
   41.9910   70.4100   60.4330 C   0  0  0  0  0  0  0  0  0  0  0  0
   41.3910   71.6190   60.0750 C   0  0  0  0  0  0  0  0  0  0  0  0
   41.8020   73.1670   63.0530 H   0  0  0  0  0  0  0  0  0  0  0  0
   42.8440   71.0340   63.6410 H   0  0  0  0  0  0  0  0  0  0  0  0
   42.9670   69.2150   61.9020 H   0  0  0  0  0  0  0  0  0  0  0  0
   42.0310   69.6350   59.6580 H   0  0  0  0  0  0  0  0  0  0  0  0
   38.9140   75.3710   60.9980 C   0  0  0  0  0  0  0  0  0  0  0  0
   39.5710   76.3450   60.2340 C   0  0  0  0  0  0  0  0  0  0  0  0
   40.8550   76.0540   59.7260 C   0  0  0  0  0  0  0  0  0  0  0  0
   41.3690   74.8380   60.0170 N   0  0  0  0  0  0  0  0  0  0  0  0
   40.7240   73.9110   60.7540 C   0  0  0  0  0  0  0  0  0  0  0  0
   39.5170   74.1950   61.2260 N   0  0  0  0  0  0  0  0  0  0  0  0
   37.9470   75.5500   61.3970 H   0  0  0  0  0  0  0  0  0  0  0  0
   39.0860   77.2880   60.0510 H   0  0  0  0  0  0  0  0  0  0  0  0
   41.3800   76.7940   59.1340 H   0  0  0  0  0  0  0  0  0  0  0  0
   40.8500   71.8180   58.7350 C   0  0  0  0  0  0  0  0  0  0  0  0
   39.4830   71.7580   58.4360 C   0  0  0  0  0  0  0  0  0  0  0  0
   38.8840   71.5490   59.3090 H   0  0  0  0  0  0  0  0  0  0  0  0
   39.0890   71.9580   57.1500 C   0  0  0  0  0  3  0  0  0  0  0  0
   40.0240   72.2190   56.1420 C   0  0  0  0  0  0  0  0  0  0  0  0
   39.6730   72.3720   55.1370 H   0  0  0  0  0  0  0  0  0  0  0  0
   41.3690   72.2750   56.4520 C   0  0  0  0  0  0  0  0  0  0  0  0
   42.1070   72.4790   55.6610 H   0  0  0  0  0  0  0  0  0  0  0  0
   41.8000   72.0760   57.7470 C   0  0  0  0  0  3  0  0  0  0  0  0
  1  2  1  0  0  0  0
  2  3  2  0  0  0  0
  2  7  1  0  0  0  0
  3  8  1  0  0  0  0
  4  9  1  0  0  0  0
  4  3  1  0  0  0  0
  5  4  2  0  0  0  0
  6  5  1  0  0  0  0
  6  1  2  0  0  0  0
 10  5  1  0  0  0  0
 11 16  1  0  0  0  0
 11 17  1  0  0  0  0
 12 11  2  0  0  0  0
 13 14  2  0  0  0  0
 13 12  1  0  0  0  0
 14 15  1  0  0  0  0
 15  1  1  0  0  0  0
 15 16  2  0  0  0  0
 18 12  1  0  0  0  0
 19 13  1  0  0  0  0
 20  6  1  0  0  0  0
 21 20  1  0  0  0  0
 21 22  1  0  0  0  0
 23 21  2  0  0  0  0
 24 26  2  0  0  0  0
 24 23  1  0  0  0  0
 25 24  1  0  0  0  0
 26 28  1  0  0  0  0
 27 26  1  0  0  0  0
 28 20  2  0  0  0  0
M  END
>  <minimizedAffinity>
-4.77967644

$$$$

 OpenBabel03212521043D

 28 30  0  0  0  0  0  0  0  0999 V2000
   42.4830   74.7650   57.9230 C   0  0  0  0  0  0  0  0  0  0  0  0
   43.7420   74.6230   57.3240 C   0  0  0  0  0  0  0  0  0  0  0  0
   44.8550   74.2360   58.0320 C   0  0  0  0  0  0  0  0  0  0  0  0
   44.7280   73.9750   59.3960 C   0  0  0  0  0  0  0  0  0  0  0  0
   43.4800   74.1160   59.9910 C   0  0  0  0  0  0  0  0  0  0  0  0
   42.3440   74.5090   59.2800 C   0  0  0  0  0  0  0  0  0  0  0  0
   43.8480   74.8230   56.2680 H   0  0  0  0  0  0  0  0  0  0  0  0
   45.8130   74.1340   57.5500 H   0  0  0  0  0  0  0  0  0  0  0  0
   45.5610   73.6660   60.0130 H   0  0  0  0  0  0  0  0  0  0  0  0
   43.3430   73.9190   61.0620 H   0  0  0  0  0  0  0  0  0  0  0  0
   40.1590   76.8940   56.0690 C   0  0  0  0  0  0  0  0  0  0  0  0
   39.2440   75.9690   55.5480 C   0  0  0  0  0  0  0  0  0  0  0  0
   39.4280   74.6000   55.8380 C   0  0  0  0  0  0  0  0  0  0  0  0
   40.4900   74.2730   56.6070 N   0  0  0  0  0  0  0  0  0  0  0  0
   41.3620   75.1760   57.1010 C   0  0  0  0  0  0  0  0  0  0  0  0
   41.1790   76.4600   56.8230 N   0  0  0  0  0  0  0  0  0  0  0  0
   40.0560   77.9330   55.8750 H   0  0  0  0  0  0  0  0  0  0  0  0
   38.4260   76.3190   54.9440 H   0  0  0  0  0  0  0  0  0  0  0  0
   38.7320   73.8690   55.4440 H   0  0  0  0  0  0  0  0  0  0  0  0
   41.0540   74.6470   59.9470 C   0  0  0  0  0  0  0  0  0  0  0  0
   40.4850   75.8820   60.2820 C   0  0  0  0  0  0  0  0  0  0  0  0
   41.1100   76.7120   59.9900 H   0  0  0  0  0  0  0  0  0  0  0  0
   39.2750   75.8930   60.9040 C   0  0  0  0  0  3  0  0  0  0  0  0
   38.6090   74.7010   61.2050 C   0  0  0  0  0  0  0  0  0  0  0  0
   37.6540   74.7510   61.6980 H   0  0  0  0  0  0  0  0  0  0  0  0
   39.1830   73.4900   60.8690 C   0  0  0  0  0  0  0  0  0  0  0  0
   38.6610   72.5500   61.1050 H   0  0  0  0  0  0  0  0  0  0  0  0
   40.4090   73.4460   60.2380 C   0  0  0  0  0  3  0  0  0  0  0  0
  1  6  1  0  0  0  0
  2  1  2  0  0  0  0
  2  3  1  0  0  0  0
  3  4  2  0  0  0  0
  4  5  1  0  0  0  0
  4  9  1  0  0  0  0
  5 10  1  0  0  0  0
  6 20  1  0  0  0  0
  6  5  2  0  0  0  0
  7  2  1  0  0  0  0
  8  3  1  0  0  0  0
 11 16  1  0  0  0  0
 12 13  1  0  0  0  0
 12 11  2  0  0  0  0
 13 14  2  0  0  0  0
 14 15  1  0  0  0  0
 15  1  1  0  0  0  0
 16 15  2  0  0  0  0
 17 11  1  0  0  0  0
 18 12  1  0  0  0  0
 19 13  1  0  0  0  0
 20 28  2  0  0  0  0
 20 21  1  0  0  0  0
 21 23  2  0  0  0  0
 22 21  1  0  0  0  0
 23 24  1  0  0  0  0
 24 25  1  0  0  0  0
 26 27  1  0  0  0  0
 26 24  2  0  0  0  0
 28 26  1  0  0  0  0
M  END
>  <minimizedAffinity>
-4.77498579

$$$$
