
 OpenBabel03212521043D

 28 30  0  0  0  0  0  0  0  0999 V2000
   42.4050   84.4800   62.5160 C   0  0  0  0  0  0  0  0  0  0  0  0
   42.3430   84.5750   63.9130 C   0  0  0  0  0  0  0  0  0  0  0  0
   41.2220   84.2270   64.6270 C   0  0  0  0  0  0  0  0  0  0  0  0
   40.1030   83.7620   63.9370 C   0  0  0  0  0  0  0  0  0  0  0  0
   40.1610   83.6680   62.5510 C   0  0  0  0  0  0  0  0  0  0  0  0
   41.2960   84.0200   61.8180 C   0  0  0  0  0  0  0  0  0  0  0  0
   43.2070   84.9340   64.4540 H   0  0  0  0  0  0  0  0  0  0  0  0
   41.1980   84.3090   65.7010 H   0  0  0  0  0  0  0  0  0  0  0  0
   39.1870   83.4700   64.4350 H   0  0  0  0  0  0  0  0  0  0  0  0
   39.2990   83.3060   61.9760 H   0  0  0  0  0  0  0  0  0  0  0  0
   45.7070   84.2600   60.9620 C   0  0  0  0  0  0  0  0  0  0  0  0
   45.9520   85.5840   60.5720 C   0  0  0  0  0  0  0  0  0  0  0  0
   44.9710   86.5610   60.8460 C   0  0  0  0  0  0  0  0  0  0  0  0
   43.8490   86.1450   61.4740 N   0  0  0  0  0  0  0  0  0  0  0  0
   43.6290   84.8670   61.8430 C   0  0  0  0  0  0  0  0  0  0  0  0
   44.5580   83.9570   61.5810 N   0  0  0  0  0  0  0  0  0  0  0  0
   46.4200   83.4960   60.7750 H   0  0  0  0  0  0  0  0  0  0  0  0
   46.8750   85.8260   60.0760 H   0  0  0  0  0  0  0  0  0  0  0  0
   45.1400   87.5900   60.5520 H   0  0  0  0  0  0  0  0  0  0  0  0
   41.3120   83.9070   60.3640 C   0  0  0  0  0  0  0  0  0  0  0  0
   41.0620   84.9830   59.5020 C   0  0  0  0  0  0  0  0  0  0  0  0
   40.8580   85.8960   60.0390 H   0  0  0  0  0  0  0  0  0  0  0  0
   41.1040   84.7630   58.1610 C   0  0  0  0  0  3  0  0  0  0  0  0
   41.3900   83.4950   57.6460 C   0  0  0  0  0  0  0  0  0  0  0  0
   41.4140   83.3620   56.5790 H   0  0  0  0  0  0  0  0  0  0  0  0
   41.6340   82.4440   58.5070 C   0  0  0  0  0  0  0  0  0  0  0  0
   41.8600   81.4440   58.1050 H   0  0  0  0  0  0  0  0  0  0  0  0
   41.6000   82.6330   59.8740 C   0  0  0  0  0  3  0  0  0  0  0  0
  1  2  1  0  0  0  0
  2  7  1  0  0  0  0
  2  3  2  0  0  0  0
  3  8  1  0  0  0  0
  4  9  1  0  0  0  0
  4  3  1  0  0  0  0
  5  4  2  0  0  0  0
  6  1  2  0  0  0  0
  6  5  1  0  0  0  0
 10  5  1  0  0  0  0
 11 16  1  0  0  0  0
 12 13  1  0  0  0  0
 12 11  2  0  0  0  0
 13 14  2  0  0  0  0
 14 15  1  0  0  0  0
 15  1  1  0  0  0  0
 16 15  2  0  0  0  0
 17 11  1  0  0  0  0
 18 12  1  0  0  0  0
 19 13  1  0  0  0  0
 20  6  1  0  0  0  0
 21 22  1  0  0  0  0
 21 20  2  0  0  0  0
 23 21  1  0  0  0  0
 24 23  2  0  0  0  0
 24 26  1  0  0  0  0
 25 24  1  0  0  0  0
 26 28  2  0  0  0  0
 27 26  1  0  0  0  0
 28 20  1  0  0  0  0
M  END
>  <minimizedAffinity>
-5.01213169

>  <minimizedRMSD>
2.35367918

$$$$
