
 OpenBabel03212521043D

 28 30  0  0  0  0  0  0  0  0999 V2000
   41.8120   84.2240   61.6340 C   0  0  0  0  0  0  0  0  0  0  0  0
   41.4200   84.0280   62.9660 C   0  0  0  0  0  0  0  0  0  0  0  0
   40.1520   83.6260   63.3090 C   0  0  0  0  0  0  0  0  0  0  0  0
   39.2190   83.4050   62.2970 C   0  0  0  0  0  0  0  0  0  0  0  0
   39.6050   83.6000   60.9760 C   0  0  0  0  0  0  0  0  0  0  0  0
   40.8910   84.0080   60.6180 C   0  0  0  0  0  0  0  0  0  0  0  0
   42.1380   84.1970   63.7550 H   0  0  0  0  0  0  0  0  0  0  0  0
   39.8730   83.4820   64.3400 H   0  0  0  0  0  0  0  0  0  0  0  0
   38.2030   83.0870   62.4960 H   0  0  0  0  0  0  0  0  0  0  0  0
   38.8970   83.4340   60.1540 H   0  0  0  0  0  0  0  0  0  0  0  0
   45.3840   84.0800   60.8670 C   0  0  0  0  0  0  0  0  0  0  0  0
   45.7480   85.4320   60.8460 C   0  0  0  0  0  0  0  0  0  0  0  0
   44.7560   86.4040   61.0980 C   0  0  0  0  0  0  0  0  0  0  0  0
   43.5050   85.9540   61.3450 N   0  0  0  0  0  0  0  0  0  0  0  0
   43.1710   84.6470   61.3620 C   0  0  0  0  0  0  0  0  0  0  0  0
   44.1120   83.7430   61.1240 N   0  0  0  0  0  0  0  0  0  0  0  0
   46.1000   83.3180   60.6820 H   0  0  0  0  0  0  0  0  0  0  0  0
   46.7690   85.7010   60.6400 H   0  0  0  0  0  0  0  0  0  0  0  0
   45.0170   87.4550   61.0860 H   0  0  0  0  0  0  0  0  0  0  0  0
   41.2520   84.2020   59.2180 C   0  0  0  0  0  0  0  0  0  0  0  0
   41.8180   83.2000   58.4180 C   0  0  0  0  0  0  0  0  0  0  0  0
   41.9520   82.2760   58.9580 H   0  0  0  0  0  0  0  0  0  0  0  0
   42.1160   83.4930   57.1240 C   0  0  0  0  0  3  0  0  0  0  0  0
   41.8660   84.7630   56.5960 C   0  0  0  0  0  0  0  0  0  0  0  0
   42.1160   84.9560   55.5670 H   0  0  0  0  0  0  0  0  0  0  0  0
   41.3100   85.7420   57.3960 C   0  0  0  0  0  0  0  0  0  0  0  0
   41.1120   86.7430   56.9840 H   0  0  0  0  0  0  0  0  0  0  0  0
   40.9960   85.4770   58.7140 C   0  0  0  0  0  3  0  0  0  0  0  0
  1  2  1  0  0  0  0
  2  3  2  0  0  0  0
  2  7  1  0  0  0  0
  3  8  1  0  0  0  0
  4  9  1  0  0  0  0
  4  3  1  0  0  0  0
  5  4  2  0  0  0  0
  6  5  1  0  0  0  0
  6  1  2  0  0  0  0
 10  5  1  0  0  0  0
 11 16  1  0  0  0  0
 12 11  2  0  0  0  0
 12 13  1  0  0  0  0
 13 14  2  0  0  0  0
 14 15  1  0  0  0  0
 15  1  1  0  0  0  0
 16 15  2  0  0  0  0
 17 11  1  0  0  0  0
 18 12  1  0  0  0  0
 19 13  1  0  0  0  0
 20  6  1  0  0  0  0
 21 22  1  0  0  0  0
 21 20  2  0  0  0  0
 23 21  1  0  0  0  0
 24 23  2  0  0  0  0
 24 26  1  0  0  0  0
 25 24  1  0  0  0  0
 26 28  2  0  0  0  0
 27 26  1  0  0  0  0
 28 20  1  0  0  0  0
M  END
>  <minimizedAffinity>
-5.07368517

>  <minimizedRMSD>
2.66262627

$$$$
