
 OpenBabel03212520303D

 28 30  0  0  0  0  0  0  0  0999 V2000
   40.3650   79.3010   59.5850 C   0  0  0  0  0  0  0  0  0  0  0  0
   40.6680   80.6650   59.4760 C   0  0  0  0  0  0  0  0  0  0  0  0
   40.1540   81.3810   58.3850 C   0  0  0  0  0  0  0  0  0  0  0  0
   39.3890   80.7100   57.4920 N   0  0  0  0  0  0  0  0  0  0  0  0
   39.1150   79.3910   57.6260 C   0  0  0  0  0  0  0  0  0  0  0  0
   39.6030   78.7010   58.6650 N   0  0  0  0  0  0  0  0  0  0  0  0
   40.7630   78.7510   60.4260 H   0  0  0  0  0  0  0  0  0  0  0  0
   40.3790   82.4340   58.2890 H   0  0  0  0  0  0  0  0  0  0  0  0
   41.4850   81.2970   60.4650 N   0  0  0  0  0  0  0  0  0  0  0  0
   40.8220   81.6580   61.5660 C   0  0  0  0  0  0  0  0  0  0  0  0
   41.5190   82.2820   62.5960 C   0  0  0  0  0  0  0  0  0  0  0  0
   42.8940   82.5080   62.4400 C   0  0  0  0  0  0  0  0  0  0  0  0
   43.6050   83.0600   63.3100 O   0  0  0  0  0  0  0  0  0  0  0  0
   43.4960   82.1120   61.2950 N   0  0  0  0  0  0  0  0  0  0  0  0
   42.8040   81.5000   60.2860 C   0  0  0  0  0  0  0  0  0  0  0  0
   43.3590   81.1330   59.2270 O   0  0  0  0  0  0  0  0  0  0  0  0
   39.7620   81.5010   61.7230 H   0  0  0  0  0  0  0  0  0  0  0  0
   41.0430   82.5960   63.5050 H   0  0  0  0  0  0  0  0  0  0  0  0
   44.5230   82.2410   61.0920 H   0  0  0  0  0  0  0  0  0  0  0  0
   38.2770   78.7170   56.6230 C   0  0  0  0  0  0  0  0  0  0  0  0
   37.4550   77.6840   57.0060 C   0  0  0  0  0  0  0  0  0  0  0  0
   37.4120   77.3490   58.0490 H   0  0  0  0  0  0  0  0  0  0  0  0
   36.6400   77.0080   56.1030 C   0  0  0  0  0  0  0  0  0  0  0  0
   36.7320   77.4670   54.8050 C   0  0  0  0  0  0  0  0  0  0  0  0
   36.1170   76.9790   54.0380 H   0  0  0  0  0  0  0  0  0  0  0  0
   37.5270   78.4930   54.3360 C   0  0  0  0  0  0  0  0  0  0  0  0
   37.5280   78.7750   53.3020 H   0  0  0  0  0  0  0  0  0  0  0  0
   38.3180   79.1240   55.3020 C   0  0  0  0  0  0  0  0  0  0  0  0
  1  7  1  0  0  0  0
  2  1  1  0  0  0  0
  2  9  1  0  0  0  0
  3  2  2  0  0  0  0
  4  5  2  0  0  0  0
  4  3  1  0  0  0  0
  5  6  1  0  0  0  0
  6  1  2  0  0  0  0
  8  3  1  0  0  0  0
  9 10  1  0  0  0  0
 10 17  1  0  0  0  0
 10 11  2  0  0  0  0
 11 18  1  0  0  0  0
 12 11  1  0  0  0  0
 12 13  2  0  0  0  0
 14 12  1  0  0  0  0
 15  9  1  0  0  0  0
 15 14  1  0  0  0  0
 16 15  2  0  0  0  0
 19 14  1  0  0  0  0
 20 21  1  0  0  0  0
 20  5  1  0  0  0  0
 21 22  1  0  0  0  0
 23 21  2  0  0  0  0
 24 23  1  0  0  0  0
 25 24  1  0  0  0  0
 26 24  2  0  0  0  0
 26 28  1  0  0  0  0
 27 26  1  0  0  0  0
 28 20  2  0  0  0  0
M  END
>  <minimizedAffinity>
-4.67706013

>  <minimizedRMSD>
9.33343315

$$$$
