
 OpenBabel03212521043D

 28 30  0  0  0  0  0  0  0  0999 V2000
   42.3610   84.4750   62.3150 C   0  0  0  0  0  0  0  0  0  0  0  0
   42.2490   84.4930   63.7120 C   0  0  0  0  0  0  0  0  0  0  0  0
   41.0950   84.1280   64.3630 C   0  0  0  0  0  0  0  0  0  0  0  0
   39.9940   83.7260   63.6070 C   0  0  0  0  0  0  0  0  0  0  0  0
   40.1040   83.7090   62.2210 C   0  0  0  0  0  0  0  0  0  0  0  0
   41.2720   84.0770   61.5510 C   0  0  0  0  0  0  0  0  0  0  0  0
   43.0980   84.8030   64.3030 H   0  0  0  0  0  0  0  0  0  0  0  0
   41.0320   84.1500   65.4380 H   0  0  0  0  0  0  0  0  0  0  0  0
   39.0560   83.4250   64.0540 H   0  0  0  0  0  0  0  0  0  0  0  0
   39.2580   83.3970   61.5950 H   0  0  0  0  0  0  0  0  0  0  0  0
   45.7140   84.2760   60.8690 C   0  0  0  0  0  0  0  0  0  0  0  0
   45.9990   85.6140   60.5680 C   0  0  0  0  0  0  0  0  0  0  0  0
   45.0280   86.5950   60.8650 C   0  0  0  0  0  0  0  0  0  0  0  0
   43.8750   86.1670   61.4270 N   0  0  0  0  0  0  0  0  0  0  0  0
   43.6170   84.8740   61.7100 C   0  0  0  0  0  0  0  0  0  0  0  0
   44.5360   83.9610   61.4270 N   0  0  0  0  0  0  0  0  0  0  0  0
   46.4170   83.5080   60.6620 H   0  0  0  0  0  0  0  0  0  0  0  0
   46.9440   85.8650   60.1210 H   0  0  0  0  0  0  0  0  0  0  0  0
   45.2290   87.6360   60.6400 H   0  0  0  0  0  0  0  0  0  0  0  0
   41.3410   84.0470   60.0950 C   0  0  0  0  0  0  0  0  0  0  0  0
   41.1530   85.1760   59.2870 C   0  0  0  0  0  0  0  0  0  0  0  0
   40.9510   86.0620   59.8680 H   0  0  0  0  0  0  0  0  0  0  0  0
   41.2400   85.0310   57.9380 C   0  0  0  0  0  3  0  0  0  0  0  0
   41.5120   83.7870   57.3620 C   0  0  0  0  0  0  0  0  0  0  0  0
   41.5740   83.7150   56.2910 H   0  0  0  0  0  0  0  0  0  0  0  0
   41.6960   82.6830   58.1700 C   0  0  0  0  0  0  0  0  0  0  0  0
   41.9100   81.7010   57.7200 H   0  0  0  0  0  0  0  0  0  0  0  0
   41.6130   82.7950   59.5430 C   0  0  0  0  0  3  0  0  0  0  0  0
  1  2  1  0  0  0  0
  2  7  1  0  0  0  0
  2  3  2  0  0  0  0
  3  8  1  0  0  0  0
  4  9  1  0  0  0  0
  4  3  1  0  0  0  0
  5  4  2  0  0  0  0
  6  5  1  0  0  0  0
  6  1  2  0  0  0  0
 10  5  1  0  0  0  0
 11 16  1  0  0  0  0
 12 13  1  0  0  0  0
 12 11  2  0  0  0  0
 13 14  2  0  0  0  0
 14 15  1  0  0  0  0
 15  1  1  0  0  0  0
 16 15  2  0  0  0  0
 17 11  1  0  0  0  0
 18 12  1  0  0  0  0
 19 13  1  0  0  0  0
 20  6  1  0  0  0  0
 21 22  1  0  0  0  0
 21 20  2  0  0  0  0
 23 21  1  0  0  0  0
 24 23  2  0  0  0  0
 24 26  1  0  0  0  0
 25 24  1  0  0  0  0
 26 28  2  0  0  0  0
 27 26  1  0  0  0  0
 28 20  1  0  0  0  0
M  END
>  <minimizedAffinity>
-4.9693408

>  <minimizedRMSD>
2.37676764

$$$$
