
 OpenBabel03212521043D

 28 30  0  0  0  0  0  0  0  0999 V2000
   42.0870   83.5900   61.0790 C   0  0  0  0  0  0  0  0  0  0  0  0
   40.8610   84.2410   60.8850 C   0  0  0  0  0  0  0  0  0  0  0  0
   39.8380   84.1740   61.8000 C   0  0  0  0  0  0  0  0  0  0  0  0
   40.0250   83.4310   62.9660 C   0  0  0  0  0  0  0  0  0  0  0  0
   41.2400   82.7840   63.1590 C   0  0  0  0  0  0  0  0  0  0  0  0
   42.2850   82.8470   62.2350 C   0  0  0  0  0  0  0  0  0  0  0  0
   40.7090   84.8190   59.9850 H   0  0  0  0  0  0  0  0  0  0  0  0
   38.9040   84.6830   61.6290 H   0  0  0  0  0  0  0  0  0  0  0  0
   39.2630   83.3360   63.7280 H   0  0  0  0  0  0  0  0  0  0  0  0
   41.4220   82.1910   64.0640 H   0  0  0  0  0  0  0  0  0  0  0  0
   44.9630   84.8670   59.2160 C   0  0  0  0  0  0  0  0  0  0  0  0
   45.0580   83.9680   58.1450 C   0  0  0  0  0  0  0  0  0  0  0  0
   44.1250   82.9120   58.0630 C   0  0  0  0  0  0  0  0  0  0  0  0
   43.1910   82.8420   59.0380 N   0  0  0  0  0  0  0  0  0  0  0  0
   43.1130   83.7160   60.0630 C   0  0  0  0  0  0  0  0  0  0  0  0
   43.9950   84.7040   60.1290 N   0  0  0  0  0  0  0  0  0  0  0  0
   45.6450   85.6740   59.3140 H   0  0  0  0  0  0  0  0  0  0  0  0
   45.8350   84.1000   57.4130 H   0  0  0  0  0  0  0  0  0  0  0  0
   44.1820   82.2060   57.2440 H   0  0  0  0  0  0  0  0  0  0  0  0
   43.5420   82.1490   62.4780 C   0  0  0  0  0  0  0  0  0  0  0  0
   43.8000   80.8440   62.0360 C   0  0  0  0  0  0  0  0  0  0  0  0
   42.9640   80.4220   61.5000 H   0  0  0  0  0  0  0  0  0  0  0  0
   45.0100   80.2900   62.3190 C   0  0  0  0  0  3  0  0  0  0  0  0
   45.9790   81.0010   63.0330 C   0  0  0  0  0  0  0  0  0  0  0  0
   46.9240   80.5280   63.2380 H   0  0  0  0  0  0  0  0  0  0  0  0
   45.7110   82.2860   63.4620 C   0  0  0  0  0  0  0  0  0  0  0  0
   46.4720   82.8480   64.0250 H   0  0  0  0  0  0  0  0  0  0  0  0
   44.4950   82.8770   63.1920 C   0  0  0  0  0  3  0  0  0  0  0  0
  1  6  1  0  0  0  0
  2  1  2  0  0  0  0
  2  3  1  0  0  0  0
  3  4  2  0  0  0  0
  4  5  1  0  0  0  0
  4  9  1  0  0  0  0
  5 10  1  0  0  0  0
  6 20  1  0  0  0  0
  6  5  2  0  0  0  0
  7  2  1  0  0  0  0
  8  3  1  0  0  0  0
 11 17  1  0  0  0  0
 11 16  1  0  0  0  0
 12 11  2  0  0  0  0
 13 12  1  0  0  0  0
 13 14  2  0  0  0  0
 14 15  1  0  0  0  0
 15 16  2  0  0  0  0
 15  1  1  0  0  0  0
 18 12  1  0  0  0  0
 19 13  1  0  0  0  0
 20 28  1  0  0  0  0
 21 23  1  0  0  0  0
 21 20  2  0  0  0  0
 22 21  1  0  0  0  0
 23 24  2  0  0  0  0
 24 25  1  0  0  0  0
 24 26  1  0  0  0  0
 26 27  1  0  0  0  0
 28 26  2  0  0  0  0
M  END
>  <minimizedAffinity>
-4.74497461

>  <minimizedRMSD>
4.69588947

$$$$
