
 OpenBabel03212520303D

 28 30  0  0  0  0  0  0  0  0999 V2000
   41.2090   71.9410   59.9690 C   0  0  0  0  0  0  0  0  0  0  0  0
   41.0590   73.0150   60.8550 C   0  0  0  0  0  0  0  0  0  0  0  0
   41.3940   72.8230   62.2040 C   0  0  0  0  0  0  0  0  0  0  0  0
   41.8460   71.6030   62.5760 N   0  0  0  0  0  0  0  0  0  0  0  0
   41.9800   70.5850   61.6930 C   0  0  0  0  0  0  0  0  0  0  0  0
   41.6620   70.7610   60.4050 N   0  0  0  0  0  0  0  0  0  0  0  0
   40.9510   72.0920   58.9300 H   0  0  0  0  0  0  0  0  0  0  0  0
   41.2830   73.6440   62.8990 H   0  0  0  0  0  0  0  0  0  0  0  0
   40.5740   74.2740   60.3780 N   0  0  0  0  0  0  0  0  0  0  0  0
   41.4940   75.0040   59.7460 C   0  0  0  0  0  0  0  0  0  0  0  0
   41.1320   76.2490   59.2390 C   0  0  0  0  0  0  0  0  0  0  0  0
   39.8110   76.6890   59.4110 C   0  0  0  0  0  0  0  0  0  0  0  0
   39.3910   77.7910   58.9910 O   0  0  0  0  0  0  0  0  0  0  0  0
   38.9360   75.8900   60.0630 N   0  0  0  0  0  0  0  0  0  0  0  0
   39.3000   74.6680   60.5590 C   0  0  0  0  0  0  0  0  0  0  0  0
   38.4910   73.9280   61.1620 O   0  0  0  0  0  0  0  0  0  0  0  0
   42.5220   74.7000   59.5930 H   0  0  0  0  0  0  0  0  0  0  0  0
   41.8250   76.8840   58.7210 H   0  0  0  0  0  0  0  0  0  0  0  0
   37.9250   76.1390   60.2380 H   0  0  0  0  0  0  0  0  0  0  0  0
   42.4770   69.2810   62.1570 C   0  0  0  0  0  0  0  0  0  0  0  0
   43.3880   69.2260   63.1840 C   0  0  0  0  0  0  0  0  0  0  0  0
   43.7540   70.1390   63.6680 H   0  0  0  0  0  0  0  0  0  0  0  0
   43.8930   68.0230   63.6670 C   0  0  0  0  0  3  0  0  0  0  0  0
   43.4010   66.9050   63.0250 C   0  0  0  0  0  0  0  0  0  0  0  0
   43.7570   65.9190   63.3530 H   0  0  0  0  0  0  0  0  0  0  0  0
   42.4890   66.8700   61.9900 C   0  0  0  0  0  0  0  0  0  0  0  0
   42.1670   65.9430   61.5550 H   0  0  0  0  0  0  0  0  0  0  0  0
   42.0260   68.1170   61.5590 C   0  0  0  0  0  3  0  0  0  0  0  0
  1  6  2  0  0  0  0
  1  2  1  0  0  0  0
  2  3  2  0  0  0  0
  3  4  1  0  0  0  0
  3  8  1  0  0  0  0
  5 20  1  0  0  0  0
  5  4  2  0  0  0  0
  6  5  1  0  0  0  0
  7  1  1  0  0  0  0
  9 15  1  0  0  0  0
  9  2  1  0  0  0  0
 10  9  1  0  0  0  0
 11 12  1  0  0  0  0
 11 10  2  0  0  0  0
 12 14  1  0  0  0  0
 13 12  2  0  0  0  0
 14 19  1  0  0  0  0
 14 15  1  0  0  0  0
 15 16  2  0  0  0  0
 17 10  1  0  0  0  0
 18 11  1  0  0  0  0
 20 21  1  0  0  0  0
 21 23  2  0  0  0  0
 21 22  1  0  0  0  0
 24 25  1  0  0  0  0
 24 23  1  0  0  0  0
 26 24  2  0  0  0  0
 27 26  1  0  0  0  0
 28 26  1  0  0  0  0
 28 20  2  0  0  0  0
M  END
>  <minimizedAffinity>
-5.73233843

$$$$

 OpenBabel03212520303D

 28 30  0  0  0  0  0  0  0  0999 V2000
   39.0810   73.8120   57.8620 C   0  0  0  0  0  0  0  0  0  0  0  0
   39.5480   74.5950   58.9270 C   0  0  0  0  0  0  0  0  0  0  0  0
   39.3020   75.9760   58.9020 C   0  0  0  0  0  0  0  0  0  0  0  0
   38.6240   76.4790   57.8440 N   0  0  0  0  0  0  0  0  0  0  0  0
   38.1860   75.6940   56.8310 C   0  0  0  0  0  0  0  0  0  0  0  0
   38.4170   74.3760   56.8480 N   0  0  0  0  0  0  0  0  0  0  0  0
   39.2710   72.7480   57.8830 H   0  0  0  0  0  0  0  0  0  0  0  0
   39.6570   76.5910   59.7170 H   0  0  0  0  0  0  0  0  0  0  0  0
   40.2570   73.9810   60.0070 N   0  0  0  0  0  0  0  0  0  0  0  0
   41.5660   73.8390   59.7840 C   0  0  0  0  0  0  0  0  0  0  0  0
   42.3550   73.2540   60.7700 C   0  0  0  0  0  0  0  0  0  0  0  0
   41.7460   72.8350   61.9620 C   0  0  0  0  0  0  0  0  0  0  0  0
   42.3720   72.2990   62.9050 O   0  0  0  0  0  0  0  0  0  0  0  0
   40.4140   73.0140   62.1130 N   0  0  0  0  0  0  0  0  0  0  0  0
   39.6440   73.5900   61.1390 C   0  0  0  0  0  0  0  0  0  0  0  0
   38.4120   73.7560   61.2780 O   0  0  0  0  0  0  0  0  0  0  0  0
   42.0720   74.1490   58.8790 H   0  0  0  0  0  0  0  0  0  0  0  0
   43.4120   73.1120   60.6510 H   0  0  0  0  0  0  0  0  0  0  0  0
   39.8730   72.7300   62.9740 H   0  0  0  0  0  0  0  0  0  0  0  0
   37.4540   76.2990   55.7080 C   0  0  0  0  0  0  0  0  0  0  0  0
   37.2080   75.5580   54.5770 C   0  0  0  0  0  0  0  0  0  0  0  0
   37.5490   74.5190   54.4940 H   0  0  0  0  0  0  0  0  0  0  0  0
   36.5210   76.0750   53.4840 C   0  0  0  0  0  3  0  0  0  0  0  0
   36.1140   77.3840   53.6390 C   0  0  0  0  0  0  0  0  0  0  0  0
   35.5660   77.8580   52.8140 H   0  0  0  0  0  0  0  0  0  0  0  0
   36.3170   78.1970   54.7340 C   0  0  0  0  0  0  0  0  0  0  0  0
   35.9600   79.2080   54.7580 H   0  0  0  0  0  0  0  0  0  0  0  0
   37.0150   77.6090   55.7940 C   0  0  0  0  0  3  0  0  0  0  0  0
  1  7  1  0  0  0  0
  1  2  1  0  0  0  0
  2  9  1  0  0  0  0
  3  2  2  0  0  0  0
  3  8  1  0  0  0  0
  4  3  1  0  0  0  0
  5  6  1  0  0  0  0
  5  4  2  0  0  0  0
  6  1  2  0  0  0  0
  9 15  1  0  0  0  0
 10  9  1  0  0  0  0
 10 11  2  0  0  0  0
 11 12  1  0  0  0  0
 12 14  1  0  0  0  0
 12 13  2  0  0  0  0
 14 19  1  0  0  0  0
 15 16  2  0  0  0  0
 15 14  1  0  0  0  0
 17 10  1  0  0  0  0
 18 11  1  0  0  0  0
 20 28  1  0  0  0  0
 20  5  1  0  0  0  0
 21 20  2  0  0  0  0
 22 21  1  0  0  0  0
 23 24  2  0  0  0  0
 23 21  1  0  0  0  0
 24 26  1  0  0  0  0
 25 24  1  0  0  0  0
 26 27  1  0  0  0  0
 26 28  2  0  0  0  0
M  END
>  <minimizedAffinity>
-5.7120595

$$$$

 OpenBabel03212520303D

 28 30  0  0  0  0  0  0  0  0999 V2000
   40.2670   73.9390   57.9630 C   0  0  0  0  0  0  0  0  0  0  0  0
   39.0720   74.5370   58.3840 C   0  0  0  0  0  0  0  0  0  0  0  0
   38.6170   74.2810   59.6860 C   0  0  0  0  0  0  0  0  0  0  0  0
   39.3620   73.4640   60.4680 N   0  0  0  0  0  0  0  0  0  0  0  0
   40.5130   72.9020   60.0300 C   0  0  0  0  0  0  0  0  0  0  0  0
   40.9530   73.1420   58.7890 N   0  0  0  0  0  0  0  0  0  0  0  0
   40.6160   74.1380   56.9600 H   0  0  0  0  0  0  0  0  0  0  0  0
   37.6960   74.7360   60.0240 H   0  0  0  0  0  0  0  0  0  0  0  0
   38.3460   75.3880   57.4930 N   0  0  0  0  0  0  0  0  0  0  0  0
   37.4900   74.7380   56.7010 C   0  0  0  0  0  0  0  0  0  0  0  0
   36.7280   75.4670   55.7930 C   0  0  0  0  0  0  0  0  0  0  0  0
   36.8890   76.8600   55.7430 C   0  0  0  0  0  0  0  0  0  0  0  0
   36.2500   77.6010   54.9620 O   0  0  0  0  0  0  0  0  0  0  0  0
   37.7760   77.4460   56.5790 N   0  0  0  0  0  0  0  0  0  0  0  0
   38.5220   76.7220   57.4690 C   0  0  0  0  0  0  0  0  0  0  0  0
   39.3430   77.2620   58.2430 O   0  0  0  0  0  0  0  0  0  0  0  0
   37.3380   73.6660   56.7090 H   0  0  0  0  0  0  0  0  0  0  0  0
   36.0240   75.0040   55.1290 H   0  0  0  0  0  0  0  0  0  0  0  0
   37.9610   78.4840   56.6110 H   0  0  0  0  0  0  0  0  0  0  0  0
   41.2800   72.0240   60.9260 C   0  0  0  0  0  0  0  0  0  0  0  0
   42.3150   71.2740   60.4220 C   0  0  0  0  0  0  0  0  0  0  0  0
   42.5830   71.3170   59.3600 H   0  0  0  0  0  0  0  0  0  0  0  0
   43.0760   70.4260   61.2200 C   0  0  0  0  0  3  0  0  0  0  0  0
   42.6990   70.4080   62.5470 C   0  0  0  0  0  0  0  0  0  0  0  0
   43.2560   69.7590   63.2360 H   0  0  0  0  0  0  0  0  0  0  0  0
   41.6770   71.1250   63.1340 C   0  0  0  0  0  0  0  0  0  0  0  0
   41.4600   71.0410   64.1820 H   0  0  0  0  0  0  0  0  0  0  0  0
   40.9570   71.9550   62.2700 C   0  0  0  0  0  3  0  0  0  0  0  0
  1  2  2  0  0  0  0
  1  6  1  0  0  0  0
  2  3  1  0  0  0  0
  3  8  1  0  0  0  0
  3  4  2  0  0  0  0
  5  4  1  0  0  0  0
  5 20  1  0  0  0  0
  6  5  2  0  0  0  0
  7  1  1  0  0  0  0
  9  2  1  0  0  0  0
 10 17  1  0  0  0  0
 10  9  1  0  0  0  0
 11 10  2  0  0  0  0
 12 11  1  0  0  0  0
 12 14  1  0  0  0  0
 13 12  2  0  0  0  0
 14 19  1  0  0  0  0
 14 15  1  0  0  0  0
 15  9  1  0  0  0  0
 15 16  2  0  0  0  0
 18 11  1  0  0  0  0
 20 28  1  0  0  0  0
 21 20  2  0  0  0  0
 21 23  1  0  0  0  0
 22 21  1  0  0  0  0
 23 24  2  0  0  0  0
 24 26  1  0  0  0  0
 24 25  1  0  0  0  0
 26 27  1  0  0  0  0
 28 26  2  0  0  0  0
M  END
>  <minimizedAffinity>
-5.55700731

$$$$

 OpenBabel03212520303D

 28 30  0  0  0  0  0  0  0  0999 V2000
   40.1930   74.7400   57.6000 C   0  0  0  0  0  0  0  0  0  0  0  0
   38.8900   75.1500   57.9110 C   0  0  0  0  0  0  0  0  0  0  0  0
   38.3330   74.7420   59.1330 C   0  0  0  0  0  0  0  0  0  0  0  0
   39.0900   73.9710   59.9470 N   0  0  0  0  0  0  0  0  0  0  0  0
   40.3480   73.5930   59.6170 C   0  0  0  0  0  0  0  0  0  0  0  0
   40.8850   73.9780   58.4530 N   0  0  0  0  0  0  0  0  0  0  0  0
   40.6210   75.0550   56.6580 H   0  0  0  0  0  0  0  0  0  0  0  0
   37.3280   75.0520   59.3850 H   0  0  0  0  0  0  0  0  0  0  0  0
   38.1580   75.9650   56.9920 N   0  0  0  0  0  0  0  0  0  0  0  0
   37.3710   75.2750   56.1640 C   0  0  0  0  0  0  0  0  0  0  0  0
   36.6120   75.9680   55.2250 C   0  0  0  0  0  0  0  0  0  0  0  0
   36.7020   77.3680   55.1860 C   0  0  0  0  0  0  0  0  0  0  0  0
   36.0580   78.0780   54.3790 O   0  0  0  0  0  0  0  0  0  0  0  0
   37.5220   77.9950   56.0590 N   0  0  0  0  0  0  0  0  0  0  0  0
   38.2660   77.3070   56.9780 C   0  0  0  0  0  0  0  0  0  0  0  0
   39.0250   77.8860   57.7870 O   0  0  0  0  0  0  0  0  0  0  0  0
   37.2750   74.1970   56.1630 H   0  0  0  0  0  0  0  0  0  0  0  0
   35.9600   75.4720   54.5320 H   0  0  0  0  0  0  0  0  0  0  0  0
   37.6520   79.0420   56.1010 H   0  0  0  0  0  0  0  0  0  0  0  0
   41.1220   72.7540   60.5440 C   0  0  0  0  0  0  0  0  0  0  0  0
   40.6290   72.4950   61.8000 C   0  0  0  0  0  0  0  0  0  0  0  0
   39.6660   72.9020   62.1280 H   0  0  0  0  0  0  0  0  0  0  0  0
   41.3150   71.7080   62.7200 C   0  0  0  0  0  3  0  0  0  0  0  0
   42.5200   71.2200   62.2600 C   0  0  0  0  0  0  0  0  0  0  0  0
   43.1180   70.5920   62.9340 H   0  0  0  0  0  0  0  0  0  0  0  0
   43.0880   71.4310   61.0200 C   0  0  0  0  0  0  0  0  0  0  0  0
   44.0360   71.0050   60.7550 H   0  0  0  0  0  0  0  0  0  0  0  0
   42.3400   72.2310   60.1490 C   0  0  0  0  0  3  0  0  0  0  0  0
  1  2  2  0  0  0  0
  1  6  1  0  0  0  0
  2  3  1  0  0  0  0
  3  8  1  0  0  0  0
  3  4  2  0  0  0  0
  5  4  1  0  0  0  0
  5 20  1  0  0  0  0
  6  5  2  0  0  0  0
  7  1  1  0  0  0  0
  9  2  1  0  0  0  0
 10  9  1  0  0  0  0
 11 10  2  0  0  0  0
 12 11  1  0  0  0  0
 12 14  1  0  0  0  0
 13 12  2  0  0  0  0
 14 19  1  0  0  0  0
 14 15  1  0  0  0  0
 15  9  1  0  0  0  0
 15 16  2  0  0  0  0
 17 10  1  0  0  0  0
 18 11  1  0  0  0  0
 20 21  1  0  0  0  0
 21 22  1  0  0  0  0
 21 23  2  0  0  0  0
 24 23  1  0  0  0  0
 24 25  1  0  0  0  0
 26 24  2  0  0  0  0
 27 26  1  0  0  0  0
 28 20  2  0  0  0  0
 28 26  1  0  0  0  0
M  END
>  <minimizedAffinity>
-5.52455139

$$$$

 OpenBabel03212520303D

 28 30  0  0  0  0  0  0  0  0999 V2000
   41.9640   70.0750   60.4030 C   0  0  0  0  0  0  0  0  0  0  0  0
   42.4500   69.7700   61.6800 C   0  0  0  0  0  0  0  0  0  0  0  0
   42.3050   70.7240   62.6990 C   0  0  0  0  0  0  0  0  0  0  0  0
   41.6990   71.8940   62.3880 N   0  0  0  0  0  0  0  0  0  0  0  0
   41.2390   72.1580   61.1420 C   0  0  0  0  0  0  0  0  0  0  0  0
   41.3750   71.2520   60.1650 N   0  0  0  0  0  0  0  0  0  0  0  0
   42.0770   69.3390   59.6190 H   0  0  0  0  0  0  0  0  0  0  0  0
   42.6760   70.5000   63.6890 H   0  0  0  0  0  0  0  0  0  0  0  0
   43.0790   68.5080   61.9230 N   0  0  0  0  0  0  0  0  0  0  0  0
   44.3250   68.4250   61.4540 C   0  0  0  0  0  0  0  0  0  0  0  0
   45.0330   67.2400   61.6340 C   0  0  0  0  0  0  0  0  0  0  0  0
   44.4090   66.1770   62.3040 C   0  0  0  0  0  0  0  0  0  0  0  0
   44.9640   65.0740   62.5150 O   0  0  0  0  0  0  0  0  0  0  0  0
   43.1430   66.3390   62.7510 N   0  0  0  0  0  0  0  0  0  0  0  0
   42.4540   67.5060   62.5690 C   0  0  0  0  0  0  0  0  0  0  0  0
   41.2820   67.6580   62.9820 O   0  0  0  0  0  0  0  0  0  0  0  0
   44.8400   69.2220   60.9320 H   0  0  0  0  0  0  0  0  0  0  0  0
   46.0380   67.1100   61.2810 H   0  0  0  0  0  0  0  0  0  0  0  0
   42.5980   65.5950   63.2640 H   0  0  0  0  0  0  0  0  0  0  0  0
   40.5890   73.4470   60.8650 C   0  0  0  0  0  0  0  0  0  0  0  0
   41.2650   74.4120   60.1590 C   0  0  0  0  0  0  0  0  0  0  0  0
   42.2850   74.2410   59.7960 H   0  0  0  0  0  0  0  0  0  0  0  0
   40.7030   75.6510   59.8660 C   0  0  0  0  0  3  0  0  0  0  0  0
   39.4200   75.8170   60.3440 C   0  0  0  0  0  0  0  0  0  0  0  0
   38.9140   76.7720   60.1510 H   0  0  0  0  0  0  0  0  0  0  0  0
   38.6710   74.9050   61.0590 C   0  0  0  0  0  0  0  0  0  0  0  0
   37.6760   75.1300   61.3900 H   0  0  0  0  0  0  0  0  0  0  0  0
   39.3030   73.6830   61.3150 C   0  0  0  0  0  3  0  0  0  0  0  0
  1  2  1  0  0  0  0
  2  9  1  0  0  0  0
  2  3  2  0  0  0  0
  3  8  1  0  0  0  0
  4  3  1  0  0  0  0
  5  4  2  0  0  0  0
  6  1  2  0  0  0  0
  6  5  1  0  0  0  0
  7  1  1  0  0  0  0
  9 15  1  0  0  0  0
 10 11  2  0  0  0  0
 10  9  1  0  0  0  0
 11 12  1  0  0  0  0
 12 13  2  0  0  0  0
 12 14  1  0  0  0  0
 14 19  1  0  0  0  0
 15 14  1  0  0  0  0
 15 16  2  0  0  0  0
 17 10  1  0  0  0  0
 18 11  1  0  0  0  0
 20  5  1  0  0  0  0
 20 28  1  0  0  0  0
 21 20  2  0  0  0  0
 22 21  1  0  0  0  0
 23 21  1  0  0  0  0
 23 24  2  0  0  0  0
 24 26  1  0  0  0  0
 25 24  1  0  0  0  0
 26 28  2  0  0  0  0
 26 27  1  0  0  0  0
M  END
>  <minimizedAffinity>
-5.49461365

$$$$

 OpenBabel03212520303D

 28 30  0  0  0  0  0  0  0  0999 V2000
   41.3760   71.8460   60.0930 C   0  0  0  0  0  0  0  0  0  0  0  0
   41.4450   72.9420   60.9620 C   0  0  0  0  0  0  0  0  0  0  0  0
   41.9370   72.7390   62.2600 C   0  0  0  0  0  0  0  0  0  0  0  0
   42.3190   71.4860   62.6020 N   0  0  0  0  0  0  0  0  0  0  0  0
   42.2400   70.4470   61.7370 C   0  0  0  0  0  0  0  0  0  0  0  0
   41.7710   70.6340   60.4970 N   0  0  0  0  0  0  0  0  0  0  0  0
   40.9960   72.0050   59.0930 H   0  0  0  0  0  0  0  0  0  0  0  0
   41.9960   73.5760   62.9410 H   0  0  0  0  0  0  0  0  0  0  0  0
   41.0190   74.2340   60.5190 N   0  0  0  0  0  0  0  0  0  0  0  0
   39.8070   74.5840   60.9560 C   0  0  0  0  0  0  0  0  0  0  0  0
   39.2920   75.8230   60.5860 C   0  0  0  0  0  0  0  0  0  0  0  0
   40.0670   76.6580   59.7670 C   0  0  0  0  0  0  0  0  0  0  0  0
   39.6900   77.7890   59.3830 O   0  0  0  0  0  0  0  0  0  0  0  0
   41.2860   76.2320   59.3660 N   0  0  0  0  0  0  0  0  0  0  0  0
   41.7860   75.0130   59.7340 C   0  0  0  0  0  0  0  0  0  0  0  0
   42.9140   74.6180   59.3640 O   0  0  0  0  0  0  0  0  0  0  0  0
   39.1800   73.9680   61.5880 H   0  0  0  0  0  0  0  0  0  0  0  0
   38.3250   76.1620   60.9030 H   0  0  0  0  0  0  0  0  0  0  0  0
   41.9350   76.7930   58.7510 H   0  0  0  0  0  0  0  0  0  0  0  0
   42.6710   69.1080   62.1670 C   0  0  0  0  0  0  0  0  0  0  0  0
   42.2020   67.9980   61.5070 C   0  0  0  0  0  0  0  0  0  0  0  0
   41.5100   68.0900   60.6620 H   0  0  0  0  0  0  0  0  0  0  0  0
   42.5740   66.7070   61.8670 C   0  0  0  0  0  3  0  0  0  0  0  0
   43.4460   66.6460   62.9340 C   0  0  0  0  0  0  0  0  0  0  0  0
   43.7820   65.6580   63.2740 H   0  0  0  0  0  0  0  0  0  0  0  0
   43.9640   67.7050   63.6510 C   0  0  0  0  0  0  0  0  0  0  0  0
   44.6390   67.5540   64.4710 H   0  0  0  0  0  0  0  0  0  0  0  0
   43.5440   68.9720   63.2310 C   0  0  0  0  0  3  0  0  0  0  0  0
  1  6  2  0  0  0  0
  1  2  1  0  0  0  0
  2  3  2  0  0  0  0
  3  4  1  0  0  0  0
  3  8  1  0  0  0  0
  5 20  1  0  0  0  0
  5  4  2  0  0  0  0
  6  5  1  0  0  0  0
  7  1  1  0  0  0  0
  9 10  1  0  0  0  0
  9  2  1  0  0  0  0
 10 17  1  0  0  0  0
 11 18  1  0  0  0  0
 11 10  2  0  0  0  0
 12 11  1  0  0  0  0
 13 12  2  0  0  0  0
 14 15  1  0  0  0  0
 14 12  1  0  0  0  0
 15  9  1  0  0  0  0
 16 15  2  0  0  0  0
 19 14  1  0  0  0  0
 20 28  1  0  0  0  0
 21 23  1  0  0  0  0
 21 20  2  0  0  0  0
 22 21  1  0  0  0  0
 23 24  2  0  0  0  0
 24 25  1  0  0  0  0
 24 26  1  0  0  0  0
 26 27  1  0  0  0  0
 28 26  2  0  0  0  0
M  END
>  <minimizedAffinity>
-5.38892651

$$$$

 OpenBabel03212520303D

 28 30  0  0  0  0  0  0  0  0999 V2000
   41.6010   70.4390   59.7110 C   0  0  0  0  0  0  0  0  0  0  0  0
   41.9560   69.9130   60.9600 C   0  0  0  0  0  0  0  0  0  0  0  0
   41.9200   70.7590   62.0790 C   0  0  0  0  0  0  0  0  0  0  0  0
   41.5440   72.0450   61.8870 N   0  0  0  0  0  0  0  0  0  0  0  0
   41.2060   72.5220   60.6650 C   0  0  0  0  0  0  0  0  0  0  0  0
   41.2380   71.7210   59.5940 N   0  0  0  0  0  0  0  0  0  0  0  0
   41.6290   69.7850   58.8510 H   0  0  0  0  0  0  0  0  0  0  0  0
   42.1910   70.3660   63.0480 H   0  0  0  0  0  0  0  0  0  0  0  0
   42.3420   68.5400   61.0740 N   0  0  0  0  0  0  0  0  0  0  0  0
   41.3330   67.7150   61.3580 C   0  0  0  0  0  0  0  0  0  0  0  0
   41.5940   66.3550   61.4920 C   0  0  0  0  0  0  0  0  0  0  0  0
   42.9110   65.9010   61.3220 C   0  0  0  0  0  0  0  0  0  0  0  0
   43.2440   64.6980   61.4220 O   0  0  0  0  0  0  0  0  0  0  0  0
   43.8800   66.8000   61.0350 N   0  0  0  0  0  0  0  0  0  0  0  0
   43.6150   68.1360   60.9050 C   0  0  0  0  0  0  0  0  0  0  0  0
   44.5100   68.9680   60.6390 O   0  0  0  0  0  0  0  0  0  0  0  0
   40.3050   68.0260   61.4970 H   0  0  0  0  0  0  0  0  0  0  0  0
   40.8270   65.6400   61.7190 H   0  0  0  0  0  0  0  0  0  0  0  0
   44.8950   66.5490   60.8900 H   0  0  0  0  0  0  0  0  0  0  0  0
   40.8050   73.9300   60.5200 C   0  0  0  0  0  0  0  0  0  0  0  0
   39.6690   74.3820   61.1490 C   0  0  0  0  0  0  0  0  0  0  0  0
   39.0530   73.7120   61.7590 H   0  0  0  0  0  0  0  0  0  0  0  0
   39.2400   75.7010   61.0490 C   0  0  0  0  0  3  0  0  0  0  0  0
   40.0490   76.5020   60.2710 C   0  0  0  0  0  0  0  0  0  0  0  0
   39.7700   77.5570   60.1470 H   0  0  0  0  0  0  0  0  0  0  0  0
   41.2000   76.1320   59.6070 C   0  0  0  0  0  0  0  0  0  0  0  0
   41.7630   76.8340   59.0230 H   0  0  0  0  0  0  0  0  0  0  0  0
   41.5690   74.7910   59.7540 C   0  0  0  0  0  3  0  0  0  0  0  0
  1  2  1  0  0  0  0
  2  9  1  0  0  0  0
  2  3  2  0  0  0  0
  3  8  1  0  0  0  0
  4  3  1  0  0  0  0
  5  4  2  0  0  0  0
  6  1  2  0  0  0  0
  6  5  1  0  0  0  0
  7  1  1  0  0  0  0
  9 10  1  0  0  0  0
 10 11  2  0  0  0  0
 10 17  1  0  0  0  0
 11 18  1  0  0  0  0
 12 13  2  0  0  0  0
 12 11  1  0  0  0  0
 14 12  1  0  0  0  0
 15 14  1  0  0  0  0
 15  9  1  0  0  0  0
 16 15  2  0  0  0  0
 19 14  1  0  0  0  0
 20  5  1  0  0  0  0
 20 21  1  0  0  0  0
 21 22  1  0  0  0  0
 23 21  2  0  0  0  0
 24 23  1  0  0  0  0
 25 24  1  0  0  0  0
 26 28  1  0  0  0  0
 26 24  2  0  0  0  0
 27 26  1  0  0  0  0
 28 20  2  0  0  0  0
M  END
>  <minimizedAffinity>
-5.35900211

$$$$

 OpenBabel03212520303D

 28 30  0  0  0  0  0  0  0  0999 V2000
   41.0580   73.0700   58.8660 C   0  0  0  0  0  0  0  0  0  0  0  0
   40.0330   73.8210   59.4540 C   0  0  0  0  0  0  0  0  0  0  0  0
   39.6870   73.5560   60.7880 C   0  0  0  0  0  0  0  0  0  0  0  0
   40.3680   72.5810   61.4350 N   0  0  0  0  0  0  0  0  0  0  0  0
   41.3550   71.8730   60.8370 C   0  0  0  0  0  0  0  0  0  0  0  0
   41.6890   72.1210   59.5650 N   0  0  0  0  0  0  0  0  0  0  0  0
   41.3230   73.2760   57.8380 H   0  0  0  0  0  0  0  0  0  0  0  0
   38.8990   74.1290   61.2540 H   0  0  0  0  0  0  0  0  0  0  0  0
   39.3640   74.8340   58.6970 N   0  0  0  0  0  0  0  0  0  0  0  0
   38.3390   74.3800   57.9720 C   0  0  0  0  0  0  0  0  0  0  0  0
   37.6150   75.2800   57.1960 C   0  0  0  0  0  0  0  0  0  0  0  0
   37.9900   76.6320   57.2040 C   0  0  0  0  0  0  0  0  0  0  0  0
   37.4000   77.5150   56.5400 O   0  0  0  0  0  0  0  0  0  0  0  0
   39.0400   77.0140   57.9650 N   0  0  0  0  0  0  0  0  0  0  0  0
   39.7470   76.1240   58.7250 C   0  0  0  0  0  0  0  0  0  0  0  0
   40.7190   76.4770   59.4300 O   0  0  0  0  0  0  0  0  0  0  0  0
   38.0200   73.3460   57.9390 H   0  0  0  0  0  0  0  0  0  0  0  0
   36.7810   74.9780   56.5920 H   0  0  0  0  0  0  0  0  0  0  0  0
   39.3910   78.0080   58.0320 H   0  0  0  0  0  0  0  0  0  0  0  0
   42.0590   70.8260   61.5930 C   0  0  0  0  0  0  0  0  0  0  0  0
   41.7320   70.6000   62.9080 C   0  0  0  0  0  0  0  0  0  0  0  0
   40.9530   71.1870   63.4090 H   0  0  0  0  0  0  0  0  0  0  0  0
   42.3620   69.6240   63.6740 C   0  0  0  0  0  3  0  0  0  0  0  0
   43.3320   68.9140   62.9980 C   0  0  0  0  0  0  0  0  0  0  0  0
   43.8720   68.1270   63.5410 H   0  0  0  0  0  0  0  0  0  0  0  0
   43.7220   69.0750   61.6850 C   0  0  0  0  0  0  0  0  0  0  0  0
   44.4930   68.4700   61.2480 H   0  0  0  0  0  0  0  0  0  0  0  0
   43.0440   70.0740   60.9790 C   0  0  0  0  0  3  0  0  0  0  0  0
  1  2  2  0  0  0  0
  1  6  1  0  0  0  0
  2  3  1  0  0  0  0
  3  8  1  0  0  0  0
  3  4  2  0  0  0  0
  5  4  1  0  0  0  0
  5 20  1  0  0  0  0
  6  5  2  0  0  0  0
  7  1  1  0  0  0  0
  9 15  1  0  0  0  0
  9  2  1  0  0  0  0
 10  9  1  0  0  0  0
 11 12  1  0  0  0  0
 11 10  2  0  0  0  0
 12 14  1  0  0  0  0
 13 12  2  0  0  0  0
 14 19  1  0  0  0  0
 14 15  1  0  0  0  0
 15 16  2  0  0  0  0
 17 10  1  0  0  0  0
 18 11  1  0  0  0  0
 20 21  1  0  0  0  0
 21 22  1  0  0  0  0
 21 23  2  0  0  0  0
 24 25  1  0  0  0  0
 24 23  1  0  0  0  0
 26 24  2  0  0  0  0
 27 26  1  0  0  0  0
 28 20  2  0  0  0  0
 28 26  1  0  0  0  0
M  END
>  <minimizedAffinity>
-5.33900881

$$$$

 OpenBabel03212520303D

 28 30  0  0  0  0  0  0  0  0999 V2000
   41.5790   70.4320   59.6750 C   0  0  0  0  0  0  0  0  0  0  0  0
   41.9730   69.9060   60.9120 C   0  0  0  0  0  0  0  0  0  0  0  0
   41.9620   70.7480   62.0340 C   0  0  0  0  0  0  0  0  0  0  0  0
   41.5690   72.0310   61.8570 N   0  0  0  0  0  0  0  0  0  0  0  0
   41.1930   72.5090   60.6470 C   0  0  0  0  0  0  0  0  0  0  0  0
   41.2010   71.7110   59.5720 N   0  0  0  0  0  0  0  0  0  0  0  0
   41.5880   69.7810   58.8120 H   0  0  0  0  0  0  0  0  0  0  0  0
   42.2640   70.3540   62.9940 H   0  0  0  0  0  0  0  0  0  0  0  0
   42.3750   68.5360   61.0100 N   0  0  0  0  0  0  0  0  0  0  0  0
   41.3720   67.6950   61.2680 C   0  0  0  0  0  0  0  0  0  0  0  0
   41.6480   66.3360   61.3840 C   0  0  0  0  0  0  0  0  0  0  0  0
   42.9720   65.9000   61.2260 C   0  0  0  0  0  0  0  0  0  0  0  0
   43.3190   64.7000   61.3120 O   0  0  0  0  0  0  0  0  0  0  0  0
   43.9340   66.8150   60.9660 N   0  0  0  0  0  0  0  0  0  0  0  0
   43.6550   68.1500   60.8530 C   0  0  0  0  0  0  0  0  0  0  0  0
   44.5430   68.9970   60.6120 O   0  0  0  0  0  0  0  0  0  0  0  0
   40.3380   67.9910   61.3970 H   0  0  0  0  0  0  0  0  0  0  0  0
   40.8860   65.6090   61.5910 H   0  0  0  0  0  0  0  0  0  0  0  0
   44.9540   66.5780   60.8320 H   0  0  0  0  0  0  0  0  0  0  0  0
   40.7750   73.9130   60.5180 C   0  0  0  0  0  0  0  0  0  0  0  0
   41.5270   74.7800   59.7620 C   0  0  0  0  0  0  0  0  0  0  0  0
   42.4370   74.4450   59.2500 H   0  0  0  0  0  0  0  0  0  0  0  0
   41.1820   76.1190   59.6020 C   0  0  0  0  0  3  0  0  0  0  0  0
   40.0300   76.4890   60.2650 C   0  0  0  0  0  0  0  0  0  0  0  0
   39.6980   77.5320   60.1840 H   0  0  0  0  0  0  0  0  0  0  0  0
   39.2190   75.6870   61.0420 C   0  0  0  0  0  0  0  0  0  0  0  0
   38.3390   76.0720   61.5190 H   0  0  0  0  0  0  0  0  0  0  0  0
   39.6300   74.3550   61.1550 C   0  0  0  0  0  3  0  0  0  0  0  0
  1  2  1  0  0  0  0
  2  9  1  0  0  0  0
  2  3  2  0  0  0  0
  3  8  1  0  0  0  0
  4  3  1  0  0  0  0
  5  4  2  0  0  0  0
  6  1  2  0  0  0  0
  6  5  1  0  0  0  0
  7  1  1  0  0  0  0
  9 10  1  0  0  0  0
 10 11  2  0  0  0  0
 10 17  1  0  0  0  0
 11 18  1  0  0  0  0
 12 13  2  0  0  0  0
 12 11  1  0  0  0  0
 14 12  1  0  0  0  0
 15 14  1  0  0  0  0
 15  9  1  0  0  0  0
 16 15  2  0  0  0  0
 19 14  1  0  0  0  0
 20  5  1  0  0  0  0
 20 28  1  0  0  0  0
 21 20  2  0  0  0  0
 22 21  1  0  0  0  0
 23 21  1  0  0  0  0
 23 24  2  0  0  0  0
 24 26  1  0  0  0  0
 25 24  1  0  0  0  0
 26 28  2  0  0  0  0
 26 27  1  0  0  0  0
M  END
>  <minimizedAffinity>
-5.32391453

$$$$
