
 OpenBabel03212521043D

 28 30  0  0  0  0  0  0  0  0999 V2000
   42.4180   84.4890   62.4860 C   0  0  0  0  0  0  0  0  0  0  0  0
   42.3460   84.5650   63.8840 C   0  0  0  0  0  0  0  0  0  0  0  0
   41.2180   84.2100   64.5840 C   0  0  0  0  0  0  0  0  0  0  0  0
   40.1040   83.7560   63.8790 C   0  0  0  0  0  0  0  0  0  0  0  0
   40.1730   83.6810   62.4930 C   0  0  0  0  0  0  0  0  0  0  0  0
   41.3150   84.0400   61.7730 C   0  0  0  0  0  0  0  0  0  0  0  0
   43.2060   84.9160   64.4360 H   0  0  0  0  0  0  0  0  0  0  0  0
   41.1860   84.2780   65.6590 H   0  0  0  0  0  0  0  0  0  0  0  0
   39.1840   83.4590   64.3660 H   0  0  0  0  0  0  0  0  0  0  0  0
   39.3150   83.3280   61.9060 H   0  0  0  0  0  0  0  0  0  0  0  0
   45.7490   84.2920   60.9900 C   0  0  0  0  0  0  0  0  0  0  0  0
   45.9820   85.6130   60.5850 C   0  0  0  0  0  0  0  0  0  0  0  0
   44.9850   86.5810   60.8290 C   0  0  0  0  0  0  0  0  0  0  0  0
   43.8570   86.1590   61.4440 N   0  0  0  0  0  0  0  0  0  0  0  0
   43.6480   84.8830   61.8280 C   0  0  0  0  0  0  0  0  0  0  0  0
   44.5930   83.9820   61.5940 N   0  0  0  0  0  0  0  0  0  0  0  0
   46.4740   83.5340   60.8260 H   0  0  0  0  0  0  0  0  0  0  0  0
   46.9100   85.8600   60.1010 H   0  0  0  0  0  0  0  0  0  0  0  0
   45.1450   87.6080   60.5230 H   0  0  0  0  0  0  0  0  0  0  0  0
   41.3420   83.9470   60.3180 C   0  0  0  0  0  0  0  0  0  0  0  0
   41.0400   85.0200   59.4690 C   0  0  0  0  0  0  0  0  0  0  0  0
   40.7880   85.9140   60.0160 H   0  0  0  0  0  0  0  0  0  0  0  0
   41.0990   84.8200   58.1240 C   0  0  0  0  0  3  0  0  0  0  0  0
   41.4500   83.5760   57.5950 C   0  0  0  0  0  0  0  0  0  0  0  0
   41.4850   83.4580   56.5250 H   0  0  0  0  0  0  0  0  0  0  0  0
   41.7460   82.5260   58.4440 C   0  0  0  0  0  0  0  0  0  0  0  0
   42.0240   81.5460   58.0300 H   0  0  0  0  0  0  0  0  0  0  0  0
   41.6960   82.6960   59.8120 C   0  0  0  0  0  3  0  0  0  0  0  0
  1  2  1  0  0  0  0
  2  7  1  0  0  0  0
  2  3  2  0  0  0  0
  3  8  1  0  0  0  0
  4  9  1  0  0  0  0
  4  3  1  0  0  0  0
  5  4  2  0  0  0  0
  6  1  2  0  0  0  0
  6  5  1  0  0  0  0
 10  5  1  0  0  0  0
 11 16  1  0  0  0  0
 12 13  1  0  0  0  0
 12 11  2  0  0  0  0
 13 14  2  0  0  0  0
 14 15  1  0  0  0  0
 15  1  1  0  0  0  0
 16 15  2  0  0  0  0
 17 11  1  0  0  0  0
 18 12  1  0  0  0  0
 19 13  1  0  0  0  0
 20  6  1  0  0  0  0
 21 22  1  0  0  0  0
 21 20  2  0  0  0  0
 23 21  1  0  0  0  0
 24 23  2  0  0  0  0
 24 26  1  0  0  0  0
 25 24  1  0  0  0  0
 26 28  2  0  0  0  0
 27 26  1  0  0  0  0
 28 20  1  0  0  0  0
M  END
>  <minimizedAffinity>
-5.00718689

>  <minimizedRMSD>
2.33085394

$$$$
