
 OpenBabel03212521033D

 28 30  0  0  0  0  0  0  0  0999 V2000
   42.3630   84.4750   62.3160 C   0  0  0  0  0  0  0  0  0  0  0  0
   42.2510   84.4930   63.7130 C   0  0  0  0  0  0  0  0  0  0  0  0
   41.0980   84.1280   64.3650 C   0  0  0  0  0  0  0  0  0  0  0  0
   39.9970   83.7250   63.6100 C   0  0  0  0  0  0  0  0  0  0  0  0
   40.1050   83.7090   62.2240 C   0  0  0  0  0  0  0  0  0  0  0  0
   41.2730   84.0780   61.5540 C   0  0  0  0  0  0  0  0  0  0  0  0
   43.1000   84.8030   64.3050 H   0  0  0  0  0  0  0  0  0  0  0  0
   41.0360   84.1490   65.4410 H   0  0  0  0  0  0  0  0  0  0  0  0
   39.0580   83.4240   64.0580 H   0  0  0  0  0  0  0  0  0  0  0  0
   39.2590   83.3970   61.5990 H   0  0  0  0  0  0  0  0  0  0  0  0
   45.7150   84.2760   60.8700 C   0  0  0  0  0  0  0  0  0  0  0  0
   45.9990   85.6150   60.5670 C   0  0  0  0  0  0  0  0  0  0  0  0
   45.0280   86.5950   60.8640 C   0  0  0  0  0  0  0  0  0  0  0  0
   43.8760   86.1670   61.4260 N   0  0  0  0  0  0  0  0  0  0  0  0
   43.6180   84.8740   61.7110 C   0  0  0  0  0  0  0  0  0  0  0  0
   44.5380   83.9620   61.4280 N   0  0  0  0  0  0  0  0  0  0  0  0
   46.4190   83.5090   60.6630 H   0  0  0  0  0  0  0  0  0  0  0  0
   46.9440   85.8660   60.1190 H   0  0  0  0  0  0  0  0  0  0  0  0
   45.2270   87.6360   60.6370 H   0  0  0  0  0  0  0  0  0  0  0  0
   41.3410   84.0470   60.0970 C   0  0  0  0  0  0  0  0  0  0  0  0
   41.1490   85.1770   59.2910 C   0  0  0  0  0  0  0  0  0  0  0  0
   40.9470   86.0630   59.8720 H   0  0  0  0  0  0  0  0  0  0  0  0
   41.2360   85.0340   57.9410 C   0  0  0  0  0  3  0  0  0  0  0  0
   41.5100   83.7920   57.3640 C   0  0  0  0  0  0  0  0  0  0  0  0
   41.5690   83.7190   56.2920 H   0  0  0  0  0  0  0  0  0  0  0  0
   41.6960   82.6850   58.1710 C   0  0  0  0  0  0  0  0  0  0  0  0
   41.9130   81.7060   57.7200 H   0  0  0  0  0  0  0  0  0  0  0  0
   41.6150   82.7970   59.5440 C   0  0  0  0  0  3  0  0  0  0  0  0
  1  2  1  0  0  0  0
  2  7  1  0  0  0  0
  2  3  2  0  0  0  0
  3  8  1  0  0  0  0
  4  9  1  0  0  0  0
  4  3  1  0  0  0  0
  5  4  2  0  0  0  0
  6  5  1  0  0  0  0
  6  1  2  0  0  0  0
 10  5  1  0  0  0  0
 11 16  1  0  0  0  0
 12 13  1  0  0  0  0
 12 11  2  0  0  0  0
 13 14  2  0  0  0  0
 14 15  1  0  0  0  0
 15  1  1  0  0  0  0
 16 15  2  0  0  0  0
 17 11  1  0  0  0  0
 18 12  1  0  0  0  0
 19 13  1  0  0  0  0
 20  6  1  0  0  0  0
 21 22  1  0  0  0  0
 21 20  2  0  0  0  0
 23 21  1  0  0  0  0
 24 23  2  0  0  0  0
 24 26  1  0  0  0  0
 25 24  1  0  0  0  0
 26 28  2  0  0  0  0
 27 26  1  0  0  0  0
 28 20  1  0  0  0  0
M  END
>  <minimizedAffinity>
-4.96902084

>  <minimizedRMSD>
2.4137125

$$$$
