
 OpenBabel03212521073D

 36 39  0  0  0  0  0  0  0  0999 V2000
   41.8170   84.2300   61.5600 C   0  0  0  0  0  0  0  0  0  0  0  0
   41.4770   83.9440   62.8780 C   0  0  0  0  0  0  0  0  0  0  0  0
   40.2080   83.5220   63.2400 C   0  0  0  0  0  0  0  0  0  0  0  0
   39.2490   83.3840   62.2440 C   0  0  0  0  0  0  0  0  0  0  0  0
   39.5810   83.6700   60.9170 C   0  0  0  0  0  0  0  0  0  0  0  0
   40.8410   84.0840   60.5810 C   0  0  0  0  0  0  0  0  0  0  0  0
   42.1860   84.0340   63.6970 H   0  0  0  0  0  0  0  0  0  0  0  0
   39.9510   83.3010   64.2690 H   0  0  0  0  0  0  0  0  0  0  0  0
   38.2300   83.0560   62.4590 H   0  0  0  0  0  0  0  0  0  0  0  0
   38.8050   83.5490   60.1750 H   0  0  0  0  0  0  0  0  0  0  0  0
   45.3170   84.1540   60.5310 C   0  0  0  0  0  0  0  0  0  0  0  0
   45.7130   85.4700   60.6690 C   0  0  0  0  0  0  0  0  0  0  0  0
   44.7660   86.4120   61.1260 C   0  0  0  0  0  0  0  0  0  0  0  0
   43.5220   85.9650   61.4000 N   0  0  0  0  0  0  0  0  0  0  0  0
   43.1590   84.6650   61.2550 C   0  0  0  0  0  0  0  0  0  0  0  0
   44.0570   83.7760   60.8230 N   0  0  0  0  0  0  0  0  0  0  0  0
   46.0710   83.4590   60.1780 H   0  0  0  0  0  0  0  0  0  0  0  0
   46.7010   85.8650   60.4590 H   0  0  0  0  0  0  0  0  0  0  0  0
   44.9380   87.4560   61.2770 H   0  0  0  0  0  0  0  0  0  0  0  0
   41.1480   84.3710   59.1970 C   0  0  0  0  0  0  0  0  0  0  0  0
   40.8910   85.7100   58.8780 C   0  0  0  0  0  0  0  0  0  0  0  0
   41.1220   86.1920   57.5900 C   0  0  0  0  0  0  0  0  0  0  0  0
   41.5950   85.3260   56.6920 N   0  0  0  0  0  0  0  0  0  0  0  0
   41.8470   84.0250   56.9960 C   0  0  0  0  0  0  0  0  0  0  0  0
   41.6220   83.5580   58.2470 N   0  0  0  0  0  0  0  0  0  0  0  0
   40.5050   86.4660   59.5650 H   0  0  0  0  0  0  0  0  0  0  0  0
   40.9390   87.2100   57.3030 H   0  0  0  0  0  0  0  0  0  0  0  0
   42.3660   83.0850   55.9970 C   0  0  0  0  0  0  0  0  0  0  0  0
   43.6260   83.3520   55.4510 C   0  0  0  0  0  0  0  0  0  0  0  0
   44.1840   84.2200   55.7610 H   0  0  0  0  0  0  0  0  0  0  0  0
   44.0810   82.4430   54.5130 C   0  0  0  0  0  3  0  0  0  0  0  0
   43.3560   81.3370   54.1250 C   0  0  0  0  0  0  0  0  0  0  0  0
   43.7650   80.6650   53.3890 H   0  0  0  0  0  0  0  0  0  0  0  0
   42.1140   81.1000   54.6830 C   0  0  0  0  0  0  0  0  0  0  0  0
   41.5980   80.2160   54.3360 H   0  0  0  0  0  0  0  0  0  0  0  0
   41.6460   81.9780   55.6060 C   0  0  0  0  0  3  0  0  0  0  0  0
  1  2  1  0  0  0  0
  2  3  2  0  0  0  0
  2  7  1  0  0  0  0
  3  8  1  0  0  0  0
  4  9  1  0  0  0  0
  4  3  1  0  0  0  0
  5  4  2  0  0  0  0
  6  5  1  0  0  0  0
  6  1  2  0  0  0  0
 10  5  1  0  0  0  0
 11 12  2  0  0  0  0
 11 16  1  0  0  0  0
 12 13  1  0  0  0  0
 13 19  1  0  0  0  0
 13 14  2  0  0  0  0
 15 14  1  0  0  0  0
 15  1  1  0  0  0  0
 16 15  2  0  0  0  0
 17 11  1  0  0  0  0
 18 12  1  0  0  0  0
 20  6  1  0  0  0  0
 21 20  1  0  0  0  0
 21 26  1  0  0  0  0
 22 21  2  0  0  0  0
 23 24  2  0  0  0  0
 23 22  1  0  0  0  0
 24 25  1  0  0  0  0
 25 20  2  0  0  0  0
 27 22  1  0  0  0  0
 28 24  1  0  0  0  0
 29 30  1  0  0  0  0
 29 28  2  0  0  0  0
 31 29  1  0  0  0  0
 32 31  2  0  0  0  0
 32 34  1  0  0  0  0
 33 32  1  0  0  0  0
 34 36  2  0  0  0  0
 35 34  1  0  0  0  0
 36 28  1  0  0  0  0
M  END
>  <minimizedAffinity>
-5.48992825

>  <minimizedRMSD>
0.562982857

$$$$
