
 OpenBabel03212520463D

 20 21  0  0  0  0  0  0  0  0999 V2000
   40.4120   84.3620   60.4130 C   0  0  0  0  0  0  0  0  0  0  0  0
   39.2140   84.1380   61.1020 C   0  0  0  0  0  0  0  0  0  0  0  0
   39.2740   83.2850   62.2220 C   0  0  0  0  0  0  0  0  0  0  0  0
   40.4660   82.7480   62.5520 N   0  0  0  0  0  0  0  0  0  0  0  0
   41.6000   82.9960   61.8540 C   0  0  0  0  0  0  0  0  0  0  0  0
   41.5590   83.8050   60.7840 N   0  0  0  0  0  0  0  0  0  0  0  0
   40.1880   85.2450   59.3060 N   0  0  0  0  0  0  0  0  0  0  0  0
   38.2440   84.5360   60.8860 H   0  0  0  0  0  0  0  0  0  0  0  0
   38.3870   83.0530   62.8220 H   0  0  0  0  0  0  0  0  0  0  0  0
   40.1780   84.5810   58.4860 H   0  0  0  0  0  0  0  0  0  0  0  0
   40.0540   86.2540   59.1890 H   0  0  0  0  0  0  0  0  0  0  0  0
   42.8610   82.4010   62.2390 C   0  0  0  0  0  0  0  0  0  0  0  0
   43.7730   83.1560   62.9810 C   0  0  0  0  0  0  0  0  0  0  0  0
   43.4830   84.1700   63.2370 H   0  0  0  0  0  0  0  0  0  0  0  0
   45.0080   82.6490   63.3870 C   0  0  0  0  0  0  0  0  0  0  0  0
   45.3540   81.3520   63.0470 C   0  0  0  0  0  0  0  0  0  0  0  0
   46.3040   81.0120   63.3800 H   0  0  0  0  0  0  0  0  0  0  0  0
   44.4550   80.5830   62.3060 C   0  0  0  0  0  0  0  0  0  0  0  0
   44.7420   79.5730   62.0510 H   0  0  0  0  0  0  0  0  0  0  0  0
   43.2210   81.0990   61.9040 C   0  0  0  0  0  0  0  0  0  0  0  0
  1  6  2  0  0  0  0
  1  2  1  0  0  0  0
  2  3  2  0  0  0  0
  3  4  1  0  0  0  0
  3  9  1  0  0  0  0
  5 12  1  0  0  0  0
  5  4  2  0  0  0  0
  6  5  1  0  0  0  0
  7  1  1  0  0  0  0
  8  2  1  0  0  0  0
 10  7  1  0  0  0  0
 11  7  1  0  0  0  0
 12 13  1  0  0  0  0
 13 14  1  0  0  0  0
 13 15  2  0  0  0  0
 16 17  1  0  0  0  0
 16 15  1  0  0  0  0
 18 16  2  0  0  0  0
 19 18  1  0  0  0  0
 20 12  2  0  0  0  0
 20 18  1  0  0  0  0
M  END
>  <minimizedAffinity>
-4.53292131

>  <minimizedRMSD>
5.49398041

$$$$
