
 OpenBabel03212521073D

 36 39  0  0  0  0  0  0  0  0999 V2000
   41.7950   84.1770   61.5570 C   0  0  0  0  0  0  0  0  0  0  0  0
   41.4320   83.9160   62.8740 C   0  0  0  0  0  0  0  0  0  0  0  0
   40.1400   83.5610   63.2290 C   0  0  0  0  0  0  0  0  0  0  0  0
   39.1830   83.4660   62.2260 C   0  0  0  0  0  0  0  0  0  0  0  0
   39.5380   83.7270   60.9010 C   0  0  0  0  0  0  0  0  0  0  0  0
   40.8190   84.0760   60.5710 C   0  0  0  0  0  0  0  0  0  0  0  0
   42.1380   83.9760   63.6970 H   0  0  0  0  0  0  0  0  0  0  0  0
   39.8650   83.3590   64.2570 H   0  0  0  0  0  0  0  0  0  0  0  0
   38.1470   83.1910   62.4360 H   0  0  0  0  0  0  0  0  0  0  0  0
   38.7620   83.6410   60.1530 H   0  0  0  0  0  0  0  0  0  0  0  0
   45.2950   83.9180   60.5600 C   0  0  0  0  0  0  0  0  0  0  0  0
   45.7550   85.2140   60.6880 C   0  0  0  0  0  0  0  0  0  0  0  0
   44.8510   86.2070   61.1260 C   0  0  0  0  0  0  0  0  0  0  0  0
   43.5850   85.8250   61.3940 N   0  0  0  0  0  0  0  0  0  0  0  0
   43.1590   84.5430   61.2590 C   0  0  0  0  0  0  0  0  0  0  0  0
   44.0160   83.6050   60.8450 N   0  0  0  0  0  0  0  0  0  0  0  0
   46.0170   83.1830   60.2210 H   0  0  0  0  0  0  0  0  0  0  0  0
   46.7630   85.5580   60.4820 H   0  0  0  0  0  0  0  0  0  0  0  0
   45.0730   87.2430   61.2670 H   0  0  0  0  0  0  0  0  0  0  0  0
   41.1510   84.3390   59.1880 C   0  0  0  0  0  0  0  0  0  0  0  0
   40.9320   85.6810   58.8520 C   0  0  0  0  0  0  0  0  0  0  0  0
   41.1910   86.1420   57.5610 C   0  0  0  0  0  0  0  0  0  0  0  0
   41.6520   85.2530   56.6780 N   0  0  0  0  0  0  0  0  0  0  0  0
   41.8660   83.9500   57.0000 C   0  0  0  0  0  0  0  0  0  0  0  0
   41.6140   83.5040   58.2530 N   0  0  0  0  0  0  0  0  0  0  0  0
   40.5580   86.4540   59.5260 H   0  0  0  0  0  0  0  0  0  0  0  0
   41.0370   87.1610   57.2610 H   0  0  0  0  0  0  0  0  0  0  0  0
   42.3730   82.9860   56.0180 C   0  0  0  0  0  0  0  0  0  0  0  0
   41.5420   81.9130   55.6750 C   0  0  0  0  0  0  0  0  0  0  0  0
   40.5670   81.8120   56.1240 H   0  0  0  0  0  0  0  0  0  0  0  0
   42.0540   81.0270   54.7460 C   0  0  0  0  0  3  0  0  0  0  0  0
   43.3020   81.1700   54.1800 C   0  0  0  0  0  0  0  0  0  0  0  0
   43.6450   80.4450   53.4620 H   0  0  0  0  0  0  0  0  0  0  0  0
   44.1010   82.2400   54.5380 C   0  0  0  0  0  0  0  0  0  0  0  0
   45.0670   82.2940   54.0580 H   0  0  0  0  0  0  0  0  0  0  0  0
   43.6190   83.1240   55.4480 C   0  0  0  0  0  3  0  0  0  0  0  0
  1  2  1  0  0  0  0
  2  3  2  0  0  0  0
  2  7  1  0  0  0  0
  3  8  1  0  0  0  0
  4  9  1  0  0  0  0
  4  3  1  0  0  0  0
  5  4  2  0  0  0  0
  6  5  1  0  0  0  0
  6  1  2  0  0  0  0
 10  5  1  0  0  0  0
 11 12  2  0  0  0  0
 11 16  1  0  0  0  0
 12 13  1  0  0  0  0
 13 19  1  0  0  0  0
 13 14  2  0  0  0  0
 15 14  1  0  0  0  0
 15  1  1  0  0  0  0
 16 15  2  0  0  0  0
 17 11  1  0  0  0  0
 18 12  1  0  0  0  0
 20  6  1  0  0  0  0
 21 20  1  0  0  0  0
 21 26  1  0  0  0  0
 22 21  2  0  0  0  0
 23 24  2  0  0  0  0
 23 22  1  0  0  0  0
 24 25  1  0  0  0  0
 25 20  2  0  0  0  0
 27 22  1  0  0  0  0
 28 24  1  0  0  0  0
 29 28  1  0  0  0  0
 29 30  1  0  0  0  0
 31 29  2  0  0  0  0
 32 34  2  0  0  0  0
 32 31  1  0  0  0  0
 33 32  1  0  0  0  0
 34 36  1  0  0  0  0
 35 34  1  0  0  0  0
 36 28  2  0  0  0  0
M  END
>  <minimizedAffinity>
-5.47890902

>  <minimizedRMSD>
0.493326277

$$$$
