
 OpenBabel03212521073D

 36 39  0  0  0  0  0  0  0  0999 V2000
   41.7970   84.1750   61.5500 C   0  0  0  0  0  0  0  0  0  0  0  0
   41.4370   83.9080   62.8670 C   0  0  0  0  0  0  0  0  0  0  0  0
   40.1460   83.5500   63.2220 C   0  0  0  0  0  0  0  0  0  0  0  0
   39.1870   83.4580   62.2210 C   0  0  0  0  0  0  0  0  0  0  0  0
   39.5400   83.7260   60.8960 C   0  0  0  0  0  0  0  0  0  0  0  0
   40.8190   84.0770   60.5660 C   0  0  0  0  0  0  0  0  0  0  0  0
   42.1440   83.9640   63.6890 H   0  0  0  0  0  0  0  0  0  0  0  0
   39.8730   83.3430   64.2500 H   0  0  0  0  0  0  0  0  0  0  0  0
   38.1510   83.1810   62.4320 H   0  0  0  0  0  0  0  0  0  0  0  0
   38.7620   83.6420   60.1500 H   0  0  0  0  0  0  0  0  0  0  0  0
   45.2940   83.9240   60.5410 C   0  0  0  0  0  0  0  0  0  0  0  0
   45.7550   85.2200   60.6780 C   0  0  0  0  0  0  0  0  0  0  0  0
   44.8520   86.2080   61.1270 C   0  0  0  0  0  0  0  0  0  0  0  0
   43.5860   85.8240   61.3960 N   0  0  0  0  0  0  0  0  0  0  0  0
   43.1610   84.5430   61.2520 C   0  0  0  0  0  0  0  0  0  0  0  0
   44.0160   83.6090   60.8270 N   0  0  0  0  0  0  0  0  0  0  0  0
   46.0160   83.1920   60.1940 H   0  0  0  0  0  0  0  0  0  0  0  0
   46.7620   85.5650   60.4730 H   0  0  0  0  0  0  0  0  0  0  0  0
   45.0740   87.2430   61.2770 H   0  0  0  0  0  0  0  0  0  0  0  0
   41.1480   84.3460   59.1840 C   0  0  0  0  0  0  0  0  0  0  0  0
   40.9360   85.6910   58.8550 C   0  0  0  0  0  0  0  0  0  0  0  0
   41.1930   86.1580   57.5670 C   0  0  0  0  0  0  0  0  0  0  0  0
   41.6470   85.2720   56.6770 N   0  0  0  0  0  0  0  0  0  0  0  0
   41.8550   83.9660   56.9910 C   0  0  0  0  0  0  0  0  0  0  0  0
   41.6040   83.5140   58.2420 N   0  0  0  0  0  0  0  0  0  0  0  0
   40.5680   86.4620   59.5350 H   0  0  0  0  0  0  0  0  0  0  0  0
   41.0440   87.1800   57.2730 H   0  0  0  0  0  0  0  0  0  0  0  0
   42.3540   83.0050   56.0010 C   0  0  0  0  0  0  0  0  0  0  0  0
   41.5440   81.9040   55.7040 C   0  0  0  0  0  0  0  0  0  0  0  0
   40.5910   81.7780   56.1920 H   0  0  0  0  0  0  0  0  0  0  0  0
   42.0480   81.0210   54.7660 C   0  0  0  0  0  3  0  0  0  0  0  0
   43.2690   81.1950   54.1510 C   0  0  0  0  0  0  0  0  0  0  0  0
   43.6060   80.4710   53.4290 H   0  0  0  0  0  0  0  0  0  0  0  0
   44.0460   82.2930   54.4650 C   0  0  0  0  0  0  0  0  0  0  0  0
   44.9910   82.3700   53.9480 H   0  0  0  0  0  0  0  0  0  0  0  0
   43.5720   83.1740   55.3830 C   0  0  0  0  0  3  0  0  0  0  0  0
  1  2  1  0  0  0  0
  2  3  2  0  0  0  0
  2  7  1  0  0  0  0
  3  8  1  0  0  0  0
  4  9  1  0  0  0  0
  4  3  1  0  0  0  0
  5  4  2  0  0  0  0
  6  5  1  0  0  0  0
  6  1  2  0  0  0  0
 10  5  1  0  0  0  0
 11 12  2  0  0  0  0
 11 16  1  0  0  0  0
 12 13  1  0  0  0  0
 13 19  1  0  0  0  0
 13 14  2  0  0  0  0
 15 14  1  0  0  0  0
 15  1  1  0  0  0  0
 16 15  2  0  0  0  0
 17 11  1  0  0  0  0
 18 12  1  0  0  0  0
 20  6  1  0  0  0  0
 21 20  1  0  0  0  0
 21 26  1  0  0  0  0
 22 21  2  0  0  0  0
 23 24  2  0  0  0  0
 23 22  1  0  0  0  0
 24 25  1  0  0  0  0
 25 20  2  0  0  0  0
 27 22  1  0  0  0  0
 28 24  1  0  0  0  0
 29 28  1  0  0  0  0
 29 30  1  0  0  0  0
 31 29  2  0  0  0  0
 32 34  2  0  0  0  0
 32 31  1  0  0  0  0
 33 32  1  0  0  0  0
 34 36  1  0  0  0  0
 35 34  1  0  0  0  0
 36 28  2  0  0  0  0
M  END
>  <minimizedAffinity>
-5.48424053

>  <minimizedRMSD>
0.533666492

$$$$
