
 OpenBabel03212521073D

 36 39  0  0  0  0  0  0  0  0999 V2000
   41.8160   84.2360   61.5650 C   0  0  0  0  0  0  0  0  0  0  0  0
   41.4690   83.9700   62.8850 C   0  0  0  0  0  0  0  0  0  0  0  0
   40.1980   83.5520   63.2460 C   0  0  0  0  0  0  0  0  0  0  0  0
   39.2450   83.3970   62.2460 C   0  0  0  0  0  0  0  0  0  0  0  0
   39.5850   83.6630   60.9180 C   0  0  0  0  0  0  0  0  0  0  0  0
   40.8450   84.0740   60.5820 C   0  0  0  0  0  0  0  0  0  0  0  0
   42.1720   84.0740   63.7070 H   0  0  0  0  0  0  0  0  0  0  0  0
   39.9350   83.3470   64.2770 H   0  0  0  0  0  0  0  0  0  0  0  0
   38.2250   83.0700   62.4610 H   0  0  0  0  0  0  0  0  0  0  0  0
   38.8130   83.5290   60.1720 H   0  0  0  0  0  0  0  0  0  0  0  0
   45.3180   84.1520   60.5450 C   0  0  0  0  0  0  0  0  0  0  0  0
   45.7160   85.4690   60.6770 C   0  0  0  0  0  0  0  0  0  0  0  0
   44.7670   86.4140   61.1270 C   0  0  0  0  0  0  0  0  0  0  0  0
   43.5230   85.9690   61.4010 N   0  0  0  0  0  0  0  0  0  0  0  0
   43.1590   84.6690   61.2610 C   0  0  0  0  0  0  0  0  0  0  0  0
   44.0580   83.7760   60.8360 N   0  0  0  0  0  0  0  0  0  0  0  0
   46.0730   83.4550   60.1970 H   0  0  0  0  0  0  0  0  0  0  0  0
   46.7040   85.8620   60.4680 H   0  0  0  0  0  0  0  0  0  0  0  0
   44.9400   87.4590   61.2730 H   0  0  0  0  0  0  0  0  0  0  0  0
   41.1610   84.3400   59.1960 C   0  0  0  0  0  0  0  0  0  0  0  0
   40.9150   85.6760   58.8580 C   0  0  0  0  0  0  0  0  0  0  0  0
   41.1550   86.1390   57.5640 C   0  0  0  0  0  0  0  0  0  0  0  0
   41.6260   85.2570   56.6800 N   0  0  0  0  0  0  0  0  0  0  0  0
   41.8660   83.9590   57.0030 C   0  0  0  0  0  0  0  0  0  0  0  0
   41.6320   83.5110   58.2580 N   0  0  0  0  0  0  0  0  0  0  0  0
   40.5330   86.4440   59.5330 H   0  0  0  0  0  0  0  0  0  0  0  0
   40.9810   87.1550   57.2630 H   0  0  0  0  0  0  0  0  0  0  0  0
   42.3820   83.0010   56.0180 C   0  0  0  0  0  0  0  0  0  0  0  0
   41.5610   81.9220   55.6740 C   0  0  0  0  0  0  0  0  0  0  0  0
   40.5880   81.8100   56.1220 H   0  0  0  0  0  0  0  0  0  0  0  0
   42.0830   81.0420   54.7430 C   0  0  0  0  0  3  0  0  0  0  0  0
   43.3300   81.1990   54.1780 C   0  0  0  0  0  0  0  0  0  0  0  0
   43.6810   80.4780   53.4570 H   0  0  0  0  0  0  0  0  0  0  0  0
   44.1180   82.2750   54.5380 C   0  0  0  0  0  0  0  0  0  0  0  0
   45.0830   82.3400   54.0590 H   0  0  0  0  0  0  0  0  0  0  0  0
   43.6280   83.1520   55.4500 C   0  0  0  0  0  3  0  0  0  0  0  0
  1  2  1  0  0  0  0
  2  3  2  0  0  0  0
  2  7  1  0  0  0  0
  3  8  1  0  0  0  0
  4  9  1  0  0  0  0
  4  3  1  0  0  0  0
  5  4  2  0  0  0  0
  6  5  1  0  0  0  0
  6  1  2  0  0  0  0
 10  5  1  0  0  0  0
 11 12  2  0  0  0  0
 11 16  1  0  0  0  0
 12 13  1  0  0  0  0
 13 19  1  0  0  0  0
 13 14  2  0  0  0  0
 15 14  1  0  0  0  0
 15  1  1  0  0  0  0
 16 15  2  0  0  0  0
 17 11  1  0  0  0  0
 18 12  1  0  0  0  0
 20  6  1  0  0  0  0
 21 20  1  0  0  0  0
 21 26  1  0  0  0  0
 22 21  2  0  0  0  0
 23 24  2  0  0  0  0
 23 22  1  0  0  0  0
 24 25  1  0  0  0  0
 25 20  2  0  0  0  0
 27 22  1  0  0  0  0
 28 24  1  0  0  0  0
 29 28  1  0  0  0  0
 29 30  1  0  0  0  0
 31 29  2  0  0  0  0
 32 34  2  0  0  0  0
 32 31  1  0  0  0  0
 33 32  1  0  0  0  0
 34 36  1  0  0  0  0
 35 34  1  0  0  0  0
 36 28  2  0  0  0  0
M  END
>  <minimizedAffinity>
-5.50228739

>  <minimizedRMSD>
0.467341423

$$$$
