
 OpenBabel03212520463D

 20 21  0  0  0  0  0  0  0  0999 V2000
   37.9440   75.0270   54.5190 C   0  0  0  0  0  0  0  0  0  0  0  0
   37.0460   76.0240   54.1230 C   0  0  0  0  0  0  0  0  0  0  0  0
   36.5610   76.8820   55.1300 C   0  0  0  0  0  0  0  0  0  0  0  0
   36.9900   76.6880   56.3940 N   0  0  0  0  0  0  0  0  0  0  0  0
   37.8620   75.7080   56.7290 C   0  0  0  0  0  0  0  0  0  0  0  0
   38.3320   74.8820   55.7810 N   0  0  0  0  0  0  0  0  0  0  0  0
   38.3430   74.2420   53.3880 N   0  0  0  0  0  0  0  0  0  0  0  0
   36.6730   76.2240   53.1390 H   0  0  0  0  0  0  0  0  0  0  0  0
   35.8550   77.6910   54.9130 H   0  0  0  0  0  0  0  0  0  0  0  0
   37.7680   73.3650   53.5070 H   0  0  0  0  0  0  0  0  0  0  0  0
   38.9880   74.3640   52.6020 H   0  0  0  0  0  0  0  0  0  0  0  0
   38.3000   75.5300   58.0960 C   0  0  0  0  0  0  0  0  0  0  0  0
   39.0520   76.5360   58.7080 C   0  0  0  0  0  0  0  0  0  0  0  0
   39.2740   77.4180   58.1150 H   0  0  0  0  0  0  0  0  0  0  0  0
   39.5080   76.4350   60.0230 C   0  0  0  0  0  3  0  0  0  0  0  0
   39.2110   75.2990   60.7580 C   0  0  0  0  0  0  0  0  0  0  0  0
   39.5800   75.2690   61.7540 H   0  0  0  0  0  0  0  0  0  0  0  0
   38.4600   74.2840   60.1640 C   0  0  0  0  0  0  0  0  0  0  0  0
   38.2370   73.4070   60.7530 H   0  0  0  0  0  0  0  0  0  0  0  0
   38.0080   74.3950   58.8470 C   0  0  0  0  0  3  0  0  0  0  0  0
  1  6  1  0  0  0  0
  2  1  2  0  0  0  0
  2  3  1  0  0  0  0
  3  4  2  0  0  0  0
  4  5  1  0  0  0  0
  5 12  1  0  0  0  0
  6  5  2  0  0  0  0
  7 10  1  0  0  0  0
  7  1  1  0  0  0  0
  8  2  1  0  0  0  0
  9  3  1  0  0  0  0
 11  7  1  0  0  0  0
 12 13  2  0  0  0  0
 12 20  1  0  0  0  0
 13 15  1  0  0  0  0
 14 13  1  0  0  0  0
 15 16  2  0  0  0  0
 16 17  1  0  0  0  0
 18 19  1  0  0  0  0
 18 16  1  0  0  0  0
 20 18  2  0  0  0  0
M  END
>  <minimizedAffinity>
-4.90252781

$$$$

 OpenBabel03212520463D

 20 21  0  0  0  0  0  0  0  0999 V2000
   37.9740   75.0330   54.5550 C   0  0  0  0  0  0  0  0  0  0  0  0
   37.0830   76.0280   54.1360 C   0  0  0  0  0  0  0  0  0  0  0  0
   36.6150   76.9200   55.1220 C   0  0  0  0  0  0  0  0  0  0  0  0
   37.0520   76.7580   56.3870 N   0  0  0  0  0  0  0  0  0  0  0  0
   37.9170   75.7790   56.7440 C   0  0  0  0  0  0  0  0  0  0  0  0
   38.3710   74.9210   55.8170 N   0  0  0  0  0  0  0  0  0  0  0  0
   38.3550   74.2120   53.4440 N   0  0  0  0  0  0  0  0  0  0  0  0
   36.7040   76.2020   53.1490 H   0  0  0  0  0  0  0  0  0  0  0  0
   35.9150   77.7290   54.8860 H   0  0  0  0  0  0  0  0  0  0  0  0
   37.7720   73.3450   53.5930 H   0  0  0  0  0  0  0  0  0  0  0  0
   38.9960   74.3040   52.6500 H   0  0  0  0  0  0  0  0  0  0  0  0
   38.3630   75.6370   58.1130 C   0  0  0  0  0  0  0  0  0  0  0  0
   38.0300   74.4800   58.8230 C   0  0  0  0  0  0  0  0  0  0  0  0
   37.4430   73.7310   58.3000 H   0  0  0  0  0  0  0  0  0  0  0  0
   38.4260   74.2740   60.1440 C   0  0  0  0  0  3  0  0  0  0  0  0
   39.1750   75.2450   60.7880 C   0  0  0  0  0  0  0  0  0  0  0  0
   39.4520   75.0410   61.7930 H   0  0  0  0  0  0  0  0  0  0  0  0
   39.5160   76.4070   60.0950 C   0  0  0  0  0  0  0  0  0  0  0  0
   40.1010   77.1530   60.6120 H   0  0  0  0  0  0  0  0  0  0  0  0
   39.1160   76.6040   58.7710 C   0  0  0  0  0  3  0  0  0  0  0  0
  1  6  1  0  0  0  0
  2  1  2  0  0  0  0
  2  3  1  0  0  0  0
  3  4  2  0  0  0  0
  4  5  1  0  0  0  0
  5 12  1  0  0  0  0
  6  5  2  0  0  0  0
  7 10  1  0  0  0  0
  7  1  1  0  0  0  0
  8  2  1  0  0  0  0
  9  3  1  0  0  0  0
 11  7  1  0  0  0  0
 12 20  2  0  0  0  0
 12 13  1  0  0  0  0
 13 15  2  0  0  0  0
 14 13  1  0  0  0  0
 15 16  1  0  0  0  0
 16 17  1  0  0  0  0
 18 19  1  0  0  0  0
 18 16  2  0  0  0  0
 20 18  1  0  0  0  0
M  END
>  <minimizedAffinity>
-4.87155437

$$$$

 OpenBabel03212520463D

 20 21  0  0  0  0  0  0  0  0999 V2000
   37.9910   74.1370   57.8330 C   0  0  0  0  0  0  0  0  0  0  0  0
   37.9300   75.5240   57.6560 C   0  0  0  0  0  0  0  0  0  0  0  0
   38.8200   76.3040   58.4220 C   0  0  0  0  0  0  0  0  0  0  0  0
   39.6620   75.6690   59.2630 N   0  0  0  0  0  0  0  0  0  0  0  0
   39.6840   74.3210   59.3990 C   0  0  0  0  0  0  0  0  0  0  0  0
   38.8420   73.5650   58.6780 N   0  0  0  0  0  0  0  0  0  0  0  0
   37.0300   73.4890   56.9900 N   0  0  0  0  0  0  0  0  0  0  0  0
   37.2860   76.0790   57.0060 H   0  0  0  0  0  0  0  0  0  0  0  0
   38.8440   77.3960   58.3490 H   0  0  0  0  0  0  0  0  0  0  0  0
   36.2580   73.2490   57.6690 H   0  0  0  0  0  0  0  0  0  0  0  0
   36.9680   73.2530   55.9950 H   0  0  0  0  0  0  0  0  0  0  0  0
   40.6010   73.6760   60.3130 C   0  0  0  0  0  0  0  0  0  0  0  0
   41.9750   73.7400   60.0590 C   0  0  0  0  0  0  0  0  0  0  0  0
   42.2890   74.2810   59.1730 H   0  0  0  0  0  0  0  0  0  0  0  0
   42.9180   73.1420   60.8950 C   0  0  0  0  0  3  0  0  0  0  0  0
   42.4890   72.4570   62.0210 C   0  0  0  0  0  0  0  0  0  0  0  0
   43.2460   72.0190   62.6260 H   0  0  0  0  0  0  0  0  0  0  0  0
   41.1230   72.3830   62.2900 C   0  0  0  0  0  0  0  0  0  0  0  0
   40.8070   71.8450   63.1720 H   0  0  0  0  0  0  0  0  0  0  0  0
   40.1860   72.9850   61.4470 C   0  0  0  0  0  3  0  0  0  0  0  0
  1  6  1  0  0  0  0
  2  1  2  0  0  0  0
  2  3  1  0  0  0  0
  3  4  2  0  0  0  0
  4  5  1  0  0  0  0
  5 12  1  0  0  0  0
  6  5  2  0  0  0  0
  7 10  1  0  0  0  0
  7  1  1  0  0  0  0
  8  2  1  0  0  0  0
  9  3  1  0  0  0  0
 11  7  1  0  0  0  0
 12 20  1  0  0  0  0
 13 12  2  0  0  0  0
 13 15  1  0  0  0  0
 14 13  1  0  0  0  0
 15 16  2  0  0  0  0
 16 18  1  0  0  0  0
 16 17  1  0  0  0  0
 18 19  1  0  0  0  0
 20 18  2  0  0  0  0
M  END
>  <minimizedAffinity>
-4.66437054

$$$$

 OpenBabel03212520463D

 20 21  0  0  0  0  0  0  0  0999 V2000
   39.7380   74.8740   61.0680 C   0  0  0  0  0  0  0  0  0  0  0  0
   40.3590   75.6290   60.0660 C   0  0  0  0  0  0  0  0  0  0  0  0
   41.5670   75.1240   59.5430 C   0  0  0  0  0  0  0  0  0  0  0  0
   42.0380   73.9610   60.0370 N   0  0  0  0  0  0  0  0  0  0  0  0
   41.4000   73.2650   61.0080 C   0  0  0  0  0  0  0  0  0  0  0  0
   40.2490   73.7330   61.5160 N   0  0  0  0  0  0  0  0  0  0  0  0
   38.5290   75.5160   61.4930 N   0  0  0  0  0  0  0  0  0  0  0  0
   40.0320   76.5550   59.6380 H   0  0  0  0  0  0  0  0  0  0  0  0
   42.1220   75.6470   58.7570 H   0  0  0  0  0  0  0  0  0  0  0  0
   38.8170   75.9570   62.4080 H   0  0  0  0  0  0  0  0  0  0  0  0
   37.5800   75.6100   61.1210 H   0  0  0  0  0  0  0  0  0  0  0  0
   41.9360   72.0200   61.5120 C   0  0  0  0  0  0  0  0  0  0  0  0
   42.8060   71.2770   60.7100 C   0  0  0  0  0  0  0  0  0  0  0  0
   43.0410   71.6790   59.7300 H   0  0  0  0  0  0  0  0  0  0  0  0
   43.3620   70.0680   61.1290 C   0  0  0  0  0  3  0  0  0  0  0  0
   43.0470   69.5760   62.3860 C   0  0  0  0  0  0  0  0  0  0  0  0
   43.4960   68.6530   62.6590 H   0  0  0  0  0  0  0  0  0  0  0  0
   42.1810   70.3050   63.2010 C   0  0  0  0  0  0  0  0  0  0  0  0
   41.9470   69.9060   64.1770 H   0  0  0  0  0  0  0  0  0  0  0  0
   41.6290   71.5140   62.7720 C   0  0  0  0  0  3  0  0  0  0  0  0
  1  7  1  0  0  0  0
  1  6  1  0  0  0  0
  2  1  2  0  0  0  0
  3  4  2  0  0  0  0
  3  2  1  0  0  0  0
  4  5  1  0  0  0  0
  5 12  1  0  0  0  0
  5  6  2  0  0  0  0
  7 10  1  0  0  0  0
  8  2  1  0  0  0  0
  9  3  1  0  0  0  0
 11  7  1  0  0  0  0
 12 20  1  0  0  0  0
 13 15  1  0  0  0  0
 13 12  2  0  0  0  0
 14 13  1  0  0  0  0
 15 16  2  0  0  0  0
 16 17  1  0  0  0  0
 16 18  1  0  0  0  0
 18 19  1  0  0  0  0
 20 18  2  0  0  0  0
M  END
>  <minimizedAffinity>
-4.64843702

$$$$

 OpenBabel03212520463D

 20 21  0  0  0  0  0  0  0  0999 V2000
   42.9690   70.5930   61.1670 C   0  0  0  0  0  0  0  0  0  0  0  0
   42.7630   70.0530   62.4420 C   0  0  0  0  0  0  0  0  0  0  0  0
   41.8020   70.6860   63.2540 C   0  0  0  0  0  0  0  0  0  0  0  0
   41.1510   71.7570   62.7560 N   0  0  0  0  0  0  0  0  0  0  0  0
   41.3840   72.2430   61.5130 C   0  0  0  0  0  0  0  0  0  0  0  0
   42.2970   71.6520   60.7270 N   0  0  0  0  0  0  0  0  0  0  0  0
   43.9700   69.8430   60.4680 N   0  0  0  0  0  0  0  0  0  0  0  0
   43.2490   69.2090   62.8870 H   0  0  0  0  0  0  0  0  0  0  0  0
   41.5750   70.3330   64.2660 H   0  0  0  0  0  0  0  0  0  0  0  0
   44.8180   70.4670   60.5500 H   0  0  0  0  0  0  0  0  0  0  0  0
   44.0050   68.9450   59.9770 H   0  0  0  0  0  0  0  0  0  0  0  0
   40.6650   73.3940   61.0130 C   0  0  0  0  0  0  0  0  0  0  0  0
   39.3060   73.5320   61.3090 C   0  0  0  0  0  0  0  0  0  0  0  0
   38.8500   72.7540   61.9120 H   0  0  0  0  0  0  0  0  0  0  0  0
   38.5500   74.6150   60.8610 C   0  0  0  0  0  3  0  0  0  0  0  0
   39.1560   75.5960   60.0930 C   0  0  0  0  0  0  0  0  0  0  0  0
   38.5380   76.4000   59.7760 H   0  0  0  0  0  0  0  0  0  0  0  0
   40.5120   75.4740   59.7870 C   0  0  0  0  0  0  0  0  0  0  0  0
   40.9680   76.2480   59.1880 H   0  0  0  0  0  0  0  0  0  0  0  0
   41.2620   74.3860   60.2410 C   0  0  0  0  0  3  0  0  0  0  0  0
  1  2  1  0  0  0  0
  2  8  1  0  0  0  0
  2  3  2  0  0  0  0
  3  9  1  0  0  0  0
  4  3  1  0  0  0  0
  5  4  2  0  0  0  0
  6  1  2  0  0  0  0
  6  5  1  0  0  0  0
  7 10  1  0  0  0  0
  7  1  1  0  0  0  0
 11  7  1  0  0  0  0
 12 13  1  0  0  0  0
 12  5  1  0  0  0  0
 13 14  1  0  0  0  0
 15 13  2  0  0  0  0
 16 15  1  0  0  0  0
 17 16  1  0  0  0  0
 18 16  2  0  0  0  0
 18 20  1  0  0  0  0
 19 18  1  0  0  0  0
 20 12  2  0  0  0  0
M  END
>  <minimizedAffinity>
-4.34296179

$$$$

 OpenBabel03212520463D

 20 21  0  0  0  0  0  0  0  0999 V2000
   41.0910   76.1520   59.3530 C   0  0  0  0  0  0  0  0  0  0  0  0
   39.8600   76.5950   59.8520 C   0  0  0  0  0  0  0  0  0  0  0  0
   39.2250   75.7710   60.8030 C   0  0  0  0  0  0  0  0  0  0  0  0
   39.8380   74.6260   61.1660 N   0  0  0  0  0  0  0  0  0  0  0  0
   41.0320   74.2400   60.6550 C   0  0  0  0  0  0  0  0  0  0  0  0
   41.6490   75.0130   59.7470 N   0  0  0  0  0  0  0  0  0  0  0  0
   41.6050   77.0930   58.4010 N   0  0  0  0  0  0  0  0  0  0  0  0
   39.3290   77.4900   59.6010 H   0  0  0  0  0  0  0  0  0  0  0  0
   38.2600   76.0370   61.2470 H   0  0  0  0  0  0  0  0  0  0  0  0
   41.3930   76.6220   57.4810 H   0  0  0  0  0  0  0  0  0  0  0  0
   42.0720   78.0030   58.4490 H   0  0  0  0  0  0  0  0  0  0  0  0
   41.6590   73.0050   61.0690 C   0  0  0  0  0  0  0  0  0  0  0  0
   41.3070   72.4390   62.2980 C   0  0  0  0  0  0  0  0  0  0  0  0
   40.5660   72.9650   62.8900 H   0  0  0  0  0  0  0  0  0  0  0  0
   41.8700   71.2500   62.7620 C   0  0  0  0  0  3  0  0  0  0  0  0
   42.8140   70.5970   61.9860 C   0  0  0  0  0  0  0  0  0  0  0  0
   43.2130   69.6960   62.3820 H   0  0  0  0  0  0  0  0  0  0  0  0
   43.1780   71.1470   60.7560 C   0  0  0  0  0  0  0  0  0  0  0  0
   43.9140   70.6250   60.1640 H   0  0  0  0  0  0  0  0  0  0  0  0
   42.6080   72.3380   60.3000 C   0  0  0  0  0  3  0  0  0  0  0  0
  1  6  2  0  0  0  0
  1  2  1  0  0  0  0
  2  3  2  0  0  0  0
  3  4  1  0  0  0  0
  3  9  1  0  0  0  0
  5 12  1  0  0  0  0
  5  4  2  0  0  0  0
  6  5  1  0  0  0  0
  7 11  1  0  0  0  0
  7  1  1  0  0  0  0
  8  2  1  0  0  0  0
 10  7  1  0  0  0  0
 12 13  1  0  0  0  0
 13 15  2  0  0  0  0
 13 14  1  0  0  0  0
 16 17  1  0  0  0  0
 16 15  1  0  0  0  0
 18 16  2  0  0  0  0
 19 18  1  0  0  0  0
 20 18  1  0  0  0  0
 20 12  2  0  0  0  0
M  END
>  <minimizedAffinity>
-4.2884984

$$$$

 OpenBabel03212520463D

 20 21  0  0  0  0  0  0  0  0999 V2000
   41.6790   71.2170   62.3960 C   0  0  0  0  0  0  0  0  0  0  0  0
   42.7630   70.6810   61.6900 C   0  0  0  0  0  0  0  0  0  0  0  0
   43.2280   71.4170   60.5820 C   0  0  0  0  0  0  0  0  0  0  0  0
   42.6070   72.5740   60.2790 N   0  0  0  0  0  0  0  0  0  0  0  0
   41.5600   73.0540   60.9940 C   0  0  0  0  0  0  0  0  0  0  0  0
   41.1050   72.3640   62.0510 N   0  0  0  0  0  0  0  0  0  0  0  0
   41.3270   70.3570   63.4870 N   0  0  0  0  0  0  0  0  0  0  0  0
   43.2930   69.7700   61.8850 H   0  0  0  0  0  0  0  0  0  0  0  0
   44.0700   71.0750   59.9710 H   0  0  0  0  0  0  0  0  0  0  0  0
   40.4690   69.8640   63.1190 H   0  0  0  0  0  0  0  0  0  0  0  0
   41.7030   70.1640   64.4200 H   0  0  0  0  0  0  0  0  0  0  0  0
   40.9190   74.3000   60.6380 C   0  0  0  0  0  0  0  0  0  0  0  0
   41.5340   75.1430   59.7080 C   0  0  0  0  0  0  0  0  0  0  0  0
   42.4790   74.8130   59.2910 H   0  0  0  0  0  0  0  0  0  0  0  0
   40.9740   76.3600   59.3170 C   0  0  0  0  0  3  0  0  0  0  0  0
   39.7660   76.7580   59.8640 C   0  0  0  0  0  0  0  0  0  0  0  0
   39.3800   77.6920   59.5350 H   0  0  0  0  0  0  0  0  0  0  0  0
   39.1370   75.9290   60.7950 C   0  0  0  0  0  0  0  0  0  0  0  0
   38.1950   76.2560   61.2110 H   0  0  0  0  0  0  0  0  0  0  0  0
   39.7050   74.7120   61.1800 C   0  0  0  0  0  3  0  0  0  0  0  0
  1  7  1  0  0  0  0
  2  8  1  0  0  0  0
  2  1  2  0  0  0  0
  3  2  1  0  0  0  0
  4  3  2  0  0  0  0
  4  5  1  0  0  0  0
  5  6  2  0  0  0  0
  6  1  1  0  0  0  0
  7 11  1  0  0  0  0
  9  3  1  0  0  0  0
 10  7  1  0  0  0  0
 12  5  1  0  0  0  0
 12 20  1  0  0  0  0
 13 12  2  0  0  0  0
 14 13  1  0  0  0  0
 15 13  1  0  0  0  0
 15 16  2  0  0  0  0
 16 18  1  0  0  0  0
 17 16  1  0  0  0  0
 18 20  2  0  0  0  0
 18 19  1  0  0  0  0
M  END
>  <minimizedAffinity>
-4.2412467

$$$$

 OpenBabel03212520463D

 20 21  0  0  0  0  0  0  0  0999 V2000
   40.4650   75.2970   60.0210 C   0  0  0  0  0  0  0  0  0  0  0  0
   39.1150   75.4660   60.3490 C   0  0  0  0  0  0  0  0  0  0  0  0
   38.5050   74.4320   61.0880 C   0  0  0  0  0  0  0  0  0  0  0  0
   39.2530   73.3630   61.4260 N   0  0  0  0  0  0  0  0  0  0  0  0
   40.5590   73.2450   61.0860 C   0  0  0  0  0  0  0  0  0  0  0  0
   41.1540   74.2200   60.3810 N   0  0  0  0  0  0  0  0  0  0  0  0
   40.9370   76.4260   59.2740 N   0  0  0  0  0  0  0  0  0  0  0  0
   38.4750   76.2900   60.1090 H   0  0  0  0  0  0  0  0  0  0  0  0
   37.4530   74.4780   61.3900 H   0  0  0  0  0  0  0  0  0  0  0  0
   40.9500   76.0540   58.2860 H   0  0  0  0  0  0  0  0  0  0  0  0
   41.2190   77.3850   59.4950 H   0  0  0  0  0  0  0  0  0  0  0  0
   41.3300   72.0820   61.4660 C   0  0  0  0  0  0  0  0  0  0  0  0
   41.9500   71.3190   60.4730 C   0  0  0  0  0  0  0  0  0  0  0  0
   41.8200   71.6440   59.4460 H   0  0  0  0  0  0  0  0  0  0  0  0
   42.7090   70.1850   60.7650 C   0  0  0  0  0  3  0  0  0  0  0  0
   42.8600   69.7910   62.0850 C   0  0  0  0  0  0  0  0  0  0  0  0
   43.4470   68.9220   62.2560 H   0  0  0  0  0  0  0  0  0  0  0  0
   42.2480   70.5410   63.0900 C   0  0  0  0  0  0  0  0  0  0  0  0
   42.3770   70.2190   64.1130 H   0  0  0  0  0  0  0  0  0  0  0  0
   41.4900   71.6750   62.7870 C   0  0  0  0  0  3  0  0  0  0  0  0
  1  2  2  0  0  0  0
  1  6  1  0  0  0  0
  2  3  1  0  0  0  0
  3  9  1  0  0  0  0
  3  4  2  0  0  0  0
  5  4  1  0  0  0  0
  5 12  1  0  0  0  0
  6  5  2  0  0  0  0
  7 11  1  0  0  0  0
  7  1  1  0  0  0  0
  8  2  1  0  0  0  0
 10  7  1  0  0  0  0
 12 20  1  0  0  0  0
 13 15  1  0  0  0  0
 13 12  2  0  0  0  0
 14 13  1  0  0  0  0
 15 16  2  0  0  0  0
 16 17  1  0  0  0  0
 16 18  1  0  0  0  0
 18 19  1  0  0  0  0
 20 18  2  0  0  0  0
M  END
>  <minimizedAffinity>
-4.21587133

$$$$

 OpenBabel03212520463D

 20 21  0  0  0  0  0  0  0  0999 V2000
   40.0860   73.5200   59.9350 C   0  0  0  0  0  0  0  0  0  0  0  0
   40.2340   74.2560   61.1160 C   0  0  0  0  0  0  0  0  0  0  0  0
   39.6770   75.5510   61.1340 C   0  0  0  0  0  0  0  0  0  0  0  0
   39.0470   75.9890   60.0260 N   0  0  0  0  0  0  0  0  0  0  0  0
   38.9280   75.2380   58.9050 C   0  0  0  0  0  0  0  0  0  0  0  0
   39.4530   74.0030   58.8720 N   0  0  0  0  0  0  0  0  0  0  0  0
   40.7010   72.2330   60.0750 N   0  0  0  0  0  0  0  0  0  0  0  0
   40.7220   73.9600   62.0220 H   0  0  0  0  0  0  0  0  0  0  0  0
   39.7450   76.1990   62.0140 H   0  0  0  0  0  0  0  0  0  0  0  0
   41.6040   72.3550   59.5420 H   0  0  0  0  0  0  0  0  0  0  0  0
   40.4570   71.3500   60.5320 H   0  0  0  0  0  0  0  0  0  0  0  0
   38.2440   75.7420   57.7340 C   0  0  0  0  0  0  0  0  0  0  0  0
   37.3410   74.9140   57.0610 C   0  0  0  0  0  0  0  0  0  0  0  0
   37.1960   73.9150   57.4600 H   0  0  0  0  0  0  0  0  0  0  0  0
   36.6450   75.3320   55.9270 C   0  0  0  0  0  3  0  0  0  0  0  0
   36.8490   76.6130   55.4400 C   0  0  0  0  0  0  0  0  0  0  0  0
   36.2960   76.8840   54.5740 H   0  0  0  0  0  0  0  0  0  0  0  0
   37.7460   77.4530   56.0980 C   0  0  0  0  0  0  0  0  0  0  0  0
   37.8920   78.4490   55.7040 H   0  0  0  0  0  0  0  0  0  0  0  0
   38.4380   77.0260   57.2340 C   0  0  0  0  0  3  0  0  0  0  0  0
  1  7  1  0  0  0  0
  1  2  1  0  0  0  0
  2  3  2  0  0  0  0
  2  8  1  0  0  0  0
  3  9  1  0  0  0  0
  4  3  1  0  0  0  0
  5  4  2  0  0  0  0
  6  5  1  0  0  0  0
  6  1  2  0  0  0  0
  7 11  1  0  0  0  0
 10  7  1  0  0  0  0
 12  5  1  0  0  0  0
 13 14  1  0  0  0  0
 13 12  2  0  0  0  0
 15 13  1  0  0  0  0
 16 15  2  0  0  0  0
 16 18  1  0  0  0  0
 17 16  1  0  0  0  0
 18 20  2  0  0  0  0
 19 18  1  0  0  0  0
 20 12  1  0  0  0  0
M  END
>  <minimizedAffinity>
-4.17501307

$$$$
