
 OpenBabel03212521073D

 36 39  0  0  0  0  0  0  0  0999 V2000
   41.8080   84.2410   61.5500 C   0  0  0  0  0  0  0  0  0  0  0  0
   41.4690   83.9370   62.8640 C   0  0  0  0  0  0  0  0  0  0  0  0
   40.1990   83.5150   63.2210 C   0  0  0  0  0  0  0  0  0  0  0  0
   39.2380   83.3950   62.2240 C   0  0  0  0  0  0  0  0  0  0  0  0
   39.5700   83.7000   60.9010 C   0  0  0  0  0  0  0  0  0  0  0  0
   40.8300   84.1140   60.5700 C   0  0  0  0  0  0  0  0  0  0  0  0
   42.1790   84.0120   63.6830 H   0  0  0  0  0  0  0  0  0  0  0  0
   39.9420   83.2800   64.2470 H   0  0  0  0  0  0  0  0  0  0  0  0
   38.2170   83.0690   62.4360 H   0  0  0  0  0  0  0  0  0  0  0  0
   38.7920   83.5930   60.1580 H   0  0  0  0  0  0  0  0  0  0  0  0
   45.3180   84.1570   60.5560 C   0  0  0  0  0  0  0  0  0  0  0  0
   45.7090   85.4770   60.6730 C   0  0  0  0  0  0  0  0  0  0  0  0
   44.7540   86.4240   61.1030 C   0  0  0  0  0  0  0  0  0  0  0  0
   43.5100   85.9780   61.3740 N   0  0  0  0  0  0  0  0  0  0  0  0
   43.1520   84.6750   61.2490 C   0  0  0  0  0  0  0  0  0  0  0  0
   44.0570   83.7800   60.8430 N   0  0  0  0  0  0  0  0  0  0  0  0
   46.0780   83.4580   60.2220 H   0  0  0  0  0  0  0  0  0  0  0  0
   46.6980   85.8710   60.4650 H   0  0  0  0  0  0  0  0  0  0  0  0
   44.9220   87.4710   61.2360 H   0  0  0  0  0  0  0  0  0  0  0  0
   41.1380   84.4190   59.1900 C   0  0  0  0  0  0  0  0  0  0  0  0
   40.7950   85.7380   58.8650 C   0  0  0  0  0  0  0  0  0  0  0  0
   41.0110   86.2330   57.5790 C   0  0  0  0  0  0  0  0  0  0  0  0
   41.5550   85.4000   56.6890 N   0  0  0  0  0  0  0  0  0  0  0  0
   41.8900   84.1200   57.0000 C   0  0  0  0  0  0  0  0  0  0  0  0
   41.6780   83.6400   58.2480 N   0  0  0  0  0  0  0  0  0  0  0  0
   40.3490   86.4660   59.5450 H   0  0  0  0  0  0  0  0  0  0  0  0
   40.7630   87.2360   57.2880 H   0  0  0  0  0  0  0  0  0  0  0  0
   42.4860   83.2160   56.0100 C   0  0  0  0  0  0  0  0  0  0  0  0
   42.6180   83.6890   54.7000 C   0  0  0  0  0  0  0  0  0  0  0  0
   42.2890   84.6820   54.4410 H   0  0  0  0  0  0  0  0  0  0  0  0
   43.1840   82.8090   53.7960 C   0  0  0  0  0  3  0  0  0  0  0  0
   43.6000   81.5400   54.1420 C   0  0  0  0  0  0  0  0  0  0  0  0
   44.0340   80.9010   53.3910 H   0  0  0  0  0  0  0  0  0  0  0  0
   43.4560   81.1010   55.4440 C   0  0  0  0  0  0  0  0  0  0  0  0
   43.8010   80.0990   55.6490 H   0  0  0  0  0  0  0  0  0  0  0  0
   42.9030   81.9480   56.3490 C   0  0  0  0  0  3  0  0  0  0  0  0
  1  2  1  0  0  0  0
  2  3  2  0  0  0  0
  2  7  1  0  0  0  0
  3  8  1  0  0  0  0
  4  9  1  0  0  0  0
  4  3  1  0  0  0  0
  5  4  2  0  0  0  0
  6  5  1  0  0  0  0
  6  1  2  0  0  0  0
 10  5  1  0  0  0  0
 11 12  2  0  0  0  0
 11 16  1  0  0  0  0
 12 13  1  0  0  0  0
 13 19  1  0  0  0  0
 13 14  2  0  0  0  0
 15 14  1  0  0  0  0
 15  1  1  0  0  0  0
 16 15  2  0  0  0  0
 17 11  1  0  0  0  0
 18 12  1  0  0  0  0
 20  6  1  0  0  0  0
 21 20  1  0  0  0  0
 21 26  1  0  0  0  0
 22 21  2  0  0  0  0
 23 24  2  0  0  0  0
 23 22  1  0  0  0  0
 24 25  1  0  0  0  0
 25 20  2  0  0  0  0
 27 22  1  0  0  0  0
 28 36  1  0  0  0  0
 28 24  1  0  0  0  0
 29 28  2  0  0  0  0
 30 29  1  0  0  0  0
 31 32  2  0  0  0  0
 31 29  1  0  0  0  0
 32 34  1  0  0  0  0
 33 32  1  0  0  0  0
 34 35  1  0  0  0  0
 34 36  2  0  0  0  0
M  END
>  <minimizedAffinity>
-5.4238553

>  <minimizedRMSD>
0.446033388

$$$$
