
 OpenBabel03212521073D

 36 39  0  0  0  0  0  0  0  0999 V2000
   41.8100   84.2390   61.5460 C   0  0  0  0  0  0  0  0  0  0  0  0
   41.4710   83.9360   62.8600 C   0  0  0  0  0  0  0  0  0  0  0  0
   40.2010   83.5140   63.2180 C   0  0  0  0  0  0  0  0  0  0  0  0
   39.2400   83.3920   62.2210 C   0  0  0  0  0  0  0  0  0  0  0  0
   39.5710   83.6950   60.8980 C   0  0  0  0  0  0  0  0  0  0  0  0
   40.8310   84.1100   60.5660 C   0  0  0  0  0  0  0  0  0  0  0  0
   42.1810   84.0130   63.6790 H   0  0  0  0  0  0  0  0  0  0  0  0
   39.9440   83.2800   64.2440 H   0  0  0  0  0  0  0  0  0  0  0  0
   38.2200   83.0650   62.4340 H   0  0  0  0  0  0  0  0  0  0  0  0
   38.7940   83.5870   60.1550 H   0  0  0  0  0  0  0  0  0  0  0  0
   45.3170   84.1580   60.5420 C   0  0  0  0  0  0  0  0  0  0  0  0
   45.7090   85.4770   60.6660 C   0  0  0  0  0  0  0  0  0  0  0  0
   44.7560   86.4220   61.1050 C   0  0  0  0  0  0  0  0  0  0  0  0
   43.5120   85.9760   61.3760 N   0  0  0  0  0  0  0  0  0  0  0  0
   43.1530   84.6730   61.2440 C   0  0  0  0  0  0  0  0  0  0  0  0
   44.0560   83.7810   60.8300 N   0  0  0  0  0  0  0  0  0  0  0  0
   46.0760   83.4610   60.2030 H   0  0  0  0  0  0  0  0  0  0  0  0
   46.6980   85.8720   60.4580 H   0  0  0  0  0  0  0  0  0  0  0  0
   44.9250   87.4690   61.2440 H   0  0  0  0  0  0  0  0  0  0  0  0
   41.1390   84.4140   59.1860 C   0  0  0  0  0  0  0  0  0  0  0  0
   40.8080   85.7360   58.8630 C   0  0  0  0  0  0  0  0  0  0  0  0
   41.0260   86.2310   57.5770 C   0  0  0  0  0  0  0  0  0  0  0  0
   41.5590   85.3930   56.6850 N   0  0  0  0  0  0  0  0  0  0  0  0
   41.8820   84.1090   56.9930 C   0  0  0  0  0  0  0  0  0  0  0  0
   41.6690   83.6300   58.2410 N   0  0  0  0  0  0  0  0  0  0  0  0
   40.3710   86.4680   59.5450 H   0  0  0  0  0  0  0  0  0  0  0  0
   40.7870   87.2370   57.2880 H   0  0  0  0  0  0  0  0  0  0  0  0
   42.4670   83.2010   56.0010 C   0  0  0  0  0  0  0  0  0  0  0  0
   42.9030   81.9500   56.4470 C   0  0  0  0  0  0  0  0  0  0  0  0
   42.8080   81.6750   57.4850 H   0  0  0  0  0  0  0  0  0  0  0  0
   43.4480   81.1220   55.4820 C   0  0  0  0  0  3  0  0  0  0  0  0
   43.5640   81.4870   54.1570 C   0  0  0  0  0  0  0  0  0  0  0  0
   43.9980   80.7970   53.4530 H   0  0  0  0  0  0  0  0  0  0  0  0
   43.1230   82.7310   53.7470 C   0  0  0  0  0  0  0  0  0  0  0  0
   43.2430   82.9540   52.6970 H   0  0  0  0  0  0  0  0  0  0  0  0
   42.5840   83.5600   54.6760 C   0  0  0  0  0  3  0  0  0  0  0  0
  1  2  1  0  0  0  0
  2  3  2  0  0  0  0
  2  7  1  0  0  0  0
  3  8  1  0  0  0  0
  4  9  1  0  0  0  0
  4  3  1  0  0  0  0
  5  4  2  0  0  0  0
  6  5  1  0  0  0  0
  6  1  2  0  0  0  0
 10  5  1  0  0  0  0
 11 12  2  0  0  0  0
 11 16  1  0  0  0  0
 12 13  1  0  0  0  0
 13 19  1  0  0  0  0
 13 14  2  0  0  0  0
 15 14  1  0  0  0  0
 15  1  1  0  0  0  0
 16 15  2  0  0  0  0
 17 11  1  0  0  0  0
 18 12  1  0  0  0  0
 20  6  1  0  0  0  0
 21 20  1  0  0  0  0
 21 26  1  0  0  0  0
 22 21  2  0  0  0  0
 23 24  2  0  0  0  0
 23 22  1  0  0  0  0
 24 25  1  0  0  0  0
 25 20  2  0  0  0  0
 27 22  1  0  0  0  0
 28 29  1  0  0  0  0
 28 24  1  0  0  0  0
 29 30  1  0  0  0  0
 31 29  2  0  0  0  0
 32 31  1  0  0  0  0
 33 32  1  0  0  0  0
 34 32  2  0  0  0  0
 34 36  1  0  0  0  0
 35 34  1  0  0  0  0
 36 28  2  0  0  0  0
M  END
>  <minimizedAffinity>
-5.42073011

>  <minimizedRMSD>
0.386430889

$$$$
