
 OpenBabel03212521073D

 36 39  0  0  0  0  0  0  0  0999 V2000
   41.8140   84.2390   61.5680 C   0  0  0  0  0  0  0  0  0  0  0  0
   41.4650   83.9710   62.8870 C   0  0  0  0  0  0  0  0  0  0  0  0
   40.1940   83.5510   63.2450 C   0  0  0  0  0  0  0  0  0  0  0  0
   39.2430   83.3980   62.2440 C   0  0  0  0  0  0  0  0  0  0  0  0
   39.5840   83.6660   60.9160 C   0  0  0  0  0  0  0  0  0  0  0  0
   40.8450   84.0780   60.5830 C   0  0  0  0  0  0  0  0  0  0  0  0
   42.1670   84.0740   63.7100 H   0  0  0  0  0  0  0  0  0  0  0  0
   39.9300   83.3440   64.2750 H   0  0  0  0  0  0  0  0  0  0  0  0
   38.2220   83.0710   62.4560 H   0  0  0  0  0  0  0  0  0  0  0  0
   38.8140   83.5330   60.1690 H   0  0  0  0  0  0  0  0  0  0  0  0
   45.3250   84.1530   60.5790 C   0  0  0  0  0  0  0  0  0  0  0  0
   45.7150   85.4740   60.6890 C   0  0  0  0  0  0  0  0  0  0  0  0
   44.7580   86.4220   61.1120 C   0  0  0  0  0  0  0  0  0  0  0  0
   43.5140   85.9770   61.3840 N   0  0  0  0  0  0  0  0  0  0  0  0
   43.1580   84.6720   61.2670 C   0  0  0  0  0  0  0  0  0  0  0  0
   44.0640   83.7760   60.8670 N   0  0  0  0  0  0  0  0  0  0  0  0
   46.0870   83.4530   60.2510 H   0  0  0  0  0  0  0  0  0  0  0  0
   46.7030   85.8670   60.4800 H   0  0  0  0  0  0  0  0  0  0  0  0
   44.9240   87.4710   61.2390 H   0  0  0  0  0  0  0  0  0  0  0  0
   41.1630   84.3460   59.1980 C   0  0  0  0  0  0  0  0  0  0  0  0
   40.8560   85.6660   58.8440 C   0  0  0  0  0  0  0  0  0  0  0  0
   41.0880   86.1280   57.5490 C   0  0  0  0  0  0  0  0  0  0  0  0
   41.6110   85.2620   56.6780 N   0  0  0  0  0  0  0  0  0  0  0  0
   41.9100   83.9800   57.0160 C   0  0  0  0  0  0  0  0  0  0  0  0
   41.6840   83.5320   58.2740 N   0  0  0  0  0  0  0  0  0  0  0  0
   40.4300   86.4200   59.5080 H   0  0  0  0  0  0  0  0  0  0  0  0
   40.8680   87.1310   57.2360 H   0  0  0  0  0  0  0  0  0  0  0  0
   42.4830   83.0390   56.0470 C   0  0  0  0  0  0  0  0  0  0  0  0
   43.8380   83.1820   55.7300 C   0  0  0  0  0  0  0  0  0  0  0  0
   44.4280   83.9590   56.1880 H   0  0  0  0  0  0  0  0  0  0  0  0
   44.3400   82.2780   54.8130 C   0  0  0  0  0  3  0  0  0  0  0  0
   43.5730   81.2890   54.2340 C   0  0  0  0  0  0  0  0  0  0  0  0
   44.0240   80.6140   53.5260 H   0  0  0  0  0  0  0  0  0  0  0  0
   42.2380   81.1730   54.5670 C   0  0  0  0  0  0  0  0  0  0  0  0
   41.6930   80.3780   54.0790 H   0  0  0  0  0  0  0  0  0  0  0  0
   41.7210   82.0500   55.4650 C   0  0  0  0  0  3  0  0  0  0  0  0
  1  2  1  0  0  0  0
  2  3  2  0  0  0  0
  2  7  1  0  0  0  0
  3  8  1  0  0  0  0
  4  9  1  0  0  0  0
  4  3  1  0  0  0  0
  5  4  2  0  0  0  0
  6  5  1  0  0  0  0
  6  1  2  0  0  0  0
 10  5  1  0  0  0  0
 11 12  2  0  0  0  0
 11 16  1  0  0  0  0
 12 13  1  0  0  0  0
 13 19  1  0  0  0  0
 13 14  2  0  0  0  0
 15 14  1  0  0  0  0
 15  1  1  0  0  0  0
 16 15  2  0  0  0  0
 17 11  1  0  0  0  0
 18 12  1  0  0  0  0
 20  6  1  0  0  0  0
 21 20  1  0  0  0  0
 21 26  1  0  0  0  0
 22 21  2  0  0  0  0
 23 24  2  0  0  0  0
 23 22  1  0  0  0  0
 24 25  1  0  0  0  0
 25 20  2  0  0  0  0
 27 22  1  0  0  0  0
 28 24  1  0  0  0  0
 29 28  1  0  0  0  0
 29 30  1  0  0  0  0
 31 29  2  0  0  0  0
 32 34  2  0  0  0  0
 32 31  1  0  0  0  0
 33 32  1  0  0  0  0
 34 36  1  0  0  0  0
 35 34  1  0  0  0  0
 36 28  2  0  0  0  0
M  END
>  <minimizedAffinity>
-5.4758687

>  <minimizedRMSD>
0.377989709

$$$$
