
 OpenBabel03212521073D

 36 39  0  0  0  0  0  0  0  0999 V2000
   41.8150   84.2360   61.5650 C   0  0  0  0  0  0  0  0  0  0  0  0
   41.4670   83.9710   62.8850 C   0  0  0  0  0  0  0  0  0  0  0  0
   40.1960   83.5530   63.2450 C   0  0  0  0  0  0  0  0  0  0  0  0
   39.2440   83.3970   62.2460 C   0  0  0  0  0  0  0  0  0  0  0  0
   39.5840   83.6630   60.9170 C   0  0  0  0  0  0  0  0  0  0  0  0
   40.8450   84.0730   60.5820 C   0  0  0  0  0  0  0  0  0  0  0  0
   42.1700   84.0750   63.7070 H   0  0  0  0  0  0  0  0  0  0  0  0
   39.9330   83.3480   64.2770 H   0  0  0  0  0  0  0  0  0  0  0  0
   38.2240   83.0720   62.4600 H   0  0  0  0  0  0  0  0  0  0  0  0
   38.8120   83.5290   60.1710 H   0  0  0  0  0  0  0  0  0  0  0  0
   45.3170   84.1510   60.5460 C   0  0  0  0  0  0  0  0  0  0  0  0
   45.7150   85.4670   60.6780 C   0  0  0  0  0  0  0  0  0  0  0  0
   44.7670   86.4120   61.1280 C   0  0  0  0  0  0  0  0  0  0  0  0
   43.5220   85.9690   61.4010 N   0  0  0  0  0  0  0  0  0  0  0  0
   43.1580   84.6680   61.2610 C   0  0  0  0  0  0  0  0  0  0  0  0
   44.0570   83.7760   60.8360 N   0  0  0  0  0  0  0  0  0  0  0  0
   46.0720   83.4530   60.1980 H   0  0  0  0  0  0  0  0  0  0  0  0
   46.7040   85.8600   60.4690 H   0  0  0  0  0  0  0  0  0  0  0  0
   44.9400   87.4570   61.2740 H   0  0  0  0  0  0  0  0  0  0  0  0
   41.1610   84.3390   59.1960 C   0  0  0  0  0  0  0  0  0  0  0  0
   40.9170   85.6760   58.8570 C   0  0  0  0  0  0  0  0  0  0  0  0
   41.1570   86.1380   57.5640 C   0  0  0  0  0  0  0  0  0  0  0  0
   41.6270   85.2550   56.6790 N   0  0  0  0  0  0  0  0  0  0  0  0
   41.8660   83.9560   57.0030 C   0  0  0  0  0  0  0  0  0  0  0  0
   41.6310   83.5090   58.2580 N   0  0  0  0  0  0  0  0  0  0  0  0
   40.5350   86.4440   59.5320 H   0  0  0  0  0  0  0  0  0  0  0  0
   40.9840   87.1530   57.2620 H   0  0  0  0  0  0  0  0  0  0  0  0
   42.3810   82.9980   56.0190 C   0  0  0  0  0  0  0  0  0  0  0  0
   41.5590   81.9200   55.6740 C   0  0  0  0  0  0  0  0  0  0  0  0
   40.5860   81.8090   56.1230 H   0  0  0  0  0  0  0  0  0  0  0  0
   42.0800   81.0390   54.7430 C   0  0  0  0  0  3  0  0  0  0  0  0
   43.3270   81.1930   54.1790 C   0  0  0  0  0  0  0  0  0  0  0  0
   43.6760   80.4720   53.4590 H   0  0  0  0  0  0  0  0  0  0  0  0
   44.1170   82.2690   54.5390 C   0  0  0  0  0  0  0  0  0  0  0  0
   45.0830   82.3320   54.0600 H   0  0  0  0  0  0  0  0  0  0  0  0
   43.6270   83.1470   55.4510 C   0  0  0  0  0  3  0  0  0  0  0  0
  1  2  1  0  0  0  0
  2  3  2  0  0  0  0
  2  7  1  0  0  0  0
  3  8  1  0  0  0  0
  4  9  1  0  0  0  0
  4  3  1  0  0  0  0
  5  4  2  0  0  0  0
  6  5  1  0  0  0  0
  6  1  2  0  0  0  0
 10  5  1  0  0  0  0
 11 12  2  0  0  0  0
 11 16  1  0  0  0  0
 12 13  1  0  0  0  0
 13 19  1  0  0  0  0
 13 14  2  0  0  0  0
 15 14  1  0  0  0  0
 15  1  1  0  0  0  0
 16 15  2  0  0  0  0
 17 11  1  0  0  0  0
 18 12  1  0  0  0  0
 20  6  1  0  0  0  0
 21 20  1  0  0  0  0
 21 26  1  0  0  0  0
 22 21  2  0  0  0  0
 23 24  2  0  0  0  0
 23 22  1  0  0  0  0
 24 25  1  0  0  0  0
 25 20  2  0  0  0  0
 27 22  1  0  0  0  0
 28 24  1  0  0  0  0
 29 28  1  0  0  0  0
 29 30  1  0  0  0  0
 31 29  2  0  0  0  0
 32 34  2  0  0  0  0
 32 31  1  0  0  0  0
 33 32  1  0  0  0  0
 34 36  1  0  0  0  0
 35 34  1  0  0  0  0
 36 28  2  0  0  0  0
M  END
>  <minimizedAffinity>
-5.50287294

>  <minimizedRMSD>
0.552553415

$$$$
