
 OpenBabel03212521073D

 36 39  0  0  0  0  0  0  0  0999 V2000
   41.8170   84.2330   61.5670 C   0  0  0  0  0  0  0  0  0  0  0  0
   41.4700   83.9670   62.8870 C   0  0  0  0  0  0  0  0  0  0  0  0
   40.1990   83.5500   63.2480 C   0  0  0  0  0  0  0  0  0  0  0  0
   39.2460   83.3940   62.2480 C   0  0  0  0  0  0  0  0  0  0  0  0
   39.5860   83.6600   60.9190 C   0  0  0  0  0  0  0  0  0  0  0  0
   40.8460   84.0710   60.5840 C   0  0  0  0  0  0  0  0  0  0  0  0
   42.1730   84.0720   63.7080 H   0  0  0  0  0  0  0  0  0  0  0  0
   39.9360   83.3440   64.2790 H   0  0  0  0  0  0  0  0  0  0  0  0
   38.2260   83.0680   62.4630 H   0  0  0  0  0  0  0  0  0  0  0  0
   38.8140   83.5270   60.1740 H   0  0  0  0  0  0  0  0  0  0  0  0
   45.3180   84.1490   60.5430 C   0  0  0  0  0  0  0  0  0  0  0  0
   45.7170   85.4650   60.6790 C   0  0  0  0  0  0  0  0  0  0  0  0
   44.7690   86.4100   61.1320 C   0  0  0  0  0  0  0  0  0  0  0  0
   43.5250   85.9660   61.4060 N   0  0  0  0  0  0  0  0  0  0  0  0
   43.1600   84.6660   61.2630 C   0  0  0  0  0  0  0  0  0  0  0  0
   44.0570   83.7740   60.8340 N   0  0  0  0  0  0  0  0  0  0  0  0
   46.0720   83.4530   60.1920 H   0  0  0  0  0  0  0  0  0  0  0  0
   46.7050   85.8580   60.4690 H   0  0  0  0  0  0  0  0  0  0  0  0
   44.9430   87.4540   61.2810 H   0  0  0  0  0  0  0  0  0  0  0  0
   41.1620   84.3370   59.1980 C   0  0  0  0  0  0  0  0  0  0  0  0
   40.9170   85.6740   58.8600 C   0  0  0  0  0  0  0  0  0  0  0  0
   41.1580   86.1370   57.5660 C   0  0  0  0  0  0  0  0  0  0  0  0
   41.6270   85.2540   56.6820 N   0  0  0  0  0  0  0  0  0  0  0  0
   41.8650   83.9560   57.0040 C   0  0  0  0  0  0  0  0  0  0  0  0
   41.6310   83.5080   58.2600 N   0  0  0  0  0  0  0  0  0  0  0  0
   40.5360   86.4420   59.5360 H   0  0  0  0  0  0  0  0  0  0  0  0
   40.9840   87.1530   57.2660 H   0  0  0  0  0  0  0  0  0  0  0  0
   42.3810   82.9980   56.0200 C   0  0  0  0  0  0  0  0  0  0  0  0
   41.5570   81.9210   55.6730 C   0  0  0  0  0  0  0  0  0  0  0  0
   40.5830   81.8110   56.1210 H   0  0  0  0  0  0  0  0  0  0  0  0
   42.0780   81.0410   54.7420 C   0  0  0  0  0  0  0  0  0  0  0  0
   43.3260   81.1940   54.1790 C   0  0  0  0  0  0  0  0  0  0  0  0
   43.6750   80.4740   53.4570 H   0  0  0  0  0  0  0  0  0  0  0  0
   44.1160   82.2680   54.5400 C   0  0  0  0  0  0  0  0  0  0  0  0
   45.0830   82.3310   54.0620 H   0  0  0  0  0  0  0  0  0  0  0  0
   43.6270   83.1470   55.4520 C   0  0  0  0  0  0  0  0  0  0  0  0
  1  2  1  0  0  0  0
  2  3  2  0  0  0  0
  2  7  1  0  0  0  0
  3  8  1  0  0  0  0
  4  9  1  0  0  0  0
  4  3  1  0  0  0  0
  5  4  2  0  0  0  0
  6  5  1  0  0  0  0
  6  1  2  0  0  0  0
 10  5  1  0  0  0  0
 11 12  2  0  0  0  0
 11 16  1  0  0  0  0
 12 13  1  0  0  0  0
 13 19  1  0  0  0  0
 13 14  2  0  0  0  0
 15 14  1  0  0  0  0
 15  1  1  0  0  0  0
 16 15  2  0  0  0  0
 17 11  1  0  0  0  0
 18 12  1  0  0  0  0
 20  6  1  0  0  0  0
 21 20  1  0  0  0  0
 21 26  1  0  0  0  0
 22 21  2  0  0  0  0
 23 24  2  0  0  0  0
 23 22  1  0  0  0  0
 24 25  1  0  0  0  0
 25 20  2  0  0  0  0
 27 22  1  0  0  0  0
 28 24  1  0  0  0  0
 29 28  1  0  0  0  0
 29 30  1  0  0  0  0
 31 29  2  0  0  0  0
 32 34  2  0  0  0  0
 32 31  1  0  0  0  0
 33 32  1  0  0  0  0
 34 36  1  0  0  0  0
 35 34  1  0  0  0  0
 36 28  2  0  0  0  0
M  END
>  <minimizedAffinity>
-5.50415897

>  <minimizedRMSD>
0.497614056

$$$$
