
 OpenBabel03212521073D

 36 39  0  0  0  0  0  0  0  0999 V2000
   41.8320   84.2370   61.5870 C   0  0  0  0  0  0  0  0  0  0  0  0
   41.4540   83.9820   62.9000 C   0  0  0  0  0  0  0  0  0  0  0  0
   40.1760   83.5660   63.2340 C   0  0  0  0  0  0  0  0  0  0  0  0
   39.2470   83.4010   62.2140 C   0  0  0  0  0  0  0  0  0  0  0  0
   39.6180   83.6560   60.8910 C   0  0  0  0  0  0  0  0  0  0  0  0
   40.8860   84.0650   60.5830 C   0  0  0  0  0  0  0  0  0  0  0  0
   42.1380   84.0940   63.7370 H   0  0  0  0  0  0  0  0  0  0  0  0
   39.8890   83.3690   64.2610 H   0  0  0  0  0  0  0  0  0  0  0  0
   38.2230   83.0750   62.4070 H   0  0  0  0  0  0  0  0  0  0  0  0
   38.8640   83.5150   60.1290 H   0  0  0  0  0  0  0  0  0  0  0  0
   45.3850   84.1340   60.7590 C   0  0  0  0  0  0  0  0  0  0  0  0
   45.7520   85.4660   60.7830 C   0  0  0  0  0  0  0  0  0  0  0  0
   44.7650   86.4280   61.0910 C   0  0  0  0  0  0  0  0  0  0  0  0
   43.5160   85.9840   61.3430 N   0  0  0  0  0  0  0  0  0  0  0  0
   43.1820   84.6690   61.3110 C   0  0  0  0  0  0  0  0  0  0  0  0
   44.1170   83.7600   61.0200 N   0  0  0  0  0  0  0  0  0  0  0  0
   46.1690   83.4240   60.5180 H   0  0  0  0  0  0  0  0  0  0  0  0
   46.7430   85.8590   60.5870 H   0  0  0  0  0  0  0  0  0  0  0  0
   44.9110   87.4850   61.1450 H   0  0  0  0  0  0  0  0  0  0  0  0
   41.2340   84.3190   59.2020 C   0  0  0  0  0  0  0  0  0  0  0  0
   40.7920   85.5800   58.7820 C   0  0  0  0  0  0  0  0  0  0  0  0
   41.0280   86.0200   57.4790 C   0  0  0  0  0  0  0  0  0  0  0  0
   41.6880   85.1910   56.6680 N   0  0  0  0  0  0  0  0  0  0  0  0
   42.1190   83.9660   57.0700 C   0  0  0  0  0  0  0  0  0  0  0  0
   41.8890   83.5410   58.3350 N   0  0  0  0  0  0  0  0  0  0  0  0
   40.2490   86.3010   59.3960 H   0  0  0  0  0  0  0  0  0  0  0  0
   40.7060   86.9780   57.1170 H   0  0  0  0  0  0  0  0  0  0  0  0
   42.8430   83.0670   56.1650 C   0  0  0  0  0  0  0  0  0  0  0  0
   42.1830   82.6470   55.0060 C   0  0  0  0  0  0  0  0  0  0  0  0
   41.1780   82.9790   54.7970 H   0  0  0  0  0  0  0  0  0  0  0  0
   42.8970   81.8000   54.1780 C   0  0  0  0  0  3  0  0  0  0  0  0
   44.1810   81.3840   54.4590 C   0  0  0  0  0  0  0  0  0  0  0  0
   44.6850   80.7220   53.7740 H   0  0  0  0  0  0  0  0  0  0  0  0
   44.8070   81.8150   55.6120 C   0  0  0  0  0  0  0  0  0  0  0  0
   45.8120   81.4520   55.7720 H   0  0  0  0  0  0  0  0  0  0  0  0
   44.1260   82.6480   56.4400 C   0  0  0  0  0  3  0  0  0  0  0  0
  1  2  1  0  0  0  0
  2  3  2  0  0  0  0
  2  7  1  0  0  0  0
  3  8  1  0  0  0  0
  4  9  1  0  0  0  0
  4  3  1  0  0  0  0
  5  4  2  0  0  0  0
  6  5  1  0  0  0  0
  6  1  2  0  0  0  0
 10  5  1  0  0  0  0
 11 12  2  0  0  0  0
 11 16  1  0  0  0  0
 12 13  1  0  0  0  0
 13 19  1  0  0  0  0
 13 14  2  0  0  0  0
 15 14  1  0  0  0  0
 15  1  1  0  0  0  0
 16 15  2  0  0  0  0
 17 11  1  0  0  0  0
 18 12  1  0  0  0  0
 20  6  1  0  0  0  0
 21 20  1  0  0  0  0
 21 26  1  0  0  0  0
 22 21  2  0  0  0  0
 23 24  2  0  0  0  0
 23 22  1  0  0  0  0
 24 25  1  0  0  0  0
 25 20  2  0  0  0  0
 27 22  1  0  0  0  0
 28 36  1  0  0  0  0
 28 24  1  0  0  0  0
 29 28  2  0  0  0  0
 30 29  1  0  0  0  0
 31 32  2  0  0  0  0
 31 29  1  0  0  0  0
 32 34  1  0  0  0  0
 33 32  1  0  0  0  0
 34 35  1  0  0  0  0
 34 36  2  0  0  0  0
M  END
>  <minimizedAffinity>
-5.38944244

>  <minimizedRMSD>
0.0900065079

$$$$
