
 OpenBabel03212521073D

 36 39  0  0  0  0  0  0  0  0999 V2000
   41.8090   84.2400   61.5500 C   0  0  0  0  0  0  0  0  0  0  0  0
   41.4700   83.9360   62.8640 C   0  0  0  0  0  0  0  0  0  0  0  0
   40.2000   83.5140   63.2210 C   0  0  0  0  0  0  0  0  0  0  0  0
   39.2390   83.3940   62.2240 C   0  0  0  0  0  0  0  0  0  0  0  0
   39.5700   83.6990   60.9020 C   0  0  0  0  0  0  0  0  0  0  0  0
   40.8310   84.1130   60.5700 C   0  0  0  0  0  0  0  0  0  0  0  0
   42.1800   84.0110   63.6830 H   0  0  0  0  0  0  0  0  0  0  0  0
   39.9430   83.2780   64.2470 H   0  0  0  0  0  0  0  0  0  0  0  0
   38.2180   83.0670   62.4360 H   0  0  0  0  0  0  0  0  0  0  0  0
   38.7930   83.5920   60.1580 H   0  0  0  0  0  0  0  0  0  0  0  0
   45.3190   84.1570   60.5550 C   0  0  0  0  0  0  0  0  0  0  0  0
   45.7100   85.4770   60.6730 C   0  0  0  0  0  0  0  0  0  0  0  0
   44.7550   86.4240   61.1040 C   0  0  0  0  0  0  0  0  0  0  0  0
   43.5100   85.9780   61.3750 N   0  0  0  0  0  0  0  0  0  0  0  0
   43.1530   84.6740   61.2490 C   0  0  0  0  0  0  0  0  0  0  0  0
   44.0580   83.7800   60.8420 N   0  0  0  0  0  0  0  0  0  0  0  0
   46.0790   83.4580   60.2210 H   0  0  0  0  0  0  0  0  0  0  0  0
   46.6980   85.8710   60.4640 H   0  0  0  0  0  0  0  0  0  0  0  0
   44.9220   87.4710   61.2370 H   0  0  0  0  0  0  0  0  0  0  0  0
   41.1380   84.4190   59.1900 C   0  0  0  0  0  0  0  0  0  0  0  0
   40.7940   85.7370   58.8650 C   0  0  0  0  0  0  0  0  0  0  0  0
   41.0100   86.2330   57.5800 C   0  0  0  0  0  0  0  0  0  0  0  0
   41.5550   85.4000   56.6900 N   0  0  0  0  0  0  0  0  0  0  0  0
   41.8900   84.1200   57.0000 C   0  0  0  0  0  0  0  0  0  0  0  0
   41.6790   83.6400   58.2480 N   0  0  0  0  0  0  0  0  0  0  0  0
   40.3490   86.4650   59.5450 H   0  0  0  0  0  0  0  0  0  0  0  0
   40.7620   87.2360   57.2890 H   0  0  0  0  0  0  0  0  0  0  0  0
   42.4860   83.2170   56.0100 C   0  0  0  0  0  0  0  0  0  0  0  0
   42.6180   83.6900   54.7000 C   0  0  0  0  0  0  0  0  0  0  0  0
   42.2890   84.6820   54.4400 H   0  0  0  0  0  0  0  0  0  0  0  0
   43.1850   82.8090   53.7950 C   0  0  0  0  0  3  0  0  0  0  0  0
   43.6000   81.5410   54.1420 C   0  0  0  0  0  0  0  0  0  0  0  0
   44.0350   80.9020   53.3910 H   0  0  0  0  0  0  0  0  0  0  0  0
   43.4570   81.1030   55.4440 C   0  0  0  0  0  0  0  0  0  0  0  0
   43.8030   80.0990   55.6490 H   0  0  0  0  0  0  0  0  0  0  0  0
   42.9030   81.9490   56.3490 C   0  0  0  0  0  3  0  0  0  0  0  0
  1  2  1  0  0  0  0
  2  3  2  0  0  0  0
  2  7  1  0  0  0  0
  3  8  1  0  0  0  0
  4  9  1  0  0  0  0
  4  3  1  0  0  0  0
  5  4  2  0  0  0  0
  6  5  1  0  0  0  0
  6  1  2  0  0  0  0
 10  5  1  0  0  0  0
 11 12  2  0  0  0  0
 11 16  1  0  0  0  0
 12 13  1  0  0  0  0
 13 19  1  0  0  0  0
 13 14  2  0  0  0  0
 15 14  1  0  0  0  0
 15  1  1  0  0  0  0
 16 15  2  0  0  0  0
 17 11  1  0  0  0  0
 18 12  1  0  0  0  0
 20  6  1  0  0  0  0
 21 20  1  0  0  0  0
 21 26  1  0  0  0  0
 22 21  2  0  0  0  0
 23 24  2  0  0  0  0
 23 22  1  0  0  0  0
 24 25  1  0  0  0  0
 25 20  2  0  0  0  0
 27 22  1  0  0  0  0
 28 36  1  0  0  0  0
 28 24  1  0  0  0  0
 29 28  2  0  0  0  0
 30 29  1  0  0  0  0
 31 32  2  0  0  0  0
 31 29  1  0  0  0  0
 32 34  1  0  0  0  0
 33 32  1  0  0  0  0
 34 35  1  0  0  0  0
 34 36  2  0  0  0  0
M  END
>  <minimizedAffinity>
-5.42413568

>  <minimizedRMSD>
0.393711329

$$$$
