
 OpenBabel03212521073D

 36 39  0  0  0  0  0  0  0  0999 V2000
   41.8100   84.2440   61.5480 C   0  0  0  0  0  0  0  0  0  0  0  0
   41.4650   83.9440   62.8610 C   0  0  0  0  0  0  0  0  0  0  0  0
   40.1940   83.5210   63.2130 C   0  0  0  0  0  0  0  0  0  0  0  0
   39.2380   83.3950   62.2120 C   0  0  0  0  0  0  0  0  0  0  0  0
   39.5760   83.6950   60.8900 C   0  0  0  0  0  0  0  0  0  0  0  0
   40.8370   84.1110   60.5630 C   0  0  0  0  0  0  0  0  0  0  0  0
   42.1700   84.0240   63.6840 H   0  0  0  0  0  0  0  0  0  0  0  0
   39.9320   83.2890   64.2390 H   0  0  0  0  0  0  0  0  0  0  0  0
   38.2170   83.0670   62.4200 H   0  0  0  0  0  0  0  0  0  0  0  0
   38.8020   83.5840   60.1430 H   0  0  0  0  0  0  0  0  0  0  0  0
   45.3290   84.1620   60.5850 C   0  0  0  0  0  0  0  0  0  0  0  0
   45.7130   85.4850   60.6870 C   0  0  0  0  0  0  0  0  0  0  0  0
   44.7500   86.4340   61.0960 C   0  0  0  0  0  0  0  0  0  0  0  0
   43.5050   85.9860   61.3620 N   0  0  0  0  0  0  0  0  0  0  0  0
   43.1550   84.6800   61.2530 C   0  0  0  0  0  0  0  0  0  0  0  0
   44.0670   83.7840   60.8670 N   0  0  0  0  0  0  0  0  0  0  0  0
   46.0950   83.4620   60.2680 H   0  0  0  0  0  0  0  0  0  0  0  0
   46.7020   85.8810   60.4820 H   0  0  0  0  0  0  0  0  0  0  0  0
   44.9120   87.4840   61.2150 H   0  0  0  0  0  0  0  0  0  0  0  0
   41.1510   84.4120   59.1840 C   0  0  0  0  0  0  0  0  0  0  0  0
   40.7620   85.7120   58.8380 C   0  0  0  0  0  0  0  0  0  0  0  0
   40.9760   86.2010   57.5500 C   0  0  0  0  0  0  0  0  0  0  0  0
   41.5640   85.3790   56.6770 N   0  0  0  0  0  0  0  0  0  0  0  0
   41.9440   84.1160   57.0070 C   0  0  0  0  0  0  0  0  0  0  0  0
   41.7350   83.6430   58.2580 N   0  0  0  0  0  0  0  0  0  0  0  0
   40.2790   86.4310   59.5040 H   0  0  0  0  0  0  0  0  0  0  0  0
   40.6930   87.1900   57.2430 H   0  0  0  0  0  0  0  0  0  0  0  0
   42.5880   83.2250   56.0370 C   0  0  0  0  0  0  0  0  0  0  0  0
   43.2470   82.0960   56.5320 C   0  0  0  0  0  0  0  0  0  0  0  0
   43.2730   81.8990   57.5920 H   0  0  0  0  0  0  0  0  0  0  0  0
   43.8410   81.2810   55.5870 C   0  0  0  0  0  3  0  0  0  0  0  0
   43.8000   81.5450   54.2350 C   0  0  0  0  0  0  0  0  0  0  0  0
   44.2830   80.8710   53.5470 H   0  0  0  0  0  0  0  0  0  0  0  0
   43.1410   82.6680   53.7750 C   0  0  0  0  0  0  0  0  0  0  0  0
   43.1450   82.8180   52.7050 H   0  0  0  0  0  0  0  0  0  0  0  0
   42.5490   83.4840   54.6850 C   0  0  0  0  0  3  0  0  0  0  0  0
  1  2  1  0  0  0  0
  2  3  2  0  0  0  0
  2  7  1  0  0  0  0
  3  8  1  0  0  0  0
  4  9  1  0  0  0  0
  4  3  1  0  0  0  0
  5  4  2  0  0  0  0
  6  5  1  0  0  0  0
  6  1  2  0  0  0  0
 10  5  1  0  0  0  0
 11 12  2  0  0  0  0
 11 16  1  0  0  0  0
 12 13  1  0  0  0  0
 13 19  1  0  0  0  0
 13 14  2  0  0  0  0
 15 14  1  0  0  0  0
 15  1  1  0  0  0  0
 16 15  2  0  0  0  0
 17 11  1  0  0  0  0
 18 12  1  0  0  0  0
 20  6  1  0  0  0  0
 21 20  1  0  0  0  0
 21 26  1  0  0  0  0
 22 21  2  0  0  0  0
 23 24  2  0  0  0  0
 23 22  1  0  0  0  0
 24 25  1  0  0  0  0
 25 20  2  0  0  0  0
 27 22  1  0  0  0  0
 28 29  1  0  0  0  0
 28 24  1  0  0  0  0
 29 30  1  0  0  0  0
 31 29  2  0  0  0  0
 32 31  1  0  0  0  0
 33 32  1  0  0  0  0
 34 32  2  0  0  0  0
 34 36  1  0  0  0  0
 35 34  1  0  0  0  0
 36 28  2  0  0  0  0
M  END
>  <minimizedAffinity>
-5.4009943

>  <minimizedRMSD>
0.397119761

$$$$
