
 OpenBabel03212521073D

 36 39  0  0  0  0  0  0  0  0999 V2000
   41.8000   84.1570   61.5460 C   0  0  0  0  0  0  0  0  0  0  0  0
   41.4440   83.8780   62.8610 C   0  0  0  0  0  0  0  0  0  0  0  0
   40.1510   83.5310   63.2190 C   0  0  0  0  0  0  0  0  0  0  0  0
   39.1850   83.4620   62.2220 C   0  0  0  0  0  0  0  0  0  0  0  0
   39.5350   83.7410   60.8980 C   0  0  0  0  0  0  0  0  0  0  0  0
   40.8170   84.0810   60.5650 C   0  0  0  0  0  0  0  0  0  0  0  0
   42.1560   83.9170   63.6800 H   0  0  0  0  0  0  0  0  0  0  0  0
   39.8810   83.3160   64.2460 H   0  0  0  0  0  0  0  0  0  0  0  0
   38.1480   83.1950   62.4340 H   0  0  0  0  0  0  0  0  0  0  0  0
   38.7530   83.6760   60.1550 H   0  0  0  0  0  0  0  0  0  0  0  0
   45.2840   83.8810   60.4950 C   0  0  0  0  0  0  0  0  0  0  0  0
   45.7660   85.1650   60.6660 C   0  0  0  0  0  0  0  0  0  0  0  0
   44.8830   86.1540   61.1530 C   0  0  0  0  0  0  0  0  0  0  0  0
   43.6140   85.7810   61.4230 N   0  0  0  0  0  0  0  0  0  0  0  0
   43.1670   84.5120   61.2450 C   0  0  0  0  0  0  0  0  0  0  0  0
   44.0040   83.5780   60.7840 N   0  0  0  0  0  0  0  0  0  0  0  0
   45.9900   83.1490   60.1190 H   0  0  0  0  0  0  0  0  0  0  0  0
   46.7760   85.5000   60.4600 H   0  0  0  0  0  0  0  0  0  0  0  0
   45.1230   87.1800   61.3310 H   0  0  0  0  0  0  0  0  0  0  0  0
   41.1420   84.3630   59.1850 C   0  0  0  0  0  0  0  0  0  0  0  0
   40.9930   85.7240   58.8870 C   0  0  0  0  0  0  0  0  0  0  0  0
   41.2580   86.2050   57.6050 C   0  0  0  0  0  0  0  0  0  0  0  0
   41.6560   85.3160   56.6920 N   0  0  0  0  0  0  0  0  0  0  0  0
   41.8030   83.9950   56.9750 C   0  0  0  0  0  0  0  0  0  0  0  0
   41.5450   83.5290   58.2200 N   0  0  0  0  0  0  0  0  0  0  0  0
   40.6720   86.4970   59.5870 H   0  0  0  0  0  0  0  0  0  0  0  0
   41.1560   87.2390   57.3340 H   0  0  0  0  0  0  0  0  0  0  0  0
   42.2410   83.0310   55.9600 C   0  0  0  0  0  0  0  0  0  0  0  0
   43.4020   83.3320   55.2410 C   0  0  0  0  0  0  0  0  0  0  0  0
   43.9470   84.2420   55.4370 H   0  0  0  0  0  0  0  0  0  0  0  0
   43.7830   82.4000   54.2940 C   0  0  0  0  0  3  0  0  0  0  0  0
   43.0770   81.2410   54.0550 C   0  0  0  0  0  0  0  0  0  0  0  0
   43.4250   80.5530   53.3020 H   0  0  0  0  0  0  0  0  0  0  0  0
   41.9330   80.9710   54.7810 C   0  0  0  0  0  0  0  0  0  0  0  0
   41.4260   80.0460   54.5450 H   0  0  0  0  0  0  0  0  0  0  0  0
   41.5400   81.8720   55.7170 C   0  0  0  0  0  3  0  0  0  0  0  0
  1  2  1  0  0  0  0
  2  3  2  0  0  0  0
  2  7  1  0  0  0  0
  3  8  1  0  0  0  0
  4  9  1  0  0  0  0
  4  3  1  0  0  0  0
  5  4  2  0  0  0  0
  6  5  1  0  0  0  0
  6  1  2  0  0  0  0
 10  5  1  0  0  0  0
 11 12  2  0  0  0  0
 11 16  1  0  0  0  0
 12 13  1  0  0  0  0
 13 19  1  0  0  0  0
 13 14  2  0  0  0  0
 15 14  1  0  0  0  0
 15  1  1  0  0  0  0
 16 15  2  0  0  0  0
 17 11  1  0  0  0  0
 18 12  1  0  0  0  0
 20  6  1  0  0  0  0
 21 20  1  0  0  0  0
 21 26  1  0  0  0  0
 22 21  2  0  0  0  0
 23 24  2  0  0  0  0
 23 22  1  0  0  0  0
 24 25  1  0  0  0  0
 25 20  2  0  0  0  0
 27 22  1  0  0  0  0
 28 24  1  0  0  0  0
 29 30  1  0  0  0  0
 29 28  2  0  0  0  0
 31 29  1  0  0  0  0
 32 31  2  0  0  0  0
 32 34  1  0  0  0  0
 33 32  1  0  0  0  0
 34 36  2  0  0  0  0
 35 34  1  0  0  0  0
 36 28  1  0  0  0  0
M  END
>  <minimizedAffinity>
-5.47513247

>  <minimizedRMSD>
0.60838443

$$$$
