
 OpenBabel03212520443D

 18 19  0  0  0  0  0  0  0  0999 V2000
   39.9060   81.8700   61.0180 C   0  0  0  0  0  0  0  0  0  0  0  0
   40.1200   82.6240   59.8540 C   0  0  0  0  0  0  0  0  0  0  0  0
   39.6820   83.9440   59.7820 C   0  0  0  0  0  0  0  0  0  0  0  0
   39.0530   84.4330   60.8820 N   0  0  0  0  0  0  0  0  0  0  0  0
   38.8560   83.6980   61.9890 C   0  0  0  0  0  0  0  0  0  0  0  0
   39.2800   82.4110   62.0660 N   0  0  0  0  0  0  0  0  0  0  0  0
   40.6170   82.1970   59.0200 H   0  0  0  0  0  0  0  0  0  0  0  0
   39.8650   84.4910   58.8710 H   0  0  0  0  0  0  0  0  0  0  0  0
   38.3440   84.2390   62.7610 H   0  0  0  0  0  0  0  0  0  0  0  0
   40.3470   80.4860   61.1380 C   0  0  0  0  0  0  0  0  0  0  0  0
   40.2660   79.6810   60.0350 C   0  0  0  0  0  0  0  0  0  0  0  0
   39.8960   79.9940   59.0630 H   0  0  0  0  0  0  0  0  0  0  0  0
   40.6650   78.3410   60.0510 C   0  0  0  0  0  3  0  0  0  0  0  0
   41.1650   77.7820   61.2210 C   0  0  0  0  0  0  0  0  0  0  0  0
   41.4930   76.7620   61.3240 H   0  0  0  0  0  0  0  0  0  0  0  0
   41.2480   78.5880   62.3380 C   0  0  0  0  0  0  0  0  0  0  0  0
   41.6330   78.2080   63.2910 H   0  0  0  0  0  0  0  0  0  0  0  0
   40.8460   79.9020   62.2820 C   0  0  0  0  0  3  0  0  0  0  0  0
  1 10  1  0  0  0  0
  1  6  1  0  0  0  0
  2  1  2  0  0  0  0
  3  2  1  0  0  0  0
  3  4  2  0  0  0  0
  4  5  1  0  0  0  0
  5  6  2  0  0  0  0
  5  9  1  0  0  0  0
  7  2  1  0  0  0  0
  8  3  1  0  0  0  0
 10 18  1  0  0  0  0
 11 13  1  0  0  0  0
 11 10  2  0  0  0  0
 12 11  1  0  0  0  0
 13 14  2  0  0  0  0
 14 15  1  0  0  0  0
 14 16  1  0  0  0  0
 16 17  1  0  0  0  0
 18 16  2  0  0  0  0
M  END
>  <minimizedAffinity>
-4.62582207

>  <minimizedRMSD>
0.498141199

$$$$
