
 OpenBabel03212520443D

 18 19  0  0  0  0  0  0  0  0999 V2000
   39.9060   81.8710   61.0180 C   0  0  0  0  0  0  0  0  0  0  0  0
   40.1200   82.6240   59.8550 C   0  0  0  0  0  0  0  0  0  0  0  0
   39.6810   83.9450   59.7820 C   0  0  0  0  0  0  0  0  0  0  0  0
   39.0530   84.4330   60.8830 N   0  0  0  0  0  0  0  0  0  0  0  0
   38.8550   83.6980   61.9890 C   0  0  0  0  0  0  0  0  0  0  0  0
   39.2800   82.4120   62.0670 N   0  0  0  0  0  0  0  0  0  0  0  0
   40.6160   82.1980   59.0210 H   0  0  0  0  0  0  0  0  0  0  0  0
   39.8640   84.4920   58.8710 H   0  0  0  0  0  0  0  0  0  0  0  0
   38.3440   84.2400   62.7610 H   0  0  0  0  0  0  0  0  0  0  0  0
   40.3470   80.4860   61.1390 C   0  0  0  0  0  0  0  0  0  0  0  0
   40.2670   79.6820   60.0350 C   0  0  0  0  0  0  0  0  0  0  0  0
   39.8970   79.9950   59.0640 H   0  0  0  0  0  0  0  0  0  0  0  0
   40.6650   78.3410   60.0520 C   0  0  0  0  0  3  0  0  0  0  0  0
   41.1650   77.7820   61.2230 C   0  0  0  0  0  0  0  0  0  0  0  0
   41.4940   76.7620   61.3250 H   0  0  0  0  0  0  0  0  0  0  0  0
   41.2470   78.5890   62.3380 C   0  0  0  0  0  0  0  0  0  0  0  0
   41.6330   78.2080   63.2920 H   0  0  0  0  0  0  0  0  0  0  0  0
   40.8460   79.9020   62.2830 C   0  0  0  0  0  3  0  0  0  0  0  0
  1 10  1  0  0  0  0
  1  6  1  0  0  0  0
  2  1  2  0  0  0  0
  3  2  1  0  0  0  0
  3  4  2  0  0  0  0
  4  5  1  0  0  0  0
  5  6  2  0  0  0  0
  5  9  1  0  0  0  0
  7  2  1  0  0  0  0
  8  3  1  0  0  0  0
 10 18  1  0  0  0  0
 11 13  1  0  0  0  0
 11 10  2  0  0  0  0
 12 11  1  0  0  0  0
 13 14  2  0  0  0  0
 14 15  1  0  0  0  0
 14 16  1  0  0  0  0
 16 17  1  0  0  0  0
 18 16  2  0  0  0  0
M  END
>  <minimizedAffinity>
-4.62574625

>  <minimizedRMSD>
0.513080657

$$$$
