
 OpenBabel03212520453D

 18 19  0  0  0  0  0  0  0  0999 V2000
   40.1110   81.9410   61.0150 C   0  0  0  0  0  0  0  0  0  0  0  0
   40.2360   82.7370   59.8670 C   0  0  0  0  0  0  0  0  0  0  0  0
   39.6490   84.0000   59.8200 C   0  0  0  0  0  0  0  0  0  0  0  0
   38.9690   84.3900   60.9290 N   0  0  0  0  0  0  0  0  0  0  0  0
   38.8580   83.6150   62.0200 C   0  0  0  0  0  0  0  0  0  0  0  0
   39.4280   82.3850   62.0730 N   0  0  0  0  0  0  0  0  0  0  0  0
   40.7780   82.3880   59.0260 H   0  0  0  0  0  0  0  0  0  0  0  0
   39.7670   84.5820   58.9200 H   0  0  0  0  0  0  0  0  0  0  0  0
   38.2880   84.0790   62.8030 H   0  0  0  0  0  0  0  0  0  0  0  0
   40.7090   80.6140   61.1080 C   0  0  0  0  0  0  0  0  0  0  0  0
   41.8930   80.4830   61.7820 C   0  0  0  0  0  0  0  0  0  0  0  0
   42.4300   81.2970   62.2590 H   0  0  0  0  0  0  0  0  0  0  0  0
   42.5430   79.2520   61.9250 C   0  0  0  0  0  3  0  0  0  0  0  0
   41.9860   78.1060   61.3720 C   0  0  0  0  0  0  0  0  0  0  0  0
   42.4170   77.1210   61.4350 H   0  0  0  0  0  0  0  0  0  0  0  0
   40.7930   78.2320   60.6910 C   0  0  0  0  0  0  0  0  0  0  0  0
   40.3020   77.3670   60.2310 H   0  0  0  0  0  0  0  0  0  0  0  0
   40.1830   79.4590   60.5710 C   0  0  0  0  0  3  0  0  0  0  0  0
  1 10  1  0  0  0  0
  1  6  1  0  0  0  0
  2  1  2  0  0  0  0
  3  2  1  0  0  0  0
  3  4  2  0  0  0  0
  4  5  1  0  0  0  0
  5  6  2  0  0  0  0
  5  9  1  0  0  0  0
  7  2  1  0  0  0  0
  8  3  1  0  0  0  0
 10 11  1  0  0  0  0
 11 13  2  0  0  0  0
 11 12  1  0  0  0  0
 14 15  1  0  0  0  0
 14 13  1  0  0  0  0
 16 14  2  0  0  0  0
 17 16  1  0  0  0  0
 18 16  1  0  0  0  0
 18 10  2  0  0  0  0
M  END
>  <minimizedAffinity>
-4.45321989

>  <minimizedRMSD>
0.285507977

$$$$
