
 OpenBabel03212520243D

 18 19  0  0  0  0  0  0  0  0999 V2000
   40.3000   81.6640   61.3040 C   0  0  0  0  0  0  0  0  0  0  0  0
   41.1910   82.5260   60.6090 C   0  0  0  0  0  0  0  0  0  0  0  0
   40.9310   83.8950   60.6340 C   0  0  0  0  0  0  0  0  0  0  0  0
   39.8470   84.3400   61.3160 N   0  0  0  0  0  0  0  0  0  0  0  0
   39.0150   83.4810   61.9710 C   0  0  0  0  0  0  0  0  0  0  0  0
   39.2400   82.1570   61.9650 N   0  0  0  0  0  0  0  0  0  0  0  0
   40.5840   80.6300   61.2250 H   0  0  0  0  0  0  0  0  0  0  0  0
   42.0400   82.1570   60.0770 H   0  0  0  0  0  0  0  0  0  0  0  0
   38.1940   83.9570   62.4730 H   0  0  0  0  0  0  0  0  0  0  0  0
   41.7730   84.8740   59.9590 C   0  0  0  0  0  0  0  0  0  0  0  0
   41.3290   85.3440   58.7410 C   0  0  0  0  0  0  0  0  0  0  0  0
   40.4100   85.0250   58.2810 H   0  0  0  0  0  0  0  0  0  0  0  0
   42.0550   86.2840   58.0080 C   0  0  0  0  0  0  0  0  0  0  0  0
   43.2410   86.7200   58.5630 C   0  0  0  0  0  0  0  0  0  0  0  0
   43.8590   87.4570   58.0400 H   0  0  0  0  0  0  0  0  0  0  0  0
   43.7300   86.2730   59.7930 C   0  0  0  0  0  0  0  0  0  0  0  0
   44.6600   86.6280   60.2080 H   0  0  0  0  0  0  0  0  0  0  0  0
   42.9500   85.3410   60.4550 C   0  0  0  0  0  0  0  0  0  0  0  0
  1  6  1  0  0  0  0
  2  3  1  0  0  0  0
  2  1  2  0  0  0  0
  3  4  2  0  0  0  0
  4  5  1  0  0  0  0
  5  9  1  0  0  0  0
  6  5  2  0  0  0  0
  7  1  1  0  0  0  0
  8  2  1  0  0  0  0
 10 18  1  0  0  0  0
 10  3  1  0  0  0  0
 11 10  2  0  0  0  0
 12 11  1  0  0  0  0
 13 14  2  0  0  0  0
 13 11  1  0  0  0  0
 14 16  1  0  0  0  0
 15 14  1  0  0  0  0
 16 17  1  0  0  0  0
 16 18  2  0  0  0  0
M  END
>  <minimizedAffinity>
-3.90900469

>  <minimizedRMSD>
2.56289554

$$$$
