
 OpenBabel03212520103D

 18 19  0  0  0  0  0  0  0  0999 V2000
   40.0480   82.0720   60.5000 C   0  0  0  0  0  0  0  0  0  0  0  0
   40.0360   83.0940   59.5180 C   0  0  0  0  0  0  0  0  0  0  0  0
   39.4540   84.3090   59.8820 C   0  0  0  0  0  0  0  0  0  0  0  0
   38.9390   84.4450   61.1310 N   0  0  0  0  0  0  0  0  0  0  0  0
   38.9730   83.4380   62.0380 C   0  0  0  0  0  0  0  0  0  0  0  0
   39.5220   82.2580   61.7320 N   0  0  0  0  0  0  0  0  0  0  0  0
   40.4650   81.0780   60.3660 H   0  0  0  0  0  0  0  0  0  0  0  0
   39.4570   85.0600   59.1350 H   0  0  0  0  0  0  0  0  0  0  0  0
   38.5460   83.6010   63.0190 H   0  0  0  0  0  0  0  0  0  0  0  0
   40.6230   82.7740   58.2360 C   0  0  0  0  0  0  0  0  0  0  0  0
   40.3820   81.5790   57.5530 C   0  0  0  0  0  0  0  0  0  0  0  0
   39.7170   80.8570   58.0040 H   0  0  0  0  0  0  0  0  0  0  0  0
   40.9620   81.2860   56.3210 C   0  0  0  0  0  0  0  0  0  0  0  0
   41.8010   82.2620   55.8110 C   0  0  0  0  0  0  0  0  0  0  0  0
   42.2510   82.0200   54.8410 H   0  0  0  0  0  0  0  0  0  0  0  0
   42.0940   83.4700   56.4150 C   0  0  0  0  0  0  0  0  0  0  0  0
   42.7570   84.2000   55.9700 H   0  0  0  0  0  0  0  0  0  0  0  0
   41.4750   83.6670   57.6270 C   0  0  0  0  0  0  0  0  0  0  0  0
  1  6  1  0  0  0  0
  2  3  1  0  0  0  0
  2  1  2  0  0  0  0
  3  4  2  0  0  0  0
  4  5  1  0  0  0  0
  5  9  1  0  0  0  0
  6  5  2  0  0  0  0
  7  1  1  0  0  0  0
  8  3  1  0  0  0  0
 10  2  1  0  0  0  0
 11 12  1  0  0  0  0
 11 10  2  0  0  0  0
 13 11  1  0  0  0  0
 14 13  2  0  0  0  0
 14 16  1  0  0  0  0
 15 14  1  0  0  0  0
 16 18  2  0  0  0  0
 17 16  1  0  0  0  0
 18 10  1  0  0  0  0
M  END
>  <minimizedAffinity>
-4.44963741

>  <minimizedRMSD>
0.865833521

$$$$
