
 OpenBabel03212520453D

 18 19  0  0  0  0  0  0  0  0999 V2000
   39.9050   81.8720   61.0170 C   0  0  0  0  0  0  0  0  0  0  0  0
   40.1190   82.6250   59.8540 C   0  0  0  0  0  0  0  0  0  0  0  0
   39.6810   83.9460   59.7800 C   0  0  0  0  0  0  0  0  0  0  0  0
   39.0530   84.4350   60.8810 N   0  0  0  0  0  0  0  0  0  0  0  0
   38.8560   83.7000   61.9880 C   0  0  0  0  0  0  0  0  0  0  0  0
   39.2800   82.4140   62.0660 N   0  0  0  0  0  0  0  0  0  0  0  0
   40.6160   82.1980   59.0200 H   0  0  0  0  0  0  0  0  0  0  0  0
   39.8640   84.4920   58.8690 H   0  0  0  0  0  0  0  0  0  0  0  0
   38.3450   84.2420   62.7600 H   0  0  0  0  0  0  0  0  0  0  0  0
   40.3460   80.4880   61.1380 C   0  0  0  0  0  0  0  0  0  0  0  0
   40.2660   79.6820   60.0340 C   0  0  0  0  0  0  0  0  0  0  0  0
   39.8950   79.9950   59.0630 H   0  0  0  0  0  0  0  0  0  0  0  0
   40.6650   78.3420   60.0520 C   0  0  0  0  0  3  0  0  0  0  0  0
   41.1640   77.7830   61.2230 C   0  0  0  0  0  0  0  0  0  0  0  0
   41.4930   76.7630   61.3250 H   0  0  0  0  0  0  0  0  0  0  0  0
   41.2480   78.5900   62.3380 C   0  0  0  0  0  0  0  0  0  0  0  0
   41.6320   78.2100   63.2920 H   0  0  0  0  0  0  0  0  0  0  0  0
   40.8460   79.9040   62.2830 C   0  0  0  0  0  3  0  0  0  0  0  0
  1 10  1  0  0  0  0
  1  6  1  0  0  0  0
  2  1  2  0  0  0  0
  3  2  1  0  0  0  0
  3  4  2  0  0  0  0
  4  5  1  0  0  0  0
  5  6  2  0  0  0  0
  5  9  1  0  0  0  0
  7  2  1  0  0  0  0
  8  3  1  0  0  0  0
 10 18  1  0  0  0  0
 11 13  1  0  0  0  0
 11 10  2  0  0  0  0
 12 11  1  0  0  0  0
 13 14  2  0  0  0  0
 14 15  1  0  0  0  0
 14 16  1  0  0  0  0
 16 17  1  0  0  0  0
 18 16  2  0  0  0  0
M  END
>  <minimizedAffinity>
-4.62543344

>  <minimizedRMSD>
0.804597795

$$$$
