
 OpenBabel03212520453D

 18 19  0  0  0  0  0  0  0  0999 V2000
   40.2900   82.0680   61.2920 C   0  0  0  0  0  0  0  0  0  0  0  0
   40.4140   82.7600   60.0780 C   0  0  0  0  0  0  0  0  0  0  0  0
   39.7100   83.9430   59.8680 C   0  0  0  0  0  0  0  0  0  0  0  0
   38.9210   84.3650   60.8890 N   0  0  0  0  0  0  0  0  0  0  0  0
   38.8120   83.6910   62.0460 C   0  0  0  0  0  0  0  0  0  0  0  0
   39.4950   82.5380   62.2570 N   0  0  0  0  0  0  0  0  0  0  0  0
   41.0440   82.3900   59.3100 H   0  0  0  0  0  0  0  0  0  0  0  0
   39.8310   84.4460   58.9210 H   0  0  0  0  0  0  0  0  0  0  0  0
   38.1470   84.1650   62.7420 H   0  0  0  0  0  0  0  0  0  0  0  0
   41.0080   80.8270   61.5550 C   0  0  0  0  0  0  0  0  0  0  0  0
   42.3750   80.8490   61.5260 C   0  0  0  0  0  0  0  0  0  0  0  0
   42.9770   81.7290   61.3190 H   0  0  0  0  0  0  0  0  0  0  0  0
   43.1510   79.7110   61.7660 C   0  0  0  0  0  3  0  0  0  0  0  0
   42.5330   78.4990   62.0470 C   0  0  0  0  0  0  0  0  0  0  0  0
   43.0510   77.5750   62.2430 H   0  0  0  0  0  0  0  0  0  0  0  0
   41.1550   78.4700   62.0780 C   0  0  0  0  0  0  0  0  0  0  0  0
   40.6060   77.5450   62.2940 H   0  0  0  0  0  0  0  0  0  0  0  0
   40.4260   79.6110   61.8370 C   0  0  0  0  0  3  0  0  0  0  0  0
  1 10  1  0  0  0  0
  1  6  1  0  0  0  0
  2  1  2  0  0  0  0
  3  2  1  0  0  0  0
  3  4  2  0  0  0  0
  4  5  1  0  0  0  0
  5  6  2  0  0  0  0
  5  9  1  0  0  0  0
  7  2  1  0  0  0  0
  8  3  1  0  0  0  0
 10 18  1  0  0  0  0
 11 10  2  0  0  0  0
 11 13  1  0  0  0  0
 12 11  1  0  0  0  0
 13 14  2  0  0  0  0
 14 16  1  0  0  0  0
 14 15  1  0  0  0  0
 16 17  1  0  0  0  0
 18 16  2  0  0  0  0
M  END
>  <minimizedAffinity>
-4.58895493

>  <minimizedRMSD>
0.844393015

$$$$
