
 OpenBabel03212520453D

 18 19  0  0  0  0  0  0  0  0999 V2000
   38.3200   76.4090   57.1830 C   0  0  0  0  0  0  0  0  0  0  0  0
   39.2620   77.1380   56.4420 C   0  0  0  0  0  0  0  0  0  0  0  0
   38.9340   77.6350   55.1830 C   0  0  0  0  0  0  0  0  0  0  0  0
   37.6780   77.3720   54.7390 N   0  0  0  0  0  0  0  0  0  0  0  0
   36.7870   76.6720   55.4600 C   0  0  0  0  0  0  0  0  0  0  0  0
   37.1000   76.1850   56.6880 N   0  0  0  0  0  0  0  0  0  0  0  0
   40.2320   77.3180   56.8320 H   0  0  0  0  0  0  0  0  0  0  0  0
   39.6850   78.1900   54.6440 H   0  0  0  0  0  0  0  0  0  0  0  0
   35.8450   76.5580   54.9600 H   0  0  0  0  0  0  0  0  0  0  0  0
   38.6200   75.8700   58.5040 C   0  0  0  0  0  0  0  0  0  0  0  0
   39.3710   76.6300   59.3600 C   0  0  0  0  0  0  0  0  0  0  0  0
   39.7670   77.6140   59.1300 H   0  0  0  0  0  0  0  0  0  0  0  0
   39.7100   76.2000   60.6460 C   0  0  0  0  0  3  0  0  0  0  0  0
   39.2800   74.9570   61.0970 C   0  0  0  0  0  0  0  0  0  0  0  0
   39.4940   74.5490   62.0700 H   0  0  0  0  0  0  0  0  0  0  0  0
   38.5220   74.1870   60.2390 C   0  0  0  0  0  0  0  0  0  0  0  0
   38.1510   73.1980   60.5330 H   0  0  0  0  0  0  0  0  0  0  0  0
   38.2090   74.6450   58.9800 C   0  0  0  0  0  3  0  0  0  0  0  0
  1 10  1  0  0  0  0
  2  7  1  0  0  0  0
  2  1  2  0  0  0  0
  3  2  1  0  0  0  0
  4  3  2  0  0  0  0
  4  5  1  0  0  0  0
  5  6  2  0  0  0  0
  6  1  1  0  0  0  0
  8  3  1  0  0  0  0
  9  5  1  0  0  0  0
 10 18  2  0  0  0  0
 10 11  1  0  0  0  0
 11 13  2  0  0  0  0
 12 11  1  0  0  0  0
 13 14  1  0  0  0  0
 14 15  1  0  0  0  0
 16 17  1  0  0  0  0
 16 14  2  0  0  0  0
 18 16  1  0  0  0  0
M  END
>  <minimizedAffinity>
-4.36609602

$$$$

 OpenBabel03212520453D

 18 19  0  0  0  0  0  0  0  0999 V2000
   38.0980   75.4160   56.9720 C   0  0  0  0  0  0  0  0  0  0  0  0
   38.7980   74.6700   56.0140 C   0  0  0  0  0  0  0  0  0  0  0  0
   38.4060   74.6970   54.6770 C   0  0  0  0  0  0  0  0  0  0  0  0
   37.3300   75.4720   54.3800 N   0  0  0  0  0  0  0  0  0  0  0  0
   36.6700   76.1800   55.3100 C   0  0  0  0  0  0  0  0  0  0  0  0
   37.0470   76.1590   56.6130 N   0  0  0  0  0  0  0  0  0  0  0  0
   39.6330   74.0800   56.2960 H   0  0  0  0  0  0  0  0  0  0  0  0
   38.9690   74.1100   53.9700 H   0  0  0  0  0  0  0  0  0  0  0  0
   35.8470   76.7360   54.9020 H   0  0  0  0  0  0  0  0  0  0  0  0
   38.4730   75.4190   58.3810 C   0  0  0  0  0  0  0  0  0  0  0  0
   38.0830   74.3620   59.1590 C   0  0  0  0  0  0  0  0  0  0  0  0
   37.5090   73.5110   58.8050 H   0  0  0  0  0  0  0  0  0  0  0  0
   38.3940   74.2740   60.5190 C   0  0  0  0  0  3  0  0  0  0  0  0
   39.1270   75.2860   61.1280 C   0  0  0  0  0  0  0  0  0  0  0  0
   39.4110   75.3000   62.1670 H   0  0  0  0  0  0  0  0  0  0  0  0
   39.5230   76.3540   60.3490 C   0  0  0  0  0  0  0  0  0  0  0  0
   40.1030   77.1850   60.7690 H   0  0  0  0  0  0  0  0  0  0  0  0
   39.1980   76.4050   59.0140 C   0  0  0  0  0  3  0  0  0  0  0  0
  1 10  1  0  0  0  0
  2  7  1  0  0  0  0
  2  1  2  0  0  0  0
  3  2  1  0  0  0  0
  4  3  2  0  0  0  0
  4  5  1  0  0  0  0
  5  6  2  0  0  0  0
  6  1  1  0  0  0  0
  8  3  1  0  0  0  0
  9  5  1  0  0  0  0
 10 18  2  0  0  0  0
 10 11  1  0  0  0  0
 11 13  2  0  0  0  0
 12 11  1  0  0  0  0
 13 14  1  0  0  0  0
 14 15  1  0  0  0  0
 16 17  1  0  0  0  0
 16 14  2  0  0  0  0
 18 16  1  0  0  0  0
M  END
>  <minimizedAffinity>
-4.36569643

$$$$

 OpenBabel03212520453D

 18 19  0  0  0  0  0  0  0  0999 V2000
   41.3600   72.2280   61.5800 C   0  0  0  0  0  0  0  0  0  0  0  0
   42.4040   71.6730   60.8250 C   0  0  0  0  0  0  0  0  0  0  0  0
   43.1320   70.5930   61.3200 C   0  0  0  0  0  0  0  0  0  0  0  0
   42.7700   70.1310   62.5450 N   0  0  0  0  0  0  0  0  0  0  0  0
   41.7680   70.6740   63.2550 C   0  0  0  0  0  0  0  0  0  0  0  0
   41.0540   71.7260   62.7790 N   0  0  0  0  0  0  0  0  0  0  0  0
   42.6490   72.0680   59.8730 H   0  0  0  0  0  0  0  0  0  0  0  0
   43.9270   70.1940   60.7100 H   0  0  0  0  0  0  0  0  0  0  0  0
   41.6170   70.1870   64.1990 H   0  0  0  0  0  0  0  0  0  0  0  0
   40.5720   73.3570   61.1020 C   0  0  0  0  0  0  0  0  0  0  0  0
   41.1960   74.3100   60.3430 C   0  0  0  0  0  0  0  0  0  0  0  0
   42.2450   74.2910   60.0650 H   0  0  0  0  0  0  0  0  0  0  0  0
   40.5260   75.4290   59.8400 C   0  0  0  0  0  3  0  0  0  0  0  0
   39.1730   75.6030   60.1070 C   0  0  0  0  0  0  0  0  0  0  0  0
   38.5790   76.4320   59.7600 H   0  0  0  0  0  0  0  0  0  0  0  0
   38.5370   74.6460   60.8710 C   0  0  0  0  0  0  0  0  0  0  0  0
   37.4720   74.7240   61.1170 H   0  0  0  0  0  0  0  0  0  0  0  0
   39.2310   73.5580   61.3490 C   0  0  0  0  0  3  0  0  0  0  0  0
  1  6  1  0  0  0  0
  2  3  1  0  0  0  0
  2  1  2  0  0  0  0
  3  4  2  0  0  0  0
  4  5  1  0  0  0  0
  5  9  1  0  0  0  0
  6  5  2  0  0  0  0
  7  2  1  0  0  0  0
  8  3  1  0  0  0  0
 10 18  1  0  0  0  0
 10  1  1  0  0  0  0
 11 10  2  0  0  0  0
 12 11  1  0  0  0  0
 13 14  2  0  0  0  0
 13 11  1  0  0  0  0
 14 16  1  0  0  0  0
 15 14  1  0  0  0  0
 16 17  1  0  0  0  0
 16 18  2  0  0  0  0
M  END
>  <minimizedAffinity>
-4.15417862

$$$$

 OpenBabel03212520453D

 18 19  0  0  0  0  0  0  0  0999 V2000
   40.2280   75.1010   59.6860 C   0  0  0  0  0  0  0  0  0  0  0  0
   40.4750   76.4810   59.7300 C   0  0  0  0  0  0  0  0  0  0  0  0
   39.7020   77.3580   58.9730 C   0  0  0  0  0  0  0  0  0  0  0  0
   38.7240   76.7990   58.2140 N   0  0  0  0  0  0  0  0  0  0  0  0
   38.5010   75.4750   58.1820 C   0  0  0  0  0  0  0  0  0  0  0  0
   39.2500   74.6150   58.9170 N   0  0  0  0  0  0  0  0  0  0  0  0
   41.2510   76.8690   60.3400 H   0  0  0  0  0  0  0  0  0  0  0  0
   39.9220   78.4120   59.0340 H   0  0  0  0  0  0  0  0  0  0  0  0
   37.6910   75.2060   57.5310 H   0  0  0  0  0  0  0  0  0  0  0  0
   41.0110   74.1460   60.4610 C   0  0  0  0  0  0  0  0  0  0  0  0
   42.3180   73.9410   60.1090 C   0  0  0  0  0  0  0  0  0  0  0  0
   42.8240   74.4390   59.2870 H   0  0  0  0  0  0  0  0  0  0  0  0
   43.1490   73.0470   60.7900 C   0  0  0  0  0  3  0  0  0  0  0  0
   42.6520   72.3260   61.8700 C   0  0  0  0  0  0  0  0  0  0  0  0
   43.2200   71.6190   62.4510 H   0  0  0  0  0  0  0  0  0  0  0  0
   41.3360   72.5290   62.2300 C   0  0  0  0  0  0  0  0  0  0  0  0
   40.8840   71.9920   63.0730 H   0  0  0  0  0  0  0  0  0  0  0  0
   40.5500   73.4180   61.5350 C   0  0  0  0  0  3  0  0  0  0  0  0
  1  2  1  0  0  0  0
  1 10  1  0  0  0  0
  2  7  1  0  0  0  0
  3  8  1  0  0  0  0
  3  2  2  0  0  0  0
  4  3  1  0  0  0  0
  5  4  2  0  0  0  0
  5  6  1  0  0  0  0
  6  1  2  0  0  0  0
  9  5  1  0  0  0  0
 10 18  1  0  0  0  0
 11 10  2  0  0  0  0
 11 13  1  0  0  0  0
 12 11  1  0  0  0  0
 13 14  2  0  0  0  0
 14 16  1  0  0  0  0
 14 15  1  0  0  0  0
 16 17  1  0  0  0  0
 18 16  2  0  0  0  0
M  END
>  <minimizedAffinity>
-4.07112074

$$$$

 OpenBabel03212520453D

 18 19  0  0  0  0  0  0  0  0999 V2000
   39.8810   74.4870   59.7340 C   0  0  0  0  0  0  0  0  0  0  0  0
   38.8210   73.9440   58.9940 C   0  0  0  0  0  0  0  0  0  0  0  0
   38.0300   74.7640   58.1920 C   0  0  0  0  0  0  0  0  0  0  0  0
   38.3500   76.0840   58.1790 N   0  0  0  0  0  0  0  0  0  0  0  0
   39.3680   76.5890   58.8940 C   0  0  0  0  0  0  0  0  0  0  0  0
   40.1420   75.7960   59.6770 N   0  0  0  0  0  0  0  0  0  0  0  0
   38.6110   72.9050   59.0360 H   0  0  0  0  0  0  0  0  0  0  0  0
   37.2240   74.3090   57.6380 H   0  0  0  0  0  0  0  0  0  0  0  0
   39.4790   77.6490   58.7670 H   0  0  0  0  0  0  0  0  0  0  0  0
   40.7340   73.6670   60.5850 C   0  0  0  0  0  0  0  0  0  0  0  0
   42.0830   73.6770   60.3550 C   0  0  0  0  0  0  0  0  0  0  0  0
   42.5750   74.2540   59.5780 H   0  0  0  0  0  0  0  0  0  0  0  0
   42.9820   72.9250   61.1170 C   0  0  0  0  0  3  0  0  0  0  0  0
   42.5120   72.1280   62.1550 C   0  0  0  0  0  0  0  0  0  0  0  0
   43.1310   71.5190   62.7910 H   0  0  0  0  0  0  0  0  0  0  0  0
   41.1530   72.1150   62.3930 C   0  0  0  0  0  0  0  0  0  0  0  0
   40.7190   71.5080   63.1960 H   0  0  0  0  0  0  0  0  0  0  0  0
   40.3000   72.8690   61.6210 C   0  0  0  0  0  3  0  0  0  0  0  0
  1 10  1  0  0  0  0
  2  7  1  0  0  0  0
  2  1  2  0  0  0  0
  3  2  1  0  0  0  0
  4  3  2  0  0  0  0
  4  5  1  0  0  0  0
  5  6  2  0  0  0  0
  6  1  1  0  0  0  0
  8  3  1  0  0  0  0
  9  5  1  0  0  0  0
 10 18  1  0  0  0  0
 11 10  2  0  0  0  0
 11 13  1  0  0  0  0
 12 11  1  0  0  0  0
 13 14  2  0  0  0  0
 14 16  1  0  0  0  0
 14 15  1  0  0  0  0
 16 17  1  0  0  0  0
 18 16  2  0  0  0  0
M  END
>  <minimizedAffinity>
-4.06925678

$$$$

 OpenBabel03212520453D

 18 19  0  0  0  0  0  0  0  0999 V2000
   38.2730   75.4260   57.1460 C   0  0  0  0  0  0  0  0  0  0  0  0
   36.9590   75.3140   56.6710 C   0  0  0  0  0  0  0  0  0  0  0  0
   36.7010   75.3420   55.3020 C   0  0  0  0  0  0  0  0  0  0  0  0
   37.7790   75.4810   54.4880 N   0  0  0  0  0  0  0  0  0  0  0  0
   39.0320   75.5880   54.9590 C   0  0  0  0  0  0  0  0  0  0  0  0
   39.2900   75.5600   56.2900 N   0  0  0  0  0  0  0  0  0  0  0  0
   36.1490   75.2070   57.3470 H   0  0  0  0  0  0  0  0  0  0  0  0
   35.6770   75.2540   54.9750 H   0  0  0  0  0  0  0  0  0  0  0  0
   39.7620   75.6900   54.1780 H   0  0  0  0  0  0  0  0  0  0  0  0
   38.5900   75.4010   58.5690 C   0  0  0  0  0  0  0  0  0  0  0  0
   39.2980   76.4480   59.0940 C   0  0  0  0  0  0  0  0  0  0  0  0
   39.6480   77.3060   58.5290 H   0  0  0  0  0  0  0  0  0  0  0  0
   39.6500   76.5150   60.4460 C   0  0  0  0  0  3  0  0  0  0  0  0
   39.2770   75.4910   61.3100 C   0  0  0  0  0  0  0  0  0  0  0  0
   39.5040   75.4610   62.3620 H   0  0  0  0  0  0  0  0  0  0  0  0
   38.5620   74.4330   60.7860 C   0  0  0  0  0  0  0  0  0  0  0  0
   38.2380   73.5950   61.4130 H   0  0  0  0  0  0  0  0  0  0  0  0
   38.2350   74.4040   59.4500 C   0  0  0  0  0  3  0  0  0  0  0  0
  1 10  1  0  0  0  0
  2  1  1  0  0  0  0
  2  7  1  0  0  0  0
  3  2  2  0  0  0  0
  4  5  2  0  0  0  0
  4  3  1  0  0  0  0
  5  6  1  0  0  0  0
  6  1  2  0  0  0  0
  8  3  1  0  0  0  0
  9  5  1  0  0  0  0
 10 11  2  0  0  0  0
 10 18  1  0  0  0  0
 11 13  1  0  0  0  0
 12 11  1  0  0  0  0
 13 14  2  0  0  0  0
 14 15  1  0  0  0  0
 16 14  1  0  0  0  0
 16 17  1  0  0  0  0
 18 16  2  0  0  0  0
M  END
>  <minimizedAffinity>
-4.05846548

$$$$

 OpenBabel03212520453D

 18 19  0  0  0  0  0  0  0  0999 V2000
   39.0310   74.9270   59.1590 C   0  0  0  0  0  0  0  0  0  0  0  0
   40.4260   74.8500   59.2870 C   0  0  0  0  0  0  0  0  0  0  0  0
   40.9970   74.2130   60.3860 C   0  0  0  0  0  0  0  0  0  0  0  0
   40.1350   73.6900   61.2960 N   0  0  0  0  0  0  0  0  0  0  0  0
   38.8010   73.7730   61.1590 C   0  0  0  0  0  0  0  0  0  0  0  0
   38.2380   74.3910   60.0910 N   0  0  0  0  0  0  0  0  0  0  0  0
   41.0580   75.2740   58.5490 H   0  0  0  0  0  0  0  0  0  0  0  0
   42.0730   74.1740   60.4490 H   0  0  0  0  0  0  0  0  0  0  0  0
   38.2710   73.3070   61.9680 H   0  0  0  0  0  0  0  0  0  0  0  0
   38.3900   75.5830   58.0260 C   0  0  0  0  0  0  0  0  0  0  0  0
   37.4560   74.8810   57.3130 C   0  0  0  0  0  0  0  0  0  0  0  0
   37.1510   73.8610   57.5270 H   0  0  0  0  0  0  0  0  0  0  0  0
   36.7870   75.4230   56.2120 C   0  0  0  0  0  3  0  0  0  0  0  0
   37.0640   76.7230   55.8050 C   0  0  0  0  0  0  0  0  0  0  0  0
   36.5980   77.2190   54.9700 H   0  0  0  0  0  0  0  0  0  0  0  0
   38.0050   77.4360   56.5200 C   0  0  0  0  0  0  0  0  0  0  0  0
   38.2680   78.4660   56.2510 H   0  0  0  0  0  0  0  0  0  0  0  0
   38.6410   76.8680   57.5990 C   0  0  0  0  0  3  0  0  0  0  0  0
  1  2  2  0  0  0  0
  1  6  1  0  0  0  0
  2  3  1  0  0  0  0
  3  8  1  0  0  0  0
  3  4  2  0  0  0  0
  5  4  1  0  0  0  0
  5  9  1  0  0  0  0
  6  5  2  0  0  0  0
  7  2  1  0  0  0  0
 10  1  1  0  0  0  0
 11 12  1  0  0  0  0
 11 10  2  0  0  0  0
 13 11  1  0  0  0  0
 14 13  2  0  0  0  0
 14 16  1  0  0  0  0
 15 14  1  0  0  0  0
 16 18  2  0  0  0  0
 17 16  1  0  0  0  0
 18 10  1  0  0  0  0
M  END
>  <minimizedAffinity>
-4.04793644

$$$$

 OpenBabel03212520453D

 18 19  0  0  0  0  0  0  0  0999 V2000
   41.9990   67.9480   62.2660 C   0  0  0  0  0  0  0  0  0  0  0  0
   42.6950   66.9720   61.5390 C   0  0  0  0  0  0  0  0  0  0  0  0
   42.4490   65.6190   61.7640 C   0  0  0  0  0  0  0  0  0  0  0  0
   41.5170   65.3240   62.7070 N   0  0  0  0  0  0  0  0  0  0  0  0
   40.8600   66.2710   63.3960 C   0  0  0  0  0  0  0  0  0  0  0  0
   41.0940   67.5900   63.1810 N   0  0  0  0  0  0  0  0  0  0  0  0
   43.4140   67.2520   60.8120 H   0  0  0  0  0  0  0  0  0  0  0  0
   43.0040   64.8980   61.1850 H   0  0  0  0  0  0  0  0  0  0  0  0
   40.1600   65.8630   64.1000 H   0  0  0  0  0  0  0  0  0  0  0  0
   42.2240   69.3740   62.0640 C   0  0  0  0  0  0  0  0  0  0  0  0
   41.6440   70.2530   62.9380 C   0  0  0  0  0  0  0  0  0  0  0  0
   41.0210   69.9690   63.7800 H   0  0  0  0  0  0  0  0  0  0  0  0
   41.8000   71.6380   62.8270 C   0  0  0  0  0  3  0  0  0  0  0  0
   42.5700   72.1670   61.7980 C   0  0  0  0  0  0  0  0  0  0  0  0
   42.7430   73.2180   61.6380 H   0  0  0  0  0  0  0  0  0  0  0  0
   43.1580   71.2860   60.9130 C   0  0  0  0  0  0  0  0  0  0  0  0
   43.7770   71.6390   60.0800 H   0  0  0  0  0  0  0  0  0  0  0  0
   42.9810   69.9300   61.0560 C   0  0  0  0  0  3  0  0  0  0  0  0
  1  6  1  0  0  0  0
  2  3  1  0  0  0  0
  2  1  2  0  0  0  0
  3  4  2  0  0  0  0
  4  5  1  0  0  0  0
  5  9  1  0  0  0  0
  6  5  2  0  0  0  0
  7  2  1  0  0  0  0
  8  3  1  0  0  0  0
 10  1  1  0  0  0  0
 10 11  1  0  0  0  0
 11 12  1  0  0  0  0
 13 11  2  0  0  0  0
 14 13  1  0  0  0  0
 15 14  1  0  0  0  0
 16 18  1  0  0  0  0
 16 14  2  0  0  0  0
 17 16  1  0  0  0  0
 18 10  2  0  0  0  0
M  END
>  <minimizedAffinity>
-4.03453588

$$$$

 OpenBabel03212520453D

 18 19  0  0  0  0  0  0  0  0999 V2000
   38.8140   75.1230   58.4650 C   0  0  0  0  0  0  0  0  0  0  0  0
   39.0540   76.4550   58.0960 C   0  0  0  0  0  0  0  0  0  0  0  0
   38.2530   77.0740   57.1390 C   0  0  0  0  0  0  0  0  0  0  0  0
   37.2570   76.3200   56.6060 N   0  0  0  0  0  0  0  0  0  0  0  0
   37.0400   75.0460   56.9700 C   0  0  0  0  0  0  0  0  0  0  0  0
   37.8160   74.4370   57.9020 N   0  0  0  0  0  0  0  0  0  0  0  0
   39.8450   77.0020   58.5420 H   0  0  0  0  0  0  0  0  0  0  0  0
   38.4690   78.0990   56.8820 H   0  0  0  0  0  0  0  0  0  0  0  0
   36.2140   74.6010   56.4500 H   0  0  0  0  0  0  0  0  0  0  0  0
   39.6250   74.4350   59.4620 C   0  0  0  0  0  0  0  0  0  0  0  0
   38.9860   73.7910   60.4870 C   0  0  0  0  0  0  0  0  0  0  0  0
   37.9090   73.7530   60.6190 H   0  0  0  0  0  0  0  0  0  0  0  0
   39.6760   73.1040   61.4900 C   0  0  0  0  0  3  0  0  0  0  0  0
   41.0650   73.0590   61.4680 C   0  0  0  0  0  0  0  0  0  0  0  0
   41.6750   72.5540   62.1970 H   0  0  0  0  0  0  0  0  0  0  0  0
   41.7150   73.7050   60.4360 C   0  0  0  0  0  0  0  0  0  0  0  0
   42.8090   73.7060   60.3610 H   0  0  0  0  0  0  0  0  0  0  0  0
   41.0010   74.3700   59.4680 C   0  0  0  0  0  3  0  0  0  0  0  0
  1 10  1  0  0  0  0
  2  1  1  0  0  0  0
  2  7  1  0  0  0  0
  3  2  2  0  0  0  0
  4  5  2  0  0  0  0
  4  3  1  0  0  0  0
  5  6  1  0  0  0  0
  6  1  2  0  0  0  0
  8  3  1  0  0  0  0
  9  5  1  0  0  0  0
 10 18  2  0  0  0  0
 10 11  1  0  0  0  0
 11 12  1  0  0  0  0
 11 13  2  0  0  0  0
 14 13  1  0  0  0  0
 14 15  1  0  0  0  0
 16 14  2  0  0  0  0
 17 16  1  0  0  0  0
 18 16  1  0  0  0  0
M  END
>  <minimizedAffinity>
-3.9992373

$$$$
