
 OpenBabel03212520453D

 18 19  0  0  0  0  0  0  0  0999 V2000
   39.9060   81.8710   61.0170 C   0  0  0  0  0  0  0  0  0  0  0  0
   40.1200   82.6250   59.8540 C   0  0  0  0  0  0  0  0  0  0  0  0
   39.6810   83.9450   59.7810 C   0  0  0  0  0  0  0  0  0  0  0  0
   39.0530   84.4340   60.8820 N   0  0  0  0  0  0  0  0  0  0  0  0
   38.8560   83.6990   61.9880 C   0  0  0  0  0  0  0  0  0  0  0  0
   39.2800   82.4130   62.0660 N   0  0  0  0  0  0  0  0  0  0  0  0
   40.6160   82.1980   59.0200 H   0  0  0  0  0  0  0  0  0  0  0  0
   39.8640   84.4920   58.8700 H   0  0  0  0  0  0  0  0  0  0  0  0
   38.3450   84.2410   62.7600 H   0  0  0  0  0  0  0  0  0  0  0  0
   40.3470   80.4870   61.1380 C   0  0  0  0  0  0  0  0  0  0  0  0
   40.2660   79.6810   60.0350 C   0  0  0  0  0  0  0  0  0  0  0  0
   39.8950   79.9950   59.0640 H   0  0  0  0  0  0  0  0  0  0  0  0
   40.6650   78.3420   60.0530 C   0  0  0  0  0  3  0  0  0  0  0  0
   41.1660   77.7830   61.2220 C   0  0  0  0  0  0  0  0  0  0  0  0
   41.4940   76.7630   61.3260 H   0  0  0  0  0  0  0  0  0  0  0  0
   41.2500   78.5900   62.3380 C   0  0  0  0  0  0  0  0  0  0  0  0
   41.6360   78.2100   63.2910 H   0  0  0  0  0  0  0  0  0  0  0  0
   40.8480   79.9040   62.2830 C   0  0  0  0  0  3  0  0  0  0  0  0
  1 10  1  0  0  0  0
  1  6  1  0  0  0  0
  2  1  2  0  0  0  0
  3  2  1  0  0  0  0
  3  4  2  0  0  0  0
  4  5  1  0  0  0  0
  5  6  2  0  0  0  0
  5  9  1  0  0  0  0
  7  2  1  0  0  0  0
  8  3  1  0  0  0  0
 10 18  1  0  0  0  0
 11 13  1  0  0  0  0
 11 10  2  0  0  0  0
 12 11  1  0  0  0  0
 13 14  2  0  0  0  0
 14 15  1  0  0  0  0
 14 16  1  0  0  0  0
 16 17  1  0  0  0  0
 18 16  2  0  0  0  0
M  END
>  <minimizedAffinity>
-4.62539816

>  <minimizedRMSD>
0.58179754

$$$$
