
 OpenBabel03212520443D

 18 19  0  0  0  0  0  0  0  0999 V2000
   40.2890   82.0680   61.2910 C   0  0  0  0  0  0  0  0  0  0  0  0
   40.4130   82.7590   60.0770 C   0  0  0  0  0  0  0  0  0  0  0  0
   39.7090   83.9430   59.8660 C   0  0  0  0  0  0  0  0  0  0  0  0
   38.9210   84.3660   60.8880 N   0  0  0  0  0  0  0  0  0  0  0  0
   38.8130   83.6920   62.0450 C   0  0  0  0  0  0  0  0  0  0  0  0
   39.4960   82.5390   62.2570 N   0  0  0  0  0  0  0  0  0  0  0  0
   41.0430   82.3890   59.3080 H   0  0  0  0  0  0  0  0  0  0  0  0
   39.8310   84.4450   58.9200 H   0  0  0  0  0  0  0  0  0  0  0  0
   38.1490   84.1670   62.7410 H   0  0  0  0  0  0  0  0  0  0  0  0
   41.0070   80.8270   61.5550 C   0  0  0  0  0  0  0  0  0  0  0  0
   42.3740   80.8490   61.5270 C   0  0  0  0  0  0  0  0  0  0  0  0
   42.9760   81.7290   61.3210 H   0  0  0  0  0  0  0  0  0  0  0  0
   43.1500   79.7100   61.7670 C   0  0  0  0  0  3  0  0  0  0  0  0
   42.5310   78.4980   62.0470 C   0  0  0  0  0  0  0  0  0  0  0  0
   43.0490   77.5740   62.2440 H   0  0  0  0  0  0  0  0  0  0  0  0
   41.1530   78.4700   62.0770 C   0  0  0  0  0  0  0  0  0  0  0  0
   40.6040   77.5450   62.2920 H   0  0  0  0  0  0  0  0  0  0  0  0
   40.4240   79.6100   61.8360 C   0  0  0  0  0  3  0  0  0  0  0  0
  1 10  1  0  0  0  0
  1  6  1  0  0  0  0
  2  1  2  0  0  0  0
  3  2  1  0  0  0  0
  3  4  2  0  0  0  0
  4  5  1  0  0  0  0
  5  6  2  0  0  0  0
  5  9  1  0  0  0  0
  7  2  1  0  0  0  0
  8  3  1  0  0  0  0
 10 18  1  0  0  0  0
 11 10  2  0  0  0  0
 11 13  1  0  0  0  0
 12 11  1  0  0  0  0
 13 14  2  0  0  0  0
 14 16  1  0  0  0  0
 14 15  1  0  0  0  0
 16 17  1  0  0  0  0
 18 16  2  0  0  0  0
M  END
>  <minimizedAffinity>
-4.58908319

>  <minimizedRMSD>
0.873309195

$$$$
