
 OpenBabel03212520453D

 18 19  0  0  0  0  0  0  0  0999 V2000
   40.1580   81.9900   61.0420 C   0  0  0  0  0  0  0  0  0  0  0  0
   40.2730   82.7720   59.8840 C   0  0  0  0  0  0  0  0  0  0  0  0
   39.6490   84.0160   59.8110 C   0  0  0  0  0  0  0  0  0  0  0  0
   38.9460   84.4040   60.9060 N   0  0  0  0  0  0  0  0  0  0  0  0
   38.8450   83.6420   62.0080 C   0  0  0  0  0  0  0  0  0  0  0  0
   39.4500   82.4300   62.0860 N   0  0  0  0  0  0  0  0  0  0  0  0
   40.8340   82.4260   59.0540 H   0  0  0  0  0  0  0  0  0  0  0  0
   39.7610   84.5880   58.9040 H   0  0  0  0  0  0  0  0  0  0  0  0
   38.2530   84.1010   62.7770 H   0  0  0  0  0  0  0  0  0  0  0  0
   40.7930   80.6830   61.1630 C   0  0  0  0  0  0  0  0  0  0  0  0
   40.1750   79.6060   60.5860 C   0  0  0  0  0  0  0  0  0  0  0  0
   39.2380   79.6480   60.0400 H   0  0  0  0  0  0  0  0  0  0  0  0
   40.7070   78.3140   60.6490 C   0  0  0  0  0  3  0  0  0  0  0  0
   41.9050   78.0890   61.3140 C   0  0  0  0  0  0  0  0  0  0  0  0
   42.3840   77.1300   61.4110 H   0  0  0  0  0  0  0  0  0  0  0  0
   42.5320   79.1700   61.8980 C   0  0  0  0  0  0  0  0  0  0  0  0
   43.4800   79.0600   62.4370 H   0  0  0  0  0  0  0  0  0  0  0  0
   41.9790   80.4270   61.8150 C   0  0  0  0  0  3  0  0  0  0  0  0
  1 10  1  0  0  0  0
  1  6  1  0  0  0  0
  2  1  2  0  0  0  0
  3  2  1  0  0  0  0
  3  4  2  0  0  0  0
  4  5  1  0  0  0  0
  5  6  2  0  0  0  0
  5  9  1  0  0  0  0
  7  2  1  0  0  0  0
  8  3  1  0  0  0  0
 10 18  1  0  0  0  0
 11 13  1  0  0  0  0
 11 10  2  0  0  0  0
 12 11  1  0  0  0  0
 13 14  2  0  0  0  0
 14 15  1  0  0  0  0
 14 16  1  0  0  0  0
 16 17  1  0  0  0  0
 18 16  2  0  0  0  0
M  END
>  <minimizedAffinity>
-4.4539156

>  <minimizedRMSD>
0.377943903

$$$$
