
 OpenBabel03212520443D

 18 19  0  0  0  0  0  0  0  0999 V2000
   39.9050   81.8890   60.9080 C   0  0  0  0  0  0  0  0  0  0  0  0
   40.1050   82.6730   59.7630 C   0  0  0  0  0  0  0  0  0  0  0  0
   39.6750   83.9980   59.7330 C   0  0  0  0  0  0  0  0  0  0  0  0
   39.0690   84.4600   60.8570 N   0  0  0  0  0  0  0  0  0  0  0  0
   38.8840   83.6970   61.9460 C   0  0  0  0  0  0  0  0  0  0  0  0
   39.3000   82.4060   61.9820 N   0  0  0  0  0  0  0  0  0  0  0  0
   40.5850   82.2660   58.9090 H   0  0  0  0  0  0  0  0  0  0  0  0
   39.8470   84.5690   58.8350 H   0  0  0  0  0  0  0  0  0  0  0  0
   38.3890   84.2200   62.7410 H   0  0  0  0  0  0  0  0  0  0  0  0
   40.3380   80.4990   60.9840 C   0  0  0  0  0  0  0  0  0  0  0  0
   40.7420   80.0110   62.1960 C   0  0  0  0  0  0  0  0  0  0  0  0
   40.7690   80.5830   63.1180 H   0  0  0  0  0  0  0  0  0  0  0  0
   41.1750   78.6920   62.3680 C   0  0  0  0  0  3  0  0  0  0  0  0
   41.2030   77.8250   61.2820 C   0  0  0  0  0  0  0  0  0  0  0  0
   41.5200   76.7970   61.3250 H   0  0  0  0  0  0  0  0  0  0  0  0
   40.7960   78.3120   60.0580 C   0  0  0  0  0  0  0  0  0  0  0  0
   40.7950   77.6790   59.1630 H   0  0  0  0  0  0  0  0  0  0  0  0
   40.3770   79.6150   59.9270 C   0  0  0  0  0  3  0  0  0  0  0  0
  1 10  1  0  0  0  0
  1  6  1  0  0  0  0
  2  1  2  0  0  0  0
  3  2  1  0  0  0  0
  3  4  2  0  0  0  0
  4  5  1  0  0  0  0
  5  6  2  0  0  0  0
  5  9  1  0  0  0  0
  7  2  1  0  0  0  0
  8  3  1  0  0  0  0
 10 11  1  0  0  0  0
 11 13  2  0  0  0  0
 11 12  1  0  0  0  0
 14 15  1  0  0  0  0
 14 13  1  0  0  0  0
 16 14  2  0  0  0  0
 17 16  1  0  0  0  0
 18 16  1  0  0  0  0
 18 10  2  0  0  0  0
M  END
>  <minimizedAffinity>
-4.59620953

>  <minimizedRMSD>
0.424607098

$$$$
