
 OpenBabel03212520443D

 18 19  0  0  0  0  0  0  0  0999 V2000
   39.9080   81.8230   60.9490 C   0  0  0  0  0  0  0  0  0  0  0  0
   40.1090   82.6270   59.8190 C   0  0  0  0  0  0  0  0  0  0  0  0
   39.6710   83.9500   59.8100 C   0  0  0  0  0  0  0  0  0  0  0  0
   39.0560   84.3890   60.9390 N   0  0  0  0  0  0  0  0  0  0  0  0
   38.8710   83.6050   62.0140 C   0  0  0  0  0  0  0  0  0  0  0  0
   39.2960   82.3170   62.0290 N   0  0  0  0  0  0  0  0  0  0  0  0
   40.5950   82.2380   58.9600 H   0  0  0  0  0  0  0  0  0  0  0  0
   39.8430   84.5370   58.9220 H   0  0  0  0  0  0  0  0  0  0  0  0
   38.3700   84.1120   62.8150 H   0  0  0  0  0  0  0  0  0  0  0  0
   40.3500   80.4340   61.0030 C   0  0  0  0  0  0  0  0  0  0  0  0
   40.7770   79.9360   62.2040 C   0  0  0  0  0  0  0  0  0  0  0  0
   40.8140   80.4990   63.1310 H   0  0  0  0  0  0  0  0  0  0  0  0
   41.2190   78.6180   62.3550 C   0  0  0  0  0  3  0  0  0  0  0  0
   41.2340   77.7620   61.2600 C   0  0  0  0  0  0  0  0  0  0  0  0
   41.5580   76.7360   61.2870 H   0  0  0  0  0  0  0  0  0  0  0  0
   40.8050   78.2590   60.0480 C   0  0  0  0  0  0  0  0  0  0  0  0
   40.7920   77.6350   59.1450 H   0  0  0  0  0  0  0  0  0  0  0  0
   40.3770   79.5610   59.9380 C   0  0  0  0  0  3  0  0  0  0  0  0
  1 10  1  0  0  0  0
  1  6  1  0  0  0  0
  2  1  2  0  0  0  0
  3  2  1  0  0  0  0
  3  4  2  0  0  0  0
  4  5  1  0  0  0  0
  5  6  2  0  0  0  0
  5  9  1  0  0  0  0
  7  2  1  0  0  0  0
  8  3  1  0  0  0  0
 10 11  1  0  0  0  0
 11 13  2  0  0  0  0
 11 12  1  0  0  0  0
 14 15  1  0  0  0  0
 14 13  1  0  0  0  0
 16 14  2  0  0  0  0
 17 16  1  0  0  0  0
 18 16  1  0  0  0  0
 18 10  2  0  0  0  0
M  END
>  <minimizedAffinity>
-4.5979023

>  <minimizedRMSD>
0.823888659

$$$$
