
 OpenBabel03212519593D

 18 19  0  0  0  0  0  0  0  0999 V2000
   42.4620   84.6120   58.1390 C   0  0  0  0  0  0  0  0  0  0  0  0
   43.4480   85.6040   58.0740 C   0  0  0  0  0  0  0  0  0  0  0  0
   43.8610   86.2060   59.2760 C   0  0  0  0  0  0  0  0  0  0  0  0
   43.2750   85.7850   60.4240 N   0  0  0  0  0  0  0  0  0  0  0  0
   42.3220   84.8190   60.4550 C   0  0  0  0  0  0  0  0  0  0  0  0
   41.9200   84.2390   59.3180 N   0  0  0  0  0  0  0  0  0  0  0  0
   42.2020   84.2030   57.1840 H   0  0  0  0  0  0  0  0  0  0  0  0
   43.9420   85.9770   57.2120 H   0  0  0  0  0  0  0  0  0  0  0  0
   44.5870   86.9700   59.4350 H   0  0  0  0  0  0  0  0  0  0  0  0
   41.7350   84.4140   61.7260 C   0  0  0  0  0  0  0  0  0  0  0  0
   42.4620   84.5840   62.9010 C   0  0  0  0  0  0  0  0  0  0  0  0
   43.4500   85.0190   62.8080 H   0  0  0  0  0  0  0  0  0  0  0  0
   41.9580   84.2180   64.1310 C   0  0  0  0  0  0  0  0  0  0  0  0
   40.6780   83.6610   64.2020 C   0  0  0  0  0  0  0  0  0  0  0  0
   40.3100   83.3840   65.1780 H   0  0  0  0  0  0  0  0  0  0  0  0
   39.9470   83.4900   63.0220 C   0  0  0  0  0  0  0  0  0  0  0  0
   38.9490   83.0530   63.1030 H   0  0  0  0  0  0  0  0  0  0  0  0
   40.4570   83.8590   61.7860 C   0  0  0  0  0  0  0  0  0  0  0  0
  1  6  1  0  0  0  0
  2  1  2  0  0  0  0
  2  3  1  0  0  0  0
  3  9  1  0  0  0  0
  3  4  2  0  0  0  0
  4  5  1  0  0  0  0
  5 10  1  0  0  0  0
  6  5  2  0  0  0  0
  7  1  1  0  0  0  0
  8  2  1  0  0  0  0
 10 18  2  0  0  0  0
 10 11  1  0  0  0  0
 11 13  2  0  0  0  0
 12 11  1  0  0  0  0
 13 14  1  0  0  0  0
 14 15  1  0  0  0  0
 16 17  1  0  0  0  0
 16 14  2  0  0  0  0
 18 16  1  0  0  0  0
M  END
>  <minimizedAffinity>
-4.01747084

>  <minimizedRMSD>
4.23953152

$$$$
