
 OpenBabel03212520243D

 18 19  0  0  0  0  0  0  0  0999 V2000
   38.8930   77.6320   55.2380 C   0  0  0  0  0  0  0  0  0  0  0  0
   39.2830   77.1520   56.5180 C   0  0  0  0  0  0  0  0  0  0  0  0
   38.3550   76.4140   57.2510 C   0  0  0  0  0  0  0  0  0  0  0  0
   37.1310   76.1870   56.7130 N   0  0  0  0  0  0  0  0  0  0  0  0
   36.7950   76.6650   55.4810 C   0  0  0  0  0  0  0  0  0  0  0  0
   37.6670   77.3790   54.7510 N   0  0  0  0  0  0  0  0  0  0  0  0
   39.6750   78.1890   54.7550 H   0  0  0  0  0  0  0  0  0  0  0  0
   40.2510   77.3410   56.9260 H   0  0  0  0  0  0  0  0  0  0  0  0
   35.7990   76.4170   55.1680 H   0  0  0  0  0  0  0  0  0  0  0  0
   38.6400   75.8710   58.5730 C   0  0  0  0  0  0  0  0  0  0  0  0
   39.3970   76.6550   59.4190 C   0  0  0  0  0  0  0  0  0  0  0  0
   39.7760   77.6250   59.1490 H   0  0  0  0  0  0  0  0  0  0  0  0
   39.7290   76.2350   60.7080 C   0  0  0  0  0  3  0  0  0  0  0  0
   39.2630   74.9940   61.0940 C   0  0  0  0  0  0  0  0  0  0  0  0
   39.4870   74.6050   62.0920 H   0  0  0  0  0  0  0  0  0  0  0  0
   38.4940   74.1670   60.2730 C   0  0  0  0  0  0  0  0  0  0  0  0
   38.1390   73.2010   60.5960 H   0  0  0  0  0  0  0  0  0  0  0  0
   38.2090   74.6580   59.0100 C   0  0  0  0  0  3  0  0  0  0  0  0
  1  2  1  0  0  0  0
  2  8  1  0  0  0  0
  2  3  2  0  0  0  0
  3 10  1  0  0  0  0
  4  3  1  0  0  0  0
  5  4  2  0  0  0  0
  6  1  2  0  0  0  0
  6  5  1  0  0  0  0
  7  1  1  0  0  0  0
  9  5  1  0  0  0  0
 10 18  2  0  0  0  0
 10 11  1  0  0  0  0
 11 13  2  0  0  0  0
 12 11  1  0  0  0  0
 13 14  1  0  0  0  0
 14 15  1  0  0  0  0
 16 17  1  0  0  0  0
 16 14  2  0  0  0  0
 18 16  1  0  0  0  0
M  END
>  <minimizedAffinity>
-4.37787771

$$$$

 OpenBabel03212520243D

 18 19  0  0  0  0  0  0  0  0999 V2000
   38.5450   74.7190   54.8350 C   0  0  0  0  0  0  0  0  0  0  0  0
   38.9820   74.6900   56.1870 C   0  0  0  0  0  0  0  0  0  0  0  0
   38.2180   75.3650   57.1370 C   0  0  0  0  0  0  0  0  0  0  0  0
   37.0990   76.0140   56.7320 N   0  0  0  0  0  0  0  0  0  0  0  0
   36.7120   76.0190   55.4240 C   0  0  0  0  0  0  0  0  0  0  0  0
   37.4280   75.3770   54.4860 N   0  0  0  0  0  0  0  0  0  0  0  0
   39.2000   74.1720   54.1810 H   0  0  0  0  0  0  0  0  0  0  0  0
   39.8670   74.1740   56.4880 H   0  0  0  0  0  0  0  0  0  0  0  0
   35.8090   76.5670   55.2320 H   0  0  0  0  0  0  0  0  0  0  0  0
   38.5660   75.4060   58.5520 C   0  0  0  0  0  0  0  0  0  0  0  0
   38.1230   74.3590   59.3330 C   0  0  0  0  0  0  0  0  0  0  0  0
   37.5460   73.5350   58.9510 H   0  0  0  0  0  0  0  0  0  0  0  0
   38.4000   74.2950   60.7000 C   0  0  0  0  0  3  0  0  0  0  0  0
   39.1380   75.3340   61.2310 C   0  0  0  0  0  0  0  0  0  0  0  0
   39.3900   75.3450   62.2960 H   0  0  0  0  0  0  0  0  0  0  0  0
   39.6070   76.4130   60.4790 C   0  0  0  0  0  0  0  0  0  0  0  0
   40.1830   77.2130   60.9150 H   0  0  0  0  0  0  0  0  0  0  0  0
   39.2900   76.4000   59.1320 C   0  0  0  0  0  3  0  0  0  0  0  0
  1  2  1  0  0  0  0
  2  8  1  0  0  0  0
  2  3  2  0  0  0  0
  3 10  1  0  0  0  0
  4  3  1  0  0  0  0
  5  4  2  0  0  0  0
  6  1  2  0  0  0  0
  6  5  1  0  0  0  0
  7  1  1  0  0  0  0
  9  5  1  0  0  0  0
 10 18  2  0  0  0  0
 10 11  1  0  0  0  0
 11 13  2  0  0  0  0
 12 11  1  0  0  0  0
 13 14  1  0  0  0  0
 14 15  1  0  0  0  0
 16 17  1  0  0  0  0
 16 14  2  0  0  0  0
 18 16  1  0  0  0  0
M  END
>  <minimizedAffinity>
-4.34449911

$$$$

 OpenBabel03212520243D

 18 19  0  0  0  0  0  0  0  0999 V2000
   43.1020   70.5190   61.3830 C   0  0  0  0  0  0  0  0  0  0  0  0
   42.4350   71.6310   60.7990 C   0  0  0  0  0  0  0  0  0  0  0  0
   41.4160   72.2400   61.5290 C   0  0  0  0  0  0  0  0  0  0  0  0
   41.1090   71.7490   62.7550 N   0  0  0  0  0  0  0  0  0  0  0  0
   41.7730   70.6800   63.2810 C   0  0  0  0  0  0  0  0  0  0  0  0
   42.7590   70.0720   62.6020 N   0  0  0  0  0  0  0  0  0  0  0  0
   43.8690   70.1200   60.7440 H   0  0  0  0  0  0  0  0  0  0  0  0
   42.6900   72.0040   59.8320 H   0  0  0  0  0  0  0  0  0  0  0  0
   41.4370   70.3880   64.2580 H   0  0  0  0  0  0  0  0  0  0  0  0
   40.6620   73.3850   61.0350 C   0  0  0  0  0  0  0  0  0  0  0  0
   39.3180   73.4240   61.3390 C   0  0  0  0  0  0  0  0  0  0  0  0
   38.8160   72.6640   61.9110 H   0  0  0  0  0  0  0  0  0  0  0  0
   38.5000   74.4740   60.9170 C   0  0  0  0  0  3  0  0  0  0  0  0
   39.1050   75.4720   60.1800 C   0  0  0  0  0  0  0  0  0  0  0  0
   38.5210   76.3240   59.8180 H   0  0  0  0  0  0  0  0  0  0  0  0
   40.4620   75.4750   59.8480 C   0  0  0  0  0  0  0  0  0  0  0  0
   40.9130   76.2650   59.2710 H   0  0  0  0  0  0  0  0  0  0  0  0
   41.2020   74.3980   60.3050 C   0  0  0  0  0  3  0  0  0  0  0  0
  1  6  1  0  0  0  0
  2  1  2  0  0  0  0
  2  3  1  0  0  0  0
  3  4  2  0  0  0  0
  4  5  1  0  0  0  0
  5  9  1  0  0  0  0
  6  5  2  0  0  0  0
  7  1  1  0  0  0  0
  8  2  1  0  0  0  0
 10 11  1  0  0  0  0
 10  3  1  0  0  0  0
 11 12  1  0  0  0  0
 13 11  2  0  0  0  0
 14 13  1  0  0  0  0
 15 14  1  0  0  0  0
 16 14  2  0  0  0  0
 16 18  1  0  0  0  0
 17 16  1  0  0  0  0
 18 10  2  0  0  0  0
M  END
>  <minimizedAffinity>
-4.14902115

$$$$

 OpenBabel03212520243D

 18 19  0  0  0  0  0  0  0  0999 V2000
   36.7240   75.1880   55.8870 C   0  0  0  0  0  0  0  0  0  0  0  0
   37.3300   74.5970   57.0290 C   0  0  0  0  0  0  0  0  0  0  0  0
   38.1600   75.3930   57.8160 C   0  0  0  0  0  0  0  0  0  0  0  0
   38.3510   76.6870   57.4600 N   0  0  0  0  0  0  0  0  0  0  0  0
   37.7520   77.2180   56.3570 C   0  0  0  0  0  0  0  0  0  0  0  0
   36.9460   76.4760   55.5790 N   0  0  0  0  0  0  0  0  0  0  0  0
   36.1050   74.4950   55.3470 H   0  0  0  0  0  0  0  0  0  0  0  0
   37.1690   73.5750   57.2940 H   0  0  0  0  0  0  0  0  0  0  0  0
   37.9820   78.2520   56.1830 H   0  0  0  0  0  0  0  0  0  0  0  0
   38.8350   74.8970   59.0090 C   0  0  0  0  0  0  0  0  0  0  0  0
   40.1990   75.0940   59.0800 C   0  0  0  0  0  0  0  0  0  0  0  0
   40.7690   75.5840   58.3110 H   0  0  0  0  0  0  0  0  0  0  0  0
   40.9460   74.6600   60.1770 C   0  0  0  0  0  3  0  0  0  0  0  0
   40.2520   74.0260   61.1870 C   0  0  0  0  0  0  0  0  0  0  0  0
   40.7780   73.6610   62.0760 H   0  0  0  0  0  0  0  0  0  0  0  0
   38.8730   73.8060   61.1590 C   0  0  0  0  0  0  0  0  0  0  0  0
   38.3510   73.3070   61.9600 H   0  0  0  0  0  0  0  0  0  0  0  0
   38.2070   74.2650   60.0360 C   0  0  0  0  0  3  0  0  0  0  0  0
  1  2  1  0  0  0  0
  2  8  1  0  0  0  0
  2  3  2  0  0  0  0
  3 10  1  0  0  0  0
  4  3  1  0  0  0  0
  5  4  2  0  0  0  0
  6  1  2  0  0  0  0
  6  5  1  0  0  0  0
  7  1  1  0  0  0  0
  9  5  1  0  0  0  0
 10 11  2  0  0  0  0
 10 18  1  0  0  0  0
 11 13  1  0  0  0  0
 12 11  1  0  0  0  0
 13 14  2  0  0  0  0
 14 15  1  0  0  0  0
 16 14  1  0  0  0  0
 16 17  1  0  0  0  0
 18 16  2  0  0  0  0
M  END
>  <minimizedAffinity>
-4.13083363

$$$$

 OpenBabel03212520243D

 18 19  0  0  0  0  0  0  0  0999 V2000
   39.2100   76.7040   58.4340 C   0  0  0  0  0  0  0  0  0  0  0  0
   40.1810   76.0600   59.2480 C   0  0  0  0  0  0  0  0  0  0  0  0
   40.0120   74.7030   59.5190 C   0  0  0  0  0  0  0  0  0  0  0  0
   38.9370   74.0630   58.9980 N   0  0  0  0  0  0  0  0  0  0  0  0
   38.0260   74.7170   58.2210 C   0  0  0  0  0  0  0  0  0  0  0  0
   38.1620   76.0240   57.9410 N   0  0  0  0  0  0  0  0  0  0  0  0
   39.4270   77.7460   58.2840 H   0  0  0  0  0  0  0  0  0  0  0  0
   41.0220   76.5800   59.6500 H   0  0  0  0  0  0  0  0  0  0  0  0
   37.2210   74.1000   57.8680 H   0  0  0  0  0  0  0  0  0  0  0  0
   40.9410   73.9370   60.3400 C   0  0  0  0  0  0  0  0  0  0  0  0
   40.4120   73.2770   61.4290 C   0  0  0  0  0  0  0  0  0  0  0  0
   39.3690   73.3050   61.6910 H   0  0  0  0  0  0  0  0  0  0  0  0
   41.2100   72.5140   62.2830 C   0  0  0  0  0  3  0  0  0  0  0  0
   42.5550   72.4530   61.9830 C   0  0  0  0  0  0  0  0  0  0  0  0
   43.2370   71.8710   62.6120 H   0  0  0  0  0  0  0  0  0  0  0  0
   43.1350   73.1030   60.8910 C   0  0  0  0  0  0  0  0  0  0  0  0
   44.1900   73.0400   60.6750 H   0  0  0  0  0  0  0  0  0  0  0  0
   42.2750   73.8390   60.0950 C   0  0  0  0  0  3  0  0  0  0  0  0
  1  2  1  0  0  0  0
  2  3  2  0  0  0  0
  2  8  1  0  0  0  0
  3 10  1  0  0  0  0
  4  3  1  0  0  0  0
  5  4  2  0  0  0  0
  6  5  1  0  0  0  0
  6  1  2  0  0  0  0
  7  1  1  0  0  0  0
  9  5  1  0  0  0  0
 10 11  1  0  0  0  0
 11 12  1  0  0  0  0
 11 13  2  0  0  0  0
 14 13  1  0  0  0  0
 14 15  1  0  0  0  0
 16 14  2  0  0  0  0
 17 16  1  0  0  0  0
 18 10  2  0  0  0  0
 18 16  1  0  0  0  0
M  END
>  <minimizedAffinity>
-4.05840731

$$$$

 OpenBabel03212520243D

 18 19  0  0  0  0  0  0  0  0999 V2000
   40.9630   66.1430   63.3720 C   0  0  0  0  0  0  0  0  0  0  0  0
   41.1270   67.5540   63.3070 C   0  0  0  0  0  0  0  0  0  0  0  0
   41.8910   68.0770   62.2660 C   0  0  0  0  0  0  0  0  0  0  0  0
   42.4410   67.2240   61.3670 N   0  0  0  0  0  0  0  0  0  0  0  0
   42.2610   65.8750   61.4630 C   0  0  0  0  0  0  0  0  0  0  0  0
   41.5290   65.3410   62.4550 N   0  0  0  0  0  0  0  0  0  0  0  0
   40.3600   65.8390   64.2080 H   0  0  0  0  0  0  0  0  0  0  0  0
   40.6860   68.2110   64.0240 H   0  0  0  0  0  0  0  0  0  0  0  0
   42.7460   65.3090   60.6920 H   0  0  0  0  0  0  0  0  0  0  0  0
   42.1280   69.5050   62.0970 C   0  0  0  0  0  0  0  0  0  0  0  0
   42.9280   69.8830   61.0380 C   0  0  0  0  0  0  0  0  0  0  0  0
   43.3720   69.1850   60.3510 H   0  0  0  0  0  0  0  0  0  0  0  0
   43.2210   71.2240   60.7820 C   0  0  0  0  0  3  0  0  0  0  0  0
   42.6700   72.1530   61.6420 C   0  0  0  0  0  0  0  0  0  0  0  0
   42.8600   73.2220   61.4970 H   0  0  0  0  0  0  0  0  0  0  0  0
   41.8550   71.8170   62.7250 C   0  0  0  0  0  0  0  0  0  0  0  0
   41.4350   72.5600   63.3840 H   0  0  0  0  0  0  0  0  0  0  0  0
   41.6140   70.4670   62.9090 C   0  0  0  0  0  3  0  0  0  0  0  0
  1  7  1  0  0  0  0
  2  1  1  0  0  0  0
  2  8  1  0  0  0  0
  3  2  2  0  0  0  0
  4  5  2  0  0  0  0
  4  3  1  0  0  0  0
  5  6  1  0  0  0  0
  6  1  2  0  0  0  0
  9  5  1  0  0  0  0
 10  3  1  0  0  0  0
 10 18  1  0  0  0  0
 11 10  2  0  0  0  0
 12 11  1  0  0  0  0
 13 11  1  0  0  0  0
 13 14  2  0  0  0  0
 14 16  1  0  0  0  0
 15 14  1  0  0  0  0
 16 18  2  0  0  0  0
 16 17  1  0  0  0  0
M  END
>  <minimizedAffinity>
-4.01268196

$$$$

 OpenBabel03212520243D

 18 19  0  0  0  0  0  0  0  0999 V2000
   40.3750   75.4200   59.8610 C   0  0  0  0  0  0  0  0  0  0  0  0
   41.2190   74.3480   60.2590 C   0  0  0  0  0  0  0  0  0  0  0  0
   40.6670   73.3370   61.0440 C   0  0  0  0  0  0  0  0  0  0  0  0
   39.3590   73.4200   61.3900 N   0  0  0  0  0  0  0  0  0  0  0  0
   38.5810   74.4660   60.9880 C   0  0  0  0  0  0  0  0  0  0  0  0
   39.0840   75.4550   60.2310 N   0  0  0  0  0  0  0  0  0  0  0  0
   40.8920   76.1470   59.2610 H   0  0  0  0  0  0  0  0  0  0  0  0
   42.2480   74.2980   59.9770 H   0  0  0  0  0  0  0  0  0  0  0  0
   37.5640   74.4160   61.3260 H   0  0  0  0  0  0  0  0  0  0  0  0
   41.4340   72.1890   61.5120 C   0  0  0  0  0  0  0  0  0  0  0  0
   42.3960   71.6920   60.6580 C   0  0  0  0  0  0  0  0  0  0  0  0
   42.5980   72.1050   59.6860 H   0  0  0  0  0  0  0  0  0  0  0  0
   43.1890   70.5960   61.0050 C   0  0  0  0  0  3  0  0  0  0  0  0
   42.9610   70.0350   62.2450 C   0  0  0  0  0  0  0  0  0  0  0  0
   43.5490   69.1730   62.5790 H   0  0  0  0  0  0  0  0  0  0  0  0
   42.0000   70.5050   63.1420 C   0  0  0  0  0  0  0  0  0  0  0  0
   41.8390   70.0500   64.1070 H   0  0  0  0  0  0  0  0  0  0  0  0
   41.2560   71.5940   62.7220 C   0  0  0  0  0  3  0  0  0  0  0  0
  1  6  2  0  0  0  0
  1  2  1  0  0  0  0
  2  3  2  0  0  0  0
  3  4  1  0  0  0  0
  3 10  1  0  0  0  0
  5  9  1  0  0  0  0
  5  4  2  0  0  0  0
  6  5  1  0  0  0  0
  7  1  1  0  0  0  0
  8  2  1  0  0  0  0
 10 18  1  0  0  0  0
 11 13  1  0  0  0  0
 11 10  2  0  0  0  0
 12 11  1  0  0  0  0
 13 14  2  0  0  0  0
 14 15  1  0  0  0  0
 14 16  1  0  0  0  0
 16 17  1  0  0  0  0
 18 16  2  0  0  0  0
M  END
>  <minimizedAffinity>
-4.00457287

$$$$

 OpenBabel03212520243D

 18 19  0  0  0  0  0  0  0  0999 V2000
   39.8150   76.0460   60.8640 C   0  0  0  0  0  0  0  0  0  0  0  0
   39.4370   76.5620   59.5940 C   0  0  0  0  0  0  0  0  0  0  0  0
   38.6720   75.7510   58.7580 C   0  0  0  0  0  0  0  0  0  0  0  0
   38.3240   74.5140   59.1900 N   0  0  0  0  0  0  0  0  0  0  0  0
   38.7060   74.0530   60.4160 C   0  0  0  0  0  0  0  0  0  0  0  0
   39.4430   74.8120   61.2430 N   0  0  0  0  0  0  0  0  0  0  0  0
   40.4020   76.7440   61.4310 H   0  0  0  0  0  0  0  0  0  0  0  0
   39.7200   77.5390   59.2700 H   0  0  0  0  0  0  0  0  0  0  0  0
   38.3670   73.0600   60.6400 H   0  0  0  0  0  0  0  0  0  0  0  0
   38.2260   76.1720   57.4360 C   0  0  0  0  0  0  0  0  0  0  0  0
   37.2460   75.4090   56.8370 C   0  0  0  0  0  0  0  0  0  0  0  0
   36.8090   74.5380   57.2930 H   0  0  0  0  0  0  0  0  0  0  0  0
   36.7440   75.7210   55.5720 C   0  0  0  0  0  3  0  0  0  0  0  0
   37.2790   76.8310   54.9510 C   0  0  0  0  0  0  0  0  0  0  0  0
   36.9290   77.1310   53.9570 H   0  0  0  0  0  0  0  0  0  0  0  0
   38.2710   77.6330   55.5180 C   0  0  0  0  0  0  0  0  0  0  0  0
   38.6740   78.4970   55.0150 H   0  0  0  0  0  0  0  0  0  0  0  0
   38.7130   77.2550   56.7740 C   0  0  0  0  0  3  0  0  0  0  0  0
  1  6  1  0  0  0  0
  1  7  1  0  0  0  0
  2  1  2  0  0  0  0
  3  4  2  0  0  0  0
  3  2  1  0  0  0  0
  4  5  1  0  0  0  0
  5  9  1  0  0  0  0
  5  6  2  0  0  0  0
  8  2  1  0  0  0  0
 10  3  1  0  0  0  0
 11 12  1  0  0  0  0
 11 10  1  0  0  0  0
 13 11  2  0  0  0  0
 14 16  2  0  0  0  0
 14 13  1  0  0  0  0
 15 14  1  0  0  0  0
 16 18  1  0  0  0  0
 17 16  1  0  0  0  0
 18 10  2  0  0  0  0
M  END
>  <minimizedAffinity>
-3.93816328

$$$$

 OpenBabel03212520243D

 18 19  0  0  0  0  0  0  0  0999 V2000
   40.5380   75.8190   59.8540 C   0  0  0  0  0  0  0  0  0  0  0  0
   41.2740   74.6250   60.0870 C   0  0  0  0  0  0  0  0  0  0  0  0
   40.6770   73.6270   60.8550 C   0  0  0  0  0  0  0  0  0  0  0  0
   39.4290   73.8380   61.3420 N   0  0  0  0  0  0  0  0  0  0  0  0
   38.7550   74.9980   61.0970 C   0  0  0  0  0  0  0  0  0  0  0  0
   39.3040   75.9780   60.3600 N   0  0  0  0  0  0  0  0  0  0  0  0
   41.0830   76.5250   59.2540 H   0  0  0  0  0  0  0  0  0  0  0  0
   42.2560   74.4760   59.6960 H   0  0  0  0  0  0  0  0  0  0  0  0
   37.7770   75.0430   61.5360 H   0  0  0  0  0  0  0  0  0  0  0  0
   41.3330   72.3620   61.1610 C   0  0  0  0  0  0  0  0  0  0  0  0
   41.5970   72.1020   62.4890 C   0  0  0  0  0  0  0  0  0  0  0  0
   41.3460   72.7780   63.2880 H   0  0  0  0  0  0  0  0  0  0  0  0
   42.2210   70.9220   62.8960 C   0  0  0  0  0  3  0  0  0  0  0  0
   42.5610   70.0270   61.9010 C   0  0  0  0  0  0  0  0  0  0  0  0
   43.0530   69.0810   62.1520 H   0  0  0  0  0  0  0  0  0  0  0  0
   42.3130   70.2470   60.5450 C   0  0  0  0  0  0  0  0  0  0  0  0
   42.5870   69.5340   59.7840 H   0  0  0  0  0  0  0  0  0  0  0  0
   41.6910   71.4420   60.2260 C   0  0  0  0  0  3  0  0  0  0  0  0
  1  2  2  0  0  0  0
  1  6  1  0  0  0  0
  2  3  1  0  0  0  0
  3 10  1  0  0  0  0
  3  4  2  0  0  0  0
  5  4  1  0  0  0  0
  5  9  1  0  0  0  0
  6  5  2  0  0  0  0
  7  1  1  0  0  0  0
  8  2  1  0  0  0  0
 10 11  1  0  0  0  0
 11 13  2  0  0  0  0
 11 12  1  0  0  0  0
 14 15  1  0  0  0  0
 14 13  1  0  0  0  0
 16 14  2  0  0  0  0
 17 16  1  0  0  0  0
 18 16  1  0  0  0  0
 18 10  2  0  0  0  0
M  END
>  <minimizedAffinity>
-3.85279107

$$$$
