
 OpenBabel03212520443D

 18 19  0  0  0  0  0  0  0  0999 V2000
   40.3130   82.0460   61.2880 C   0  0  0  0  0  0  0  0  0  0  0  0
   40.4290   82.7440   60.0780 C   0  0  0  0  0  0  0  0  0  0  0  0
   39.7150   83.9230   59.8750 C   0  0  0  0  0  0  0  0  0  0  0  0
   38.9250   84.3340   60.9020 N   0  0  0  0  0  0  0  0  0  0  0  0
   38.8260   83.6530   62.0550 C   0  0  0  0  0  0  0  0  0  0  0  0
   39.5180   82.5040   62.2580 N   0  0  0  0  0  0  0  0  0  0  0  0
   41.0590   82.3830   59.3050 H   0  0  0  0  0  0  0  0  0  0  0  0
   39.8300   84.4320   58.9310 H   0  0  0  0  0  0  0  0  0  0  0  0
   38.1590   84.1190   62.7550 H   0  0  0  0  0  0  0  0  0  0  0  0
   41.0410   80.8090   61.5430 C   0  0  0  0  0  0  0  0  0  0  0  0
   40.3210   79.6690   61.7770 C   0  0  0  0  0  0  0  0  0  0  0  0
   39.2360   79.6110   61.7890 H   0  0  0  0  0  0  0  0  0  0  0  0
   40.9280   78.4350   62.0330 C   0  0  0  0  0  3  0  0  0  0  0  0
   42.3140   78.3370   62.0530 C   0  0  0  0  0  0  0  0  0  0  0  0
   42.8640   77.4290   62.2400 H   0  0  0  0  0  0  0  0  0  0  0  0
   43.0460   79.4820   61.8180 C   0  0  0  0  0  0  0  0  0  0  0  0
   44.1420   79.4720   61.8200 H   0  0  0  0  0  0  0  0  0  0  0  0
   42.4120   80.6780   61.5710 C   0  0  0  0  0  3  0  0  0  0  0  0
  1 10  1  0  0  0  0
  1  6  1  0  0  0  0
  2  1  2  0  0  0  0
  3  2  1  0  0  0  0
  3  4  2  0  0  0  0
  4  5  1  0  0  0  0
  5  6  2  0  0  0  0
  5  9  1  0  0  0  0
  7  2  1  0  0  0  0
  8  3  1  0  0  0  0
 10 18  2  0  0  0  0
 10 11  1  0  0  0  0
 11 12  1  0  0  0  0
 11 13  2  0  0  0  0
 13 14  1  0  0  0  0
 14 15  1  0  0  0  0
 16 17  1  0  0  0  0
 16 14  2  0  0  0  0
 18 16  1  0  0  0  0
M  END
>  <minimizedAffinity>
-4.58226013

>  <minimizedRMSD>
0.84727788

$$$$
