
 OpenBabel03212520473D

 26 27  0  0  0  0  0  0  0  0999 V2000
   42.2860   84.3000   62.2060 C   0  0  0  0  0  0  0  0  0  0  0  0
   42.1180   84.7800   63.4780 C   0  0  0  0  0  0  0  0  0  0  0  0
   41.2340   84.2020   64.3880 C   0  0  0  0  0  0  0  0  0  0  0  0
   40.5120   83.1300   64.0150 N   0  0  0  0  0  0  0  0  0  0  0  0
   40.6740   82.6510   62.7590 C   0  0  0  0  0  0  0  0  0  0  0  0
   41.5430   83.2230   61.8710 N   0  0  0  0  0  0  0  0  0  0  0  0
   42.6870   85.6440   63.8060 H   0  0  0  0  0  0  0  0  0  0  0  0
   41.1550   84.6420   65.3830 H   0  0  0  0  0  0  0  0  0  0  0  0
   45.3720   85.3370   60.5470 C   0  0  0  0  0  0  0  0  0  0  0  0
   44.8720   86.0320   59.4270 C   0  0  0  0  0  0  0  0  0  0  0  0
   43.5010   86.1350   59.2550 C   0  0  0  0  0  0  0  0  0  0  0  0
   42.7100   85.5460   60.2020 N   0  0  0  0  0  0  0  0  0  0  0  0
   43.2080   84.8980   61.2480 C   0  0  0  0  0  0  0  0  0  0  0  0
   44.5290   84.7810   61.4400 N   0  0  0  0  0  0  0  0  0  0  0  0
   46.7910   85.3010   60.6110 N   0  0  0  0  0  0  0  0  0  0  0  0
   45.5200   86.4890   58.6930 H   0  0  0  0  0  0  0  0  0  0  0  0
   43.1160   86.6590   58.4090 H   0  0  0  0  0  0  0  0  0  0  0  0
   47.3790   85.2430   59.7700 H   0  0  0  0  0  0  0  0  0  0  0  0
   47.2560   85.3360   61.5640 H   0  0  0  0  0  0  0  0  0  0  0  0
   40.0090   81.5640   62.2320 O   0  0  0  0  0  0  0  0  0  0  0  0
   40.2090   79.6210   60.5370 O   0  0  0  0  0  0  0  0  0  0  0  0
   40.7600   80.0680   61.8870 P   0  0  0  0  0  0  0  0  0  0  0  0
   40.3200   78.8820   63.0210 O   0  0  0  0  0  0  0  0  0  0  0  0
   39.9250   79.3330   63.8050 H   0  0  0  0  0  0  0  0  0  0  0  0
   42.4240   80.2340   61.8460 O   0  0  0  0  0  0  0  0  0  0  0  0
   42.8210   79.4550   62.2830 H   0  0  0  0  0  0  0  0  0  0  0  0
  1  2  1  0  0  0  0
  2  7  1  0  0  0  0
  2  3  2  0  0  0  0
  3  8  1  0  0  0  0
  4  3  1  0  0  0  0
  5  4  2  0  0  0  0
  6  1  2  0  0  0  0
  6  5  1  0  0  0  0
  9 15  1  0  0  0  0
  9 14  1  0  0  0  0
 10  9  2  0  0  0  0
 11 10  1  0  0  0  0
 11 12  2  0  0  0  0
 12 13  1  0  0  0  0
 13 14  2  0  0  0  0
 13  1  1  0  0  0  0
 15 19  1  0  0  0  0
 16 10  1  0  0  0  0
 17 11  1  0  0  0  0
 18 15  1  0  0  0  0
 20  5  1  0  0  0  0
 21 22  2  0  0  0  0
 22 20  1  0  0  0  0
 22 23  1  0  0  0  0
 23 24  1  0  0  0  0
 25 22  1  0  0  0  0
 25 26  1  0  0  0  0
M  END
>  <minimizedAffinity>
-5.37652445

>  <minimizedRMSD>
1.97448337

$$$$
