
 OpenBabel03212520363D

 24 25  0  0  1  0  0  0  0  0999 V2000
   43.1840   85.8600   60.3600 C   0  0  1  0  0  0  0  0  0  0  0  0
   44.5200   86.3640   59.8460 C   0  0  0  0  0  0  0  0  0  0  0  0
   43.5570   85.6230   58.9470 C   0  0  2  0  0  0  0  0  0  0  0  0
   42.4330   86.6260   60.6490 H   0  0  0  0  0  0  0  0  0  0  0  0
   45.4510   85.8480   60.1520 H   0  0  0  0  0  0  0  0  0  0  0  0
   44.5970   87.4480   59.8090 H   0  0  0  0  0  0  0  0  0  0  0  0
   43.8580   84.6040   58.6460 H   0  0  0  0  0  0  0  0  0  0  0  0
   43.3310   84.7860   61.2770 O   0  0  0  0  0  0  0  0  0  0  0  0
   40.2300   83.4270   62.5660 C   0  0  0  0  0  0  0  0  0  0  0  0
   40.3420   83.7200   63.9220 C   0  0  0  0  0  0  0  0  0  0  0  0
   41.4970   84.3890   64.3800 C   0  0  0  0  0  0  0  0  0  0  0  0
   42.4150   84.6930   63.4330 N   0  0  0  0  0  0  0  0  0  0  0  0
   42.3010   84.4070   62.1260 C   0  0  0  0  0  0  0  0  0  0  0  0
   41.2100   83.7720   61.6810 N   0  0  0  0  0  0  0  0  0  0  0  0
   39.3470   82.9110   62.1990 H   0  0  0  0  0  0  0  0  0  0  0  0
   39.5630   83.4470   64.6340 H   0  0  0  0  0  0  0  0  0  0  0  0
   41.5940   84.6190   65.4130 H   0  0  0  0  0  0  0  0  0  0  0  0
   42.8510   86.2970   57.9780 O   0  0  0  0  0  0  0  0  0  0  0  0
   41.1500   84.2450   58.0880 O   0  0  0  0  0  0  0  0  0  0  0  0
   41.5660   85.4670   57.3190 P   0  0  0  0  0  0  0  0  0  0  0  0
   41.9870   85.1010   55.7130 O   0  0  0  0  0  0  0  0  0  0  0  0
   42.0620   85.9680   55.2410 H   0  0  0  0  0  0  0  0  0  0  0  0
   40.2050   86.4870   57.2500 O   0  0  0  0  0  0  0  0  0  0  0  0
   39.6030   86.0760   56.5650 H   0  0  0  0  0  0  0  0  0  0  0  0
  1  4  1  1  0  0  0
  1  8  1  0  0  0  0
  2  5  1  0  0  0  0
  2  1  1  0  0  0  0
  3  7  1  6  0  0  0
  3  2  1  0  0  0  0
  3  1  1  0  0  0  0
  6  2  1  0  0  0  0
  8 13  1  0  0  0  0
  9 10  1  0  0  0  0
 10 11  2  0  0  0  0
 10 16  1  0  0  0  0
 11 17  1  0  0  0  0
 12 11  1  0  0  0  0
 13 12  2  0  0  0  0
 14 13  1  0  0  0  0
 14  9  2  0  0  0  0
 15  9  1  0  0  0  0
 18  3  1  0  0  0  0
 20 18  1  0  0  0  0
 20 19  2  0  0  0  0
 21 20  1  0  0  0  0
 22 21  1  0  0  0  0
 23 20  1  0  0  0  0
 24 23  1  0  0  0  0
M  END
>  <minimizedAffinity>
-4.47475004

>  <minimizedRMSD>
0.981797934

$$$$
