
 OpenBabel03212520583D

 40 43  0  0  1  0  0  0  0  0999 V2000
   39.7510   77.4010   59.2400 C   0  0  0  0  0  0  0  0  0  0  0  0
   40.3890   76.2300   59.0140 C   0  0  0  0  0  0  0  0  0  0  0  0
   39.8380   75.5140   57.9390 C   0  0  0  0  0  0  0  0  0  0  0  0
   38.7890   75.9430   57.2080 N   0  0  0  0  0  0  0  0  0  0  0  0
   38.2190   77.1430   57.5240 C   0  0  0  0  0  0  0  0  0  0  0  0
   38.7090   77.8770   58.5500 N   0  0  0  0  0  0  0  0  0  0  0  0
   41.2170   75.8420   59.5550 H   0  0  0  0  0  0  0  0  0  0  0  0
   40.2380   74.5480   57.6260 H   0  0  0  0  0  0  0  0  0  0  0  0
   40.9720   80.3530   61.7790 C   0  0  0  0  0  0  0  0  0  0  0  0
   40.9670   79.1200   62.3790 C   0  0  0  0  0  0  0  0  0  0  0  0
   40.5840   78.0550   61.6490 C   0  0  0  0  0  0  0  0  0  0  0  0
   40.2100   78.2510   60.3220 C   0  0  0  0  0  0  0  0  0  0  0  0
   40.4100   80.0580   60.0760 S   0  0  0  0  0  0  0  0  0  0  0  0
   41.2620   78.9700   63.4210 H   0  0  0  0  0  0  0  0  0  0  0  0
   40.5120   77.0130   61.9290 H   0  0  0  0  0  0  0  0  0  0  0  0
   43.0570   83.1540   62.9050 C   0  0  0  0  0  0  0  0  0  0  0  0
   42.1570   83.9160   63.6970 C   0  0  0  0  0  0  0  0  0  0  0  0
   40.8450   83.4690   63.8380 C   0  0  0  0  0  0  0  0  0  0  0  0
   40.4750   82.3210   63.2120 N   0  0  0  0  0  0  0  0  0  0  0  0
   41.3700   81.6150   62.4590 C   0  0  0  0  0  0  0  0  0  0  0  0
   42.6280   82.0340   62.3170 N   0  0  0  0  0  0  0  0  0  0  0  0
   44.0410   83.5530   62.8420 H   0  0  0  0  0  0  0  0  0  0  0  0
   42.4170   84.8390   64.2130 H   0  0  0  0  0  0  0  0  0  0  0  0
   40.0960   83.9870   64.4210 H   0  0  0  0  0  0  0  0  0  0  0  0
   37.1000   77.5860   56.7170 C   0  0  0  0  0  0  0  0  0  0  0  0
   35.9670   77.2110   57.0570 O   0  0  0  0  0  0  0  0  0  0  0  0
   37.2840   78.4630   55.4990 C   0  0  1  0  0  0  0  0  0  0  0  0
   37.3320   79.9330   55.8380 C   0  0  0  0  0  0  0  0  0  0  0  0
   38.5000   79.2240   55.3290 C   0  0  2  0  0  0  0  0  0  0  0  0
   36.5150   78.2610   54.7240 H   0  0  0  0  0  0  0  0  0  0  0  0
   37.3330   80.2620   56.9000 H   0  0  0  0  0  0  0  0  0  0  0  0
   36.6940   80.5810   55.2150 H   0  0  0  0  0  0  0  0  0  0  0  0
   39.3280   78.9950   56.0580 H   0  0  0  0  0  0  0  0  0  0  0  0
   39.0100   79.4300   54.0530 O   0  0  0  0  0  0  0  0  0  0  0  0
   41.0720   78.6510   52.6980 O   0  0  0  0  0  0  0  0  0  0  0  0
   39.8730   78.1240   53.4700 P   0  0  0  0  0  0  0  0  0  0  0  0
   40.3540   77.0420   54.6780 O   0  0  0  0  0  0  0  0  0  0  0  0
   40.6580   77.6170   55.4500 H   0  0  0  0  0  0  0  0  0  0  0  0
   38.9350   77.2460   52.3450 O   0  0  0  0  0  0  0  0  0  0  0  0
   39.4820   76.5150   51.9670 H   0  0  0  0  0  0  0  0  0  0  0  0
  1 12  1  0  0  0  0
  2  1  1  0  0  0  0
  2  7  1  0  0  0  0
  3  2  2  0  0  0  0
  4  5  2  0  0  0  0
  4  3  1  0  0  0  0
  5  6  1  0  0  0  0
  6  1  2  0  0  0  0
  8  3  1  0  0  0  0
  9 10  2  0  0  0  0
  9 20  1  0  0  0  0
 10 14  1  0  0  0  0
 11 15  1  0  0  0  0
 11 10  1  0  0  0  0
 12 11  2  0  0  0  0
 13 12  1  0  0  0  0
 13  9  1  0  0  0  0
 16 17  1  0  0  0  0
 17 18  2  0  0  0  0
 17 23  1  0  0  0  0
 18 24  1  0  0  0  0
 19 18  1  0  0  0  0
 20 19  2  0  0  0  0
 21 20  1  0  0  0  0
 21 16  2  0  0  0  0
 22 16  1  0  0  0  0
 25 26  2  0  0  0  0
 25  5  1  0  0  0  0
 27 30  1  6  0  0  0
 27 28  1  0  0  0  0
 27 25  1  0  0  0  0
 28 31  1  0  0  0  0
 29 27  1  0  0  0  0
 29 28  1  0  0  0  0
 29 33  1  1  0  0  0
 32 28  1  0  0  0  0
 34 29  1  0  0  0  0
 35 36  2  0  0  0  0
 36 34  1  0  0  0  0
 36 37  1  0  0  0  0
 37 38  1  0  0  0  0
 39 36  1  0  0  0  0
 40 39  1  0  0  0  0
M  END
>  <minimizedAffinity>
-5.83170319

>  <minimizedRMSD>
0.263517827

$$$$
