
 OpenBabel03212520583D

 40 43  0  0  1  0  0  0  0  0999 V2000
   39.7860   77.4270   59.1830 C   0  0  0  0  0  0  0  0  0  0  0  0
   40.4780   76.3000   58.8950 C   0  0  0  0  0  0  0  0  0  0  0  0
   39.9240   75.5890   57.8180 C   0  0  0  0  0  0  0  0  0  0  0  0
   38.8260   75.9810   57.1420 N   0  0  0  0  0  0  0  0  0  0  0  0
   38.2050   77.1380   57.5180 C   0  0  0  0  0  0  0  0  0  0  0  0
   38.6940   77.8660   58.5490 N   0  0  0  0  0  0  0  0  0  0  0  0
   41.3460   75.9420   59.3920 H   0  0  0  0  0  0  0  0  0  0  0  0
   40.3630   74.6560   57.4600 H   0  0  0  0  0  0  0  0  0  0  0  0
   40.9880   80.3570   61.7560 C   0  0  0  0  0  0  0  0  0  0  0  0
   40.9960   79.1160   62.3410 C   0  0  0  0  0  0  0  0  0  0  0  0
   40.6200   78.0580   61.5980 C   0  0  0  0  0  0  0  0  0  0  0  0
   40.2410   78.2670   60.2750 C   0  0  0  0  0  0  0  0  0  0  0  0
   40.4250   80.0790   60.0510 S   0  0  0  0  0  0  0  0  0  0  0  0
   41.2940   78.9560   63.3800 H   0  0  0  0  0  0  0  0  0  0  0  0
   40.5570   77.0120   61.8660 H   0  0  0  0  0  0  0  0  0  0  0  0
   43.0560   83.1550   62.9230 C   0  0  0  0  0  0  0  0  0  0  0  0
   42.1480   83.9050   63.7170 C   0  0  0  0  0  0  0  0  0  0  0  0
   40.8370   83.4520   63.8450 C   0  0  0  0  0  0  0  0  0  0  0  0
   40.4750   82.3080   63.2060 N   0  0  0  0  0  0  0  0  0  0  0  0
   41.3770   81.6140   62.4510 C   0  0  0  0  0  0  0  0  0  0  0  0
   42.6340   82.0390   62.3210 N   0  0  0  0  0  0  0  0  0  0  0  0
   44.0380   83.5590   62.8690 H   0  0  0  0  0  0  0  0  0  0  0  0
   42.4010   84.8250   64.2430 H   0  0  0  0  0  0  0  0  0  0  0  0
   40.0830   83.9600   64.4300 H   0  0  0  0  0  0  0  0  0  0  0  0
   37.0340   77.5440   56.7680 C   0  0  0  0  0  0  0  0  0  0  0  0
   35.9440   77.0510   57.1010 O   0  0  0  0  0  0  0  0  0  0  0  0
   37.1140   78.5190   55.6160 C   0  0  1  0  0  0  0  0  0  0  0  0
   37.3530   79.9390   56.0670 C   0  0  0  0  0  0  0  0  0  0  0  0
   38.3570   79.1920   55.3190 C   0  0  2  0  0  0  0  0  0  0  0  0
   36.2200   78.4590   54.9600 H   0  0  0  0  0  0  0  0  0  0  0  0
   37.5470   80.1600   57.1390 H   0  0  0  0  0  0  0  0  0  0  0  0
   36.6930   80.6960   55.6130 H   0  0  0  0  0  0  0  0  0  0  0  0
   39.2600   78.8250   55.8840 H   0  0  0  0  0  0  0  0  0  0  0  0
   38.6850   79.4820   54.0010 O   0  0  0  0  0  0  0  0  0  0  0  0
   38.6510   78.6460   51.5530 O   0  0  0  0  0  0  0  0  0  0  0  0
   37.9860   78.4340   52.9030 P   0  0  0  0  0  0  0  0  0  0  0  0
   38.0680   76.8110   53.3750 O   0  0  0  0  0  0  0  0  0  0  0  0
   38.9940   76.6880   53.7570 H   0  0  0  0  0  0  0  0  0  0  0  0
   36.3370   78.8170   52.6830 O   0  0  0  0  0  0  0  0  0  0  0  0
   35.9560   78.2260   51.9870 H   0  0  0  0  0  0  0  0  0  0  0  0
  1 12  1  0  0  0  0
  2  1  1  0  0  0  0
  2  7  1  0  0  0  0
  3  2  2  0  0  0  0
  4  5  2  0  0  0  0
  4  3  1  0  0  0  0
  5  6  1  0  0  0  0
  6  1  2  0  0  0  0
  8  3  1  0  0  0  0
  9 10  2  0  0  0  0
  9 20  1  0  0  0  0
 10 14  1  0  0  0  0
 11 15  1  0  0  0  0
 11 10  1  0  0  0  0
 12 11  2  0  0  0  0
 13 12  1  0  0  0  0
 13  9  1  0  0  0  0
 16 17  1  0  0  0  0
 17 18  2  0  0  0  0
 17 23  1  0  0  0  0
 18 24  1  0  0  0  0
 19 18  1  0  0  0  0
 20 19  2  0  0  0  0
 21 20  1  0  0  0  0
 21 16  2  0  0  0  0
 22 16  1  0  0  0  0
 25 26  2  0  0  0  0
 25  5  1  0  0  0  0
 27 30  1  6  0  0  0
 27 28  1  0  0  0  0
 27 25  1  0  0  0  0
 28 31  1  0  0  0  0
 29 27  1  0  0  0  0
 29 33  1  1  0  0  0
 29 28  1  0  0  0  0
 32 28  1  0  0  0  0
 34 29  1  0  0  0  0
 35 36  2  0  0  0  0
 36 37  1  0  0  0  0
 36 34  1  0  0  0  0
 37 38  1  0  0  0  0
 39 36  1  0  0  0  0
 40 39  1  0  0  0  0
M  END
>  <minimizedAffinity>
-6.36918545

>  <minimizedRMSD>
0.417310566

$$$$
