
 OpenBabel03212520503D

 33 35  0  0  1  0  0  0  0  0999 V2000
   41.5860   83.7690   61.3430 C   0  0  0  0  0  0  0  0  0  0  0  0
   40.8580   84.1730   62.4320 C   0  0  0  0  0  0  0  0  0  0  0  0
   40.3970   83.2370   63.3670 C   0  0  0  0  0  0  0  0  0  0  0  0
   40.6670   81.9280   63.2030 N   0  0  0  0  0  0  0  0  0  0  0  0
   41.3870   81.5650   62.1180 C   0  0  0  0  0  0  0  0  0  0  0  0
   41.8450   82.4440   61.2000 N   0  0  0  0  0  0  0  0  0  0  0  0
   40.6600   85.2190   62.5370 H   0  0  0  0  0  0  0  0  0  0  0  0
   39.8330   83.6240   64.1970 H   0  0  0  0  0  0  0  0  0  0  0  0
   43.5560   86.3660   59.6670 C   0  0  0  0  0  0  0  0  0  0  0  0
   42.8950   86.4770   58.4430 C   0  0  0  0  0  0  0  0  0  0  0  0
   41.7940   85.6830   58.1830 C   0  0  0  0  0  0  0  0  0  0  0  0
   41.4160   84.8200   59.1690 N   0  0  0  0  0  0  0  0  0  0  0  0
   42.0650   84.7240   60.3460 C   0  0  0  0  0  0  0  0  0  0  0  0
   43.1300   85.4850   60.6100 N   0  0  0  0  0  0  0  0  0  0  0  0
   44.6670   87.2180   59.7970 N   0  0  0  0  0  0  0  0  0  0  0  0
   43.2020   87.1670   57.6630 H   0  0  0  0  0  0  0  0  0  0  0  0
   41.2420   85.7230   57.2570 H   0  0  0  0  0  0  0  0  0  0  0  0
   44.7110   88.1610   60.2090 H   0  0  0  0  0  0  0  0  0  0  0  0
   45.6750   87.1540   59.5430 H   0  0  0  0  0  0  0  0  0  0  0  0
   41.6450   80.0960   61.9830 C   0  0  1  0  0  0  0  0  0  0  0  0
   40.8650   79.1150   62.7010 C   0  0  0  0  0  0  0  0  0  0  0  0
   40.4660   79.3760   61.2880 C   0  0  2  0  0  0  0  0  0  0  0  0
   42.6480   79.8650   61.5840 H   0  0  0  0  0  0  0  0  0  0  0  0
   41.2570   78.1420   62.9980 H   0  0  0  0  0  0  0  0  0  0  0  0
   40.1510   79.5250   63.4750 H   0  0  0  0  0  0  0  0  0  0  0  0
   39.5440   79.9250   61.0990 H   0  0  0  0  0  0  0  0  0  0  0  0
   40.8700   78.5610   60.2640 O   0  0  0  0  0  0  0  0  0  0  0  0
   40.6830   76.2080   59.2190 O   0  0  0  0  0  0  0  0  0  0  0  0
   40.7390   76.9180   60.5750 P   0  0  0  0  0  0  0  0  0  0  0  0
   42.1240   76.2980   61.3560 O   0  0  0  0  0  0  0  0  0  0  0  0
   42.8170   76.0970   60.6780 H   0  0  0  0  0  0  0  0  0  0  0  0
   39.3270   76.4980   61.3910 O   0  0  0  0  0  0  0  0  0  0  0  0
   39.5260   75.8120   62.0720 H   0  0  0  0  0  0  0  0  0  0  0  0
  1  2  1  0  0  0  0
  2  7  1  0  0  0  0
  2  3  2  0  0  0  0
  3  8  1  0  0  0  0
  4  3  1  0  0  0  0
  5  4  2  0  0  0  0
  6  1  2  0  0  0  0
  6  5  1  0  0  0  0
  9 15  1  0  0  0  0
  9 14  1  0  0  0  0
 10  9  2  0  0  0  0
 11 10  1  0  0  0  0
 11 12  2  0  0  0  0
 12 13  1  0  0  0  0
 13 14  2  0  0  0  0
 13  1  1  0  0  0  0
 15 18  1  0  0  0  0
 16 10  1  0  0  0  0
 17 11  1  0  0  0  0
 19 15  1  0  0  0  0
 20 23  1  6  0  0  0
 20  5  1  0  0  0  0
 20 21  1  0  0  0  0
 21 24  1  0  0  0  0
 21 25  1  0  0  0  0
 22 26  1  6  0  0  0
 22 20  1  0  0  0  0
 22 21  1  0  0  0  0
 27 29  1  0  0  0  0
 27 22  1  0  0  0  0
 28 29  2  0  0  0  0
 29 30  1  0  0  0  0
 29 32  1  0  0  0  0
 31 30  1  0  0  0  0
 32 33  1  0  0  0  0
M  END
>  <minimizedAffinity>
-5.30338907

>  <minimizedRMSD>
0.574295223

$$$$
