
 OpenBabel03212520583D

 40 43  0  0  1  0  0  0  0  0999 V2000
   39.8620   77.5700   59.1970 C   0  0  0  0  0  0  0  0  0  0  0  0
   40.4810   76.3800   59.0140 C   0  0  0  0  0  0  0  0  0  0  0  0
   39.9850   75.6810   57.9030 C   0  0  0  0  0  0  0  0  0  0  0  0
   39.0010   76.1380   57.1030 N   0  0  0  0  0  0  0  0  0  0  0  0
   38.4450   77.3540   57.3800 C   0  0  0  0  0  0  0  0  0  0  0  0
   38.8830   78.0740   58.4390 N   0  0  0  0  0  0  0  0  0  0  0  0
   41.2590   75.9700   59.6100 H   0  0  0  0  0  0  0  0  0  0  0  0
   40.3780   74.7030   57.6170 H   0  0  0  0  0  0  0  0  0  0  0  0
   40.9730   80.4890   61.8220 C   0  0  0  0  0  0  0  0  0  0  0  0
   40.9200   79.2530   62.4130 C   0  0  0  0  0  0  0  0  0  0  0  0
   40.5660   78.1980   61.6540 C   0  0  0  0  0  0  0  0  0  0  0  0
   40.2700   78.4070   60.3100 C   0  0  0  0  0  0  0  0  0  0  0  0
   40.5040   80.2130   60.0880 S   0  0  0  0  0  0  0  0  0  0  0  0
   41.1540   79.0930   63.4680 H   0  0  0  0  0  0  0  0  0  0  0  0
   40.4660   77.1550   61.9220 H   0  0  0  0  0  0  0  0  0  0  0  0
   43.0110   83.2910   63.0340 C   0  0  0  0  0  0  0  0  0  0  0  0
   42.0910   84.0270   63.8270 C   0  0  0  0  0  0  0  0  0  0  0  0
   40.7820   83.5640   63.9390 C   0  0  0  0  0  0  0  0  0  0  0  0
   40.4340   82.4240   63.2850 N   0  0  0  0  0  0  0  0  0  0  0  0
   41.3470   81.7430   62.5320 C   0  0  0  0  0  0  0  0  0  0  0  0
   42.6030   82.1770   62.4180 N   0  0  0  0  0  0  0  0  0  0  0  0
   43.9910   83.7010   62.9930 H   0  0  0  0  0  0  0  0  0  0  0  0
   42.3330   84.9430   64.3640 H   0  0  0  0  0  0  0  0  0  0  0  0
   40.0190   84.0610   64.5220 H   0  0  0  0  0  0  0  0  0  0  0  0
   37.3970   77.8290   56.4990 C   0  0  0  0  0  0  0  0  0  0  0  0
   36.2620   77.3520   56.6540 O   0  0  0  0  0  0  0  0  0  0  0  0
   37.6570   78.8550   55.4200 C   0  0  1  0  0  0  0  0  0  0  0  0
   37.1710   80.2340   55.7950 C   0  0  0  0  0  0  0  0  0  0  0  0
   38.5900   79.9330   55.6520 C   0  0  2  0  0  0  0  0  0  0  0  0
   37.2370   78.5420   54.4410 H   0  0  0  0  0  0  0  0  0  0  0  0
   36.7710   80.4270   56.8140 H   0  0  0  0  0  0  0  0  0  0  0  0
   36.5780   80.7510   55.0230 H   0  0  0  0  0  0  0  0  0  0  0  0
   39.2030   79.8560   56.5940 H   0  0  0  0  0  0  0  0  0  0  0  0
   39.3610   80.4140   54.6010 O   0  0  0  0  0  0  0  0  0  0  0  0
   41.4270   81.9530   54.8450 O   0  0  0  0  0  0  0  0  0  0  0  0
   40.9890   80.5010   54.9660 P   0  0  0  0  0  0  0  0  0  0  0  0
   41.3730   79.8740   56.4890 O   0  0  0  0  0  0  0  0  0  0  0  0
   40.6410   80.1960   57.1060 H   0  0  0  0  0  0  0  0  0  0  0  0
   41.9040   79.6350   53.8130 O   0  0  0  0  0  0  0  0  0  0  0  0
   42.8650   79.7490   54.0100 H   0  0  0  0  0  0  0  0  0  0  0  0
  1 12  1  0  0  0  0
  2  1  1  0  0  0  0
  2  7  1  0  0  0  0
  3  2  2  0  0  0  0
  4  5  2  0  0  0  0
  4  3  1  0  0  0  0
  5  6  1  0  0  0  0
  6  1  2  0  0  0  0
  8  3  1  0  0  0  0
  9 10  2  0  0  0  0
  9 20  1  0  0  0  0
 10 14  1  0  0  0  0
 11 15  1  0  0  0  0
 11 10  1  0  0  0  0
 12 11  2  0  0  0  0
 13 12  1  0  0  0  0
 13  9  1  0  0  0  0
 16 17  1  0  0  0  0
 17 18  2  0  0  0  0
 17 23  1  0  0  0  0
 18 24  1  0  0  0  0
 19 18  1  0  0  0  0
 20 19  2  0  0  0  0
 21 20  1  0  0  0  0
 21 16  2  0  0  0  0
 22 16  1  0  0  0  0
 25 26  2  0  0  0  0
 25  5  1  0  0  0  0
 27 30  1  6  0  0  0
 27 29  1  0  0  0  0
 27 28  1  0  0  0  0
 27 25  1  0  0  0  0
 28 31  1  0  0  0  0
 29 28  1  0  0  0  0
 29 33  1  1  0  0  0
 32 28  1  0  0  0  0
 34 36  1  0  0  0  0
 34 29  1  0  0  0  0
 35 36  2  0  0  0  0
 36 37  1  0  0  0  0
 37 38  1  0  0  0  0
 39 40  1  0  0  0  0
 39 36  1  0  0  0  0
M  END
>  <minimizedAffinity>
-6.05786371

>  <minimizedRMSD>
0.829711497

$$$$
