
 OpenBabel03212520583D

 40 43  0  0  1  0  0  0  0  0999 V2000
   39.7070   77.1420   59.1390 C   0  0  0  0  0  0  0  0  0  0  0  0
   40.4110   76.0220   58.8510 C   0  0  0  0  0  0  0  0  0  0  0  0
   39.8460   75.2870   57.7970 C   0  0  0  0  0  0  0  0  0  0  0  0
   38.7270   75.6520   57.1390 N   0  0  0  0  0  0  0  0  0  0  0  0
   38.0950   76.8030   57.5130 C   0  0  0  0  0  0  0  0  0  0  0  0
   38.5940   77.5530   58.5230 N   0  0  0  0  0  0  0  0  0  0  0  0
   41.2960   75.6860   59.3330 H   0  0  0  0  0  0  0  0  0  0  0  0
   40.2920   74.3570   57.4410 H   0  0  0  0  0  0  0  0  0  0  0  0
   40.9670   80.1190   61.6280 C   0  0  0  0  0  0  0  0  0  0  0  0
   40.9160   78.9020   62.2580 C   0  0  0  0  0  0  0  0  0  0  0  0
   40.5160   77.8310   61.5460 C   0  0  0  0  0  0  0  0  0  0  0  0
   40.1710   78.0040   60.2080 C   0  0  0  0  0  0  0  0  0  0  0  0
   40.4270   79.7990   59.9220 S   0  0  0  0  0  0  0  0  0  0  0  0
   41.1880   78.7690   63.3080 H   0  0  0  0  0  0  0  0  0  0  0  0
   40.4090   76.7990   61.8500 H   0  0  0  0  0  0  0  0  0  0  0  0
   43.1050   82.9020   62.7000 C   0  0  0  0  0  0  0  0  0  0  0  0
   42.2210   83.6940   63.4800 C   0  0  0  0  0  0  0  0  0  0  0  0
   40.9010   83.2740   63.6310 C   0  0  0  0  0  0  0  0  0  0  0  0
   40.5090   82.1210   63.0270 N   0  0  0  0  0  0  0  0  0  0  0  0
   41.3890   81.3860   62.2840 C   0  0  0  0  0  0  0  0  0  0  0  0
   42.6550   81.7790   62.1330 N   0  0  0  0  0  0  0  0  0  0  0  0
   44.0960   83.2820   62.6280 H   0  0  0  0  0  0  0  0  0  0  0  0
   42.4990   84.6220   63.9790 H   0  0  0  0  0  0  0  0  0  0  0  0
   40.1630   83.8150   64.2070 H   0  0  0  0  0  0  0  0  0  0  0  0
   36.9010   77.1790   56.7830 C   0  0  0  0  0  0  0  0  0  0  0  0
   35.8070   76.9710   57.3330 O   0  0  0  0  0  0  0  0  0  0  0  0
   36.9600   77.7910   55.4030 C   0  0  1  0  0  0  0  0  0  0  0  0
   37.2560   79.2720   55.4310 C   0  0  0  0  0  0  0  0  0  0  0  0
   38.2080   78.3090   54.8910 C   0  0  2  0  0  0  0  0  0  0  0  0
   36.0390   77.5840   54.8180 H   0  0  0  0  0  0  0  0  0  0  0  0
   37.4980   79.7740   56.3930 H   0  0  0  0  0  0  0  0  0  0  0  0
   36.5980   79.8950   54.8040 H   0  0  0  0  0  0  0  0  0  0  0  0
   39.1230   78.0810   55.5070 H   0  0  0  0  0  0  0  0  0  0  0  0
   38.4900   78.2080   53.5340 O   0  0  0  0  0  0  0  0  0  0  0  0
   39.5940   79.4000   51.5210 O   0  0  0  0  0  0  0  0  0  0  0  0
   38.8760   79.6740   52.8320 P   0  0  0  0  0  0  0  0  0  0  0  0
   37.5360   80.6800   52.5960 O   0  0  0  0  0  0  0  0  0  0  0  0
   36.8000   80.0760   52.2640 H   0  0  0  0  0  0  0  0  0  0  0  0
   39.9870   80.5260   53.8100 O   0  0  0  0  0  0  0  0  0  0  0  0
   40.2490   81.3610   53.3500 H   0  0  0  0  0  0  0  0  0  0  0  0
  1 12  1  0  0  0  0
  2  1  1  0  0  0  0
  2  7  1  0  0  0  0
  3  2  2  0  0  0  0
  4  5  2  0  0  0  0
  4  3  1  0  0  0  0
  5  6  1  0  0  0  0
  6  1  2  0  0  0  0
  8  3  1  0  0  0  0
  9 10  2  0  0  0  0
  9 20  1  0  0  0  0
 10 14  1  0  0  0  0
 11 15  1  0  0  0  0
 11 10  1  0  0  0  0
 12 11  2  0  0  0  0
 13 12  1  0  0  0  0
 13  9  1  0  0  0  0
 16 17  1  0  0  0  0
 17 18  2  0  0  0  0
 17 23  1  0  0  0  0
 18 24  1  0  0  0  0
 19 18  1  0  0  0  0
 20 19  2  0  0  0  0
 21 20  1  0  0  0  0
 21 16  2  0  0  0  0
 22 16  1  0  0  0  0
 25 26  2  0  0  0  0
 25  5  1  0  0  0  0
 27 30  1  6  0  0  0
 27 28  1  0  0  0  0
 27 25  1  0  0  0  0
 28 31  1  0  0  0  0
 29 27  1  0  0  0  0
 29 28  1  0  0  0  0
 29 33  1  1  0  0  0
 32 28  1  0  0  0  0
 34 29  1  0  0  0  0
 35 36  2  0  0  0  0
 36 34  1  0  0  0  0
 36 39  1  0  0  0  0
 37 36  1  0  0  0  0
 38 37  1  0  0  0  0
 40 39  1  0  0  0  0
M  END
>  <minimizedAffinity>
-6.20686531

>  <minimizedRMSD>
0.871460497

$$$$
