
 OpenBabel03212520503D

 26 27  0  0  0  0  0  0  0  0999 V2000
   38.4580   75.5930   57.5660 C   0  0  0  0  0  0  0  0  0  0  0  0
   38.9140   76.4820   58.5030 C   0  0  0  0  0  0  0  0  0  0  0  0
   39.5660   76.0770   59.6670 C   0  0  0  0  0  0  0  0  0  0  0  0
   39.7620   74.7640   59.8910 N   0  0  0  0  0  0  0  0  0  0  0  0
   39.3130   73.8810   58.9670 C   0  0  0  0  0  0  0  0  0  0  0  0
   38.6740   74.2850   57.8280 N   0  0  0  0  0  0  0  0  0  0  0  0
   38.7700   77.5460   58.3500 H   0  0  0  0  0  0  0  0  0  0  0  0
   39.9000   76.8440   60.3670 H   0  0  0  0  0  0  0  0  0  0  0  0
   37.1730   75.6050   54.1460 C   0  0  0  0  0  0  0  0  0  0  0  0
   36.4850   76.8350   54.1060 C   0  0  0  0  0  0  0  0  0  0  0  0
   36.4700   77.6350   55.2370 C   0  0  0  0  0  0  0  0  0  0  0  0
   37.1350   77.1690   56.3370 N   0  0  0  0  0  0  0  0  0  0  0  0
   37.7750   76.0070   56.3460 C   0  0  0  0  0  0  0  0  0  0  0  0
   37.8080   75.2120   55.2680 N   0  0  0  0  0  0  0  0  0  0  0  0
   37.1150   74.8780   52.9260 N   0  0  0  0  0  0  0  0  0  0  0  0
   35.9660   77.1800   53.2240 H   0  0  0  0  0  0  0  0  0  0  0  0
   35.9500   78.5670   55.2140 H   0  0  0  0  0  0  0  0  0  0  0  0
   36.2880   74.8900   52.3160 H   0  0  0  0  0  0  0  0  0  0  0  0
   37.9600   74.3040   52.6390 H   0  0  0  0  0  0  0  0  0  0  0  0
   39.4380   72.5110   59.0540 O   0  0  0  0  0  0  0  0  0  0  0  0
   40.7850   72.0490   56.8950 O   0  0  0  0  0  0  0  0  0  0  0  0
   39.6140   71.4880   57.6960 P   0  0  0  0  0  0  0  0  0  0  0  0
   38.2460   71.5560   56.6910 O   0  0  0  0  0  0  0  0  0  0  0  0
   37.5070   71.9670   57.2010 H   0  0  0  0  0  0  0  0  0  0  0  0
   39.8990   69.9100   58.1730 O   0  0  0  0  0  0  0  0  0  0  0  0
   39.3880   69.3160   57.5870 H   0  0  0  0  0  0  0  0  0  0  0  0
  1  6  2  0  0  0  0
  1  2  1  0  0  0  0
  2  3  2  0  0  0  0
  3  4  1  0  0  0  0
  3  8  1  0  0  0  0
  5 20  1  0  0  0  0
  5  4  2  0  0  0  0
  6  5  1  0  0  0  0
  7  2  1  0  0  0  0
  9 14  1  0  0  0  0
 10  9  2  0  0  0  0
 10 11  1  0  0  0  0
 11 12  2  0  0  0  0
 12 13  1  0  0  0  0
 13  1  1  0  0  0  0
 14 13  2  0  0  0  0
 15  9  1  0  0  0  0
 16 10  1  0  0  0  0
 17 11  1  0  0  0  0
 18 15  1  0  0  0  0
 19 15  1  0  0  0  0
 21 22  2  0  0  0  0
 22 25  1  0  0  0  0
 22 20  1  0  0  0  0
 23 24  1  0  0  0  0
 23 22  1  0  0  0  0
 26 25  1  0  0  0  0
M  END
>  <minimizedAffinity>
-5.57809496

$$$$

 OpenBabel03212520503D

 26 27  0  0  0  0  0  0  0  0999 V2000
   40.5580   75.2670   59.6750 C   0  0  0  0  0  0  0  0  0  0  0  0
   40.9660   76.5710   59.7800 C   0  0  0  0  0  0  0  0  0  0  0  0
   40.2570   77.6270   59.2090 C   0  0  0  0  0  0  0  0  0  0  0  0
   39.1270   77.3690   58.5250 N   0  0  0  0  0  0  0  0  0  0  0  0
   38.7190   76.0820   58.4190 C   0  0  0  0  0  0  0  0  0  0  0  0
   39.4190   75.0510   58.9820 N   0  0  0  0  0  0  0  0  0  0  0  0
   41.8730   76.8080   60.3240 H   0  0  0  0  0  0  0  0  0  0  0  0
   40.6460   78.6390   59.3340 H   0  0  0  0  0  0  0  0  0  0  0  0
   41.4170   72.4180   61.7960 C   0  0  0  0  0  0  0  0  0  0  0  0
   42.7100   72.1010   61.3350 C   0  0  0  0  0  0  0  0  0  0  0  0
   43.2660   72.8570   60.3150 C   0  0  0  0  0  0  0  0  0  0  0  0
   42.5080   73.8790   59.8160 N   0  0  0  0  0  0  0  0  0  0  0  0
   41.2920   74.1560   60.2700 C   0  0  0  0  0  0  0  0  0  0  0  0
   40.7290   73.4430   61.2550 N   0  0  0  0  0  0  0  0  0  0  0  0
   40.9600   71.5720   62.8420 N   0  0  0  0  0  0  0  0  0  0  0  0
   43.2880   71.2870   61.7470 H   0  0  0  0  0  0  0  0  0  0  0  0
   44.2450   72.6220   59.9600 H   0  0  0  0  0  0  0  0  0  0  0  0
   41.2010   70.5740   62.8890 H   0  0  0  0  0  0  0  0  0  0  0  0
   40.3460   71.9900   63.6000 H   0  0  0  0  0  0  0  0  0  0  0  0
   37.5870   75.6610   57.7540 O   0  0  0  0  0  0  0  0  0  0  0  0
   38.6860   76.0990   55.4550 O   0  0  0  0  0  0  0  0  0  0  0  0
   37.3100   75.9330   56.0900 P   0  0  0  0  0  0  0  0  0  0  0  0
   36.4670   77.3870   55.8360 O   0  0  0  0  0  0  0  0  0  0  0  0
   36.0720   77.6700   56.6950 H   0  0  0  0  0  0  0  0  0  0  0  0
   36.4700   74.6560   55.4090 O   0  0  0  0  0  0  0  0  0  0  0  0
   35.8060   75.0210   54.7910 H   0  0  0  0  0  0  0  0  0  0  0  0
  1  2  1  0  0  0  0
  1 13  1  0  0  0  0
  2  7  1  0  0  0  0
  3  8  1  0  0  0  0
  3  2  2  0  0  0  0
  4  3  1  0  0  0  0
  5  4  2  0  0  0  0
  5  6  1  0  0  0  0
  6  1  2  0  0  0  0
  9 15  1  0  0  0  0
 10 16  1  0  0  0  0
 10  9  1  0  0  0  0
 11 10  2  0  0  0  0
 12 13  2  0  0  0  0
 12 11  1  0  0  0  0
 13 14  1  0  0  0  0
 14  9  2  0  0  0  0
 15 18  1  0  0  0  0
 15 19  1  0  0  0  0
 17 11  1  0  0  0  0
 20  5  1  0  0  0  0
 21 22  2  0  0  0  0
 22 20  1  0  0  0  0
 23 22  1  0  0  0  0
 23 24  1  0  0  0  0
 25 22  1  0  0  0  0
 26 25  1  0  0  0  0
M  END
>  <minimizedAffinity>
-5.42055607

$$$$

 OpenBabel03212520503D

 26 27  0  0  0  0  0  0  0  0999 V2000
   38.1940   75.3410   57.0100 C   0  0  0  0  0  0  0  0  0  0  0  0
   37.2750   76.1770   56.4320 C   0  0  0  0  0  0  0  0  0  0  0  0
   36.9640   76.1250   55.0740 C   0  0  0  0  0  0  0  0  0  0  0  0
   37.5820   75.2230   54.2890 N   0  0  0  0  0  0  0  0  0  0  0  0
   38.4900   74.3930   54.8560 C   0  0  0  0  0  0  0  0  0  0  0  0
   38.7910   74.4500   56.1890 N   0  0  0  0  0  0  0  0  0  0  0  0
   36.7620   76.9140   57.0390 H   0  0  0  0  0  0  0  0  0  0  0  0
   36.2210   76.8240   54.6860 H   0  0  0  0  0  0  0  0  0  0  0  0
   39.5110   76.4640   60.2280 C   0  0  0  0  0  0  0  0  0  0  0  0
   39.1110   75.4140   61.0800 C   0  0  0  0  0  0  0  0  0  0  0  0
   38.4030   74.3480   60.5480 C   0  0  0  0  0  0  0  0  0  0  0  0
   38.1360   74.3860   59.2080 N   0  0  0  0  0  0  0  0  0  0  0  0
   38.5250   75.3870   58.4290 C   0  0  0  0  0  0  0  0  0  0  0  0
   39.2110   76.4310   58.9140 N   0  0  0  0  0  0  0  0  0  0  0  0
   40.2280   77.4960   60.8910 N   0  0  0  0  0  0  0  0  0  0  0  0
   39.3350   75.4090   62.1360 H   0  0  0  0  0  0  0  0  0  0  0  0
   38.0960   73.5500   61.1870 H   0  0  0  0  0  0  0  0  0  0  0  0
   40.0190   77.7800   61.8560 H   0  0  0  0  0  0  0  0  0  0  0  0
   41.0080   77.9880   60.3650 H   0  0  0  0  0  0  0  0  0  0  0  0
   39.2020   73.4210   54.1870 O   0  0  0  0  0  0  0  0  0  0  0  0
   39.8900   70.9650   53.7620 O   0  0  0  0  0  0  0  0  0  0  0  0
   39.7150   71.9580   54.9060 P   0  0  0  0  0  0  0  0  0  0  0  0
   38.5190   71.3260   55.9350 O   0  0  0  0  0  0  0  0  0  0  0  0
   37.8660   72.0400   56.1270 H   0  0  0  0  0  0  0  0  0  0  0  0
   41.1420   72.1780   55.7500 O   0  0  0  0  0  0  0  0  0  0  0  0
   41.0860   71.6710   56.5850 H   0  0  0  0  0  0  0  0  0  0  0  0
  1 13  1  0  0  0  0
  2  1  1  0  0  0  0
  2  7  1  0  0  0  0
  3  2  2  0  0  0  0
  4  5  2  0  0  0  0
  4  3  1  0  0  0  0
  5  6  1  0  0  0  0
  6  1  2  0  0  0  0
  8  3  1  0  0  0  0
  9 15  1  0  0  0  0
  9 10  1  0  0  0  0
 10 16  1  0  0  0  0
 11 10  2  0  0  0  0
 11 17  1  0  0  0  0
 12 11  1  0  0  0  0
 13 14  1  0  0  0  0
 13 12  2  0  0  0  0
 14  9  2  0  0  0  0
 15 18  1  0  0  0  0
 19 15  1  0  0  0  0
 20  5  1  0  0  0  0
 20 22  1  0  0  0  0
 21 22  2  0  0  0  0
 22 25  1  0  0  0  0
 22 23  1  0  0  0  0
 23 24  1  0  0  0  0
 25 26  1  0  0  0  0
M  END
>  <minimizedAffinity>
-5.3381238

$$$$

 OpenBabel03212520503D

 26 27  0  0  0  0  0  0  0  0999 V2000
   39.7280   74.5660   56.4180 C   0  0  0  0  0  0  0  0  0  0  0  0
   40.8530   73.8770   56.0470 C   0  0  0  0  0  0  0  0  0  0  0  0
   41.8450   73.5160   56.9570 C   0  0  0  0  0  0  0  0  0  0  0  0
   41.7040   73.8490   58.2530 N   0  0  0  0  0  0  0  0  0  0  0  0
   40.5940   74.5290   58.6250 C   0  0  0  0  0  0  0  0  0  0  0  0
   39.6250   74.8810   57.7270 N   0  0  0  0  0  0  0  0  0  0  0  0
   40.9930   73.5960   55.0090 H   0  0  0  0  0  0  0  0  0  0  0  0
   42.7130   72.9680   56.5860 H   0  0  0  0  0  0  0  0  0  0  0  0
   37.8570   75.0100   53.3110 C   0  0  0  0  0  0  0  0  0  0  0  0
   36.7070   75.6850   53.7660 C   0  0  0  0  0  0  0  0  0  0  0  0
   36.5870   75.9770   55.1150 C   0  0  0  0  0  0  0  0  0  0  0  0
   37.6120   75.5830   55.9290 N   0  0  0  0  0  0  0  0  0  0  0  0
   38.6850   74.9480   55.4730 C   0  0  0  0  0  0  0  0  0  0  0  0
   38.8280   74.6520   54.1740 N   0  0  0  0  0  0  0  0  0  0  0  0
   37.8610   74.7690   51.9100 N   0  0  0  0  0  0  0  0  0  0  0  0
   35.9110   75.9860   53.1010 H   0  0  0  0  0  0  0  0  0  0  0  0
   35.7190   76.4880   55.4680 H   0  0  0  0  0  0  0  0  0  0  0  0
   37.0030   74.5630   51.3840 H   0  0  0  0  0  0  0  0  0  0  0  0
   38.7870   74.8050   51.3930 H   0  0  0  0  0  0  0  0  0  0  0  0
   40.3080   74.9400   59.9100 O   0  0  0  0  0  0  0  0  0  0  0  0
   39.0660   73.2490   61.4220 O   0  0  0  0  0  0  0  0  0  0  0  0
   38.8430   74.5820   60.7150 P   0  0  0  0  0  0  0  0  0  0  0  0
   37.5730   74.3530   59.6110 O   0  0  0  0  0  0  0  0  0  0  0  0
   37.8510   74.7190   58.7380 H   0  0  0  0  0  0  0  0  0  0  0  0
   38.4500   75.7930   61.8010 O   0  0  0  0  0  0  0  0  0  0  0  0
   37.4860   75.9490   61.7490 H   0  0  0  0  0  0  0  0  0  0  0  0
  1  6  1  0  0  0  0
  2  1  2  0  0  0  0
  2  3  1  0  0  0  0
  3  4  2  0  0  0  0
  4  5  1  0  0  0  0
  5 20  1  0  0  0  0
  6  5  2  0  0  0  0
  7  2  1  0  0  0  0
  8  3  1  0  0  0  0
  9 10  2  0  0  0  0
  9 14  1  0  0  0  0
 10 11  1  0  0  0  0
 11 17  1  0  0  0  0
 11 12  2  0  0  0  0
 13 12  1  0  0  0  0
 13  1  1  0  0  0  0
 14 13  2  0  0  0  0
 15  9  1  0  0  0  0
 16 10  1  0  0  0  0
 18 15  1  0  0  0  0
 19 15  1  0  0  0  0
 20 22  1  0  0  0  0
 22 21  2  0  0  0  0
 22 25  1  0  0  0  0
 23 22  1  0  0  0  0
 24 23  1  0  0  0  0
 26 25  1  0  0  0  0
M  END
>  <minimizedAffinity>
-5.319592

$$$$

 OpenBabel03212520503D

 26 27  0  0  0  0  0  0  0  0999 V2000
   40.2680   73.9430   60.2230 C   0  0  0  0  0  0  0  0  0  0  0  0
   39.9260   75.0320   60.9820 C   0  0  0  0  0  0  0  0  0  0  0  0
   39.3200   76.1640   60.4400 C   0  0  0  0  0  0  0  0  0  0  0  0
   39.0550   76.2020   59.1210 N   0  0  0  0  0  0  0  0  0  0  0  0
   39.3910   75.1290   58.3660 C   0  0  0  0  0  0  0  0  0  0  0  0
   39.9850   74.0220   58.9050 N   0  0  0  0  0  0  0  0  0  0  0  0
   40.1280   75.0290   62.0480 H   0  0  0  0  0  0  0  0  0  0  0  0
   39.0770   76.9910   61.1080 H   0  0  0  0  0  0  0  0  0  0  0  0
   41.9130   70.6910   60.4890 C   0  0  0  0  0  0  0  0  0  0  0  0
   42.0730   70.5680   61.8840 C   0  0  0  0  0  0  0  0  0  0  0  0
   41.6220   71.5870   62.7060 C   0  0  0  0  0  0  0  0  0  0  0  0
   41.0400   72.6650   62.0980 N   0  0  0  0  0  0  0  0  0  0  0  0
   40.9020   72.7550   60.7810 C   0  0  0  0  0  0  0  0  0  0  0  0
   41.3280   71.7850   59.9610 N   0  0  0  0  0  0  0  0  0  0  0  0
   42.4150   69.5820   59.7550 N   0  0  0  0  0  0  0  0  0  0  0  0
   42.5370   69.7050   62.3390 H   0  0  0  0  0  0  0  0  0  0  0  0
   41.7400   71.5010   63.7630 H   0  0  0  0  0  0  0  0  0  0  0  0
   43.2500   69.0610   60.0490 H   0  0  0  0  0  0  0  0  0  0  0  0
   41.9050   69.2870   58.8730 H   0  0  0  0  0  0  0  0  0  0  0  0
   39.1850   75.0190   57.0070 O   0  0  0  0  0  0  0  0  0  0  0  0
   36.8120   75.9740   56.6300 O   0  0  0  0  0  0  0  0  0  0  0  0
   37.6530   74.7460   56.3000 P   0  0  0  0  0  0  0  0  0  0  0  0
   36.8780   73.4080   57.0070 O   0  0  0  0  0  0  0  0  0  0  0  0
   37.5520   72.8880   57.5060 H   0  0  0  0  0  0  0  0  0  0  0  0
   37.7910   74.5230   54.6480 O   0  0  0  0  0  0  0  0  0  0  0  0
   37.1840   73.8030   54.3840 H   0  0  0  0  0  0  0  0  0  0  0  0
  1 13  1  0  0  0  0
  1  2  1  0  0  0  0
  2  7  1  0  0  0  0
  3  2  2  0  0  0  0
  3  8  1  0  0  0  0
  4  3  1  0  0  0  0
  5  6  1  0  0  0  0
  5  4  2  0  0  0  0
  6  1  2  0  0  0  0
  9 10  1  0  0  0  0
 10 16  1  0  0  0  0
 10 11  2  0  0  0  0
 11 17  1  0  0  0  0
 12 11  1  0  0  0  0
 13 12  2  0  0  0  0
 14  9  2  0  0  0  0
 14 13  1  0  0  0  0
 15 18  1  0  0  0  0
 15  9  1  0  0  0  0
 19 15  1  0  0  0  0
 20  5  1  0  0  0  0
 22 21  2  0  0  0  0
 22 23  1  0  0  0  0
 22 20  1  0  0  0  0
 23 24  1  0  0  0  0
 25 22  1  0  0  0  0
 26 25  1  0  0  0  0
M  END
>  <minimizedAffinity>
-5.30538368

$$$$

 OpenBabel03212520503D

 26 27  0  0  0  0  0  0  0  0999 V2000
   40.6530   73.5720   60.3730 C   0  0  0  0  0  0  0  0  0  0  0  0
   40.2540   72.9010   61.4980 C   0  0  0  0  0  0  0  0  0  0  0  0
   41.1580   72.2990   62.3730 C   0  0  0  0  0  0  0  0  0  0  0  0
   42.4760   72.3740   62.1130 N   0  0  0  0  0  0  0  0  0  0  0  0
   42.8760   73.0370   61.0030 C   0  0  0  0  0  0  0  0  0  0  0  0
   41.9840   73.6250   60.1490 N   0  0  0  0  0  0  0  0  0  0  0  0
   39.1980   72.8240   61.7320 H   0  0  0  0  0  0  0  0  0  0  0  0
   40.7640   71.7810   63.2490 H   0  0  0  0  0  0  0  0  0  0  0  0
   38.0340   74.0400   57.8690 C   0  0  0  0  0  0  0  0  0  0  0  0
   37.9930   75.4450   57.7590 C   0  0  0  0  0  0  0  0  0  0  0  0
   38.8540   76.2050   58.5350 C   0  0  0  0  0  0  0  0  0  0  0  0
   39.6990   75.5300   59.3700 N   0  0  0  0  0  0  0  0  0  0  0  0
   39.7160   74.2050   59.4520 C   0  0  0  0  0  0  0  0  0  0  0  0
   38.8960   73.4430   58.7150 N   0  0  0  0  0  0  0  0  0  0  0  0
   37.1050   73.3740   57.0230 N   0  0  0  0  0  0  0  0  0  0  0  0
   37.3150   75.9540   57.0910 H   0  0  0  0  0  0  0  0  0  0  0  0
   38.8290   77.2700   58.4570 H   0  0  0  0  0  0  0  0  0  0  0  0
   36.1790   73.7640   56.8080 H   0  0  0  0  0  0  0  0  0  0  0  0
   37.3830   72.4410   56.6020 H   0  0  0  0  0  0  0  0  0  0  0  0
   44.1860   73.1990   60.6040 O   0  0  0  0  0  0  0  0  0  0  0  0
   46.1730   73.4640   58.9700 O   0  0  0  0  0  0  0  0  0  0  0  0
   44.6510   73.5490   58.9960 P   0  0  0  0  0  0  0  0  0  0  0  0
   44.2340   75.1400   58.5680 O   0  0  0  0  0  0  0  0  0  0  0  0
   43.5790   75.4760   59.2240 H   0  0  0  0  0  0  0  0  0  0  0  0
   43.9580   72.4650   57.9270 O   0  0  0  0  0  0  0  0  0  0  0  0
   43.6690   72.9590   57.1340 H   0  0  0  0  0  0  0  0  0  0  0  0
  1  2  1  0  0  0  0
  2  7  1  0  0  0  0
  2  3  2  0  0  0  0
  3  8  1  0  0  0  0
  4  3  1  0  0  0  0
  5  4  2  0  0  0  0
  6  1  2  0  0  0  0
  6  5  1  0  0  0  0
  9 14  1  0  0  0  0
 10  9  2  0  0  0  0
 10 11  1  0  0  0  0
 11 12  2  0  0  0  0
 12 13  1  0  0  0  0
 13  1  1  0  0  0  0
 14 13  2  0  0  0  0
 15  9  1  0  0  0  0
 16 10  1  0  0  0  0
 17 11  1  0  0  0  0
 18 15  1  0  0  0  0
 19 15  1  0  0  0  0
 20  5  1  0  0  0  0
 21 22  2  0  0  0  0
 22 20  1  0  0  0  0
 23 22  1  0  0  0  0
 23 24  1  0  0  0  0
 25 22  1  0  0  0  0
 26 25  1  0  0  0  0
M  END
>  <minimizedAffinity>
-5.16068983

$$$$

 OpenBabel03212520503D

 26 27  0  0  0  0  0  0  0  0999 V2000
   42.1440   74.6180   59.4210 C   0  0  0  0  0  0  0  0  0  0  0  0
   43.3480   74.7790   58.7880 C   0  0  0  0  0  0  0  0  0  0  0  0
   44.5260   74.1990   59.2570 C   0  0  0  0  0  0  0  0  0  0  0  0
   44.4930   73.4490   60.3730 N   0  0  0  0  0  0  0  0  0  0  0  0
   43.3050   73.2850   61.0030 C   0  0  0  0  0  0  0  0  0  0  0  0
   42.1540   73.8570   60.5370 N   0  0  0  0  0  0  0  0  0  0  0  0
   43.4050   75.3790   57.8860 H   0  0  0  0  0  0  0  0  0  0  0  0
   45.4470   74.3740   58.6980 H   0  0  0  0  0  0  0  0  0  0  0  0
   38.6290   75.0850   58.5400 C   0  0  0  0  0  0  0  0  0  0  0  0
   38.6380   76.3970   58.0240 C   0  0  0  0  0  0  0  0  0  0  0  0
   39.8340   77.0960   57.9840 C   0  0  0  0  0  0  0  0  0  0  0  0
   40.9450   76.4560   58.4580 N   0  0  0  0  0  0  0  0  0  0  0  0
   40.9070   75.2190   58.9380 C   0  0  0  0  0  0  0  0  0  0  0  0
   39.7660   74.5180   58.9890 N   0  0  0  0  0  0  0  0  0  0  0  0
   37.3460   74.4750   58.5260 N   0  0  0  0  0  0  0  0  0  0  0  0
   37.7460   76.8800   57.6560 H   0  0  0  0  0  0  0  0  0  0  0  0
   39.8480   78.0900   57.5950 H   0  0  0  0  0  0  0  0  0  0  0  0
   36.4810   75.0070   58.6850 H   0  0  0  0  0  0  0  0  0  0  0  0
   37.2840   73.4310   58.3460 H   0  0  0  0  0  0  0  0  0  0  0  0
   43.1110   72.5490   62.1520 O   0  0  0  0  0  0  0  0  0  0  0  0
   43.0600   70.0270   62.7240 O   0  0  0  0  0  0  0  0  0  0  0  0
   42.1450   71.1400   62.2230 P   0  0  0  0  0  0  0  0  0  0  0  0
   41.6080   70.6830   60.6770 O   0  0  0  0  0  0  0  0  0  0  0  0
   41.7340   71.4480   60.0660 H   0  0  0  0  0  0  0  0  0  0  0  0
   40.8380   71.3650   63.2420 O   0  0  0  0  0  0  0  0  0  0  0  0
   40.0540   70.9500   62.8310 H   0  0  0  0  0  0  0  0  0  0  0  0
  1  6  1  0  0  0  0
  2  3  1  0  0  0  0
  2  1  2  0  0  0  0
  3  4  2  0  0  0  0
  4  5  1  0  0  0  0
  5 20  1  0  0  0  0
  6  5  2  0  0  0  0
  7  2  1  0  0  0  0
  8  3  1  0  0  0  0
  9 14  1  0  0  0  0
 10  9  2  0  0  0  0
 11 10  1  0  0  0  0
 11 12  2  0  0  0  0
 12 13  1  0  0  0  0
 13 14  2  0  0  0  0
 13  1  1  0  0  0  0
 15  9  1  0  0  0  0
 15 18  1  0  0  0  0
 16 10  1  0  0  0  0
 17 11  1  0  0  0  0
 19 15  1  0  0  0  0
 20 22  1  0  0  0  0
 22 21  2  0  0  0  0
 22 25  1  0  0  0  0
 23 22  1  0  0  0  0
 24 23  1  0  0  0  0
 26 25  1  0  0  0  0
M  END
>  <minimizedAffinity>
-5.08112669

$$$$

 OpenBabel03212520503D

 26 27  0  0  0  0  0  0  0  0999 V2000
   39.2100   74.7980   58.6440 C   0  0  0  0  0  0  0  0  0  0  0  0
   38.8600   75.4910   59.7730 C   0  0  0  0  0  0  0  0  0  0  0  0
   39.4690   75.2710   61.0070 C   0  0  0  0  0  0  0  0  0  0  0  0
   40.4400   74.3440   61.1080 N   0  0  0  0  0  0  0  0  0  0  0  0
   40.7900   73.6560   59.9950 C   0  0  0  0  0  0  0  0  0  0  0  0
   40.1880   73.8770   58.7870 N   0  0  0  0  0  0  0  0  0  0  0  0
   38.0810   76.2430   59.7220 H   0  0  0  0  0  0  0  0  0  0  0  0
   39.1360   75.8620   61.8620 H   0  0  0  0  0  0  0  0  0  0  0  0
   38.3750   74.5120   55.0980 C   0  0  0  0  0  0  0  0  0  0  0  0
   37.3650   75.4870   54.9650 C   0  0  0  0  0  0  0  0  0  0  0  0
   36.9880   76.2210   56.0780 C   0  0  0  0  0  0  0  0  0  0  0  0
   37.6320   75.9460   57.2520 N   0  0  0  0  0  0  0  0  0  0  0  0
   38.5790   75.0220   57.3490 C   0  0  0  0  0  0  0  0  0  0  0  0
   38.9650   74.2960   56.2900 N   0  0  0  0  0  0  0  0  0  0  0  0
   38.6720   73.8280   53.8890 N   0  0  0  0  0  0  0  0  0  0  0  0
   36.8720   75.6850   54.0250 H   0  0  0  0  0  0  0  0  0  0  0  0
   36.2240   76.9610   55.9850 H   0  0  0  0  0  0  0  0  0  0  0  0
   37.9520   73.6110   53.1870 H   0  0  0  0  0  0  0  0  0  0  0  0
   39.6750   73.5320   53.7080 H   0  0  0  0  0  0  0  0  0  0  0  0
   41.7610   72.6800   59.9380 O   0  0  0  0  0  0  0  0  0  0  0  0
   43.4880   71.0620   60.9820 O   0  0  0  0  0  0  0  0  0  0  0  0
   42.9920   72.4980   61.1110 P   0  0  0  0  0  0  0  0  0  0  0  0
   42.3730   72.6710   62.6840 O   0  0  0  0  0  0  0  0  0  0  0  0
   41.4840   73.0940   62.6230 H   0  0  0  0  0  0  0  0  0  0  0  0
   44.2250   73.5990   60.8550 O   0  0  0  0  0  0  0  0  0  0  0  0
   44.5150   73.9420   61.7230 H   0  0  0  0  0  0  0  0  0  0  0  0
  1  6  2  0  0  0  0
  1  2  1  0  0  0  0
  2  3  2  0  0  0  0
  3  4  1  0  0  0  0
  3  8  1  0  0  0  0
  5  4  2  0  0  0  0
  6  5  1  0  0  0  0
  7  2  1  0  0  0  0
  9 14  1  0  0  0  0
 10  9  2  0  0  0  0
 10 11  1  0  0  0  0
 11 12  2  0  0  0  0
 12 13  1  0  0  0  0
 13  1  1  0  0  0  0
 14 13  2  0  0  0  0
 15  9  1  0  0  0  0
 16 10  1  0  0  0  0
 17 11  1  0  0  0  0
 18 15  1  0  0  0  0
 19 15  1  0  0  0  0
 20  5  1  0  0  0  0
 20 22  1  0  0  0  0
 21 22  2  0  0  0  0
 22 23  1  0  0  0  0
 24 23  1  0  0  0  0
 25 22  1  0  0  0  0
 25 26  1  0  0  0  0
M  END
>  <minimizedAffinity>
-5.04709768

$$$$

 OpenBabel03212520503D

 26 27  0  0  0  0  0  0  0  0999 V2000
   41.6060   71.5910   60.2970 C   0  0  0  0  0  0  0  0  0  0  0  0
   41.1960   71.1960   59.0510 C   0  0  0  0  0  0  0  0  0  0  0  0
   40.6820   72.0890   58.1120 C   0  0  0  0  0  0  0  0  0  0  0  0
   40.5810   73.3930   58.4290 N   0  0  0  0  0  0  0  0  0  0  0  0
   40.9860   73.7890   59.6580 C   0  0  0  0  0  0  0  0  0  0  0  0
   41.4890   72.9080   60.5750 N   0  0  0  0  0  0  0  0  0  0  0  0
   41.2650   70.1510   58.7690 H   0  0  0  0  0  0  0  0  0  0  0  0
   40.3750   71.6980   57.1410 H   0  0  0  0  0  0  0  0  0  0  0  0
   43.6530   69.0070   61.8740 C   0  0  0  0  0  0  0  0  0  0  0  0
   43.1040   68.9640   63.1720 C   0  0  0  0  0  0  0  0  0  0  0  0
   42.0530   69.8090   63.4870 C   0  0  0  0  0  0  0  0  0  0  0  0
   41.6100   70.6450   62.5000 N   0  0  0  0  0  0  0  0  0  0  0  0
   42.1450   70.6650   61.2860 C   0  0  0  0  0  0  0  0  0  0  0  0
   43.1620   69.8590   60.9520 N   0  0  0  0  0  0  0  0  0  0  0  0
   44.7220   68.0930   61.6750 N   0  0  0  0  0  0  0  0  0  0  0  0
   43.4730   68.2930   63.9340 H   0  0  0  0  0  0  0  0  0  0  0  0
   41.6330   69.7830   64.4680 H   0  0  0  0  0  0  0  0  0  0  0  0
   45.3920   67.8580   62.4190 H   0  0  0  0  0  0  0  0  0  0  0  0
   44.8300   67.6390   60.7220 H   0  0  0  0  0  0  0  0  0  0  0  0
   40.9460   75.0850   60.1280 O   0  0  0  0  0  0  0  0  0  0  0  0
   39.8430   77.4010   59.8000 O   0  0  0  0  0  0  0  0  0  0  0  0
   39.5050   75.9930   60.2790 P   0  0  0  0  0  0  0  0  0  0  0  0
   39.0270   76.1220   61.9050 O   0  0  0  0  0  0  0  0  0  0  0  0
   39.5160   75.4430   62.4270 H   0  0  0  0  0  0  0  0  0  0  0  0
   38.2760   75.3140   59.3700 O   0  0  0  0  0  0  0  0  0  0  0  0
   37.4490   75.3620   59.8900 H   0  0  0  0  0  0  0  0  0  0  0  0
  1  6  1  0  0  0  0
  1 13  1  0  0  0  0
  2  1  2  0  0  0  0
  3  4  2  0  0  0  0
  3  2  1  0  0  0  0
  4  5  1  0  0  0  0
  5 20  1  0  0  0  0
  5  6  2  0  0  0  0
  7  2  1  0  0  0  0
  8  3  1  0  0  0  0
  9 10  1  0  0  0  0
 10 11  2  0  0  0  0
 10 16  1  0  0  0  0
 11 17  1  0  0  0  0
 12 11  1  0  0  0  0
 13 12  2  0  0  0  0
 14 13  1  0  0  0  0
 14  9  2  0  0  0  0
 15  9  1  0  0  0  0
 15 18  1  0  0  0  0
 19 15  1  0  0  0  0
 20 22  1  0  0  0  0
 21 22  2  0  0  0  0
 22 23  1  0  0  0  0
 23 24  1  0  0  0  0
 25 26  1  0  0  0  0
 25 22  1  0  0  0  0
M  END
>  <minimizedAffinity>
-4.96190548

$$$$
