
 OpenBabel03212520583D

 40 43  0  0  1  0  0  0  0  0999 V2000
   39.7490   77.2750   59.2380 C   0  0  0  0  0  0  0  0  0  0  0  0
   40.4050   76.1130   59.0110 C   0  0  0  0  0  0  0  0  0  0  0  0
   39.8540   75.3830   57.9460 C   0  0  0  0  0  0  0  0  0  0  0  0
   38.7900   75.7900   57.2250 N   0  0  0  0  0  0  0  0  0  0  0  0
   38.2030   76.9810   57.5400 C   0  0  0  0  0  0  0  0  0  0  0  0
   38.6910   77.7290   58.5580 N   0  0  0  0  0  0  0  0  0  0  0  0
   41.2460   75.7430   59.5450 H   0  0  0  0  0  0  0  0  0  0  0  0
   40.2670   74.4220   57.6340 H   0  0  0  0  0  0  0  0  0  0  0  0
   40.9730   80.2570   61.7400 C   0  0  0  0  0  0  0  0  0  0  0  0
   40.9510   79.0340   62.3600 C   0  0  0  0  0  0  0  0  0  0  0  0
   40.5650   77.9610   61.6440 C   0  0  0  0  0  0  0  0  0  0  0  0
   40.2050   78.1380   60.3100 C   0  0  0  0  0  0  0  0  0  0  0  0
   40.4240   79.9400   60.0360 S   0  0  0  0  0  0  0  0  0  0  0  0
   41.2350   78.8990   63.4070 H   0  0  0  0  0  0  0  0  0  0  0  0
   40.4810   76.9250   61.9400 H   0  0  0  0  0  0  0  0  0  0  0  0
   43.0660   83.0700   62.8210 C   0  0  0  0  0  0  0  0  0  0  0  0
   42.1720   83.8410   63.6100 C   0  0  0  0  0  0  0  0  0  0  0  0
   40.8610   83.3970   63.7640 C   0  0  0  0  0  0  0  0  0  0  0  0
   40.4860   82.2410   63.1540 N   0  0  0  0  0  0  0  0  0  0  0  0
   41.3760   81.5270   62.4030 C   0  0  0  0  0  0  0  0  0  0  0  0
   42.6330   81.9430   62.2480 N   0  0  0  0  0  0  0  0  0  0  0  0
   44.0500   83.4680   62.7460 H   0  0  0  0  0  0  0  0  0  0  0  0
   42.4360   84.7700   64.1130 H   0  0  0  0  0  0  0  0  0  0  0  0
   40.1160   83.9210   64.3470 H   0  0  0  0  0  0  0  0  0  0  0  0
   37.0680   77.4010   56.7430 C   0  0  0  0  0  0  0  0  0  0  0  0
   35.9400   77.0570   57.1310 O   0  0  0  0  0  0  0  0  0  0  0  0
   37.2290   78.2170   55.4820 C   0  0  1  0  0  0  0  0  0  0  0  0
   37.3560   79.6970   55.7530 C   0  0  0  0  0  0  0  0  0  0  0  0
   38.4660   78.9160   55.2200 C   0  0  2  0  0  0  0  0  0  0  0  0
   36.4140   78.0190   54.7540 H   0  0  0  0  0  0  0  0  0  0  0  0
   37.4240   80.0690   56.7980 H   0  0  0  0  0  0  0  0  0  0  0  0
   36.7160   80.3460   55.1340 H   0  0  0  0  0  0  0  0  0  0  0  0
   39.3190   78.6800   55.9190 H   0  0  0  0  0  0  0  0  0  0  0  0
   38.9210   79.0460   53.9140 O   0  0  0  0  0  0  0  0  0  0  0  0
   40.2280   80.7470   52.4690 O   0  0  0  0  0  0  0  0  0  0  0  0
   40.2930   79.9910   53.7870 P   0  0  0  0  0  0  0  0  0  0  0  0
   40.5030   81.0520   55.0870 O   0  0  0  0  0  0  0  0  0  0  0  0
   39.5850   81.4190   55.2880 H   0  0  0  0  0  0  0  0  0  0  0  0
   41.6860   79.0080   53.7000 O   0  0  0  0  0  0  0  0  0  0  0  0
   42.4800   79.5820   53.5640 H   0  0  0  0  0  0  0  0  0  0  0  0
  1 12  1  0  0  0  0
  2  1  1  0  0  0  0
  2  7  1  0  0  0  0
  3  2  2  0  0  0  0
  4  5  2  0  0  0  0
  4  3  1  0  0  0  0
  5  6  1  0  0  0  0
  6  1  2  0  0  0  0
  8  3  1  0  0  0  0
  9 10  2  0  0  0  0
  9 20  1  0  0  0  0
 10 14  1  0  0  0  0
 11 15  1  0  0  0  0
 11 10  1  0  0  0  0
 12 11  2  0  0  0  0
 13 12  1  0  0  0  0
 13  9  1  0  0  0  0
 16 17  1  0  0  0  0
 17 18  2  0  0  0  0
 17 23  1  0  0  0  0
 18 24  1  0  0  0  0
 19 18  1  0  0  0  0
 20 19  2  0  0  0  0
 21 20  1  0  0  0  0
 21 16  2  0  0  0  0
 22 16  1  0  0  0  0
 25 26  2  0  0  0  0
 25  5  1  0  0  0  0
 27 30  1  6  0  0  0
 27 28  1  0  0  0  0
 27 25  1  0  0  0  0
 28 31  1  0  0  0  0
 29 27  1  0  0  0  0
 29 28  1  0  0  0  0
 29 33  1  1  0  0  0
 32 28  1  0  0  0  0
 34 29  1  0  0  0  0
 35 36  2  0  0  0  0
 36 34  1  0  0  0  0
 36 37  1  0  0  0  0
 37 38  1  0  0  0  0
 39 36  1  0  0  0  0
 40 39  1  0  0  0  0
M  END
>  <minimizedAffinity>
-6.04768038

>  <minimizedRMSD>
0.387822211

$$$$
