
 OpenBabel03212520583D

 40 43  0  0  1  0  0  0  0  0999 V2000
   39.7470   77.2640   59.2340 C   0  0  0  0  0  0  0  0  0  0  0  0
   40.4170   76.1140   58.9880 C   0  0  0  0  0  0  0  0  0  0  0  0
   39.8600   75.3830   57.9260 C   0  0  0  0  0  0  0  0  0  0  0  0
   38.7790   75.7780   57.2260 N   0  0  0  0  0  0  0  0  0  0  0  0
   38.1790   76.9580   57.5590 C   0  0  0  0  0  0  0  0  0  0  0  0
   38.6710   77.7060   58.5740 N   0  0  0  0  0  0  0  0  0  0  0  0
   41.2720   75.7540   59.5060 H   0  0  0  0  0  0  0  0  0  0  0  0
   40.2830   74.4310   57.6010 H   0  0  0  0  0  0  0  0  0  0  0  0
   40.9770   80.2450   61.7340 C   0  0  0  0  0  0  0  0  0  0  0  0
   40.9600   79.0210   62.3530 C   0  0  0  0  0  0  0  0  0  0  0  0
   40.5730   77.9490   61.6370 C   0  0  0  0  0  0  0  0  0  0  0  0
   40.2070   78.1270   60.3050 C   0  0  0  0  0  0  0  0  0  0  0  0
   40.4210   79.9290   60.0320 S   0  0  0  0  0  0  0  0  0  0  0  0
   41.2480   78.8860   63.3980 H   0  0  0  0  0  0  0  0  0  0  0  0
   40.4910   76.9120   61.9330 H   0  0  0  0  0  0  0  0  0  0  0  0
   43.0730   83.0580   62.8120 C   0  0  0  0  0  0  0  0  0  0  0  0
   42.1790   83.8290   63.6020 C   0  0  0  0  0  0  0  0  0  0  0  0
   40.8680   83.3850   63.7580 C   0  0  0  0  0  0  0  0  0  0  0  0
   40.4920   82.2290   63.1480 N   0  0  0  0  0  0  0  0  0  0  0  0
   41.3810   81.5150   62.3960 C   0  0  0  0  0  0  0  0  0  0  0  0
   42.6380   81.9310   62.2400 N   0  0  0  0  0  0  0  0  0  0  0  0
   44.0560   83.4560   62.7360 H   0  0  0  0  0  0  0  0  0  0  0  0
   42.4440   84.7580   64.1050 H   0  0  0  0  0  0  0  0  0  0  0  0
   40.1240   83.9090   64.3420 H   0  0  0  0  0  0  0  0  0  0  0  0
   37.0240   77.3660   56.7830 C   0  0  0  0  0  0  0  0  0  0  0  0
   35.9040   77.0720   57.2300 O   0  0  0  0  0  0  0  0  0  0  0  0
   37.1570   78.1110   55.4750 C   0  0  1  0  0  0  0  0  0  0  0  0
   37.4300   79.5830   55.6650 C   0  0  0  0  0  0  0  0  0  0  0  0
   38.4250   78.6850   55.0910 C   0  0  2  0  0  0  0  0  0  0  0  0
   36.2750   77.9550   54.8190 H   0  0  0  0  0  0  0  0  0  0  0  0
   37.6090   79.9910   56.6830 H   0  0  0  0  0  0  0  0  0  0  0  0
   36.8020   80.2600   55.0630 H   0  0  0  0  0  0  0  0  0  0  0  0
   39.3060   78.4050   55.7360 H   0  0  0  0  0  0  0  0  0  0  0  0
   38.7880   78.7200   53.7500 O   0  0  0  0  0  0  0  0  0  0  0  0
   38.0540   79.1960   51.3150 O   0  0  0  0  0  0  0  0  0  0  0  0
   37.5750   79.2940   52.7550 P   0  0  0  0  0  0  0  0  0  0  0  0
   36.0990   78.4930   52.9620 O   0  0  0  0  0  0  0  0  0  0  0  0
   36.3330   77.5160   53.0560 H   0  0  0  0  0  0  0  0  0  0  0  0
   37.3010   80.9530   53.0500 O   0  0  0  0  0  0  0  0  0  0  0  0
   36.6230   81.2880   52.4120 H   0  0  0  0  0  0  0  0  0  0  0  0
  1 12  1  0  0  0  0
  2  1  1  0  0  0  0
  2  7  1  0  0  0  0
  3  2  2  0  0  0  0
  4  5  2  0  0  0  0
  4  3  1  0  0  0  0
  5  6  1  0  0  0  0
  6  1  2  0  0  0  0
  8  3  1  0  0  0  0
  9 10  2  0  0  0  0
  9 20  1  0  0  0  0
 10 14  1  0  0  0  0
 11 15  1  0  0  0  0
 11 10  1  0  0  0  0
 12 11  2  0  0  0  0
 13 12  1  0  0  0  0
 13  9  1  0  0  0  0
 16 17  1  0  0  0  0
 17 18  2  0  0  0  0
 17 23  1  0  0  0  0
 18 24  1  0  0  0  0
 19 18  1  0  0  0  0
 20 19  2  0  0  0  0
 21 20  1  0  0  0  0
 21 16  2  0  0  0  0
 22 16  1  0  0  0  0
 25 26  2  0  0  0  0
 25  5  1  0  0  0  0
 27 30  1  6  0  0  0
 27 28  1  0  0  0  0
 27 25  1  0  0  0  0
 28 31  1  0  0  0  0
 29 27  1  0  0  0  0
 29 28  1  0  0  0  0
 29 33  1  1  0  0  0
 32 28  1  0  0  0  0
 34 29  1  0  0  0  0
 35 36  2  0  0  0  0
 36 37  1  0  0  0  0
 36 39  1  0  0  0  0
 36 34  1  0  0  0  0
 37 38  1  0  0  0  0
 40 39  1  0  0  0  0
M  END
>  <minimizedAffinity>
-6.66369581

>  <minimizedRMSD>
0.529236913

$$$$
