
 OpenBabel03212520583D

 40 43  0  0  1  0  0  0  0  0999 V2000
   39.7820   77.4200   59.1860 C   0  0  0  0  0  0  0  0  0  0  0  0
   40.4720   76.2910   58.9000 C   0  0  0  0  0  0  0  0  0  0  0  0
   39.9170   75.5800   57.8240 C   0  0  0  0  0  0  0  0  0  0  0  0
   38.8210   75.9740   57.1460 N   0  0  0  0  0  0  0  0  0  0  0  0
   38.2020   77.1320   57.5200 C   0  0  0  0  0  0  0  0  0  0  0  0
   38.6910   77.8600   58.5500 N   0  0  0  0  0  0  0  0  0  0  0  0
   41.3390   75.9320   59.3980 H   0  0  0  0  0  0  0  0  0  0  0  0
   40.3540   74.6460   57.4670 H   0  0  0  0  0  0  0  0  0  0  0  0
   40.9880   80.3510   61.7560 C   0  0  0  0  0  0  0  0  0  0  0  0
   40.9940   79.1120   62.3420 C   0  0  0  0  0  0  0  0  0  0  0  0
   40.6170   78.0530   61.6010 C   0  0  0  0  0  0  0  0  0  0  0  0
   40.2380   78.2610   60.2770 C   0  0  0  0  0  0  0  0  0  0  0  0
   40.4240   80.0730   60.0510 S   0  0  0  0  0  0  0  0  0  0  0  0
   41.2920   78.9520   63.3820 H   0  0  0  0  0  0  0  0  0  0  0  0
   40.5530   77.0070   61.8690 H   0  0  0  0  0  0  0  0  0  0  0  0
   43.0580   83.1500   62.9170 C   0  0  0  0  0  0  0  0  0  0  0  0
   42.1520   83.9010   63.7130 C   0  0  0  0  0  0  0  0  0  0  0  0
   40.8410   83.4480   63.8440 C   0  0  0  0  0  0  0  0  0  0  0  0
   40.4780   82.3040   63.2060 N   0  0  0  0  0  0  0  0  0  0  0  0
   41.3780   81.6090   62.4490 C   0  0  0  0  0  0  0  0  0  0  0  0
   42.6350   82.0340   62.3170 N   0  0  0  0  0  0  0  0  0  0  0  0
   44.0410   83.5540   62.8610 H   0  0  0  0  0  0  0  0  0  0  0  0
   42.4060   84.8200   64.2380 H   0  0  0  0  0  0  0  0  0  0  0  0
   40.0880   83.9560   64.4300 H   0  0  0  0  0  0  0  0  0  0  0  0
   37.0320   77.5390   56.7690 C   0  0  0  0  0  0  0  0  0  0  0  0
   35.9410   77.0480   57.1010 O   0  0  0  0  0  0  0  0  0  0  0  0
   37.1140   78.5140   55.6160 C   0  0  1  0  0  0  0  0  0  0  0  0
   37.3530   79.9350   56.0670 C   0  0  0  0  0  0  0  0  0  0  0  0
   38.3580   79.1870   55.3220 C   0  0  2  0  0  0  0  0  0  0  0  0
   36.2220   78.4530   54.9580 H   0  0  0  0  0  0  0  0  0  0  0  0
   37.5440   80.1560   57.1390 H   0  0  0  0  0  0  0  0  0  0  0  0
   36.6930   80.6900   55.6100 H   0  0  0  0  0  0  0  0  0  0  0  0
   39.2600   78.8200   55.8890 H   0  0  0  0  0  0  0  0  0  0  0  0
   38.6890   79.4750   54.0040 O   0  0  0  0  0  0  0  0  0  0  0  0
   38.6480   78.6480   51.5530 O   0  0  0  0  0  0  0  0  0  0  0  0
   37.9860   78.4310   52.9050 P   0  0  0  0  0  0  0  0  0  0  0  0
   38.0700   76.8070   53.3710 O   0  0  0  0  0  0  0  0  0  0  0  0
   38.9970   76.6830   53.7510 H   0  0  0  0  0  0  0  0  0  0  0  0
   36.3370   78.8150   52.6910 O   0  0  0  0  0  0  0  0  0  0  0  0
   35.9540   78.2270   51.9950 H   0  0  0  0  0  0  0  0  0  0  0  0
  1 12  1  0  0  0  0
  2  1  1  0  0  0  0
  2  7  1  0  0  0  0
  3  2  2  0  0  0  0
  4  5  2  0  0  0  0
  4  3  1  0  0  0  0
  5  6  1  0  0  0  0
  6  1  2  0  0  0  0
  8  3  1  0  0  0  0
  9 10  2  0  0  0  0
  9 20  1  0  0  0  0
 10 14  1  0  0  0  0
 11 15  1  0  0  0  0
 11 10  1  0  0  0  0
 12 11  2  0  0  0  0
 13 12  1  0  0  0  0
 13  9  1  0  0  0  0
 16 17  1  0  0  0  0
 17 18  2  0  0  0  0
 17 23  1  0  0  0  0
 18 24  1  0  0  0  0
 19 18  1  0  0  0  0
 20 19  2  0  0  0  0
 21 20  1  0  0  0  0
 21 16  2  0  0  0  0
 22 16  1  0  0  0  0
 25 26  2  0  0  0  0
 25  5  1  0  0  0  0
 27 30  1  6  0  0  0
 27 28  1  0  0  0  0
 27 25  1  0  0  0  0
 28 31  1  0  0  0  0
 29 27  1  0  0  0  0
 29 33  1  1  0  0  0
 29 28  1  0  0  0  0
 32 28  1  0  0  0  0
 34 29  1  0  0  0  0
 35 36  2  0  0  0  0
 36 37  1  0  0  0  0
 36 34  1  0  0  0  0
 37 38  1  0  0  0  0
 39 36  1  0  0  0  0
 40 39  1  0  0  0  0
M  END
>  <minimizedAffinity>
-6.36468029

>  <minimizedRMSD>
0.317784458

$$$$
