
 OpenBabel03212520583D

 40 43  0  0  1  0  0  0  0  0999 V2000
   39.7460   77.3900   59.2270 C   0  0  0  0  0  0  0  0  0  0  0  0
   40.3810   76.2170   59.0010 C   0  0  0  0  0  0  0  0  0  0  0  0
   39.8270   75.5030   57.9260 C   0  0  0  0  0  0  0  0  0  0  0  0
   38.7780   75.9340   57.1970 N   0  0  0  0  0  0  0  0  0  0  0  0
   38.2120   77.1360   57.5130 C   0  0  0  0  0  0  0  0  0  0  0  0
   38.7040   77.8680   58.5390 N   0  0  0  0  0  0  0  0  0  0  0  0
   41.2090   75.8270   59.5400 H   0  0  0  0  0  0  0  0  0  0  0  0
   40.2240   74.5360   57.6120 H   0  0  0  0  0  0  0  0  0  0  0  0
   40.9730   80.3380   61.7670 C   0  0  0  0  0  0  0  0  0  0  0  0
   40.9730   79.1040   62.3650 C   0  0  0  0  0  0  0  0  0  0  0  0
   40.5890   78.0400   61.6340 C   0  0  0  0  0  0  0  0  0  0  0  0
   40.2080   78.2380   60.3090 C   0  0  0  0  0  0  0  0  0  0  0  0
   40.4030   80.0460   60.0660 S   0  0  0  0  0  0  0  0  0  0  0  0
   41.2740   78.9520   63.4050 H   0  0  0  0  0  0  0  0  0  0  0  0
   40.5200   76.9980   61.9120 H   0  0  0  0  0  0  0  0  0  0  0  0
   43.0590   83.1380   62.8960 C   0  0  0  0  0  0  0  0  0  0  0  0
   42.1600   83.9000   63.6880 C   0  0  0  0  0  0  0  0  0  0  0  0
   40.8470   83.4530   63.8280 C   0  0  0  0  0  0  0  0  0  0  0  0
   40.4770   82.3060   63.2010 N   0  0  0  0  0  0  0  0  0  0  0  0
   41.3710   81.6000   62.4480 C   0  0  0  0  0  0  0  0  0  0  0  0
   42.6300   82.0180   62.3070 N   0  0  0  0  0  0  0  0  0  0  0  0
   44.0440   83.5360   62.8320 H   0  0  0  0  0  0  0  0  0  0  0  0
   42.4200   84.8220   64.2040 H   0  0  0  0  0  0  0  0  0  0  0  0
   40.0990   83.9710   64.4120 H   0  0  0  0  0  0  0  0  0  0  0  0
   37.0930   77.5820   56.7080 C   0  0  0  0  0  0  0  0  0  0  0  0
   35.9590   77.2090   57.0490 O   0  0  0  0  0  0  0  0  0  0  0  0
   37.2770   78.4590   55.4900 C   0  0  1  0  0  0  0  0  0  0  0  0
   37.3250   79.9290   55.8290 C   0  0  0  0  0  0  0  0  0  0  0  0
   38.4930   79.2200   55.3210 C   0  0  2  0  0  0  0  0  0  0  0  0
   36.5080   78.2570   54.7150 H   0  0  0  0  0  0  0  0  0  0  0  0
   37.3250   80.2570   56.8910 H   0  0  0  0  0  0  0  0  0  0  0  0
   36.6870   80.5770   55.2070 H   0  0  0  0  0  0  0  0  0  0  0  0
   39.3210   78.9910   56.0500 H   0  0  0  0  0  0  0  0  0  0  0  0
   39.0040   79.4270   54.0450 O   0  0  0  0  0  0  0  0  0  0  0  0
   41.0770   78.6590   52.7030 O   0  0  0  0  0  0  0  0  0  0  0  0
   39.8770   78.1240   53.4670 P   0  0  0  0  0  0  0  0  0  0  0  0
   40.3570   77.0440   54.6780 O   0  0  0  0  0  0  0  0  0  0  0  0
   40.6530   77.6220   55.4510 H   0  0  0  0  0  0  0  0  0  0  0  0
   38.9500   77.2430   52.3360 O   0  0  0  0  0  0  0  0  0  0  0  0
   39.5030   76.5150   51.9610 H   0  0  0  0  0  0  0  0  0  0  0  0
  1 12  1  0  0  0  0
  2  1  1  0  0  0  0
  2  7  1  0  0  0  0
  3  2  2  0  0  0  0
  4  5  2  0  0  0  0
  4  3  1  0  0  0  0
  5  6  1  0  0  0  0
  6  1  2  0  0  0  0
  8  3  1  0  0  0  0
  9 10  2  0  0  0  0
  9 20  1  0  0  0  0
 10 14  1  0  0  0  0
 11 15  1  0  0  0  0
 11 10  1  0  0  0  0
 12 11  2  0  0  0  0
 13 12  1  0  0  0  0
 13  9  1  0  0  0  0
 16 17  1  0  0  0  0
 17 18  2  0  0  0  0
 17 23  1  0  0  0  0
 18 24  1  0  0  0  0
 19 18  1  0  0  0  0
 20 19  2  0  0  0  0
 21 20  1  0  0  0  0
 21 16  2  0  0  0  0
 22 16  1  0  0  0  0
 25 26  2  0  0  0  0
 25  5  1  0  0  0  0
 27 30  1  6  0  0  0
 27 28  1  0  0  0  0
 27 25  1  0  0  0  0
 28 31  1  0  0  0  0
 29 27  1  0  0  0  0
 29 28  1  0  0  0  0
 29 33  1  1  0  0  0
 32 28  1  0  0  0  0
 34 29  1  0  0  0  0
 35 36  2  0  0  0  0
 36 34  1  0  0  0  0
 36 37  1  0  0  0  0
 37 38  1  0  0  0  0
 39 36  1  0  0  0  0
 40 39  1  0  0  0  0
M  END
>  <minimizedAffinity>
-5.8190999

>  <minimizedRMSD>
0.194984451

$$$$
