
 OpenBabel03212520123D

 29 30  0  0  0  0  0  0  0  0999 V2000
   42.0150   83.9680   58.2220 Cl  0  0  0  0  0  0  0  0  0  0  0  0
   41.1050   82.4530   58.1240 C   0  0  0  0  0  0  0  0  0  0  0  0
   40.6330   81.7830   59.2430 C   0  0  0  0  0  0  0  0  0  0  0  0
   39.9520   80.6110   58.9920 C   0  0  0  0  0  0  0  0  0  0  0  0
   39.7120   80.0740   57.7360 C   0  0  0  0  0  0  0  0  0  0  0  0
   40.1900   80.7600   56.6680 C   0  0  0  0  0  0  0  0  0  0  0  0
   39.9320   80.1530   55.0400 Cl  0  0  0  0  0  0  0  0  0  0  0  0
   40.8770   81.9340   56.8670 C   0  0  0  0  0  0  0  0  0  0  0  0
   39.5710   80.0660   59.8580 H   0  0  0  0  0  0  0  0  0  0  0  0
   39.1620   79.1420   57.6520 H   0  0  0  0  0  0  0  0  0  0  0  0
   41.9710   82.1380   61.3590 C   0  0  0  0  0  0  0  0  0  0  0  0
   40.8750   82.3330   60.5320 C   0  0  0  0  0  0  0  0  0  0  0  0
   39.8500   83.1850   61.0050 C   0  0  0  0  0  0  0  0  0  0  0  0
   40.0330   83.7390   62.2350 N   0  0  0  0  0  0  0  0  0  0  0  0
   41.1020   83.5290   63.0050 C   0  0  0  0  0  0  0  0  0  0  0  0
   42.0660   82.7270   62.5580 N   0  0  0  0  0  0  0  0  0  0  0  0
   42.7330   81.4810   60.9600 H   0  0  0  0  0  0  0  0  0  0  0  0
   38.9400   83.4280   60.4690 H   0  0  0  0  0  0  0  0  0  0  0  0
   41.1070   84.2320   64.3210 C   0  0  0  0  0  0  0  0  0  0  0  0
   40.7850   85.5540   64.2010 F   0  0  0  0  0  0  0  0  0  0  0  0
   40.1650   83.6390   65.1590 F   0  0  0  0  0  0  0  0  0  0  0  0
   42.3640   84.1670   64.9000 F   0  0  0  0  0  0  0  0  0  0  0  0
   41.3460   82.5990   55.7290 O   0  0  0  0  0  0  0  0  0  0  0  0
   43.7750   83.4690   55.2250 O   0  0  0  0  0  0  0  0  0  0  0  0
   42.9220   82.1990   55.1860 P   0  0  0  0  0  0  0  0  0  0  0  0
   42.8970   81.6110   53.6040 O   0  0  0  0  0  0  0  0  0  0  0  0
   43.6630   81.0070   53.4270 H   0  0  0  0  0  0  0  0  0  0  0  0
   43.6960   81.0820   56.1680 O   0  0  0  0  0  0  0  0  0  0  0  0
   43.2070   80.2220   56.2020 H   0  0  0  0  0  0  0  0  0  0  0  0
  2  1  1  0  0  0  0
  2  3  1  0  0  0  0
  3 12  1  0  0  0  0
  4  3  2  0  0  0  0
  4  9  1  0  0  0  0
  5  4  1  0  0  0  0
  6  8  1  0  0  0  0
  6  5  2  0  0  0  0
  7  6  1  0  0  0  0
  8  2  2  0  0  0  0
 10  5  1  0  0  0  0
 11 16  1  0  0  0  0
 12 13  1  0  0  0  0
 12 11  2  0  0  0  0
 13 14  2  0  0  0  0
 14 15  1  0  0  0  0
 15 19  1  0  0  0  0
 16 15  2  0  0  0  0
 17 11  1  0  0  0  0
 18 13  1  0  0  0  0
 19 22  1  0  0  0  0
 19 21  1  0  0  0  0
 20 19  1  0  0  0  0
 23  8  1  0  0  0  0
 25 24  2  0  0  0  0
 25 23  1  0  0  0  0
 25 28  1  0  0  0  0
 26 25  1  0  0  0  0
 27 26  1  0  0  0  0
 28 29  1  0  0  0  0
M  END
>  <minimizedAffinity>
-4.88477516

>  <minimizedRMSD>
1.01181245

$$$$
