
 OpenBabel03212520143D

 29 30  0  0  0  0  0  0  0  0999 V2000
   39.5240   73.0750   61.3170 Cl  0  0  0  0  0  0  0  0  0  0  0  0
   41.0930   73.5700   60.6640 C   0  0  0  0  0  0  0  0  0  0  0  0
   42.2290   72.7790   60.7470 C   0  0  0  0  0  0  0  0  0  0  0  0
   43.3720   73.3170   60.1960 C   0  0  0  0  0  0  0  0  0  0  0  0
   43.4600   74.5570   59.5810 C   0  0  0  0  0  0  0  0  0  0  0  0
   42.3270   75.3000   59.5200 C   0  0  0  0  0  0  0  0  0  0  0  0
   42.3480   76.8820   58.7590 Cl  0  0  0  0  0  0  0  0  0  0  0  0
   41.1610   74.8060   60.0570 C   0  0  0  0  0  0  0  0  0  0  0  0
   44.2790   72.7120   60.2490 H   0  0  0  0  0  0  0  0  0  0  0  0
   44.4140   74.8850   59.1780 H   0  0  0  0  0  0  0  0  0  0  0  0
   42.0950   71.2140   62.7290 C   0  0  0  0  0  0  0  0  0  0  0  0
   42.1400   71.5050   61.3740 C   0  0  0  0  0  0  0  0  0  0  0  0
   42.0910   70.4140   60.4750 C   0  0  0  0  0  0  0  0  0  0  0  0
   42.0060   69.1710   61.0250 N   0  0  0  0  0  0  0  0  0  0  0  0
   41.9650   68.9280   62.3360 C   0  0  0  0  0  0  0  0  0  0  0  0
   42.0100   69.9560   63.1800 N   0  0  0  0  0  0  0  0  0  0  0  0
   42.1340   72.0760   63.3830 H   0  0  0  0  0  0  0  0  0  0  0  0
   42.1180   70.4900   59.3950 H   0  0  0  0  0  0  0  0  0  0  0  0
   41.8700   67.4920   62.7310 C   0  0  0  0  0  0  0  0  0  0  0  0
   42.9350   67.0930   63.4870 F   0  0  0  0  0  0  0  0  0  0  0  0
   40.7160   67.3010   63.4870 F   0  0  0  0  0  0  0  0  0  0  0  0
   41.8390   66.6820   61.6060 F   0  0  0  0  0  0  0  0  0  0  0  0
   40.0240   75.6160   59.9640 O   0  0  0  0  0  0  0  0  0  0  0  0
   38.6800   76.7590   58.0160 O   0  0  0  0  0  0  0  0  0  0  0  0
   39.0110   75.3840   58.6000 P   0  0  0  0  0  0  0  0  0  0  0  0
   37.5720   74.6150   59.0270 O   0  0  0  0  0  0  0  0  0  0  0  0
   37.1870   74.1100   58.2650 H   0  0  0  0  0  0  0  0  0  0  0  0
   39.7470   74.5150   57.3700 O   0  0  0  0  0  0  0  0  0  0  0  0
   39.9990   73.6030   57.6650 H   0  0  0  0  0  0  0  0  0  0  0  0
  2  3  1  0  0  0  0
  2  1  1  0  0  0  0
  3 12  1  0  0  0  0
  4  9  1  0  0  0  0
  4  3  2  0  0  0  0
  5  4  1  0  0  0  0
  6  5  2  0  0  0  0
  6  8  1  0  0  0  0
  7  6  1  0  0  0  0
  8  2  2  0  0  0  0
 10  5  1  0  0  0  0
 11 16  1  0  0  0  0
 11 17  1  0  0  0  0
 12 11  2  0  0  0  0
 13 14  2  0  0  0  0
 13 12  1  0  0  0  0
 14 15  1  0  0  0  0
 15 19  1  0  0  0  0
 15 16  2  0  0  0  0
 18 13  1  0  0  0  0
 19 20  1  0  0  0  0
 19 21  1  0  0  0  0
 22 19  1  0  0  0  0
 23  8  1  0  0  0  0
 24 25  2  0  0  0  0
 25 26  1  0  0  0  0
 25 23  1  0  0  0  0
 27 26  1  0  0  0  0
 28 29  1  0  0  0  0
 28 25  1  0  0  0  0
M  END
>  <minimizedAffinity>
-5.88535738

$$$$

 OpenBabel03212520143D

 29 30  0  0  0  0  0  0  0  0999 V2000
   39.0690   73.2810   60.5580 Cl  0  0  0  0  0  0  0  0  0  0  0  0
   40.4300   74.2440   59.9630 C   0  0  0  0  0  0  0  0  0  0  0  0
   41.7540   73.9080   60.2040 C   0  0  0  0  0  0  0  0  0  0  0  0
   42.6930   74.7700   59.6780 C   0  0  0  0  0  0  0  0  0  0  0  0
   42.4120   75.9130   58.9450 C   0  0  0  0  0  0  0  0  0  0  0  0
   41.1050   76.2060   58.7310 C   0  0  0  0  0  0  0  0  0  0  0  0
   40.6580   77.6340   57.8120 Cl  0  0  0  0  0  0  0  0  0  0  0  0
   40.1310   75.3770   59.2370 C   0  0  0  0  0  0  0  0  0  0  0  0
   43.7420   74.5260   59.8550 H   0  0  0  0  0  0  0  0  0  0  0  0
   43.2310   76.5230   58.5750 H   0  0  0  0  0  0  0  0  0  0  0  0
   42.1250   72.5900   62.3300 C   0  0  0  0  0  0  0  0  0  0  0  0
   42.0450   72.7340   60.9530 C   0  0  0  0  0  0  0  0  0  0  0  0
   42.2760   71.5820   60.1660 C   0  0  0  0  0  0  0  0  0  0  0  0
   42.5580   70.4300   60.8350 N   0  0  0  0  0  0  0  0  0  0  0  0
   42.6280   70.3280   62.1640 C   0  0  0  0  0  0  0  0  0  0  0  0
   42.4090   71.4130   62.9020 N   0  0  0  0  0  0  0  0  0  0  0  0
   41.9410   73.4940   62.8960 H   0  0  0  0  0  0  0  0  0  0  0  0
   42.2460   71.5460   59.0840 H   0  0  0  0  0  0  0  0  0  0  0  0
   42.9510   68.9720   62.6970 C   0  0  0  0  0  0  0  0  0  0  0  0
   44.0760   68.9770   63.4710 F   0  0  0  0  0  0  0  0  0  0  0  0
   41.8930   68.5280   63.4870 F   0  0  0  0  0  0  0  0  0  0  0  0
   43.1720   68.0830   61.6570 F   0  0  0  0  0  0  0  0  0  0  0  0
   38.8010   75.7280   58.9840 O   0  0  0  0  0  0  0  0  0  0  0  0
   39.2120   74.6920   56.6040 O   0  0  0  0  0  0  0  0  0  0  0  0
   38.0870   75.1040   57.5560 P   0  0  0  0  0  0  0  0  0  0  0  0
   37.1270   76.2620   56.7910 O   0  0  0  0  0  0  0  0  0  0  0  0
   36.4090   75.8420   56.2520 H   0  0  0  0  0  0  0  0  0  0  0  0
   37.1690   73.7270   57.8220 O   0  0  0  0  0  0  0  0  0  0  0  0
   36.4110   73.9040   58.4350 H   0  0  0  0  0  0  0  0  0  0  0  0
  2  3  1  0  0  0  0
  2  1  1  0  0  0  0
  3 12  1  0  0  0  0
  4  9  1  0  0  0  0
  4  3  2  0  0  0  0
  5  4  1  0  0  0  0
  6  5  2  0  0  0  0
  6  8  1  0  0  0  0
  7  6  1  0  0  0  0
  8  2  2  0  0  0  0
 10  5  1  0  0  0  0
 11 17  1  0  0  0  0
 11 16  1  0  0  0  0
 12 11  2  0  0  0  0
 13 14  2  0  0  0  0
 13 12  1  0  0  0  0
 14 15  1  0  0  0  0
 15 19  1  0  0  0  0
 15 16  2  0  0  0  0
 18 13  1  0  0  0  0
 19 20  1  0  0  0  0
 19 21  1  0  0  0  0
 22 19  1  0  0  0  0
 23  8  1  0  0  0  0
 24 25  2  0  0  0  0
 25 28  1  0  0  0  0
 25 23  1  0  0  0  0
 26 25  1  0  0  0  0
 27 26  1  0  0  0  0
 28 29  1  0  0  0  0
M  END
>  <minimizedAffinity>
-5.75649595

$$$$

 OpenBabel03212520143D

 29 30  0  0  0  0  0  0  0  0999 V2000
   38.6250   72.8840   57.1630 Cl  0  0  0  0  0  0  0  0  0  0  0  0
   38.6190   74.6450   57.3450 C   0  0  0  0  0  0  0  0  0  0  0  0
   39.1570   75.2910   58.4480 C   0  0  0  0  0  0  0  0  0  0  0  0
   39.0630   76.6660   58.4380 C   0  0  0  0  0  0  0  0  0  0  0  0
   38.4860   77.4250   57.4290 C   0  0  0  0  0  0  0  0  0  0  0  0
   37.9720   76.7550   56.3680 C   0  0  0  0  0  0  0  0  0  0  0  0
   37.2220   77.6350   55.0460 Cl  0  0  0  0  0  0  0  0  0  0  0  0
   38.0410   75.3820   56.3330 C   0  0  0  0  0  0  0  0  0  0  0  0
   39.4800   77.1970   59.2960 H   0  0  0  0  0  0  0  0  0  0  0  0
   38.4650   78.5060   57.5220 H   0  0  0  0  0  0  0  0  0  0  0  0
   39.1370   73.9110   60.5670 C   0  0  0  0  0  0  0  0  0  0  0  0
   39.7530   74.5160   59.4810 C   0  0  0  0  0  0  0  0  0  0  0  0
   41.1530   74.3580   59.3600 C   0  0  0  0  0  0  0  0  0  0  0  0
   41.7720   73.6230   60.3240 N   0  0  0  0  0  0  0  0  0  0  0  0
   41.1460   73.0550   61.3570 C   0  0  0  0  0  0  0  0  0  0  0  0
   39.8290   73.2050   61.4690 N   0  0  0  0  0  0  0  0  0  0  0  0
   38.0650   74.0560   60.6230 H   0  0  0  0  0  0  0  0  0  0  0  0
   41.7630   74.7720   58.5670 H   0  0  0  0  0  0  0  0  0  0  0  0
   42.0110   72.2910   62.3030 C   0  0  0  0  0  0  0  0  0  0  0  0
   42.7750   73.1120   63.0830 F   0  0  0  0  0  0  0  0  0  0  0  0
   41.2040   71.5320   63.1480 F   0  0  0  0  0  0  0  0  0  0  0  0
   42.8780   71.4630   61.6070 F   0  0  0  0  0  0  0  0  0  0  0  0
   37.4950   74.7440   55.2130 O   0  0  0  0  0  0  0  0  0  0  0  0
   39.7430   75.4580   54.0520 O   0  0  0  0  0  0  0  0  0  0  0  0
   38.5050   74.5850   53.8370 P   0  0  0  0  0  0  0  0  0  0  0  0
   37.7180   75.0950   52.4350 O   0  0  0  0  0  0  0  0  0  0  0  0
   38.0790   74.6440   51.6290 H   0  0  0  0  0  0  0  0  0  0  0  0
   39.0670   73.0220   53.6070 O   0  0  0  0  0  0  0  0  0  0  0  0
   38.3240   72.3830   53.4600 H   0  0  0  0  0  0  0  0  0  0  0  0
  1  2  1  0  0  0  0
  2  3  1  0  0  0  0
  3 12  1  0  0  0  0
  4  3  2  0  0  0  0
  4  9  1  0  0  0  0
  5 10  1  0  0  0  0
  5  4  1  0  0  0  0
  6  5  2  0  0  0  0
  7  6  1  0  0  0  0
  8  6  1  0  0  0  0
  8  2  2  0  0  0  0
 11 17  1  0  0  0  0
 11 16  1  0  0  0  0
 12 11  2  0  0  0  0
 13 12  1  0  0  0  0
 13 14  2  0  0  0  0
 14 15  1  0  0  0  0
 15 16  2  0  0  0  0
 15 19  1  0  0  0  0
 18 13  1  0  0  0  0
 19 20  1  0  0  0  0
 19 21  1  0  0  0  0
 22 19  1  0  0  0  0
 23  8  1  0  0  0  0
 25 24  2  0  0  0  0
 25 23  1  0  0  0  0
 26 25  1  0  0  0  0
 27 26  1  0  0  0  0
 28 25  1  0  0  0  0
 29 28  1  0  0  0  0
M  END
>  <minimizedAffinity>
-5.68031788

$$$$

 OpenBabel03212520143D

 29 30  0  0  0  0  0  0  0  0999 V2000
   39.7450   71.7730   58.9700 Cl  0  0  0  0  0  0  0  0  0  0  0  0
   41.2640   72.5490   59.4440 C   0  0  0  0  0  0  0  0  0  0  0  0
   42.2720   71.8810   60.1230 C   0  0  0  0  0  0  0  0  0  0  0  0
   43.3870   72.6340   60.4260 C   0  0  0  0  0  0  0  0  0  0  0  0
   43.5630   73.9720   60.1050 C   0  0  0  0  0  0  0  0  0  0  0  0
   42.5540   74.5880   59.4420 C   0  0  0  0  0  0  0  0  0  0  0  0
   42.6930   76.2810   58.9960 Cl  0  0  0  0  0  0  0  0  0  0  0  0
   41.4210   73.8790   59.1180 C   0  0  0  0  0  0  0  0  0  0  0  0
   44.1940   72.1290   60.9600 H   0  0  0  0  0  0  0  0  0  0  0  0
   44.4840   74.4700   60.3920 H   0  0  0  0  0  0  0  0  0  0  0  0
   42.0990   69.4140   59.5960 C   0  0  0  0  0  0  0  0  0  0  0  0
   42.0950   70.5080   60.4490 C   0  0  0  0  0  0  0  0  0  0  0  0
   41.8930   70.2550   61.8260 C   0  0  0  0  0  0  0  0  0  0  0  0
   41.7180   68.9560   62.1910 N   0  0  0  0  0  0  0  0  0  0  0  0
   41.7280   67.9260   61.3410 C   0  0  0  0  0  0  0  0  0  0  0  0
   41.9190   68.1660   60.0470 N   0  0  0  0  0  0  0  0  0  0  0  0
   42.2580   69.6490   58.5520 H   0  0  0  0  0  0  0  0  0  0  0  0
   41.8650   71.0090   62.6030 H   0  0  0  0  0  0  0  0  0  0  0  0
   41.5170   66.5790   61.9470 C   0  0  0  0  0  0  0  0  0  0  0  0
   40.4110   66.5390   62.7480 F   0  0  0  0  0  0  0  0  0  0  0  0
   41.3400   65.6430   60.9300 F   0  0  0  0  0  0  0  0  0  0  0  0
   42.6040   66.2250   62.7320 F   0  0  0  0  0  0  0  0  0  0  0  0
   40.4140   74.5660   58.4320 O   0  0  0  0  0  0  0  0  0  0  0  0
   39.0910   76.7640   59.0060 O   0  0  0  0  0  0  0  0  0  0  0  0
   39.1760   75.2820   59.3770 P   0  0  0  0  0  0  0  0  0  0  0  0
   39.5100   75.1550   61.0260 O   0  0  0  0  0  0  0  0  0  0  0  0
   38.6810   75.1620   61.5690 H   0  0  0  0  0  0  0  0  0  0  0  0
   37.6580   74.6350   59.0800 O   0  0  0  0  0  0  0  0  0  0  0  0
   37.6230   73.6680   59.2940 H   0  0  0  0  0  0  0  0  0  0  0  0
  1  2  1  0  0  0  0
  2  3  1  0  0  0  0
  3  4  2  0  0  0  0
  3 12  1  0  0  0  0
  4  9  1  0  0  0  0
  5 10  1  0  0  0  0
  5  4  1  0  0  0  0
  6  5  2  0  0  0  0
  7  6  1  0  0  0  0
  8  6  1  0  0  0  0
  8  2  2  0  0  0  0
 11 16  2  0  0  0  0
 11 12  1  0  0  0  0
 12 13  2  0  0  0  0
 13 14  1  0  0  0  0
 13 18  1  0  0  0  0
 15 19  1  0  0  0  0
 15 14  2  0  0  0  0
 16 15  1  0  0  0  0
 17 11  1  0  0  0  0
 19 22  1  0  0  0  0
 19 20  1  0  0  0  0
 21 19  1  0  0  0  0
 23  8  1  0  0  0  0
 23 25  1  0  0  0  0
 24 25  2  0  0  0  0
 25 26  1  0  0  0  0
 26 27  1  0  0  0  0
 28 29  1  0  0  0  0
 28 25  1  0  0  0  0
M  END
>  <minimizedAffinity>
-5.52391434

$$$$

 OpenBabel03212520143D

 29 30  0  0  0  0  0  0  0  0999 V2000
   41.7330   70.8500   58.5250 Cl  0  0  0  0  0  0  0  0  0  0  0  0
   41.9000   70.8720   60.2880 C   0  0  0  0  0  0  0  0  0  0  0  0
   41.4350   71.9130   61.0760 C   0  0  0  0  0  0  0  0  0  0  0  0
   41.6530   71.7800   62.4300 C   0  0  0  0  0  0  0  0  0  0  0  0
   42.2860   70.7060   63.0400 C   0  0  0  0  0  0  0  0  0  0  0  0
   42.7270   69.7080   62.2330 C   0  0  0  0  0  0  0  0  0  0  0  0
   43.5400   68.3110   62.9190 Cl  0  0  0  0  0  0  0  0  0  0  0  0
   42.5330   69.7970   60.8750 C   0  0  0  0  0  0  0  0  0  0  0  0
   41.2950   72.5870   63.0710 H   0  0  0  0  0  0  0  0  0  0  0  0
   42.4060   70.7010   64.1190 H   0  0  0  0  0  0  0  0  0  0  0  0
   39.4250   73.1910   60.2240 C   0  0  0  0  0  0  0  0  0  0  0  0
   40.7820   73.0140   60.4540 C   0  0  0  0  0  0  0  0  0  0  0  0
   41.6510   74.0440   60.0280 C   0  0  0  0  0  0  0  0  0  0  0  0
   41.0750   75.1210   59.4260 N   0  0  0  0  0  0  0  0  0  0  0  0
   39.7640   75.2580   59.2210 C   0  0  0  0  0  0  0  0  0  0  0  0
   38.9470   74.2880   59.6230 N   0  0  0  0  0  0  0  0  0  0  0  0
   38.7940   72.3800   60.5660 H   0  0  0  0  0  0  0  0  0  0  0  0
   42.7280   74.0420   60.1410 H   0  0  0  0  0  0  0  0  0  0  0  0
   39.3380   76.5180   58.5430 C   0  0  0  0  0  0  0  0  0  0  0  0
   38.0530   76.4490   58.0850 F   0  0  0  0  0  0  0  0  0  0  0  0
   39.4110   77.5720   59.4510 F   0  0  0  0  0  0  0  0  0  0  0  0
   40.1500   76.7780   57.4500 F   0  0  0  0  0  0  0  0  0  0  0  0
   43.0070   68.7380   60.0930 O   0  0  0  0  0  0  0  0  0  0  0  0
   42.7740   66.1420   59.7570 O   0  0  0  0  0  0  0  0  0  0  0  0
   41.9400   67.4220   59.8320 P   0  0  0  0  0  0  0  0  0  0  0  0
   41.0880   67.5990   58.3860 O   0  0  0  0  0  0  0  0  0  0  0  0
   40.2170   67.1260   58.4150 H   0  0  0  0  0  0  0  0  0  0  0  0
   40.8460   67.2000   61.0830 O   0  0  0  0  0  0  0  0  0  0  0  0
   40.2610   67.9900   61.2030 H   0  0  0  0  0  0  0  0  0  0  0  0
  1  2  1  0  0  0  0
  2  8  2  0  0  0  0
  2  3  1  0  0  0  0
  3  4  2  0  0  0  0
  4  5  1  0  0  0  0
  4  9  1  0  0  0  0
  5 10  1  0  0  0  0
  6  7  1  0  0  0  0
  6  5  2  0  0  0  0
  8  6  1  0  0  0  0
 11 12  1  0  0  0  0
 11 17  1  0  0  0  0
 12  3  1  0  0  0  0
 13 18  1  0  0  0  0
 13 12  2  0  0  0  0
 14 13  1  0  0  0  0
 15 14  2  0  0  0  0
 15 16  1  0  0  0  0
 16 11  2  0  0  0  0
 19 15  1  0  0  0  0
 19 21  1  0  0  0  0
 20 19  1  0  0  0  0
 22 19  1  0  0  0  0
 23  8  1  0  0  0  0
 24 25  2  0  0  0  0
 25 23  1  0  0  0  0
 25 28  1  0  0  0  0
 26 27  1  0  0  0  0
 26 25  1  0  0  0  0
 28 29  1  0  0  0  0
M  END
>  <minimizedAffinity>
-5.37212181

$$$$

 OpenBabel03212520143D

 29 30  0  0  0  0  0  0  0  0999 V2000
   41.9550   70.5240   58.9890 Cl  0  0  0  0  0  0  0  0  0  0  0  0
   41.9840   70.3450   60.7500 C   0  0  0  0  0  0  0  0  0  0  0  0
   41.7150   71.3920   61.6190 C   0  0  0  0  0  0  0  0  0  0  0  0
   41.7890   71.0860   62.9610 C   0  0  0  0  0  0  0  0  0  0  0  0
   42.1040   69.8410   63.4850 C   0  0  0  0  0  0  0  0  0  0  0  0
   42.3610   68.8440   62.6020 C   0  0  0  0  0  0  0  0  0  0  0  0
   42.7680   67.2360   63.1770 Cl  0  0  0  0  0  0  0  0  0  0  0  0
   42.3000   69.1010   61.2520 C   0  0  0  0  0  0  0  0  0  0  0  0
   41.5810   71.8940   63.6640 H   0  0  0  0  0  0  0  0  0  0  0  0
   42.1340   69.7090   64.5620 H   0  0  0  0  0  0  0  0  0  0  0  0
   42.1840   73.5110   60.3220 C   0  0  0  0  0  0  0  0  0  0  0  0
   41.3880   72.6680   61.0840 C   0  0  0  0  0  0  0  0  0  0  0  0
   40.0770   73.1090   61.3820 C   0  0  0  0  0  0  0  0  0  0  0  0
   39.7140   74.3260   60.8920 N   0  0  0  0  0  0  0  0  0  0  0  0
   40.5080   75.1120   60.1610 C   0  0  0  0  0  0  0  0  0  0  0  0
   41.7400   74.6950   59.8810 N   0  0  0  0  0  0  0  0  0  0  0  0
   43.1780   73.1380   60.1150 H   0  0  0  0  0  0  0  0  0  0  0  0
   39.3490   72.5580   61.9640 H   0  0  0  0  0  0  0  0  0  0  0  0
   39.9150   76.4090   59.7230 C   0  0  0  0  0  0  0  0  0  0  0  0
   38.6680   76.2530   59.1890 F   0  0  0  0  0  0  0  0  0  0  0  0
   39.8040   77.2560   60.8230 F   0  0  0  0  0  0  0  0  0  0  0  0
   40.7070   76.9990   58.7500 F   0  0  0  0  0  0  0  0  0  0  0  0
   42.5730   68.0340   60.3880 O   0  0  0  0  0  0  0  0  0  0  0  0
   44.2710   67.8210   58.3930 O   0  0  0  0  0  0  0  0  0  0  0  0
   44.2070   67.8080   59.9210 P   0  0  0  0  0  0  0  0  0  0  0  0
   44.8060   66.3320   60.4770 O   0  0  0  0  0  0  0  0  0  0  0  0
   45.7900   66.3590   60.5980 H   0  0  0  0  0  0  0  0  0  0  0  0
   45.2210   69.0360   60.4450 O   0  0  0  0  0  0  0  0  0  0  0  0
   45.2390   69.1010   61.4330 H   0  0  0  0  0  0  0  0  0  0  0  0
  1  2  1  0  0  0  0
  2  8  2  0  0  0  0
  2  3  1  0  0  0  0
  3  4  2  0  0  0  0
  4  5  1  0  0  0  0
  4  9  1  0  0  0  0
  5 10  1  0  0  0  0
  6  7  1  0  0  0  0
  6  5  2  0  0  0  0
  8  6  1  0  0  0  0
 11 12  1  0  0  0  0
 12 13  2  0  0  0  0
 12  3  1  0  0  0  0
 13 18  1  0  0  0  0
 14 13  1  0  0  0  0
 15 14  2  0  0  0  0
 16 15  1  0  0  0  0
 16 11  2  0  0  0  0
 17 11  1  0  0  0  0
 19 15  1  0  0  0  0
 19 21  1  0  0  0  0
 20 19  1  0  0  0  0
 22 19  1  0  0  0  0
 23  8  1  0  0  0  0
 24 25  2  0  0  0  0
 25 23  1  0  0  0  0
 25 28  1  0  0  0  0
 25 26  1  0  0  0  0
 26 27  1  0  0  0  0
 28 29  1  0  0  0  0
M  END
>  <minimizedAffinity>
-5.37069941

$$$$

 OpenBabel03212520143D

 29 30  0  0  0  0  0  0  0  0999 V2000
   40.2600   72.0630   59.1620 Cl  0  0  0  0  0  0  0  0  0  0  0  0
   41.0280   73.4330   58.3450 C   0  0  0  0  0  0  0  0  0  0  0  0
   41.4240   73.3940   57.0170 C   0  0  0  0  0  0  0  0  0  0  0  0
   42.0150   74.5430   56.5370 C   0  0  0  0  0  0  0  0  0  0  0  0
   42.2320   75.7010   57.2700 C   0  0  0  0  0  0  0  0  0  0  0  0
   41.8300   75.6990   58.5650 C   0  0  0  0  0  0  0  0  0  0  0  0
   42.0650   77.1220   59.5660 Cl  0  0  0  0  0  0  0  0  0  0  0  0
   41.2360   74.5750   59.0890 C   0  0  0  0  0  0  0  0  0  0  0  0
   42.3350   74.5360   55.4940 H   0  0  0  0  0  0  0  0  0  0  0  0
   42.7070   76.5520   56.7920 H   0  0  0  0  0  0  0  0  0  0  0  0
   40.1020   71.8840   55.4780 C   0  0  0  0  0  0  0  0  0  0  0  0
   41.1990   72.2100   56.2620 C   0  0  0  0  0  0  0  0  0  0  0  0
   42.2460   71.2610   56.3380 C   0  0  0  0  0  0  0  0  0  0  0  0
   42.0800   70.1090   55.6330 N   0  0  0  0  0  0  0  0  0  0  0  0
   41.0080   69.8280   54.8880 C   0  0  0  0  0  0  0  0  0  0  0  0
   40.0250   70.7220   54.8170 N   0  0  0  0  0  0  0  0  0  0  0  0
   39.3250   72.6360   55.4460 H   0  0  0  0  0  0  0  0  0  0  0  0
   43.1580   71.3800   56.9090 H   0  0  0  0  0  0  0  0  0  0  0  0
   41.0240   68.5070   54.1940 C   0  0  0  0  0  0  0  0  0  0  0  0
   41.9220   68.4750   53.1660 F   0  0  0  0  0  0  0  0  0  0  0  0
   41.3850   67.5170   55.1050 F   0  0  0  0  0  0  0  0  0  0  0  0
   39.7760   68.2260   53.6600 F   0  0  0  0  0  0  0  0  0  0  0  0
   40.8410   74.6300   60.4310 O   0  0  0  0  0  0  0  0  0  0  0  0
   38.4390   73.9910   61.2860 O   0  0  0  0  0  0  0  0  0  0  0  0
   39.2470   75.1750   60.7520 P   0  0  0  0  0  0  0  0  0  0  0  0
   38.5010   75.7530   59.3530 O   0  0  0  0  0  0  0  0  0  0  0  0
   37.8040   76.4260   59.5620 H   0  0  0  0  0  0  0  0  0  0  0  0
   39.1800   76.3620   61.9330 O   0  0  0  0  0  0  0  0  0  0  0  0
   39.6830   77.1730   61.6680 H   0  0  0  0  0  0  0  0  0  0  0  0
  2  8  1  0  0  0  0
  2  1  1  0  0  0  0
  3  2  2  0  0  0  0
  4  3  1  0  0  0  0
  4  5  2  0  0  0  0
  5  6  1  0  0  0  0
  6  8  2  0  0  0  0
  6  7  1  0  0  0  0
  8 23  1  0  0  0  0
  9  4  1  0  0  0  0
 10  5  1  0  0  0  0
 11 12  1  0  0  0  0
 12 13  2  0  0  0  0
 12  3  1  0  0  0  0
 13 18  1  0  0  0  0
 14 13  1  0  0  0  0
 15 14  2  0  0  0  0
 16 15  1  0  0  0  0
 16 11  2  0  0  0  0
 17 11  1  0  0  0  0
 19 15  1  0  0  0  0
 19 21  1  0  0  0  0
 20 19  1  0  0  0  0
 22 19  1  0  0  0  0
 23 25  1  0  0  0  0
 25 24  2  0  0  0  0
 25 28  1  0  0  0  0
 26 27  1  0  0  0  0
 26 25  1  0  0  0  0
 29 28  1  0  0  0  0
M  END
>  <minimizedAffinity>
-5.32666349

$$$$

 OpenBabel03212520143D

 29 30  0  0  0  0  0  0  0  0999 V2000
   42.5750   70.8060   62.2410 Cl  0  0  0  0  0  0  0  0  0  0  0  0
   42.0260   69.8990   60.8230 C   0  0  0  0  0  0  0  0  0  0  0  0
   41.7010   70.5060   59.6190 C   0  0  0  0  0  0  0  0  0  0  0  0
   41.2820   69.6570   58.6180 C   0  0  0  0  0  0  0  0  0  0  0  0
   41.1660   68.2790   58.7290 C   0  0  0  0  0  0  0  0  0  0  0  0
   41.4930   67.7240   59.9230 C   0  0  0  0  0  0  0  0  0  0  0  0
   41.3770   65.9870   60.1520 Cl  0  0  0  0  0  0  0  0  0  0  0  0
   41.9170   68.5310   60.9530 C   0  0  0  0  0  0  0  0  0  0  0  0
   41.0210   70.1120   57.6610 H   0  0  0  0  0  0  0  0  0  0  0  0
   40.8250   67.7030   57.8750 H   0  0  0  0  0  0  0  0  0  0  0  0
   42.9470   72.6610   59.1740 C   0  0  0  0  0  0  0  0  0  0  0  0
   41.8220   71.9180   59.5010 C   0  0  0  0  0  0  0  0  0  0  0  0
   40.6270   72.6300   59.7540 C   0  0  0  0  0  0  0  0  0  0  0  0
   40.6890   73.9860   59.6540 N   0  0  0  0  0  0  0  0  0  0  0  0
   41.7910   74.6690   59.3370 C   0  0  0  0  0  0  0  0  0  0  0  0
   42.9150   73.9970   59.0990 N   0  0  0  0  0  0  0  0  0  0  0  0
   43.8410   72.0790   58.9880 H   0  0  0  0  0  0  0  0  0  0  0  0
   39.6770   72.1840   60.0190 H   0  0  0  0  0  0  0  0  0  0  0  0
   41.6450   76.1530   59.2810 C   0  0  0  0  0  0  0  0  0  0  0  0
   40.6860   76.6110   60.1390 F   0  0  0  0  0  0  0  0  0  0  0  0
   42.8540   76.7450   59.6390 F   0  0  0  0  0  0  0  0  0  0  0  0
   41.2810   76.5560   58.0050 F   0  0  0  0  0  0  0  0  0  0  0  0
   42.2410   67.9040   62.1610 O   0  0  0  0  0  0  0  0  0  0  0  0
   44.5810   67.5520   61.0160 O   0  0  0  0  0  0  0  0  0  0  0  0
   43.8600   67.3720   62.3540 P   0  0  0  0  0  0  0  0  0  0  0  0
   43.9240   65.7440   62.7890 O   0  0  0  0  0  0  0  0  0  0  0  0
   44.7490   65.5330   63.2970 H   0  0  0  0  0  0  0  0  0  0  0  0
   44.7210   68.2690   63.4770 O   0  0  0  0  0  0  0  0  0  0  0  0
   44.3190   68.2100   64.3810 H   0  0  0  0  0  0  0  0  0  0  0  0
  2  8  1  0  0  0  0
  2  1  1  0  0  0  0
  3  2  2  0  0  0  0
  4  5  2  0  0  0  0
  4  3  1  0  0  0  0
  5  6  1  0  0  0  0
  6  7  1  0  0  0  0
  6  8  2  0  0  0  0
  8 23  1  0  0  0  0
  9  4  1  0  0  0  0
 10  5  1  0  0  0  0
 11 12  1  0  0  0  0
 12  3  1  0  0  0  0
 12 13  2  0  0  0  0
 13 18  1  0  0  0  0
 14 13  1  0  0  0  0
 15 14  2  0  0  0  0
 16 11  2  0  0  0  0
 16 15  1  0  0  0  0
 17 11  1  0  0  0  0
 19 15  1  0  0  0  0
 19 21  1  0  0  0  0
 19 20  1  0  0  0  0
 22 19  1  0  0  0  0
 23 25  1  0  0  0  0
 24 25  2  0  0  0  0
 25 26  1  0  0  0  0
 25 28  1  0  0  0  0
 26 27  1  0  0  0  0
 28 29  1  0  0  0  0
M  END
>  <minimizedAffinity>
-5.32453966

$$$$

 OpenBabel03212520143D

 29 30  0  0  0  0  0  0  0  0999 V2000
   40.0870   75.4510   55.3570 Cl  0  0  0  0  0  0  0  0  0  0  0  0
   39.9140   73.7860   54.7810 C   0  0  0  0  0  0  0  0  0  0  0  0
   39.8160   72.6980   55.6360 C   0  0  0  0  0  0  0  0  0  0  0  0
   39.6960   71.4680   55.0250 C   0  0  0  0  0  0  0  0  0  0  0  0
   39.6640   71.2520   53.6540 C   0  0  0  0  0  0  0  0  0  0  0  0
   39.7630   72.3420   52.8530 C   0  0  0  0  0  0  0  0  0  0  0  0
   39.7320   72.1610   51.1070 Cl  0  0  0  0  0  0  0  0  0  0  0  0
   39.8860   73.5900   53.4170 C   0  0  0  0  0  0  0  0  0  0  0  0
   39.6170   70.5970   55.6770 H   0  0  0  0  0  0  0  0  0  0  0  0
   39.5650   70.2390   53.2780 H   0  0  0  0  0  0  0  0  0  0  0  0
   40.9420   72.9280   57.8890 C   0  0  0  0  0  0  0  0  0  0  0  0
   39.8440   72.9170   57.0410 C   0  0  0  0  0  0  0  0  0  0  0  0
   38.5760   73.1550   57.6210 C   0  0  0  0  0  0  0  0  0  0  0  0
   38.5480   73.3710   58.9640 N   0  0  0  0  0  0  0  0  0  0  0  0
   39.6260   73.3730   59.7500 C   0  0  0  0  0  0  0  0  0  0  0  0
   40.8190   73.1510   59.2030 N   0  0  0  0  0  0  0  0  0  0  0  0
   41.8940   72.7430   57.4060 H   0  0  0  0  0  0  0  0  0  0  0  0
   37.6360   73.1750   57.0830 H   0  0  0  0  0  0  0  0  0  0  0  0
   39.3770   73.6310   61.1990 C   0  0  0  0  0  0  0  0  0  0  0  0
   39.8000   72.6000   61.9880 F   0  0  0  0  0  0  0  0  0  0  0  0
   40.0710   74.7760   61.5850 F   0  0  0  0  0  0  0  0  0  0  0  0
   38.0210   73.7990   61.4340 F   0  0  0  0  0  0  0  0  0  0  0  0
   39.9820   74.6780   52.5410 O   0  0  0  0  0  0  0  0  0  0  0  0
   38.6100   76.9190   52.5620 O   0  0  0  0  0  0  0  0  0  0  0  0
   38.5200   75.4610   52.1070 P   0  0  0  0  0  0  0  0  0  0  0  0
   37.1910   74.7410   52.8560 O   0  0  0  0  0  0  0  0  0  0  0  0
   36.3600   74.8720   52.3310 H   0  0  0  0  0  0  0  0  0  0  0  0
   38.2560   75.4990   50.4520 O   0  0  0  0  0  0  0  0  0  0  0  0
   38.1860   74.5870   50.0710 H   0  0  0  0  0  0  0  0  0  0  0  0
  2  1  1  0  0  0  0
  2  3  1  0  0  0  0
  3 12  1  0  0  0  0
  4  3  2  0  0  0  0
  4  9  1  0  0  0  0
  5  4  1  0  0  0  0
  6  8  1  0  0  0  0
  6  5  2  0  0  0  0
  7  6  1  0  0  0  0
  8  2  2  0  0  0  0
 10  5  1  0  0  0  0
 11 16  1  0  0  0  0
 12 13  1  0  0  0  0
 12 11  2  0  0  0  0
 13 14  2  0  0  0  0
 14 15  1  0  0  0  0
 15 19  1  0  0  0  0
 16 15  2  0  0  0  0
 17 11  1  0  0  0  0
 18 13  1  0  0  0  0
 19 22  1  0  0  0  0
 19 21  1  0  0  0  0
 19 20  1  0  0  0  0
 23  8  1  0  0  0  0
 25 23  1  0  0  0  0
 25 24  2  0  0  0  0
 25 26  1  0  0  0  0
 27 26  1  0  0  0  0
 28 25  1  0  0  0  0
 29 28  1  0  0  0  0
M  END
>  <minimizedAffinity>
-5.26490498

$$$$
