
 OpenBabel03212520583D

 40 43  0  0  1  0  0  0  0  0999 V2000
   39.7250   77.3740   59.2160 C   0  0  0  0  0  0  0  0  0  0  0  0
   40.3590   76.2020   58.9810 C   0  0  0  0  0  0  0  0  0  0  0  0
   39.7950   75.4900   57.9110 C   0  0  0  0  0  0  0  0  0  0  0  0
   38.7390   75.9210   57.1930 N   0  0  0  0  0  0  0  0  0  0  0  0
   38.1740   77.1210   57.5160 C   0  0  0  0  0  0  0  0  0  0  0  0
   38.6750   77.8530   58.5390 N   0  0  0  0  0  0  0  0  0  0  0  0
   41.1930   75.8130   59.5120 H   0  0  0  0  0  0  0  0  0  0  0  0
   40.1910   74.5240   57.5920 H   0  0  0  0  0  0  0  0  0  0  0  0
   40.9700   80.3200   61.7500 C   0  0  0  0  0  0  0  0  0  0  0  0
   40.9820   79.0850   62.3440 C   0  0  0  0  0  0  0  0  0  0  0  0
   40.5930   78.0220   61.6150 C   0  0  0  0  0  0  0  0  0  0  0  0
   40.1960   78.2210   60.2950 C   0  0  0  0  0  0  0  0  0  0  0  0
   40.3820   80.0310   60.0540 S   0  0  0  0  0  0  0  0  0  0  0  0
   41.2940   78.9320   63.3800 H   0  0  0  0  0  0  0  0  0  0  0  0
   40.5310   76.9780   61.8910 H   0  0  0  0  0  0  0  0  0  0  0  0
   43.0640   83.1160   62.8760 C   0  0  0  0  0  0  0  0  0  0  0  0
   42.1660   83.8810   63.6670 C   0  0  0  0  0  0  0  0  0  0  0  0
   40.8520   83.4380   63.8070 C   0  0  0  0  0  0  0  0  0  0  0  0
   40.4780   82.2910   63.1820 N   0  0  0  0  0  0  0  0  0  0  0  0
   41.3710   81.5820   62.4290 C   0  0  0  0  0  0  0  0  0  0  0  0
   42.6310   81.9970   62.2880 N   0  0  0  0  0  0  0  0  0  0  0  0
   44.0490   83.5120   62.8120 H   0  0  0  0  0  0  0  0  0  0  0  0
   42.4290   84.8030   64.1820 H   0  0  0  0  0  0  0  0  0  0  0  0
   40.1050   83.9580   64.3910 H   0  0  0  0  0  0  0  0  0  0  0  0
   37.0470   77.5670   56.7220 C   0  0  0  0  0  0  0  0  0  0  0  0
   35.9160   77.2010   57.0800 O   0  0  0  0  0  0  0  0  0  0  0  0
   37.2200   78.4370   55.4980 C   0  0  1  0  0  0  0  0  0  0  0  0
   37.4300   79.8930   55.8390 C   0  0  0  0  0  0  0  0  0  0  0  0
   38.4850   79.0850   55.2390 C   0  0  2  0  0  0  0  0  0  0  0  0
   36.3790   78.3160   54.7830 H   0  0  0  0  0  0  0  0  0  0  0  0
   37.5410   80.2070   56.8990 H   0  0  0  0  0  0  0  0  0  0  0  0
   36.8090   80.6040   55.2690 H   0  0  0  0  0  0  0  0  0  0  0  0
   39.3400   78.7710   55.9020 H   0  0  0  0  0  0  0  0  0  0  0  0
   38.9140   79.2570   53.9290 O   0  0  0  0  0  0  0  0  0  0  0  0
   38.3450   78.7430   51.4580 O   0  0  0  0  0  0  0  0  0  0  0  0
   37.7000   79.0340   52.8040 P   0  0  0  0  0  0  0  0  0  0  0  0
   36.6030   77.8180   53.2300 O   0  0  0  0  0  0  0  0  0  0  0  0
   37.1630   77.0690   53.6060 H   0  0  0  0  0  0  0  0  0  0  0  0
   36.8080   80.4760   52.5990 O   0  0  0  0  0  0  0  0  0  0  0  0
   36.1350   80.3420   51.8870 H   0  0  0  0  0  0  0  0  0  0  0  0
  1 12  1  0  0  0  0
  2  1  1  0  0  0  0
  2  7  1  0  0  0  0
  3  2  2  0  0  0  0
  4  5  2  0  0  0  0
  4  3  1  0  0  0  0
  5  6  1  0  0  0  0
  6  1  2  0  0  0  0
  8  3  1  0  0  0  0
  9 10  2  0  0  0  0
  9 20  1  0  0  0  0
 10 14  1  0  0  0  0
 11 15  1  0  0  0  0
 11 10  1  0  0  0  0
 12 11  2  0  0  0  0
 13 12  1  0  0  0  0
 13  9  1  0  0  0  0
 16 17  1  0  0  0  0
 17 18  2  0  0  0  0
 17 23  1  0  0  0  0
 18 24  1  0  0  0  0
 19 18  1  0  0  0  0
 20 19  2  0  0  0  0
 21 20  1  0  0  0  0
 21 16  2  0  0  0  0
 22 16  1  0  0  0  0
 25 26  2  0  0  0  0
 25  5  1  0  0  0  0
 27 30  1  6  0  0  0
 27 28  1  0  0  0  0
 27 25  1  0  0  0  0
 28 31  1  0  0  0  0
 29 27  1  0  0  0  0
 29 28  1  0  0  0  0
 29 33  1  1  0  0  0
 32 28  1  0  0  0  0
 34 29  1  0  0  0  0
 35 36  2  0  0  0  0
 36 37  1  0  0  0  0
 36 34  1  0  0  0  0
 37 38  1  0  0  0  0
 39 36  1  0  0  0  0
 40 39  1  0  0  0  0
M  END
>  <minimizedAffinity>
-6.47255135

>  <minimizedRMSD>
0.15216884

$$$$
