
 OpenBabel03212520453D

 16 16  0  0  0  0  0  0  0  0999 V2000
   38.5960   75.6650   58.2470 C   0  0  0  0  0  0  0  0  0  0  0  0
   38.7430   76.9440   57.6900 C   0  0  0  0  0  0  0  0  0  0  0  0
   37.9170   77.3000   56.6240 C   0  0  0  0  0  0  0  0  0  0  0  0
   37.0070   76.3880   56.1780 N   0  0  0  0  0  0  0  0  0  0  0  0
   36.8910   75.1520   56.7440 C   0  0  0  0  0  0  0  0  0  0  0  0
   37.6800   74.8040   57.7650 N   0  0  0  0  0  0  0  0  0  0  0  0
   39.4870   77.5620   58.1260 H   0  0  0  0  0  0  0  0  0  0  0  0
   38.0300   78.2760   56.2000 H   0  0  0  0  0  0  0  0  0  0  0  0
   36.1330   74.5360   56.2900 H   0  0  0  0  0  0  0  0  0  0  0  0
   39.3350   75.1530   59.3080 O   0  0  0  0  0  0  0  0  0  0  0  0
   39.4310   73.5490   61.4370 O   0  0  0  0  0  0  0  0  0  0  0  0
   38.6710   74.6940   60.8070 P   0  0  0  0  0  0  0  0  0  0  0  0
   37.0740   74.1410   60.5450 O   0  0  0  0  0  0  0  0  0  0  0  0
   36.8440   74.1360   59.6010 H   0  0  0  0  0  0  0  0  0  0  0  0
   38.6630   75.9810   61.9220 O   0  0  0  0  0  0  0  0  0  0  0  0
   38.4410   76.8120   61.4250 H   0  0  0  0  0  0  0  0  0  0  0  0
  1 10  1  0  0  0  0
  2  7  1  0  0  0  0
  2  1  2  0  0  0  0
  3  2  1  0  0  0  0
  4  3  2  0  0  0  0
  4  5  1  0  0  0  0
  5  6  2  0  0  0  0
  6  1  1  0  0  0  0
  8  3  1  0  0  0  0
  9  5  1  0  0  0  0
 10 12  1  0  0  0  0
 12 11  2  0  0  0  0
 12 15  1  0  0  0  0
 13 12  1  0  0  0  0
 14 13  1  0  0  0  0
 16 15  1  0  0  0  0
M  END
>  <minimizedAffinity>
-4.19333076

$$$$

 OpenBabel03212520453D

 16 16  0  0  0  0  0  0  0  0999 V2000
   38.0830   75.1320   58.2630 C   0  0  0  0  0  0  0  0  0  0  0  0
   37.3160   74.9740   57.1000 C   0  0  0  0  0  0  0  0  0  0  0  0
   37.2700   76.0300   56.1900 C   0  0  0  0  0  0  0  0  0  0  0  0
   37.9740   77.1620   56.4760 N   0  0  0  0  0  0  0  0  0  0  0  0
   38.7100   77.2820   57.6180 C   0  0  0  0  0  0  0  0  0  0  0  0
   38.7580   76.2730   58.4940 N   0  0  0  0  0  0  0  0  0  0  0  0
   36.8140   74.0450   56.9910 H   0  0  0  0  0  0  0  0  0  0  0  0
   36.6840   75.9100   55.3020 H   0  0  0  0  0  0  0  0  0  0  0  0
   39.2130   78.2290   57.7130 H   0  0  0  0  0  0  0  0  0  0  0  0
   38.2360   74.1830   59.2680 O   0  0  0  0  0  0  0  0  0  0  0  0
   39.2640   73.1540   61.5030 O   0  0  0  0  0  0  0  0  0  0  0  0
   39.1820   74.4100   60.6650 P   0  0  0  0  0  0  0  0  0  0  0  0
   38.4350   75.6030   61.6370 O   0  0  0  0  0  0  0  0  0  0  0  0
   37.5920   75.9020   61.2570 H   0  0  0  0  0  0  0  0  0  0  0  0
   40.7740   74.8820   60.2900 O   0  0  0  0  0  0  0  0  0  0  0  0
   40.7310   75.5050   59.5170 H   0  0  0  0  0  0  0  0  0  0  0  0
  1  6  1  0  0  0  0
  1 10  1  0  0  0  0
  2  1  2  0  0  0  0
  3  4  2  0  0  0  0
  3  2  1  0  0  0  0
  4  5  1  0  0  0  0
  5  9  1  0  0  0  0
  5  6  2  0  0  0  0
  7  2  1  0  0  0  0
  8  3  1  0  0  0  0
 10 12  1  0  0  0  0
 12 11  2  0  0  0  0
 12 13  1  0  0  0  0
 14 13  1  0  0  0  0
 15 12  1  0  0  0  0
 16 15  1  0  0  0  0
M  END
>  <minimizedAffinity>
-4.00636101

$$$$

 OpenBabel03212520453D

 16 16  0  0  0  0  0  0  0  0999 V2000
   38.5730   74.7710   59.1250 C   0  0  0  0  0  0  0  0  0  0  0  0
   38.9360   74.8110   60.4800 C   0  0  0  0  0  0  0  0  0  0  0  0
   39.4940   75.9870   60.9810 C   0  0  0  0  0  0  0  0  0  0  0  0
   39.6570   77.0390   60.1290 N   0  0  0  0  0  0  0  0  0  0  0  0
   39.2920   76.9660   58.8170 C   0  0  0  0  0  0  0  0  0  0  0  0
   38.7570   75.8410   58.3300 N   0  0  0  0  0  0  0  0  0  0  0  0
   38.7580   73.9270   61.0390 H   0  0  0  0  0  0  0  0  0  0  0  0
   39.7710   76.0170   62.0140 H   0  0  0  0  0  0  0  0  0  0  0  0
   39.4790   77.8700   58.2630 H   0  0  0  0  0  0  0  0  0  0  0  0
   38.0070   73.6830   58.4700 O   0  0  0  0  0  0  0  0  0  0  0  0
   40.0090   73.1670   56.7840 O   0  0  0  0  0  0  0  0  0  0  0  0
   38.5060   73.1180   56.9430 P   0  0  0  0  0  0  0  0  0  0  0  0
   37.8480   74.1440   55.7440 O   0  0  0  0  0  0  0  0  0  0  0  0
   37.3580   74.8870   56.1340 H   0  0  0  0  0  0  0  0  0  0  0  0
   38.0120   71.5120   56.6650 O   0  0  0  0  0  0  0  0  0  0  0  0
   37.1030   71.4030   57.0500 H   0  0  0  0  0  0  0  0  0  0  0  0
  1  2  1  0  0  0  0
  2  3  2  0  0  0  0
  2  7  1  0  0  0  0
  3  8  1  0  0  0  0
  4  3  1  0  0  0  0
  5  4  2  0  0  0  0
  6  5  1  0  0  0  0
  6  1  2  0  0  0  0
  9  5  1  0  0  0  0
 10  1  1  0  0  0  0
 11 12  2  0  0  0  0
 12 10  1  0  0  0  0
 13 14  1  0  0  0  0
 13 12  1  0  0  0  0
 15 12  1  0  0  0  0
 15 16  1  0  0  0  0
M  END
>  <minimizedAffinity>
-3.96289372

$$$$

 OpenBabel03212520453D

 16 16  0  0  0  0  0  0  0  0999 V2000
   38.9360   75.5670   58.5110 C   0  0  0  0  0  0  0  0  0  0  0  0
   39.4670   76.5670   59.3380 C   0  0  0  0  0  0  0  0  0  0  0  0
   39.4570   76.3580   60.7180 C   0  0  0  0  0  0  0  0  0  0  0  0
   38.9330   75.1920   61.1910 N   0  0  0  0  0  0  0  0  0  0  0  0
   38.4250   74.2400   60.3560 C   0  0  0  0  0  0  0  0  0  0  0  0
   38.4310   74.4350   59.0340 N   0  0  0  0  0  0  0  0  0  0  0  0
   39.8460   77.4290   58.8490 H   0  0  0  0  0  0  0  0  0  0  0  0
   39.8620   77.1210   61.3490 H   0  0  0  0  0  0  0  0  0  0  0  0
   38.0440   73.3720   60.8680 H   0  0  0  0  0  0  0  0  0  0  0  0
   38.8690   75.6150   57.1230 O   0  0  0  0  0  0  0  0  0  0  0  0
   36.6290   76.6340   56.0920 O   0  0  0  0  0  0  0  0  0  0  0  0
   37.4450   75.3680   56.2220 P   0  0  0  0  0  0  0  0  0  0  0  0
   36.4700   74.2340   57.0520 O   0  0  0  0  0  0  0  0  0  0  0  0
   36.8630   73.9720   57.9000 H   0  0  0  0  0  0  0  0  0  0  0  0
   37.7750   74.8060   54.6480 O   0  0  0  0  0  0  0  0  0  0  0  0
   38.5370   74.1710   54.7070 H   0  0  0  0  0  0  0  0  0  0  0  0
  1  6  2  0  0  0  0
  1  2  1  0  0  0  0
  2  3  2  0  0  0  0
  3  4  1  0  0  0  0
  3  8  1  0  0  0  0
  5  9  1  0  0  0  0
  5  4  2  0  0  0  0
  6  5  1  0  0  0  0
  7  2  1  0  0  0  0
 10  1  1  0  0  0  0
 11 12  2  0  0  0  0
 12 13  1  0  0  0  0
 12 10  1  0  0  0  0
 13 14  1  0  0  0  0
 15 16  1  0  0  0  0
 15 12  1  0  0  0  0
M  END
>  <minimizedAffinity>
-3.93678069

$$$$

 OpenBabel03212520453D

 16 16  0  0  0  0  0  0  0  0999 V2000
   39.5040   74.3540   59.0500 C   0  0  0  0  0  0  0  0  0  0  0  0
   40.1250   75.6000   59.2170 C   0  0  0  0  0  0  0  0  0  0  0  0
   39.8870   76.3040   60.3980 C   0  0  0  0  0  0  0  0  0  0  0  0
   39.0630   75.7450   61.3300 N   0  0  0  0  0  0  0  0  0  0  0  0
   38.4770   74.5290   61.1340 C   0  0  0  0  0  0  0  0  0  0  0  0
   38.7000   73.8500   60.0050 N   0  0  0  0  0  0  0  0  0  0  0  0
   40.7420   75.9270   58.4190 H   0  0  0  0  0  0  0  0  0  0  0  0
   40.3600   77.2560   60.5250 H   0  0  0  0  0  0  0  0  0  0  0  0
   37.8520   74.2110   61.9520 H   0  0  0  0  0  0  0  0  0  0  0  0
   39.6330   73.5270   57.9400 O   0  0  0  0  0  0  0  0  0  0  0  0
   38.6450   73.8580   55.4850 O   0  0  0  0  0  0  0  0  0  0  0  0
   38.3840   73.2120   56.8270 P   0  0  0  0  0  0  0  0  0  0  0  0
   36.9370   73.8940   57.4300 O   0  0  0  0  0  0  0  0  0  0  0  0
   37.0840   74.3770   58.2600 H   0  0  0  0  0  0  0  0  0  0  0  0
   38.1710   71.5430   56.5610 O   0  0  0  0  0  0  0  0  0  0  0  0
   38.2980   71.0790   57.4300 H   0  0  0  0  0  0  0  0  0  0  0  0
  1  2  2  0  0  0  0
  1  6  1  0  0  0  0
  2  3  1  0  0  0  0
  3  8  1  0  0  0  0
  3  4  2  0  0  0  0
  5  4  1  0  0  0  0
  5  9  1  0  0  0  0
  6  5  2  0  0  0  0
  7  2  1  0  0  0  0
 10  1  1  0  0  0  0
 11 12  2  0  0  0  0
 12 13  1  0  0  0  0
 12 10  1  0  0  0  0
 13 14  1  0  0  0  0
 15 12  1  0  0  0  0
 15 16  1  0  0  0  0
M  END
>  <minimizedAffinity>
-3.87523127

$$$$

 OpenBabel03212520453D

 16 16  0  0  0  0  0  0  0  0999 V2000
   40.0840   75.7810   58.5840 C   0  0  0  0  0  0  0  0  0  0  0  0
   40.9400   75.7550   57.4730 C   0  0  0  0  0  0  0  0  0  0  0  0
   40.7620   76.7180   56.4800 C   0  0  0  0  0  0  0  0  0  0  0  0
   39.7660   77.6350   56.6390 N   0  0  0  0  0  0  0  0  0  0  0  0
   38.9520   77.6310   57.7330 C   0  0  0  0  0  0  0  0  0  0  0  0
   39.1170   76.7100   58.6890 N   0  0  0  0  0  0  0  0  0  0  0  0
   41.6760   74.9910   57.4650 H   0  0  0  0  0  0  0  0  0  0  0  0
   41.4140   76.6980   55.6320 H   0  0  0  0  0  0  0  0  0  0  0  0
   38.2100   78.4120   57.7260 H   0  0  0  0  0  0  0  0  0  0  0  0
   40.1250   74.8990   59.6580 O   0  0  0  0  0  0  0  0  0  0  0  0
   39.0030   73.2700   61.4490 O   0  0  0  0  0  0  0  0  0  0  0  0
   38.7930   74.5420   60.6580 P   0  0  0  0  0  0  0  0  0  0  0  0
   37.4240   74.2850   59.6650 O   0  0  0  0  0  0  0  0  0  0  0  0
   37.6490   74.3350   58.7210 H   0  0  0  0  0  0  0  0  0  0  0  0
   38.4760   75.7920   61.7700 O   0  0  0  0  0  0  0  0  0  0  0  0
   38.6330   76.6570   61.3060 H   0  0  0  0  0  0  0  0  0  0  0  0
  1  6  1  0  0  0  0
  1 10  1  0  0  0  0
  2  1  2  0  0  0  0
  3  4  2  0  0  0  0
  3  2  1  0  0  0  0
  4  5  1  0  0  0  0
  5  6  2  0  0  0  0
  7  2  1  0  0  0  0
  8  3  1  0  0  0  0
  9  5  1  0  0  0  0
 10 12  1  0  0  0  0
 12 11  2  0  0  0  0
 12 15  1  0  0  0  0
 13 12  1  0  0  0  0
 14 13  1  0  0  0  0
 16 15  1  0  0  0  0
M  END
>  <minimizedAffinity>
-3.81674576

$$$$

 OpenBabel03212520453D

 16 16  0  0  0  0  0  0  0  0999 V2000
   37.4910   74.5680   56.9970 C   0  0  0  0  0  0  0  0  0  0  0  0
   36.7010   75.1160   55.9760 C   0  0  0  0  0  0  0  0  0  0  0  0
   36.7620   76.4930   55.7590 C   0  0  0  0  0  0  0  0  0  0  0  0
   37.5880   77.2360   56.5510 N   0  0  0  0  0  0  0  0  0  0  0  0
   38.3420   76.6690   57.5350 C   0  0  0  0  0  0  0  0  0  0  0  0
   38.2870   75.3500   57.7480 N   0  0  0  0  0  0  0  0  0  0  0  0
   36.1000   74.4340   55.4290 H   0  0  0  0  0  0  0  0  0  0  0  0
   36.1590   76.9110   54.9800 H   0  0  0  0  0  0  0  0  0  0  0  0
   38.9460   77.3750   58.0810 H   0  0  0  0  0  0  0  0  0  0  0  0
   37.5480   73.2230   57.3430 O   0  0  0  0  0  0  0  0  0  0  0  0
   39.1760   71.2970   58.2100 O   0  0  0  0  0  0  0  0  0  0  0  0
   38.8820   72.2100   57.0410 P   0  0  0  0  0  0  0  0  0  0  0  0
   40.2670   73.1900   56.8210 O   0  0  0  0  0  0  0  0  0  0  0  0
   40.0670   74.1310   56.9540 H   0  0  0  0  0  0  0  0  0  0  0  0
   38.6430   71.2290   55.6700 O   0  0  0  0  0  0  0  0  0  0  0  0
   38.1670   71.7720   54.9880 H   0  0  0  0  0  0  0  0  0  0  0  0
  1 10  1  0  0  0  0
  1  6  1  0  0  0  0
  2  1  2  0  0  0  0
  3  2  1  0  0  0  0
  3  4  2  0  0  0  0
  4  5  1  0  0  0  0
  5  6  2  0  0  0  0
  5  9  1  0  0  0  0
  7  2  1  0  0  0  0
  8  3  1  0  0  0  0
 12 10  1  0  0  0  0
 12 11  2  0  0  0  0
 13 14  1  0  0  0  0
 13 12  1  0  0  0  0
 15 12  1  0  0  0  0
 16 15  1  0  0  0  0
M  END
>  <minimizedAffinity>
-3.78346634

$$$$

 OpenBabel03212520453D

 16 16  0  0  0  0  0  0  0  0999 V2000
   40.7980   73.0840   60.7860 C   0  0  0  0  0  0  0  0  0  0  0  0
   41.2090   72.8360   62.1040 C   0  0  0  0  0  0  0  0  0  0  0  0
   42.4730   72.2820   62.3090 C   0  0  0  0  0  0  0  0  0  0  0  0
   43.2450   72.0110   61.2180 N   0  0  0  0  0  0  0  0  0  0  0  0
   42.8120   72.2650   59.9500 C   0  0  0  0  0  0  0  0  0  0  0  0
   41.6020   72.7950   59.7470 N   0  0  0  0  0  0  0  0  0  0  0  0
   40.5180   73.0910   62.8670 H   0  0  0  0  0  0  0  0  0  0  0  0
   42.7870   72.0930   63.3140 H   0  0  0  0  0  0  0  0  0  0  0  0
   43.5250   72.0010   59.1870 H   0  0  0  0  0  0  0  0  0  0  0  0
   39.5760   73.6290   60.4080 O   0  0  0  0  0  0  0  0  0  0  0  0
   40.5210   76.1190   60.2620 O   0  0  0  0  0  0  0  0  0  0  0  0
   39.2530   75.2980   60.3290 P   0  0  0  0  0  0  0  0  0  0  0  0
   38.4410   75.7610   61.7620 O   0  0  0  0  0  0  0  0  0  0  0  0
   38.3520   75.0190   62.3820 H   0  0  0  0  0  0  0  0  0  0  0  0
   38.3070   75.7020   58.9710 O   0  0  0  0  0  0  0  0  0  0  0  0
   37.6380   74.9800   58.8420 H   0  0  0  0  0  0  0  0  0  0  0  0
  1  2  1  0  0  0  0
  2  3  2  0  0  0  0
  2  7  1  0  0  0  0
  3  8  1  0  0  0  0
  4  3  1  0  0  0  0
  5  4  2  0  0  0  0
  6  5  1  0  0  0  0
  6  1  2  0  0  0  0
  9  5  1  0  0  0  0
 10  1  1  0  0  0  0
 11 12  2  0  0  0  0
 12 10  1  0  0  0  0
 12 13  1  0  0  0  0
 13 14  1  0  0  0  0
 15 12  1  0  0  0  0
 16 15  1  0  0  0  0
M  END
>  <minimizedAffinity>
-3.7651

$$$$

 OpenBabel03212520453D

 16 16  0  0  0  0  0  0  0  0999 V2000
   41.3680   73.8400   60.5010 C   0  0  0  0  0  0  0  0  0  0  0  0
   42.6880   73.3720   60.4350 C   0  0  0  0  0  0  0  0  0  0  0  0
   43.0670   72.3380   61.2910 C   0  0  0  0  0  0  0  0  0  0  0  0
   42.1340   71.8340   62.1490 N   0  0  0  0  0  0  0  0  0  0  0  0
   40.8580   72.3130   62.1860 C   0  0  0  0  0  0  0  0  0  0  0  0
   40.4890   73.3040   61.3680 N   0  0  0  0  0  0  0  0  0  0  0  0
   43.3190   73.8460   59.7260 H   0  0  0  0  0  0  0  0  0  0  0  0
   44.0750   71.9820   61.2410 H   0  0  0  0  0  0  0  0  0  0  0  0
   40.2310   71.8220   62.9110 H   0  0  0  0  0  0  0  0  0  0  0  0
   40.8290   74.8580   59.7230 O   0  0  0  0  0  0  0  0  0  0  0  0
   39.2160   76.9290   59.2480 O   0  0  0  0  0  0  0  0  0  0  0  0
   39.3840   75.6810   60.0860 P   0  0  0  0  0  0  0  0  0  0  0  0
   39.4440   76.1870   61.7190 O   0  0  0  0  0  0  0  0  0  0  0  0
   40.2950   75.9680   62.1330 H   0  0  0  0  0  0  0  0  0  0  0  0
   38.0110   74.7040   59.8330 O   0  0  0  0  0  0  0  0  0  0  0  0
   38.2380   73.7820   60.1250 H   0  0  0  0  0  0  0  0  0  0  0  0
  1  6  1  0  0  0  0
  2  1  2  0  0  0  0
  2  3  1  0  0  0  0
  3  4  2  0  0  0  0
  4  5  1  0  0  0  0
  5  9  1  0  0  0  0
  6  5  2  0  0  0  0
  7  2  1  0  0  0  0
  8  3  1  0  0  0  0
 10 12  1  0  0  0  0
 10  1  1  0  0  0  0
 11 12  2  0  0  0  0
 12 13  1  0  0  0  0
 13 14  1  0  0  0  0
 15 12  1  0  0  0  0
 15 16  1  0  0  0  0
M  END
>  <minimizedAffinity>
-3.67861485

$$$$
