
 OpenBabel03212520523D

 23 24  0  0  0  0  0  0  0  0999 V2000
   41.1380   81.2770   61.3990 C   0  0  0  0  0  0  0  0  0  0  0  0
   40.4850   80.0530   61.6600 C   0  0  0  0  0  0  0  0  0  0  0  0
   40.3190   79.1660   60.6490 C   0  0  0  0  0  0  0  0  0  0  0  0
   40.8110   79.5060   59.3650 C   0  0  0  0  0  0  0  0  0  0  0  0
   41.5510   81.1880   59.6230 S   0  0  0  0  0  0  0  0  0  0  0  0
   40.1180   79.8170   62.6490 H   0  0  0  0  0  0  0  0  0  0  0  0
   39.8430   78.2000   60.6960 H   0  0  0  0  0  0  0  0  0  0  0  0
   42.8580   83.7870   63.4010 C   0  0  0  0  0  0  0  0  0  0  0  0
   41.8510   84.2400   64.2990 C   0  0  0  0  0  0  0  0  0  0  0  0
   40.5560   83.6600   64.2010 C   0  0  0  0  0  0  0  0  0  0  0  0
   40.3720   82.7090   63.2520 N   0  0  0  0  0  0  0  0  0  0  0  0
   41.3730   82.3130   62.4170 C   0  0  0  0  0  0  0  0  0  0  0  0
   42.5930   82.8320   62.4790 N   0  0  0  0  0  0  0  0  0  0  0  0
   43.8330   84.2460   63.4980 H   0  0  0  0  0  0  0  0  0  0  0  0
   42.0570   85.0020   65.0360 H   0  0  0  0  0  0  0  0  0  0  0  0
   39.7640   83.9770   64.8650 H   0  0  0  0  0  0  0  0  0  0  0  0
   40.8140   78.8840   58.1960 O   0  0  0  0  0  0  0  0  0  0  0  0
   38.4340   78.0850   57.5880 O   0  0  0  0  0  0  0  0  0  0  0  0
   39.4980   79.0850   57.1440 P   0  0  0  0  0  0  0  0  0  0  0  0
   38.8060   80.6380   57.2460 O   0  0  0  0  0  0  0  0  0  0  0  0
   39.1310   81.1940   56.4960 H   0  0  0  0  0  0  0  0  0  0  0  0
   39.8730   78.6850   55.5480 O   0  0  0  0  0  0  0  0  0  0  0  0
   40.2130   79.4650   55.0440 H   0  0  0  0  0  0  0  0  0  0  0  0
  1  2  2  0  0  0  0
  1 12  1  0  0  0  0
  2  6  1  0  0  0  0
  3  7  1  0  0  0  0
  3  2  1  0  0  0  0
  4  5  1  0  0  0  0
  4  3  2  0  0  0  0
  5  1  1  0  0  0  0
  8 14  1  0  0  0  0
  8  9  1  0  0  0  0
  9 15  1  0  0  0  0
 10  9  2  0  0  0  0
 10 16  1  0  0  0  0
 11 10  1  0  0  0  0
 12 13  1  0  0  0  0
 12 11  2  0  0  0  0
 13  8  2  0  0  0  0
 17  4  1  0  0  0  0
 19 20  1  0  0  0  0
 19 18  2  0  0  0  0
 19 17  1  0  0  0  0
 21 20  1  0  0  0  0
 22 19  1  0  0  0  0
 23 22  1  0  0  0  0
M  END
>  <minimizedAffinity>
-4.39648199

>  <minimizedRMSD>
5.69130421

$$$$
