
 OpenBabel03212520573D

 40 43  0  0  1  0  0  0  0  0999 V2000
   40.0610   77.9960   58.9260 C   0  0  0  0  0  0  0  0  0  0  0  0
   40.8860   76.9900   58.5540 C   0  0  0  0  0  0  0  0  0  0  0  0
   40.4410   76.3290   57.3970 C   0  0  0  0  0  0  0  0  0  0  0  0
   39.3180   76.6570   56.7280 N   0  0  0  0  0  0  0  0  0  0  0  0
   38.5580   77.6910   57.1920 C   0  0  0  0  0  0  0  0  0  0  0  0
   38.9370   78.3660   58.3030 N   0  0  0  0  0  0  0  0  0  0  0  0
   41.7800   76.6880   59.0410 H   0  0  0  0  0  0  0  0  0  0  0  0
   40.9940   75.4930   56.9650 H   0  0  0  0  0  0  0  0  0  0  0  0
   40.9660   80.7710   61.7770 C   0  0  0  0  0  0  0  0  0  0  0  0
   40.9150   79.5000   62.2870 C   0  0  0  0  0  0  0  0  0  0  0  0
   40.6260   78.4860   61.4490 C   0  0  0  0  0  0  0  0  0  0  0  0
   40.3910   78.7710   60.1070 C   0  0  0  0  0  0  0  0  0  0  0  0
   40.5910   80.5930   60.0070 S   0  0  0  0  0  0  0  0  0  0  0  0
   41.1010   79.2800   63.3420 H   0  0  0  0  0  0  0  0  0  0  0  0
   40.5390   77.4270   61.6480 H   0  0  0  0  0  0  0  0  0  0  0  0
   42.8680   83.5440   63.2480 C   0  0  0  0  0  0  0  0  0  0  0  0
   41.8940   84.2020   64.0460 C   0  0  0  0  0  0  0  0  0  0  0  0
   40.5960   83.6970   64.0730 C   0  0  0  0  0  0  0  0  0  0  0  0
   40.3100   82.5920   63.3350 N   0  0  0  0  0  0  0  0  0  0  0  0
   41.2730   81.9860   62.5790 C   0  0  0  0  0  0  0  0  0  0  0  0
   42.5190   82.4620   62.5460 N   0  0  0  0  0  0  0  0  0  0  0  0
   43.8360   83.9830   63.2740 H   0  0  0  0  0  0  0  0  0  0  0  0
   42.0870   85.0880   64.6500 H   0  0  0  0  0  0  0  0  0  0  0  0
   39.7960   84.1350   64.6530 H   0  0  0  0  0  0  0  0  0  0  0  0
   37.3620   78.0310   56.4480 C   0  0  0  0  0  0  0  0  0  0  0  0
   36.2990   77.4940   56.8000 O   0  0  0  0  0  0  0  0  0  0  0  0
   37.3860   78.9910   55.2810 C   0  0  1  0  0  0  0  0  0  0  0  0
   37.2600   80.4340   55.7070 C   0  0  0  0  0  0  0  0  0  0  0  0
   38.4870   79.9120   55.1200 C   0  0  2  0  0  0  0  0  0  0  0  0
   36.6190   78.7360   54.5200 H   0  0  0  0  0  0  0  0  0  0  0  0
   37.2600   80.7000   56.7860 H   0  0  0  0  0  0  0  0  0  0  0  0
   36.5200   81.0280   55.1450 H   0  0  0  0  0  0  0  0  0  0  0  0
   39.3650   79.7510   55.8080 H   0  0  0  0  0  0  0  0  0  0  0  0
   38.9180   80.2540   53.8440 O   0  0  0  0  0  0  0  0  0  0  0  0
   40.7870   79.6620   52.1550 O   0  0  0  0  0  0  0  0  0  0  0  0
   39.7640   79.0300   53.0850 P   0  0  0  0  0  0  0  0  0  0  0  0
   40.5030   77.9530   54.1610 O   0  0  0  0  0  0  0  0  0  0  0  0
   40.8860   78.5290   54.8960 H   0  0  0  0  0  0  0  0  0  0  0  0
   38.7210   78.1160   52.0880 O   0  0  0  0  0  0  0  0  0  0  0  0
   39.2490   77.4360   51.6020 H   0  0  0  0  0  0  0  0  0  0  0  0
  1 12  1  0  0  0  0
  2  1  1  0  0  0  0
  2  7  1  0  0  0  0
  3  2  2  0  0  0  0
  4  5  2  0  0  0  0
  4  3  1  0  0  0  0
  5  6  1  0  0  0  0
  6  1  2  0  0  0  0
  8  3  1  0  0  0  0
  9 10  2  0  0  0  0
  9 20  1  0  0  0  0
 10 14  1  0  0  0  0
 11 15  1  0  0  0  0
 11 10  1  0  0  0  0
 12 11  2  0  0  0  0
 13 12  1  0  0  0  0
 13  9  1  0  0  0  0
 16 22  1  0  0  0  0
 16 17  1  0  0  0  0
 17 18  2  0  0  0  0
 17 23  1  0  0  0  0
 18 24  1  0  0  0  0
 19 18  1  0  0  0  0
 20 19  2  0  0  0  0
 21 20  1  0  0  0  0
 21 16  2  0  0  0  0
 25 26  2  0  0  0  0
 25  5  1  0  0  0  0
 27 30  1  6  0  0  0
 27 28  1  0  0  0  0
 27 25  1  0  0  0  0
 28 31  1  0  0  0  0
 29 27  1  0  0  0  0
 29 28  1  0  0  0  0
 29 33  1  1  0  0  0
 32 28  1  0  0  0  0
 34 29  1  0  0  0  0
 35 36  2  0  0  0  0
 36 34  1  0  0  0  0
 36 37  1  0  0  0  0
 37 38  1  0  0  0  0
 39 36  1  0  0  0  0
 40 39  1  0  0  0  0
M  END
>  <minimizedAffinity>
-5.9461422

>  <minimizedRMSD>
0.824721217

$$$$
