
 OpenBabel03212520583D

 40 43  0  0  1  0  0  0  0  0999 V2000
   39.8590   77.5780   59.0850 C   0  0  0  0  0  0  0  0  0  0  0  0
   40.6070   76.5060   58.7350 C   0  0  0  0  0  0  0  0  0  0  0  0
   40.0720   75.8110   57.6380 C   0  0  0  0  0  0  0  0  0  0  0  0
   38.9400   76.1690   56.9990 N   0  0  0  0  0  0  0  0  0  0  0  0
   38.2630   77.2710   57.4370 C   0  0  0  0  0  0  0  0  0  0  0  0
   38.7300   77.9800   58.4910 N   0  0  0  0  0  0  0  0  0  0  0  0
   41.5040   76.1770   59.1990 H   0  0  0  0  0  0  0  0  0  0  0  0
   40.5550   74.9220   57.2300 H   0  0  0  0  0  0  0  0  0  0  0  0
   40.9940   80.4530   61.7480 C   0  0  0  0  0  0  0  0  0  0  0  0
   40.9970   79.1990   62.3040 C   0  0  0  0  0  0  0  0  0  0  0  0
   40.6430   78.1570   61.5300 C   0  0  0  0  0  0  0  0  0  0  0  0
   40.2870   78.3940   60.2040 C   0  0  0  0  0  0  0  0  0  0  0  0
   40.4640   80.2120   60.0260 S   0  0  0  0  0  0  0  0  0  0  0  0
   41.2780   79.0170   63.3450 H   0  0  0  0  0  0  0  0  0  0  0  0
   40.5810   77.1040   61.7710 H   0  0  0  0  0  0  0  0  0  0  0  0
   43.0200   83.2370   63.0170 C   0  0  0  0  0  0  0  0  0  0  0  0
   42.0940   83.9620   63.8130 C   0  0  0  0  0  0  0  0  0  0  0  0
   40.7840   83.4970   63.9070 C   0  0  0  0  0  0  0  0  0  0  0  0
   40.4410   82.3660   63.2350 N   0  0  0  0  0  0  0  0  0  0  0  0
   41.3610   81.6960   62.4790 C   0  0  0  0  0  0  0  0  0  0  0  0
   42.6180   82.1330   62.3820 N   0  0  0  0  0  0  0  0  0  0  0  0
   44.0010   83.6480   62.9900 H   0  0  0  0  0  0  0  0  0  0  0  0
   42.3320   84.8700   64.3650 H   0  0  0  0  0  0  0  0  0  0  0  0
   40.0160   83.9860   64.4910 H   0  0  0  0  0  0  0  0  0  0  0  0
   37.0550   77.6410   56.7270 C   0  0  0  0  0  0  0  0  0  0  0  0
   35.9970   77.0920   57.0750 O   0  0  0  0  0  0  0  0  0  0  0  0
   37.0610   78.6450   55.5980 C   0  0  1  0  0  0  0  0  0  0  0  0
   37.3200   80.0550   56.0700 C   0  0  0  0  0  0  0  0  0  0  0  0
   38.2810   79.3340   55.2440 C   0  0  2  0  0  0  0  0  0  0  0  0
   36.1300   78.5950   54.9950 H   0  0  0  0  0  0  0  0  0  0  0  0
   37.5760   80.2500   57.1340 H   0  0  0  0  0  0  0  0  0  0  0  0
   36.6290   80.8180   55.6740 H   0  0  0  0  0  0  0  0  0  0  0  0
   39.2180   78.9590   55.7450 H   0  0  0  0  0  0  0  0  0  0  0  0
   38.5280   79.6590   53.9170 O   0  0  0  0  0  0  0  0  0  0  0  0
   38.3130   78.8530   51.4680 O   0  0  0  0  0  0  0  0  0  0  0  0
   37.6680   78.7150   52.8380 P   0  0  0  0  0  0  0  0  0  0  0  0
   37.5600   77.0920   53.3000 O   0  0  0  0  0  0  0  0  0  0  0  0
   38.4740   76.8510   53.6520 H   0  0  0  0  0  0  0  0  0  0  0  0
   36.0750   79.3050   52.6720 O   0  0  0  0  0  0  0  0  0  0  0  0
   35.6020   78.7730   51.9870 H   0  0  0  0  0  0  0  0  0  0  0  0
  1 12  1  0  0  0  0
  2  1  1  0  0  0  0
  2  7  1  0  0  0  0
  3  2  2  0  0  0  0
  4  5  2  0  0  0  0
  4  3  1  0  0  0  0
  5  6  1  0  0  0  0
  6  1  2  0  0  0  0
  8  3  1  0  0  0  0
  9 10  2  0  0  0  0
  9 20  1  0  0  0  0
 10 14  1  0  0  0  0
 11 15  1  0  0  0  0
 11 10  1  0  0  0  0
 12 11  2  0  0  0  0
 13 12  1  0  0  0  0
 13  9  1  0  0  0  0
 16 17  1  0  0  0  0
 17 18  2  0  0  0  0
 17 23  1  0  0  0  0
 18 24  1  0  0  0  0
 19 18  1  0  0  0  0
 20 19  2  0  0  0  0
 21 20  1  0  0  0  0
 21 16  2  0  0  0  0
 22 16  1  0  0  0  0
 25 26  2  0  0  0  0
 25  5  1  0  0  0  0
 27 30  1  6  0  0  0
 27 28  1  0  0  0  0
 27 25  1  0  0  0  0
 28 31  1  0  0  0  0
 29 27  1  0  0  0  0
 29 33  1  1  0  0  0
 29 28  1  0  0  0  0
 32 28  1  0  0  0  0
 34 29  1  0  0  0  0
 35 36  2  0  0  0  0
 36 37  1  0  0  0  0
 36 34  1  0  0  0  0
 37 38  1  0  0  0  0
 39 36  1  0  0  0  0
 40 39  1  0  0  0  0
M  END
>  <minimizedAffinity>
-6.47541189

>  <minimizedRMSD>
0.394682765

$$$$
