
 OpenBabel03212520583D

 40 43  0  0  1  0  0  0  0  0999 V2000
   39.7380   77.3370   59.2530 C   0  0  0  0  0  0  0  0  0  0  0  0
   40.3530   76.1480   59.0500 C   0  0  0  0  0  0  0  0  0  0  0  0
   39.7950   75.4280   57.9820 C   0  0  0  0  0  0  0  0  0  0  0  0
   38.7610   75.8670   57.2370 N   0  0  0  0  0  0  0  0  0  0  0  0
   38.2140   77.0830   57.5290 C   0  0  0  0  0  0  0  0  0  0  0  0
   38.7110   77.8230   58.5480 N   0  0  0  0  0  0  0  0  0  0  0  0
   41.1690   75.7520   59.6040 H   0  0  0  0  0  0  0  0  0  0  0  0
   40.1770   74.4490   57.6870 H   0  0  0  0  0  0  0  0  0  0  0  0
   40.9760   80.3050   61.7640 C   0  0  0  0  0  0  0  0  0  0  0  0
   40.9850   79.0740   62.3700 C   0  0  0  0  0  0  0  0  0  0  0  0
   40.5990   78.0050   61.6480 C   0  0  0  0  0  0  0  0  0  0  0  0
   40.2060   78.1930   60.3260 C   0  0  0  0  0  0  0  0  0  0  0  0
   40.3930   80.0010   60.0690 S   0  0  0  0  0  0  0  0  0  0  0  0
   41.2950   78.9310   63.4080 H   0  0  0  0  0  0  0  0  0  0  0  0
   40.5360   76.9640   61.9340 H   0  0  0  0  0  0  0  0  0  0  0  0
   43.0660   83.1120   62.8680 C   0  0  0  0  0  0  0  0  0  0  0  0
   42.1660   83.8820   63.6530 C   0  0  0  0  0  0  0  0  0  0  0  0
   40.8530   83.4390   63.7960 C   0  0  0  0  0  0  0  0  0  0  0  0
   40.4810   82.2860   63.1800 N   0  0  0  0  0  0  0  0  0  0  0  0
   41.3760   81.5720   62.4330 C   0  0  0  0  0  0  0  0  0  0  0  0
   42.6350   81.9870   62.2900 N   0  0  0  0  0  0  0  0  0  0  0  0
   44.0500   83.5080   62.8020 H   0  0  0  0  0  0  0  0  0  0  0  0
   42.4280   84.8090   64.1610 H   0  0  0  0  0  0  0  0  0  0  0  0
   40.1050   83.9630   64.3750 H   0  0  0  0  0  0  0  0  0  0  0  0
   37.1110   77.5380   56.7060 C   0  0  0  0  0  0  0  0  0  0  0  0
   35.9740   77.1440   57.0090 O   0  0  0  0  0  0  0  0  0  0  0  0
   37.3160   78.4470   55.5170 C   0  0  1  0  0  0  0  0  0  0  0  0
   37.3330   79.9090   55.8930 C   0  0  0  0  0  0  0  0  0  0  0  0
   38.5250   79.2300   55.4000 C   0  0  2  0  0  0  0  0  0  0  0  0
   36.5720   78.2540   54.7150 H   0  0  0  0  0  0  0  0  0  0  0  0
   37.2990   80.2110   56.9620 H   0  0  0  0  0  0  0  0  0  0  0  0
   36.7020   80.5630   55.2680 H   0  0  0  0  0  0  0  0  0  0  0  0
   39.3350   78.9940   56.1460 H   0  0  0  0  0  0  0  0  0  0  0  0
   39.0670   79.4750   54.1450 O   0  0  0  0  0  0  0  0  0  0  0  0
   40.7590   81.0500   52.9830 O   0  0  0  0  0  0  0  0  0  0  0  0
   40.5870   80.1670   54.2090 P   0  0  0  0  0  0  0  0  0  0  0  0
   40.8710   81.0370   55.6320 O   0  0  0  0  0  0  0  0  0  0  0  0
   40.0160   81.5410   55.8150 H   0  0  0  0  0  0  0  0  0  0  0  0
   41.7930   78.9640   54.0980 O   0  0  0  0  0  0  0  0  0  0  0  0
   42.6820   79.3960   54.0760 H   0  0  0  0  0  0  0  0  0  0  0  0
  1 12  1  0  0  0  0
  2  1  1  0  0  0  0
  2  7  1  0  0  0  0
  3  2  2  0  0  0  0
  4  5  2  0  0  0  0
  4  3  1  0  0  0  0
  5  6  1  0  0  0  0
  6  1  2  0  0  0  0
  8  3  1  0  0  0  0
  9 10  2  0  0  0  0
  9 20  1  0  0  0  0
 10 14  1  0  0  0  0
 11 15  1  0  0  0  0
 11 10  1  0  0  0  0
 12 11  2  0  0  0  0
 13 12  1  0  0  0  0
 13  9  1  0  0  0  0
 16 17  1  0  0  0  0
 17 18  2  0  0  0  0
 17 23  1  0  0  0  0
 18 24  1  0  0  0  0
 19 18  1  0  0  0  0
 20 19  2  0  0  0  0
 21 20  1  0  0  0  0
 21 16  2  0  0  0  0
 22 16  1  0  0  0  0
 25 26  2  0  0  0  0
 25  5  1  0  0  0  0
 27 30  1  6  0  0  0
 27 28  1  0  0  0  0
 27 25  1  0  0  0  0
 28 31  1  0  0  0  0
 29 27  1  0  0  0  0
 29 28  1  0  0  0  0
 29 33  1  1  0  0  0
 32 28  1  0  0  0  0
 34 36  1  0  0  0  0
 34 29  1  0  0  0  0
 35 36  2  0  0  0  0
 36 37  1  0  0  0  0
 37 38  1  0  0  0  0
 39 36  1  0  0  0  0
 40 39  1  0  0  0  0
M  END
>  <minimizedAffinity>
-5.95084476

>  <minimizedRMSD>
0.112858303

$$$$
