
 OpenBabel03212520583D

 40 43  0  0  1  0  0  0  0  0999 V2000
   39.7440   77.2530   59.2690 C   0  0  0  0  0  0  0  0  0  0  0  0
   40.3810   76.0770   59.0650 C   0  0  0  0  0  0  0  0  0  0  0  0
   39.8270   75.3420   58.0030 C   0  0  0  0  0  0  0  0  0  0  0  0
   38.7790   75.7590   57.2660 N   0  0  0  0  0  0  0  0  0  0  0  0
   38.2100   76.9650   57.5600 C   0  0  0  0  0  0  0  0  0  0  0  0
   38.7020   77.7170   58.5720 N   0  0  0  0  0  0  0  0  0  0  0  0
   41.2090   75.6980   59.6120 H   0  0  0  0  0  0  0  0  0  0  0  0
   40.2260   74.3700   57.7080 H   0  0  0  0  0  0  0  0  0  0  0  0
   40.9760   80.2490   61.7510 C   0  0  0  0  0  0  0  0  0  0  0  0
   40.9620   79.0280   62.3770 C   0  0  0  0  0  0  0  0  0  0  0  0
   40.5740   77.9510   61.6670 C   0  0  0  0  0  0  0  0  0  0  0  0
   40.2050   78.1220   60.3350 C   0  0  0  0  0  0  0  0  0  0  0  0
   40.4170   79.9230   60.0520 S   0  0  0  0  0  0  0  0  0  0  0  0
   41.2530   78.8980   63.4220 H   0  0  0  0  0  0  0  0  0  0  0  0
   40.4950   76.9160   61.9690 H   0  0  0  0  0  0  0  0  0  0  0  0
   43.0710   83.0680   62.8120 C   0  0  0  0  0  0  0  0  0  0  0  0
   42.1770   83.8440   63.5990 C   0  0  0  0  0  0  0  0  0  0  0  0
   40.8660   83.4000   63.7570 C   0  0  0  0  0  0  0  0  0  0  0  0
   40.4910   82.2410   63.1540 N   0  0  0  0  0  0  0  0  0  0  0  0
   41.3790   81.5220   62.4060 C   0  0  0  0  0  0  0  0  0  0  0  0
   42.6360   81.9380   62.2470 N   0  0  0  0  0  0  0  0  0  0  0  0
   44.0540   83.4660   62.7340 H   0  0  0  0  0  0  0  0  0  0  0  0
   42.4420   84.7760   64.0960 H   0  0  0  0  0  0  0  0  0  0  0  0
   40.1220   83.9270   64.3380 H   0  0  0  0  0  0  0  0  0  0  0  0
   37.0910   77.3950   56.7460 C   0  0  0  0  0  0  0  0  0  0  0  0
   35.9560   77.0440   57.1050 O   0  0  0  0  0  0  0  0  0  0  0  0
   37.2770   78.2290   55.4990 C   0  0  1  0  0  0  0  0  0  0  0  0
   37.3490   79.7090   55.7900 C   0  0  0  0  0  0  0  0  0  0  0  0
   38.5020   78.9680   55.2950 C   0  0  2  0  0  0  0  0  0  0  0  0
   36.4980   78.0150   54.7380 H   0  0  0  0  0  0  0  0  0  0  0  0
   37.3640   80.0710   56.8410 H   0  0  0  0  0  0  0  0  0  0  0  0
   36.7140   80.3460   55.1530 H   0  0  0  0  0  0  0  0  0  0  0  0
   39.3330   78.7500   56.0240 H   0  0  0  0  0  0  0  0  0  0  0  0
   39.0040   79.1250   54.0090 O   0  0  0  0  0  0  0  0  0  0  0  0
   40.3940   80.8060   52.6160 O   0  0  0  0  0  0  0  0  0  0  0  0
   40.3760   80.0760   53.9510 P   0  0  0  0  0  0  0  0  0  0  0  0
   40.4960   81.1640   55.2420 O   0  0  0  0  0  0  0  0  0  0  0  0
   39.5660   81.5290   55.3740 H   0  0  0  0  0  0  0  0  0  0  0  0
   41.7770   79.1010   53.9740 O   0  0  0  0  0  0  0  0  0  0  0  0
   42.5750   79.6770   53.8780 H   0  0  0  0  0  0  0  0  0  0  0  0
  1 12  1  0  0  0  0
  2  1  1  0  0  0  0
  2  7  1  0  0  0  0
  3  2  2  0  0  0  0
  4  5  2  0  0  0  0
  4  3  1  0  0  0  0
  5  6  1  0  0  0  0
  6  1  2  0  0  0  0
  8  3  1  0  0  0  0
  9 10  2  0  0  0  0
  9 20  1  0  0  0  0
 10 14  1  0  0  0  0
 11 15  1  0  0  0  0
 11 10  1  0  0  0  0
 12 11  2  0  0  0  0
 13 12  1  0  0  0  0
 13  9  1  0  0  0  0
 16 17  1  0  0  0  0
 17 18  2  0  0  0  0
 17 23  1  0  0  0  0
 18 24  1  0  0  0  0
 19 18  1  0  0  0  0
 20 19  2  0  0  0  0
 21 20  1  0  0  0  0
 21 16  2  0  0  0  0
 22 16  1  0  0  0  0
 25 26  2  0  0  0  0
 25  5  1  0  0  0  0
 27 30  1  6  0  0  0
 27 28  1  0  0  0  0
 27 25  1  0  0  0  0
 28 31  1  0  0  0  0
 29 27  1  0  0  0  0
 29 28  1  0  0  0  0
 29 33  1  1  0  0  0
 32 28  1  0  0  0  0
 34 29  1  0  0  0  0
 35 36  2  0  0  0  0
 36 39  1  0  0  0  0
 36 34  1  0  0  0  0
 36 37  1  0  0  0  0
 37 38  1  0  0  0  0
 40 39  1  0  0  0  0
M  END
>  <minimizedAffinity>
-6.04100466

>  <minimizedRMSD>
0.209885046

$$$$
