
 OpenBabel03212520503D

 33 35  0  0  1  0  0  0  0  0999 V2000
   41.5850   83.7680   61.3440 C   0  0  0  0  0  0  0  0  0  0  0  0
   40.8580   84.1720   62.4330 C   0  0  0  0  0  0  0  0  0  0  0  0
   40.3970   83.2370   63.3680 C   0  0  0  0  0  0  0  0  0  0  0  0
   40.6670   81.9280   63.2050 N   0  0  0  0  0  0  0  0  0  0  0  0
   41.3880   81.5650   62.1210 C   0  0  0  0  0  0  0  0  0  0  0  0
   41.8450   82.4430   61.2020 N   0  0  0  0  0  0  0  0  0  0  0  0
   40.6590   85.2190   62.5370 H   0  0  0  0  0  0  0  0  0  0  0  0
   39.8330   83.6240   64.1990 H   0  0  0  0  0  0  0  0  0  0  0  0
   43.5540   86.3640   59.6650 C   0  0  0  0  0  0  0  0  0  0  0  0
   42.8930   86.4740   58.4420 C   0  0  0  0  0  0  0  0  0  0  0  0
   41.7920   85.6800   58.1820 C   0  0  0  0  0  0  0  0  0  0  0  0
   41.4150   84.8180   59.1700 N   0  0  0  0  0  0  0  0  0  0  0  0
   42.0630   84.7230   60.3460 C   0  0  0  0  0  0  0  0  0  0  0  0
   43.1290   85.4840   60.6090 N   0  0  0  0  0  0  0  0  0  0  0  0
   44.6660   87.2170   59.7950 N   0  0  0  0  0  0  0  0  0  0  0  0
   43.1990   87.1640   57.6610 H   0  0  0  0  0  0  0  0  0  0  0  0
   41.2400   85.7190   57.2570 H   0  0  0  0  0  0  0  0  0  0  0  0
   44.7100   88.1600   60.2060 H   0  0  0  0  0  0  0  0  0  0  0  0
   45.6730   87.1520   59.5400 H   0  0  0  0  0  0  0  0  0  0  0  0
   41.6450   80.0950   61.9870 C   0  0  1  0  0  0  0  0  0  0  0  0
   40.8620   79.1150   62.7020 C   0  0  0  0  0  0  0  0  0  0  0  0
   40.4690   79.3760   61.2870 C   0  0  2  0  0  0  0  0  0  0  0  0
   42.6500   79.8650   61.5910 H   0  0  0  0  0  0  0  0  0  0  0  0
   41.2530   78.1420   63.0000 H   0  0  0  0  0  0  0  0  0  0  0  0
   40.1450   79.5240   63.4720 H   0  0  0  0  0  0  0  0  0  0  0  0
   39.5480   79.9250   61.0940 H   0  0  0  0  0  0  0  0  0  0  0  0
   40.8770   78.5610   60.2650 O   0  0  0  0  0  0  0  0  0  0  0  0
   40.6960   76.2070   59.2190 O   0  0  0  0  0  0  0  0  0  0  0  0
   40.7470   76.9170   60.5760 P   0  0  0  0  0  0  0  0  0  0  0  0
   42.1290   76.2990   61.3610 O   0  0  0  0  0  0  0  0  0  0  0  0
   42.8250   76.0990   60.6860 H   0  0  0  0  0  0  0  0  0  0  0  0
   39.3330   76.4980   61.3870 O   0  0  0  0  0  0  0  0  0  0  0  0
   39.5290   75.8120   62.0690 H   0  0  0  0  0  0  0  0  0  0  0  0
  1  2  1  0  0  0  0
  2  7  1  0  0  0  0
  2  3  2  0  0  0  0
  3  8  1  0  0  0  0
  4  3  1  0  0  0  0
  5  4  2  0  0  0  0
  6  1  2  0  0  0  0
  6  5  1  0  0  0  0
  9 15  1  0  0  0  0
  9 14  1  0  0  0  0
 10  9  2  0  0  0  0
 11 10  1  0  0  0  0
 11 12  2  0  0  0  0
 12 13  1  0  0  0  0
 13 14  2  0  0  0  0
 13  1  1  0  0  0  0
 15 18  1  0  0  0  0
 16 10  1  0  0  0  0
 17 11  1  0  0  0  0
 19 15  1  0  0  0  0
 20 23  1  6  0  0  0
 20  5  1  0  0  0  0
 20 21  1  0  0  0  0
 21 24  1  0  0  0  0
 21 25  1  0  0  0  0
 22 26  1  6  0  0  0
 22 20  1  0  0  0  0
 22 21  1  0  0  0  0
 27 29  1  0  0  0  0
 27 22  1  0  0  0  0
 28 29  2  0  0  0  0
 29 30  1  0  0  0  0
 29 32  1  0  0  0  0
 31 30  1  0  0  0  0
 32 33  1  0  0  0  0
M  END
>  <minimizedAffinity>
-5.30362749

>  <minimizedRMSD>
0.348278761

$$$$
