
 OpenBabel03212519593D

 16 16  0  0  0  0  0  0  0  0999 V2000
   37.2280   76.3720   56.1590 C   0  0  0  0  0  0  0  0  0  0  0  0
   36.9430   74.9980   56.0800 C   0  0  0  0  0  0  0  0  0  0  0  0
   37.4380   74.1650   57.0830 C   0  0  0  0  0  0  0  0  0  0  0  0
   38.1730   74.7280   58.0900 N   0  0  0  0  0  0  0  0  0  0  0  0
   38.4250   76.0570   58.1290 C   0  0  0  0  0  0  0  0  0  0  0  0
   37.9530   76.8800   57.1660 N   0  0  0  0  0  0  0  0  0  0  0  0
   36.8750   77.0580   55.4200 H   0  0  0  0  0  0  0  0  0  0  0  0
   36.3530   74.5980   55.2590 H   0  0  0  0  0  0  0  0  0  0  0  0
   37.2190   73.1120   57.0220 H   0  0  0  0  0  0  0  0  0  0  0  0
   39.1870   76.3590   59.2490 O   0  0  0  0  0  0  0  0  0  0  0  0
   40.4050   74.5800   60.6960 O   0  0  0  0  0  0  0  0  0  0  0  0
   39.1940   75.5060   60.7020 P   0  0  0  0  0  0  0  0  0  0  0  0
   37.8490   74.5510   60.9760 O   0  0  0  0  0  0  0  0  0  0  0  0
   36.9930   75.0450   60.9190 H   0  0  0  0  0  0  0  0  0  0  0  0
   39.4620   76.5930   61.9700 O   0  0  0  0  0  0  0  0  0  0  0  0
   39.1440   77.4930   61.6830 H   0  0  0  0  0  0  0  0  0  0  0  0
  1  6  1  0  0  0  0
  2  1  2  0  0  0  0
  2  3  1  0  0  0  0
  3  4  2  0  0  0  0
  4  5  1  0  0  0  0
  5 10  1  0  0  0  0
  6  5  2  0  0  0  0
  7  1  1  0  0  0  0
  8  2  1  0  0  0  0
  9  3  1  0  0  0  0
 10 12  1  0  0  0  0
 11 12  2  0  0  0  0
 12 13  1  0  0  0  0
 12 15  1  0  0  0  0
 14 13  1  0  0  0  0
 16 15  1  0  0  0  0
M  END
>  <minimizedAffinity>
-4.03926039

$$$$

 OpenBabel03212519593D

 16 16  0  0  0  0  0  0  0  0999 V2000
   37.1690   75.8530   56.2180 C   0  0  0  0  0  0  0  0  0  0  0  0
   37.8670   77.0620   56.3890 C   0  0  0  0  0  0  0  0  0  0  0  0
   38.6450   77.2170   57.5350 C   0  0  0  0  0  0  0  0  0  0  0  0
   38.6900   76.1850   58.4320 N   0  0  0  0  0  0  0  0  0  0  0  0
   38.0040   75.0370   58.2320 C   0  0  0  0  0  0  0  0  0  0  0  0
   37.2440   74.8690   57.1260 N   0  0  0  0  0  0  0  0  0  0  0  0
   36.5580   75.6790   55.3600 H   0  0  0  0  0  0  0  0  0  0  0  0
   37.7990   77.8530   55.6450 H   0  0  0  0  0  0  0  0  0  0  0  0
   39.1800   78.1430   57.6640 H   0  0  0  0  0  0  0  0  0  0  0  0
   38.2250   74.1640   59.2880 O   0  0  0  0  0  0  0  0  0  0  0  0
   39.1870   73.2210   61.5080 O   0  0  0  0  0  0  0  0  0  0  0  0
   39.1100   74.5000   60.6810 P   0  0  0  0  0  0  0  0  0  0  0  0
   38.4640   75.6840   61.6700 O   0  0  0  0  0  0  0  0  0  0  0  0
   38.2940   76.5410   61.2050 H   0  0  0  0  0  0  0  0  0  0  0  0
   40.7050   74.8510   60.2410 O   0  0  0  0  0  0  0  0  0  0  0  0
   40.7030   75.1990   59.3070 H   0  0  0  0  0  0  0  0  0  0  0  0
  1  2  2  0  0  0  0
  1  6  1  0  0  0  0
  2  3  1  0  0  0  0
  3  9  1  0  0  0  0
  3  4  2  0  0  0  0
  5  4  1  0  0  0  0
  5 10  1  0  0  0  0
  6  5  2  0  0  0  0
  7  1  1  0  0  0  0
  8  2  1  0  0  0  0
 10 12  1  0  0  0  0
 12 11  2  0  0  0  0
 12 13  1  0  0  0  0
 14 13  1  0  0  0  0
 15 12  1  0  0  0  0
 16 15  1  0  0  0  0
M  END
>  <minimizedAffinity>
-4.03068781

$$$$

 OpenBabel03212519593D

 16 16  0  0  0  0  0  0  0  0999 V2000
   42.2530   71.3230   62.7160 C   0  0  0  0  0  0  0  0  0  0  0  0
   42.8360   71.0500   61.4660 C   0  0  0  0  0  0  0  0  0  0  0  0
   42.1950   71.5250   60.3230 C   0  0  0  0  0  0  0  0  0  0  0  0
   41.0340   72.2330   60.4760 N   0  0  0  0  0  0  0  0  0  0  0  0
   40.5050   72.4750   61.6980 C   0  0  0  0  0  0  0  0  0  0  0  0
   41.1130   72.0220   62.8170 N   0  0  0  0  0  0  0  0  0  0  0  0
   42.6980   70.9850   63.6250 H   0  0  0  0  0  0  0  0  0  0  0  0
   43.7610   70.4830   61.3970 H   0  0  0  0  0  0  0  0  0  0  0  0
   42.6430   71.3150   59.3660 H   0  0  0  0  0  0  0  0  0  0  0  0
   39.3350   73.2080   61.5670 O   0  0  0  0  0  0  0  0  0  0  0  0
   38.1790   74.4510   59.6010 O   0  0  0  0  0  0  0  0  0  0  0  0
   39.1670   74.6670   60.7420 P   0  0  0  0  0  0  0  0  0  0  0  0
   40.5720   75.2710   60.0650 O   0  0  0  0  0  0  0  0  0  0  0  0
   41.3130   75.3720   60.7130 H   0  0  0  0  0  0  0  0  0  0  0  0
   38.4320   75.7920   61.7700 O   0  0  0  0  0  0  0  0  0  0  0  0
   38.6330   75.5340   62.7120 H   0  0  0  0  0  0  0  0  0  0  0  0
  1  6  1  0  0  0  0
  1  7  1  0  0  0  0
  2  1  2  0  0  0  0
  3  4  2  0  0  0  0
  3  2  1  0  0  0  0
  4  5  1  0  0  0  0
  5  6  2  0  0  0  0
  8  2  1  0  0  0  0
  9  3  1  0  0  0  0
 10  5  1  0  0  0  0
 11 12  2  0  0  0  0
 12 10  1  0  0  0  0
 12 15  1  0  0  0  0
 13 14  1  0  0  0  0
 13 12  1  0  0  0  0
 15 16  1  0  0  0  0
M  END
>  <minimizedAffinity>
-3.94926333

$$$$

 OpenBabel03212519593D

 16 16  0  0  0  0  0  0  0  0999 V2000
   39.4970   75.8650   61.0170 C   0  0  0  0  0  0  0  0  0  0  0  0
   39.7610   76.9920   60.2190 C   0  0  0  0  0  0  0  0  0  0  0  0
   39.4110   76.9400   58.8710 C   0  0  0  0  0  0  0  0  0  0  0  0
   38.8270   75.7980   58.3960 N   0  0  0  0  0  0  0  0  0  0  0  0
   38.5890   74.7340   59.1970 C   0  0  0  0  0  0  0  0  0  0  0  0
   38.9220   74.7660   60.5070 N   0  0  0  0  0  0  0  0  0  0  0  0
   39.7440   75.8470   62.0560 H   0  0  0  0  0  0  0  0  0  0  0  0
   40.2270   77.8770   60.6450 H   0  0  0  0  0  0  0  0  0  0  0  0
   39.6130   77.8040   58.2610 H   0  0  0  0  0  0  0  0  0  0  0  0
   37.9930   73.7170   58.4650 O   0  0  0  0  0  0  0  0  0  0  0  0
   40.0150   73.1040   56.9550 O   0  0  0  0  0  0  0  0  0  0  0  0
   38.4910   73.1590   56.9560 P   0  0  0  0  0  0  0  0  0  0  0  0
   38.0360   74.1090   55.6570 O   0  0  0  0  0  0  0  0  0  0  0  0
   37.0610   74.2770   55.6110 H   0  0  0  0  0  0  0  0  0  0  0  0
   37.9820   71.5570   56.7720 O   0  0  0  0  0  0  0  0  0  0  0  0
   37.1780   71.4160   57.3440 H   0  0  0  0  0  0  0  0  0  0  0  0
  1  7  1  0  0  0  0
  2  8  1  0  0  0  0
  2  1  2  0  0  0  0
  3  2  1  0  0  0  0
  4  3  2  0  0  0  0
  4  5  1  0  0  0  0
  5  6  2  0  0  0  0
  6  1  1  0  0  0  0
  9  3  1  0  0  0  0
 10  5  1  0  0  0  0
 11 12  2  0  0  0  0
 12 10  1  0  0  0  0
 13 12  1  0  0  0  0
 14 13  1  0  0  0  0
 15 12  1  0  0  0  0
 15 16  1  0  0  0  0
M  END
>  <minimizedAffinity>
-3.90365791

$$$$

 OpenBabel03212519593D

 16 16  0  0  0  0  0  0  0  0999 V2000
   43.1690   72.5860   61.2240 C   0  0  0  0  0  0  0  0  0  0  0  0
   42.3340   71.9690   62.1720 C   0  0  0  0  0  0  0  0  0  0  0  0
   40.9960   72.3570   62.2220 C   0  0  0  0  0  0  0  0  0  0  0  0
   40.5650   73.3150   61.3450 N   0  0  0  0  0  0  0  0  0  0  0  0
   41.4010   73.8850   60.4470 C   0  0  0  0  0  0  0  0  0  0  0  0
   42.7020   73.5210   60.3850 N   0  0  0  0  0  0  0  0  0  0  0  0
   44.2020   72.3290   61.1410 H   0  0  0  0  0  0  0  0  0  0  0  0
   42.7240   71.2110   62.8470 H   0  0  0  0  0  0  0  0  0  0  0  0
   40.3570   71.8830   62.9480 H   0  0  0  0  0  0  0  0  0  0  0  0
   40.7110   74.8180   59.6870 O   0  0  0  0  0  0  0  0  0  0  0  0
   39.2040   76.8880   59.2560 O   0  0  0  0  0  0  0  0  0  0  0  0
   39.3480   75.6790   60.1730 P   0  0  0  0  0  0  0  0  0  0  0  0
   39.3890   76.2570   61.7420 O   0  0  0  0  0  0  0  0  0  0  0  0
   39.5630   75.5560   62.4180 H   0  0  0  0  0  0  0  0  0  0  0  0
   37.9760   74.7310   59.8900 O   0  0  0  0  0  0  0  0  0  0  0  0
   38.2480   73.7720   59.9100 H   0  0  0  0  0  0  0  0  0  0  0  0
  1  2  1  0  0  0  0
  2  3  2  0  0  0  0
  2  8  1  0  0  0  0
  3  9  1  0  0  0  0
  4  3  1  0  0  0  0
  5  4  2  0  0  0  0
  6  5  1  0  0  0  0
  6  1  2  0  0  0  0
  7  1  1  0  0  0  0
 10 12  1  0  0  0  0
 10  5  1  0  0  0  0
 11 12  2  0  0  0  0
 12 13  1  0  0  0  0
 13 14  1  0  0  0  0
 15 16  1  0  0  0  0
 15 12  1  0  0  0  0
M  END
>  <minimizedAffinity>
-3.79244876

$$$$

 OpenBabel03212519593D

 16 16  0  0  0  0  0  0  0  0999 V2000
   42.1150   76.9200   59.0140 C   0  0  0  0  0  0  0  0  0  0  0  0
   41.3420   77.5830   59.9830 C   0  0  0  0  0  0  0  0  0  0  0  0
   39.9560   77.4450   59.9270 C   0  0  0  0  0  0  0  0  0  0  0  0
   39.4210   76.6710   58.9330 N   0  0  0  0  0  0  0  0  0  0  0  0
   40.2000   76.0490   58.0180 C   0  0  0  0  0  0  0  0  0  0  0  0
   41.5460   76.1720   58.0580 N   0  0  0  0  0  0  0  0  0  0  0  0
   43.1800   76.9900   59.0070 H   0  0  0  0  0  0  0  0  0  0  0  0
   41.8150   78.1870   60.7540 H   0  0  0  0  0  0  0  0  0  0  0  0
   39.3640   77.9530   60.6700 H   0  0  0  0  0  0  0  0  0  0  0  0
   39.4070   75.3360   57.1310 O   0  0  0  0  0  0  0  0  0  0  0  0
   36.8500   75.7110   56.8770 O   0  0  0  0  0  0  0  0  0  0  0  0
   37.8680   74.7280   57.4460 P   0  0  0  0  0  0  0  0  0  0  0  0
   37.4970   74.5230   59.0640 O   0  0  0  0  0  0  0  0  0  0  0  0
   38.1500   73.9620   59.5520 H   0  0  0  0  0  0  0  0  0  0  0  0
   37.6560   73.2990   56.5670 O   0  0  0  0  0  0  0  0  0  0  0  0
   38.5530   72.8950   56.4060 H   0  0  0  0  0  0  0  0  0  0  0  0
  1  2  1  0  0  0  0
  2  8  1  0  0  0  0
  3  2  2  0  0  0  0
  3  9  1  0  0  0  0
  4  3  1  0  0  0  0
  5  6  1  0  0  0  0
  5  4  2  0  0  0  0
  6  1  2  0  0  0  0
  7  1  1  0  0  0  0
 10 12  1  0  0  0  0
 10  5  1  0  0  0  0
 11 12  2  0  0  0  0
 12 13  1  0  0  0  0
 13 14  1  0  0  0  0
 15 12  1  0  0  0  0
 16 15  1  0  0  0  0
M  END
>  <minimizedAffinity>
-3.68187809

$$$$

 OpenBabel03212519593D

 16 16  0  0  0  0  0  0  0  0999 V2000
   44.0030   74.2380   59.4320 C   0  0  0  0  0  0  0  0  0  0  0  0
   43.9640   74.8640   58.1740 C   0  0  0  0  0  0  0  0  0  0  0  0
   42.7360   75.3320   57.7100 C   0  0  0  0  0  0  0  0  0  0  0  0
   41.6340   75.1600   58.5040 N   0  0  0  0  0  0  0  0  0  0  0  0
   41.7140   74.5520   59.7100 C   0  0  0  0  0  0  0  0  0  0  0  0
   42.8970   74.0910   60.1750 N   0  0  0  0  0  0  0  0  0  0  0  0
   44.9160   73.8590   59.8380 H   0  0  0  0  0  0  0  0  0  0  0  0
   44.8690   74.9770   57.5810 H   0  0  0  0  0  0  0  0  0  0  0  0
   42.7070   75.8120   56.7470 H   0  0  0  0  0  0  0  0  0  0  0  0
   40.4590   74.5100   60.3000 O   0  0  0  0  0  0  0  0  0  0  0  0
   40.2590   77.0580   60.7590 O   0  0  0  0  0  0  0  0  0  0  0  0
   39.4140   75.8150   60.5000 P   0  0  0  0  0  0  0  0  0  0  0  0
   38.3380   75.6810   61.7730 O   0  0  0  0  0  0  0  0  0  0  0  0
   37.7920   74.8560   61.7450 H   0  0  0  0  0  0  0  0  0  0  0  0
   38.6200   76.1060   59.0350 O   0  0  0  0  0  0  0  0  0  0  0  0
   38.5910   75.2530   58.5200 H   0  0  0  0  0  0  0  0  0  0  0  0
  1  7  1  0  0  0  0
  1  6  1  0  0  0  0
  2  1  2  0  0  0  0
  3  2  1  0  0  0  0
  3  4  2  0  0  0  0
  4  5  1  0  0  0  0
  5  6  2  0  0  0  0
  5 10  1  0  0  0  0
  8  2  1  0  0  0  0
  9  3  1  0  0  0  0
 10 12  1  0  0  0  0
 12 11  2  0  0  0  0
 12 13  1  0  0  0  0
 14 13  1  0  0  0  0
 15 12  1  0  0  0  0
 16 15  1  0  0  0  0
M  END
>  <minimizedAffinity>
-3.61398149

$$$$

 OpenBabel03212519593D

 16 16  0  0  0  0  0  0  0  0999 V2000
   43.2930   73.8850   58.1410 C   0  0  0  0  0  0  0  0  0  0  0  0
   43.5220   75.2650   58.0040 C   0  0  0  0  0  0  0  0  0  0  0  0
   42.6890   76.1430   58.6970 C   0  0  0  0  0  0  0  0  0  0  0  0
   41.6950   75.6150   59.4750 N   0  0  0  0  0  0  0  0  0  0  0  0
   41.5070   74.2800   59.5810 C   0  0  0  0  0  0  0  0  0  0  0  0
   42.3050   73.4140   58.9160 N   0  0  0  0  0  0  0  0  0  0  0  0
   43.8990   73.1660   57.6350 H   0  0  0  0  0  0  0  0  0  0  0  0
   44.3270   75.6350   57.3730 H   0  0  0  0  0  0  0  0  0  0  0  0
   42.8650   77.2000   58.5910 H   0  0  0  0  0  0  0  0  0  0  0  0
   40.4390   74.0200   60.4270 O   0  0  0  0  0  0  0  0  0  0  0  0
   37.9790   74.1470   61.2490 O   0  0  0  0  0  0  0  0  0  0  0  0
   39.0890   75.0020   60.6500 P   0  0  0  0  0  0  0  0  0  0  0  0
   38.4740   75.6980   59.2590 O   0  0  0  0  0  0  0  0  0  0  0  0
   39.1440   76.2140   58.7440 H   0  0  0  0  0  0  0  0  0  0  0  0
   39.4500   76.1640   61.8260 O   0  0  0  0  0  0  0  0  0  0  0  0
   40.4360   76.3100   61.8300 H   0  0  0  0  0  0  0  0  0  0  0  0
  1  6  1  0  0  0  0
  2  1  2  0  0  0  0
  2  3  1  0  0  0  0
  3  4  2  0  0  0  0
  4  5  1  0  0  0  0
  5 10  1  0  0  0  0
  6  5  2  0  0  0  0
  7  1  1  0  0  0  0
  8  2  1  0  0  0  0
  9  3  1  0  0  0  0
 10 12  1  0  0  0  0
 12 11  2  0  0  0  0
 12 15  1  0  0  0  0
 13 12  1  0  0  0  0
 14 13  1  0  0  0  0
 15 16  1  0  0  0  0
M  END
>  <minimizedAffinity>
-3.52795005

$$$$

 OpenBabel03212519593D

 16 16  0  0  0  0  0  0  0  0999 V2000
   39.3710   76.2400   60.0780 C   0  0  0  0  0  0  0  0  0  0  0  0
   39.0830   75.2390   61.0230 C   0  0  0  0  0  0  0  0  0  0  0  0
   38.7200   73.9770   60.5560 C   0  0  0  0  0  0  0  0  0  0  0  0
   38.6650   73.7780   59.2030 N   0  0  0  0  0  0  0  0  0  0  0  0
   38.9500   74.7670   58.3260 C   0  0  0  0  0  0  0  0  0  0  0  0
   39.3040   75.9970   58.7610 N   0  0  0  0  0  0  0  0  0  0  0  0
   39.6540   77.2250   60.3780 H   0  0  0  0  0  0  0  0  0  0  0  0
   39.1420   75.4480   62.0890 H   0  0  0  0  0  0  0  0  0  0  0  0
   38.5000   73.2120   61.2800 H   0  0  0  0  0  0  0  0  0  0  0  0
   38.8180   74.2980   57.0270 O   0  0  0  0  0  0  0  0  0  0  0  0
   39.4510   72.8220   54.9860 O   0  0  0  0  0  0  0  0  0  0  0  0
   39.2050   72.7490   56.4890 P   0  0  0  0  0  0  0  0  0  0  0  0
   38.0230   71.5910   56.7350 O   0  0  0  0  0  0  0  0  0  0  0  0
   37.7280   71.5200   57.6770 H   0  0  0  0  0  0  0  0  0  0  0  0
   40.6840   72.2910   57.1670 O   0  0  0  0  0  0  0  0  0  0  0  0
   40.8060   72.7900   58.0210 H   0  0  0  0  0  0  0  0  0  0  0  0
  1  7  1  0  0  0  0
  1  2  1  0  0  0  0
  2  8  1  0  0  0  0
  3  2  2  0  0  0  0
  3  9  1  0  0  0  0
  4  3  1  0  0  0  0
  5  6  1  0  0  0  0
  5  4  2  0  0  0  0
  6  1  2  0  0  0  0
 10  5  1  0  0  0  0
 11 12  2  0  0  0  0
 12 13  1  0  0  0  0
 12 10  1  0  0  0  0
 12 15  1  0  0  0  0
 13 14  1  0  0  0  0
 15 16  1  0  0  0  0
M  END
>  <minimizedAffinity>
-3.50165415

$$$$
