
 OpenBabel03212519583D

 16 16  0  0  0  0  0  0  0  0999 V2000
   40.0460   81.9330   60.1420 C   0  0  0  0  0  0  0  0  0  0  0  0
   40.2610   82.6700   58.9630 C   0  0  0  0  0  0  0  0  0  0  0  0
   40.5520   84.0280   59.0800 C   0  0  0  0  0  0  0  0  0  0  0  0
   40.6150   84.5720   60.3340 N   0  0  0  0  0  0  0  0  0  0  0  0
   40.4020   83.8290   61.4440 C   0  0  0  0  0  0  0  0  0  0  0  0
   40.1180   82.5100   61.3500 N   0  0  0  0  0  0  0  0  0  0  0  0
   39.8190   80.8900   60.1130 H   0  0  0  0  0  0  0  0  0  0  0  0
   40.2000   82.1900   57.9890 H   0  0  0  0  0  0  0  0  0  0  0  0
   40.7170   84.5910   58.1770 H   0  0  0  0  0  0  0  0  0  0  0  0
   40.5250   84.6240   62.5750 O   0  0  0  0  0  0  0  0  0  0  0  0
   42.3070   84.2920   64.4340 O   0  0  0  0  0  0  0  0  0  0  0  0
   40.8260   84.0800   64.1400 P   0  0  0  0  0  0  0  0  0  0  0  0
   40.5020   82.4610   64.4090 O   0  0  0  0  0  0  0  0  0  0  0  0
   39.5790   82.1970   64.1680 H   0  0  0  0  0  0  0  0  0  0  0  0
   40.0010   85.0760   65.2300 O   0  0  0  0  0  0  0  0  0  0  0  0
   39.2160   85.4710   64.7610 H   0  0  0  0  0  0  0  0  0  0  0  0
  1  6  1  0  0  0  0
  2  3  1  0  0  0  0
  2  1  2  0  0  0  0
  3  4  2  0  0  0  0
  4  5  1  0  0  0  0
  5 10  1  0  0  0  0
  6  5  2  0  0  0  0
  7  1  1  0  0  0  0
  8  2  1  0  0  0  0
  9  3  1  0  0  0  0
 10 12  1  0  0  0  0
 12 13  1  0  0  0  0
 12 11  2  0  0  0  0
 12 15  1  0  0  0  0
 14 13  1  0  0  0  0
 16 15  1  0  0  0  0
M  END
>  <minimizedAffinity>
-4.19134188

>  <minimizedRMSD>
1.92145121

$$$$
