
 OpenBabel03212521013D

 40 43  0  0  1  0  0  0  0  0999 V2000
   42.4610   73.9350   59.9530 C   0  0  0  0  0  0  0  0  0  0  0  0
   43.4410   73.8560   59.0220 C   0  0  0  0  0  0  0  0  0  0  0  0
   43.5140   75.0060   58.2190 C   0  0  0  0  0  0  0  0  0  0  0  0
   42.7020   76.0720   58.3560 N   0  0  0  0  0  0  0  0  0  0  0  0
   41.7450   76.0460   59.3290 C   0  0  0  0  0  0  0  0  0  0  0  0
   41.6270   74.9640   60.1340 N   0  0  0  0  0  0  0  0  0  0  0  0
   44.1080   73.0440   58.8690 H   0  0  0  0  0  0  0  0  0  0  0  0
   44.2520   75.1020   57.4200 H   0  0  0  0  0  0  0  0  0  0  0  0
   41.9710   70.3690   61.8730 C   0  0  0  0  0  0  0  0  0  0  0  0
   41.9160   71.4340   62.7350 C   0  0  0  0  0  0  0  0  0  0  0  0
   42.0630   72.6730   62.2280 C   0  0  0  0  0  0  0  0  0  0  0  0
   42.2640   72.8190   60.8580 C   0  0  0  0  0  0  0  0  0  0  0  0
   42.2460   71.0940   60.2290 S   0  0  0  0  0  0  0  0  0  0  0  0
   41.7570   71.3160   63.8100 H   0  0  0  0  0  0  0  0  0  0  0  0
   42.0510   73.6320   62.7280 H   0  0  0  0  0  0  0  0  0  0  0  0
   41.0170   67.4360   63.8620 C   0  0  0  0  0  0  0  0  0  0  0  0
   41.5440   66.3570   63.1030 C   0  0  0  0  0  0  0  0  0  0  0  0
   42.2180   66.6390   61.9160 C   0  0  0  0  0  0  0  0  0  0  0  0
   42.3460   67.9360   61.5300 N   0  0  0  0  0  0  0  0  0  0  0  0
   41.8250   68.9470   62.2880 C   0  0  0  0  0  0  0  0  0  0  0  0
   41.1790   68.6880   63.4250 N   0  0  0  0  0  0  0  0  0  0  0  0
   40.5160   67.1480   64.7550 H   0  0  0  0  0  0  0  0  0  0  0  0
   41.4610   65.3080   63.3800 H   0  0  0  0  0  0  0  0  0  0  0  0
   42.6500   65.8810   61.2780 H   0  0  0  0  0  0  0  0  0  0  0  0
   40.8910   77.2090   59.4620 C   0  0  0  0  0  0  0  0  0  0  0  0
   41.3690   78.2060   60.0280 O   0  0  0  0  0  0  0  0  0  0  0  0
   39.4700   77.2270   58.9500 C   0  0  1  0  0  0  0  0  0  0  0  0
   39.2770   78.1730   57.7890 C   0  0  0  0  0  0  0  0  0  0  0  0
   39.1670   76.7280   57.6290 C   0  0  2  0  0  0  0  0  0  0  0  0
   38.7410   77.4430   59.7600 H   0  0  0  0  0  0  0  0  0  0  0  0
   40.1520   78.6900   57.3400 H   0  0  0  0  0  0  0  0  0  0  0  0
   38.4070   78.8450   57.8680 H   0  0  0  0  0  0  0  0  0  0  0  0
   40.0090   76.1970   57.1000 H   0  0  0  0  0  0  0  0  0  0  0  0
   37.9580   76.0850   57.3960 O   0  0  0  0  0  0  0  0  0  0  0  0
   39.3420   73.9170   57.6690 O   0  0  0  0  0  0  0  0  0  0  0  0
   37.9530   74.4920   57.8950 P   0  0  0  0  0  0  0  0  0  0  0  0
   37.4650   74.2910   59.5030 O   0  0  0  0  0  0  0  0  0  0  0  0
   37.9090   75.0380   60.0140 H   0  0  0  0  0  0  0  0  0  0  0  0
   36.8970   73.5670   56.9240 O   0  0  0  0  0  0  0  0  0  0  0  0
   36.9530   72.6170   57.1950 H   0  0  0  0  0  0  0  0  0  0  0  0
  1  6  1  0  0  0  0
  1 12  1  0  0  0  0
  2  1  2  0  0  0  0
  3  4  2  0  0  0  0
  3  2  1  0  0  0  0
  4  5  1  0  0  0  0
  5 25  1  0  0  0  0
  5  6  2  0  0  0  0
  7  2  1  0  0  0  0
  8  3  1  0  0  0  0
  9 20  1  0  0  0  0
  9 10  2  0  0  0  0
 10 14  1  0  0  0  0
 11 15  1  0  0  0  0
 11 10  1  0  0  0  0
 12 11  2  0  0  0  0
 13 12  1  0  0  0  0
 13  9  1  0  0  0  0
 16 22  1  0  0  0  0
 17 23  1  0  0  0  0
 17 16  2  0  0  0  0
 18 17  1  0  0  0  0
 19 18  2  0  0  0  0
 19 20  1  0  0  0  0
 20 21  2  0  0  0  0
 21 16  1  0  0  0  0
 24 18  1  0  0  0  0
 25 26  2  0  0  0  0
 27 25  1  0  0  0  0
 27 30  1  1  0  0  0
 28 32  1  0  0  0  0
 28 27  1  0  0  0  0
 29 33  1  6  0  0  0
 29 28  1  0  0  0  0
 29 27  1  0  0  0  0
 31 28  1  0  0  0  0
 34 29  1  0  0  0  0
 34 36  1  0  0  0  0
 35 36  2  0  0  0  0
 36 37  1  0  0  0  0
 37 38  1  0  0  0  0
 39 40  1  0  0  0  0
 39 36  1  0  0  0  0
M  END
>  <minimizedAffinity>
-6.57633114

$$$$

 OpenBabel03212521013D

 40 43  0  0  1  0  0  0  0  0999 V2000
   39.1350   76.2310   58.7440 C   0  0  0  0  0  0  0  0  0  0  0  0
   39.7590   77.4140   58.9500 C   0  0  0  0  0  0  0  0  0  0  0  0
   39.4020   78.3840   57.9990 C   0  0  0  0  0  0  0  0  0  0  0  0
   38.5350   78.1650   56.9900 N   0  0  0  0  0  0  0  0  0  0  0  0
   37.9630   76.9310   56.8750 C   0  0  0  0  0  0  0  0  0  0  0  0
   38.2680   75.9570   57.7640 N   0  0  0  0  0  0  0  0  0  0  0  0
   40.4490   77.6430   59.7250 H   0  0  0  0  0  0  0  0  0  0  0  0
   39.8170   79.3930   58.0240 H   0  0  0  0  0  0  0  0  0  0  0  0
   40.5730   73.1140   60.9500 C   0  0  0  0  0  0  0  0  0  0  0  0
   39.2950   73.4590   61.3090 C   0  0  0  0  0  0  0  0  0  0  0  0
   38.7000   74.4750   60.6560 C   0  0  0  0  0  0  0  0  0  0  0  0
   39.4050   75.1300   59.6500 C   0  0  0  0  0  0  0  0  0  0  0  0
   41.0210   74.2600   59.6120 S   0  0  0  0  0  0  0  0  0  0  0  0
   38.7440   72.9410   62.0990 H   0  0  0  0  0  0  0  0  0  0  0  0
   37.7130   74.8970   60.7840 H   0  0  0  0  0  0  0  0  0  0  0  0
   43.1010   70.4910   61.3880 C   0  0  0  0  0  0  0  0  0  0  0  0
   42.8080   69.9860   62.6840 C   0  0  0  0  0  0  0  0  0  0  0  0
   41.7520   70.5480   63.3980 C   0  0  0  0  0  0  0  0  0  0  0  0
   41.0420   71.5570   62.8290 N   0  0  0  0  0  0  0  0  0  0  0  0
   41.3540   72.0150   61.5810 C   0  0  0  0  0  0  0  0  0  0  0  0
   42.3620   71.4850   60.8880 N   0  0  0  0  0  0  0  0  0  0  0  0
   43.9190   70.0170   60.9010 H   0  0  0  0  0  0  0  0  0  0  0  0
   43.3550   69.1800   63.1710 H   0  0  0  0  0  0  0  0  0  0  0  0
   41.4610   70.2250   64.3880 H   0  0  0  0  0  0  0  0  0  0  0  0
   37.0260   76.7250   55.7890 C   0  0  0  0  0  0  0  0  0  0  0  0
   36.1020   77.5450   55.6700 O   0  0  0  0  0  0  0  0  0  0  0  0
   37.1450   75.5600   54.8340 C   0  0  1  0  0  0  0  0  0  0  0  0
   37.2570   75.9940   53.3920 C   0  0  0  0  0  0  0  0  0  0  0  0
   38.3650   75.3530   54.0890 C   0  0  2  0  0  0  0  0  0  0  0  0
   36.3170   74.8330   54.9640 H   0  0  0  0  0  0  0  0  0  0  0  0
   37.3440   77.0730   53.1390 H   0  0  0  0  0  0  0  0  0  0  0  0
   36.5930   75.4660   52.6880 H   0  0  0  0  0  0  0  0  0  0  0  0
   39.2380   76.0010   54.3870 H   0  0  0  0  0  0  0  0  0  0  0  0
   38.7880   74.0600   53.8050 O   0  0  0  0  0  0  0  0  0  0  0  0
   40.5760   72.3300   54.5130 O   0  0  0  0  0  0  0  0  0  0  0  0
   39.5860   73.3350   55.0800 P   0  0  0  0  0  0  0  0  0  0  0  0
   40.3590   74.4370   56.1060 O   0  0  0  0  0  0  0  0  0  0  0  0
   40.7790   75.1230   55.4970 H   0  0  0  0  0  0  0  0  0  0  0  0
   38.4930   72.4340   56.0330 O   0  0  0  0  0  0  0  0  0  0  0  0
   38.9920   71.9640   56.7450 H   0  0  0  0  0  0  0  0  0  0  0  0
  1  2  1  0  0  0  0
  1 12  1  0  0  0  0
  2  7  1  0  0  0  0
  3  8  1  0  0  0  0
  3  2  2  0  0  0  0
  4  3  1  0  0  0  0
  5  4  2  0  0  0  0
  5  6  1  0  0  0  0
  6  1  2  0  0  0  0
  9 10  2  0  0  0  0
  9 20  1  0  0  0  0
 10 14  1  0  0  0  0
 11 15  1  0  0  0  0
 11 10  1  0  0  0  0
 12 11  2  0  0  0  0
 13 12  1  0  0  0  0
 13  9  1  0  0  0  0
 16 17  1  0  0  0  0
 17 23  1  0  0  0  0
 17 18  2  0  0  0  0
 18 24  1  0  0  0  0
 19 18  1  0  0  0  0
 20 19  2  0  0  0  0
 21 16  2  0  0  0  0
 21 20  1  0  0  0  0
 22 16  1  0  0  0  0
 25  5  1  0  0  0  0
 26 25  2  0  0  0  0
 27 30  1  1  0  0  0
 27 25  1  0  0  0  0
 28 29  1  0  0  0  0
 28 27  1  0  0  0  0
 29 33  1  1  0  0  0
 29 27  1  0  0  0  0
 31 28  1  0  0  0  0
 32 28  1  0  0  0  0
 34 29  1  0  0  0  0
 34 36  1  0  0  0  0
 35 36  2  0  0  0  0
 36 39  1  0  0  0  0
 36 37  1  0  0  0  0
 38 37  1  0  0  0  0
 39 40  1  0  0  0  0
M  END
>  <minimizedAffinity>
-6.55775499

$$$$

 OpenBabel03212521013D

 40 43  0  0  1  0  0  0  0  0999 V2000
   42.3460   73.5270   60.5760 C   0  0  0  0  0  0  0  0  0  0  0  0
   43.5610   73.8820   60.0970 C   0  0  0  0  0  0  0  0  0  0  0  0
   43.5290   75.0990   59.3960 C   0  0  0  0  0  0  0  0  0  0  0  0
   42.4140   75.8340   59.2170 N   0  0  0  0  0  0  0  0  0  0  0  0
   41.2390   75.3800   59.7420 C   0  0  0  0  0  0  0  0  0  0  0  0
   41.2090   74.2140   60.4290 N   0  0  0  0  0  0  0  0  0  0  0  0
   44.4710   73.3440   60.2080 H   0  0  0  0  0  0  0  0  0  0  0  0
   44.4270   75.5270   58.9470 H   0  0  0  0  0  0  0  0  0  0  0  0
   42.0050   69.7160   61.9950 C   0  0  0  0  0  0  0  0  0  0  0  0
   42.0350   70.6460   63.0030 C   0  0  0  0  0  0  0  0  0  0  0  0
   42.1450   71.9460   62.6700 C   0  0  0  0  0  0  0  0  0  0  0  0
   42.2240   72.2900   61.3230 C   0  0  0  0  0  0  0  0  0  0  0  0
   42.1360   70.6750   60.4560 S   0  0  0  0  0  0  0  0  0  0  0  0
   41.9720   70.3720   64.0590 H   0  0  0  0  0  0  0  0  0  0  0  0
   42.1850   72.8210   63.3030 H   0  0  0  0  0  0  0  0  0  0  0  0
   42.3330   66.1080   61.4150 C   0  0  0  0  0  0  0  0  0  0  0  0
   41.6830   65.5480   62.5470 C   0  0  0  0  0  0  0  0  0  0  0  0
   41.1410   66.4070   63.5010 C   0  0  0  0  0  0  0  0  0  0  0  0
   41.2540   67.7480   63.3130 N   0  0  0  0  0  0  0  0  0  0  0  0
   41.8860   68.2490   62.2100 C   0  0  0  0  0  0  0  0  0  0  0  0
   42.4090   67.4360   61.2910 N   0  0  0  0  0  0  0  0  0  0  0  0
   42.7230   65.3950   60.7290 H   0  0  0  0  0  0  0  0  0  0  0  0
   41.5740   64.4810   62.7320 H   0  0  0  0  0  0  0  0  0  0  0  0
   40.6300   66.0660   64.3910 H   0  0  0  0  0  0  0  0  0  0  0  0
   40.0570   76.1950   59.5450 C   0  0  0  0  0  0  0  0  0  0  0  0
   40.0380   77.3130   60.0850 O   0  0  0  0  0  0  0  0  0  0  0  0
   38.8790   75.7190   58.7270 C   0  0  1  0  0  0  0  0  0  0  0  0
   38.5760   76.6210   57.5550 C   0  0  0  0  0  0  0  0  0  0  0  0
   39.0730   75.2630   57.3700 C   0  0  2  0  0  0  0  0  0  0  0  0
   37.9740   75.5680   59.3530 H   0  0  0  0  0  0  0  0  0  0  0  0
   39.2520   77.4700   57.3150 H   0  0  0  0  0  0  0  0  0  0  0  0
   37.5160   76.9030   57.4400 H   0  0  0  0  0  0  0  0  0  0  0  0
   40.1440   75.1420   57.0420 H   0  0  0  0  0  0  0  0  0  0  0  0
   38.2850   74.2340   56.8700 O   0  0  0  0  0  0  0  0  0  0  0  0
   40.2140   72.6650   56.1550 O   0  0  0  0  0  0  0  0  0  0  0  0
   38.9830   72.7270   57.0460 P   0  0  0  0  0  0  0  0  0  0  0  0
   39.3720   72.3480   58.6480 O   0  0  0  0  0  0  0  0  0  0  0  0
   39.7570   73.1940   59.0400 H   0  0  0  0  0  0  0  0  0  0  0  0
   37.9270   71.5120   56.4770 O   0  0  0  0  0  0  0  0  0  0  0  0
   38.3800   70.6350   56.5330 H   0  0  0  0  0  0  0  0  0  0  0  0
  1 12  1  0  0  0  0
  2  7  1  0  0  0  0
  2  1  2  0  0  0  0
  3  2  1  0  0  0  0
  4  3  2  0  0  0  0
  4  5  1  0  0  0  0
  5  6  2  0  0  0  0
  6  1  1  0  0  0  0
  8  3  1  0  0  0  0
  9 20  1  0  0  0  0
  9 10  2  0  0  0  0
 10 14  1  0  0  0  0
 11 10  1  0  0  0  0
 11 15  1  0  0  0  0
 12 11  2  0  0  0  0
 13 12  1  0  0  0  0
 13  9  1  0  0  0  0
 16 17  1  0  0  0  0
 17 23  1  0  0  0  0
 17 18  2  0  0  0  0
 18 24  1  0  0  0  0
 19 18  1  0  0  0  0
 20 19  2  0  0  0  0
 21 16  2  0  0  0  0
 21 20  1  0  0  0  0
 22 16  1  0  0  0  0
 25  5  1  0  0  0  0
 25 26  2  0  0  0  0
 27 30  1  1  0  0  0
 27 25  1  0  0  0  0
 28 27  1  0  0  0  0
 29 33  1  6  0  0  0
 29 28  1  0  0  0  0
 29 27  1  0  0  0  0
 31 28  1  0  0  0  0
 32 28  1  0  0  0  0
 34 36  1  0  0  0  0
 34 29  1  0  0  0  0
 35 36  2  0  0  0  0
 36 37  1  0  0  0  0
 37 38  1  0  0  0  0
 39 40  1  0  0  0  0
 39 36  1  0  0  0  0
M  END
>  <minimizedAffinity>
-6.53104734

$$$$

 OpenBabel03212521013D

 40 43  0  0  1  0  0  0  0  0999 V2000
   41.9760   73.9930   59.9960 C   0  0  0  0  0  0  0  0  0  0  0  0
   43.1410   74.6280   59.7280 C   0  0  0  0  0  0  0  0  0  0  0  0
   42.9730   75.7140   58.8530 C   0  0  0  0  0  0  0  0  0  0  0  0
   41.7860   76.0870   58.3350 N   0  0  0  0  0  0  0  0  0  0  0  0
   40.6720   75.3740   58.6730 C   0  0  0  0  0  0  0  0  0  0  0  0
   40.7720   74.3170   59.5130 N   0  0  0  0  0  0  0  0  0  0  0  0
   44.1020   74.3800   60.1060 H   0  0  0  0  0  0  0  0  0  0  0  0
   43.8160   76.3320   58.5370 H   0  0  0  0  0  0  0  0  0  0  0  0
   41.9760   70.3650   61.8640 C   0  0  0  0  0  0  0  0  0  0  0  0
   42.0570   71.4070   62.7520 C   0  0  0  0  0  0  0  0  0  0  0  0
   42.0650   72.6620   62.2650 C   0  0  0  0  0  0  0  0  0  0  0  0
   41.9930   72.8490   60.8870 C   0  0  0  0  0  0  0  0  0  0  0  0
   41.9050   71.1410   60.2210 S   0  0  0  0  0  0  0  0  0  0  0  0
   42.1130   71.2570   63.8330 H   0  0  0  0  0  0  0  0  0  0  0  0
   42.1210   73.6070   62.7880 H   0  0  0  0  0  0  0  0  0  0  0  0
   42.3070   66.7190   61.6170 C   0  0  0  0  0  0  0  0  0  0  0  0
   41.9220   66.2810   62.9120 C   0  0  0  0  0  0  0  0  0  0  0  0
   41.5560   67.2340   63.8600 C   0  0  0  0  0  0  0  0  0  0  0  0
   41.5800   68.5470   63.5110 N   0  0  0  0  0  0  0  0  0  0  0  0
   41.9560   68.9300   62.2540 C   0  0  0  0  0  0  0  0  0  0  0  0
   42.3090   68.0260   61.3390 N   0  0  0  0  0  0  0  0  0  0  0  0
   42.5740   65.9390   60.9440 H   0  0  0  0  0  0  0  0  0  0  0  0
   41.8910   65.2400   63.2280 H   0  0  0  0  0  0  0  0  0  0  0  0
   41.2490   66.9880   64.8680 H   0  0  0  0  0  0  0  0  0  0  0  0
   39.4070   75.8020   58.1120 C   0  0  0  0  0  0  0  0  0  0  0  0
   38.8720   76.8050   58.6100 O   0  0  0  0  0  0  0  0  0  0  0  0
   38.7420   75.0650   56.9720 C   0  0  1  0  0  0  0  0  0  0  0  0
   37.7360   74.0420   57.4430 C   0  0  0  0  0  0  0  0  0  0  0  0
   37.3310   75.2400   56.7180 C   0  0  2  0  0  0  0  0  0  0  0  0
   39.4850   74.6020   56.2890 H   0  0  0  0  0  0  0  0  0  0  0  0
   37.4830   73.9650   58.5220 H   0  0  0  0  0  0  0  0  0  0  0  0
   37.8220   73.0470   56.9760 H   0  0  0  0  0  0  0  0  0  0  0  0
   36.8250   76.0570   57.3060 H   0  0  0  0  0  0  0  0  0  0  0  0
   36.8570   75.2070   55.4130 O   0  0  0  0  0  0  0  0  0  0  0  0
   36.1230   77.6830   55.5560 O   0  0  0  0  0  0  0  0  0  0  0  0
   36.8730   76.7020   54.6690 P   0  0  0  0  0  0  0  0  0  0  0  0
   38.4290   77.2650   54.3200 O   0  0  0  0  0  0  0  0  0  0  0  0
   38.9870   77.0330   55.1280 H   0  0  0  0  0  0  0  0  0  0  0  0
   36.0100   76.6440   53.1970 O   0  0  0  0  0  0  0  0  0  0  0  0
   35.9790   77.5500   52.8020 H   0  0  0  0  0  0  0  0  0  0  0  0
  1 12  1  0  0  0  0
  2  1  1  0  0  0  0
  2  7  1  0  0  0  0
  3  2  2  0  0  0  0
  4  5  2  0  0  0  0
  4  3  1  0  0  0  0
  5  6  1  0  0  0  0
  6  1  2  0  0  0  0
  8  3  1  0  0  0  0
  9 20  1  0  0  0  0
  9 10  2  0  0  0  0
 10 14  1  0  0  0  0
 11 10  1  0  0  0  0
 11 15  1  0  0  0  0
 12 11  2  0  0  0  0
 13 12  1  0  0  0  0
 13  9  1  0  0  0  0
 16 17  1  0  0  0  0
 17 23  1  0  0  0  0
 17 18  2  0  0  0  0
 18 24  1  0  0  0  0
 19 18  1  0  0  0  0
 20 19  2  0  0  0  0
 21 16  2  0  0  0  0
 21 20  1  0  0  0  0
 22 16  1  0  0  0  0
 25 26  2  0  0  0  0
 25  5  1  0  0  0  0
 27 30  1  6  0  0  0
 27 28  1  0  0  0  0
 27 25  1  0  0  0  0
 28 31  1  0  0  0  0
 29 27  1  0  0  0  0
 29 33  1  1  0  0  0
 29 28  1  0  0  0  0
 32 28  1  0  0  0  0
 34 29  1  0  0  0  0
 36 34  1  0  0  0  0
 36 35  2  0  0  0  0
 37 36  1  0  0  0  0
 37 38  1  0  0  0  0
 39 36  1  0  0  0  0
 40 39  1  0  0  0  0
M  END
>  <minimizedAffinity>
-6.21785831

$$$$

 OpenBabel03212521013D

 40 43  0  0  1  0  0  0  0  0999 V2000
   42.5170   73.8620   60.0070 C   0  0  0  0  0  0  0  0  0  0  0  0
   43.5320   73.8220   59.1130 C   0  0  0  0  0  0  0  0  0  0  0  0
   43.5970   74.9790   58.3200 C   0  0  0  0  0  0  0  0  0  0  0  0
   42.7460   76.0180   58.4320 N   0  0  0  0  0  0  0  0  0  0  0  0
   41.7550   75.9530   59.3700 C   0  0  0  0  0  0  0  0  0  0  0  0
   41.6430   74.8630   60.1640 N   0  0  0  0  0  0  0  0  0  0  0  0
   44.2310   73.0330   58.9810 H   0  0  0  0  0  0  0  0  0  0  0  0
   44.3600   75.1050   57.5500 H   0  0  0  0  0  0  0  0  0  0  0  0
   42.0250   70.2710   61.8810 C   0  0  0  0  0  0  0  0  0  0  0  0
   41.9910   71.3240   62.7590 C   0  0  0  0  0  0  0  0  0  0  0  0
   42.1400   72.5700   62.2690 C   0  0  0  0  0  0  0  0  0  0  0  0
   42.3240   72.7340   60.8980 C   0  0  0  0  0  0  0  0  0  0  0  0
   42.2830   71.0200   60.2450 S   0  0  0  0  0  0  0  0  0  0  0  0
   41.8460   71.1910   63.8340 H   0  0  0  0  0  0  0  0  0  0  0  0
   42.1430   73.5200   62.7830 H   0  0  0  0  0  0  0  0  0  0  0  0
   42.1590   66.6090   61.6970 C   0  0  0  0  0  0  0  0  0  0  0  0
   41.6040   66.2120   62.9430 C   0  0  0  0  0  0  0  0  0  0  0  0
   41.1920   67.1980   63.8380 C   0  0  0  0  0  0  0  0  0  0  0  0
   41.3360   68.5020   63.4840 N   0  0  0  0  0  0  0  0  0  0  0  0
   41.8740   68.8450   62.2760 C   0  0  0  0  0  0  0  0  0  0  0  0
   42.2720   67.9090   61.4130 N   0  0  0  0  0  0  0  0  0  0  0  0
   42.4510   65.8050   61.0650 H   0  0  0  0  0  0  0  0  0  0  0  0
   41.4730   65.1790   63.2600 H   0  0  0  0  0  0  0  0  0  0  0  0
   40.7590   66.9850   64.8050 H   0  0  0  0  0  0  0  0  0  0  0  0
   40.8600   77.0870   59.4780 C   0  0  0  0  0  0  0  0  0  0  0  0
   41.3170   78.1300   59.9710 O   0  0  0  0  0  0  0  0  0  0  0  0
   39.4200   77.0210   59.0240 C   0  0  1  0  0  0  0  0  0  0  0  0
   39.2140   77.5950   57.6430 C   0  0  0  0  0  0  0  0  0  0  0  0
   39.0440   76.1730   57.9170 C   0  0  2  0  0  0  0  0  0  0  0  0
   38.7330   77.4970   59.7560 H   0  0  0  0  0  0  0  0  0  0  0  0
   40.0870   77.9180   57.0370 H   0  0  0  0  0  0  0  0  0  0  0  0
   38.3720   78.3010   57.5470 H   0  0  0  0  0  0  0  0  0  0  0  0
   39.8440   75.4730   57.5430 H   0  0  0  0  0  0  0  0  0  0  0  0
   37.8040   75.5480   57.9180 O   0  0  0  0  0  0  0  0  0  0  0  0
   37.6820   73.0060   57.4500 O   0  0  0  0  0  0  0  0  0  0  0  0
   37.6670   74.3580   56.7540 P   0  0  0  0  0  0  0  0  0  0  0  0
   36.2950   74.5240   55.7790 O   0  0  0  0  0  0  0  0  0  0  0  0
   35.5490   74.7850   56.4050 H   0  0  0  0  0  0  0  0  0  0  0  0
   39.0280   74.3740   55.7240 O   0  0  0  0  0  0  0  0  0  0  0  0
   38.9580   73.6250   55.0810 H   0  0  0  0  0  0  0  0  0  0  0  0
  1  6  1  0  0  0  0
  1 12  1  0  0  0  0
  2  1  2  0  0  0  0
  3  4  2  0  0  0  0
  3  2  1  0  0  0  0
  4  5  1  0  0  0  0
  5 25  1  0  0  0  0
  5  6  2  0  0  0  0
  7  2  1  0  0  0  0
  8  3  1  0  0  0  0
  9 20  1  0  0  0  0
  9 10  2  0  0  0  0
 10 14  1  0  0  0  0
 11 10  1  0  0  0  0
 11 15  1  0  0  0  0
 12 11  2  0  0  0  0
 13 12  1  0  0  0  0
 13  9  1  0  0  0  0
 16 17  1  0  0  0  0
 17 23  1  0  0  0  0
 17 18  2  0  0  0  0
 18 24  1  0  0  0  0
 19 18  1  0  0  0  0
 20 19  2  0  0  0  0
 21 16  2  0  0  0  0
 21 20  1  0  0  0  0
 22 16  1  0  0  0  0
 25 26  2  0  0  0  0
 27 25  1  0  0  0  0
 27 30  1  1  0  0  0
 28 29  1  0  0  0  0
 28 27  1  0  0  0  0
 29 33  1  6  0  0  0
 29 34  1  0  0  0  0
 29 27  1  0  0  0  0
 31 28  1  0  0  0  0
 32 28  1  0  0  0  0
 36 35  2  0  0  0  0
 36 34  1  0  0  0  0
 37 38  1  0  0  0  0
 37 36  1  0  0  0  0
 39 36  1  0  0  0  0
 40 39  1  0  0  0  0
M  END
>  <minimizedAffinity>
-6.17361927

$$$$

 OpenBabel03212521013D

 40 43  0  0  1  0  0  0  0  0999 V2000
   40.5600   73.1300   60.3420 C   0  0  0  0  0  0  0  0  0  0  0  0
   40.2370   73.1120   61.6560 C   0  0  0  0  0  0  0  0  0  0  0  0
   40.9740   72.1600   62.3780 C   0  0  0  0  0  0  0  0  0  0  0  0
   41.9020   71.3510   61.8290 N   0  0  0  0  0  0  0  0  0  0  0  0
   42.1490   71.4530   60.4900 C   0  0  0  0  0  0  0  0  0  0  0  0
   41.4690   72.3540   59.7420 N   0  0  0  0  0  0  0  0  0  0  0  0
   39.5180   73.7240   62.1420 H   0  0  0  0  0  0  0  0  0  0  0  0
   40.8340   72.0190   63.4520 H   0  0  0  0  0  0  0  0  0  0  0  0
   38.5800   75.1660   57.4120 C   0  0  0  0  0  0  0  0  0  0  0  0
   38.8780   75.9630   58.4880 C   0  0  0  0  0  0  0  0  0  0  0  0
   39.5340   75.4120   59.5270 C   0  0  0  0  0  0  0  0  0  0  0  0
   39.8790   74.0650   59.4670 C   0  0  0  0  0  0  0  0  0  0  0  0
   39.2400   73.5250   57.8330 S   0  0  0  0  0  0  0  0  0  0  0  0
   38.6060   77.0200   58.5320 H   0  0  0  0  0  0  0  0  0  0  0  0
   39.8580   75.8610   60.4560 H   0  0  0  0  0  0  0  0  0  0  0  0
   36.4960   77.2470   55.2230 C   0  0  0  0  0  0  0  0  0  0  0  0
   36.5140   76.5280   53.9980 C   0  0  0  0  0  0  0  0  0  0  0  0
   37.2400   75.3410   53.9280 C   0  0  0  0  0  0  0  0  0  0  0  0
   37.9040   74.9140   55.0340 N   0  0  0  0  0  0  0  0  0  0  0  0
   37.8620   75.6340   56.1950 C   0  0  0  0  0  0  0  0  0  0  0  0
   37.1710   76.7710   56.2730 N   0  0  0  0  0  0  0  0  0  0  0  0
   35.9230   78.1430   55.2050 H   0  0  0  0  0  0  0  0  0  0  0  0
   35.9950   76.8380   53.0920 H   0  0  0  0  0  0  0  0  0  0  0  0
   37.3060   74.7320   53.0370 H   0  0  0  0  0  0  0  0  0  0  0  0
   43.1580   70.5800   59.9260 C   0  0  0  0  0  0  0  0  0  0  0  0
   44.2310   71.0990   59.5770 O   0  0  0  0  0  0  0  0  0  0  0  0
   42.9310   69.0960   59.7500 C   0  0  1  0  0  0  0  0  0  0  0  0
   43.9980   68.2580   60.4130 C   0  0  0  0  0  0  0  0  0  0  0  0
   42.6220   68.2680   60.8930 C   0  0  2  0  0  0  0  0  0  0  0  0
   42.8190   68.8180   58.6810 H   0  0  0  0  0  0  0  0  0  0  0  0
   44.7800   68.7420   61.0370 H   0  0  0  0  0  0  0  0  0  0  0  0
   44.4200   67.4530   59.7890 H   0  0  0  0  0  0  0  0  0  0  0  0
   42.4100   68.8180   61.8530 H   0  0  0  0  0  0  0  0  0  0  0  0
   41.7650   67.1850   60.7460 O   0  0  0  0  0  0  0  0  0  0  0  0
   41.4450   67.5520   63.2860 O   0  0  0  0  0  0  0  0  0  0  0  0
   41.3220   66.4950   62.2010 P   0  0  0  0  0  0  0  0  0  0  0  0
   39.7700   65.8200   62.1820 O   0  0  0  0  0  0  0  0  0  0  0  0
   39.1970   66.4770   61.6740 H   0  0  0  0  0  0  0  0  0  0  0  0
   42.4120   65.2520   62.6260 O   0  0  0  0  0  0  0  0  0  0  0  0
   42.1690   64.8970   63.5170 H   0  0  0  0  0  0  0  0  0  0  0  0
  1  2  1  0  0  0  0
  2  7  1  0  0  0  0
  2  3  2  0  0  0  0
  3  8  1  0  0  0  0
  4  3  1  0  0  0  0
  5  4  2  0  0  0  0
  6  1  2  0  0  0  0
  6  5  1  0  0  0  0
  9 13  1  0  0  0  0
  9 10  2  0  0  0  0
 10 14  1  0  0  0  0
 10 11  1  0  0  0  0
 11 15  1  0  0  0  0
 12 11  2  0  0  0  0
 12  1  1  0  0  0  0
 13 12  1  0  0  0  0
 16 21  1  0  0  0  0
 17 16  2  0  0  0  0
 18 17  1  0  0  0  0
 18 19  2  0  0  0  0
 19 20  1  0  0  0  0
 20 21  2  0  0  0  0
 20  9  1  0  0  0  0
 22 16  1  0  0  0  0
 23 17  1  0  0  0  0
 24 18  1  0  0  0  0
 25  5  1  0  0  0  0
 26 25  2  0  0  0  0
 27 30  1  6  0  0  0
 27 25  1  0  0  0  0
 27 28  1  0  0  0  0
 27 29  1  0  0  0  0
 28 29  1  0  0  0  0
 28 31  1  0  0  0  0
 29 33  1  1  0  0  0
 32 28  1  0  0  0  0
 34 29  1  0  0  0  0
 34 36  1  0  0  0  0
 36 39  1  0  0  0  0
 36 35  2  0  0  0  0
 37 36  1  0  0  0  0
 38 37  1  0  0  0  0
 39 40  1  0  0  0  0
M  END
>  <minimizedAffinity>
-6.07205105

$$$$

 OpenBabel03212521013D

 40 43  0  0  1  0  0  0  0  0999 V2000
   41.0670   72.6840   61.0230 C   0  0  0  0  0  0  0  0  0  0  0  0
   41.5150   72.7760   62.2970 C   0  0  0  0  0  0  0  0  0  0  0  0
   42.1740   71.6110   62.7210 C   0  0  0  0  0  0  0  0  0  0  0  0
   42.3460   70.5200   61.9490 N   0  0  0  0  0  0  0  0  0  0  0  0
   41.8520   70.5350   60.6760 C   0  0  0  0  0  0  0  0  0  0  0  0
   41.2070   71.6300   60.2120 N   0  0  0  0  0  0  0  0  0  0  0  0
   41.4090   73.6080   62.9490 H   0  0  0  0  0  0  0  0  0  0  0  0
   42.5960   71.5230   63.7240 H   0  0  0  0  0  0  0  0  0  0  0  0
   39.3350   75.5850   58.7360 C   0  0  0  0  0  0  0  0  0  0  0  0
   39.0890   75.7620   60.0730 C   0  0  0  0  0  0  0  0  0  0  0  0
   39.6060   74.8720   60.9410 C   0  0  0  0  0  0  0  0  0  0  0  0
   40.3640   73.8140   60.4450 C   0  0  0  0  0  0  0  0  0  0  0  0
   40.3550   74.0840   58.6300 S   0  0  0  0  0  0  0  0  0  0  0  0
   38.4930   76.5940   60.4580 H   0  0  0  0  0  0  0  0  0  0  0  0
   39.5300   74.8320   62.0190 H   0  0  0  0  0  0  0  0  0  0  0  0
   37.1440   76.9600   56.1330 C   0  0  0  0  0  0  0  0  0  0  0  0
   37.8680   78.0960   55.6810 C   0  0  0  0  0  0  0  0  0  0  0  0
   39.0970   78.3850   56.2710 C   0  0  0  0  0  0  0  0  0  0  0  0
   39.5570   77.5700   57.2570 N   0  0  0  0  0  0  0  0  0  0  0  0
   38.8310   76.4860   57.6630 C   0  0  0  0  0  0  0  0  0  0  0  0
   37.6540   76.2000   57.1060 N   0  0  0  0  0  0  0  0  0  0  0  0
   36.2150   76.8000   55.6390 H   0  0  0  0  0  0  0  0  0  0  0  0
   37.5310   78.7710   54.8960 H   0  0  0  0  0  0  0  0  0  0  0  0
   39.7120   79.2280   55.9880 H   0  0  0  0  0  0  0  0  0  0  0  0
   42.0590   69.3530   59.8630 C   0  0  0  0  0  0  0  0  0  0  0  0
   42.3770   69.5260   58.6760 O   0  0  0  0  0  0  0  0  0  0  0  0
   41.8900   67.9570   60.4160 C   0  0  1  0  0  0  0  0  0  0  0  0
   41.8950   66.8970   59.3400 C   0  0  0  0  0  0  0  0  0  0  0  0
   42.9690   67.0010   60.3200 C   0  0  2  0  0  0  0  0  0  0  0  0
   40.9830   67.8700   61.0510 H   0  0  0  0  0  0  0  0  0  0  0  0
   42.1110   67.1730   58.2860 H   0  0  0  0  0  0  0  0  0  0  0  0
   41.0810   66.1560   59.4050 H   0  0  0  0  0  0  0  0  0  0  0  0
   43.9570   67.4120   59.9670 H   0  0  0  0  0  0  0  0  0  0  0  0
   43.1580   66.0720   61.3350 O   0  0  0  0  0  0  0  0  0  0  0  0
   43.4890   67.2800   63.5980 O   0  0  0  0  0  0  0  0  0  0  0  0
   44.2540   66.5730   62.4910 P   0  0  0  0  0  0  0  0  0  0  0  0
   45.2000   65.3160   63.1110 O   0  0  0  0  0  0  0  0  0  0  0  0
   44.5690   64.5390   63.2360 H   0  0  0  0  0  0  0  0  0  0  0  0
   45.3180   67.7360   61.8360 O   0  0  0  0  0  0  0  0  0  0  0  0
   45.9190   68.0650   62.5500 H   0  0  0  0  0  0  0  0  0  0  0  0
  1  2  1  0  0  0  0
  2  3  2  0  0  0  0
  2  7  1  0  0  0  0
  3  8  1  0  0  0  0
  4  3  1  0  0  0  0
  5  4  2  0  0  0  0
  6  5  1  0  0  0  0
  6  1  2  0  0  0  0
  9 10  2  0  0  0  0
 10 14  1  0  0  0  0
 10 11  1  0  0  0  0
 11 15  1  0  0  0  0
 12 11  2  0  0  0  0
 12  1  1  0  0  0  0
 13  9  1  0  0  0  0
 13 12  1  0  0  0  0
 16 21  1  0  0  0  0
 17 16  2  0  0  0  0
 17 18  1  0  0  0  0
 18 19  2  0  0  0  0
 19 20  1  0  0  0  0
 20  9  1  0  0  0  0
 21 20  2  0  0  0  0
 22 16  1  0  0  0  0
 23 17  1  0  0  0  0
 24 18  1  0  0  0  0
 25 27  1  0  0  0  0
 25  5  1  0  0  0  0
 26 25  2  0  0  0  0
 27 30  1  1  0  0  0
 28 32  1  0  0  0  0
 28 29  1  0  0  0  0
 28 27  1  0  0  0  0
 29 33  1  6  0  0  0
 29 27  1  0  0  0  0
 29 34  1  0  0  0  0
 31 28  1  0  0  0  0
 34 36  1  0  0  0  0
 36 37  1  0  0  0  0
 36 35  2  0  0  0  0
 37 38  1  0  0  0  0
 39 36  1  0  0  0  0
 39 40  1  0  0  0  0
M  END
>  <minimizedAffinity>
-5.97044086

$$$$

 OpenBabel03212521013D

 40 43  0  0  1  0  0  0  0  0999 V2000
   40.7920   73.5500   60.5180 C   0  0  0  0  0  0  0  0  0  0  0  0
   39.6690   73.5550   61.2730 C   0  0  0  0  0  0  0  0  0  0  0  0
   38.9200   74.7330   61.1170 C   0  0  0  0  0  0  0  0  0  0  0  0
   39.2750   75.7480   60.3050 N   0  0  0  0  0  0  0  0  0  0  0  0
   40.4300   75.6380   59.5860 C   0  0  0  0  0  0  0  0  0  0  0  0
   41.1940   74.5250   59.6960 N   0  0  0  0  0  0  0  0  0  0  0  0
   39.3400   72.7870   61.9290 H   0  0  0  0  0  0  0  0  0  0  0  0
   37.9850   74.8950   61.6570 H   0  0  0  0  0  0  0  0  0  0  0  0
   42.9910   70.2250   61.3860 C   0  0  0  0  0  0  0  0  0  0  0  0
   43.2210   70.6820   60.1130 C   0  0  0  0  0  0  0  0  0  0  0  0
   42.5570   71.7780   59.6990 C   0  0  0  0  0  0  0  0  0  0  0  0
   41.6680   72.3960   60.5750 C   0  0  0  0  0  0  0  0  0  0  0  0
   41.7700   71.3700   62.0940 S   0  0  0  0  0  0  0  0  0  0  0  0
   43.9190   70.1940   59.4290 H   0  0  0  0  0  0  0  0  0  0  0  0
   42.5940   72.2920   58.7480 H   0  0  0  0  0  0  0  0  0  0  0  0
   43.9650   67.6960   63.8600 C   0  0  0  0  0  0  0  0  0  0  0  0
   44.8460   66.8600   63.1240 C   0  0  0  0  0  0  0  0  0  0  0  0
   45.0990   67.1650   61.7880 C   0  0  0  0  0  0  0  0  0  0  0  0
   44.4920   68.2500   61.2390 N   0  0  0  0  0  0  0  0  0  0  0  0
   43.6500   69.0300   61.9800 C   0  0  0  0  0  0  0  0  0  0  0  0
   43.4020   68.7480   63.2590 N   0  0  0  0  0  0  0  0  0  0  0  0
   43.8180   67.4050   64.8730 H   0  0  0  0  0  0  0  0  0  0  0  0
   45.3500   65.9840   63.5290 H   0  0  0  0  0  0  0  0  0  0  0  0
   45.7560   66.5840   61.1560 H   0  0  0  0  0  0  0  0  0  0  0  0
   40.7840   76.7380   58.7120 C   0  0  0  0  0  0  0  0  0  0  0  0
   41.4050   77.6890   59.2140 O   0  0  0  0  0  0  0  0  0  0  0  0
   40.4130   76.7530   57.2470 C   0  0  1  0  0  0  0  0  0  0  0  0
   41.3460   75.9230   56.3990 C   0  0  0  0  0  0  0  0  0  0  0  0
   39.9520   75.5460   56.6020 C   0  0  2  0  0  0  0  0  0  0  0  0
   40.3340   77.7880   56.8510 H   0  0  0  0  0  0  0  0  0  0  0  0
   42.1370   75.3070   56.8780 H   0  0  0  0  0  0  0  0  0  0  0  0
   41.7160   76.4170   55.4850 H   0  0  0  0  0  0  0  0  0  0  0  0
   39.7440   74.6740   57.2850 H   0  0  0  0  0  0  0  0  0  0  0  0
   38.9960   75.6240   55.5970 O   0  0  0  0  0  0  0  0  0  0  0  0
   37.4370   74.9420   57.5460 O   0  0  0  0  0  0  0  0  0  0  0  0
   37.4300   75.6060   56.1780 P   0  0  0  0  0  0  0  0  0  0  0  0
   36.7200   77.1390   56.2490 O   0  0  0  0  0  0  0  0  0  0  0  0
   37.4400   77.7540   56.5960 H   0  0  0  0  0  0  0  0  0  0  0  0
   36.4390   74.6310   55.1860 O   0  0  0  0  0  0  0  0  0  0  0  0
   35.5330   74.5840   55.5790 H   0  0  0  0  0  0  0  0  0  0  0  0
  1 12  1  0  0  0  0
  1  2  1  0  0  0  0
  2  7  1  0  0  0  0
  3  2  2  0  0  0  0
  3  8  1  0  0  0  0
  4  3  1  0  0  0  0
  5  6  1  0  0  0  0
  5  4  2  0  0  0  0
  6  1  2  0  0  0  0
  9 20  1  0  0  0  0
  9 13  1  0  0  0  0
 10  9  2  0  0  0  0
 11 10  1  0  0  0  0
 11 12  2  0  0  0  0
 12 13  1  0  0  0  0
 14 10  1  0  0  0  0
 15 11  1  0  0  0  0
 16 22  1  0  0  0  0
 17 23  1  0  0  0  0
 17 16  2  0  0  0  0
 18 17  1  0  0  0  0
 19 18  2  0  0  0  0
 19 20  1  0  0  0  0
 20 21  2  0  0  0  0
 21 16  1  0  0  0  0
 24 18  1  0  0  0  0
 25 26  2  0  0  0  0
 25  5  1  0  0  0  0
 27 30  1  6  0  0  0
 27 25  1  0  0  0  0
 28 29  1  0  0  0  0
 28 31  1  0  0  0  0
 28 27  1  0  0  0  0
 29 27  1  0  0  0  0
 29 33  1  1  0  0  0
 32 28  1  0  0  0  0
 34 36  1  0  0  0  0
 34 29  1  0  0  0  0
 36 37  1  0  0  0  0
 36 35  2  0  0  0  0
 37 38  1  0  0  0  0
 39 40  1  0  0  0  0
 39 36  1  0  0  0  0
M  END
>  <minimizedAffinity>
-5.96866274

$$$$

 OpenBabel03212521013D

 40 43  0  0  1  0  0  0  0  0999 V2000
   41.2790   72.7310   60.8980 C   0  0  0  0  0  0  0  0  0  0  0  0
   40.2660   73.2290   61.6440 C   0  0  0  0  0  0  0  0  0  0  0  0
   39.8240   74.4810   61.1870 C   0  0  0  0  0  0  0  0  0  0  0  0
   40.3480   75.1210   60.1230 N   0  0  0  0  0  0  0  0  0  0  0  0
   41.3700   74.5270   59.4400 C   0  0  0  0  0  0  0  0  0  0  0  0
   41.8370   73.3190   59.8340 N   0  0  0  0  0  0  0  0  0  0  0  0
   39.8150   72.7710   62.4900 H   0  0  0  0  0  0  0  0  0  0  0  0
   39.0130   75.0190   61.6800 H   0  0  0  0  0  0  0  0  0  0  0  0
   42.7180   68.9230   61.1670 C   0  0  0  0  0  0  0  0  0  0  0  0
   42.8120   69.5990   62.3560 C   0  0  0  0  0  0  0  0  0  0  0  0
   42.3690   70.8700   62.4050 C   0  0  0  0  0  0  0  0  0  0  0  0
   41.8400   71.4410   61.2510 C   0  0  0  0  0  0  0  0  0  0  0  0
   41.9680   70.1010   60.0040 S   0  0  0  0  0  0  0  0  0  0  0  0
   43.2280   69.1470   63.2600 H   0  0  0  0  0  0  0  0  0  0  0  0
   42.3530   71.5660   63.2330 H   0  0  0  0  0  0  0  0  0  0  0  0
   43.5410   65.4230   61.9050 C   0  0  0  0  0  0  0  0  0  0  0  0
   43.9880   64.9350   60.6480 C   0  0  0  0  0  0  0  0  0  0  0  0
   44.0020   65.8030   59.5590 C   0  0  0  0  0  0  0  0  0  0  0  0
   43.5880   67.0850   59.7380 N   0  0  0  0  0  0  0  0  0  0  0  0
   43.1650   67.5180   60.9630 C   0  0  0  0  0  0  0  0  0  0  0  0
   43.1470   66.6950   62.0130 N   0  0  0  0  0  0  0  0  0  0  0  0
   43.5570   64.7080   62.6920 H   0  0  0  0  0  0  0  0  0  0  0  0
   44.3270   63.9160   60.4670 H   0  0  0  0  0  0  0  0  0  0  0  0
   44.3280   65.5150   58.5690 H   0  0  0  0  0  0  0  0  0  0  0  0
   41.9080   75.2300   58.2930 C   0  0  0  0  0  0  0  0  0  0  0  0
   43.0240   75.7590   58.4200 O   0  0  0  0  0  0  0  0  0  0  0  0
   41.1540   75.3350   56.9870 C   0  0  1  0  0  0  0  0  0  0  0  0
   41.3320   74.1200   56.1090 C   0  0  0  0  0  0  0  0  0  0  0  0
   40.0470   74.4490   56.7140 C   0  0  2  0  0  0  0  0  0  0  0  0
   41.4120   76.2630   56.4340 H   0  0  0  0  0  0  0  0  0  0  0  0
   41.8840   73.2330   56.4880 H   0  0  0  0  0  0  0  0  0  0  0  0
   41.5810   74.3320   55.0560 H   0  0  0  0  0  0  0  0  0  0  0  0
   39.7020   73.8140   57.5790 H   0  0  0  0  0  0  0  0  0  0  0  0
   38.9620   74.9090   55.9780 O   0  0  0  0  0  0  0  0  0  0  0  0
   36.8230   76.2920   56.4250 O   0  0  0  0  0  0  0  0  0  0  0  0
   37.5650   75.0470   56.8820 P   0  0  0  0  0  0  0  0  0  0  0  0
   36.5710   73.6810   56.8000 O   0  0  0  0  0  0  0  0  0  0  0  0
   36.5880   73.3930   55.8330 H   0  0  0  0  0  0  0  0  0  0  0  0
   37.9450   75.3010   58.5280 O   0  0  0  0  0  0  0  0  0  0  0  0
   37.1080   75.4410   59.0360 H   0  0  0  0  0  0  0  0  0  0  0  0
  1 12  1  0  0  0  0
  1  2  1  0  0  0  0
  2  7  1  0  0  0  0
  3  2  2  0  0  0  0
  3  8  1  0  0  0  0
  4  3  1  0  0  0  0
  5  6  1  0  0  0  0
  5  4  2  0  0  0  0
  6  1  2  0  0  0  0
  9 10  2  0  0  0  0
 10 11  1  0  0  0  0
 10 14  1  0  0  0  0
 11 15  1  0  0  0  0
 12 11  2  0  0  0  0
 13  9  1  0  0  0  0
 13 12  1  0  0  0  0
 16 21  1  0  0  0  0
 16 22  1  0  0  0  0
 17 16  2  0  0  0  0
 18 19  2  0  0  0  0
 18 17  1  0  0  0  0
 19 20  1  0  0  0  0
 20  9  1  0  0  0  0
 20 21  2  0  0  0  0
 23 17  1  0  0  0  0
 24 18  1  0  0  0  0
 25 26  2  0  0  0  0
 25  5  1  0  0  0  0
 27 30  1  6  0  0  0
 27 25  1  0  0  0  0
 28 31  1  0  0  0  0
 28 29  1  0  0  0  0
 28 27  1  0  0  0  0
 29 27  1  0  0  0  0
 29 33  1  1  0  0  0
 32 28  1  0  0  0  0
 34 29  1  0  0  0  0
 34 36  1  0  0  0  0
 35 36  2  0  0  0  0
 36 39  1  0  0  0  0
 37 36  1  0  0  0  0
 38 37  1  0  0  0  0
 39 40  1  0  0  0  0
M  END
>  <minimizedAffinity>
-5.94791079

$$$$
