
 OpenBabel03212520463D

 18 18  0  0  0  0  0  0  0  0999 V2000
   39.1830   75.9590   60.2700 C   0  0  0  0  0  0  0  0  0  0  0  0
   40.1020   76.9970   60.4780 C   0  0  0  0  0  0  0  0  0  0  0  0
   40.7560   77.5430   59.3490 C   0  0  0  0  0  0  0  0  0  0  0  0
   40.4450   77.0200   58.1410 N   0  0  0  0  0  0  0  0  0  0  0  0
   39.5480   76.0140   57.9860 C   0  0  0  0  0  0  0  0  0  0  0  0
   38.9270   75.4940   59.0480 N   0  0  0  0  0  0  0  0  0  0  0  0
   38.6120   75.5200   61.5020 N   0  0  0  0  0  0  0  0  0  0  0  0
   40.3600   77.4270   61.4460 H   0  0  0  0  0  0  0  0  0  0  0  0
   41.4720   78.3460   59.4710 H   0  0  0  0  0  0  0  0  0  0  0  0
   38.7670   74.6470   62.0480 H   0  0  0  0  0  0  0  0  0  0  0  0
   37.9370   76.2290   61.8680 H   0  0  0  0  0  0  0  0  0  0  0  0
   39.2270   75.4750   56.7470 O   0  0  0  0  0  0  0  0  0  0  0  0
   36.8020   76.3760   56.4970 O   0  0  0  0  0  0  0  0  0  0  0  0
   37.5970   75.0840   56.4460 P   0  0  0  0  0  0  0  0  0  0  0  0
   37.4810   74.4950   54.8690 O   0  0  0  0  0  0  0  0  0  0  0  0
   37.2270   75.2110   54.2150 H   0  0  0  0  0  0  0  0  0  0  0  0
   37.0140   73.9450   57.5480 O   0  0  0  0  0  0  0  0  0  0  0  0
   36.0580   74.1530   57.7040 H   0  0  0  0  0  0  0  0  0  0  0  0
  1  2  1  0  0  0  0
  1  7  1  0  0  0  0
  2  8  1  0  0  0  0
  3  9  1  0  0  0  0
  3  2  2  0  0  0  0
  4  3  1  0  0  0  0
  5  4  2  0  0  0  0
  5  6  1  0  0  0  0
  6  1  2  0  0  0  0
  7 11  1  0  0  0  0
  7 10  1  0  0  0  0
 12  5  1  0  0  0  0
 14 13  2  0  0  0  0
 14 12  1  0  0  0  0
 14 17  1  0  0  0  0
 15 14  1  0  0  0  0
 16 15  1  0  0  0  0
 17 18  1  0  0  0  0
M  END
>  <minimizedAffinity>
-4.46096992

$$$$

 OpenBabel03212520463D

 18 18  0  0  0  0  0  0  0  0999 V2000
   39.2650   75.5200   60.6890 C   0  0  0  0  0  0  0  0  0  0  0  0
   39.3950   74.1800   61.0780 C   0  0  0  0  0  0  0  0  0  0  0  0
   39.3530   73.1880   60.0710 C   0  0  0  0  0  0  0  0  0  0  0  0
   39.1890   73.6070   58.7950 N   0  0  0  0  0  0  0  0  0  0  0  0
   39.0670   74.9170   58.4630 C   0  0  0  0  0  0  0  0  0  0  0  0
   39.1050   75.8590   59.4100 N   0  0  0  0  0  0  0  0  0  0  0  0
   39.3280   76.3930   61.8150 N   0  0  0  0  0  0  0  0  0  0  0  0
   39.5280   73.8300   62.1010 H   0  0  0  0  0  0  0  0  0  0  0  0
   39.4510   72.1410   60.3330 H   0  0  0  0  0  0  0  0  0  0  0  0
   38.5810   76.9440   62.2900 H   0  0  0  0  0  0  0  0  0  0  0  0
   40.3050   76.4520   62.1820 H   0  0  0  0  0  0  0  0  0  0  0  0
   38.8980   75.3510   57.1560 O   0  0  0  0  0  0  0  0  0  0  0  0
   36.5220   76.0540   56.3750 O   0  0  0  0  0  0  0  0  0  0  0  0
   37.4830   74.8800   56.3340 P   0  0  0  0  0  0  0  0  0  0  0  0
   37.8780   74.6200   54.7140 O   0  0  0  0  0  0  0  0  0  0  0  0
   37.7040   75.4280   54.1480 H   0  0  0  0  0  0  0  0  0  0  0  0
   36.8020   73.4900   57.0090 O   0  0  0  0  0  0  0  0  0  0  0  0
   35.8200   73.5710   56.9160 H   0  0  0  0  0  0  0  0  0  0  0  0
  1  2  1  0  0  0  0
  1  7  1  0  0  0  0
  2  8  1  0  0  0  0
  3  9  1  0  0  0  0
  3  2  2  0  0  0  0
  4  3  1  0  0  0  0
  5  4  2  0  0  0  0
  5  6  1  0  0  0  0
  6  1  2  0  0  0  0
  7 11  1  0  0  0  0
  7 10  1  0  0  0  0
 12  5  1  0  0  0  0
 14 13  2  0  0  0  0
 14 17  1  0  0  0  0
 14 12  1  0  0  0  0
 15 14  1  0  0  0  0
 16 15  1  0  0  0  0
 18 17  1  0  0  0  0
M  END
>  <minimizedAffinity>
-4.44810534

$$$$

 OpenBabel03212520463D

 18 18  0  0  0  0  0  0  0  0999 V2000
   39.4570   74.8290   60.9640 C   0  0  0  0  0  0  0  0  0  0  0  0
   40.0700   75.7420   60.0950 C   0  0  0  0  0  0  0  0  0  0  0  0
   41.2440   75.3320   59.4210 C   0  0  0  0  0  0  0  0  0  0  0  0
   41.6930   74.0800   59.6650 N   0  0  0  0  0  0  0  0  0  0  0  0
   41.0670   73.2290   60.5150 C   0  0  0  0  0  0  0  0  0  0  0  0
   39.9580   73.6090   61.1560 N   0  0  0  0  0  0  0  0  0  0  0  0
   38.2900   75.3910   61.5630 N   0  0  0  0  0  0  0  0  0  0  0  0
   39.7180   76.7520   59.8900 H   0  0  0  0  0  0  0  0  0  0  0  0
   41.7460   76.0100   58.7410 H   0  0  0  0  0  0  0  0  0  0  0  0
   38.1180   75.7200   62.5360 H   0  0  0  0  0  0  0  0  0  0  0  0
   37.5140   75.4590   60.8660 H   0  0  0  0  0  0  0  0  0  0  0  0
   41.5250   71.9430   60.7690 O   0  0  0  0  0  0  0  0  0  0  0  0
   42.7920   72.8270   62.8580 O   0  0  0  0  0  0  0  0  0  0  0  0
   42.0840   71.5890   62.3380 P   0  0  0  0  0  0  0  0  0  0  0  0
   40.7410   71.3350   63.3290 O   0  0  0  0  0  0  0  0  0  0  0  0
   40.4730   72.1650   63.8220 H   0  0  0  0  0  0  0  0  0  0  0  0
   43.0950   70.2370   62.3510 O   0  0  0  0  0  0  0  0  0  0  0  0
   43.7760   70.3880   63.0540 H   0  0  0  0  0  0  0  0  0  0  0  0
  1  6  1  0  0  0  0
  1  7  1  0  0  0  0
  2  1  2  0  0  0  0
  3  4  2  0  0  0  0
  3  2  1  0  0  0  0
  4  5  1  0  0  0  0
  5 12  1  0  0  0  0
  5  6  2  0  0  0  0
  7 10  1  0  0  0  0
  8  2  1  0  0  0  0
  9  3  1  0  0  0  0
 11  7  1  0  0  0  0
 12 14  1  0  0  0  0
 14 17  1  0  0  0  0
 14 13  2  0  0  0  0
 14 15  1  0  0  0  0
 15 16  1  0  0  0  0
 17 18  1  0  0  0  0
M  END
>  <minimizedAffinity>
-4.40310335

$$$$

 OpenBabel03212520463D

 18 18  0  0  0  0  0  0  0  0999 V2000
   37.1960   75.2630   56.2930 C   0  0  0  0  0  0  0  0  0  0  0  0
   37.6900   76.5750   56.3140 C   0  0  0  0  0  0  0  0  0  0  0  0
   38.4380   76.9860   57.4420 C   0  0  0  0  0  0  0  0  0  0  0  0
   38.6250   76.0760   58.4260 N   0  0  0  0  0  0  0  0  0  0  0  0
   38.1280   74.8160   58.3630 C   0  0  0  0  0  0  0  0  0  0  0  0
   37.4200   74.4210   57.3010 N   0  0  0  0  0  0  0  0  0  0  0  0
   36.4670   75.0060   55.0940 N   0  0  0  0  0  0  0  0  0  0  0  0
   37.5470   77.3160   55.5280 H   0  0  0  0  0  0  0  0  0  0  0  0
   38.8360   77.9920   57.4940 H   0  0  0  0  0  0  0  0  0  0  0  0
   35.4430   74.8980   54.9320 H   0  0  0  0  0  0  0  0  0  0  0  0
   37.1160   74.9210   54.2790 H   0  0  0  0  0  0  0  0  0  0  0  0
   38.3170   73.8800   59.3710 O   0  0  0  0  0  0  0  0  0  0  0  0
   39.4310   73.1110   61.5890 O   0  0  0  0  0  0  0  0  0  0  0  0
   39.2100   74.3510   60.7420 P   0  0  0  0  0  0  0  0  0  0  0  0
   40.7290   74.8740   60.2240 O   0  0  0  0  0  0  0  0  0  0  0  0
   41.4150   74.1460   60.2690 H   0  0  0  0  0  0  0  0  0  0  0  0
   38.4270   75.5700   61.6090 O   0  0  0  0  0  0  0  0  0  0  0  0
   38.6330   75.4260   62.5670 H   0  0  0  0  0  0  0  0  0  0  0  0
  1  2  2  0  0  0  0
  1  6  1  0  0  0  0
  2  3  1  0  0  0  0
  3  9  1  0  0  0  0
  3  4  2  0  0  0  0
  5  4  1  0  0  0  0
  5 12  1  0  0  0  0
  6  5  2  0  0  0  0
  7  1  1  0  0  0  0
  8  2  1  0  0  0  0
 10  7  1  0  0  0  0
 11  7  1  0  0  0  0
 12 14  1  0  0  0  0
 14 13  2  0  0  0  0
 14 17  1  0  0  0  0
 15 16  1  0  0  0  0
 15 14  1  0  0  0  0
 17 18  1  0  0  0  0
M  END
>  <minimizedAffinity>
-4.38164616

$$$$

 OpenBabel03212520463D

 18 18  0  0  0  0  0  0  0  0999 V2000
   37.2030   74.8730   56.7610 C   0  0  0  0  0  0  0  0  0  0  0  0
   36.7230   75.4940   55.5990 C   0  0  0  0  0  0  0  0  0  0  0  0
   37.0550   76.8520   55.3850 C   0  0  0  0  0  0  0  0  0  0  0  0
   37.8180   77.4580   56.3230 N   0  0  0  0  0  0  0  0  0  0  0  0
   38.2610   76.8180   57.4340 C   0  0  0  0  0  0  0  0  0  0  0  0
   37.9510   75.5350   57.6430 N   0  0  0  0  0  0  0  0  0  0  0  0
   36.7840   73.5120   56.8290 N   0  0  0  0  0  0  0  0  0  0  0  0
   36.1090   75.0170   54.8360 H   0  0  0  0  0  0  0  0  0  0  0  0
   36.7020   77.3650   54.4980 H   0  0  0  0  0  0  0  0  0  0  0  0
   36.0740   73.0500   57.4360 H   0  0  0  0  0  0  0  0  0  0  0  0
   37.3070   72.9290   56.1360 H   0  0  0  0  0  0  0  0  0  0  0  0
   39.0440   77.4370   58.4000 O   0  0  0  0  0  0  0  0  0  0  0  0
   40.6590   77.3570   60.4330 O   0  0  0  0  0  0  0  0  0  0  0  0
   39.8220   76.4510   59.5490 P   0  0  0  0  0  0  0  0  0  0  0  0
   38.6400   75.7550   60.5310 O   0  0  0  0  0  0  0  0  0  0  0  0
   38.4890   76.2800   61.3710 H   0  0  0  0  0  0  0  0  0  0  0  0
   40.7600   75.2550   58.8120 O   0  0  0  0  0  0  0  0  0  0  0  0
   41.5480   75.1040   59.3920 H   0  0  0  0  0  0  0  0  0  0  0  0
  1  7  1  0  0  0  0
  1  6  1  0  0  0  0
  2  1  2  0  0  0  0
  3  2  1  0  0  0  0
  3  4  2  0  0  0  0
  4  5  1  0  0  0  0
  5  6  2  0  0  0  0
  5 12  1  0  0  0  0
  7 10  1  0  0  0  0
  8  2  1  0  0  0  0
  9  3  1  0  0  0  0
 11  7  1  0  0  0  0
 12 14  1  0  0  0  0
 14 13  2  0  0  0  0
 14 15  1  0  0  0  0
 15 16  1  0  0  0  0
 17 18  1  0  0  0  0
 17 14  1  0  0  0  0
M  END
>  <minimizedAffinity>
-4.25047398

$$$$

 OpenBabel03212520463D

 18 18  0  0  0  0  0  0  0  0999 V2000
   40.0350   76.1700   60.0360 C   0  0  0  0  0  0  0  0  0  0  0  0
   39.2470   75.8800   61.1590 C   0  0  0  0  0  0  0  0  0  0  0  0
   38.5730   74.6380   61.1950 C   0  0  0  0  0  0  0  0  0  0  0  0
   38.7380   73.8120   60.1370 N   0  0  0  0  0  0  0  0  0  0  0  0
   39.5100   74.1340   59.0690 C   0  0  0  0  0  0  0  0  0  0  0  0
   40.1500   75.3060   59.0280 N   0  0  0  0  0  0  0  0  0  0  0  0
   40.6450   77.4540   60.1500 N   0  0  0  0  0  0  0  0  0  0  0  0
   39.1070   76.5360   62.0170 H   0  0  0  0  0  0  0  0  0  0  0  0
   37.9560   74.3790   62.0470 H   0  0  0  0  0  0  0  0  0  0  0  0
   40.4400   78.3500   59.6580 H   0  0  0  0  0  0  0  0  0  0  0  0
   41.4160   77.4340   60.8560 H   0  0  0  0  0  0  0  0  0  0  0  0
   39.6820   73.2890   57.9800 O   0  0  0  0  0  0  0  0  0  0  0  0
   38.8140   73.7540   55.5760 O   0  0  0  0  0  0  0  0  0  0  0  0
   38.3870   73.1220   56.8880 P   0  0  0  0  0  0  0  0  0  0  0  0
   38.1570   71.4770   56.5930 O   0  0  0  0  0  0  0  0  0  0  0  0
   38.6360   71.1700   55.7690 H   0  0  0  0  0  0  0  0  0  0  0  0
   36.9710   73.8210   57.4870 O   0  0  0  0  0  0  0  0  0  0  0  0
   36.4740   74.1850   56.7110 H   0  0  0  0  0  0  0  0  0  0  0  0
  1  7  1  0  0  0  0
  1  2  1  0  0  0  0
  2  3  2  0  0  0  0
  2  8  1  0  0  0  0
  3  9  1  0  0  0  0
  4  3  1  0  0  0  0
  5  4  2  0  0  0  0
  6  5  1  0  0  0  0
  6  1  2  0  0  0  0
  7 11  1  0  0  0  0
 10  7  1  0  0  0  0
 12  5  1  0  0  0  0
 13 14  2  0  0  0  0
 14 17  1  0  0  0  0
 14 12  1  0  0  0  0
 15 14  1  0  0  0  0
 16 15  1  0  0  0  0
 18 17  1  0  0  0  0
M  END
>  <minimizedAffinity>
-4.24349833

$$$$

 OpenBabel03212520463D

 18 18  0  0  0  0  0  0  0  0999 V2000
   39.1670   75.3310   60.5130 C   0  0  0  0  0  0  0  0  0  0  0  0
   40.2330   74.4580   60.7750 C   0  0  0  0  0  0  0  0  0  0  0  0
   40.9990   73.9970   59.6790 C   0  0  0  0  0  0  0  0  0  0  0  0
   40.6470   74.4370   58.4490 N   0  0  0  0  0  0  0  0  0  0  0  0
   39.6070   75.2830   58.2420 C   0  0  0  0  0  0  0  0  0  0  0  0
   38.8780   75.7210   59.2720 N   0  0  0  0  0  0  0  0  0  0  0  0
   38.4960   75.7020   61.7160 N   0  0  0  0  0  0  0  0  0  0  0  0
   40.5260   74.0980   61.7600 H   0  0  0  0  0  0  0  0  0  0  0  0
   41.8300   73.3220   59.8430 H   0  0  0  0  0  0  0  0  0  0  0  0
   37.5640   75.4220   62.0880 H   0  0  0  0  0  0  0  0  0  0  0  0
   39.0810   76.3640   62.2760 H   0  0  0  0  0  0  0  0  0  0  0  0
   39.2430   75.7350   56.9810 O   0  0  0  0  0  0  0  0  0  0  0  0
   37.8990   74.6260   55.0530 O   0  0  0  0  0  0  0  0  0  0  0  0
   37.7020   75.3090   56.3940 P   0  0  0  0  0  0  0  0  0  0  0  0
   37.0410   74.1620   57.4410 O   0  0  0  0  0  0  0  0  0  0  0  0
   37.2040   73.2250   57.1270 H   0  0  0  0  0  0  0  0  0  0  0  0
   36.6870   76.6530   56.2700 O   0  0  0  0  0  0  0  0  0  0  0  0
   36.0990   76.5030   55.4880 H   0  0  0  0  0  0  0  0  0  0  0  0
  1  2  1  0  0  0  0
  1  7  1  0  0  0  0
  2  8  1  0  0  0  0
  3  9  1  0  0  0  0
  3  2  2  0  0  0  0
  4  3  1  0  0  0  0
  5  4  2  0  0  0  0
  5  6  1  0  0  0  0
  6  1  2  0  0  0  0
  7 10  1  0  0  0  0
  7 11  1  0  0  0  0
 12  5  1  0  0  0  0
 13 14  2  0  0  0  0
 14 12  1  0  0  0  0
 14 15  1  0  0  0  0
 16 15  1  0  0  0  0
 17 14  1  0  0  0  0
 18 17  1  0  0  0  0
M  END
>  <minimizedAffinity>
-4.18062401

$$$$

 OpenBabel03212520463D

 18 18  0  0  0  0  0  0  0  0999 V2000
   39.0870   75.7290   60.3150 C   0  0  0  0  0  0  0  0  0  0  0  0
   40.0630   76.7090   60.0860 C   0  0  0  0  0  0  0  0  0  0  0  0
   40.5960   76.8250   58.7820 C   0  0  0  0  0  0  0  0  0  0  0  0
   40.1220   75.9760   57.8420 N   0  0  0  0  0  0  0  0  0  0  0  0
   39.1760   75.0420   58.1070 C   0  0  0  0  0  0  0  0  0  0  0  0
   38.6680   74.9260   59.3380 N   0  0  0  0  0  0  0  0  0  0  0  0
   38.6530   75.7390   61.6740 N   0  0  0  0  0  0  0  0  0  0  0  0
   40.4520   77.3990   60.8350 H   0  0  0  0  0  0  0  0  0  0  0  0
   41.3510   77.5720   58.5680 H   0  0  0  0  0  0  0  0  0  0  0  0
   38.8390   75.0710   62.4510 H   0  0  0  0  0  0  0  0  0  0  0  0
   38.0540   76.5750   61.8630 H   0  0  0  0  0  0  0  0  0  0  0  0
   38.6870   74.1680   57.1450 O   0  0  0  0  0  0  0  0  0  0  0  0
   40.5570   72.4860   56.4930 O   0  0  0  0  0  0  0  0  0  0  0  0
   39.2130   72.5490   57.1950 P   0  0  0  0  0  0  0  0  0  0  0  0
   39.4780   72.1330   58.8090 O   0  0  0  0  0  0  0  0  0  0  0  0
   40.4360   72.2480   59.0770 H   0  0  0  0  0  0  0  0  0  0  0  0
   38.0880   71.5050   56.4900 O   0  0  0  0  0  0  0  0  0  0  0  0
   38.5990   70.7750   56.0590 H   0  0  0  0  0  0  0  0  0  0  0  0
  1  7  1  0  0  0  0
  2  1  1  0  0  0  0
  2  8  1  0  0  0  0
  3  2  2  0  0  0  0
  4  5  2  0  0  0  0
  4  3  1  0  0  0  0
  5  6  1  0  0  0  0
  6  1  2  0  0  0  0
  7 11  1  0  0  0  0
  7 10  1  0  0  0  0
  9  3  1  0  0  0  0
 12 14  1  0  0  0  0
 12  5  1  0  0  0  0
 13 14  2  0  0  0  0
 14 15  1  0  0  0  0
 15 16  1  0  0  0  0
 17 14  1  0  0  0  0
 18 17  1  0  0  0  0
M  END
>  <minimizedAffinity>
-4.14544725

$$$$

 OpenBabel03212520463D

 18 18  0  0  0  0  0  0  0  0999 V2000
   37.9120   75.1890   54.6430 C   0  0  0  0  0  0  0  0  0  0  0  0
   36.9460   76.0730   54.1420 C   0  0  0  0  0  0  0  0  0  0  0  0
   36.4920   77.1110   54.9890 C   0  0  0  0  0  0  0  0  0  0  0  0
   37.0270   77.1770   56.2290 N   0  0  0  0  0  0  0  0  0  0  0  0
   37.9610   76.3000   56.6730 C   0  0  0  0  0  0  0  0  0  0  0  0
   38.3940   75.3160   55.8790 N   0  0  0  0  0  0  0  0  0  0  0  0
   38.2630   74.2040   53.6730 N   0  0  0  0  0  0  0  0  0  0  0  0
   36.5080   76.0300   53.1460 H   0  0  0  0  0  0  0  0  0  0  0  0
   35.7470   77.8140   54.6360 H   0  0  0  0  0  0  0  0  0  0  0  0
   38.0340   73.1890   53.6230 H   0  0  0  0  0  0  0  0  0  0  0  0
   38.8440   74.6250   52.9140 H   0  0  0  0  0  0  0  0  0  0  0  0
   38.5120   76.3640   57.9460 O   0  0  0  0  0  0  0  0  0  0  0  0
   39.9920   74.3860   58.7520 O   0  0  0  0  0  0  0  0  0  0  0  0
   38.5790   74.9290   58.8600 P   0  0  0  0  0  0  0  0  0  0  0  0
   38.3230   75.3260   60.4800 O   0  0  0  0  0  0  0  0  0  0  0  0
   39.1840   75.4530   60.9790 H   0  0  0  0  0  0  0  0  0  0  0  0
   37.4340   73.8020   58.3390 O   0  0  0  0  0  0  0  0  0  0  0  0
   37.8310   72.9040   58.4630 H   0  0  0  0  0  0  0  0  0  0  0  0
  1  6  1  0  0  0  0
  2  1  2  0  0  0  0
  2  3  1  0  0  0  0
  3  4  2  0  0  0  0
  4  5  1  0  0  0  0
  5 12  1  0  0  0  0
  6  5  2  0  0  0  0
  7  1  1  0  0  0  0
  8  2  1  0  0  0  0
  9  3  1  0  0  0  0
 10  7  1  0  0  0  0
 11  7  1  0  0  0  0
 12 14  1  0  0  0  0
 13 14  2  0  0  0  0
 14 15  1  0  0  0  0
 15 16  1  0  0  0  0
 17 18  1  0  0  0  0
 17 14  1  0  0  0  0
M  END
>  <minimizedAffinity>
-4.1064558

$$$$
