
 OpenBabel03212520523D

 33 35  0  0  1  0  0  0  0  0999 V2000
   42.1110   73.0550   60.1670 C   0  0  0  0  0  0  0  0  0  0  0  0
   43.0330   72.7990   59.1850 C   0  0  0  0  0  0  0  0  0  0  0  0
   43.8900   71.6960   59.2840 C   0  0  0  0  0  0  0  0  0  0  0  0
   43.8150   70.8740   60.3480 N   0  0  0  0  0  0  0  0  0  0  0  0
   42.8940   71.1550   61.2960 C   0  0  0  0  0  0  0  0  0  0  0  0
   42.0540   72.2110   61.2290 N   0  0  0  0  0  0  0  0  0  0  0  0
   43.0700   73.4690   58.3510 H   0  0  0  0  0  0  0  0  0  0  0  0
   44.5880   71.5540   58.4770 H   0  0  0  0  0  0  0  0  0  0  0  0
   39.4370   75.4460   60.9200 C   0  0  0  0  0  0  0  0  0  0  0  0
   39.5920   76.3770   59.8920 C   0  0  0  0  0  0  0  0  0  0  0  0
   40.5900   76.2020   58.9520 C   0  0  0  0  0  0  0  0  0  0  0  0
   41.3790   75.0980   59.0960 N   0  0  0  0  0  0  0  0  0  0  0  0
   41.2160   74.2090   60.0940 C   0  0  0  0  0  0  0  0  0  0  0  0
   40.2560   74.3660   61.0090 N   0  0  0  0  0  0  0  0  0  0  0  0
   38.3960   75.7500   61.8160 N   0  0  0  0  0  0  0  0  0  0  0  0
   38.9600   77.2530   59.7840 H   0  0  0  0  0  0  0  0  0  0  0  0
   40.7600   76.8860   58.1350 H   0  0  0  0  0  0  0  0  0  0  0  0
   37.4170   75.4330   61.7970 H   0  0  0  0  0  0  0  0  0  0  0  0
   38.3160   76.3280   62.6790 H   0  0  0  0  0  0  0  0  0  0  0  0
   42.8650   70.2140   62.4610 C   0  0  1  0  0  0  0  0  0  0  0  0
   41.7280   70.1300   63.3470 C   0  0  0  0  0  0  0  0  0  0  0  0
   41.8050   69.1050   62.2670 C   0  0  2  0  0  0  0  0  0  0  0  0
   43.8690   69.8670   62.7640 H   0  0  0  0  0  0  0  0  0  0  0  0
   41.8090   69.8410   64.3950 H   0  0  0  0  0  0  0  0  0  0  0  0
   40.9280   70.9130   63.1970 H   0  0  0  0  0  0  0  0  0  0  0  0
   41.1090   69.1740   61.4310 H   0  0  0  0  0  0  0  0  0  0  0  0
   42.3000   67.8500   62.4990 O   0  0  0  0  0  0  0  0  0  0  0  0
   40.9060   66.1610   61.1330 O   0  0  0  0  0  0  0  0  0  0  0  0
   41.1440   66.6350   62.5700 P   0  0  0  0  0  0  0  0  0  0  0  0
   41.7030   65.2630   63.4150 O   0  0  0  0  0  0  0  0  0  0  0  0
   42.2350   64.6970   62.8020 H   0  0  0  0  0  0  0  0  0  0  0  0
   39.6550   67.1600   63.1520 O   0  0  0  0  0  0  0  0  0  0  0  0
   39.2720   66.4770   63.7540 H   0  0  0  0  0  0  0  0  0  0  0  0
  1  6  1  0  0  0  0
  2  3  1  0  0  0  0
  2  1  2  0  0  0  0
  3  4  2  0  0  0  0
  4  5  1  0  0  0  0
  5 20  1  0  0  0  0
  6  5  2  0  0  0  0
  7  2  1  0  0  0  0
  8  3  1  0  0  0  0
  9 14  1  0  0  0  0
  9 15  1  0  0  0  0
 10  9  2  0  0  0  0
 11 12  2  0  0  0  0
 11 10  1  0  0  0  0
 12 13  1  0  0  0  0
 13  1  1  0  0  0  0
 13 14  2  0  0  0  0
 15 19  1  0  0  0  0
 16 10  1  0  0  0  0
 17 11  1  0  0  0  0
 18 15  1  0  0  0  0
 20 23  1  1  0  0  0
 20 21  1  0  0  0  0
 21 24  1  0  0  0  0
 22 26  1  6  0  0  0
 22 20  1  0  0  0  0
 22 27  1  0  0  0  0
 22 21  1  0  0  0  0
 25 21  1  0  0  0  0
 27 29  1  0  0  0  0
 28 29  2  0  0  0  0
 29 32  1  0  0  0  0
 29 30  1  0  0  0  0
 31 30  1  0  0  0  0
 32 33  1  0  0  0  0
M  END
>  <minimizedAffinity>
-5.97416496

$$$$

 OpenBabel03212520523D

 33 35  0  0  1  0  0  0  0  0999 V2000
   42.5170   73.2670   60.6410 C   0  0  0  0  0  0  0  0  0  0  0  0
   43.6050   73.8450   60.0410 C   0  0  0  0  0  0  0  0  0  0  0  0
   43.4800   75.0630   59.3620 C   0  0  0  0  0  0  0  0  0  0  0  0
   42.2850   75.6800   59.2930 N   0  0  0  0  0  0  0  0  0  0  0  0
   41.2330   75.0820   59.8970 C   0  0  0  0  0  0  0  0  0  0  0  0
   41.3230   73.9080   60.5590 N   0  0  0  0  0  0  0  0  0  0  0  0
   44.5420   73.3320   60.1130 H   0  0  0  0  0  0  0  0  0  0  0  0
   44.3750   75.4600   58.9160 H   0  0  0  0  0  0  0  0  0  0  0  0
   43.5110   69.8570   61.5480 C   0  0  0  0  0  0  0  0  0  0  0  0
   42.7540   69.6390   62.6990 C   0  0  0  0  0  0  0  0  0  0  0  0
   41.9150   70.6310   63.1690 C   0  0  0  0  0  0  0  0  0  0  0  0
   41.8820   71.7920   62.4520 N   0  0  0  0  0  0  0  0  0  0  0  0
   42.6190   71.9880   61.3420 C   0  0  0  0  0  0  0  0  0  0  0  0
   43.4340   71.0370   60.8780 N   0  0  0  0  0  0  0  0  0  0  0  0
   44.3330   68.7740   61.1880 N   0  0  0  0  0  0  0  0  0  0  0  0
   42.7860   68.7120   63.2640 H   0  0  0  0  0  0  0  0  0  0  0  0
   41.3060   70.5230   64.0520 H   0  0  0  0  0  0  0  0  0  0  0  0
   44.1320   68.0010   60.5380 H   0  0  0  0  0  0  0  0  0  0  0  0
   45.2930   68.4640   61.4470 H   0  0  0  0  0  0  0  0  0  0  0  0
   39.9290   75.8080   59.7760 C   0  0  1  0  0  0  0  0  0  0  0  0
   39.7980   77.0190   58.9980 C   0  0  0  0  0  0  0  0  0  0  0  0
   39.3810   75.7510   58.3310 C   0  0  2  0  0  0  0  0  0  0  0  0
   39.2100   75.5440   60.5700 H   0  0  0  0  0  0  0  0  0  0  0  0
   39.0680   77.7950   59.2230 H   0  0  0  0  0  0  0  0  0  0  0  0
   40.7620   77.4600   58.6090 H   0  0  0  0  0  0  0  0  0  0  0  0
   40.0110   75.3480   57.5380 H   0  0  0  0  0  0  0  0  0  0  0  0
   38.0680   75.3660   58.2750 O   0  0  0  0  0  0  0  0  0  0  0  0
   36.6260   76.3040   56.3500 O   0  0  0  0  0  0  0  0  0  0  0  0
   37.4780   75.0880   56.7290 P   0  0  0  0  0  0  0  0  0  0  0  0
   38.7240   75.0260   55.5660 O   0  0  0  0  0  0  0  0  0  0  0  0
   38.9600   75.9480   55.2920 H   0  0  0  0  0  0  0  0  0  0  0  0
   36.4670   73.7470   56.6280 O   0  0  0  0  0  0  0  0  0  0  0  0
   36.6540   73.2490   55.7960 H   0  0  0  0  0  0  0  0  0  0  0  0
  1 13  1  0  0  0  0
  2  7  1  0  0  0  0
  2  1  2  0  0  0  0
  3  2  1  0  0  0  0
  4  3  2  0  0  0  0
  4  5  1  0  0  0  0
  5  6  2  0  0  0  0
  6  1  1  0  0  0  0
  8  3  1  0  0  0  0
  9 10  1  0  0  0  0
 10 11  2  0  0  0  0
 10 16  1  0  0  0  0
 11 17  1  0  0  0  0
 12 11  1  0  0  0  0
 13 12  2  0  0  0  0
 14 13  1  0  0  0  0
 14  9  2  0  0  0  0
 15 19  1  0  0  0  0
 15  9  1  0  0  0  0
 18 15  1  0  0  0  0
 20  5  1  0  0  0  0
 20 23  1  1  0  0  0
 21 24  1  0  0  0  0
 21 20  1  0  0  0  0
 22 26  1  6  0  0  0
 22 21  1  0  0  0  0
 22 20  1  0  0  0  0
 25 21  1  0  0  0  0
 27 22  1  0  0  0  0
 28 29  2  0  0  0  0
 29 27  1  0  0  0  0
 30 29  1  0  0  0  0
 31 30  1  0  0  0  0
 32 29  1  0  0  0  0
 33 32  1  0  0  0  0
M  END
>  <minimizedAffinity>
-5.90838146

$$$$

 OpenBabel03212520523D

 33 35  0  0  1  0  0  0  0  0999 V2000
   40.7000   72.3210   59.5590 C   0  0  0  0  0  0  0  0  0  0  0  0
   40.5350   71.4970   58.4760 C   0  0  0  0  0  0  0  0  0  0  0  0
   41.0580   70.1980   58.4840 C   0  0  0  0  0  0  0  0  0  0  0  0
   41.7300   69.7460   59.5610 N   0  0  0  0  0  0  0  0  0  0  0  0
   41.8720   70.5840   60.6110 C   0  0  0  0  0  0  0  0  0  0  0  0
   41.3790   71.8420   60.6330 N   0  0  0  0  0  0  0  0  0  0  0  0
   39.9970   71.8830   57.6350 H   0  0  0  0  0  0  0  0  0  0  0  0
   40.8920   69.6060   57.6020 H   0  0  0  0  0  0  0  0  0  0  0  0
   39.5930   75.6230   60.7030 C   0  0  0  0  0  0  0  0  0  0  0  0
   39.1930   76.2180   59.5060 C   0  0  0  0  0  0  0  0  0  0  0  0
   39.2960   75.5140   58.3210 C   0  0  0  0  0  0  0  0  0  0  0  0
   39.7950   74.2470   58.4050 N   0  0  0  0  0  0  0  0  0  0  0  0
   40.1760   73.6860   59.5690 C   0  0  0  0  0  0  0  0  0  0  0  0
   40.0830   74.3560   60.7210 N   0  0  0  0  0  0  0  0  0  0  0  0
   39.4510   76.4520   61.8310 N   0  0  0  0  0  0  0  0  0  0  0  0
   38.7970   77.2270   59.4480 H   0  0  0  0  0  0  0  0  0  0  0  0
   39.0040   75.9190   57.3660 H   0  0  0  0  0  0  0  0  0  0  0  0
   38.6590   76.5190   62.4860 H   0  0  0  0  0  0  0  0  0  0  0  0
   40.0460   77.1720   62.2920 H   0  0  0  0  0  0  0  0  0  0  0  0
   42.6380   70.0300   61.7730 C   0  0  1  0  0  0  0  0  0  0  0  0
   42.4580   70.5330   63.1150 C   0  0  0  0  0  0  0  0  0  0  0  0
   41.7080   69.2920   62.7640 C   0  0  2  0  0  0  0  0  0  0  0  0
   43.5470   69.4810   61.4720 H   0  0  0  0  0  0  0  0  0  0  0  0
   43.2440   70.5120   63.8700 H   0  0  0  0  0  0  0  0  0  0  0  0
   41.8170   71.4580   63.2130 H   0  0  0  0  0  0  0  0  0  0  0  0
   40.6280   69.3560   62.6290 H   0  0  0  0  0  0  0  0  0  0  0  0
   42.1720   68.0500   63.1040 O   0  0  0  0  0  0  0  0  0  0  0  0
   39.8690   66.8870   63.1810 O   0  0  0  0  0  0  0  0  0  0  0  0
   41.2510   66.7690   62.5310 P   0  0  0  0  0  0  0  0  0  0  0  0
   40.9740   66.8760   60.8510 O   0  0  0  0  0  0  0  0  0  0  0  0
   40.2070   67.4800   60.6850 H   0  0  0  0  0  0  0  0  0  0  0  0
   41.8560   65.2610   62.9660 O   0  0  0  0  0  0  0  0  0  0  0  0
   41.7710   64.6340   62.2080 H   0  0  0  0  0  0  0  0  0  0  0  0
  1 13  1  0  0  0  0
  1  6  1  0  0  0  0
  2  3  1  0  0  0  0
  2  1  2  0  0  0  0
  3  4  2  0  0  0  0
  4  5  1  0  0  0  0
  5  6  2  0  0  0  0
  5 20  1  0  0  0  0
  7  2  1  0  0  0  0
  8  3  1  0  0  0  0
  9 14  1  0  0  0  0
  9 15  1  0  0  0  0
 10  9  2  0  0  0  0
 11 12  2  0  0  0  0
 11 10  1  0  0  0  0
 12 13  1  0  0  0  0
 13 14  2  0  0  0  0
 15 19  1  0  0  0  0
 15 18  1  0  0  0  0
 16 10  1  0  0  0  0
 17 11  1  0  0  0  0
 20 23  1  6  0  0  0
 20 22  1  0  0  0  0
 20 21  1  0  0  0  0
 21 25  1  0  0  0  0
 21 24  1  0  0  0  0
 22 26  1  6  0  0  0
 22 27  1  0  0  0  0
 22 21  1  0  0  0  0
 29 32  1  0  0  0  0
 29 27  1  0  0  0  0
 29 28  2  0  0  0  0
 30 29  1  0  0  0  0
 31 30  1  0  0  0  0
 33 32  1  0  0  0  0
M  END
>  <minimizedAffinity>
-5.65847397

$$$$

 OpenBabel03212520523D

 33 35  0  0  1  0  0  0  0  0999 V2000
   42.0840   69.7330   61.7800 C   0  0  0  0  0  0  0  0  0  0  0  0
   42.0330   70.5810   62.8550 C   0  0  0  0  0  0  0  0  0  0  0  0
   41.8830   71.9610   62.6660 C   0  0  0  0  0  0  0  0  0  0  0  0
   41.7860   72.4670   61.4220 N   0  0  0  0  0  0  0  0  0  0  0  0
   41.8380   71.6010   60.3850 C   0  0  0  0  0  0  0  0  0  0  0  0
   41.9820   70.2660   60.5360 N   0  0  0  0  0  0  0  0  0  0  0  0
   42.1130   70.1510   63.8320 H   0  0  0  0  0  0  0  0  0  0  0  0
   41.8510   72.5680   63.5540 H   0  0  0  0  0  0  0  0  0  0  0  0
   43.5480   66.4630   62.5580 C   0  0  0  0  0  0  0  0  0  0  0  0
   42.4980   65.6010   62.2400 C   0  0  0  0  0  0  0  0  0  0  0  0
   41.3050   66.1150   61.7680 C   0  0  0  0  0  0  0  0  0  0  0  0
   41.2330   67.4710   61.6400 N   0  0  0  0  0  0  0  0  0  0  0  0
   42.2550   68.2910   61.9510 C   0  0  0  0  0  0  0  0  0  0  0  0
   43.4130   67.8070   62.4080 N   0  0  0  0  0  0  0  0  0  0  0  0
   44.6980   65.8130   63.0410 N   0  0  0  0  0  0  0  0  0  0  0  0
   42.5630   64.5220   62.3450 H   0  0  0  0  0  0  0  0  0  0  0  0
   40.4580   65.5000   61.5070 H   0  0  0  0  0  0  0  0  0  0  0  0
   45.5250   65.4940   62.5170 H   0  0  0  0  0  0  0  0  0  0  0  0
   45.0210   65.4940   63.9780 H   0  0  0  0  0  0  0  0  0  0  0  0
   41.7370   72.2230   59.0270 C   0  0  1  0  0  0  0  0  0  0  0  0
   41.5100   71.4330   57.8400 C   0  0  0  0  0  0  0  0  0  0  0  0
   40.3120   72.0840   58.4440 C   0  0  2  0  0  0  0  0  0  0  0  0
   42.1760   73.2350   58.9780 H   0  0  0  0  0  0  0  0  0  0  0  0
   41.8620   71.7250   56.8510 H   0  0  0  0  0  0  0  0  0  0  0  0
   41.5560   70.3120   57.9790 H   0  0  0  0  0  0  0  0  0  0  0  0
   39.5840   71.4600   58.9620 H   0  0  0  0  0  0  0  0  0  0  0  0
   39.8160   73.2660   57.9630 O   0  0  0  0  0  0  0  0  0  0  0  0
   38.6360   73.8950   55.7550 O   0  0  0  0  0  0  0  0  0  0  0  0
   38.4080   73.1280   57.0610 P   0  0  0  0  0  0  0  0  0  0  0  0
   38.0990   71.5160   56.5940 O   0  0  0  0  0  0  0  0  0  0  0  0
   38.6210   71.3080   55.7790 H   0  0  0  0  0  0  0  0  0  0  0  0
   37.0670   73.8290   57.7980 O   0  0  0  0  0  0  0  0  0  0  0  0
   36.2750   73.2550   57.6660 H   0  0  0  0  0  0  0  0  0  0  0  0
  1 13  1  0  0  0  0
  1  2  1  0  0  0  0
  2  7  1  0  0  0  0
  3  2  2  0  0  0  0
  3  8  1  0  0  0  0
  4  3  1  0  0  0  0
  5  6  1  0  0  0  0
  5  4  2  0  0  0  0
  6  1  2  0  0  0  0
  9 15  1  0  0  0  0
 10 16  1  0  0  0  0
 10  9  2  0  0  0  0
 11 10  1  0  0  0  0
 12 11  2  0  0  0  0
 12 13  1  0  0  0  0
 13 14  2  0  0  0  0
 14  9  1  0  0  0  0
 15 19  1  0  0  0  0
 17 11  1  0  0  0  0
 18 15  1  0  0  0  0
 20 23  1  6  0  0  0
 20  5  1  0  0  0  0
 21 25  1  0  0  0  0
 21 22  1  0  0  0  0
 21 20  1  0  0  0  0
 22 26  1  1  0  0  0
 22 20  1  0  0  0  0
 24 21  1  0  0  0  0
 27 22  1  0  0  0  0
 28 29  2  0  0  0  0
 29 32  1  0  0  0  0
 29 27  1  0  0  0  0
 30 29  1  0  0  0  0
 31 30  1  0  0  0  0
 33 32  1  0  0  0  0
M  END
>  <minimizedAffinity>
-5.64798689

$$$$

 OpenBabel03212520523D

 33 35  0  0  1  0  0  0  0  0999 V2000
   40.4150   75.0650   59.8600 C   0  0  0  0  0  0  0  0  0  0  0  0
   40.5770   76.3870   60.1850 C   0  0  0  0  0  0  0  0  0  0  0  0
   39.8400   77.3780   59.5260 C   0  0  0  0  0  0  0  0  0  0  0  0
   38.9600   77.0390   58.5640 N   0  0  0  0  0  0  0  0  0  0  0  0
   38.8240   75.7270   58.2700 C   0  0  0  0  0  0  0  0  0  0  0  0
   39.5210   74.7490   58.8880 N   0  0  0  0  0  0  0  0  0  0  0  0
   41.2830   76.6260   60.9540 H   0  0  0  0  0  0  0  0  0  0  0  0
   40.0170   78.3940   59.8320 H   0  0  0  0  0  0  0  0  0  0  0  0
   41.3380   72.2730   62.0490 C   0  0  0  0  0  0  0  0  0  0  0  0
   42.6780   72.0820   61.7130 C   0  0  0  0  0  0  0  0  0  0  0  0
   43.2690   72.8860   60.7560 C   0  0  0  0  0  0  0  0  0  0  0  0
   42.4770   73.8410   60.1890 N   0  0  0  0  0  0  0  0  0  0  0  0
   41.1840   74.0140   60.5240 C   0  0  0  0  0  0  0  0  0  0  0  0
   40.6010   73.2430   61.4460 N   0  0  0  0  0  0  0  0  0  0  0  0
   40.8580   71.3790   63.0230 N   0  0  0  0  0  0  0  0  0  0  0  0
   43.3020   71.3190   62.1690 H   0  0  0  0  0  0  0  0  0  0  0  0
   44.2990   72.7870   60.4540 H   0  0  0  0  0  0  0  0  0  0  0  0
   40.8120   71.5030   64.0440 H   0  0  0  0  0  0  0  0  0  0  0  0
   40.4460   70.4230   63.0020 H   0  0  0  0  0  0  0  0  0  0  0  0
   37.8410   75.4130   57.1840 C   0  0  1  0  0  0  0  0  0  0  0  0
   37.3450   76.4300   56.2870 C   0  0  0  0  0  0  0  0  0  0  0  0
   38.4700   75.5900   55.7830 C   0  0  2  0  0  0  0  0  0  0  0  0
   37.3000   74.4650   57.3490 H   0  0  0  0  0  0  0  0  0  0  0  0
   36.3620   76.3820   55.8180 H   0  0  0  0  0  0  0  0  0  0  0  0
   37.6290   77.4930   56.5420 H   0  0  0  0  0  0  0  0  0  0  0  0
   39.4580   76.0410   55.6960 H   0  0  0  0  0  0  0  0  0  0  0  0
   38.2540   74.5150   54.9630 O   0  0  0  0  0  0  0  0  0  0  0  0
   39.3550   73.4690   52.8750 O   0  0  0  0  0  0  0  0  0  0  0  0
   38.6740   74.7540   53.3560 P   0  0  0  0  0  0  0  0  0  0  0  0
   37.3060   74.9460   52.3560 O   0  0  0  0  0  0  0  0  0  0  0  0
   36.9520   74.0540   52.1120 H   0  0  0  0  0  0  0  0  0  0  0  0
   39.7870   75.9970   53.1320 O   0  0  0  0  0  0  0  0  0  0  0  0
   39.5470   76.5200   52.3290 H   0  0  0  0  0  0  0  0  0  0  0  0
  1  2  1  0  0  0  0
  1 13  1  0  0  0  0
  2  7  1  0  0  0  0
  3  8  1  0  0  0  0
  3  2  2  0  0  0  0
  4  3  1  0  0  0  0
  5  4  2  0  0  0  0
  5  6  1  0  0  0  0
  6  1  2  0  0  0  0
  9 15  1  0  0  0  0
 10  9  1  0  0  0  0
 10 16  1  0  0  0  0
 11 10  2  0  0  0  0
 12 13  2  0  0  0  0
 12 11  1  0  0  0  0
 13 14  1  0  0  0  0
 14  9  2  0  0  0  0
 15 18  1  0  0  0  0
 17 11  1  0  0  0  0
 19 15  1  0  0  0  0
 20 23  1  1  0  0  0
 20  5  1  0  0  0  0
 21 25  1  0  0  0  0
 21 20  1  0  0  0  0
 22 26  1  6  0  0  0
 22 21  1  0  0  0  0
 22 20  1  0  0  0  0
 24 21  1  0  0  0  0
 27 22  1  0  0  0  0
 28 29  2  0  0  0  0
 29 27  1  0  0  0  0
 30 29  1  0  0  0  0
 31 30  1  0  0  0  0
 32 29  1  0  0  0  0
 33 32  1  0  0  0  0
M  END
>  <minimizedAffinity>
-5.57247877

$$$$

 OpenBabel03212520523D

 33 35  0  0  1  0  0  0  0  0999 V2000
   41.7010   74.3280   59.7100 C   0  0  0  0  0  0  0  0  0  0  0  0
   42.9690   74.5950   59.2640 C   0  0  0  0  0  0  0  0  0  0  0  0
   44.0790   73.9990   59.8740 C   0  0  0  0  0  0  0  0  0  0  0  0
   43.9090   73.1530   60.9090 N   0  0  0  0  0  0  0  0  0  0  0  0
   42.6450   72.9110   61.3220 C   0  0  0  0  0  0  0  0  0  0  0  0
   41.5550   73.4710   60.7530 N   0  0  0  0  0  0  0  0  0  0  0  0
   43.0730   75.2710   58.4400 H   0  0  0  0  0  0  0  0  0  0  0  0
   45.0440   74.2540   59.4730 H   0  0  0  0  0  0  0  0  0  0  0  0
   38.3940   74.8010   58.2000 C   0  0  0  0  0  0  0  0  0  0  0  0
   38.3840   76.1770   57.9660 C   0  0  0  0  0  0  0  0  0  0  0  0
   39.4820   76.9410   58.3150 C   0  0  0  0  0  0  0  0  0  0  0  0
   40.5330   76.2780   58.8790 N   0  0  0  0  0  0  0  0  0  0  0  0
   40.5270   74.9500   59.0990 C   0  0  0  0  0  0  0  0  0  0  0  0
   39.4730   74.2000   58.7670 N   0  0  0  0  0  0  0  0  0  0  0  0
   37.2110   74.1460   57.8140 N   0  0  0  0  0  0  0  0  0  0  0  0
   37.5440   76.6960   57.5170 H   0  0  0  0  0  0  0  0  0  0  0  0
   39.5340   78.0070   58.1600 H   0  0  0  0  0  0  0  0  0  0  0  0
   36.9930   73.6810   56.9210 H   0  0  0  0  0  0  0  0  0  0  0  0
   36.2950   73.9540   58.2730 H   0  0  0  0  0  0  0  0  0  0  0  0
   42.5200   71.9730   62.4820 C   0  0  1  0  0  0  0  0  0  0  0  0
   41.2650   71.3450   62.8250 C   0  0  0  0  0  0  0  0  0  0  0  0
   42.2160   70.5310   62.0150 C   0  0  2  0  0  0  0  0  0  0  0  0
   43.3400   72.0750   63.2140 H   0  0  0  0  0  0  0  0  0  0  0  0
   41.0040   71.0490   63.8410 H   0  0  0  0  0  0  0  0  0  0  0  0
   40.3600   71.7130   62.2580 H   0  0  0  0  0  0  0  0  0  0  0  0
   41.9850   70.3490   60.9650 H   0  0  0  0  0  0  0  0  0  0  0  0
   43.0390   69.6010   62.5920 O   0  0  0  0  0  0  0  0  0  0  0  0
   42.5260   67.5300   61.1380 O   0  0  0  0  0  0  0  0  0  0  0  0
   42.4470   68.0300   62.5830 P   0  0  0  0  0  0  0  0  0  0  0  0
   43.4290   66.9670   63.4870 O   0  0  0  0  0  0  0  0  0  0  0  0
   44.1860   66.6670   62.9250 H   0  0  0  0  0  0  0  0  0  0  0  0
   40.8310   67.9200   63.0390 O   0  0  0  0  0  0  0  0  0  0  0  0
   40.6990   67.1300   63.6160 H   0  0  0  0  0  0  0  0  0  0  0  0
  1  6  1  0  0  0  0
  2  1  2  0  0  0  0
  2  3  1  0  0  0  0
  3  4  2  0  0  0  0
  4  5  1  0  0  0  0
  5 20  1  0  0  0  0
  6  5  2  0  0  0  0
  7  2  1  0  0  0  0
  8  3  1  0  0  0  0
  9 14  1  0  0  0  0
 10  9  2  0  0  0  0
 10 11  1  0  0  0  0
 11 12  2  0  0  0  0
 12 13  1  0  0  0  0
 13  1  1  0  0  0  0
 14 13  2  0  0  0  0
 15  9  1  0  0  0  0
 15 19  1  0  0  0  0
 16 10  1  0  0  0  0
 17 11  1  0  0  0  0
 18 15  1  0  0  0  0
 20 21  1  0  0  0  0
 20 23  1  1  0  0  0
 21 24  1  0  0  0  0
 22 26  1  6  0  0  0
 22 20  1  0  0  0  0
 22 27  1  0  0  0  0
 22 21  1  0  0  0  0
 25 21  1  0  0  0  0
 28 29  2  0  0  0  0
 29 27  1  0  0  0  0
 29 32  1  0  0  0  0
 29 30  1  0  0  0  0
 31 30  1  0  0  0  0
 32 33  1  0  0  0  0
M  END
>  <minimizedAffinity>
-5.51816607

$$$$

 OpenBabel03212520523D

 33 35  0  0  1  0  0  0  0  0999 V2000
   41.9650   69.6040   60.0960 C   0  0  0  0  0  0  0  0  0  0  0  0
   41.4110   68.9820   59.0070 C   0  0  0  0  0  0  0  0  0  0  0  0
   40.9950   69.7280   57.8970 C   0  0  0  0  0  0  0  0  0  0  0  0
   41.1390   71.0670   57.8890 N   0  0  0  0  0  0  0  0  0  0  0  0
   41.6900   71.6470   58.9780 C   0  0  0  0  0  0  0  0  0  0  0  0
   42.1000   70.9540   60.0640 N   0  0  0  0  0  0  0  0  0  0  0  0
   41.3090   67.9170   59.0410 H   0  0  0  0  0  0  0  0  0  0  0  0
   40.5690   69.1750   57.0780 H   0  0  0  0  0  0  0  0  0  0  0  0
   42.4450   66.8890   62.5120 C   0  0  0  0  0  0  0  0  0  0  0  0
   43.2230   67.5130   63.4870 C   0  0  0  0  0  0  0  0  0  0  0  0
   43.5850   68.8380   63.3340 C   0  0  0  0  0  0  0  0  0  0  0  0
   43.1430   69.4650   62.2060 N   0  0  0  0  0  0  0  0  0  0  0  0
   42.3920   68.8490   61.2730 C   0  0  0  0  0  0  0  0  0  0  0  0
   42.0360   67.5690   61.4090 N   0  0  0  0  0  0  0  0  0  0  0  0
   42.1620   65.5380   62.7820 N   0  0  0  0  0  0  0  0  0  0  0  0
   43.5710   67.0070   64.3820 H   0  0  0  0  0  0  0  0  0  0  0  0
   44.1840   69.3750   64.0520 H   0  0  0  0  0  0  0  0  0  0  0  0
   41.3410   65.1340   63.2560 H   0  0  0  0  0  0  0  0  0  0  0  0
   42.6480   64.6350   62.6010 H   0  0  0  0  0  0  0  0  0  0  0  0
   41.8120   73.1380   58.9160 C   0  0  1  0  0  0  0  0  0  0  0  0
   41.0450   73.9290   57.9830 C   0  0  0  0  0  0  0  0  0  0  0  0
   40.5070   73.8320   59.3700 C   0  0  2  0  0  0  0  0  0  0  0  0
   42.7410   73.5170   59.3770 H   0  0  0  0  0  0  0  0  0  0  0  0
   41.3900   74.8830   57.5850 H   0  0  0  0  0  0  0  0  0  0  0  0
   40.4600   73.3480   57.2100 H   0  0  0  0  0  0  0  0  0  0  0  0
   39.6160   73.2300   59.5440 H   0  0  0  0  0  0  0  0  0  0  0  0
   40.7240   74.8180   60.2960 O   0  0  0  0  0  0  0  0  0  0  0  0
   40.1370   77.3000   60.6930 O   0  0  0  0  0  0  0  0  0  0  0  0
   39.4830   75.9380   60.4400 P   0  0  0  0  0  0  0  0  0  0  0  0
   38.6060   76.1170   58.9870 O   0  0  0  0  0  0  0  0  0  0  0  0
   39.0850   76.7490   58.3940 H   0  0  0  0  0  0  0  0  0  0  0  0
   38.4650   75.6470   61.7480 O   0  0  0  0  0  0  0  0  0  0  0  0
   37.5280   75.8160   61.4870 H   0  0  0  0  0  0  0  0  0  0  0  0
  1 13  1  0  0  0  0
  2  7  1  0  0  0  0
  2  1  2  0  0  0  0
  3  2  1  0  0  0  0
  4  3  2  0  0  0  0
  4  5  1  0  0  0  0
  5  6  2  0  0  0  0
  6  1  1  0  0  0  0
  8  3  1  0  0  0  0
  9 15  1  0  0  0  0
  9 10  1  0  0  0  0
 10 16  1  0  0  0  0
 11 10  2  0  0  0  0
 11 17  1  0  0  0  0
 12 11  1  0  0  0  0
 13 14  1  0  0  0  0
 13 12  2  0  0  0  0
 14  9  2  0  0  0  0
 15 18  1  0  0  0  0
 19 15  1  0  0  0  0
 20  5  1  0  0  0  0
 20 22  1  0  0  0  0
 20 23  1  1  0  0  0
 21 20  1  0  0  0  0
 21 22  1  0  0  0  0
 22 26  1  1  0  0  0
 22 27  1  0  0  0  0
 24 21  1  0  0  0  0
 25 21  1  0  0  0  0
 27 29  1  0  0  0  0
 29 28  2  0  0  0  0
 29 32  1  0  0  0  0
 30 29  1  0  0  0  0
 31 30  1  0  0  0  0
 33 32  1  0  0  0  0
M  END
>  <minimizedAffinity>
-5.510324

$$$$

 OpenBabel03212520523D

 33 35  0  0  1  0  0  0  0  0999 V2000
   40.3340   73.3050   60.6140 C   0  0  0  0  0  0  0  0  0  0  0  0
   39.1840   73.6730   61.2640 C   0  0  0  0  0  0  0  0  0  0  0  0
   38.3650   74.6830   60.7440 C   0  0  0  0  0  0  0  0  0  0  0  0
   38.7010   75.3030   59.5970 N   0  0  0  0  0  0  0  0  0  0  0  0
   39.8400   74.9140   58.9820 C   0  0  0  0  0  0  0  0  0  0  0  0
   40.6500   73.9440   59.4590 N   0  0  0  0  0  0  0  0  0  0  0  0
   38.9430   73.1630   62.1740 H   0  0  0  0  0  0  0  0  0  0  0  0
   37.4790   74.9210   61.3060 H   0  0  0  0  0  0  0  0  0  0  0  0
   42.9310   70.7310   60.8690 C   0  0  0  0  0  0  0  0  0  0  0  0
   42.8100   70.3380   62.2020 C   0  0  0  0  0  0  0  0  0  0  0  0
   41.8620   70.9350   63.0110 C   0  0  0  0  0  0  0  0  0  0  0  0
   41.0840   71.8960   62.4340 N   0  0  0  0  0  0  0  0  0  0  0  0
   41.2130   72.2650   61.1450 C   0  0  0  0  0  0  0  0  0  0  0  0
   42.1260   71.6960   60.3520 N   0  0  0  0  0  0  0  0  0  0  0  0
   43.9430   70.0560   60.1620 N   0  0  0  0  0  0  0  0  0  0  0  0
   43.4330   69.5720   62.6540 H   0  0  0  0  0  0  0  0  0  0  0  0
   41.7200   70.6750   64.0480 H   0  0  0  0  0  0  0  0  0  0  0  0
   43.8690   69.2070   59.5840 H   0  0  0  0  0  0  0  0  0  0  0  0
   44.9650   70.2020   60.0260 H   0  0  0  0  0  0  0  0  0  0  0  0
   40.1670   75.6470   57.7180 C   0  0  1  0  0  0  0  0  0  0  0  0
   40.9560   75.0450   56.6680 C   0  0  0  0  0  0  0  0  0  0  0  0
   39.4750   75.0030   56.4940 C   0  0  2  0  0  0  0  0  0  0  0  0
   40.0550   76.7420   57.8080 H   0  0  0  0  0  0  0  0  0  0  0  0
   41.5800   75.6220   55.9860 H   0  0  0  0  0  0  0  0  0  0  0  0
   41.4290   74.0500   56.9170 H   0  0  0  0  0  0  0  0  0  0  0  0
   38.9630   74.0480   56.6130 H   0  0  0  0  0  0  0  0  0  0  0  0
   38.8160   75.9150   55.7140 O   0  0  0  0  0  0  0  0  0  0  0  0
   36.6120   77.2500   55.8670 O   0  0  0  0  0  0  0  0  0  0  0  0
   37.1420   75.8160   55.7720 P   0  0  0  0  0  0  0  0  0  0  0  0
   36.4850   75.1830   54.3300 O   0  0  0  0  0  0  0  0  0  0  0  0
   36.4020   75.9090   53.6630 H   0  0  0  0  0  0  0  0  0  0  0  0
   36.5640   75.0030   57.1270 O   0  0  0  0  0  0  0  0  0  0  0  0
   35.8040   74.4260   56.8730 H   0  0  0  0  0  0  0  0  0  0  0  0
  1 13  1  0  0  0  0
  1  2  1  0  0  0  0
  2  7  1  0  0  0  0
  3  2  2  0  0  0  0
  3  8  1  0  0  0  0
  4  3  1  0  0  0  0
  5  6  1  0  0  0  0
  5  4  2  0  0  0  0
  6  1  2  0  0  0  0
  9 10  1  0  0  0  0
 10 16  1  0  0  0  0
 10 11  2  0  0  0  0
 11 17  1  0  0  0  0
 12 11  1  0  0  0  0
 13 12  2  0  0  0  0
 14  9  2  0  0  0  0
 14 13  1  0  0  0  0
 15  9  1  0  0  0  0
 18 15  1  0  0  0  0
 19 15  1  0  0  0  0
 20 23  1  1  0  0  0
 20  5  1  0  0  0  0
 21 25  1  0  0  0  0
 21 20  1  0  0  0  0
 22 26  1  1  0  0  0
 22 21  1  0  0  0  0
 22 20  1  0  0  0  0
 24 21  1  0  0  0  0
 27 29  1  0  0  0  0
 27 22  1  0  0  0  0
 29 28  2  0  0  0  0
 29 32  1  0  0  0  0
 30 29  1  0  0  0  0
 31 30  1  0  0  0  0
 33 32  1  0  0  0  0
M  END
>  <minimizedAffinity>
-5.495296

$$$$

 OpenBabel03212520523D

 33 35  0  0  1  0  0  0  0  0999 V2000
   40.4390   75.0360   59.9310 C   0  0  0  0  0  0  0  0  0  0  0  0
   40.5680   76.3500   60.2990 C   0  0  0  0  0  0  0  0  0  0  0  0
   39.8340   77.3480   59.6450 C   0  0  0  0  0  0  0  0  0  0  0  0
   38.9920   77.0230   58.6460 N   0  0  0  0  0  0  0  0  0  0  0  0
   38.8880   75.7180   58.3100 C   0  0  0  0  0  0  0  0  0  0  0  0
   39.5820   74.7330   58.9220 N   0  0  0  0  0  0  0  0  0  0  0  0
   41.2450   76.5790   61.0960 H   0  0  0  0  0  0  0  0  0  0  0  0
   39.9850   78.3580   59.9850 H   0  0  0  0  0  0  0  0  0  0  0  0
   41.3540   72.2300   62.1050 C   0  0  0  0  0  0  0  0  0  0  0  0
   42.6930   72.0350   61.7670 C   0  0  0  0  0  0  0  0  0  0  0  0
   43.2850   72.8420   60.8130 C   0  0  0  0  0  0  0  0  0  0  0  0
   42.4970   73.8030   60.2520 N   0  0  0  0  0  0  0  0  0  0  0  0
   41.2050   73.9790   60.5890 C   0  0  0  0  0  0  0  0  0  0  0  0
   40.6200   73.2060   61.5080 N   0  0  0  0  0  0  0  0  0  0  0  0
   40.8710   71.3330   63.0750 N   0  0  0  0  0  0  0  0  0  0  0  0
   43.3140   71.2680   62.2180 H   0  0  0  0  0  0  0  0  0  0  0  0
   44.3150   72.7410   60.5100 H   0  0  0  0  0  0  0  0  0  0  0  0
   40.8270   71.4520   64.0970 H   0  0  0  0  0  0  0  0  0  0  0  0
   40.4560   70.3780   63.0500 H   0  0  0  0  0  0  0  0  0  0  0  0
   37.9450   75.4190   57.1850 C   0  0  1  0  0  0  0  0  0  0  0  0
   37.7210   76.3560   56.1090 C   0  0  0  0  0  0  0  0  0  0  0  0
   38.6980   75.2600   55.8440 C   0  0  2  0  0  0  0  0  0  0  0  0
   37.2210   74.6210   57.4250 H   0  0  0  0  0  0  0  0  0  0  0  0
   36.7850   76.4130   55.5540 H   0  0  0  0  0  0  0  0  0  0  0  0
   38.1850   77.3770   56.2400 H   0  0  0  0  0  0  0  0  0  0  0  0
   39.7580   75.5060   55.7950 H   0  0  0  0  0  0  0  0  0  0  0  0
   38.3390   74.1260   55.1650 O   0  0  0  0  0  0  0  0  0  0  0  0
   40.0070   72.5050   54.0420 O   0  0  0  0  0  0  0  0  0  0  0  0
   39.3580   72.8120   55.3960 P   0  0  0  0  0  0  0  0  0  0  0  0
   40.6510   73.1780   56.4470 O   0  0  0  0  0  0  0  0  0  0  0  0
   41.3710   73.6240   55.9350 H   0  0  0  0  0  0  0  0  0  0  0  0
   38.5520   71.4120   55.8670 O   0  0  0  0  0  0  0  0  0  0  0  0
   39.0770   70.9400   56.5570 H   0  0  0  0  0  0  0  0  0  0  0  0
  1  2  1  0  0  0  0
  1 13  1  0  0  0  0
  2  7  1  0  0  0  0
  3  8  1  0  0  0  0
  3  2  2  0  0  0  0
  4  3  1  0  0  0  0
  5  4  2  0  0  0  0
  5  6  1  0  0  0  0
  6  1  2  0  0  0  0
  9 15  1  0  0  0  0
 10  9  1  0  0  0  0
 10 16  1  0  0  0  0
 11 10  2  0  0  0  0
 12 13  2  0  0  0  0
 12 11  1  0  0  0  0
 13 14  1  0  0  0  0
 14  9  2  0  0  0  0
 15 18  1  0  0  0  0
 17 11  1  0  0  0  0
 19 15  1  0  0  0  0
 20 23  1  1  0  0  0
 20  5  1  0  0  0  0
 21 25  1  0  0  0  0
 21 20  1  0  0  0  0
 22 26  1  6  0  0  0
 22 21  1  0  0  0  0
 22 20  1  0  0  0  0
 24 21  1  0  0  0  0
 27 29  1  0  0  0  0
 27 22  1  0  0  0  0
 28 29  2  0  0  0  0
 29 32  1  0  0  0  0
 29 30  1  0  0  0  0
 31 30  1  0  0  0  0
 32 33  1  0  0  0  0
M  END
>  <minimizedAffinity>
-5.48183918

$$$$
