
 OpenBabel03212520573D

 40 43  0  0  1  0  0  0  0  0999 V2000
   39.7450   77.2640   59.2330 C   0  0  0  0  0  0  0  0  0  0  0  0
   40.4140   76.1140   58.9880 C   0  0  0  0  0  0  0  0  0  0  0  0
   39.8560   75.3830   57.9260 C   0  0  0  0  0  0  0  0  0  0  0  0
   38.7750   75.7790   57.2250 N   0  0  0  0  0  0  0  0  0  0  0  0
   38.1770   76.9600   57.5580 C   0  0  0  0  0  0  0  0  0  0  0  0
   38.6700   77.7080   58.5730 N   0  0  0  0  0  0  0  0  0  0  0  0
   41.2680   75.7520   59.5050 H   0  0  0  0  0  0  0  0  0  0  0  0
   40.2780   74.4300   57.6010 H   0  0  0  0  0  0  0  0  0  0  0  0
   40.9770   80.2440   61.7330 C   0  0  0  0  0  0  0  0  0  0  0  0
   40.9620   79.0200   62.3510 C   0  0  0  0  0  0  0  0  0  0  0  0
   40.5750   77.9480   61.6350 C   0  0  0  0  0  0  0  0  0  0  0  0
   40.2060   78.1260   60.3040 C   0  0  0  0  0  0  0  0  0  0  0  0
   40.4190   79.9290   60.0320 S   0  0  0  0  0  0  0  0  0  0  0  0
   41.2530   78.8840   63.3960 H   0  0  0  0  0  0  0  0  0  0  0  0
   40.4940   76.9110   61.9300 H   0  0  0  0  0  0  0  0  0  0  0  0
   43.0730   83.0570   62.8120 C   0  0  0  0  0  0  0  0  0  0  0  0
   42.1800   83.8280   63.6020 C   0  0  0  0  0  0  0  0  0  0  0  0
   40.8680   83.3840   63.7580 C   0  0  0  0  0  0  0  0  0  0  0  0
   40.4930   82.2290   63.1470 N   0  0  0  0  0  0  0  0  0  0  0  0
   41.3810   81.5140   62.3950 C   0  0  0  0  0  0  0  0  0  0  0  0
   42.6390   81.9300   62.2400 N   0  0  0  0  0  0  0  0  0  0  0  0
   44.0570   83.4540   62.7370 H   0  0  0  0  0  0  0  0  0  0  0  0
   42.4450   84.7570   64.1050 H   0  0  0  0  0  0  0  0  0  0  0  0
   40.1240   83.9080   64.3410 H   0  0  0  0  0  0  0  0  0  0  0  0
   37.0230   77.3690   56.7820 C   0  0  0  0  0  0  0  0  0  0  0  0
   35.9020   77.0760   57.2290 O   0  0  0  0  0  0  0  0  0  0  0  0
   37.1560   78.1140   55.4740 C   0  0  1  0  0  0  0  0  0  0  0  0
   37.4310   79.5860   55.6640 C   0  0  0  0  0  0  0  0  0  0  0  0
   38.4260   78.6880   55.0910 C   0  0  2  0  0  0  0  0  0  0  0  0
   36.2740   77.9590   54.8180 H   0  0  0  0  0  0  0  0  0  0  0  0
   37.6100   79.9940   56.6830 H   0  0  0  0  0  0  0  0  0  0  0  0
   36.8040   80.2640   55.0630 H   0  0  0  0  0  0  0  0  0  0  0  0
   39.3060   78.4060   55.7360 H   0  0  0  0  0  0  0  0  0  0  0  0
   38.7890   78.7220   53.7500 O   0  0  0  0  0  0  0  0  0  0  0  0
   38.0540   79.1950   51.3140 O   0  0  0  0  0  0  0  0  0  0  0  0
   37.5750   79.2940   52.7550 P   0  0  0  0  0  0  0  0  0  0  0  0
   36.0990   78.4930   52.9620 O   0  0  0  0  0  0  0  0  0  0  0  0
   36.3350   77.5160   53.0570 H   0  0  0  0  0  0  0  0  0  0  0  0
   37.3000   80.9530   53.0470 O   0  0  0  0  0  0  0  0  0  0  0  0
   36.6230   81.2870   52.4080 H   0  0  0  0  0  0  0  0  0  0  0  0
  1 12  1  0  0  0  0
  2  1  1  0  0  0  0
  2  7  1  0  0  0  0
  3  2  2  0  0  0  0
  4  5  2  0  0  0  0
  4  3  1  0  0  0  0
  5  6  1  0  0  0  0
  6  1  2  0  0  0  0
  8  3  1  0  0  0  0
  9 10  2  0  0  0  0
  9 20  1  0  0  0  0
 10 14  1  0  0  0  0
 11 15  1  0  0  0  0
 11 10  1  0  0  0  0
 12 11  2  0  0  0  0
 13 12  1  0  0  0  0
 13  9  1  0  0  0  0
 16 17  1  0  0  0  0
 17 18  2  0  0  0  0
 17 23  1  0  0  0  0
 18 24  1  0  0  0  0
 19 18  1  0  0  0  0
 20 19  2  0  0  0  0
 21 20  1  0  0  0  0
 21 16  2  0  0  0  0
 22 16  1  0  0  0  0
 25 26  2  0  0  0  0
 25  5  1  0  0  0  0
 27 30  1  6  0  0  0
 27 28  1  0  0  0  0
 27 25  1  0  0  0  0
 28 31  1  0  0  0  0
 29 27  1  0  0  0  0
 29 28  1  0  0  0  0
 29 33  1  1  0  0  0
 32 28  1  0  0  0  0
 34 29  1  0  0  0  0
 35 36  2  0  0  0  0
 36 37  1  0  0  0  0
 36 39  1  0  0  0  0
 36 34  1  0  0  0  0
 37 38  1  0  0  0  0
 40 39  1  0  0  0  0
M  END
>  <minimizedAffinity>
-6.66686249

>  <minimizedRMSD>
0.313553005

$$$$
