
 OpenBabel03212520533D

 23 24  0  0  0  0  0  0  0  0999 V2000
   42.6330   71.5910   61.5610 C   0  0  0  0  0  0  0  0  0  0  0  0
   41.8560   71.5480   62.7390 C   0  0  0  0  0  0  0  0  0  0  0  0
   41.7180   70.3700   63.3950 C   0  0  0  0  0  0  0  0  0  0  0  0
   42.3620   69.2250   62.8670 C   0  0  0  0  0  0  0  0  0  0  0  0
   43.2120   69.8730   61.3500 S   0  0  0  0  0  0  0  0  0  0  0  0
   41.3740   72.4370   63.1210 H   0  0  0  0  0  0  0  0  0  0  0  0
   41.1600   70.1840   64.2980 H   0  0  0  0  0  0  0  0  0  0  0  0
   41.9260   74.6330   59.6880 C   0  0  0  0  0  0  0  0  0  0  0  0
   43.2160   75.0820   59.2880 C   0  0  0  0  0  0  0  0  0  0  0  0
   44.3450   74.3110   59.6800 C   0  0  0  0  0  0  0  0  0  0  0  0
   44.1100   73.1940   60.4110 N   0  0  0  0  0  0  0  0  0  0  0  0
   42.8510   72.8110   60.7680 C   0  0  0  0  0  0  0  0  0  0  0  0
   41.7750   73.5050   60.4210 N   0  0  0  0  0  0  0  0  0  0  0  0
   41.0860   75.2400   59.3760 H   0  0  0  0  0  0  0  0  0  0  0  0
   43.3430   75.9830   58.7040 H   0  0  0  0  0  0  0  0  0  0  0  0
   45.3420   74.6180   59.3960 H   0  0  0  0  0  0  0  0  0  0  0  0
   42.4300   67.9590   63.2510 O   0  0  0  0  0  0  0  0  0  0  0  0
   39.9680   67.1960   63.4150 O   0  0  0  0  0  0  0  0  0  0  0  0
   41.2670   66.8570   62.6910 P   0  0  0  0  0  0  0  0  0  0  0  0
   40.9700   67.0080   61.0210 O   0  0  0  0  0  0  0  0  0  0  0  0
   41.4650   66.3050   60.5330 H   0  0  0  0  0  0  0  0  0  0  0  0
   41.6280   65.2620   63.1080 O   0  0  0  0  0  0  0  0  0  0  0  0
   42.1770   64.8170   62.4160 H   0  0  0  0  0  0  0  0  0  0  0  0
  1  2  2  0  0  0  0
  2  6  1  0  0  0  0
  2  3  1  0  0  0  0
  3  7  1  0  0  0  0
  4 17  1  0  0  0  0
  4  3  2  0  0  0  0
  5  1  1  0  0  0  0
  5  4  1  0  0  0  0
  8 13  1  0  0  0  0
  9 10  1  0  0  0  0
  9  8  2  0  0  0  0
 10 11  2  0  0  0  0
 11 12  1  0  0  0  0
 12  1  1  0  0  0  0
 13 12  2  0  0  0  0
 14  8  1  0  0  0  0
 15  9  1  0  0  0  0
 16 10  1  0  0  0  0
 19 22  1  0  0  0  0
 19 17  1  0  0  0  0
 19 18  2  0  0  0  0
 20 19  1  0  0  0  0
 21 20  1  0  0  0  0
 23 22  1  0  0  0  0
M  END
>  <minimizedAffinity>
-4.92844772

$$$$

 OpenBabel03212520533D

 23 24  0  0  0  0  0  0  0  0999 V2000
   40.3680   73.3710   60.6130 C   0  0  0  0  0  0  0  0  0  0  0  0
   39.4590   74.1910   61.3150 C   0  0  0  0  0  0  0  0  0  0  0  0
   38.7500   75.1240   60.6330 C   0  0  0  0  0  0  0  0  0  0  0  0
   38.9530   75.2360   59.2360 C   0  0  0  0  0  0  0  0  0  0  0  0
   40.2270   73.9350   58.8820 S   0  0  0  0  0  0  0  0  0  0  0  0
   39.3230   74.0860   62.3820 H   0  0  0  0  0  0  0  0  0  0  0  0
   38.0270   75.8170   61.0290 H   0  0  0  0  0  0  0  0  0  0  0  0
   42.9370   70.8280   61.0550 C   0  0  0  0  0  0  0  0  0  0  0  0
   42.7360   70.3830   62.3910 C   0  0  0  0  0  0  0  0  0  0  0  0
   41.6890   70.9810   63.1460 C   0  0  0  0  0  0  0  0  0  0  0  0
   40.9510   71.9400   62.5320 N   0  0  0  0  0  0  0  0  0  0  0  0
   41.1890   72.3280   61.2480 C   0  0  0  0  0  0  0  0  0  0  0  0
   42.1570   71.7930   60.5140 N   0  0  0  0  0  0  0  0  0  0  0  0
   43.7410   70.3550   60.5050 H   0  0  0  0  0  0  0  0  0  0  0  0
   43.3560   69.6140   62.8280 H   0  0  0  0  0  0  0  0  0  0  0  0
   41.5030   70.6710   64.1650 H   0  0  0  0  0  0  0  0  0  0  0  0
   38.4360   76.0180   58.2990 O   0  0  0  0  0  0  0  0  0  0  0  0
   36.6890   76.3090   56.4190 O   0  0  0  0  0  0  0  0  0  0  0  0
   37.7270   75.3140   56.9270 P   0  0  0  0  0  0  0  0  0  0  0  0
   38.8450   75.0610   55.6670 O   0  0  0  0  0  0  0  0  0  0  0  0
   39.1290   74.1150   55.6620 H   0  0  0  0  0  0  0  0  0  0  0  0
   36.8780   73.9000   57.2860 O   0  0  0  0  0  0  0  0  0  0  0  0
   37.4560   73.1000   57.2240 H   0  0  0  0  0  0  0  0  0  0  0  0
  1 12  1  0  0  0  0
  1  2  2  0  0  0  0
  2  6  1  0  0  0  0
  3  7  1  0  0  0  0
  3  2  1  0  0  0  0
  4  3  2  0  0  0  0
  5  4  1  0  0  0  0
  5  1  1  0  0  0  0
  8  9  1  0  0  0  0
  9 15  1  0  0  0  0
  9 10  2  0  0  0  0
 10 16  1  0  0  0  0
 11 10  1  0  0  0  0
 12 11  2  0  0  0  0
 13  8  2  0  0  0  0
 13 12  1  0  0  0  0
 14  8  1  0  0  0  0
 17  4  1  0  0  0  0
 18 19  2  0  0  0  0
 19 22  1  0  0  0  0
 19 17  1  0  0  0  0
 20 19  1  0  0  0  0
 21 20  1  0  0  0  0
 23 22  1  0  0  0  0
M  END
>  <minimizedAffinity>
-4.90229845

$$$$

 OpenBabel03212520533D

 23 24  0  0  0  0  0  0  0  0999 V2000
   41.9950   70.7650   61.7370 C   0  0  0  0  0  0  0  0  0  0  0  0
   41.9150   71.8070   62.6850 C   0  0  0  0  0  0  0  0  0  0  0  0
   41.4940   73.0320   62.2840 C   0  0  0  0  0  0  0  0  0  0  0  0
   41.1490   73.2150   60.9230 C   0  0  0  0  0  0  0  0  0  0  0  0
   41.4450   71.5410   60.1780 S   0  0  0  0  0  0  0  0  0  0  0  0
   42.1840   71.6420   63.7190 H   0  0  0  0  0  0  0  0  0  0  0  0
   41.3830   73.9170   62.8890 H   0  0  0  0  0  0  0  0  0  0  0  0
   42.1660   67.1270   61.7280 C   0  0  0  0  0  0  0  0  0  0  0  0
   43.2310   66.8440   62.6290 C   0  0  0  0  0  0  0  0  0  0  0  0
   43.8960   67.9400   63.2460 C   0  0  0  0  0  0  0  0  0  0  0  0
   43.4640   69.1860   62.9290 N   0  0  0  0  0  0  0  0  0  0  0  0
   42.4380   69.3990   62.0560 C   0  0  0  0  0  0  0  0  0  0  0  0
   41.7950   68.4020   61.4620 N   0  0  0  0  0  0  0  0  0  0  0  0
   41.6790   66.2740   61.2730 H   0  0  0  0  0  0  0  0  0  0  0  0
   43.5310   65.8290   62.8430 H   0  0  0  0  0  0  0  0  0  0  0  0
   44.7090   67.7670   63.9360 H   0  0  0  0  0  0  0  0  0  0  0  0
   40.7130   74.2520   60.2240 O   0  0  0  0  0  0  0  0  0  0  0  0
   38.3620   73.8550   61.2190 O   0  0  0  0  0  0  0  0  0  0  0  0
   39.2300   74.9660   60.6360 P   0  0  0  0  0  0  0  0  0  0  0  0
   39.3900   76.1650   61.8360 O   0  0  0  0  0  0  0  0  0  0  0  0
   39.3840   77.0580   61.4140 H   0  0  0  0  0  0  0  0  0  0  0  0
   38.3930   75.5520   59.2930 O   0  0  0  0  0  0  0  0  0  0  0  0
   38.6300   76.4920   59.0940 H   0  0  0  0  0  0  0  0  0  0  0  0
  1 12  1  0  0  0  0
  1  2  2  0  0  0  0
  2  6  1  0  0  0  0
  3  2  1  0  0  0  0
  3  7  1  0  0  0  0
  4  3  2  0  0  0  0
  5  4  1  0  0  0  0
  5  1  1  0  0  0  0
  8  9  1  0  0  0  0
  9 15  1  0  0  0  0
  9 10  2  0  0  0  0
 10 16  1  0  0  0  0
 11 10  1  0  0  0  0
 12 11  2  0  0  0  0
 13  8  2  0  0  0  0
 13 12  1  0  0  0  0
 14  8  1  0  0  0  0
 17 19  1  0  0  0  0
 17  4  1  0  0  0  0
 19 18  2  0  0  0  0
 19 20  1  0  0  0  0
 21 20  1  0  0  0  0
 22 19  1  0  0  0  0
 23 22  1  0  0  0  0
M  END
>  <minimizedAffinity>
-4.77175665

$$$$

 OpenBabel03212520533D

 23 24  0  0  0  0  0  0  0  0999 V2000
   38.8410   75.1160   59.0520 C   0  0  0  0  0  0  0  0  0  0  0  0
   39.3180   75.8170   60.1800 C   0  0  0  0  0  0  0  0  0  0  0  0
   39.8280   75.1180   61.2240 C   0  0  0  0  0  0  0  0  0  0  0  0
   39.8620   73.7050   61.1370 C   0  0  0  0  0  0  0  0  0  0  0  0
   39.1230   73.3610   59.4710 S   0  0  0  0  0  0  0  0  0  0  0  0
   39.2800   76.8970   60.2220 H   0  0  0  0  0  0  0  0  0  0  0  0
   40.2260   75.5130   62.1440 H   0  0  0  0  0  0  0  0  0  0  0  0
   38.1860   77.6350   56.5050 C   0  0  0  0  0  0  0  0  0  0  0  0
   37.2170   77.0140   55.6680 C   0  0  0  0  0  0  0  0  0  0  0  0
   36.7890   75.6990   55.9990 C   0  0  0  0  0  0  0  0  0  0  0  0
   37.3400   75.1260   57.0980 N   0  0  0  0  0  0  0  0  0  0  0  0
   38.2660   75.7670   57.8640 C   0  0  0  0  0  0  0  0  0  0  0  0
   38.6890   76.9940   57.5860 N   0  0  0  0  0  0  0  0  0  0  0  0
   38.4920   78.6360   56.2280 H   0  0  0  0  0  0  0  0  0  0  0  0
   36.8130   77.5210   54.8030 H   0  0  0  0  0  0  0  0  0  0  0  0
   36.0550   75.1930   55.3880 H   0  0  0  0  0  0  0  0  0  0  0  0
   40.2850   72.7520   61.9530 O   0  0  0  0  0  0  0  0  0  0  0  0
   42.7400   73.1210   61.2400 O   0  0  0  0  0  0  0  0  0  0  0  0
   41.7830   72.0100   61.6590 P   0  0  0  0  0  0  0  0  0  0  0  0
   42.4370   71.2780   63.0510 O   0  0  0  0  0  0  0  0  0  0  0  0
   42.2660   70.3050   63.0240 H   0  0  0  0  0  0  0  0  0  0  0  0
   41.7310   70.9290   60.3640 O   0  0  0  0  0  0  0  0  0  0  0  0
   41.4960   70.0150   60.6590 H   0  0  0  0  0  0  0  0  0  0  0  0
  1  5  1  0  0  0  0
  1  2  2  0  0  0  0
  2  6  1  0  0  0  0
  2  3  1  0  0  0  0
  3  7  1  0  0  0  0
  4  3  2  0  0  0  0
  4 17  1  0  0  0  0
  5  4  1  0  0  0  0
  8 13  1  0  0  0  0
  9 10  1  0  0  0  0
  9  8  2  0  0  0  0
 10 11  2  0  0  0  0
 11 12  1  0  0  0  0
 12  1  1  0  0  0  0
 13 12  2  0  0  0  0
 14  8  1  0  0  0  0
 15  9  1  0  0  0  0
 16 10  1  0  0  0  0
 18 19  2  0  0  0  0
 19 17  1  0  0  0  0
 19 20  1  0  0  0  0
 21 20  1  0  0  0  0
 22 23  1  0  0  0  0
 22 19  1  0  0  0  0
M  END
>  <minimizedAffinity>
-4.71765232

$$$$

 OpenBabel03212520533D

 23 24  0  0  0  0  0  0  0  0999 V2000
   41.9070   70.8560   61.4070 C   0  0  0  0  0  0  0  0  0  0  0  0
   41.6230   71.0880   60.0440 C   0  0  0  0  0  0  0  0  0  0  0  0
   41.2320   72.3260   59.6530 C   0  0  0  0  0  0  0  0  0  0  0  0
   41.1250   73.3400   60.6350 C   0  0  0  0  0  0  0  0  0  0  0  0
   41.6100   72.4720   62.2020 S   0  0  0  0  0  0  0  0  0  0  0  0
   41.7120   70.2960   59.3140 H   0  0  0  0  0  0  0  0  0  0  0  0
   40.9840   72.6500   58.6560 H   0  0  0  0  0  0  0  0  0  0  0  0
   43.6330   68.4020   63.4710 C   0  0  0  0  0  0  0  0  0  0  0  0
   43.1630   67.1570   62.9680 C   0  0  0  0  0  0  0  0  0  0  0  0
   42.2300   67.1770   61.8940 C   0  0  0  0  0  0  0  0  0  0  0  0
   41.8530   68.3920   61.4230 N   0  0  0  0  0  0  0  0  0  0  0  0
   42.3360   69.5550   61.9450 C   0  0  0  0  0  0  0  0  0  0  0  0
   43.2070   69.5740   62.9460 N   0  0  0  0  0  0  0  0  0  0  0  0
   44.3420   68.3550   64.2880 H   0  0  0  0  0  0  0  0  0  0  0  0
   43.4990   66.2180   63.3850 H   0  0  0  0  0  0  0  0  0  0  0  0
   41.8490   66.2530   61.4840 H   0  0  0  0  0  0  0  0  0  0  0  0
   40.7830   74.6190   60.5920 O   0  0  0  0  0  0  0  0  0  0  0  0
   38.4360   73.7910   61.2800 O   0  0  0  0  0  0  0  0  0  0  0  0
   39.1590   75.0530   60.8200 P   0  0  0  0  0  0  0  0  0  0  0  0
   38.9570   76.2240   62.0410 O   0  0  0  0  0  0  0  0  0  0  0  0
   38.8460   77.1150   61.6280 H   0  0  0  0  0  0  0  0  0  0  0  0
   38.4030   75.5250   59.3870 O   0  0  0  0  0  0  0  0  0  0  0  0
   38.4930   76.4970   59.2280 H   0  0  0  0  0  0  0  0  0  0  0  0
  1 12  1  0  0  0  0
  1  5  1  0  0  0  0
  2  1  2  0  0  0  0
  3  2  1  0  0  0  0
  3  4  2  0  0  0  0
  4  5  1  0  0  0  0
  6  2  1  0  0  0  0
  7  3  1  0  0  0  0
  8 14  1  0  0  0  0
  9 15  1  0  0  0  0
  9  8  1  0  0  0  0
 10  9  2  0  0  0  0
 11 10  1  0  0  0  0
 11 12  2  0  0  0  0
 12 13  1  0  0  0  0
 13  8  2  0  0  0  0
 16 10  1  0  0  0  0
 17  4  1  0  0  0  0
 17 19  1  0  0  0  0
 19 18  2  0  0  0  0
 19 20  1  0  0  0  0
 21 20  1  0  0  0  0
 22 19  1  0  0  0  0
 23 22  1  0  0  0  0
M  END
>  <minimizedAffinity>
-4.69714022

$$$$

 OpenBabel03212520533D

 23 24  0  0  0  0  0  0  0  0999 V2000
   41.5480   71.6460   61.5150 C   0  0  0  0  0  0  0  0  0  0  0  0
   41.6990   71.3220   62.8800 C   0  0  0  0  0  0  0  0  0  0  0  0
   42.1400   70.0860   63.2190 C   0  0  0  0  0  0  0  0  0  0  0  0
   42.4320   69.1660   62.1820 C   0  0  0  0  0  0  0  0  0  0  0  0
   42.0540   70.1260   60.6400 S   0  0  0  0  0  0  0  0  0  0  0  0
   41.4690   72.0420   63.6530 H   0  0  0  0  0  0  0  0  0  0  0  0
   42.3030   69.6970   64.2110 H   0  0  0  0  0  0  0  0  0  0  0  0
   39.3990   74.5430   61.0120 C   0  0  0  0  0  0  0  0  0  0  0  0
   40.1640   75.3770   60.1480 C   0  0  0  0  0  0  0  0  0  0  0  0
   41.4470   74.9180   59.7380 C   0  0  0  0  0  0  0  0  0  0  0  0
   41.8520   73.7110   60.2030 N   0  0  0  0  0  0  0  0  0  0  0  0
   41.0770   72.9540   61.0310 C   0  0  0  0  0  0  0  0  0  0  0  0
   39.8760   73.3490   61.4340 N   0  0  0  0  0  0  0  0  0  0  0  0
   38.4270   74.9180   61.3070 H   0  0  0  0  0  0  0  0  0  0  0  0
   39.7880   76.3310   59.8090 H   0  0  0  0  0  0  0  0  0  0  0  0
   42.0590   75.5220   59.0830 H   0  0  0  0  0  0  0  0  0  0  0  0
   42.8710   67.9170   62.1690 O   0  0  0  0  0  0  0  0  0  0  0  0
   40.4290   67.1300   62.4690 O   0  0  0  0  0  0  0  0  0  0  0  0
   41.7680   66.6520   61.9160 P   0  0  0  0  0  0  0  0  0  0  0  0
   41.5370   66.3020   60.2650 O   0  0  0  0  0  0  0  0  0  0  0  0
   42.0730   65.5100   60.0170 H   0  0  0  0  0  0  0  0  0  0  0  0
   42.1600   65.2610   62.7880 O   0  0  0  0  0  0  0  0  0  0  0  0
   42.7520   64.6600   62.2720 H   0  0  0  0  0  0  0  0  0  0  0  0
  1  2  2  0  0  0  0
  2  3  1  0  0  0  0
  2  6  1  0  0  0  0
  3  7  1  0  0  0  0
  4  3  2  0  0  0  0
  5  1  1  0  0  0  0
  5  4  1  0  0  0  0
  8 14  1  0  0  0  0
  8 13  1  0  0  0  0
  9  8  2  0  0  0  0
 10  9  1  0  0  0  0
 10 11  2  0  0  0  0
 11 12  1  0  0  0  0
 12 13  2  0  0  0  0
 12  1  1  0  0  0  0
 15  9  1  0  0  0  0
 16 10  1  0  0  0  0
 17  4  1  0  0  0  0
 19 17  1  0  0  0  0
 19 18  2  0  0  0  0
 19 22  1  0  0  0  0
 20 19  1  0  0  0  0
 21 20  1  0  0  0  0
 23 22  1  0  0  0  0
M  END
>  <minimizedAffinity>
-4.68445253

$$$$

 OpenBabel03212520533D

 23 24  0  0  0  0  0  0  0  0999 V2000
   39.6050   72.8520   58.8690 C   0  0  0  0  0  0  0  0  0  0  0  0
   39.3030   72.0230   57.7690 C   0  0  0  0  0  0  0  0  0  0  0  0
   38.3150   72.3920   56.9170 C   0  0  0  0  0  0  0  0  0  0  0  0
   37.6240   73.6010   57.1690 C   0  0  0  0  0  0  0  0  0  0  0  0
   38.4340   74.2430   58.7100 S   0  0  0  0  0  0  0  0  0  0  0  0
   39.8460   71.1030   57.5980 H   0  0  0  0  0  0  0  0  0  0  0  0
   37.9750   71.8650   56.0400 H   0  0  0  0  0  0  0  0  0  0  0  0
   41.3600   72.6690   62.0550 C   0  0  0  0  0  0  0  0  0  0  0  0
   42.5810   72.0180   61.7230 C   0  0  0  0  0  0  0  0  0  0  0  0
   42.7920   71.6390   60.3680 C   0  0  0  0  0  0  0  0  0  0  0  0
   41.8060   71.9280   59.4830 N   0  0  0  0  0  0  0  0  0  0  0  0
   40.6540   72.5530   59.8580 C   0  0  0  0  0  0  0  0  0  0  0  0
   40.4230   72.9210   61.1110 N   0  0  0  0  0  0  0  0  0  0  0  0
   41.2280   72.9450   63.0940 H   0  0  0  0  0  0  0  0  0  0  0  0
   43.3320   71.8140   62.4730 H   0  0  0  0  0  0  0  0  0  0  0  0
   43.7070   71.1430   60.0750 H   0  0  0  0  0  0  0  0  0  0  0  0
   36.6380   74.2340   56.5510 O   0  0  0  0  0  0  0  0  0  0  0  0
   38.5290   75.5030   55.3330 O   0  0  0  0  0  0  0  0  0  0  0  0
   37.0070   75.4150   55.3900 P   0  0  0  0  0  0  0  0  0  0  0  0
   36.4670   74.9940   53.8300 O   0  0  0  0  0  0  0  0  0  0  0  0
   35.6210   75.4670   53.6350 H   0  0  0  0  0  0  0  0  0  0  0  0
   36.4690   76.9530   55.8310 O   0  0  0  0  0  0  0  0  0  0  0  0
   35.5500   77.1260   55.5090 H   0  0  0  0  0  0  0  0  0  0  0  0
  1 12  1  0  0  0  0
  2  1  2  0  0  0  0
  3  4  2  0  0  0  0
  3  2  1  0  0  0  0
  4  5  1  0  0  0  0
  5  1  1  0  0  0  0
  6  2  1  0  0  0  0
  7  3  1  0  0  0  0
  8 14  1  0  0  0  0
  9  8  1  0  0  0  0
  9 15  1  0  0  0  0
 10  9  2  0  0  0  0
 11 12  2  0  0  0  0
 11 10  1  0  0  0  0
 12 13  1  0  0  0  0
 13  8  2  0  0  0  0
 16 10  1  0  0  0  0
 17  4  1  0  0  0  0
 18 19  2  0  0  0  0
 19 22  1  0  0  0  0
 19 17  1  0  0  0  0
 20 19  1  0  0  0  0
 21 20  1  0  0  0  0
 23 22  1  0  0  0  0
M  END
>  <minimizedAffinity>
-4.62419987

$$$$

 OpenBabel03212520533D

 23 24  0  0  0  0  0  0  0  0999 V2000
   38.2590   75.2900   57.7220 C   0  0  0  0  0  0  0  0  0  0  0  0
   38.7830   76.1910   58.6740 C   0  0  0  0  0  0  0  0  0  0  0  0
   39.2540   75.7070   59.8500 C   0  0  0  0  0  0  0  0  0  0  0  0
   39.2000   74.3100   60.0740 C   0  0  0  0  0  0  0  0  0  0  0  0
   38.4340   73.6560   58.5170 S   0  0  0  0  0  0  0  0  0  0  0  0
   38.8120   77.2540   58.4790 H   0  0  0  0  0  0  0  0  0  0  0  0
   39.6800   76.2680   60.6660 H   0  0  0  0  0  0  0  0  0  0  0  0
   37.4920   75.2400   54.1630 C   0  0  0  0  0  0  0  0  0  0  0  0
   36.7390   76.4320   53.9700 C   0  0  0  0  0  0  0  0  0  0  0  0
   36.4980   77.2620   55.0990 C   0  0  0  0  0  0  0  0  0  0  0  0
   37.0060   76.8550   56.2890 N   0  0  0  0  0  0  0  0  0  0  0  0
   37.7200   75.7010   56.4160 C   0  0  0  0  0  0  0  0  0  0  0  0
   37.9650   74.9020   55.3850 N   0  0  0  0  0  0  0  0  0  0  0  0
   37.6600   74.6280   53.2850 H   0  0  0  0  0  0  0  0  0  0  0  0
   36.3580   76.7050   52.9960 H   0  0  0  0  0  0  0  0  0  0  0  0
   35.9300   78.1760   54.9940 H   0  0  0  0  0  0  0  0  0  0  0  0
   39.5670   73.5340   61.0830 O   0  0  0  0  0  0  0  0  0  0  0  0
   41.1910   71.6070   60.5170 O   0  0  0  0  0  0  0  0  0  0  0  0
   41.1710   72.9850   61.1690 P   0  0  0  0  0  0  0  0  0  0  0  0
   42.2500   73.9730   60.2970 O   0  0  0  0  0  0  0  0  0  0  0  0
   42.7190   74.5800   60.9200 H   0  0  0  0  0  0  0  0  0  0  0  0
   41.6960   72.7560   62.7560 O   0  0  0  0  0  0  0  0  0  0  0  0
   42.1050   73.5760   63.1290 H   0  0  0  0  0  0  0  0  0  0  0  0
  1  5  1  0  0  0  0
  1  2  2  0  0  0  0
  2  3  1  0  0  0  0
  3  4  2  0  0  0  0
  3  7  1  0  0  0  0
  4 17  1  0  0  0  0
  5  4  1  0  0  0  0
  6  2  1  0  0  0  0
  8 13  1  0  0  0  0
  9  8  2  0  0  0  0
  9 10  1  0  0  0  0
 10 11  2  0  0  0  0
 11 12  1  0  0  0  0
 12  1  1  0  0  0  0
 13 12  2  0  0  0  0
 14  8  1  0  0  0  0
 15  9  1  0  0  0  0
 16 10  1  0  0  0  0
 17 19  1  0  0  0  0
 18 19  2  0  0  0  0
 19 22  1  0  0  0  0
 20 21  1  0  0  0  0
 20 19  1  0  0  0  0
 22 23  1  0  0  0  0
M  END
>  <minimizedAffinity>
-4.5725975

$$$$

 OpenBabel03212520533D

 23 24  0  0  0  0  0  0  0  0999 V2000
   42.1450   70.5990   61.6830 C   0  0  0  0  0  0  0  0  0  0  0  0
   42.0680   71.5480   62.7240 C   0  0  0  0  0  0  0  0  0  0  0  0
   41.7100   72.8220   62.4300 C   0  0  0  0  0  0  0  0  0  0  0  0
   41.4280   73.1480   61.0810 C   0  0  0  0  0  0  0  0  0  0  0  0
   41.6890   71.5430   60.1890 S   0  0  0  0  0  0  0  0  0  0  0  0
   42.2890   71.2730   63.7460 H   0  0  0  0  0  0  0  0  0  0  0  0
   41.6090   73.6490   63.1140 H   0  0  0  0  0  0  0  0  0  0  0  0
   42.0690   66.9650   61.4600 C   0  0  0  0  0  0  0  0  0  0  0  0
   43.1900   66.5620   62.2380 C   0  0  0  0  0  0  0  0  0  0  0  0
   43.9820   67.5750   62.8470 C   0  0  0  0  0  0  0  0  0  0  0  0
   43.6080   68.8620   62.6410 N   0  0  0  0  0  0  0  0  0  0  0  0
   42.5230   69.1910   61.8840 C   0  0  0  0  0  0  0  0  0  0  0  0
   41.7620   68.2730   61.3010 N   0  0  0  0  0  0  0  0  0  0  0  0
   41.4860   66.1720   61.0090 H   0  0  0  0  0  0  0  0  0  0  0  0
   43.4400   65.5190   62.3670 H   0  0  0  0  0  0  0  0  0  0  0  0
   44.8420   67.3100   63.4470 H   0  0  0  0  0  0  0  0  0  0  0  0
   41.0590   74.2650   60.4720 O   0  0  0  0  0  0  0  0  0  0  0  0
   39.0020   75.4060   59.4060 O   0  0  0  0  0  0  0  0  0  0  0  0
   39.5070   74.8910   60.7500 P   0  0  0  0  0  0  0  0  0  0  0  0
   38.4060   73.7040   61.2820 O   0  0  0  0  0  0  0  0  0  0  0  0
   38.3020   73.7660   62.2630 H   0  0  0  0  0  0  0  0  0  0  0  0
   39.5170   76.2240   61.7840 O   0  0  0  0  0  0  0  0  0  0  0  0
   39.4250   75.9550   62.7310 H   0  0  0  0  0  0  0  0  0  0  0  0
  1 12  1  0  0  0  0
  1  2  2  0  0  0  0
  2  6  1  0  0  0  0
  3  2  1  0  0  0  0
  3  7  1  0  0  0  0
  4  3  2  0  0  0  0
  5  4  1  0  0  0  0
  5  1  1  0  0  0  0
  8  9  1  0  0  0  0
  9 15  1  0  0  0  0
  9 10  2  0  0  0  0
 10 16  1  0  0  0  0
 11 10  1  0  0  0  0
 12 11  2  0  0  0  0
 13  8  2  0  0  0  0
 13 12  1  0  0  0  0
 14  8  1  0  0  0  0
 17 19  1  0  0  0  0
 17  4  1  0  0  0  0
 18 19  2  0  0  0  0
 19 20  1  0  0  0  0
 19 22  1  0  0  0  0
 20 21  1  0  0  0  0
 22 23  1  0  0  0  0
M  END
>  <minimizedAffinity>
-4.53292179

$$$$
