
 OpenBabel03212520243D

 16 16  0  0  0  0  0  0  0  0999 V2000
   39.7720   76.5730   60.2910 C   0  0  0  0  0  0  0  0  0  0  0  0
   39.7230   76.4570   58.8960 C   0  0  0  0  0  0  0  0  0  0  0  0
   39.0470   75.3570   58.3630 C   0  0  0  0  0  0  0  0  0  0  0  0
   38.4720   74.4550   59.2300 N   0  0  0  0  0  0  0  0  0  0  0  0
   38.5480   74.6150   60.5630 C   0  0  0  0  0  0  0  0  0  0  0  0
   39.1980   75.6730   61.0960 N   0  0  0  0  0  0  0  0  0  0  0  0
   40.3240   77.4690   60.6100 H   0  0  0  0  0  0  0  0  0  0  0  0
   40.1300   77.0920   58.1550 H   0  0  0  0  0  0  0  0  0  0  0  0
   38.0890   73.8940   61.2400 H   0  0  0  0  0  0  0  0  0  0  0  0
   38.8470   75.0010   57.0560 O   0  0  0  0  0  0  0  0  0  0  0  0
   36.6050   76.2210   56.3840 O   0  0  0  0  0  0  0  0  0  0  0  0
   37.4220   74.9460   56.1860 P   0  0  0  0  0  0  0  0  0  0  0  0
   36.4680   73.6990   56.8500 O   0  0  0  0  0  0  0  0  0  0  0  0
   36.2970   73.9800   57.7830 H   0  0  0  0  0  0  0  0  0  0  0  0
   37.5470   74.7010   54.5490 O   0  0  0  0  0  0  0  0  0  0  0  0
   37.3920   73.7840   54.2250 H   0  0  0  0  0  0  0  0  0  0  0  0
  1  7  1  0  0  0  0
  1  6  1  0  0  0  0
  2  1  2  0  0  0  0
  3  2  1  0  0  0  0
  3  4  2  0  0  0  0
  4  5  1  0  0  0  0
  5  6  2  0  0  0  0
  5  9  1  0  0  0  0
  8  2  1  0  0  0  0
 10  3  1  0  0  0  0
 12 11  2  0  0  0  0
 12 13  1  0  0  0  0
 12 10  1  0  0  0  0
 13 14  1  0  0  0  0
 15 12  1  0  0  0  0
 16 15  1  0  0  0  0
M  END
>  <minimizedAffinity>
-4.01784325

$$$$

 OpenBabel03212520243D

 16 16  0  0  0  0  0  0  0  0999 V2000
   37.2280   76.0290   56.1690 C   0  0  0  0  0  0  0  0  0  0  0  0
   37.2540   74.9620   57.0770 C   0  0  0  0  0  0  0  0  0  0  0  0
   38.0340   75.1120   58.2260 C   0  0  0  0  0  0  0  0  0  0  0  0
   38.7290   76.2880   58.4010 N   0  0  0  0  0  0  0  0  0  0  0  0
   38.6680   77.2810   57.4960 C   0  0  0  0  0  0  0  0  0  0  0  0
   37.9190   77.1540   56.3790 N   0  0  0  0  0  0  0  0  0  0  0  0
   36.5870   75.8150   55.3010 H   0  0  0  0  0  0  0  0  0  0  0  0
   36.7590   74.0290   57.0310 H   0  0  0  0  0  0  0  0  0  0  0  0
   39.2230   78.2080   57.6450 H   0  0  0  0  0  0  0  0  0  0  0  0
   38.2390   74.2440   59.2650 O   0  0  0  0  0  0  0  0  0  0  0  0
   39.2120   73.1650   61.4690 O   0  0  0  0  0  0  0  0  0  0  0  0
   39.1800   74.4410   60.6310 P   0  0  0  0  0  0  0  0  0  0  0  0
   38.4100   75.6010   61.6160 O   0  0  0  0  0  0  0  0  0  0  0  0
   37.5380   75.1970   61.8480 H   0  0  0  0  0  0  0  0  0  0  0  0
   40.7560   74.9080   60.4000 O   0  0  0  0  0  0  0  0  0  0  0  0
   40.9590   75.8630   60.5260 H   0  0  0  0  0  0  0  0  0  0  0  0
  1  6  2  0  0  0  0
  1  2  1  0  0  0  0
  2  3  2  0  0  0  0
  3  4  1  0  0  0  0
  3 10  1  0  0  0  0
  5  9  1  0  0  0  0
  5  4  2  0  0  0  0
  6  5  1  0  0  0  0
  7  1  1  0  0  0  0
  8  2  1  0  0  0  0
 10 12  1  0  0  0  0
 12 11  2  0  0  0  0
 12 13  1  0  0  0  0
 13 14  1  0  0  0  0
 15 16  1  0  0  0  0
 15 12  1  0  0  0  0
M  END
>  <minimizedAffinity>
-3.99035406

$$$$

 OpenBabel03212520243D

 16 16  0  0  0  0  0  0  0  0999 V2000
   39.8750   76.2640   60.4750 C   0  0  0  0  0  0  0  0  0  0  0  0
   40.1590   75.5880   59.2810 C   0  0  0  0  0  0  0  0  0  0  0  0
   39.5150   74.3690   59.0600 C   0  0  0  0  0  0  0  0  0  0  0  0
   38.6450   73.9020   60.0190 N   0  0  0  0  0  0  0  0  0  0  0  0
   38.4070   74.5920   61.1490 C   0  0  0  0  0  0  0  0  0  0  0  0
   39.0220   75.7730   61.3790 N   0  0  0  0  0  0  0  0  0  0  0  0
   40.4290   77.2100   60.5530 H   0  0  0  0  0  0  0  0  0  0  0  0
   40.8060   75.8630   58.4910 H   0  0  0  0  0  0  0  0  0  0  0  0
   37.7160   74.2120   61.9020 H   0  0  0  0  0  0  0  0  0  0  0  0
   39.6050   73.5100   57.9970 O   0  0  0  0  0  0  0  0  0  0  0  0
   38.7330   73.7570   55.5170 O   0  0  0  0  0  0  0  0  0  0  0  0
   38.4410   73.1080   56.8690 P   0  0  0  0  0  0  0  0  0  0  0  0
   36.9700   73.7990   57.3850 O   0  0  0  0  0  0  0  0  0  0  0  0
   37.1350   74.7750   57.3840 H   0  0  0  0  0  0  0  0  0  0  0  0
   38.1920   71.4910   56.5850 O   0  0  0  0  0  0  0  0  0  0  0  0
   37.4240   71.0750   57.0370 H   0  0  0  0  0  0  0  0  0  0  0  0
  1  7  1  0  0  0  0
  1  6  1  0  0  0  0
  2  1  2  0  0  0  0
  3  2  1  0  0  0  0
  3  4  2  0  0  0  0
  4  5  1  0  0  0  0
  5  6  2  0  0  0  0
  5  9  1  0  0  0  0
  8  2  1  0  0  0  0
 10  3  1  0  0  0  0
 11 12  2  0  0  0  0
 12 13  1  0  0  0  0
 12 10  1  0  0  0  0
 14 13  1  0  0  0  0
 15 12  1  0  0  0  0
 15 16  1  0  0  0  0
M  END
>  <minimizedAffinity>
-3.88913107

$$$$

 OpenBabel03212520243D

 16 16  0  0  0  0  0  0  0  0999 V2000
   40.1280   76.5080   60.3340 C   0  0  0  0  0  0  0  0  0  0  0  0
   39.6630   75.2110   60.0780 C   0  0  0  0  0  0  0  0  0  0  0  0
   38.8850   75.0190   58.9340 C   0  0  0  0  0  0  0  0  0  0  0  0
   38.6200   76.1030   58.1290 N   0  0  0  0  0  0  0  0  0  0  0  0
   39.0910   77.3280   58.4210 C   0  0  0  0  0  0  0  0  0  0  0  0
   39.8460   77.5330   59.5230 N   0  0  0  0  0  0  0  0  0  0  0  0
   40.7290   76.5550   61.2530 H   0  0  0  0  0  0  0  0  0  0  0  0
   39.8130   74.3230   60.6310 H   0  0  0  0  0  0  0  0  0  0  0  0
   38.8740   78.1800   57.7760 H   0  0  0  0  0  0  0  0  0  0  0  0
   38.3090   73.8750   58.4490 O   0  0  0  0  0  0  0  0  0  0  0  0
   39.7710   73.4010   56.3020 O   0  0  0  0  0  0  0  0  0  0  0  0
   38.3790   73.2340   56.9080 P   0  0  0  0  0  0  0  0  0  0  0  0
   37.3490   74.1670   55.9200 O   0  0  0  0  0  0  0  0  0  0  0  0
   37.7380   75.0770   55.9380 H   0  0  0  0  0  0  0  0  0  0  0  0
   37.9660   71.6350   56.7370 O   0  0  0  0  0  0  0  0  0  0  0  0
   37.0550   71.4440   56.4170 H   0  0  0  0  0  0  0  0  0  0  0  0
  1  7  1  0  0  0  0
  2  1  1  0  0  0  0
  2  8  1  0  0  0  0
  3  2  2  0  0  0  0
  4  5  2  0  0  0  0
  4  3  1  0  0  0  0
  5  6  1  0  0  0  0
  6  1  2  0  0  0  0
  9  5  1  0  0  0  0
 10  3  1  0  0  0  0
 11 12  2  0  0  0  0
 12 10  1  0  0  0  0
 13 14  1  0  0  0  0
 13 12  1  0  0  0  0
 15 12  1  0  0  0  0
 16 15  1  0  0  0  0
M  END
>  <minimizedAffinity>
-3.78359509

$$$$

 OpenBabel03212520243D

 16 16  0  0  0  0  0  0  0  0999 V2000
   44.1370   74.4330   59.6380 C   0  0  0  0  0  0  0  0  0  0  0  0
   42.9260   75.0440   59.2860 C   0  0  0  0  0  0  0  0  0  0  0  0
   41.7600   74.5520   59.8770 C   0  0  0  0  0  0  0  0  0  0  0  0
   41.8630   73.5030   60.7630 N   0  0  0  0  0  0  0  0  0  0  0  0
   43.0530   72.9530   61.0650 C   0  0  0  0  0  0  0  0  0  0  0  0
   44.1910   73.4160   60.5040 N   0  0  0  0  0  0  0  0  0  0  0  0
   44.9940   74.8910   59.1220 H   0  0  0  0  0  0  0  0  0  0  0  0
   42.7470   75.8470   58.6230 H   0  0  0  0  0  0  0  0  0  0  0  0
   43.1230   72.1220   61.7680 H   0  0  0  0  0  0  0  0  0  0  0  0
   40.4610   74.9540   59.7180 O   0  0  0  0  0  0  0  0  0  0  0  0
   37.9040   74.3020   59.6450 O   0  0  0  0  0  0  0  0  0  0  0  0
   39.1030   74.4870   60.5720 P   0  0  0  0  0  0  0  0  0  0  0  0
   38.6770   75.7820   61.5970 O   0  0  0  0  0  0  0  0  0  0  0  0
   38.4650   76.5300   60.9850 H   0  0  0  0  0  0  0  0  0  0  0  0
   39.2250   73.1080   61.4870 O   0  0  0  0  0  0  0  0  0  0  0  0
   39.3840   73.2280   62.4510 H   0  0  0  0  0  0  0  0  0  0  0  0
  1  6  1  0  0  0  0
  2  1  2  0  0  0  0
  2  3  1  0  0  0  0
  3  4  2  0  0  0  0
  4  5  1  0  0  0  0
  5  9  1  0  0  0  0
  6  5  2  0  0  0  0
  7  1  1  0  0  0  0
  8  2  1  0  0  0  0
 10  3  1  0  0  0  0
 10 12  1  0  0  0  0
 11 12  2  0  0  0  0
 12 15  1  0  0  0  0
 12 13  1  0  0  0  0
 14 13  1  0  0  0  0
 15 16  1  0  0  0  0
M  END
>  <minimizedAffinity>
-3.77677679

$$$$

 OpenBabel03212520243D

 16 16  0  0  0  0  0  0  0  0999 V2000
   38.0390   76.9810   57.0350 C   0  0  0  0  0  0  0  0  0  0  0  0
   38.7780   76.3240   58.0280 C   0  0  0  0  0  0  0  0  0  0  0  0
   38.4690   74.9860   58.2820 C   0  0  0  0  0  0  0  0  0  0  0  0
   37.4650   74.3920   57.5510 N   0  0  0  0  0  0  0  0  0  0  0  0
   36.7870   75.0690   56.6080 C   0  0  0  0  0  0  0  0  0  0  0  0
   37.0720   76.3650   56.3480 N   0  0  0  0  0  0  0  0  0  0  0  0
   38.3580   78.0260   56.9100 H   0  0  0  0  0  0  0  0  0  0  0  0
   39.5600   76.6910   58.6360 H   0  0  0  0  0  0  0  0  0  0  0  0
   35.9930   74.5890   56.0360 H   0  0  0  0  0  0  0  0  0  0  0  0
   39.0230   74.1150   59.1820 O   0  0  0  0  0  0  0  0  0  0  0  0
   37.4710   74.1550   61.3180 O   0  0  0  0  0  0  0  0  0  0  0  0
   38.9240   74.1230   60.8500 P   0  0  0  0  0  0  0  0  0  0  0  0
   39.5990   75.5920   61.3930 O   0  0  0  0  0  0  0  0  0  0  0  0
   39.0200   76.2940   61.0060 H   0  0  0  0  0  0  0  0  0  0  0  0
   39.6640   72.8730   61.6550 O   0  0  0  0  0  0  0  0  0  0  0  0
   40.5520   73.0570   62.0370 H   0  0  0  0  0  0  0  0  0  0  0  0
  1  2  1  0  0  0  0
  2  3  2  0  0  0  0
  2  8  1  0  0  0  0
  3 10  1  0  0  0  0
  4  3  1  0  0  0  0
  5  4  2  0  0  0  0
  6  5  1  0  0  0  0
  6  1  2  0  0  0  0
  7  1  1  0  0  0  0
  9  5  1  0  0  0  0
 10 12  1  0  0  0  0
 12 11  2  0  0  0  0
 12 13  1  0  0  0  0
 12 15  1  0  0  0  0
 14 13  1  0  0  0  0
 15 16  1  0  0  0  0
M  END
>  <minimizedAffinity>
-3.76208258

$$$$

 OpenBabel03212520243D

 16 16  0  0  0  0  0  0  0  0999 V2000
   42.6380   71.3850   62.3850 C   0  0  0  0  0  0  0  0  0  0  0  0
   41.3620   71.9250   62.5970 C   0  0  0  0  0  0  0  0  0  0  0  0
   40.7330   72.5390   61.5130 C   0  0  0  0  0  0  0  0  0  0  0  0
   41.3940   72.5820   60.3060 N   0  0  0  0  0  0  0  0  0  0  0  0
   42.6190   72.0480   60.1570 C   0  0  0  0  0  0  0  0  0  0  0  0
   43.2430   71.4490   61.1950 N   0  0  0  0  0  0  0  0  0  0  0  0
   43.0460   70.9250   63.2960 H   0  0  0  0  0  0  0  0  0  0  0  0
   40.7780   71.9410   63.4790 H   0  0  0  0  0  0  0  0  0  0  0  0
   43.1340   72.0880   59.1960 H   0  0  0  0  0  0  0  0  0  0  0  0
   39.5040   73.1400   61.4380 O   0  0  0  0  0  0  0  0  0  0  0  0
   38.1850   74.4650   59.5750 O   0  0  0  0  0  0  0  0  0  0  0  0
   39.0970   74.6240   60.7890 P   0  0  0  0  0  0  0  0  0  0  0  0
   40.5290   75.3240   60.1810 O   0  0  0  0  0  0  0  0  0  0  0  0
   40.8320   74.7040   59.4720 H   0  0  0  0  0  0  0  0  0  0  0  0
   38.3660   75.7160   61.8040 O   0  0  0  0  0  0  0  0  0  0  0  0
   38.9410   76.4150   62.1910 H   0  0  0  0  0  0  0  0  0  0  0  0
  1  2  1  0  0  0  0
  1  7  1  0  0  0  0
  2  8  1  0  0  0  0
  3  2  2  0  0  0  0
  4  3  1  0  0  0  0
  5  4  2  0  0  0  0
  5  6  1  0  0  0  0
  6  1  2  0  0  0  0
  9  5  1  0  0  0  0
 10  3  1  0  0  0  0
 11 12  2  0  0  0  0
 12 10  1  0  0  0  0
 12 15  1  0  0  0  0
 13 12  1  0  0  0  0
 14 13  1  0  0  0  0
 15 16  1  0  0  0  0
M  END
>  <minimizedAffinity>
-3.73458028

$$$$

 OpenBabel03212520243D

 16 16  0  0  0  0  0  0  0  0999 V2000
   40.0870   73.3450   59.8750 C   0  0  0  0  0  0  0  0  0  0  0  0
   39.8760   73.4750   58.4950 C   0  0  0  0  0  0  0  0  0  0  0  0
   39.2180   74.6230   58.0490 C   0  0  0  0  0  0  0  0  0  0  0  0
   38.8140   75.5540   58.9780 N   0  0  0  0  0  0  0  0  0  0  0  0
   39.0430   75.3800   60.2920 C   0  0  0  0  0  0  0  0  0  0  0  0
   39.6790   74.2760   60.7430 N   0  0  0  0  0  0  0  0  0  0  0  0
   40.6130   72.4120   60.1250 H   0  0  0  0  0  0  0  0  0  0  0  0
   40.1470   72.8200   57.7110 H   0  0  0  0  0  0  0  0  0  0  0  0
   38.7180   76.1240   61.0200 H   0  0  0  0  0  0  0  0  0  0  0  0
   38.8850   75.0010   56.7750 O   0  0  0  0  0  0  0  0  0  0  0  0
   36.6190   76.2930   56.3630 O   0  0  0  0  0  0  0  0  0  0  0  0
   37.3850   75.0120   56.0390 P   0  0  0  0  0  0  0  0  0  0  0  0
   36.4670   73.7560   56.7380 O   0  0  0  0  0  0  0  0  0  0  0  0
   36.3880   74.0010   57.6930 H   0  0  0  0  0  0  0  0  0  0  0  0
   37.3540   74.8330   54.3890 O   0  0  0  0  0  0  0  0  0  0  0  0
   37.1490   73.9340   54.0450 H   0  0  0  0  0  0  0  0  0  0  0  0
  1  7  1  0  0  0  0
  1  6  1  0  0  0  0
  2  1  2  0  0  0  0
  3  2  1  0  0  0  0
  3  4  2  0  0  0  0
  4  5  1  0  0  0  0
  5  6  2  0  0  0  0
  5  9  1  0  0  0  0
  8  2  1  0  0  0  0
 10  3  1  0  0  0  0
 12 11  2  0  0  0  0
 12 13  1  0  0  0  0
 12 10  1  0  0  0  0
 13 14  1  0  0  0  0
 15 12  1  0  0  0  0
 16 15  1  0  0  0  0
M  END
>  <minimizedAffinity>
-3.6938107

$$$$

 OpenBabel03212520243D

 16 16  0  0  0  0  0  0  0  0999 V2000
   42.9930   72.0880   61.0740 C   0  0  0  0  0  0  0  0  0  0  0  0
   42.6900   73.2210   60.3080 C   0  0  0  0  0  0  0  0  0  0  0  0
   41.4650   73.8500   60.5430 C   0  0  0  0  0  0  0  0  0  0  0  0
   40.6310   73.3260   61.5050 N   0  0  0  0  0  0  0  0  0  0  0  0
   40.9710   72.2350   62.2120 C   0  0  0  0  0  0  0  0  0  0  0  0
   42.1520   71.6130   61.9980 N   0  0  0  0  0  0  0  0  0  0  0  0
   43.9760   71.6680   60.8150 H   0  0  0  0  0  0  0  0  0  0  0  0
   43.2600   73.6950   59.5540 H   0  0  0  0  0  0  0  0  0  0  0  0
   40.3020   71.8280   62.9710 H   0  0  0  0  0  0  0  0  0  0  0  0
   40.9210   74.9580   59.9500 O   0  0  0  0  0  0  0  0  0  0  0  0
   39.2390   76.8930   59.3220 O   0  0  0  0  0  0  0  0  0  0  0  0
   39.4270   75.6600   60.2040 P   0  0  0  0  0  0  0  0  0  0  0  0
   39.4080   76.2510   61.8030 O   0  0  0  0  0  0  0  0  0  0  0  0
   40.1230   76.9340   61.8300 H   0  0  0  0  0  0  0  0  0  0  0  0
   38.0930   74.6980   59.9810 O   0  0  0  0  0  0  0  0  0  0  0  0
   37.6820   74.3160   60.7900 H   0  0  0  0  0  0  0  0  0  0  0  0
  1  6  1  0  0  0  0
  2  3  1  0  0  0  0
  2  1  2  0  0  0  0
  3  4  2  0  0  0  0
  4  5  1  0  0  0  0
  5  9  1  0  0  0  0
  6  5  2  0  0  0  0
  7  1  1  0  0  0  0
  8  2  1  0  0  0  0
 10 12  1  0  0  0  0
 10  3  1  0  0  0  0
 11 12  2  0  0  0  0
 12 13  1  0  0  0  0
 13 14  1  0  0  0  0
 15 12  1  0  0  0  0
 15 16  1  0  0  0  0
M  END
>  <minimizedAffinity>
-3.66972852

$$$$
