
 OpenBabel03212520293D

 23 24  0  0  0  0  0  0  0  0999 V2000
   39.4900   82.6630   61.5220 C   0  0  0  0  0  0  0  0  0  0  0  0
   40.6030   82.2190   60.7880 C   0  0  0  0  0  0  0  0  0  0  0  0
   41.8780   82.4700   61.3110 C   0  0  0  0  0  0  0  0  0  0  0  0
   41.9640   83.1300   62.5020 N   0  0  0  0  0  0  0  0  0  0  0  0
   40.8820   83.5370   63.1700 C   0  0  0  0  0  0  0  0  0  0  0  0
   39.6440   83.3050   62.6830 N   0  0  0  0  0  0  0  0  0  0  0  0
   38.5020   82.4650   61.1080 H   0  0  0  0  0  0  0  0  0  0  0  0
   42.7340   82.1260   60.7440 H   0  0  0  0  0  0  0  0  0  0  0  0
   40.4170   81.5350   59.5480 N   0  0  0  0  0  0  0  0  0  0  0  0
   40.3060   80.2210   59.6630 C   0  0  0  0  0  0  0  0  0  0  0  0
   40.1230   79.4670   58.5100 C   0  0  0  0  0  0  0  0  0  0  0  0
   40.0630   80.1120   57.2770 C   0  0  0  0  0  0  0  0  0  0  0  0
   39.9000   79.5110   56.1880 O   0  0  0  0  0  0  0  0  0  0  0  0
   40.1860   81.4700   57.2360 N   0  0  0  0  0  0  0  0  0  0  0  0
   40.3660   82.2050   58.3740 C   0  0  0  0  0  0  0  0  0  0  0  0
   40.4770   83.4390   58.3400 O   0  0  0  0  0  0  0  0  0  0  0  0
   40.3450   79.6690   60.5770 H   0  0  0  0  0  0  0  0  0  0  0  0
   40.0250   78.3870   58.5360 H   0  0  0  0  0  0  0  0  0  0  0  0
   40.1370   81.9400   56.2950 H   0  0  0  0  0  0  0  0  0  0  0  0
   41.0440   84.2480   64.4570 C   0  0  0  0  0  0  0  0  0  0  0  0
   42.3120   84.1600   64.9690 F   0  0  0  0  0  0  0  0  0  0  0  0
   40.7340   85.6040   64.3070 F   0  0  0  0  0  0  0  0  0  0  0  0
   40.1390   83.7330   65.3660 F   0  0  0  0  0  0  0  0  0  0  0  0
  1  6  1  0  0  0  0
  2  3  1  0  0  0  0
  2  1  2  0  0  0  0
  3  4  2  0  0  0  0
  4  5  1  0  0  0  0
  5 20  1  0  0  0  0
  6  5  2  0  0  0  0
  7  1  1  0  0  0  0
  8  3  1  0  0  0  0
  9 10  1  0  0  0  0
  9  2  1  0  0  0  0
 10 17  1  0  0  0  0
 11 18  1  0  0  0  0
 11 10  2  0  0  0  0
 12 11  1  0  0  0  0
 13 12  2  0  0  0  0
 14 12  1  0  0  0  0
 14 15  1  0  0  0  0
 15  9  1  0  0  0  0
 16 15  2  0  0  0  0
 19 14  1  0  0  0  0
 20 21  1  0  0  0  0
 20 23  1  0  0  0  0
 22 20  1  0  0  0  0
M  END
>  <minimizedAffinity>
-5.15145731

>  <minimizedRMSD>
2.26129389

$$$$
