
 OpenBabel03212520513D

 30 32  0  0  1  0  0  0  0  0999 V2000
   41.8500   83.8890   61.2240 C   0  0  0  0  0  0  0  0  0  0  0  0
   40.9120   84.1480   62.2020 C   0  0  0  0  0  0  0  0  0  0  0  0
   40.4820   83.1470   63.0670 C   0  0  0  0  0  0  0  0  0  0  0  0
   40.9830   81.9010   62.9580 N   0  0  0  0  0  0  0  0  0  0  0  0
   41.9020   81.6720   61.9910 C   0  0  0  0  0  0  0  0  0  0  0  0
   42.3410   82.6220   61.1350 N   0  0  0  0  0  0  0  0  0  0  0  0
   40.5010   85.1520   62.2990 H   0  0  0  0  0  0  0  0  0  0  0  0
   39.7510   83.4330   63.7980 H   0  0  0  0  0  0  0  0  0  0  0  0
   43.7050   86.6820   59.7810 C   0  0  0  0  0  0  0  0  0  0  0  0
   43.1130   86.8280   58.5350 C   0  0  0  0  0  0  0  0  0  0  0  0
   42.0800   85.9780   58.1780 C   0  0  0  0  0  0  0  0  0  0  0  0
   41.7190   85.0440   59.0980 N   0  0  0  0  0  0  0  0  0  0  0  0
   42.3080   84.9210   60.3010 C   0  0  0  0  0  0  0  0  0  0  0  0
   43.2960   85.7280   60.6520 N   0  0  0  0  0  0  0  0  0  0  0  0
   44.7510   87.6300   60.0200 N   0  0  0  0  0  0  0  0  0  0  0  0
   43.3970   87.5690   57.8000 H   0  0  0  0  0  0  0  0  0  0  0  0
   41.5810   86.0450   57.2190 H   0  0  0  0  0  0  0  0  0  0  0  0
   44.2590   88.2710   60.6840 H   0  0  0  0  0  0  0  0  0  0  0  0
   45.7220   87.7440   59.6970 H   0  0  0  0  0  0  0  0  0  0  0  0
   42.4200   80.2670   61.9020 C   0  0  1  0  0  0  0  0  0  0  0  0
   41.5930   79.1330   62.2430 C   0  0  0  0  0  0  0  0  0  0  0  0
   41.6970   79.4700   60.7920 C   0  0  1  0  0  0  0  0  0  0  0  0
   43.5360   80.1410   61.8210 H   0  0  0  0  0  0  0  0  0  0  0  0
   42.0130   78.2060   62.6660 H   0  0  0  0  0  0  0  0  0  0  0  0
   40.6200   79.3870   62.7580 H   0  0  0  0  0  0  0  0  0  0  0  0
   42.2840   78.7410   60.2060 H   0  0  0  0  0  0  0  0  0  0  0  0
   40.4810   80.0260   60.1500 C   0  0  0  0  0  0  0  0  0  0  0  0
   39.5760   80.3580   61.1640 F   0  0  0  0  0  0  0  0  0  0  0  0
   40.7610   81.2030   59.4880 F   0  0  0  0  0  0  0  0  0  0  0  0
   39.8110   79.1440   59.3380 F   0  0  0  0  0  0  0  0  0  0  0  0
  1  2  1  0  0  0  0
  2  7  1  0  0  0  0
  2  3  2  0  0  0  0
  3  8  1  0  0  0  0
  4  3  1  0  0  0  0
  5  4  2  0  0  0  0
  6  1  2  0  0  0  0
  6  5  1  0  0  0  0
  9 15  1  0  0  0  0
  9 14  1  0  0  0  0
 10  9  2  0  0  0  0
 11 10  1  0  0  0  0
 11 12  2  0  0  0  0
 12 13  1  0  0  0  0
 13 14  2  0  0  0  0
 13  1  1  0  0  0  0
 15 18  1  0  0  0  0
 16 10  1  0  0  0  0
 17 11  1  0  0  0  0
 19 15  1  0  0  0  0
 20 23  1  1  0  0  0
 20  5  1  0  0  0  0
 20 21  1  0  0  0  0
 21 24  1  0  0  0  0
 21 25  1  0  0  0  0
 22 26  1  6  0  0  0
 22 20  1  0  0  0  0
 22 21  1  0  0  0  0
 27 22  1  0  0  0  0
 27 28  1  0  0  0  0
 29 27  1  0  0  0  0
 30 27  1  0  0  0  0
M  END
>  <minimizedAffinity>
-4.90984154

>  <minimizedRMSD>
1.04410303

$$$$
