
 OpenBabel03212520123D

 26 27  0  0  0  0  0  0  0  0999 V2000
   42.6360   84.1990   58.5220 Cl  0  0  0  0  0  0  0  0  0  0  0  0
   41.5820   82.8160   58.2280 C   0  0  0  0  0  0  0  0  0  0  0  0
   40.8930   82.1760   59.2460 C   0  0  0  0  0  0  0  0  0  0  0  0
   40.1050   81.1010   58.8450 C   0  0  0  0  0  0  0  0  0  0  0  0
   39.9670   80.6440   57.5520 C   0  0  0  0  0  0  0  0  0  0  0  0
   40.6640   81.3040   56.5880 C   0  0  0  0  0  0  0  0  0  0  0  0
   40.5620   80.8050   54.9000 Cl  0  0  0  0  0  0  0  0  0  0  0  0
   41.4570   82.3730   56.9300 C   0  0  0  0  0  0  0  0  0  0  0  0
   39.5690   80.6100   59.6640 H   0  0  0  0  0  0  0  0  0  0  0  0
   39.3270   79.7950   57.3390 H   0  0  0  0  0  0  0  0  0  0  0  0
   41.9880   82.2490   61.5290 C   0  0  0  0  0  0  0  0  0  0  0  0
   41.0290   82.6400   60.5800 C   0  0  0  0  0  0  0  0  0  0  0  0
   40.0900   83.5970   60.9800 C   0  0  0  0  0  0  0  0  0  0  0  0
   40.1620   84.0840   62.2450 N   0  0  0  0  0  0  0  0  0  0  0  0
   41.0980   83.6820   63.1230 C   0  0  0  0  0  0  0  0  0  0  0  0
   42.0060   82.7690   62.7640 N   0  0  0  0  0  0  0  0  0  0  0  0
   42.6960   81.5080   61.1820 H   0  0  0  0  0  0  0  0  0  0  0  0
   39.3130   83.9670   60.3380 H   0  0  0  0  0  0  0  0  0  0  0  0
   41.0360   84.3190   64.4750 C   0  0  0  0  0  0  0  0  0  0  0  0
   40.6740   85.6530   64.3960 F   0  0  0  0  0  0  0  0  0  0  0  0
   40.0910   83.6760   65.2490 F   0  0  0  0  0  0  0  0  0  0  0  0
   42.2720   84.2970   65.0990 F   0  0  0  0  0  0  0  0  0  0  0  0
   42.2050   83.0700   55.8360 C   0  0  0  0  0  0  0  0  0  0  0  0
   41.9510   84.4110   55.8240 F   0  0  0  0  0  0  0  0  0  0  0  0
   41.7930   82.5590   54.6300 F   0  0  0  0  0  0  0  0  0  0  0  0
   43.5540   82.8330   55.9600 F   0  0  0  0  0  0  0  0  0  0  0  0
  2  1  1  0  0  0  0
  2  3  1  0  0  0  0
  3 12  1  0  0  0  0
  4  3  2  0  0  0  0
  4  9  1  0  0  0  0
  5  4  1  0  0  0  0
  6  8  1  0  0  0  0
  6  5  2  0  0  0  0
  7  6  1  0  0  0  0
  8  2  2  0  0  0  0
 10  5  1  0  0  0  0
 11 16  1  0  0  0  0
 12 13  1  0  0  0  0
 12 11  2  0  0  0  0
 13 14  2  0  0  0  0
 14 15  1  0  0  0  0
 15 19  1  0  0  0  0
 16 15  2  0  0  0  0
 17 11  1  0  0  0  0
 18 13  1  0  0  0  0
 19 22  1  0  0  0  0
 19 21  1  0  0  0  0
 20 19  1  0  0  0  0
 23 26  1  0  0  0  0
 23  8  1  0  0  0  0
 24 23  1  0  0  0  0
 25 23  1  0  0  0  0
M  END
>  <minimizedAffinity>
-5.37180662

>  <minimizedRMSD>
0.666795492

$$$$
