
 OpenBabel03212519593D

 13 13  0  0  0  0  0  0  0  0999 V2000
   37.9980   75.4090   57.6230 C   0  0  0  0  0  0  0  0  0  0  0  0
   38.3250   76.6330   57.0250 C   0  0  0  0  0  0  0  0  0  0  0  0
   39.0600   77.5520   57.7870 C   0  0  0  0  0  0  0  0  0  0  0  0
   39.4220   77.2160   59.0660 N   0  0  0  0  0  0  0  0  0  0  0  0
   39.0790   76.0170   59.5960 C   0  0  0  0  0  0  0  0  0  0  0  0
   38.3710   75.1240   58.8730 N   0  0  0  0  0  0  0  0  0  0  0  0
   37.4310   74.7570   56.9680 H   0  0  0  0  0  0  0  0  0  0  0  0
   38.1040   77.0010   56.0540 H   0  0  0  0  0  0  0  0  0  0  0  0
   39.4130   78.5310   57.5330 H   0  0  0  0  0  0  0  0  0  0  0  0
   39.4630   75.6390   60.9810 C   0  0  0  0  0  0  0  0  0  0  0  0
   40.4860   74.7140   61.0160 F   0  0  0  0  0  0  0  0  0  0  0  0
   38.3640   75.0900   61.6350 F   0  0  0  0  0  0  0  0  0  0  0  0
   39.7740   76.8030   61.6550 F   0  0  0  0  0  0  0  0  0  0  0  0
  1  6  1  0  0  0  0
  2  1  2  0  0  0  0
  2  3  1  0  0  0  0
  3  4  2  0  0  0  0
  4  5  1  0  0  0  0
  5 10  1  0  0  0  0
  6  5  2  0  0  0  0
  7  1  1  0  0  0  0
  8  2  1  0  0  0  0
  9  3  1  0  0  0  0
 10 11  1  0  0  0  0
 10 12  1  0  0  0  0
 10 13  1  0  0  0  0
M  END
>  <minimizedAffinity>
-3.70593643

$$$$

 OpenBabel03212519593D

 13 13  0  0  0  0  0  0  0  0999 V2000
   39.1200   77.6350   57.8300 C   0  0  0  0  0  0  0  0  0  0  0  0
   38.3520   76.8150   56.9940 C   0  0  0  0  0  0  0  0  0  0  0  0
   37.9530   75.5680   57.4970 C   0  0  0  0  0  0  0  0  0  0  0  0
   38.3280   75.2130   58.7670 N   0  0  0  0  0  0  0  0  0  0  0  0
   39.0730   76.0460   59.5330 C   0  0  0  0  0  0  0  0  0  0  0  0
   39.4630   77.2490   59.0610 N   0  0  0  0  0  0  0  0  0  0  0  0
   39.3860   78.5790   57.3660 H   0  0  0  0  0  0  0  0  0  0  0  0
   38.0040   76.9790   56.0050 H   0  0  0  0  0  0  0  0  0  0  0  0
   37.3710   74.7940   57.0390 H   0  0  0  0  0  0  0  0  0  0  0  0
   39.4880   75.6750   60.9120 C   0  0  0  0  0  0  0  0  0  0  0  0
   40.5360   74.7780   60.9300 F   0  0  0  0  0  0  0  0  0  0  0  0
   38.4150   75.0960   61.5810 F   0  0  0  0  0  0  0  0  0  0  0  0
   39.7790   76.8460   61.5830 F   0  0  0  0  0  0  0  0  0  0  0  0
  1  6  1  0  0  0  0
  2  3  1  0  0  0  0
  2  1  2  0  0  0  0
  3  4  2  0  0  0  0
  4  5  1  0  0  0  0
  5 10  1  0  0  0  0
  6  5  2  0  0  0  0
  7  1  1  0  0  0  0
  8  2  1  0  0  0  0
  9  3  1  0  0  0  0
 10 11  1  0  0  0  0
 10 12  1  0  0  0  0
 10 13  1  0  0  0  0
M  END
>  <minimizedAffinity>
-3.69392776

$$$$

 OpenBabel03212519593D

 13 13  0  0  0  0  0  0  0  0999 V2000
   39.0990   77.6350   57.8280 C   0  0  0  0  0  0  0  0  0  0  0  0
   38.3490   76.8150   56.9760 C   0  0  0  0  0  0  0  0  0  0  0  0
   37.9580   75.5600   57.4630 C   0  0  0  0  0  0  0  0  0  0  0  0
   38.3220   75.1960   58.7340 N   0  0  0  0  0  0  0  0  0  0  0  0
   39.0490   76.0290   59.5160 C   0  0  0  0  0  0  0  0  0  0  0  0
   39.4320   77.2410   59.0590 N   0  0  0  0  0  0  0  0  0  0  0  0
   39.3610   78.5860   57.3760 H   0  0  0  0  0  0  0  0  0  0  0  0
   38.0100   76.9840   55.9840 H   0  0  0  0  0  0  0  0  0  0  0  0
   37.3880   74.7840   56.9910 H   0  0  0  0  0  0  0  0  0  0  0  0
   39.4520   75.6500   60.8950 C   0  0  0  0  0  0  0  0  0  0  0  0
   38.4410   75.0190   61.5910 F   0  0  0  0  0  0  0  0  0  0  0  0
   39.8150   76.7910   61.6040 F   0  0  0  0  0  0  0  0  0  0  0  0
   40.5910   74.8760   60.7930 F   0  0  0  0  0  0  0  0  0  0  0  0
  1  6  1  0  0  0  0
  2  3  1  0  0  0  0
  2  1  2  0  0  0  0
  3  4  2  0  0  0  0
  4  5  1  0  0  0  0
  5 10  1  0  0  0  0
  6  5  2  0  0  0  0
  7  1  1  0  0  0  0
  8  2  1  0  0  0  0
  9  3  1  0  0  0  0
 10 11  1  0  0  0  0
 10 12  1  0  0  0  0
 13 10  1  0  0  0  0
M  END
>  <minimizedAffinity>
-3.67827463

$$$$

 OpenBabel03212519593D

 13 13  0  0  0  0  0  0  0  0999 V2000
   42.2770   73.8930   59.8360 C   0  0  0  0  0  0  0  0  0  0  0  0
   42.2400   72.6900   60.5530 C   0  0  0  0  0  0  0  0  0  0  0  0
   41.1640   72.4910   61.4300 C   0  0  0  0  0  0  0  0  0  0  0  0
   40.2100   73.4690   61.5450 N   0  0  0  0  0  0  0  0  0  0  0  0
   40.2950   74.6140   60.8260 C   0  0  0  0  0  0  0  0  0  0  0  0
   41.3260   74.8180   59.9780 N   0  0  0  0  0  0  0  0  0  0  0  0
   43.1390   73.9670   59.1820 H   0  0  0  0  0  0  0  0  0  0  0  0
   42.9120   71.8680   60.5490 H   0  0  0  0  0  0  0  0  0  0  0  0
   40.9390   71.6590   62.0670 H   0  0  0  0  0  0  0  0  0  0  0  0
   39.2690   75.6840   60.9400 C   0  0  0  0  0  0  0  0  0  0  0  0
   38.8980   76.1970   59.7140 F   0  0  0  0  0  0  0  0  0  0  0  0
   39.7690   76.7280   61.7100 F   0  0  0  0  0  0  0  0  0  0  0  0
   38.2020   75.1580   61.6410 F   0  0  0  0  0  0  0  0  0  0  0  0
  1  6  2  0  0  0  0
  1  2  1  0  0  0  0
  2  3  2  0  0  0  0
  3  4  1  0  0  0  0
  3  9  1  0  0  0  0
  5 10  1  0  0  0  0
  5  4  2  0  0  0  0
  6  5  1  0  0  0  0
  7  1  1  0  0  0  0
  8  2  1  0  0  0  0
 10 13  1  0  0  0  0
 10 12  1  0  0  0  0
 11 10  1  0  0  0  0
M  END
>  <minimizedAffinity>
-3.46496534

$$$$

 OpenBabel03212519593D

 13 13  0  0  0  0  0  0  0  0999 V2000
   39.5220   76.3530   60.2220 C   0  0  0  0  0  0  0  0  0  0  0  0
   39.2140   75.1640   60.8950 C   0  0  0  0  0  0  0  0  0  0  0  0
   38.4490   74.2100   60.2090 C   0  0  0  0  0  0  0  0  0  0  0  0
   38.0430   74.4800   58.9280 N   0  0  0  0  0  0  0  0  0  0  0  0
   38.3690   75.6480   58.3240 C   0  0  0  0  0  0  0  0  0  0  0  0
   39.1060   76.5750   58.9730 N   0  0  0  0  0  0  0  0  0  0  0  0
   40.1150   77.0350   60.8210 H   0  0  0  0  0  0  0  0  0  0  0  0
   39.4690   74.8450   61.8750 H   0  0  0  0  0  0  0  0  0  0  0  0
   38.1040   73.2460   60.5260 H   0  0  0  0  0  0  0  0  0  0  0  0
   37.9360   75.9550   56.9360 C   0  0  0  0  0  0  0  0  0  0  0  0
   38.8180   75.4830   55.9850 F   0  0  0  0  0  0  0  0  0  0  0  0
   37.8290   77.3330   56.7760 F   0  0  0  0  0  0  0  0  0  0  0  0
   36.6630   75.4450   56.7790 F   0  0  0  0  0  0  0  0  0  0  0  0
  1  7  1  0  0  0  0
  1  2  1  0  0  0  0
  2  8  1  0  0  0  0
  3  9  1  0  0  0  0
  3  2  2  0  0  0  0
  4  3  1  0  0  0  0
  5  4  2  0  0  0  0
  5  6  1  0  0  0  0
  6  1  2  0  0  0  0
 10  5  1  0  0  0  0
 11 10  1  0  0  0  0
 12 10  1  0  0  0  0
 13 10  1  0  0  0  0
M  END
>  <minimizedAffinity>
-3.43517971

$$$$

 OpenBabel03212519593D

 13 13  0  0  0  0  0  0  0  0999 V2000
   37.7400   73.5930   57.4780 C   0  0  0  0  0  0  0  0  0  0  0  0
   38.4000   72.3750   57.2730 C   0  0  0  0  0  0  0  0  0  0  0  0
   39.3070   71.9550   58.2560 C   0  0  0  0  0  0  0  0  0  0  0  0
   39.5050   72.7450   59.3590 N   0  0  0  0  0  0  0  0  0  0  0  0
   38.8390   73.9160   59.5070 C   0  0  0  0  0  0  0  0  0  0  0  0
   37.9630   74.3310   58.5680 N   0  0  0  0  0  0  0  0  0  0  0  0
   37.0580   73.8440   56.6730 H   0  0  0  0  0  0  0  0  0  0  0  0
   38.3300   71.6840   56.4700 H   0  0  0  0  0  0  0  0  0  0  0  0
   39.9110   71.0710   58.3040 H   0  0  0  0  0  0  0  0  0  0  0  0
   39.0420   74.7830   60.6970 C   0  0  0  0  0  0  0  0  0  0  0  0
   40.1690   74.4440   61.4170 F   0  0  0  0  0  0  0  0  0  0  0  0
   37.9430   74.6780   61.5420 F   0  0  0  0  0  0  0  0  0  0  0  0
   39.0690   76.0910   60.2530 F   0  0  0  0  0  0  0  0  0  0  0  0
  1  6  1  0  0  0  0
  2  1  2  0  0  0  0
  2  3  1  0  0  0  0
  3  9  1  0  0  0  0
  3  4  2  0  0  0  0
  4  5  1  0  0  0  0
  5 10  1  0  0  0  0
  6  5  2  0  0  0  0
  7  1  1  0  0  0  0
  8  2  1  0  0  0  0
 10 11  1  0  0  0  0
 10 12  1  0  0  0  0
 13 10  1  0  0  0  0
M  END
>  <minimizedAffinity>
-3.40287185

$$$$

 OpenBabel03212519593D

 13 13  0  0  0  0  0  0  0  0999 V2000
   39.4850   71.9880   58.4340 C   0  0  0  0  0  0  0  0  0  0  0  0
   38.5780   72.2190   57.3920 C   0  0  0  0  0  0  0  0  0  0  0  0
   37.7850   73.3730   57.4660 C   0  0  0  0  0  0  0  0  0  0  0  0
   37.9310   74.2130   58.5400 N   0  0  0  0  0  0  0  0  0  0  0  0
   38.8250   73.9410   59.5210 C   0  0  0  0  0  0  0  0  0  0  0  0
   39.5940   72.8330   59.4620 N   0  0  0  0  0  0  0  0  0  0  0  0
   40.0570   71.0770   58.3010 H   0  0  0  0  0  0  0  0  0  0  0  0
   38.3770   71.6490   56.5190 H   0  0  0  0  0  0  0  0  0  0  0  0
   37.0390   73.7410   56.7910 H   0  0  0  0  0  0  0  0  0  0  0  0
   38.9950   74.8400   60.6920 C   0  0  0  0  0  0  0  0  0  0  0  0
   37.9430   74.7620   61.5820 F   0  0  0  0  0  0  0  0  0  0  0  0
   39.0930   76.1570   60.2560 F   0  0  0  0  0  0  0  0  0  0  0  0
   40.2080   74.5320   61.2750 F   0  0  0  0  0  0  0  0  0  0  0  0
  1  6  1  0  0  0  0
  2  3  1  0  0  0  0
  2  1  2  0  0  0  0
  3  4  2  0  0  0  0
  4  5  1  0  0  0  0
  5 10  1  0  0  0  0
  6  5  2  0  0  0  0
  7  1  1  0  0  0  0
  8  2  1  0  0  0  0
  9  3  1  0  0  0  0
 10 13  1  0  0  0  0
 10 11  1  0  0  0  0
 12 10  1  0  0  0  0
M  END
>  <minimizedAffinity>
-3.40045261

$$$$

 OpenBabel03212519593D

 13 13  0  0  0  0  0  0  0  0999 V2000
   40.7310   73.5600   58.9660 C   0  0  0  0  0  0  0  0  0  0  0  0
   40.1380   72.7380   59.9330 C   0  0  0  0  0  0  0  0  0  0  0  0
   39.5840   73.3590   61.0610 C   0  0  0  0  0  0  0  0  0  0  0  0
   39.6460   74.7250   61.1670 N   0  0  0  0  0  0  0  0  0  0  0  0
   40.2330   75.4730   60.2010 C   0  0  0  0  0  0  0  0  0  0  0  0
   40.7700   74.8870   59.1100 N   0  0  0  0  0  0  0  0  0  0  0  0
   41.1350   73.0030   58.1290 H   0  0  0  0  0  0  0  0  0  0  0  0
   40.0300   71.6830   59.9620 H   0  0  0  0  0  0  0  0  0  0  0  0
   39.0880   72.9320   61.9100 H   0  0  0  0  0  0  0  0  0  0  0  0
   40.3090   76.9540   60.3010 C   0  0  0  0  0  0  0  0  0  0  0  0
   41.5780   77.4390   60.0620 F   0  0  0  0  0  0  0  0  0  0  0  0
   39.9270   77.3550   61.5770 F   0  0  0  0  0  0  0  0  0  0  0  0
   39.3690   77.4730   59.4330 F   0  0  0  0  0  0  0  0  0  0  0  0
  1  6  2  0  0  0  0
  1  2  1  0  0  0  0
  2  8  1  0  0  0  0
  2  3  2  0  0  0  0
  3  4  1  0  0  0  0
  3  9  1  0  0  0  0
  5 10  1  0  0  0  0
  5  4  2  0  0  0  0
  6  5  1  0  0  0  0
  7  1  1  0  0  0  0
 10 12  1  0  0  0  0
 11 10  1  0  0  0  0
 13 10  1  0  0  0  0
M  END
>  <minimizedAffinity>
-3.3390727

$$$$

 OpenBabel03212519593D

 13 13  0  0  0  0  0  0  0  0999 V2000
   41.2280   73.2170   59.0330 C   0  0  0  0  0  0  0  0  0  0  0  0
   41.2800   72.2840   60.0770 C   0  0  0  0  0  0  0  0  0  0  0  0
   40.7680   72.6750   61.3220 C   0  0  0  0  0  0  0  0  0  0  0  0
   40.2460   73.9360   61.4610 N   0  0  0  0  0  0  0  0  0  0  0  0
   40.2210   74.7990   60.4170 C   0  0  0  0  0  0  0  0  0  0  0  0
   40.7110   74.4350   59.2130 N   0  0  0  0  0  0  0  0  0  0  0  0
   41.6440   72.8370   58.1070 H   0  0  0  0  0  0  0  0  0  0  0  0
   41.6540   71.2910   60.0910 H   0  0  0  0  0  0  0  0  0  0  0  0
   40.7060   72.1310   62.2440 H   0  0  0  0  0  0  0  0  0  0  0  0
   39.6600   76.1680   60.5510 C   0  0  0  0  0  0  0  0  0  0  0  0
   38.9320   76.3350   61.7120 F   0  0  0  0  0  0  0  0  0  0  0  0
   38.8200   76.4340   59.4750 F   0  0  0  0  0  0  0  0  0  0  0  0
   40.7130   77.0560   60.4520 F   0  0  0  0  0  0  0  0  0  0  0  0
  1  6  2  0  0  0  0
  1  2  1  0  0  0  0
  2  8  1  0  0  0  0
  2  3  2  0  0  0  0
  3  4  1  0  0  0  0
  3  9  1  0  0  0  0
  5 10  1  0  0  0  0
  5  4  2  0  0  0  0
  6  5  1  0  0  0  0
  7  1  1  0  0  0  0
 10 11  1  0  0  0  0
 12 10  1  0  0  0  0
 13 10  1  0  0  0  0
M  END
>  <minimizedAffinity>
-3.31846213

$$$$
