
 OpenBabel03212520103D

 13 13  0  0  0  0  0  0  0  0999 V2000
   39.3070   76.7570   58.9630 C   0  0  0  0  0  0  0  0  0  0  0  0
   39.0290   75.5220   59.5690 C   0  0  0  0  0  0  0  0  0  0  0  0
   38.1990   74.6190   58.9060 C   0  0  0  0  0  0  0  0  0  0  0  0
   37.6950   74.9970   57.6820 N   0  0  0  0  0  0  0  0  0  0  0  0
   37.9760   76.1860   57.1230 C   0  0  0  0  0  0  0  0  0  0  0  0
   38.7790   77.0690   57.7540 N   0  0  0  0  0  0  0  0  0  0  0  0
   39.9430   77.4930   59.4310 H   0  0  0  0  0  0  0  0  0  0  0  0
   37.9780   73.6660   59.3620 H   0  0  0  0  0  0  0  0  0  0  0  0
   37.5650   76.4590   56.1550 H   0  0  0  0  0  0  0  0  0  0  0  0
   39.6230   75.2100   60.8940 C   0  0  0  0  0  0  0  0  0  0  0  0
   38.7410   74.3710   61.5500 F   0  0  0  0  0  0  0  0  0  0  0  0
   40.8660   74.6410   60.7300 F   0  0  0  0  0  0  0  0  0  0  0  0
   39.7120   76.3960   61.6080 F   0  0  0  0  0  0  0  0  0  0  0  0
  1  7  1  0  0  0  0
  1  2  1  0  0  0  0
  2 10  1  0  0  0  0
  3  8  1  0  0  0  0
  3  2  2  0  0  0  0
  4  3  1  0  0  0  0
  5  4  2  0  0  0  0
  5  6  1  0  0  0  0
  6  1  2  0  0  0  0
  9  5  1  0  0  0  0
 10 11  1  0  0  0  0
 10 13  1  0  0  0  0
 12 10  1  0  0  0  0
M  END
>  <minimizedAffinity>
-3.71577358

$$$$

 OpenBabel03212520103D

 13 13  0  0  0  0  0  0  0  0999 V2000
   38.3140   74.9910   58.8460 C   0  0  0  0  0  0  0  0  0  0  0  0
   39.0780   75.9610   59.5120 C   0  0  0  0  0  0  0  0  0  0  0  0
   39.3420   77.1690   58.8680 C   0  0  0  0  0  0  0  0  0  0  0  0
   38.8300   77.3400   57.6010 N   0  0  0  0  0  0  0  0  0  0  0  0
   38.1000   76.3950   56.9850 C   0  0  0  0  0  0  0  0  0  0  0  0
   37.8380   75.2220   57.5980 N   0  0  0  0  0  0  0  0  0  0  0  0
   38.0800   74.0390   59.2980 H   0  0  0  0  0  0  0  0  0  0  0  0
   39.9290   77.9230   59.3690 H   0  0  0  0  0  0  0  0  0  0  0  0
   37.7080   76.5570   55.9850 H   0  0  0  0  0  0  0  0  0  0  0  0
   39.5850   75.6780   60.8790 C   0  0  0  0  0  0  0  0  0  0  0  0
   40.6870   74.8520   60.7450 F   0  0  0  0  0  0  0  0  0  0  0  0
   39.8880   76.8570   61.5220 F   0  0  0  0  0  0  0  0  0  0  0  0
   38.5970   74.9820   61.5610 F   0  0  0  0  0  0  0  0  0  0  0  0
  1  7  1  0  0  0  0
  1  2  1  0  0  0  0
  2 10  1  0  0  0  0
  3  8  1  0  0  0  0
  3  2  2  0  0  0  0
  4  3  1  0  0  0  0
  5  6  1  0  0  0  0
  5  4  2  0  0  0  0
  6  1  2  0  0  0  0
  9  5  1  0  0  0  0
 10 12  1  0  0  0  0
 10 13  1  0  0  0  0
 11 10  1  0  0  0  0
M  END
>  <minimizedAffinity>
-3.69336247

$$$$

 OpenBabel03212520103D

 13 13  0  0  0  0  0  0  0  0999 V2000
   38.1820   74.8350   58.5540 C   0  0  0  0  0  0  0  0  0  0  0  0
   38.8900   75.0620   59.7440 C   0  0  0  0  0  0  0  0  0  0  0  0
   39.5170   76.2940   59.9290 C   0  0  0  0  0  0  0  0  0  0  0  0
   39.4040   77.2240   58.9210 N   0  0  0  0  0  0  0  0  0  0  0  0
   38.7200   76.9810   57.7900 C   0  0  0  0  0  0  0  0  0  0  0  0
   38.1080   75.7940   57.5990 N   0  0  0  0  0  0  0  0  0  0  0  0
   37.6780   73.9000   58.3590 H   0  0  0  0  0  0  0  0  0  0  0  0
   40.0640   76.4810   60.8410 H   0  0  0  0  0  0  0  0  0  0  0  0
   38.6470   77.7340   57.0100 H   0  0  0  0  0  0  0  0  0  0  0  0
   38.9520   73.9920   60.7720 C   0  0  0  0  0  0  0  0  0  0  0  0
   40.0080   74.2940   61.6140 F   0  0  0  0  0  0  0  0  0  0  0  0
   37.7520   73.9120   61.4420 F   0  0  0  0  0  0  0  0  0  0  0  0
   39.2370   72.7990   60.1240 F   0  0  0  0  0  0  0  0  0  0  0  0
  1  2  1  0  0  0  0
  2  3  2  0  0  0  0
  2 10  1  0  0  0  0
  3  8  1  0  0  0  0
  4  3  1  0  0  0  0
  5  4  2  0  0  0  0
  6  5  1  0  0  0  0
  6  1  2  0  0  0  0
  7  1  1  0  0  0  0
  9  5  1  0  0  0  0
 10 12  1  0  0  0  0
 10 11  1  0  0  0  0
 13 10  1  0  0  0  0
M  END
>  <minimizedAffinity>
-3.62041974

$$$$

 OpenBabel03212520103D

 13 13  0  0  0  0  0  0  0  0999 V2000
   41.2300   74.9210   59.8050 C   0  0  0  0  0  0  0  0  0  0  0  0
   40.1760   75.6540   60.3690 C   0  0  0  0  0  0  0  0  0  0  0  0
   40.2560   77.0460   60.3840 C   0  0  0  0  0  0  0  0  0  0  0  0
   41.3790   77.6250   59.8370 N   0  0  0  0  0  0  0  0  0  0  0  0
   42.3760   76.9000   59.3020 C   0  0  0  0  0  0  0  0  0  0  0  0
   42.3100   75.5520   59.2820 N   0  0  0  0  0  0  0  0  0  0  0  0
   41.2200   73.8420   59.7670 H   0  0  0  0  0  0  0  0  0  0  0  0
   39.4510   77.6220   60.8140 H   0  0  0  0  0  0  0  0  0  0  0  0
   43.2510   77.3830   58.8780 H   0  0  0  0  0  0  0  0  0  0  0  0
   39.0060   74.9330   60.9340 C   0  0  0  0  0  0  0  0  0  0  0  0
   38.4120   75.7760   61.8560 F   0  0  0  0  0  0  0  0  0  0  0  0
   38.1450   74.5690   59.9240 F   0  0  0  0  0  0  0  0  0  0  0  0
   39.4810   73.8160   61.6050 F   0  0  0  0  0  0  0  0  0  0  0  0
  1  2  1  0  0  0  0
  2  3  2  0  0  0  0
  2 10  1  0  0  0  0
  3  8  1  0  0  0  0
  4  3  1  0  0  0  0
  5  4  2  0  0  0  0
  6  5  1  0  0  0  0
  6  1  2  0  0  0  0
  7  1  1  0  0  0  0
  9  5  1  0  0  0  0
 10 13  1  0  0  0  0
 10 11  1  0  0  0  0
 12 10  1  0  0  0  0
M  END
>  <minimizedAffinity>
-3.5503552

$$$$

 OpenBabel03212520103D

 13 13  0  0  0  0  0  0  0  0999 V2000
   39.4070   74.8460   61.1160 C   0  0  0  0  0  0  0  0  0  0  0  0
   40.1530   75.5820   60.1830 C   0  0  0  0  0  0  0  0  0  0  0  0
   40.7660   74.9070   59.1290 C   0  0  0  0  0  0  0  0  0  0  0  0
   40.6020   73.5410   59.0650 N   0  0  0  0  0  0  0  0  0  0  0  0
   39.8820   72.8600   59.9720 C   0  0  0  0  0  0  0  0  0  0  0  0
   39.2830   73.5020   60.9970 N   0  0  0  0  0  0  0  0  0  0  0  0
   38.9110   75.3180   61.9510 H   0  0  0  0  0  0  0  0  0  0  0  0
   41.3430   75.4610   58.4040 H   0  0  0  0  0  0  0  0  0  0  0  0
   39.7680   71.7810   59.8980 H   0  0  0  0  0  0  0  0  0  0  0  0
   40.2700   77.0540   60.3400 C   0  0  0  0  0  0  0  0  0  0  0  0
   39.4440   77.6340   59.3940 F   0  0  0  0  0  0  0  0  0  0  0  0
   39.9340   77.4190   61.6250 F   0  0  0  0  0  0  0  0  0  0  0  0
   41.5800   77.4080   60.0530 F   0  0  0  0  0  0  0  0  0  0  0  0
  1  7  1  0  0  0  0
  2 10  1  0  0  0  0
  2  1  2  0  0  0  0
  3  2  1  0  0  0  0
  4  3  2  0  0  0  0
  4  5  1  0  0  0  0
  5  6  2  0  0  0  0
  6  1  1  0  0  0  0
  8  3  1  0  0  0  0
  9  5  1  0  0  0  0
 10 12  1  0  0  0  0
 11 10  1  0  0  0  0
 13 10  1  0  0  0  0
M  END
>  <minimizedAffinity>
-3.43453813

$$$$

 OpenBabel03212520103D

 13 13  0  0  0  0  0  0  0  0999 V2000
   39.5860   74.2310   61.1770 C   0  0  0  0  0  0  0  0  0  0  0  0
   40.3350   75.1320   60.4060 C   0  0  0  0  0  0  0  0  0  0  0  0
   41.3840   74.6420   59.6290 C   0  0  0  0  0  0  0  0  0  0  0  0
   41.6250   73.2870   59.6660 N   0  0  0  0  0  0  0  0  0  0  0  0
   40.8920   72.4450   60.4130 C   0  0  0  0  0  0  0  0  0  0  0  0
   39.8740   72.9070   61.1690 N   0  0  0  0  0  0  0  0  0  0  0  0
   38.7630   74.5560   61.7960 H   0  0  0  0  0  0  0  0  0  0  0  0
   41.9690   75.3250   59.0310 H   0  0  0  0  0  0  0  0  0  0  0  0
   41.1030   71.3790   60.4230 H   0  0  0  0  0  0  0  0  0  0  0  0
   39.9950   76.5770   60.4360 C   0  0  0  0  0  0  0  0  0  0  0  0
   41.1700   77.2790   60.2310 F   0  0  0  0  0  0  0  0  0  0  0  0
   39.0430   76.8570   59.4820 F   0  0  0  0  0  0  0  0  0  0  0  0
   39.5230   76.8750   61.7070 F   0  0  0  0  0  0  0  0  0  0  0  0
  1  7  1  0  0  0  0
  2 10  1  0  0  0  0
  2  1  2  0  0  0  0
  3  4  2  0  0  0  0
  3  2  1  0  0  0  0
  4  5  1  0  0  0  0
  5  9  1  0  0  0  0
  5  6  2  0  0  0  0
  6  1  1  0  0  0  0
  8  3  1  0  0  0  0
 10 13  1  0  0  0  0
 11 10  1  0  0  0  0
 12 10  1  0  0  0  0
M  END
>  <minimizedAffinity>
-3.40546203

$$$$

 OpenBabel03212520103D

 13 13  0  0  0  0  0  0  0  0999 V2000
   39.5730   72.8440   59.4580 C   0  0  0  0  0  0  0  0  0  0  0  0
   38.8600   74.0490   59.5480 C   0  0  0  0  0  0  0  0  0  0  0  0
   37.9440   74.3650   58.5460 C   0  0  0  0  0  0  0  0  0  0  0  0
   37.7920   73.4660   57.5150 N   0  0  0  0  0  0  0  0  0  0  0  0
   38.4870   72.3170   57.4520 C   0  0  0  0  0  0  0  0  0  0  0  0
   39.3760   72.0000   58.4160 N   0  0  0  0  0  0  0  0  0  0  0  0
   40.2940   72.5490   60.2060 H   0  0  0  0  0  0  0  0  0  0  0  0
   37.3890   75.2890   58.6040 H   0  0  0  0  0  0  0  0  0  0  0  0
   38.3470   71.6250   56.6260 H   0  0  0  0  0  0  0  0  0  0  0  0
   39.0980   74.9520   60.7030 C   0  0  0  0  0  0  0  0  0  0  0  0
   38.0260   74.8050   61.5650 F   0  0  0  0  0  0  0  0  0  0  0  0
   40.2990   74.6470   61.3010 F   0  0  0  0  0  0  0  0  0  0  0  0
   39.1000   76.2560   60.2270 F   0  0  0  0  0  0  0  0  0  0  0  0
  1  2  1  0  0  0  0
  1  7  1  0  0  0  0
  2 10  1  0  0  0  0
  3  8  1  0  0  0  0
  3  2  2  0  0  0  0
  4  3  1  0  0  0  0
  5  4  2  0  0  0  0
  5  6  1  0  0  0  0
  6  1  2  0  0  0  0
  9  5  1  0  0  0  0
 10 12  1  0  0  0  0
 10 11  1  0  0  0  0
 13 10  1  0  0  0  0
M  END
>  <minimizedAffinity>
-3.40127897

$$$$

 OpenBabel03212520103D

 13 13  0  0  0  0  0  0  0  0999 V2000
   39.7790   72.6980   59.4520 C   0  0  0  0  0  0  0  0  0  0  0  0
   39.1000   73.8930   59.7360 C   0  0  0  0  0  0  0  0  0  0  0  0
   38.0880   74.3130   58.8740 C   0  0  0  0  0  0  0  0  0  0  0  0
   37.8120   73.5210   57.7820 N   0  0  0  0  0  0  0  0  0  0  0  0
   38.4770   72.3810   57.5320 C   0  0  0  0  0  0  0  0  0  0  0  0
   39.4580   71.9630   58.3590 N   0  0  0  0  0  0  0  0  0  0  0  0
   40.5700   72.3270   60.0860 H   0  0  0  0  0  0  0  0  0  0  0  0
   37.5580   75.2300   59.0810 H   0  0  0  0  0  0  0  0  0  0  0  0
   38.2390   71.7750   56.6620 H   0  0  0  0  0  0  0  0  0  0  0  0
   39.4730   74.6760   60.9410 C   0  0  0  0  0  0  0  0  0  0  0  0
   40.2710   75.7240   60.5180 F   0  0  0  0  0  0  0  0  0  0  0  0
   38.3400   75.1080   61.5930 F   0  0  0  0  0  0  0  0  0  0  0  0
   40.2320   73.8530   61.7620 F   0  0  0  0  0  0  0  0  0  0  0  0
  1  2  1  0  0  0  0
  1  7  1  0  0  0  0
  2 10  1  0  0  0  0
  3  8  1  0  0  0  0
  3  2  2  0  0  0  0
  4  3  1  0  0  0  0
  5  4  2  0  0  0  0
  5  6  1  0  0  0  0
  6  1  2  0  0  0  0
  9  5  1  0  0  0  0
 10 12  1  0  0  0  0
 10 13  1  0  0  0  0
 11 10  1  0  0  0  0
M  END
>  <minimizedAffinity>
-3.36789918

$$$$

 OpenBabel03212520103D

 13 13  0  0  0  0  0  0  0  0999 V2000
   40.4290   76.4560   60.0800 C   0  0  0  0  0  0  0  0  0  0  0  0
   40.2140   75.0830   60.2680 C   0  0  0  0  0  0  0  0  0  0  0  0
   41.2160   74.1880   59.8950 C   0  0  0  0  0  0  0  0  0  0  0  0
   42.3710   74.7110   59.3590 N   0  0  0  0  0  0  0  0  0  0  0  0
   42.5520   76.0320   59.1900 C   0  0  0  0  0  0  0  0  0  0  0  0
   41.5900   76.9080   59.5460 N   0  0  0  0  0  0  0  0  0  0  0  0
   39.6870   77.1930   60.3510 H   0  0  0  0  0  0  0  0  0  0  0  0
   41.0630   73.1280   60.0350 H   0  0  0  0  0  0  0  0  0  0  0  0
   43.4740   76.4180   58.7640 H   0  0  0  0  0  0  0  0  0  0  0  0
   38.9310   74.6190   60.8550 C   0  0  0  0  0  0  0  0  0  0  0  0
   38.0450   74.4330   59.8090 F   0  0  0  0  0  0  0  0  0  0  0  0
   39.1350   73.4670   61.5820 F   0  0  0  0  0  0  0  0  0  0  0  0
   38.4450   75.6340   61.6660 F   0  0  0  0  0  0  0  0  0  0  0  0
  1  2  1  0  0  0  0
  1  7  1  0  0  0  0
  2 10  1  0  0  0  0
  3  8  1  0  0  0  0
  3  2  2  0  0  0  0
  4  3  1  0  0  0  0
  5  4  2  0  0  0  0
  5  6  1  0  0  0  0
  6  1  2  0  0  0  0
  9  5  1  0  0  0  0
 10 12  1  0  0  0  0
 10 13  1  0  0  0  0
 11 10  1  0  0  0  0
M  END
>  <minimizedAffinity>
-3.35249114

$$$$
