
 OpenBabel03212521033D

 23 24  0  0  0  0  0  0  0  0999 V2000
   41.9870   84.1970   61.7690 C   0  0  0  0  0  0  0  0  0  0  0  0
   42.4220   84.7370   62.9730 C   0  0  0  0  0  0  0  0  0  0  0  0
   41.8190   84.4540   64.1700 C   0  0  0  0  0  0  0  0  0  0  0  0
   40.7130   83.5800   64.1690 C   0  0  0  0  0  0  0  0  0  0  0  0
   40.2810   83.0410   62.9650 C   0  0  0  0  0  0  0  0  0  0  0  0
   40.9050   83.3410   61.7720 C   0  0  0  0  0  0  0  0  0  0  0  0
   43.2770   85.4070   62.9330 H   0  0  0  0  0  0  0  0  0  0  0  0
   42.1540   84.8730   65.1080 H   0  0  0  0  0  0  0  0  0  0  0  0
   40.2700   83.3850   65.1260 H   0  0  0  0  0  0  0  0  0  0  0  0
   39.4280   82.3840   63.0670 H   0  0  0  0  0  0  0  0  0  0  0  0
   44.4460   84.3010   59.0560 C   0  0  0  0  0  0  0  0  0  0  0  0
   43.9240   85.2550   58.1900 C   0  0  0  0  0  0  0  0  0  0  0  0
   42.7200   85.8620   58.5480 C   0  0  0  0  0  0  0  0  0  0  0  0
   42.1290   85.4980   59.7040 N   0  0  0  0  0  0  0  0  0  0  0  0
   42.6590   84.5550   60.5410 C   0  0  0  0  0  0  0  0  0  0  0  0
   43.7970   83.9950   60.1840 N   0  0  0  0  0  0  0  0  0  0  0  0
   45.3810   83.7960   58.8280 H   0  0  0  0  0  0  0  0  0  0  0  0
   44.4180   85.5250   57.2770 H   0  0  0  0  0  0  0  0  0  0  0  0
   42.2450   86.6250   57.9160 H   0  0  0  0  0  0  0  0  0  0  0  0
   40.3420   82.6620   60.5870 C   0  0  0  0  0  0  0  0  0  0  0  0
   39.6330   83.5130   59.7600 F   0  0  0  0  0  0  0  0  0  0  0  0
   39.4750   81.6360   60.9540 F   0  0  0  0  0  0  0  0  0  0  0  0
   41.3150   82.0470   59.8260 F   0  0  0  0  0  0  0  0  0  0  0  0
  1  6  2  0  0  0  0
  1  2  1  0  0  0  0
  2  3  2  0  0  0  0
  3  8  1  0  0  0  0
  4  3  1  0  0  0  0
  4  9  1  0  0  0  0
  5 10  1  0  0  0  0
  5  4  2  0  0  0  0
  6  5  1  0  0  0  0
  7  2  1  0  0  0  0
 11 16  1  0  0  0  0
 12 13  1  0  0  0  0
 12 11  2  0  0  0  0
 13 14  2  0  0  0  0
 14 15  1  0  0  0  0
 15  1  1  0  0  0  0
 16 15  2  0  0  0  0
 17 11  1  0  0  0  0
 18 12  1  0  0  0  0
 19 13  1  0  0  0  0
 20 22  1  0  0  0  0
 20  6  1  0  0  0  0
 21 20  1  0  0  0  0
 23 20  1  0  0  0  0
M  END
>  <minimizedAffinity>
-4.69559479

>  <minimizedRMSD>
1.21911764

$$$$
