
 OpenBabel03212520513D

 30 32  0  0  1  0  0  0  0  0999 V2000
   42.4790   84.3150   61.8580 C   0  0  0  0  0  0  0  0  0  0  0  0
   42.3060   84.4640   63.2190 C   0  0  0  0  0  0  0  0  0  0  0  0
   41.2990   83.7790   63.8930 C   0  0  0  0  0  0  0  0  0  0  0  0
   40.4760   82.9550   63.2160 N   0  0  0  0  0  0  0  0  0  0  0  0
   40.6660   82.8250   61.8820 C   0  0  0  0  0  0  0  0  0  0  0  0
   41.6340   83.4760   61.1980 N   0  0  0  0  0  0  0  0  0  0  0  0
   42.9660   85.1280   63.7750 H   0  0  0  0  0  0  0  0  0  0  0  0
   41.2340   83.9510   64.9490 H   0  0  0  0  0  0  0  0  0  0  0  0
   45.7300   85.2980   60.5200 C   0  0  0  0  0  0  0  0  0  0  0  0
   45.4180   86.4100   59.7520 C   0  0  0  0  0  0  0  0  0  0  0  0
   44.1020   86.8320   59.6840 C   0  0  0  0  0  0  0  0  0  0  0  0
   43.1950   86.1060   60.3920 N   0  0  0  0  0  0  0  0  0  0  0  0
   43.5210   85.0300   61.1300 C   0  0  0  0  0  0  0  0  0  0  0  0
   44.7770   84.6190   61.2020 N   0  0  0  0  0  0  0  0  0  0  0  0
   47.1250   84.9800   60.5070 N   0  0  0  0  0  0  0  0  0  0  0  0
   46.1360   86.9910   59.1880 H   0  0  0  0  0  0  0  0  0  0  0  0
   43.8000   87.6940   59.1010 H   0  0  0  0  0  0  0  0  0  0  0  0
   47.3920   85.3160   61.4610 H   0  0  0  0  0  0  0  0  0  0  0  0
   47.7720   84.5520   59.8280 H   0  0  0  0  0  0  0  0  0  0  0  0
   39.7160   81.9070   61.1730 C   0  0  1  0  0  0  0  0  0  0  0  0
   40.0110   81.3810   59.8600 C   0  0  0  0  0  0  0  0  0  0  0  0
   40.3120   80.4890   61.0190 C   0  0  1  0  0  0  0  0  0  0  0  0
   38.6640   81.8570   61.5720 H   0  0  0  0  0  0  0  0  0  0  0  0
   39.2200   81.1520   59.1280 H   0  0  0  0  0  0  0  0  0  0  0  0
   40.8930   81.8580   59.3400 H   0  0  0  0  0  0  0  0  0  0  0  0
   39.6310   79.6240   61.1050 H   0  0  0  0  0  0  0  0  0  0  0  0
   41.7460   80.2490   61.3190 C   0  0  0  0  0  0  0  0  0  0  0  0
   41.9660   78.8690   61.2740 F   0  0  0  0  0  0  0  0  0  0  0  0
   42.5550   80.7990   60.3480 F   0  0  0  0  0  0  0  0  0  0  0  0
   42.1390   80.6410   62.5750 F   0  0  0  0  0  0  0  0  0  0  0  0
  1  2  1  0  0  0  0
  2  7  1  0  0  0  0
  2  3  2  0  0  0  0
  3  8  1  0  0  0  0
  4  3  1  0  0  0  0
  5  4  2  0  0  0  0
  6  1  2  0  0  0  0
  6  5  1  0  0  0  0
  9 14  1  0  0  0  0
 10  9  2  0  0  0  0
 11 10  1  0  0  0  0
 11 12  2  0  0  0  0
 12 13  1  0  0  0  0
 13 14  2  0  0  0  0
 13  1  1  0  0  0  0
 15  9  1  0  0  0  0
 15 18  1  0  0  0  0
 16 10  1  0  0  0  0
 17 11  1  0  0  0  0
 19 15  1  0  0  0  0
 20 23  1  1  0  0  0
 20  5  1  0  0  0  0
 21 22  1  0  0  0  0
 21 20  1  0  0  0  0
 22 26  1  1  0  0  0
 22 20  1  0  0  0  0
 22 27  1  0  0  0  0
 24 21  1  0  0  0  0
 25 21  1  0  0  0  0
 27 30  1  0  0  0  0
 28 27  1  0  0  0  0
 29 27  1  0  0  0  0
M  END
>  <minimizedAffinity>
-5.07748032

>  <minimizedRMSD>
2.56524992

$$$$
