
 OpenBabel03212520513D

 30 32  0  0  1  0  0  0  0  0999 V2000
   41.8260   83.9260   61.3020 C   0  0  0  0  0  0  0  0  0  0  0  0
   40.8980   84.2330   62.2760 C   0  0  0  0  0  0  0  0  0  0  0  0
   40.4160   83.2550   63.1400 C   0  0  0  0  0  0  0  0  0  0  0  0
   40.8550   81.9860   63.0330 N   0  0  0  0  0  0  0  0  0  0  0  0
   41.7650   81.7110   62.0700 C   0  0  0  0  0  0  0  0  0  0  0  0
   42.2540   82.6370   61.2160 N   0  0  0  0  0  0  0  0  0  0  0  0
   40.5370   85.2570   62.3710 H   0  0  0  0  0  0  0  0  0  0  0  0
   39.6980   83.5780   63.8680 H   0  0  0  0  0  0  0  0  0  0  0  0
   43.7520   86.6930   59.9020 C   0  0  0  0  0  0  0  0  0  0  0  0
   43.2480   86.7930   58.6140 C   0  0  0  0  0  0  0  0  0  0  0  0
   42.2510   85.9200   58.2130 C   0  0  0  0  0  0  0  0  0  0  0  0
   41.8350   85.0120   59.1360 N   0  0  0  0  0  0  0  0  0  0  0  0
   42.3390   84.9340   60.3800 C   0  0  0  0  0  0  0  0  0  0  0  0
   43.2920   85.7630   60.7720 N   0  0  0  0  0  0  0  0  0  0  0  0
   44.7690   87.6610   60.1830 N   0  0  0  0  0  0  0  0  0  0  0  0
   43.5750   87.5140   57.8760 H   0  0  0  0  0  0  0  0  0  0  0  0
   41.8200   85.9510   57.2200 H   0  0  0  0  0  0  0  0  0  0  0  0
   44.2260   88.3170   60.7890 H   0  0  0  0  0  0  0  0  0  0  0  0
   45.7600   87.7760   59.9240 H   0  0  0  0  0  0  0  0  0  0  0  0
   42.2130   80.2810   61.9840 C   0  0  1  0  0  0  0  0  0  0  0  0
   41.2920   79.1870   62.1840 C   0  0  0  0  0  0  0  0  0  0  0  0
   41.5800   79.5660   60.7690 C   0  0  1  0  0  0  0  0  0  0  0  0
   43.3230   80.0930   62.0240 H   0  0  0  0  0  0  0  0  0  0  0  0
   41.6100   78.2240   62.6140 H   0  0  0  0  0  0  0  0  0  0  0  0
   40.2810   79.4800   62.5960 H   0  0  0  0  0  0  0  0  0  0  0  0
   42.1900   78.8240   60.2240 H   0  0  0  0  0  0  0  0  0  0  0  0
   40.4770   80.2130   60.0160 C   0  0  0  0  0  0  0  0  0  0  0  0
   41.0450   81.1560   59.1520 F   0  0  0  0  0  0  0  0  0  0  0  0
   39.8210   79.3060   59.2150 F   0  0  0  0  0  0  0  0  0  0  0  0
   39.5940   80.9210   60.7960 F   0  0  0  0  0  0  0  0  0  0  0  0
  1  2  1  0  0  0  0
  2  7  1  0  0  0  0
  2  3  2  0  0  0  0
  3  8  1  0  0  0  0
  4  3  1  0  0  0  0
  5  4  2  0  0  0  0
  6  1  2  0  0  0  0
  6  5  1  0  0  0  0
  9 15  1  0  0  0  0
  9 14  1  0  0  0  0
 10  9  2  0  0  0  0
 11 10  1  0  0  0  0
 11 12  2  0  0  0  0
 12 13  1  0  0  0  0
 13 14  2  0  0  0  0
 13  1  1  0  0  0  0
 15 18  1  0  0  0  0
 16 10  1  0  0  0  0
 17 11  1  0  0  0  0
 19 15  1  0  0  0  0
 20 23  1  1  0  0  0
 20  5  1  0  0  0  0
 20 21  1  0  0  0  0
 21 25  1  0  0  0  0
 21 24  1  0  0  0  0
 22 26  1  6  0  0  0
 22 20  1  0  0  0  0
 22 21  1  0  0  0  0
 27 22  1  0  0  0  0
 27 30  1  0  0  0  0
 28 27  1  0  0  0  0
 29 27  1  0  0  0  0
M  END
>  <minimizedAffinity>
-4.97249794

>  <minimizedRMSD>
0.979360282

$$$$
