
 OpenBabel03212521033D

 23 24  0  0  0  0  0  0  0  0999 V2000
   41.7180   84.1340   61.7660 C   0  0  0  0  0  0  0  0  0  0  0  0
   42.7550   84.3380   62.6670 C   0  0  0  0  0  0  0  0  0  0  0  0
   42.5670   84.3230   64.0240 C   0  0  0  0  0  0  0  0  0  0  0  0
   41.2660   84.0890   64.5140 C   0  0  0  0  0  0  0  0  0  0  0  0
   40.2330   83.8840   63.6110 C   0  0  0  0  0  0  0  0  0  0  0  0
   40.4460   83.9040   62.2490 C   0  0  0  0  0  0  0  0  0  0  0  0
   43.7430   84.5150   62.2520 H   0  0  0  0  0  0  0  0  0  0  0  0
   43.3710   84.4820   64.7280 H   0  0  0  0  0  0  0  0  0  0  0  0
   41.1620   84.0850   65.5820 H   0  0  0  0  0  0  0  0  0  0  0  0
   39.2740   83.7140   64.0830 H   0  0  0  0  0  0  0  0  0  0  0  0
   42.5220   83.1070   58.3420 C   0  0  0  0  0  0  0  0  0  0  0  0
   42.4930   84.3030   57.6360 C   0  0  0  0  0  0  0  0  0  0  0  0
   42.1950   85.4660   58.3480 C   0  0  0  0  0  0  0  0  0  0  0  0
   41.9530   85.3720   59.6700 N   0  0  0  0  0  0  0  0  0  0  0  0
   41.9860   84.1830   60.3460 C   0  0  0  0  0  0  0  0  0  0  0  0
   42.2690   83.0980   59.6550 N   0  0  0  0  0  0  0  0  0  0  0  0
   42.7480   82.1700   57.8390 H   0  0  0  0  0  0  0  0  0  0  0  0
   42.6900   84.3470   56.5830 H   0  0  0  0  0  0  0  0  0  0  0  0
   42.1530   86.4500   57.8600 H   0  0  0  0  0  0  0  0  0  0  0  0
   39.2480   83.6390   61.4260 C   0  0  0  0  0  0  0  0  0  0  0  0
   38.9850   84.6400   60.5120 F   0  0  0  0  0  0  0  0  0  0  0  0
   38.1110   83.5000   62.2160 F   0  0  0  0  0  0  0  0  0  0  0  0
   39.3460   82.4490   60.7330 F   0  0  0  0  0  0  0  0  0  0  0  0
  1  6  2  0  0  0  0
  1  2  1  0  0  0  0
  2  3  2  0  0  0  0
  3  4  1  0  0  0  0
  3  8  1  0  0  0  0
  4  9  1  0  0  0  0
  5 10  1  0  0  0  0
  5  4  2  0  0  0  0
  6  5  1  0  0  0  0
  7  2  1  0  0  0  0
 11 16  1  0  0  0  0
 12 11  2  0  0  0  0
 12 13  1  0  0  0  0
 13 14  2  0  0  0  0
 14 15  1  0  0  0  0
 15  1  1  0  0  0  0
 16 15  2  0  0  0  0
 17 11  1  0  0  0  0
 18 12  1  0  0  0  0
 19 13  1  0  0  0  0
 20 22  1  0  0  0  0
 20  6  1  0  0  0  0
 21 20  1  0  0  0  0
 23 20  1  0  0  0  0
M  END
>  <minimizedAffinity>
-5.18510151

>  <minimizedRMSD>
1.12451601

$$$$
