
 OpenBabel03212521063D

 31 33  0  0  0  0  0  0  0  0999 V2000
   41.8040   84.2370   61.5530 C   0  0  0  0  0  0  0  0  0  0  0  0
   41.4600   83.9450   62.8640 C   0  0  0  0  0  0  0  0  0  0  0  0
   40.1870   83.5310   63.2080 C   0  0  0  0  0  0  0  0  0  0  0  0
   39.2290   83.4060   62.2090 C   0  0  0  0  0  0  0  0  0  0  0  0
   39.5650   83.6980   60.8850 C   0  0  0  0  0  0  0  0  0  0  0  0
   40.8420   84.1100   60.5620 C   0  0  0  0  0  0  0  0  0  0  0  0
   42.2220   84.0500   63.6270 H   0  0  0  0  0  0  0  0  0  0  0  0
   39.9710   83.3170   64.2410 H   0  0  0  0  0  0  0  0  0  0  0  0
   38.2300   83.0840   62.4610 H   0  0  0  0  0  0  0  0  0  0  0  0
   38.7890   83.5870   60.1350 H   0  0  0  0  0  0  0  0  0  0  0  0
   45.3270   84.1600   60.5880 C   0  0  0  0  0  0  0  0  0  0  0  0
   45.7160   85.4900   60.6910 C   0  0  0  0  0  0  0  0  0  0  0  0
   44.7510   86.4300   61.0990 C   0  0  0  0  0  0  0  0  0  0  0  0
   43.5020   85.9870   61.3680 N   0  0  0  0  0  0  0  0  0  0  0  0
   43.1580   84.6670   61.2550 C   0  0  0  0  0  0  0  0  0  0  0  0
   44.0690   83.7930   60.8710 N   0  0  0  0  0  0  0  0  0  0  0  0
   46.0150   83.3800   60.2800 H   0  0  0  0  0  0  0  0  0  0  0  0
   46.7110   85.7870   60.4680 H   0  0  0  0  0  0  0  0  0  0  0  0
   45.0000   87.4890   61.1970 H   0  0  0  0  0  0  0  0  0  0  0  0
   41.1590   84.4030   59.1850 C   0  0  0  0  0  0  0  0  0  0  0  0
   40.7660   85.7010   58.8250 C   0  0  0  0  0  0  0  0  0  0  0  0
   40.9780   86.1890   57.5430 C   0  0  0  0  0  0  0  0  0  0  0  0
   41.5780   85.3580   56.6630 N   0  0  0  0  0  0  0  0  0  0  0  0
   41.9540   84.1080   57.0190 C   0  0  0  0  0  0  0  0  0  0  0  0
   41.7480   83.6430   58.2540 N   0  0  0  0  0  0  0  0  0  0  0  0
   40.2800   86.4170   59.4810 H   0  0  0  0  0  0  0  0  0  0  0  0
   40.6850   87.1820   57.2380 H   0  0  0  0  0  0  0  0  0  0  0  0
   42.6130   83.2300   56.0130 C   0  0  0  0  0  0  0  0  0  0  0  0
   43.6010   82.4390   56.5530 F   0  0  0  0  0  0  0  0  0  0  0  0
   41.6770   82.5240   55.2890 F   0  0  0  0  0  0  0  0  0  0  0  0
   43.2620   84.0470   55.0780 F   0  0  0  0  0  0  0  0  0  0  0  0
  1  2  1  0  0  0  0
  2  3  2  0  0  0  0
  2  7  1  0  0  0  0
  3  8  1  0  0  0  0
  4  9  1  0  0  0  0
  4  3  1  0  0  0  0
  5  4  2  0  0  0  0
  6  5  1  0  0  0  0
  6  1  2  0  0  0  0
 10  5  1  0  0  0  0
 11 12  2  0  0  0  0
 11 16  1  0  0  0  0
 12 13  1  0  0  0  0
 13 19  1  0  0  0  0
 13 14  2  0  0  0  0
 15 14  1  0  0  0  0
 15  1  1  0  0  0  0
 16 15  2  0  0  0  0
 17 11  1  0  0  0  0
 18 12  1  0  0  0  0
 20  6  1  0  0  0  0
 21 20  1  0  0  0  0
 21 26  1  0  0  0  0
 22 21  2  0  0  0  0
 23 24  2  0  0  0  0
 23 22  1  0  0  0  0
 24 25  1  0  0  0  0
 25 20  2  0  0  0  0
 27 22  1  0  0  0  0
 28 29  1  0  0  0  0
 28 24  1  0  0  0  0
 30 28  1  0  0  0  0
 31 28  1  0  0  0  0
M  END
>  <minimizedAffinity>
-5.34190559

>  <minimizedRMSD>
0.218077481

$$$$
