
 OpenBabel03212520513D

 30 32  0  0  1  0  0  0  0  0999 V2000
   41.8560   83.9070   61.2840 C   0  0  0  0  0  0  0  0  0  0  0  0
   40.9300   84.1980   62.2650 C   0  0  0  0  0  0  0  0  0  0  0  0
   40.4630   83.2090   63.1250 C   0  0  0  0  0  0  0  0  0  0  0  0
   40.9150   81.9450   63.0080 N   0  0  0  0  0  0  0  0  0  0  0  0
   41.8240   81.6860   62.0390 C   0  0  0  0  0  0  0  0  0  0  0  0
   42.2980   82.6240   61.1880 N   0  0  0  0  0  0  0  0  0  0  0  0
   40.5580   85.2160   62.3680 H   0  0  0  0  0  0  0  0  0  0  0  0
   39.7450   83.5190   63.8580 H   0  0  0  0  0  0  0  0  0  0  0  0
   43.7390   86.7090   59.8940 C   0  0  0  0  0  0  0  0  0  0  0  0
   43.2320   86.8050   58.6060 C   0  0  0  0  0  0  0  0  0  0  0  0
   42.2490   85.9190   58.2030 C   0  0  0  0  0  0  0  0  0  0  0  0
   41.8470   85.0010   59.1220 N   0  0  0  0  0  0  0  0  0  0  0  0
   42.3530   84.9260   60.3650 C   0  0  0  0  0  0  0  0  0  0  0  0
   43.2930   85.7690   60.7610 N   0  0  0  0  0  0  0  0  0  0  0  0
   44.7410   87.6910   60.1780 N   0  0  0  0  0  0  0  0  0  0  0  0
   43.5480   87.5340   57.8710 H   0  0  0  0  0  0  0  0  0  0  0  0
   41.8170   85.9470   57.2100 H   0  0  0  0  0  0  0  0  0  0  0  0
   44.1880   88.3370   60.7870 H   0  0  0  0  0  0  0  0  0  0  0  0
   45.7290   87.8230   59.9200 H   0  0  0  0  0  0  0  0  0  0  0  0
   42.2870   80.2630   61.9410 C   0  0  1  0  0  0  0  0  0  0  0  0
   41.3880   79.1570   62.1770 C   0  0  0  0  0  0  0  0  0  0  0  0
   41.6220   79.5350   60.7520 C   0  0  1  0  0  0  0  0  0  0  0  0
   43.4000   80.0890   61.9440 H   0  0  0  0  0  0  0  0  0  0  0  0
   41.7340   78.2000   62.5990 H   0  0  0  0  0  0  0  0  0  0  0  0
   40.3890   79.4390   62.6230 H   0  0  0  0  0  0  0  0  0  0  0  0
   42.2220   78.7980   60.1880 H   0  0  0  0  0  0  0  0  0  0  0  0
   40.4850   80.1650   60.0360 C   0  0  0  0  0  0  0  0  0  0  0  0
   41.0080   81.1330   59.1720 F   0  0  0  0  0  0  0  0  0  0  0  0
   39.8320   79.2520   59.2360 F   0  0  0  0  0  0  0  0  0  0  0  0
   39.6040   80.8390   60.8470 F   0  0  0  0  0  0  0  0  0  0  0  0
  1  2  1  0  0  0  0
  2  7  1  0  0  0  0
  2  3  2  0  0  0  0
  3  8  1  0  0  0  0
  4  3  1  0  0  0  0
  5  4  2  0  0  0  0
  6  1  2  0  0  0  0
  6  5  1  0  0  0  0
  9 15  1  0  0  0  0
  9 14  1  0  0  0  0
 10  9  2  0  0  0  0
 11 10  1  0  0  0  0
 11 12  2  0  0  0  0
 12 13  1  0  0  0  0
 13 14  2  0  0  0  0
 13  1  1  0  0  0  0
 15 18  1  0  0  0  0
 16 10  1  0  0  0  0
 17 11  1  0  0  0  0
 19 15  1  0  0  0  0
 20 23  1  1  0  0  0
 20  5  1  0  0  0  0
 20 21  1  0  0  0  0
 21 24  1  0  0  0  0
 21 25  1  0  0  0  0
 22 26  1  6  0  0  0
 22 20  1  0  0  0  0
 22 21  1  0  0  0  0
 27 22  1  0  0  0  0
 27 30  1  0  0  0  0
 28 27  1  0  0  0  0
 29 27  1  0  0  0  0
M  END
>  <minimizedAffinity>
-4.9553833

>  <minimizedRMSD>
0.925156474

$$$$
