
 OpenBabel03212521033D

 23 24  0  0  0  0  0  0  0  0999 V2000
   42.2540   84.3820   62.0820 C   0  0  0  0  0  0  0  0  0  0  0  0
   42.5070   84.6340   63.4240 C   0  0  0  0  0  0  0  0  0  0  0  0
   41.6090   84.3330   64.4140 C   0  0  0  0  0  0  0  0  0  0  0  0
   40.3820   83.7450   64.0440 C   0  0  0  0  0  0  0  0  0  0  0  0
   40.1320   83.4940   62.7030 C   0  0  0  0  0  0  0  0  0  0  0  0
   41.0530   83.8060   61.7240 C   0  0  0  0  0  0  0  0  0  0  0  0
   43.4630   85.0880   63.6700 H   0  0  0  0  0  0  0  0  0  0  0  0
   41.8020   84.5280   65.4580 H   0  0  0  0  0  0  0  0  0  0  0  0
   39.7080   83.5250   64.8480 H   0  0  0  0  0  0  0  0  0  0  0  0
   39.1670   83.0430   62.5200 H   0  0  0  0  0  0  0  0  0  0  0  0
   45.1450   84.2280   59.8360 C   0  0  0  0  0  0  0  0  0  0  0  0
   45.1110   85.4570   59.1890 C   0  0  0  0  0  0  0  0  0  0  0  0
   44.0850   86.3390   59.5320 C   0  0  0  0  0  0  0  0  0  0  0  0
   43.1890   85.9600   60.4640 N   0  0  0  0  0  0  0  0  0  0  0  0
   43.2400   84.7440   61.0890 C   0  0  0  0  0  0  0  0  0  0  0  0
   44.2160   83.9270   60.7500 N   0  0  0  0  0  0  0  0  0  0  0  0
   45.9210   83.5020   59.6090 H   0  0  0  0  0  0  0  0  0  0  0  0
   45.8390   85.7320   58.4520 H   0  0  0  0  0  0  0  0  0  0  0  0
   43.9920   87.3300   59.0640 H   0  0  0  0  0  0  0  0  0  0  0  0
   40.6460   83.4470   60.3500 C   0  0  0  0  0  0  0  0  0  0  0  0
   39.4200   82.8110   60.2950 F   0  0  0  0  0  0  0  0  0  0  0  0
   41.5710   82.5970   59.7510 F   0  0  0  0  0  0  0  0  0  0  0  0
   40.5880   84.5470   59.5200 F   0  0  0  0  0  0  0  0  0  0  0  0
  1  2  1  0  0  0  0
  2  7  1  0  0  0  0
  2  3  2  0  0  0  0
  3  8  1  0  0  0  0
  4  3  1  0  0  0  0
  4  9  1  0  0  0  0
  5  4  2  0  0  0  0
  6  1  2  0  0  0  0
  6  5  1  0  0  0  0
 10  5  1  0  0  0  0
 11 16  1  0  0  0  0
 12 13  1  0  0  0  0
 12 11  2  0  0  0  0
 13 14  2  0  0  0  0
 14 15  1  0  0  0  0
 15  1  1  0  0  0  0
 16 15  2  0  0  0  0
 17 11  1  0  0  0  0
 18 12  1  0  0  0  0
 19 13  1  0  0  0  0
 20  6  1  0  0  0  0
 21 20  1  0  0  0  0
 22 20  1  0  0  0  0
 23 20  1  0  0  0  0
M  END
>  <minimizedAffinity>
-4.47141695

>  <minimizedRMSD>
1.44833839

$$$$
