
 OpenBabel03212521063D

 31 33  0  0  0  0  0  0  0  0999 V2000
   41.7960   84.1480   61.5520 C   0  0  0  0  0  0  0  0  0  0  0  0
   41.4460   83.8780   62.8650 C   0  0  0  0  0  0  0  0  0  0  0  0
   40.1540   83.5390   63.2200 C   0  0  0  0  0  0  0  0  0  0  0  0
   39.1830   83.4680   62.2280 C   0  0  0  0  0  0  0  0  0  0  0  0
   39.5250   83.7380   60.9010 C   0  0  0  0  0  0  0  0  0  0  0  0
   40.8200   84.0750   60.5670 C   0  0  0  0  0  0  0  0  0  0  0  0
   42.2190   83.9400   63.6230 H   0  0  0  0  0  0  0  0  0  0  0  0
   39.9340   83.3380   64.2550 H   0  0  0  0  0  0  0  0  0  0  0  0
   38.1690   83.2030   62.4880 H   0  0  0  0  0  0  0  0  0  0  0  0
   38.7380   83.6710   60.1570 H   0  0  0  0  0  0  0  0  0  0  0  0
   45.2760   83.8880   60.4690 C   0  0  0  0  0  0  0  0  0  0  0  0
   45.7670   85.1740   60.6590 C   0  0  0  0  0  0  0  0  0  0  0  0
   44.8880   86.1470   61.1670 C   0  0  0  0  0  0  0  0  0  0  0  0
   43.6160   85.7780   61.4430 N   0  0  0  0  0  0  0  0  0  0  0  0
   43.1700   84.5000   61.2420 C   0  0  0  0  0  0  0  0  0  0  0  0
   44.0020   83.5930   60.7640 N   0  0  0  0  0  0  0  0  0  0  0  0
   45.8950   83.0860   60.0810 H   0  0  0  0  0  0  0  0  0  0  0  0
   46.7750   85.4130   60.4260 H   0  0  0  0  0  0  0  0  0  0  0  0
   45.2180   87.1740   61.3360 H   0  0  0  0  0  0  0  0  0  0  0  0
   41.1440   84.3490   59.1880 C   0  0  0  0  0  0  0  0  0  0  0  0
   41.0230   85.7130   58.8850 C   0  0  0  0  0  0  0  0  0  0  0  0
   41.2870   86.1950   57.6100 C   0  0  0  0  0  0  0  0  0  0  0  0
   41.6660   85.2910   56.6810 N   0  0  0  0  0  0  0  0  0  0  0  0
   41.7800   83.9770   56.9810 C   0  0  0  0  0  0  0  0  0  0  0  0
   41.5240   83.5180   58.2100 N   0  0  0  0  0  0  0  0  0  0  0  0
   40.7240   86.4890   59.5830 H   0  0  0  0  0  0  0  0  0  0  0  0
   41.2020   87.2390   57.3490 H   0  0  0  0  0  0  0  0  0  0  0  0
   42.2000   83.0190   55.9220 C   0  0  0  0  0  0  0  0  0  0  0  0
   43.4470   82.4800   56.1460 F   0  0  0  0  0  0  0  0  0  0  0  0
   41.2240   82.0720   55.7010 F   0  0  0  0  0  0  0  0  0  0  0  0
   42.3120   83.7230   54.7160 F   0  0  0  0  0  0  0  0  0  0  0  0
  1  2  1  0  0  0  0
  2  3  2  0  0  0  0
  2  7  1  0  0  0  0
  3  8  1  0  0  0  0
  4  9  1  0  0  0  0
  4  3  1  0  0  0  0
  5  4  2  0  0  0  0
  6  5  1  0  0  0  0
  6  1  2  0  0  0  0
 10  5  1  0  0  0  0
 11 12  2  0  0  0  0
 11 16  1  0  0  0  0
 12 13  1  0  0  0  0
 13 19  1  0  0  0  0
 13 14  2  0  0  0  0
 15 14  1  0  0  0  0
 15  1  1  0  0  0  0
 16 15  2  0  0  0  0
 17 11  1  0  0  0  0
 18 12  1  0  0  0  0
 20  6  1  0  0  0  0
 21 20  1  0  0  0  0
 21 26  1  0  0  0  0
 22 21  2  0  0  0  0
 23 24  2  0  0  0  0
 23 22  1  0  0  0  0
 24 25  1  0  0  0  0
 25 20  2  0  0  0  0
 27 22  1  0  0  0  0
 28 29  1  0  0  0  0
 28 24  1  0  0  0  0
 30 28  1  0  0  0  0
 31 28  1  0  0  0  0
M  END
>  <minimizedAffinity>
-5.4265976

>  <minimizedRMSD>
0.462354243

$$$$
