
 OpenBabel03212520123D

 26 27  0  0  0  0  0  0  0  0999 V2000
   42.5400   84.1510   58.5340 Cl  0  0  0  0  0  0  0  0  0  0  0  0
   41.4920   82.7570   58.2680 C   0  0  0  0  0  0  0  0  0  0  0  0
   40.8210   82.1230   59.3010 C   0  0  0  0  0  0  0  0  0  0  0  0
   40.0350   81.0390   58.9220 C   0  0  0  0  0  0  0  0  0  0  0  0
   39.8840   80.5670   57.6350 C   0  0  0  0  0  0  0  0  0  0  0  0
   40.5640   81.2220   56.6560 C   0  0  0  0  0  0  0  0  0  0  0  0
   40.4440   80.7050   54.9740 Cl  0  0  0  0  0  0  0  0  0  0  0  0
   41.3530   82.3000   56.9760 C   0  0  0  0  0  0  0  0  0  0  0  0
   39.5130   80.5520   59.7520 H   0  0  0  0  0  0  0  0  0  0  0  0
   39.2480   79.7110   57.4390 H   0  0  0  0  0  0  0  0  0  0  0  0
   41.9460   82.2300   61.5680 C   0  0  0  0  0  0  0  0  0  0  0  0
   40.9700   82.6010   60.6290 C   0  0  0  0  0  0  0  0  0  0  0  0
   40.0270   83.5530   61.0320 C   0  0  0  0  0  0  0  0  0  0  0  0
   40.1120   84.0530   62.2910 N   0  0  0  0  0  0  0  0  0  0  0  0
   41.0640   83.6700   63.1600 C   0  0  0  0  0  0  0  0  0  0  0  0
   41.9760   82.7620   62.7980 N   0  0  0  0  0  0  0  0  0  0  0  0
   42.6570   81.4930   61.2180 H   0  0  0  0  0  0  0  0  0  0  0  0
   39.2370   83.9090   60.3970 H   0  0  0  0  0  0  0  0  0  0  0  0
   41.0140   84.3200   64.5070 C   0  0  0  0  0  0  0  0  0  0  0  0
   40.6510   85.6530   64.4190 F   0  0  0  0  0  0  0  0  0  0  0  0
   40.0770   83.6840   65.2950 F   0  0  0  0  0  0  0  0  0  0  0  0
   42.2560   84.3030   65.1190 F   0  0  0  0  0  0  0  0  0  0  0  0
   42.0830   82.9910   55.8650 C   0  0  0  0  0  0  0  0  0  0  0  0
   41.7430   82.4800   54.6440 F   0  0  0  0  0  0  0  0  0  0  0  0
   43.4290   82.7940   56.0380 F   0  0  0  0  0  0  0  0  0  0  0  0
   41.8380   84.3430   55.9090 F   0  0  0  0  0  0  0  0  0  0  0  0
  2  1  1  0  0  0  0
  2  3  1  0  0  0  0
  3 12  1  0  0  0  0
  4  3  2  0  0  0  0
  4  9  1  0  0  0  0
  5  4  1  0  0  0  0
  6  8  1  0  0  0  0
  6  5  2  0  0  0  0
  7  6  1  0  0  0  0
  8  2  2  0  0  0  0
 10  5  1  0  0  0  0
 11 16  1  0  0  0  0
 12 13  1  0  0  0  0
 12 11  2  0  0  0  0
 13 14  2  0  0  0  0
 14 15  1  0  0  0  0
 15 19  1  0  0  0  0
 16 15  2  0  0  0  0
 17 11  1  0  0  0  0
 18 13  1  0  0  0  0
 19 22  1  0  0  0  0
 19 21  1  0  0  0  0
 20 19  1  0  0  0  0
 23 26  1  0  0  0  0
 23 25  1  0  0  0  0
 23  8  1  0  0  0  0
 24 23  1  0  0  0  0
M  END
>  <minimizedAffinity>
-5.39660358

>  <minimizedRMSD>
0.535092771

$$$$
