
 OpenBabel03212521063D

 31 33  0  0  0  0  0  0  0  0999 V2000
   41.8110   84.2260   61.5690 C   0  0  0  0  0  0  0  0  0  0  0  0
   41.4710   83.9530   62.8840 C   0  0  0  0  0  0  0  0  0  0  0  0
   40.2000   83.5390   63.2380 C   0  0  0  0  0  0  0  0  0  0  0  0
   39.2400   83.3960   62.2430 C   0  0  0  0  0  0  0  0  0  0  0  0
   39.5720   83.6700   60.9140 C   0  0  0  0  0  0  0  0  0  0  0  0
   40.8460   84.0810   60.5820 C   0  0  0  0  0  0  0  0  0  0  0  0
   42.2350   84.0710   63.6440 H   0  0  0  0  0  0  0  0  0  0  0  0
   39.9880   83.3390   64.2740 H   0  0  0  0  0  0  0  0  0  0  0  0
   38.2430   83.0740   62.5020 H   0  0  0  0  0  0  0  0  0  0  0  0
   38.7940   83.5450   60.1680 H   0  0  0  0  0  0  0  0  0  0  0  0
   45.3190   84.1550   60.5530 C   0  0  0  0  0  0  0  0  0  0  0  0
   45.7160   85.4810   60.6790 C   0  0  0  0  0  0  0  0  0  0  0  0
   44.7610   86.4160   61.1190 C   0  0  0  0  0  0  0  0  0  0  0  0
   43.5130   85.9730   61.3960 N   0  0  0  0  0  0  0  0  0  0  0  0
   43.1620   84.6570   61.2610 C   0  0  0  0  0  0  0  0  0  0  0  0
   44.0640   83.7880   60.8460 N   0  0  0  0  0  0  0  0  0  0  0  0
   46.0000   83.3790   60.2190 H   0  0  0  0  0  0  0  0  0  0  0  0
   46.7090   85.7790   60.4480 H   0  0  0  0  0  0  0  0  0  0  0  0
   45.0150   87.4720   61.2360 H   0  0  0  0  0  0  0  0  0  0  0  0
   41.1590   84.3560   59.2000 C   0  0  0  0  0  0  0  0  0  0  0  0
   40.8620   85.6830   58.8520 C   0  0  0  0  0  0  0  0  0  0  0  0
   41.0860   86.1590   57.5680 C   0  0  0  0  0  0  0  0  0  0  0  0
   41.6030   85.2880   56.6740 N   0  0  0  0  0  0  0  0  0  0  0  0
   41.8860   84.0100   57.0180 C   0  0  0  0  0  0  0  0  0  0  0  0
   41.6680   83.5570   58.2550 N   0  0  0  0  0  0  0  0  0  0  0  0
   40.4470   86.4310   59.5210 H   0  0  0  0  0  0  0  0  0  0  0  0
   40.8670   87.1740   57.2720 H   0  0  0  0  0  0  0  0  0  0  0  0
   42.4540   83.0880   55.9960 C   0  0  0  0  0  0  0  0  0  0  0  0
   42.0940   81.7750   56.1950 F   0  0  0  0  0  0  0  0  0  0  0  0
   42.1900   83.5440   54.7230 F   0  0  0  0  0  0  0  0  0  0  0  0
   43.8500   83.1130   56.1140 F   0  0  0  0  0  0  0  0  0  0  0  0
  1  2  1  0  0  0  0
  2  3  2  0  0  0  0
  2  7  1  0  0  0  0
  3  8  1  0  0  0  0
  4  9  1  0  0  0  0
  4  3  1  0  0  0  0
  5  4  2  0  0  0  0
  6  5  1  0  0  0  0
  6  1  2  0  0  0  0
 10  5  1  0  0  0  0
 11 12  2  0  0  0  0
 11 16  1  0  0  0  0
 12 13  1  0  0  0  0
 13 19  1  0  0  0  0
 13 14  2  0  0  0  0
 15 14  1  0  0  0  0
 15  1  1  0  0  0  0
 16 15  2  0  0  0  0
 17 11  1  0  0  0  0
 18 12  1  0  0  0  0
 20  6  1  0  0  0  0
 21 20  1  0  0  0  0
 21 26  1  0  0  0  0
 22 21  2  0  0  0  0
 23 24  2  0  0  0  0
 23 22  1  0  0  0  0
 24 25  1  0  0  0  0
 25 20  2  0  0  0  0
 27 22  1  0  0  0  0
 28 31  1  0  0  0  0
 28 29  1  0  0  0  0
 28 24  1  0  0  0  0
 30 28  1  0  0  0  0
M  END
>  <minimizedAffinity>
-5.34041548

>  <minimizedRMSD>
0.309105903

$$$$
