
 OpenBabel03212521023D

 23 24  0  0  0  0  0  0  0  0999 V2000
   41.7120   84.1230   61.7790 C   0  0  0  0  0  0  0  0  0  0  0  0
   42.7480   84.3430   62.6770 C   0  0  0  0  0  0  0  0  0  0  0  0
   42.5650   84.3330   64.0340 C   0  0  0  0  0  0  0  0  0  0  0  0
   41.2680   84.0900   64.5290 C   0  0  0  0  0  0  0  0  0  0  0  0
   40.2340   83.8690   63.6310 C   0  0  0  0  0  0  0  0  0  0  0  0
   40.4430   83.8830   62.2680 C   0  0  0  0  0  0  0  0  0  0  0  0
   43.7340   84.5270   62.2570 H   0  0  0  0  0  0  0  0  0  0  0  0
   43.3690   84.5050   64.7350 H   0  0  0  0  0  0  0  0  0  0  0  0
   41.1670   84.0910   65.5970 H   0  0  0  0  0  0  0  0  0  0  0  0
   39.2790   83.6920   64.1060 H   0  0  0  0  0  0  0  0  0  0  0  0
   42.5180   83.0830   58.3600 C   0  0  0  0  0  0  0  0  0  0  0  0
   42.4730   84.2750   57.6460 C   0  0  0  0  0  0  0  0  0  0  0  0
   42.1640   85.4390   58.3520 C   0  0  0  0  0  0  0  0  0  0  0  0
   41.9270   85.3510   59.6760 N   0  0  0  0  0  0  0  0  0  0  0  0
   41.9750   84.1660   60.3590 C   0  0  0  0  0  0  0  0  0  0  0  0
   42.2690   83.0800   59.6740 N   0  0  0  0  0  0  0  0  0  0  0  0
   42.7530   82.1470   57.8620 H   0  0  0  0  0  0  0  0  0  0  0  0
   42.6670   84.3150   56.5930 H   0  0  0  0  0  0  0  0  0  0  0  0
   42.1090   86.4190   57.8580 H   0  0  0  0  0  0  0  0  0  0  0  0
   39.2460   83.6010   61.4500 C   0  0  0  0  0  0  0  0  0  0  0  0
   39.3570   82.4410   60.7080 F   0  0  0  0  0  0  0  0  0  0  0  0
   38.9870   84.6330   60.5540 F   0  0  0  0  0  0  0  0  0  0  0  0
   38.1030   83.5030   62.2180 F   0  0  0  0  0  0  0  0  0  0  0  0
  1  6  2  0  0  0  0
  1  2  1  0  0  0  0
  2  3  2  0  0  0  0
  3  4  1  0  0  0  0
  3  8  1  0  0  0  0
  4  9  1  0  0  0  0
  5 10  1  0  0  0  0
  5  4  2  0  0  0  0
  6  5  1  0  0  0  0
  7  2  1  0  0  0  0
 11 16  1  0  0  0  0
 12 13  1  0  0  0  0
 12 11  2  0  0  0  0
 13 14  2  0  0  0  0
 14 15  1  0  0  0  0
 15  1  1  0  0  0  0
 16 15  2  0  0  0  0
 17 11  1  0  0  0  0
 18 12  1  0  0  0  0
 19 13  1  0  0  0  0
 20 23  1  0  0  0  0
 20  6  1  0  0  0  0
 21 20  1  0  0  0  0
 22 20  1  0  0  0  0
M  END
>  <minimizedAffinity>
-5.16706753

>  <minimizedRMSD>
1.19983268

$$$$
