
 OpenBabel03212520083D

 13 13  0  0  0  0  0  0  0  0999 V2000
   40.0420   81.9830   60.7090 C   0  0  0  0  0  0  0  0  0  0  0  0
   40.1100   82.8830   59.6350 C   0  0  0  0  0  0  0  0  0  0  0  0
   39.5540   84.1530   59.7850 C   0  0  0  0  0  0  0  0  0  0  0  0
   38.9630   84.4510   60.9920 N   0  0  0  0  0  0  0  0  0  0  0  0
   38.9100   83.5700   62.0060 C   0  0  0  0  0  0  0  0  0  0  0  0
   39.4450   82.3390   61.8740 N   0  0  0  0  0  0  0  0  0  0  0  0
   40.4560   80.9880   60.6480 H   0  0  0  0  0  0  0  0  0  0  0  0
   39.6010   84.8550   58.9670 H   0  0  0  0  0  0  0  0  0  0  0  0
   38.4380   83.8320   62.9480 H   0  0  0  0  0  0  0  0  0  0  0  0
   40.7710   82.4640   58.3730 C   0  0  0  0  0  0  0  0  0  0  0  0
   41.0620   83.6140   57.6620 F   0  0  0  0  0  0  0  0  0  0  0  0
   41.8940   81.7210   58.6540 F   0  0  0  0  0  0  0  0  0  0  0  0
   39.8540   81.7190   57.6440 F   0  0  0  0  0  0  0  0  0  0  0  0
  1  6  1  0  0  0  0
  2  3  1  0  0  0  0
  2  1  2  0  0  0  0
  3  4  2  0  0  0  0
  4  5  1  0  0  0  0
  5  9  1  0  0  0  0
  6  5  2  0  0  0  0
  7  1  1  0  0  0  0
  8  3  1  0  0  0  0
 10 12  1  0  0  0  0
 10  2  1  0  0  0  0
 11 10  1  0  0  0  0
 13 10  1  0  0  0  0
M  END
>  <minimizedAffinity>
-3.91480994

>  <minimizedRMSD>
0.65201658

$$$$
