
 OpenBabel03212521053D

 31 33  0  0  0  0  0  0  0  0999 V2000
   41.8000   84.1450   61.5450 C   0  0  0  0  0  0  0  0  0  0  0  0
   41.4500   83.8660   62.8560 C   0  0  0  0  0  0  0  0  0  0  0  0
   40.1580   83.5220   63.2090 C   0  0  0  0  0  0  0  0  0  0  0  0
   39.1880   83.4560   62.2170 C   0  0  0  0  0  0  0  0  0  0  0  0
   39.5290   83.7370   60.8920 C   0  0  0  0  0  0  0  0  0  0  0  0
   40.8240   84.0780   60.5600 C   0  0  0  0  0  0  0  0  0  0  0  0
   42.2230   83.9230   63.6140 H   0  0  0  0  0  0  0  0  0  0  0  0
   39.9390   83.3130   64.2420 H   0  0  0  0  0  0  0  0  0  0  0  0
   38.1740   83.1890   62.4740 H   0  0  0  0  0  0  0  0  0  0  0  0
   38.7420   83.6740   60.1470 H   0  0  0  0  0  0  0  0  0  0  0  0
   45.2830   83.8940   60.4720 C   0  0  0  0  0  0  0  0  0  0  0  0
   45.7690   85.1830   60.6590 C   0  0  0  0  0  0  0  0  0  0  0  0
   44.8850   86.1550   61.1610 C   0  0  0  0  0  0  0  0  0  0  0  0
   43.6140   85.7820   61.4350 N   0  0  0  0  0  0  0  0  0  0  0  0
   43.1730   84.5010   61.2380 C   0  0  0  0  0  0  0  0  0  0  0  0
   44.0100   83.5960   60.7650 N   0  0  0  0  0  0  0  0  0  0  0  0
   45.9060   83.0940   60.0890 H   0  0  0  0  0  0  0  0  0  0  0  0
   46.7770   85.4260   60.4280 H   0  0  0  0  0  0  0  0  0  0  0  0
   45.2110   87.1840   61.3280 H   0  0  0  0  0  0  0  0  0  0  0  0
   41.1470   84.3620   59.1830 C   0  0  0  0  0  0  0  0  0  0  0  0
   40.9960   85.7240   58.8820 C   0  0  0  0  0  0  0  0  0  0  0  0
   41.2540   86.2140   57.6090 C   0  0  0  0  0  0  0  0  0  0  0  0
   41.6580   85.3210   56.6800 N   0  0  0  0  0  0  0  0  0  0  0  0
   41.8010   84.0100   56.9780 C   0  0  0  0  0  0  0  0  0  0  0  0
   41.5510   83.5430   58.2050 N   0  0  0  0  0  0  0  0  0  0  0  0
   40.6760   86.4910   59.5800 H   0  0  0  0  0  0  0  0  0  0  0  0
   41.1460   87.2570   57.3490 H   0  0  0  0  0  0  0  0  0  0  0  0
   42.2480   83.0640   55.9190 C   0  0  0  0  0  0  0  0  0  0  0  0
   43.5170   82.5750   56.1330 F   0  0  0  0  0  0  0  0  0  0  0  0
   41.3070   82.0790   55.7100 F   0  0  0  0  0  0  0  0  0  0  0  0
   42.3210   83.7670   54.7090 F   0  0  0  0  0  0  0  0  0  0  0  0
  1  2  1  0  0  0  0
  2  3  2  0  0  0  0
  2  7  1  0  0  0  0
  3  8  1  0  0  0  0
  4  9  1  0  0  0  0
  4  3  1  0  0  0  0
  5  4  2  0  0  0  0
  6  5  1  0  0  0  0
  6  1  2  0  0  0  0
 10  5  1  0  0  0  0
 11 12  2  0  0  0  0
 11 16  1  0  0  0  0
 12 13  1  0  0  0  0
 13 19  1  0  0  0  0
 13 14  2  0  0  0  0
 15 14  1  0  0  0  0
 15  1  1  0  0  0  0
 16 15  2  0  0  0  0
 17 11  1  0  0  0  0
 18 12  1  0  0  0  0
 20  6  1  0  0  0  0
 21 20  1  0  0  0  0
 21 26  1  0  0  0  0
 22 21  2  0  0  0  0
 23 24  2  0  0  0  0
 23 22  1  0  0  0  0
 24 25  1  0  0  0  0
 25 20  2  0  0  0  0
 27 22  1  0  0  0  0
 28 29  1  0  0  0  0
 28 24  1  0  0  0  0
 30 28  1  0  0  0  0
 31 28  1  0  0  0  0
M  END
>  <minimizedAffinity>
-5.42046642

>  <minimizedRMSD>
0.537028909

$$$$
