
 OpenBabel03212520083D

 13 13  0  0  0  0  0  0  0  0999 V2000
   40.0420   81.9830   60.7070 C   0  0  0  0  0  0  0  0  0  0  0  0
   40.1100   82.8850   59.6340 C   0  0  0  0  0  0  0  0  0  0  0  0
   39.5540   84.1540   59.7850 C   0  0  0  0  0  0  0  0  0  0  0  0
   38.9630   84.4510   60.9920 N   0  0  0  0  0  0  0  0  0  0  0  0
   38.9110   83.5700   62.0050 C   0  0  0  0  0  0  0  0  0  0  0  0
   39.4460   82.3380   61.8720 N   0  0  0  0  0  0  0  0  0  0  0  0
   40.4570   80.9890   60.6450 H   0  0  0  0  0  0  0  0  0  0  0  0
   39.6000   84.8570   58.9660 H   0  0  0  0  0  0  0  0  0  0  0  0
   38.4380   83.8310   62.9480 H   0  0  0  0  0  0  0  0  0  0  0  0
   40.7710   82.4660   58.3710 C   0  0  0  0  0  0  0  0  0  0  0  0
   41.0620   83.6170   57.6620 F   0  0  0  0  0  0  0  0  0  0  0  0
   41.8960   81.7240   58.6520 F   0  0  0  0  0  0  0  0  0  0  0  0
   39.8560   81.7210   57.6410 F   0  0  0  0  0  0  0  0  0  0  0  0
  1  6  1  0  0  0  0
  2  3  1  0  0  0  0
  2  1  2  0  0  0  0
  3  4  2  0  0  0  0
  4  5  1  0  0  0  0
  5  9  1  0  0  0  0
  6  5  2  0  0  0  0
  7  1  1  0  0  0  0
  8  3  1  0  0  0  0
 10 12  1  0  0  0  0
 10  2  1  0  0  0  0
 11 10  1  0  0  0  0
 13 10  1  0  0  0  0
M  END
>  <minimizedAffinity>
-3.91521883

>  <minimizedRMSD>
0.674949706

$$$$
