
 OpenBabel03212520083D

 13 13  0  0  0  0  0  0  0  0999 V2000
   40.0470   81.9980   60.6430 C   0  0  0  0  0  0  0  0  0  0  0  0
   40.1050   82.9220   59.5890 C   0  0  0  0  0  0  0  0  0  0  0  0
   39.5470   84.1870   59.7700 C   0  0  0  0  0  0  0  0  0  0  0  0
   38.9650   84.4570   60.9880 N   0  0  0  0  0  0  0  0  0  0  0  0
   38.9230   83.5550   61.9830 C   0  0  0  0  0  0  0  0  0  0  0  0
   39.4590   82.3280   61.8200 N   0  0  0  0  0  0  0  0  0  0  0  0
   40.4630   81.0060   60.5570 H   0  0  0  0  0  0  0  0  0  0  0  0
   39.5860   84.9070   58.9670 H   0  0  0  0  0  0  0  0  0  0  0  0
   38.4570   83.7950   62.9350 H   0  0  0  0  0  0  0  0  0  0  0  0
   40.7560   82.5320   58.3120 C   0  0  0  0  0  0  0  0  0  0  0  0
   39.8580   81.7420   57.6190 F   0  0  0  0  0  0  0  0  0  0  0  0
   41.1210   83.6570   57.6080 F   0  0  0  0  0  0  0  0  0  0  0  0
   41.8680   81.7610   58.6220 F   0  0  0  0  0  0  0  0  0  0  0  0
  1  6  1  0  0  0  0
  2  3  1  0  0  0  0
  2  1  2  0  0  0  0
  3  4  2  0  0  0  0
  4  5  1  0  0  0  0
  5  9  1  0  0  0  0
  6  5  2  0  0  0  0
  7  1  1  0  0  0  0
  8  3  1  0  0  0  0
 10 13  1  0  0  0  0
 10  2  1  0  0  0  0
 11 10  1  0  0  0  0
 12 10  1  0  0  0  0
M  END
>  <minimizedAffinity>
-3.9028008

>  <minimizedRMSD>
0.699441314

$$$$
