
 OpenBabel03212521083D

 31 33  0  0  0  0  0  0  0  0999 V2000
   37.9730   75.2880   55.5630 C   0  0  0  0  0  0  0  0  0  0  0  0
   37.2300   75.3440   54.3950 C   0  0  0  0  0  0  0  0  0  0  0  0
   36.5660   76.4930   54.0080 C   0  0  0  0  0  0  0  0  0  0  0  0
   36.6480   77.6200   54.8180 C   0  0  0  0  0  0  0  0  0  0  0  0
   37.3940   77.5740   55.9980 C   0  0  0  0  0  0  0  0  0  0  0  0
   38.0500   76.4170   56.3660 C   0  0  0  0  0  0  0  0  0  0  0  0
   37.1790   74.4540   53.7790 H   0  0  0  0  0  0  0  0  0  0  0  0
   36.0030   76.4850   53.0910 H   0  0  0  0  0  0  0  0  0  0  0  0
   36.1360   78.5260   54.5300 H   0  0  0  0  0  0  0  0  0  0  0  0
   37.4340   78.4750   56.6010 H   0  0  0  0  0  0  0  0  0  0  0  0
   40.5150   72.6720   55.7800 C   0  0  0  0  0  0  0  0  0  0  0  0
   39.9170   71.7110   56.5870 C   0  0  0  0  0  0  0  0  0  0  0  0
   38.6190   71.9670   57.0660 C   0  0  0  0  0  0  0  0  0  0  0  0
   38.0260   73.1310   56.7140 N   0  0  0  0  0  0  0  0  0  0  0  0
   38.6480   74.0520   55.9150 C   0  0  0  0  0  0  0  0  0  0  0  0
   39.8660   73.8040   55.4720 N   0  0  0  0  0  0  0  0  0  0  0  0
   41.5130   72.5450   55.3750 H   0  0  0  0  0  0  0  0  0  0  0  0
   40.4260   70.8130   56.8350 H   0  0  0  0  0  0  0  0  0  0  0  0
   38.1000   71.2490   57.7050 H   0  0  0  0  0  0  0  0  0  0  0  0
   38.8130   76.4000   57.5910 C   0  0  0  0  0  0  0  0  0  0  0  0
   40.0200   77.1050   57.4630 C   0  0  0  0  0  0  0  0  0  0  0  0
   40.9070   77.2130   58.5250 C   0  0  0  0  0  0  0  0  0  0  0  0
   40.5550   76.6100   59.6810 N   0  0  0  0  0  0  0  0  0  0  0  0
   39.3900   75.9320   59.7950 C   0  0  0  0  0  0  0  0  0  0  0  0
   38.5390   75.8310   58.7700 N   0  0  0  0  0  0  0  0  0  0  0  0
   40.3620   77.6100   56.5650 H   0  0  0  0  0  0  0  0  0  0  0  0
   41.8420   77.7480   58.4550 H   0  0  0  0  0  0  0  0  0  0  0  0
   39.0460   75.2840   61.0910 C   0  0  0  0  0  0  0  0  0  0  0  0
   37.9190   74.4970   61.0180 F   0  0  0  0  0  0  0  0  0  0  0  0
   40.1380   74.6310   61.6180 F   0  0  0  0  0  0  0  0  0  0  0  0
   38.7370   76.2910   62.0150 F   0  0  0  0  0  0  0  0  0  0  0  0
  1 15  1  0  0  0  0
  1  6  1  0  0  0  0
  2  1  2  0  0  0  0
  3  2  1  0  0  0  0
  3  4  2  0  0  0  0
  4  5  1  0  0  0  0
  5  6  2  0  0  0  0
  5 10  1  0  0  0  0
  6 20  1  0  0  0  0
  7  2  1  0  0  0  0
  8  3  1  0  0  0  0
  9  4  1  0  0  0  0
 11 12  1  0  0  0  0
 12 18  1  0  0  0  0
 12 13  2  0  0  0  0
 13 19  1  0  0  0  0
 14 13  1  0  0  0  0
 15 14  2  0  0  0  0
 16 11  2  0  0  0  0
 16 15  1  0  0  0  0
 17 11  1  0  0  0  0
 20 25  1  0  0  0  0
 21 20  2  0  0  0  0
 21 22  1  0  0  0  0
 22 23  2  0  0  0  0
 23 24  1  0  0  0  0
 24 28  1  0  0  0  0
 25 24  2  0  0  0  0
 26 21  1  0  0  0  0
 27 22  1  0  0  0  0
 28 30  1  0  0  0  0
 28 31  1  0  0  0  0
 29 28  1  0  0  0  0
M  END
>  <minimizedAffinity>
-5.58772135

$$$$

 OpenBabel03212521083D

 31 33  0  0  0  0  0  0  0  0999 V2000
   41.2470   72.1010   61.3730 C   0  0  0  0  0  0  0  0  0  0  0  0
   41.4850   71.7710   62.6970 C   0  0  0  0  0  0  0  0  0  0  0  0
   42.1990   70.6400   63.0500 C   0  0  0  0  0  0  0  0  0  0  0  0
   42.6880   69.8160   62.0440 C   0  0  0  0  0  0  0  0  0  0  0  0
   42.4540   70.1400   60.7060 C   0  0  0  0  0  0  0  0  0  0  0  0
   41.7390   71.2720   60.3740 C   0  0  0  0  0  0  0  0  0  0  0  0
   41.0930   72.4270   63.4660 H   0  0  0  0  0  0  0  0  0  0  0  0
   42.3560   70.4290   64.0940 H   0  0  0  0  0  0  0  0  0  0  0  0
   43.2480   68.9300   62.3020 H   0  0  0  0  0  0  0  0  0  0  0  0
   42.8540   69.4700   59.9510 H   0  0  0  0  0  0  0  0  0  0  0  0
   38.4700   74.4530   61.0440 C   0  0  0  0  0  0  0  0  0  0  0  0
   39.0670   75.5760   60.4850 C   0  0  0  0  0  0  0  0  0  0  0  0
   40.4470   75.5250   60.2170 C   0  0  0  0  0  0  0  0  0  0  0  0
   41.1150   74.3880   60.5170 N   0  0  0  0  0  0  0  0  0  0  0  0
   40.4900   73.3020   61.0670 C   0  0  0  0  0  0  0  0  0  0  0  0
   39.1950   73.3590   61.3160 N   0  0  0  0  0  0  0  0  0  0  0  0
   37.4120   74.4190   61.2790 H   0  0  0  0  0  0  0  0  0  0  0  0
   38.4980   76.4460   60.2680 H   0  0  0  0  0  0  0  0  0  0  0  0
   40.9700   76.3780   59.7790 H   0  0  0  0  0  0  0  0  0  0  0  0
   41.5130   71.5810   58.9830 C   0  0  0  0  0  0  0  0  0  0  0  0
   42.7070   71.9020   58.3200 C   0  0  0  0  0  0  0  0  0  0  0  0
   42.7160   72.2320   56.9720 C   0  0  0  0  0  0  0  0  0  0  0  0
   41.5260   72.2290   56.3330 N   0  0  0  0  0  0  0  0  0  0  0  0
   40.3800   71.9180   56.9800 C   0  0  0  0  0  0  0  0  0  0  0  0
   40.3760   71.6010   58.2780 N   0  0  0  0  0  0  0  0  0  0  0  0
   43.6930   71.9240   58.7730 H   0  0  0  0  0  0  0  0  0  0  0  0
   43.6190   72.4840   56.4360 H   0  0  0  0  0  0  0  0  0  0  0  0
   39.0930   71.9290   56.2310 C   0  0  0  0  0  0  0  0  0  0  0  0
   39.1190   71.1420   55.1020 F   0  0  0  0  0  0  0  0  0  0  0  0
   38.0350   71.6510   57.0690 F   0  0  0  0  0  0  0  0  0  0  0  0
   38.8660   73.2320   55.7700 F   0  0  0  0  0  0  0  0  0  0  0  0
  1  2  1  0  0  0  0
  2  3  2  0  0  0  0
  2  7  1  0  0  0  0
  3  8  1  0  0  0  0
  4  9  1  0  0  0  0
  4  3  1  0  0  0  0
  5  4  2  0  0  0  0
  6  5  1  0  0  0  0
  6  1  2  0  0  0  0
 10  5  1  0  0  0  0
 11 17  1  0  0  0  0
 11 16  1  0  0  0  0
 12 11  2  0  0  0  0
 13 12  1  0  0  0  0
 13 14  2  0  0  0  0
 14 15  1  0  0  0  0
 15 16  2  0  0  0  0
 15  1  1  0  0  0  0
 18 12  1  0  0  0  0
 19 13  1  0  0  0  0
 20  6  1  0  0  0  0
 21 26  1  0  0  0  0
 21 20  1  0  0  0  0
 22 21  2  0  0  0  0
 23 22  1  0  0  0  0
 23 24  2  0  0  0  0
 24 25  1  0  0  0  0
 25 20  2  0  0  0  0
 27 22  1  0  0  0  0
 28 24  1  0  0  0  0
 28 30  1  0  0  0  0
 29 28  1  0  0  0  0
 31 28  1  0  0  0  0
M  END
>  <minimizedAffinity>
-5.57348537

$$$$

 OpenBabel03212521083D

 31 33  0  0  0  0  0  0  0  0999 V2000
   41.5900   71.3730   60.1360 C   0  0  0  0  0  0  0  0  0  0  0  0
   42.0530   70.1290   60.5350 C   0  0  0  0  0  0  0  0  0  0  0  0
   42.4720   69.8880   61.8310 C   0  0  0  0  0  0  0  0  0  0  0  0
   42.4250   70.9250   62.7540 C   0  0  0  0  0  0  0  0  0  0  0  0
   41.9600   72.1830   62.3630 C   0  0  0  0  0  0  0  0  0  0  0  0
   41.5470   72.4030   61.0650 C   0  0  0  0  0  0  0  0  0  0  0  0
   42.0820   69.3340   59.7980 H   0  0  0  0  0  0  0  0  0  0  0  0
   42.8230   68.9040   62.0890 H   0  0  0  0  0  0  0  0  0  0  0  0
   42.7470   70.7540   63.7700 H   0  0  0  0  0  0  0  0  0  0  0  0
   41.9380   72.9650   63.1150 H   0  0  0  0  0  0  0  0  0  0  0  0
   39.4640   71.6770   57.1820 C   0  0  0  0  0  0  0  0  0  0  0  0
   40.3710   71.9270   56.1590 C   0  0  0  0  0  0  0  0  0  0  0  0
   41.7360   71.9930   56.4900 C   0  0  0  0  0  0  0  0  0  0  0  0
   42.0900   71.8090   57.7830 N   0  0  0  0  0  0  0  0  0  0  0  0
   41.1650   71.5640   58.7620 C   0  0  0  0  0  0  0  0  0  0  0  0
   39.8860   71.5040   58.4410 N   0  0  0  0  0  0  0  0  0  0  0  0
   38.3960   71.6120   57.0020 H   0  0  0  0  0  0  0  0  0  0  0  0
   40.0420   72.0650   55.1590 H   0  0  0  0  0  0  0  0  0  0  0  0
   42.4940   72.1870   55.7280 H   0  0  0  0  0  0  0  0  0  0  0  0
   41.0710   73.7130   60.6900 C   0  0  0  0  0  0  0  0  0  0  0  0
   39.7810   73.9600   61.1830 C   0  0  0  0  0  0  0  0  0  0  0  0
   39.1330   75.1620   60.9370 C   0  0  0  0  0  0  0  0  0  0  0  0
   39.8020   76.0790   60.2040 N   0  0  0  0  0  0  0  0  0  0  0  0
   41.0460   75.8330   59.7330 C   0  0  0  0  0  0  0  0  0  0  0  0
   41.6650   74.6730   59.9730 N   0  0  0  0  0  0  0  0  0  0  0  0
   39.1900   73.2680   61.7750 H   0  0  0  0  0  0  0  0  0  0  0  0
   38.1400   75.3790   61.3030 H   0  0  0  0  0  0  0  0  0  0  0  0
   41.7420   76.8760   58.9300 C   0  0  0  0  0  0  0  0  0  0  0  0
   40.8820   77.6350   58.1700 F   0  0  0  0  0  0  0  0  0  0  0  0
   42.5830   77.6260   59.7230 F   0  0  0  0  0  0  0  0  0  0  0  0
   42.5800   76.2320   58.0100 F   0  0  0  0  0  0  0  0  0  0  0  0
  1  2  2  0  0  0  0
  1  6  1  0  0  0  0
  2  3  1  0  0  0  0
  3  8  1  0  0  0  0
  3  4  2  0  0  0  0
  4  9  1  0  0  0  0
  5  4  1  0  0  0  0
  5 10  1  0  0  0  0
  6  5  2  0  0  0  0
  7  2  1  0  0  0  0
 11 16  1  0  0  0  0
 12 13  1  0  0  0  0
 12 11  2  0  0  0  0
 13 14  2  0  0  0  0
 14 15  1  0  0  0  0
 15  1  1  0  0  0  0
 16 15  2  0  0  0  0
 17 11  1  0  0  0  0
 18 12  1  0  0  0  0
 19 13  1  0  0  0  0
 20  6  1  0  0  0  0
 20 21  1  0  0  0  0
 21 26  1  0  0  0  0
 22 21  2  0  0  0  0
 22 27  1  0  0  0  0
 23 22  1  0  0  0  0
 24 25  1  0  0  0  0
 24 23  2  0  0  0  0
 25 20  2  0  0  0  0
 28 30  1  0  0  0  0
 28 24  1  0  0  0  0
 29 28  1  0  0  0  0
 31 28  1  0  0  0  0
M  END
>  <minimizedAffinity>
-5.47754097

$$$$

 OpenBabel03212521083D

 31 33  0  0  0  0  0  0  0  0999 V2000
   41.5480   71.1330   59.4140 C   0  0  0  0  0  0  0  0  0  0  0  0
   41.7690   69.7910   59.6770 C   0  0  0  0  0  0  0  0  0  0  0  0
   42.5010   69.3730   60.7730 C   0  0  0  0  0  0  0  0  0  0  0  0
   43.0280   70.3300   61.6310 C   0  0  0  0  0  0  0  0  0  0  0  0
   42.8120   71.6870   61.3750 C   0  0  0  0  0  0  0  0  0  0  0  0
   42.0790   72.0830   60.2760 C   0  0  0  0  0  0  0  0  0  0  0  0
   41.3480   69.0610   58.9950 H   0  0  0  0  0  0  0  0  0  0  0  0
   42.6430   68.3180   60.9330 H   0  0  0  0  0  0  0  0  0  0  0  0
   43.6020   70.0220   62.4920 H   0  0  0  0  0  0  0  0  0  0  0  0
   43.2410   72.4020   62.0700 H   0  0  0  0  0  0  0  0  0  0  0  0
   40.6740   72.0640   55.9920 C   0  0  0  0  0  0  0  0  0  0  0  0
   39.2930   72.2180   56.0440 C   0  0  0  0  0  0  0  0  0  0  0  0
   38.6520   71.9970   57.2770 C   0  0  0  0  0  0  0  0  0  0  0  0
   39.4130   71.6490   58.3400 N   0  0  0  0  0  0  0  0  0  0  0  0
   40.7710   71.5090   58.2470 C   0  0  0  0  0  0  0  0  0  0  0  0
   41.3640   71.7170   57.0860 N   0  0  0  0  0  0  0  0  0  0  0  0
   41.2360   72.2170   55.0770 H   0  0  0  0  0  0  0  0  0  0  0  0
   38.7410   72.4920   55.1800 H   0  0  0  0  0  0  0  0  0  0  0  0
   37.5700   72.1030   57.3780 H   0  0  0  0  0  0  0  0  0  0  0  0
   41.8720   73.4910   60.0380 C   0  0  0  0  0  0  0  0  0  0  0  0
   42.9770   74.0800   59.4040 C   0  0  0  0  0  0  0  0  0  0  0  0
   42.9880   75.4300   59.0830 C   0  0  0  0  0  0  0  0  0  0  0  0
   41.8890   76.1460   59.4070 N   0  0  0  0  0  0  0  0  0  0  0  0
   40.8280   75.5700   60.0190 C   0  0  0  0  0  0  0  0  0  0  0  0
   40.8230   74.2700   60.3260 N   0  0  0  0  0  0  0  0  0  0  0  0
   43.8880   73.5640   59.1180 H   0  0  0  0  0  0  0  0  0  0  0  0
   43.8240   75.9100   58.5960 H   0  0  0  0  0  0  0  0  0  0  0  0
   39.6400   76.4010   60.3560 C   0  0  0  0  0  0  0  0  0  0  0  0
   38.9760   76.8680   59.2450 F   0  0  0  0  0  0  0  0  0  0  0  0
   38.8220   75.7480   61.2520 F   0  0  0  0  0  0  0  0  0  0  0  0
   40.0850   77.5460   61.0310 F   0  0  0  0  0  0  0  0  0  0  0  0
  1  2  2  0  0  0  0
  1  6  1  0  0  0  0
  2  3  1  0  0  0  0
  3  8  1  0  0  0  0
  3  4  2  0  0  0  0
  4  9  1  0  0  0  0
  5  4  1  0  0  0  0
  5 10  1  0  0  0  0
  6  5  2  0  0  0  0
  7  2  1  0  0  0  0
 11 12  2  0  0  0  0
 11 16  1  0  0  0  0
 12 13  1  0  0  0  0
 13 19  1  0  0  0  0
 13 14  2  0  0  0  0
 15 14  1  0  0  0  0
 15  1  1  0  0  0  0
 16 15  2  0  0  0  0
 17 11  1  0  0  0  0
 18 12  1  0  0  0  0
 20  6  1  0  0  0  0
 20 25  1  0  0  0  0
 21 20  2  0  0  0  0
 22 21  1  0  0  0  0
 22 23  2  0  0  0  0
 23 24  1  0  0  0  0
 24 25  2  0  0  0  0
 24 28  1  0  0  0  0
 26 21  1  0  0  0  0
 27 22  1  0  0  0  0
 28 31  1  0  0  0  0
 28 30  1  0  0  0  0
 29 28  1  0  0  0  0
M  END
>  <minimizedAffinity>
-5.44860315

$$$$

 OpenBabel03212521083D

 31 33  0  0  0  0  0  0  0  0999 V2000
   41.1450   74.5810   59.8880 C   0  0  0  0  0  0  0  0  0  0  0  0
   40.5760   75.8330   60.0610 C   0  0  0  0  0  0  0  0  0  0  0  0
   39.3650   76.0000   60.7080 C   0  0  0  0  0  0  0  0  0  0  0  0
   38.7050   74.8780   61.1950 C   0  0  0  0  0  0  0  0  0  0  0  0
   39.2700   73.6120   61.0250 C   0  0  0  0  0  0  0  0  0  0  0  0
   40.4790   73.4660   60.3770 C   0  0  0  0  0  0  0  0  0  0  0  0
   41.1080   76.6940   59.6730 H   0  0  0  0  0  0  0  0  0  0  0  0
   38.9660   76.9940   60.8170 H   0  0  0  0  0  0  0  0  0  0  0  0
   37.7590   74.9910   61.7030 H   0  0  0  0  0  0  0  0  0  0  0  0
   38.7230   72.7620   61.4210 H   0  0  0  0  0  0  0  0  0  0  0  0
   44.7290   74.2270   59.2770 C   0  0  0  0  0  0  0  0  0  0  0  0
   44.8230   74.2620   57.8910 C   0  0  0  0  0  0  0  0  0  0  0  0
   43.6330   74.4080   57.1530 C   0  0  0  0  0  0  0  0  0  0  0  0
   42.4680   74.5080   57.8330 N   0  0  0  0  0  0  0  0  0  0  0  0
   42.4190   74.4710   59.2000 C   0  0  0  0  0  0  0  0  0  0  0  0
   43.5390   74.3320   59.8830 N   0  0  0  0  0  0  0  0  0  0  0  0
   45.6030   74.1160   59.9110 H   0  0  0  0  0  0  0  0  0  0  0  0
   45.7630   74.1780   57.4040 H   0  0  0  0  0  0  0  0  0  0  0  0
   43.6460   74.4410   56.0610 H   0  0  0  0  0  0  0  0  0  0  0  0
   41.0380   72.1460   60.2170 C   0  0  0  0  0  0  0  0  0  0  0  0
   40.6660   71.5670   58.9940 C   0  0  0  0  0  0  0  0  0  0  0  0
   41.0950   70.2960   58.6390 C   0  0  0  0  0  0  0  0  0  0  0  0
   41.8840   69.6460   59.5220 N   0  0  0  0  0  0  0  0  0  0  0  0
   42.2380   70.2120   60.6990 C   0  0  0  0  0  0  0  0  0  0  0  0
   41.8220   71.4360   61.0370 N   0  0  0  0  0  0  0  0  0  0  0  0
   40.0360   72.0330   58.2430 H   0  0  0  0  0  0  0  0  0  0  0  0
   40.8240   69.8250   57.7050 H   0  0  0  0  0  0  0  0  0  0  0  0
   43.1090   69.4550   61.6400 C   0  0  0  0  0  0  0  0  0  0  0  0
   44.3340   69.1340   61.1000 F   0  0  0  0  0  0  0  0  0  0  0  0
   43.1970   70.1000   62.8540 F   0  0  0  0  0  0  0  0  0  0  0  0
   42.4920   68.2280   61.9170 F   0  0  0  0  0  0  0  0  0  0  0  0
  1  2  2  0  0  0  0
  1  6  1  0  0  0  0
  2  3  1  0  0  0  0
  3  8  1  0  0  0  0
  3  4  2  0  0  0  0
  4  9  1  0  0  0  0
  5  4  1  0  0  0  0
  5 10  1  0  0  0  0
  6  5  2  0  0  0  0
  7  2  1  0  0  0  0
 11 16  1  0  0  0  0
 11 17  1  0  0  0  0
 12 11  2  0  0  0  0
 13 14  2  0  0  0  0
 13 12  1  0  0  0  0
 14 15  1  0  0  0  0
 15 16  2  0  0  0  0
 15  1  1  0  0  0  0
 18 12  1  0  0  0  0
 19 13  1  0  0  0  0
 20  6  1  0  0  0  0
 20 25  1  0  0  0  0
 21 20  2  0  0  0  0
 22 21  1  0  0  0  0
 22 23  2  0  0  0  0
 23 24  1  0  0  0  0
 24 25  2  0  0  0  0
 24 28  1  0  0  0  0
 26 21  1  0  0  0  0
 27 22  1  0  0  0  0
 28 31  1  0  0  0  0
 28 30  1  0  0  0  0
 29 28  1  0  0  0  0
M  END
>  <minimizedAffinity>
-5.3088131

$$$$

 OpenBabel03212521083D

 31 33  0  0  0  0  0  0  0  0999 V2000
   42.5720   74.4270   56.6970 C   0  0  0  0  0  0  0  0  0  0  0  0
   43.5320   73.8540   55.8790 C   0  0  0  0  0  0  0  0  0  0  0  0
   44.8460   73.7120   56.2850 C   0  0  0  0  0  0  0  0  0  0  0  0
   45.2090   74.1590   57.5500 C   0  0  0  0  0  0  0  0  0  0  0  0
   44.2490   74.7380   58.3830 C   0  0  0  0  0  0  0  0  0  0  0  0
   42.9430   74.8710   57.9590 C   0  0  0  0  0  0  0  0  0  0  0  0
   43.2280   73.5120   54.8960 H   0  0  0  0  0  0  0  0  0  0  0  0
   45.5530   73.2600   55.6110 H   0  0  0  0  0  0  0  0  0  0  0  0
   46.2300   74.0550   57.8830 H   0  0  0  0  0  0  0  0  0  0  0  0
   44.5730   75.0740   59.3630 H   0  0  0  0  0  0  0  0  0  0  0  0
   39.1000   73.6230   55.8950 C   0  0  0  0  0  0  0  0  0  0  0  0
   38.6320   74.7870   55.2970 C   0  0  0  0  0  0  0  0  0  0  0  0
   39.5240   75.8670   55.1690 C   0  0  0  0  0  0  0  0  0  0  0  0
   40.7860   75.7120   55.6320 N   0  0  0  0  0  0  0  0  0  0  0  0
   41.2090   74.5480   56.2140 C   0  0  0  0  0  0  0  0  0  0  0  0
   40.3640   73.5410   56.3310 N   0  0  0  0  0  0  0  0  0  0  0  0
   38.4700   72.7500   56.0290 H   0  0  0  0  0  0  0  0  0  0  0  0
   37.6310   74.8580   54.9500 H   0  0  0  0  0  0  0  0  0  0  0  0
   39.2120   76.8070   54.7080 H   0  0  0  0  0  0  0  0  0  0  0  0
   41.9740   75.4740   58.8420 C   0  0  0  0  0  0  0  0  0  0  0  0
   42.1820   76.8540   58.9790 C   0  0  0  0  0  0  0  0  0  0  0  0
   41.3600   77.6300   59.7860 C   0  0  0  0  0  0  0  0  0  0  0  0
   40.3560   76.9940   60.4280 N   0  0  0  0  0  0  0  0  0  0  0  0
   40.1630   75.6630   60.2900 C   0  0  0  0  0  0  0  0  0  0  0  0
   40.9570   74.9200   59.5130 N   0  0  0  0  0  0  0  0  0  0  0  0
   42.9670   77.4240   58.4930 H   0  0  0  0  0  0  0  0  0  0  0  0
   41.4970   78.6940   59.9110 H   0  0  0  0  0  0  0  0  0  0  0  0
   39.0420   75.0080   61.0190 C   0  0  0  0  0  0  0  0  0  0  0  0
   39.4180   73.8460   61.6540 F   0  0  0  0  0  0  0  0  0  0  0  0
   38.4050   75.9050   61.8480 F   0  0  0  0  0  0  0  0  0  0  0  0
   38.0760   74.6230   60.0800 F   0  0  0  0  0  0  0  0  0  0  0  0
  1  6  1  0  0  0  0
  2  3  1  0  0  0  0
  2  1  2  0  0  0  0
  3  4  2  0  0  0  0
  4  9  1  0  0  0  0
  4  5  1  0  0  0  0
  5 10  1  0  0  0  0
  6  5  2  0  0  0  0
  6 20  1  0  0  0  0
  7  2  1  0  0  0  0
  8  3  1  0  0  0  0
 11 17  1  0  0  0  0
 11 16  1  0  0  0  0
 12 11  2  0  0  0  0
 13 12  1  0  0  0  0
 13 14  2  0  0  0  0
 14 15  1  0  0  0  0
 15 16  2  0  0  0  0
 15  1  1  0  0  0  0
 18 12  1  0  0  0  0
 19 13  1  0  0  0  0
 20 21  2  0  0  0  0
 20 25  1  0  0  0  0
 21 22  1  0  0  0  0
 22 27  1  0  0  0  0
 22 23  2  0  0  0  0
 24 23  1  0  0  0  0
 24 28  1  0  0  0  0
 25 24  2  0  0  0  0
 26 21  1  0  0  0  0
 28 29  1  0  0  0  0
 28 30  1  0  0  0  0
 31 28  1  0  0  0  0
M  END
>  <minimizedAffinity>
-5.24836302

$$$$

 OpenBabel03212521083D

 31 33  0  0  0  0  0  0  0  0999 V2000
   38.4040   75.1650   57.1780 C   0  0  0  0  0  0  0  0  0  0  0  0
   37.2290   75.6590   56.6360 C   0  0  0  0  0  0  0  0  0  0  0  0
   36.9770   75.6130   55.2770 C   0  0  0  0  0  0  0  0  0  0  0  0
   37.9320   75.0550   54.4360 C   0  0  0  0  0  0  0  0  0  0  0  0
   39.1210   74.5540   54.9730 C   0  0  0  0  0  0  0  0  0  0  0  0
   39.3540   74.6090   56.3310 C   0  0  0  0  0  0  0  0  0  0  0  0
   36.4970   76.0910   57.3090 H   0  0  0  0  0  0  0  0  0  0  0  0
   36.0470   76.0100   54.9060 H   0  0  0  0  0  0  0  0  0  0  0  0
   37.7510   75.0100   53.3730 H   0  0  0  0  0  0  0  0  0  0  0  0
   39.8400   74.1250   54.2820 H   0  0  0  0  0  0  0  0  0  0  0  0
   39.4280   76.3830   60.4660 C   0  0  0  0  0  0  0  0  0  0  0  0
   38.9970   75.3810   61.3270 C   0  0  0  0  0  0  0  0  0  0  0  0
   38.3410   74.2690   60.7690 C   0  0  0  0  0  0  0  0  0  0  0  0
   38.1700   74.2360   59.4270 N   0  0  0  0  0  0  0  0  0  0  0  0
   38.6110   75.2430   58.6120 C   0  0  0  0  0  0  0  0  0  0  0  0
   39.2230   76.2830   59.1460 N   0  0  0  0  0  0  0  0  0  0  0  0
   39.9400   77.2700   60.8240 H   0  0  0  0  0  0  0  0  0  0  0  0
   39.1550   75.4550   62.3750 H   0  0  0  0  0  0  0  0  0  0  0  0
   37.9800   73.4510   61.3960 H   0  0  0  0  0  0  0  0  0  0  0  0
   40.5910   74.0840   56.8560 C   0  0  0  0  0  0  0  0  0  0  0  0
   40.6210   72.6820   56.8130 C   0  0  0  0  0  0  0  0  0  0  0  0
   41.7210   71.9700   57.2710 C   0  0  0  0  0  0  0  0  0  0  0  0
   42.7560   72.6900   57.7560 N   0  0  0  0  0  0  0  0  0  0  0  0
   42.7190   74.0410   57.7940 C   0  0  0  0  0  0  0  0  0  0  0  0
   41.6570   74.7210   57.3520 N   0  0  0  0  0  0  0  0  0  0  0  0
   39.8250   72.0460   56.4380 H   0  0  0  0  0  0  0  0  0  0  0  0
   41.7720   70.8920   57.2510 H   0  0  0  0  0  0  0  0  0  0  0  0
   43.8860   74.7890   58.3380 C   0  0  0  0  0  0  0  0  0  0  0  0
   44.8510   75.0460   57.3920 F   0  0  0  0  0  0  0  0  0  0  0  0
   43.4730   75.9130   59.0210 F   0  0  0  0  0  0  0  0  0  0  0  0
   44.5120   73.9840   59.2980 F   0  0  0  0  0  0  0  0  0  0  0  0
  1 15  1  0  0  0  0
  2  1  1  0  0  0  0
  2  7  1  0  0  0  0
  3  2  2  0  0  0  0
  4  5  2  0  0  0  0
  4  3  1  0  0  0  0
  5  6  1  0  0  0  0
  6 20  1  0  0  0  0
  6  1  2  0  0  0  0
  8  3  1  0  0  0  0
  9  4  1  0  0  0  0
 10  5  1  0  0  0  0
 11 17  1  0  0  0  0
 11 12  1  0  0  0  0
 12 18  1  0  0  0  0
 13 12  2  0  0  0  0
 13 19  1  0  0  0  0
 14 13  1  0  0  0  0
 15 16  1  0  0  0  0
 15 14  2  0  0  0  0
 16 11  2  0  0  0  0
 20 25  1  0  0  0  0
 21 20  2  0  0  0  0
 21 22  1  0  0  0  0
 22 23  2  0  0  0  0
 23 24  1  0  0  0  0
 24 28  1  0  0  0  0
 25 24  2  0  0  0  0
 26 21  1  0  0  0  0
 27 22  1  0  0  0  0
 28 30  1  0  0  0  0
 28 31  1  0  0  0  0
 29 28  1  0  0  0  0
M  END
>  <minimizedAffinity>
-5.24806833

$$$$

 OpenBabel03212521083D

 31 33  0  0  0  0  0  0  0  0999 V2000
   41.4930   74.8450   59.7890 C   0  0  0  0  0  0  0  0  0  0  0  0
   41.0050   76.1210   59.5580 C   0  0  0  0  0  0  0  0  0  0  0  0
   39.8440   76.5750   60.1560 C   0  0  0  0  0  0  0  0  0  0  0  0
   39.1520   75.7250   61.0100 C   0  0  0  0  0  0  0  0  0  0  0  0
   39.6360   74.4370   61.2480 C   0  0  0  0  0  0  0  0  0  0  0  0
   40.7960   74.0020   60.6420 C   0  0  0  0  0  0  0  0  0  0  0  0
   41.5600   76.7680   58.8890 H   0  0  0  0  0  0  0  0  0  0  0  0
   39.5070   77.5760   59.9440 H   0  0  0  0  0  0  0  0  0  0  0  0
   38.2440   76.0640   61.4850 H   0  0  0  0  0  0  0  0  0  0  0  0
   39.0660   73.8040   61.9220 H   0  0  0  0  0  0  0  0  0  0  0  0
   45.0090   74.0360   59.2090 C   0  0  0  0  0  0  0  0  0  0  0  0
   45.0290   73.6300   57.8800 C   0  0  0  0  0  0  0  0  0  0  0  0
   43.8130   73.6340   57.1710 C   0  0  0  0  0  0  0  0  0  0  0  0
   42.6960   74.0320   57.8210 N   0  0  0  0  0  0  0  0  0  0  0  0
   42.7180   74.4260   59.1310 C   0  0  0  0  0  0  0  0  0  0  0  0
   43.8620   74.4180   59.7880 N   0  0  0  0  0  0  0  0  0  0  0  0
   45.9060   74.0590   59.8180 H   0  0  0  0  0  0  0  0  0  0  0  0
   45.9340   73.3260   57.4150 H   0  0  0  0  0  0  0  0  0  0  0  0
   43.7690   73.3250   56.1240 H   0  0  0  0  0  0  0  0  0  0  0  0
   41.2710   72.6660   60.9080 C   0  0  0  0  0  0  0  0  0  0  0  0
   41.7450   72.5320   62.2220 C   0  0  0  0  0  0  0  0  0  0  0  0
   42.2490   71.3260   62.6880 C   0  0  0  0  0  0  0  0  0  0  0  0
   42.2620   70.2920   61.8190 N   0  0  0  0  0  0  0  0  0  0  0  0
   41.8040   70.4290   60.5540 C   0  0  0  0  0  0  0  0  0  0  0  0
   41.3190   71.5920   60.1100 N   0  0  0  0  0  0  0  0  0  0  0  0
   41.7630   73.3210   62.9680 H   0  0  0  0  0  0  0  0  0  0  0  0
   42.6200   71.1950   63.6940 H   0  0  0  0  0  0  0  0  0  0  0  0
   41.8390   69.2590   59.6340 C   0  0  0  0  0  0  0  0  0  0  0  0
   40.8610   69.3040   58.6670 F   0  0  0  0  0  0  0  0  0  0  0  0
   43.1060   69.0720   59.1260 F   0  0  0  0  0  0  0  0  0  0  0  0
   41.5680   68.1060   60.3820 F   0  0  0  0  0  0  0  0  0  0  0  0
  1  6  1  0  0  0  0
  2  1  2  0  0  0  0
  2  3  1  0  0  0  0
  3  4  2  0  0  0  0
  4  5  1  0  0  0  0
  4  9  1  0  0  0  0
  5 10  1  0  0  0  0
  6 20  1  0  0  0  0
  6  5  2  0  0  0  0
  7  2  1  0  0  0  0
  8  3  1  0  0  0  0
 11 16  1  0  0  0  0
 11 17  1  0  0  0  0
 12 11  2  0  0  0  0
 13 14  2  0  0  0  0
 13 12  1  0  0  0  0
 14 15  1  0  0  0  0
 15 16  2  0  0  0  0
 15  1  1  0  0  0  0
 18 12  1  0  0  0  0
 19 13  1  0  0  0  0
 20 21  1  0  0  0  0
 21 22  2  0  0  0  0
 21 26  1  0  0  0  0
 22 27  1  0  0  0  0
 23 22  1  0  0  0  0
 24 23  2  0  0  0  0
 25 24  1  0  0  0  0
 25 20  2  0  0  0  0
 28 31  1  0  0  0  0
 28 24  1  0  0  0  0
 29 28  1  0  0  0  0
 30 28  1  0  0  0  0
M  END
>  <minimizedAffinity>
-5.18345356

$$$$

 OpenBabel03212521083D

 31 33  0  0  0  0  0  0  0  0999 V2000
   40.1000   75.1060   58.1690 C   0  0  0  0  0  0  0  0  0  0  0  0
   39.1870   76.0400   57.7070 C   0  0  0  0  0  0  0  0  0  0  0  0
   39.0880   77.3010   58.2660 C   0  0  0  0  0  0  0  0  0  0  0  0
   39.9300   77.6350   59.3200 C   0  0  0  0  0  0  0  0  0  0  0  0
   40.8540   76.7010   59.7930 C   0  0  0  0  0  0  0  0  0  0  0  0
   40.9370   75.4480   59.2220 C   0  0  0  0  0  0  0  0  0  0  0  0
   38.5400   75.7590   56.8840 H   0  0  0  0  0  0  0  0  0  0  0  0
   38.3620   77.9900   57.8700 H   0  0  0  0  0  0  0  0  0  0  0  0
   39.8670   78.6150   59.7670 H   0  0  0  0  0  0  0  0  0  0  0  0
   41.4940   77.0010   60.6170 H   0  0  0  0  0  0  0  0  0  0  0  0
   41.0910   72.3610   55.9710 C   0  0  0  0  0  0  0  0  0  0  0  0
   40.2540   71.3220   56.3590 C   0  0  0  0  0  0  0  0  0  0  0  0
   39.3340   71.5680   57.3950 C   0  0  0  0  0  0  0  0  0  0  0  0
   39.3150   72.8000   57.9530 N   0  0  0  0  0  0  0  0  0  0  0  0
   40.1560   73.7980   57.5410 C   0  0  0  0  0  0  0  0  0  0  0  0
   41.0160   73.5580   56.5690 N   0  0  0  0  0  0  0  0  0  0  0  0
   41.8240   72.2450   55.1800 H   0  0  0  0  0  0  0  0  0  0  0  0
   40.3090   70.3710   55.8890 H   0  0  0  0  0  0  0  0  0  0  0  0
   38.6520   70.7890   57.7430 H   0  0  0  0  0  0  0  0  0  0  0  0
   41.9020   74.5040   59.7320 C   0  0  0  0  0  0  0  0  0  0  0  0
   43.2100   74.8360   59.3490 C   0  0  0  0  0  0  0  0  0  0  0  0
   44.2930   74.0580   59.7330 C   0  0  0  0  0  0  0  0  0  0  0  0
   44.0280   72.9710   60.4900 N   0  0  0  0  0  0  0  0  0  0  0  0
   42.7640   72.6570   60.8550 C   0  0  0  0  0  0  0  0  0  0  0  0
   41.7240   73.4100   60.4820 N   0  0  0  0  0  0  0  0  0  0  0  0
   43.4900   75.6920   58.7430 H   0  0  0  0  0  0  0  0  0  0  0  0
   45.3100   74.2890   59.4530 H   0  0  0  0  0  0  0  0  0  0  0  0
   42.5230   71.4490   61.6900 C   0  0  0  0  0  0  0  0  0  0  0  0
   41.3100   70.8500   61.4360 F   0  0  0  0  0  0  0  0  0  0  0  0
   43.5900   70.5800   61.6160 F   0  0  0  0  0  0  0  0  0  0  0  0
   42.4660   71.8490   63.0310 F   0  0  0  0  0  0  0  0  0  0  0  0
  1  6  1  0  0  0  0
  2  1  2  0  0  0  0
  2  3  1  0  0  0  0
  3  4  2  0  0  0  0
  4  9  1  0  0  0  0
  4  5  1  0  0  0  0
  5 10  1  0  0  0  0
  6 20  1  0  0  0  0
  6  5  2  0  0  0  0
  7  2  1  0  0  0  0
  8  3  1  0  0  0  0
 11 12  2  0  0  0  0
 11 16  1  0  0  0  0
 12 13  1  0  0  0  0
 13 19  1  0  0  0  0
 13 14  2  0  0  0  0
 15 14  1  0  0  0  0
 15  1  1  0  0  0  0
 16 15  2  0  0  0  0
 17 11  1  0  0  0  0
 18 12  1  0  0  0  0
 20 25  1  0  0  0  0
 21 20  2  0  0  0  0
 21 22  1  0  0  0  0
 22 23  2  0  0  0  0
 23 24  1  0  0  0  0
 24 28  1  0  0  0  0
 25 24  2  0  0  0  0
 26 21  1  0  0  0  0
 27 22  1  0  0  0  0
 28 31  1  0  0  0  0
 29 28  1  0  0  0  0
 30 28  1  0  0  0  0
M  END
>  <minimizedAffinity>
-5.10969067

$$$$
