
 OpenBabel03212520523D

 30 32  0  0  1  0  0  0  0  0999 V2000
   39.1070   76.5630   57.6530 C   0  0  0  0  0  0  0  0  0  0  0  0
   40.2820   77.2860   57.6890 C   0  0  0  0  0  0  0  0  0  0  0  0
   41.0520   77.3440   58.8460 C   0  0  0  0  0  0  0  0  0  0  0  0
   40.6550   76.6880   59.9530 N   0  0  0  0  0  0  0  0  0  0  0  0
   39.5000   75.9850   59.8920 C   0  0  0  0  0  0  0  0  0  0  0  0
   38.7290   75.9080   58.7840 N   0  0  0  0  0  0  0  0  0  0  0  0
   40.6120   77.8200   56.7990 H   0  0  0  0  0  0  0  0  0  0  0  0
   41.9500   77.9280   58.7890 H   0  0  0  0  0  0  0  0  0  0  0  0
   37.7320   75.5200   54.4360 C   0  0  0  0  0  0  0  0  0  0  0  0
   36.7020   76.4270   54.2380 C   0  0  0  0  0  0  0  0  0  0  0  0
   36.4690   77.3990   55.1960 C   0  0  0  0  0  0  0  0  0  0  0  0
   37.2860   77.3860   56.2830 N   0  0  0  0  0  0  0  0  0  0  0  0
   38.2790   76.4960   56.4530 C   0  0  0  0  0  0  0  0  0  0  0  0
   38.5110   75.5630   55.5430 N   0  0  0  0  0  0  0  0  0  0  0  0
   37.8660   74.5790   53.3650 N   0  0  0  0  0  0  0  0  0  0  0  0
   36.0490   76.4410   53.3750 H   0  0  0  0  0  0  0  0  0  0  0  0
   35.6790   78.1330   55.0940 H   0  0  0  0  0  0  0  0  0  0  0  0
   38.7210   74.9610   52.9000 H   0  0  0  0  0  0  0  0  0  0  0  0
   37.3440   73.7480   53.0530 H   0  0  0  0  0  0  0  0  0  0  0  0
   39.0950   75.2820   61.1540 C   0  0  1  0  0  0  0  0  0  0  0  0
   38.1800   74.1650   61.1370 C   0  0  0  0  0  0  0  0  0  0  0  0
   39.6350   73.8350   61.1910 C   0  0  1  0  0  0  0  0  0  0  0  0
   39.3100   75.8140   62.1230 H   0  0  0  0  0  0  0  0  0  0  0  0
   37.4950   73.9540   61.9740 H   0  0  0  0  0  0  0  0  0  0  0  0
   37.6530   73.9910   60.1520 H   0  0  0  0  0  0  0  0  0  0  0  0
   39.9640   73.4240   62.1630 H   0  0  0  0  0  0  0  0  0  0  0  0
   40.2260   73.2300   59.9710 C   0  0  0  0  0  0  0  0  0  0  0  0
   40.7590   71.9880   60.3250 F   0  0  0  0  0  0  0  0  0  0  0  0
   39.2580   72.9750   59.0250 F   0  0  0  0  0  0  0  0  0  0  0  0
   41.2730   73.9370   59.4340 F   0  0  0  0  0  0  0  0  0  0  0  0
  1  2  2  0  0  0  0
  1  6  1  0  0  0  0
  2  3  1  0  0  0  0
  3  4  2  0  0  0  0
  5  4  1  0  0  0  0
  5 20  1  0  0  0  0
  6  5  2  0  0  0  0
  7  2  1  0  0  0  0
  8  3  1  0  0  0  0
  9 14  1  0  0  0  0
 10  9  2  0  0  0  0
 10 11  1  0  0  0  0
 11 12  2  0  0  0  0
 12 13  1  0  0  0  0
 13  1  1  0  0  0  0
 14 13  2  0  0  0  0
 15  9  1  0  0  0  0
 16 10  1  0  0  0  0
 17 11  1  0  0  0  0
 18 15  1  0  0  0  0
 19 15  1  0  0  0  0
 20 22  1  0  0  0  0
 20 23  1  1  0  0  0
 21 20  1  0  0  0  0
 21 22  1  0  0  0  0
 21 24  1  0  0  0  0
 22 26  1  1  0  0  0
 25 21  1  0  0  0  0
 27 28  1  0  0  0  0
 27 22  1  0  0  0  0
 29 27  1  0  0  0  0
 30 27  1  0  0  0  0
M  END
>  <minimizedAffinity>
-5.82869196

$$$$

 OpenBabel03212520523D

 30 32  0  0  1  0  0  0  0  0999 V2000
   39.2910   74.6270   56.6990 C   0  0  0  0  0  0  0  0  0  0  0  0
   40.6300   74.4300   56.4270 C   0  0  0  0  0  0  0  0  0  0  0  0
   41.4850   73.8970   57.3860 C   0  0  0  0  0  0  0  0  0  0  0  0
   41.0100   73.5640   58.6020 N   0  0  0  0  0  0  0  0  0  0  0  0
   39.6940   73.7660   58.8440 C   0  0  0  0  0  0  0  0  0  0  0  0
   38.8360   74.2810   57.9340 N   0  0  0  0  0  0  0  0  0  0  0  0
   41.0230   74.6960   55.4470 H   0  0  0  0  0  0  0  0  0  0  0  0
   42.5090   73.7770   57.0930 H   0  0  0  0  0  0  0  0  0  0  0  0
   37.5530   75.2990   53.5600 C   0  0  0  0  0  0  0  0  0  0  0  0
   36.6530   76.2920   53.9180 C   0  0  0  0  0  0  0  0  0  0  0  0
   36.6320   76.7380   55.2280 C   0  0  0  0  0  0  0  0  0  0  0  0
   37.5150   76.1540   56.0820 N   0  0  0  0  0  0  0  0  0  0  0  0
   38.3780   75.1920   55.7120 C   0  0  0  0  0  0  0  0  0  0  0  0
   38.4070   74.7580   54.4620 N   0  0  0  0  0  0  0  0  0  0  0  0
   37.4720   74.9400   52.1770 N   0  0  0  0  0  0  0  0  0  0  0  0
   35.9490   76.7600   53.2430 H   0  0  0  0  0  0  0  0  0  0  0  0
   35.9510   77.5110   55.5640 H   0  0  0  0  0  0  0  0  0  0  0  0
   38.3380   75.4070   51.8220 H   0  0  0  0  0  0  0  0  0  0  0  0
   36.8140   74.3960   51.6000 H   0  0  0  0  0  0  0  0  0  0  0  0
   39.2160   73.3910   60.2160 C   0  0  1  0  0  0  0  0  0  0  0  0
   40.0620   73.5370   61.3770 C   0  0  0  0  0  0  0  0  0  0  0  0
   39.0810   74.6340   61.1240 C   0  0  1  0  0  0  0  0  0  0  0  0
   38.2910   72.7510   60.2750 H   0  0  0  0  0  0  0  0  0  0  0  0
   39.9860   72.8650   62.2470 H   0  0  0  0  0  0  0  0  0  0  0  0
   41.1470   73.7610   61.1550 H   0  0  0  0  0  0  0  0  0  0  0  0
   38.2490   74.6640   61.8490 H   0  0  0  0  0  0  0  0  0  0  0  0
   39.6400   75.9380   60.6870 C   0  0  0  0  0  0  0  0  0  0  0  0
   39.5550   76.8220   61.7660 F   0  0  0  0  0  0  0  0  0  0  0  0
   40.9800   75.8290   60.3870 F   0  0  0  0  0  0  0  0  0  0  0  0
   38.9480   76.5410   59.6660 F   0  0  0  0  0  0  0  0  0  0  0  0
  1  6  1  0  0  0  0
  2  1  2  0  0  0  0
  2  3  1  0  0  0  0
  3  4  2  0  0  0  0
  4  5  1  0  0  0  0
  5 20  1  0  0  0  0
  6  5  2  0  0  0  0
  7  2  1  0  0  0  0
  8  3  1  0  0  0  0
  9 10  2  0  0  0  0
  9 14  1  0  0  0  0
 10 11  1  0  0  0  0
 11 17  1  0  0  0  0
 11 12  2  0  0  0  0
 13 12  1  0  0  0  0
 13  1  1  0  0  0  0
 14 13  2  0  0  0  0
 15  9  1  0  0  0  0
 16 10  1  0  0  0  0
 18 15  1  0  0  0  0
 19 15  1  0  0  0  0
 20 23  1  1  0  0  0
 20 22  1  0  0  0  0
 20 21  1  0  0  0  0
 21 24  1  0  0  0  0
 22 21  1  0  0  0  0
 22 26  1  1  0  0  0
 25 21  1  0  0  0  0
 27 22  1  0  0  0  0
 27 28  1  0  0  0  0
 29 27  1  0  0  0  0
 30 27  1  0  0  0  0
M  END
>  <minimizedAffinity>
-5.70325089

$$$$

 OpenBabel03212520523D

 30 32  0  0  1  0  0  0  0  0999 V2000
   39.9340   75.0430   56.5200 C   0  0  0  0  0  0  0  0  0  0  0  0
   40.6320   73.8690   56.3230 C   0  0  0  0  0  0  0  0  0  0  0  0
   41.3600   73.2850   57.3550 C   0  0  0  0  0  0  0  0  0  0  0  0
   41.3910   73.8670   58.5700 N   0  0  0  0  0  0  0  0  0  0  0  0
   40.6970   75.0170   58.7390 C   0  0  0  0  0  0  0  0  0  0  0  0
   39.9800   75.6090   57.7570 N   0  0  0  0  0  0  0  0  0  0  0  0
   40.6140   73.3910   55.3440 H   0  0  0  0  0  0  0  0  0  0  0  0
   41.8730   72.3740   57.1180 H   0  0  0  0  0  0  0  0  0  0  0  0
   37.5200   75.6090   53.8410 C   0  0  0  0  0  0  0  0  0  0  0  0
   37.7920   76.9140   53.4590 C   0  0  0  0  0  0  0  0  0  0  0  0
   38.7960   77.6100   54.1100 C   0  0  0  0  0  0  0  0  0  0  0  0
   39.4530   76.9430   55.0970 N   0  0  0  0  0  0  0  0  0  0  0  0
   39.1720   75.6770   55.4500 C   0  0  0  0  0  0  0  0  0  0  0  0
   38.2140   75.0030   54.8340 N   0  0  0  0  0  0  0  0  0  0  0  0
   36.4670   75.0080   53.0800 N   0  0  0  0  0  0  0  0  0  0  0  0
   37.2720   77.4490   52.6750 H   0  0  0  0  0  0  0  0  0  0  0  0
   39.0510   78.6310   53.8540 H   0  0  0  0  0  0  0  0  0  0  0  0
   37.0290   74.3740   52.4680 H   0  0  0  0  0  0  0  0  0  0  0  0
   35.4400   75.0960   53.0570 H   0  0  0  0  0  0  0  0  0  0  0  0
   40.7730   75.6310   60.1050 C   0  0  1  0  0  0  0  0  0  0  0  0
   39.6940   76.4330   60.6350 C   0  0  0  0  0  0  0  0  0  0  0  0
   39.7360   75.0030   61.0630 C   0  0  1  0  0  0  0  0  0  0  0  0
   41.7890   75.6730   60.5880 H   0  0  0  0  0  0  0  0  0  0  0  0
   39.8700   77.2650   61.3350 H   0  0  0  0  0  0  0  0  0  0  0  0
   38.8970   76.7180   59.8870 H   0  0  0  0  0  0  0  0  0  0  0  0
   40.0210   74.8630   62.1220 H   0  0  0  0  0  0  0  0  0  0  0  0
   38.6720   74.1170   60.5300 C   0  0  0  0  0  0  0  0  0  0  0  0
   37.7570   73.8800   61.5600 F   0  0  0  0  0  0  0  0  0  0  0  0
   37.9640   74.7400   59.5250 F   0  0  0  0  0  0  0  0  0  0  0  0
   39.1080   72.8750   60.1360 F   0  0  0  0  0  0  0  0  0  0  0  0
  1  6  1  0  0  0  0
  2  1  2  0  0  0  0
  2  3  1  0  0  0  0
  3  4  2  0  0  0  0
  4  5  1  0  0  0  0
  5 20  1  0  0  0  0
  6  5  2  0  0  0  0
  7  2  1  0  0  0  0
  8  3  1  0  0  0  0
  9 14  1  0  0  0  0
 10  9  2  0  0  0  0
 10 11  1  0  0  0  0
 11 12  2  0  0  0  0
 12 13  1  0  0  0  0
 13  1  1  0  0  0  0
 14 13  2  0  0  0  0
 15  9  1  0  0  0  0
 16 10  1  0  0  0  0
 17 11  1  0  0  0  0
 18 15  1  0  0  0  0
 19 15  1  0  0  0  0
 20 23  1  1  0  0  0
 20 21  1  0  0  0  0
 20 22  1  0  0  0  0
 21 22  1  0  0  0  0
 21 24  1  0  0  0  0
 22 26  1  1  0  0  0
 25 21  1  0  0  0  0
 27 22  1  0  0  0  0
 27 28  1  0  0  0  0
 29 27  1  0  0  0  0
 30 27  1  0  0  0  0
M  END
>  <minimizedAffinity>
-5.37693834

$$$$

 OpenBabel03212520523D

 30 32  0  0  1  0  0  0  0  0999 V2000
   38.1770   74.1170   57.0270 C   0  0  0  0  0  0  0  0  0  0  0  0
   38.4360   72.7880   56.7630 C   0  0  0  0  0  0  0  0  0  0  0  0
   38.9540   71.9500   57.7450 C   0  0  0  0  0  0  0  0  0  0  0  0
   39.2110   72.4320   58.9760 N   0  0  0  0  0  0  0  0  0  0  0  0
   38.9470   73.7390   59.2110 C   0  0  0  0  0  0  0  0  0  0  0  0
   38.4440   74.5800   58.2790 N   0  0  0  0  0  0  0  0  0  0  0  0
   38.2320   72.3880   55.7710 H   0  0  0  0  0  0  0  0  0  0  0  0
   39.1260   70.9310   57.4570 H   0  0  0  0  0  0  0  0  0  0  0  0
   37.2190   75.5360   53.8030 C   0  0  0  0  0  0  0  0  0  0  0  0
   36.6310   76.7390   54.1630 C   0  0  0  0  0  0  0  0  0  0  0  0
   36.5560   77.0750   55.5040 C   0  0  0  0  0  0  0  0  0  0  0  0
   37.0760   76.1770   56.3830 N   0  0  0  0  0  0  0  0  0  0  0  0
   37.6420   75.0160   56.0110 C   0  0  0  0  0  0  0  0  0  0  0  0
   37.7190   74.6860   54.7320 N   0  0  0  0  0  0  0  0  0  0  0  0
   37.2370   75.3210   52.3880 N   0  0  0  0  0  0  0  0  0  0  0  0
   36.2160   77.4560   53.4670 H   0  0  0  0  0  0  0  0  0  0  0  0
   36.1080   78.0010   55.8440 H   0  0  0  0  0  0  0  0  0  0  0  0
   38.2470   75.5060   52.1930 H   0  0  0  0  0  0  0  0  0  0  0  0
   36.5350   75.0620   51.6790 H   0  0  0  0  0  0  0  0  0  0  0  0
   39.2610   74.2320   60.5930 C   0  0  1  0  0  0  0  0  0  0  0  0
   40.2720   73.6000   61.4090 C   0  0  0  0  0  0  0  0  0  0  0  0
   40.6840   74.8290   60.6670 C   0  0  1  0  0  0  0  0  0  0  0  0
   38.5120   74.9250   61.0680 H   0  0  0  0  0  0  0  0  0  0  0  0
   40.2030   73.5680   62.5080 H   0  0  0  0  0  0  0  0  0  0  0  0
   40.6570   72.6130   61.0160 H   0  0  0  0  0  0  0  0  0  0  0  0
   40.8490   75.7070   61.3170 H   0  0  0  0  0  0  0  0  0  0  0  0
   41.6310   74.6390   59.5400 C   0  0  0  0  0  0  0  0  0  0  0  0
   42.8190   75.3000   59.8630 F   0  0  0  0  0  0  0  0  0  0  0  0
   41.9620   73.3100   59.3880 F   0  0  0  0  0  0  0  0  0  0  0  0
   41.2190   75.1890   58.3510 F   0  0  0  0  0  0  0  0  0  0  0  0
  1  6  1  0  0  0  0
  2  1  2  0  0  0  0
  2  3  1  0  0  0  0
  3  4  2  0  0  0  0
  4  5  1  0  0  0  0
  5 20  1  0  0  0  0
  6  5  2  0  0  0  0
  7  2  1  0  0  0  0
  8  3  1  0  0  0  0
  9 10  2  0  0  0  0
  9 14  1  0  0  0  0
 10 11  1  0  0  0  0
 11 17  1  0  0  0  0
 11 12  2  0  0  0  0
 13 12  1  0  0  0  0
 13  1  1  0  0  0  0
 14 13  2  0  0  0  0
 15  9  1  0  0  0  0
 16 10  1  0  0  0  0
 18 15  1  0  0  0  0
 19 15  1  0  0  0  0
 20 22  1  0  0  0  0
 20 23  1  1  0  0  0
 20 21  1  0  0  0  0
 21 24  1  0  0  0  0
 22 26  1  1  0  0  0
 22 21  1  0  0  0  0
 25 21  1  0  0  0  0
 27 28  1  0  0  0  0
 27 22  1  0  0  0  0
 29 27  1  0  0  0  0
 30 27  1  0  0  0  0
M  END
>  <minimizedAffinity>
-5.30889893

$$$$

 OpenBabel03212520523D

 30 32  0  0  1  0  0  0  0  0999 V2000
   41.5780   71.7880   61.4230 C   0  0  0  0  0  0  0  0  0  0  0  0
   41.3420   71.4310   62.7350 C   0  0  0  0  0  0  0  0  0  0  0  0
   41.9640   70.3210   63.2980 C   0  0  0  0  0  0  0  0  0  0  0  0
   42.8110   69.5760   62.5610 N   0  0  0  0  0  0  0  0  0  0  0  0
   43.0270   69.9480   61.2780 C   0  0  0  0  0  0  0  0  0  0  0  0
   42.4390   71.0210   60.7010 N   0  0  0  0  0  0  0  0  0  0  0  0
   40.6590   72.0260   63.3390 H   0  0  0  0  0  0  0  0  0  0  0  0
   41.7250   70.1130   64.3230 H   0  0  0  0  0  0  0  0  0  0  0  0
   39.5730   74.8020   60.9520 C   0  0  0  0  0  0  0  0  0  0  0  0
   39.7470   75.0750   59.6040 C   0  0  0  0  0  0  0  0  0  0  0  0
   40.5480   74.2360   58.8470 C   0  0  0  0  0  0  0  0  0  0  0  0
   41.1140   73.1870   59.5000 N   0  0  0  0  0  0  0  0  0  0  0  0
   40.9310   72.9420   60.8090 C   0  0  0  0  0  0  0  0  0  0  0  0
   40.1670   73.7370   61.5420 N   0  0  0  0  0  0  0  0  0  0  0  0
   38.7160   75.7420   61.6090 N   0  0  0  0  0  0  0  0  0  0  0  0
   39.2980   75.9080   59.0790 H   0  0  0  0  0  0  0  0  0  0  0  0
   40.7190   74.4000   57.7900 H   0  0  0  0  0  0  0  0  0  0  0  0
   37.8550   75.1580   61.7070 H   0  0  0  0  0  0  0  0  0  0  0  0
   38.8120   76.7160   61.9330 H   0  0  0  0  0  0  0  0  0  0  0  0
   43.9680   69.0810   60.4950 C   0  0  1  0  0  0  0  0  0  0  0  0
   44.0750   67.6630   60.7460 C   0  0  0  0  0  0  0  0  0  0  0  0
   43.2010   68.0750   59.6080 C   0  0  1  0  0  0  0  0  0  0  0  0
   44.7690   69.6060   59.9030 H   0  0  0  0  0  0  0  0  0  0  0  0
   45.0160   67.1100   60.5980 H   0  0  0  0  0  0  0  0  0  0  0  0
   43.5560   67.3010   61.6830 H   0  0  0  0  0  0  0  0  0  0  0  0
   43.6180   67.8310   58.6140 H   0  0  0  0  0  0  0  0  0  0  0  0
   41.7400   67.8870   59.7890 C   0  0  0  0  0  0  0  0  0  0  0  0
   41.3440   66.8130   58.9870 F   0  0  0  0  0  0  0  0  0  0  0  0
   41.4420   67.5260   61.0850 F   0  0  0  0  0  0  0  0  0  0  0  0
   40.9730   68.9510   59.3790 F   0  0  0  0  0  0  0  0  0  0  0  0
  1  2  1  0  0  0  0
  2  3  2  0  0  0  0
  2  7  1  0  0  0  0
  3  8  1  0  0  0  0
  4  3  1  0  0  0  0
  5  4  2  0  0  0  0
  6  5  1  0  0  0  0
  6  1  2  0  0  0  0
  9 14  1  0  0  0  0
  9 15  1  0  0  0  0
 10  9  2  0  0  0  0
 11 12  2  0  0  0  0
 11 10  1  0  0  0  0
 12 13  1  0  0  0  0
 13  1  1  0  0  0  0
 13 14  2  0  0  0  0
 15 18  1  0  0  0  0
 15 19  1  0  0  0  0
 16 10  1  0  0  0  0
 17 11  1  0  0  0  0
 20 23  1  6  0  0  0
 20 21  1  0  0  0  0
 20  5  1  0  0  0  0
 21 25  1  0  0  0  0
 22 26  1  6  0  0  0
 22 27  1  0  0  0  0
 22 20  1  0  0  0  0
 22 21  1  0  0  0  0
 24 21  1  0  0  0  0
 27 29  1  0  0  0  0
 28 27  1  0  0  0  0
 30 27  1  0  0  0  0
M  END
>  <minimizedAffinity>
-5.25409937

$$$$

 OpenBabel03212520523D

 30 32  0  0  1  0  0  0  0  0999 V2000
   40.5540   73.3620   61.1170 C   0  0  0  0  0  0  0  0  0  0  0  0
   39.1800   73.4080   61.2360 C   0  0  0  0  0  0  0  0  0  0  0  0
   38.4610   74.5210   60.8130 C   0  0  0  0  0  0  0  0  0  0  0  0
   39.1050   75.5750   60.2750 N   0  0  0  0  0  0  0  0  0  0  0  0
   40.4520   75.5050   60.1670 C   0  0  0  0  0  0  0  0  0  0  0  0
   41.1810   74.4390   60.5690 N   0  0  0  0  0  0  0  0  0  0  0  0
   38.6500   72.5610   61.6700 H   0  0  0  0  0  0  0  0  0  0  0  0
   37.3970   74.4750   60.9420 H   0  0  0  0  0  0  0  0  0  0  0  0
   42.9240   70.5860   61.1820 C   0  0  0  0  0  0  0  0  0  0  0  0
   42.7390   70.0590   62.4520 C   0  0  0  0  0  0  0  0  0  0  0  0
   41.8080   70.6450   63.2930 C   0  0  0  0  0  0  0  0  0  0  0  0
   41.1330   71.7160   62.7980 N   0  0  0  0  0  0  0  0  0  0  0  0
   41.3290   72.2090   61.5630 C   0  0  0  0  0  0  0  0  0  0  0  0
   42.2160   71.6570   60.7500 N   0  0  0  0  0  0  0  0  0  0  0  0
   43.9070   69.8790   60.4190 N   0  0  0  0  0  0  0  0  0  0  0  0
   43.2740   69.2070   62.8510 H   0  0  0  0  0  0  0  0  0  0  0  0
   41.6220   70.2760   64.2950 H   0  0  0  0  0  0  0  0  0  0  0  0
   43.2810   69.3570   59.7640 H   0  0  0  0  0  0  0  0  0  0  0  0
   44.9360   69.8250   60.4240 H   0  0  0  0  0  0  0  0  0  0  0  0
   41.1240   76.7080   59.5740 C   0  0  1  0  0  0  0  0  0  0  0  0
   42.4530   76.6330   59.0140 C   0  0  0  0  0  0  0  0  0  0  0  0
   41.3170   76.5510   58.0490 C   0  0  1  0  0  0  0  0  0  0  0  0
   40.6770   77.7120   59.8190 H   0  0  0  0  0  0  0  0  0  0  0  0
   43.1490   77.4870   59.0360 H   0  0  0  0  0  0  0  0  0  0  0  0
   43.0110   75.6730   59.2290 H   0  0  0  0  0  0  0  0  0  0  0  0
   41.2060   77.4470   57.4130 H   0  0  0  0  0  0  0  0  0  0  0  0
   41.0870   75.2350   57.4020 C   0  0  0  0  0  0  0  0  0  0  0  0
   41.2540   75.4000   56.0250 F   0  0  0  0  0  0  0  0  0  0  0  0
   42.0360   74.3160   57.7950 F   0  0  0  0  0  0  0  0  0  0  0  0
   39.8170   74.7370   57.5580 F   0  0  0  0  0  0  0  0  0  0  0  0
  1  2  1  0  0  0  0
  1 13  1  0  0  0  0
  2  7  1  0  0  0  0
  3  8  1  0  0  0  0
  3  2  2  0  0  0  0
  4  3  1  0  0  0  0
  5  4  2  0  0  0  0
  5  6  1  0  0  0  0
  6  1  2  0  0  0  0
  9 10  1  0  0  0  0
 10 16  1  0  0  0  0
 10 11  2  0  0  0  0
 11 17  1  0  0  0  0
 12 11  1  0  0  0  0
 13 12  2  0  0  0  0
 14  9  2  0  0  0  0
 14 13  1  0  0  0  0
 15 19  1  0  0  0  0
 15  9  1  0  0  0  0
 18 15  1  0  0  0  0
 20 23  1  1  0  0  0
 20  5  1  0  0  0  0
 21 24  1  0  0  0  0
 21 25  1  0  0  0  0
 21 20  1  0  0  0  0
 22 26  1  6  0  0  0
 22 21  1  0  0  0  0
 22 20  1  0  0  0  0
 27 30  1  0  0  0  0
 27 29  1  0  0  0  0
 27 22  1  0  0  0  0
 28 27  1  0  0  0  0
M  END
>  <minimizedAffinity>
-5.22779608

$$$$

 OpenBabel03212520523D

 30 32  0  0  1  0  0  0  0  0999 V2000
   41.7110   74.4660   59.6760 C   0  0  0  0  0  0  0  0  0  0  0  0
   42.9840   74.7490   59.2250 C   0  0  0  0  0  0  0  0  0  0  0  0
   44.1020   74.1900   59.8370 C   0  0  0  0  0  0  0  0  0  0  0  0
   43.9500   73.3580   60.8860 N   0  0  0  0  0  0  0  0  0  0  0  0
   42.6920   73.0960   61.3080 C   0  0  0  0  0  0  0  0  0  0  0  0
   41.5850   73.6220   60.7360 N   0  0  0  0  0  0  0  0  0  0  0  0
   43.1170   75.4210   58.3780 H   0  0  0  0  0  0  0  0  0  0  0  0
   45.0530   74.4620   59.4250 H   0  0  0  0  0  0  0  0  0  0  0  0
   38.4070   74.8350   58.1680 C   0  0  0  0  0  0  0  0  0  0  0  0
   38.3470   76.1940   57.8970 C   0  0  0  0  0  0  0  0  0  0  0  0
   39.4290   76.9930   58.2260 C   0  0  0  0  0  0  0  0  0  0  0  0
   40.4900   76.3680   58.8030 N   0  0  0  0  0  0  0  0  0  0  0  0
   40.5260   75.0480   59.0560 C   0  0  0  0  0  0  0  0  0  0  0  0
   39.4970   74.2760   58.7460 N   0  0  0  0  0  0  0  0  0  0  0  0
   37.2260   74.1300   57.7690 N   0  0  0  0  0  0  0  0  0  0  0  0
   37.5050   76.6950   57.4380 H   0  0  0  0  0  0  0  0  0  0  0  0
   39.4380   78.0590   58.0370 H   0  0  0  0  0  0  0  0  0  0  0  0
   37.5870   73.6500   56.9130 H   0  0  0  0  0  0  0  0  0  0  0  0
   36.2670   74.0470   58.1350 H   0  0  0  0  0  0  0  0  0  0  0  0
   42.5760   72.1740   62.4860 C   0  0  1  0  0  0  0  0  0  0  0  0
   41.4090   71.3470   62.6890 C   0  0  0  0  0  0  0  0  0  0  0  0
   42.5880   70.6930   62.0460 C   0  0  1  0  0  0  0  0  0  0  0  0
   43.2960   72.3440   63.3360 H   0  0  0  0  0  0  0  0  0  0  0  0
   41.0540   71.0690   63.6940 H   0  0  0  0  0  0  0  0  0  0  0  0
   40.5310   71.5870   62.0200 H   0  0  0  0  0  0  0  0  0  0  0  0
   43.0990   69.9590   62.6940 H   0  0  0  0  0  0  0  0  0  0  0  0
   42.4530   70.3430   60.6100 C   0  0  0  0  0  0  0  0  0  0  0  0
   42.3600   68.9520   60.5160 F   0  0  0  0  0  0  0  0  0  0  0  0
   41.2800   70.8420   60.0850 F   0  0  0  0  0  0  0  0  0  0  0  0
   43.5330   70.6900   59.8350 F   0  0  0  0  0  0  0  0  0  0  0  0
  1  6  1  0  0  0  0
  2  1  2  0  0  0  0
  2  3  1  0  0  0  0
  3  4  2  0  0  0  0
  4  5  1  0  0  0  0
  5 20  1  0  0  0  0
  6  5  2  0  0  0  0
  7  2  1  0  0  0  0
  8  3  1  0  0  0  0
  9 14  1  0  0  0  0
 10  9  2  0  0  0  0
 10 11  1  0  0  0  0
 11 12  2  0  0  0  0
 12 13  1  0  0  0  0
 13  1  1  0  0  0  0
 14 13  2  0  0  0  0
 15 19  1  0  0  0  0
 15  9  1  0  0  0  0
 16 10  1  0  0  0  0
 17 11  1  0  0  0  0
 18 15  1  0  0  0  0
 20 21  1  0  0  0  0
 20 23  1  1  0  0  0
 21 24  1  0  0  0  0
 22 20  1  0  0  0  0
 22 21  1  0  0  0  0
 22 26  1  1  0  0  0
 25 21  1  0  0  0  0
 27 22  1  0  0  0  0
 28 27  1  0  0  0  0
 29 27  1  0  0  0  0
 30 27  1  0  0  0  0
M  END
>  <minimizedAffinity>
-5.22685385

$$$$

 OpenBabel03212520523D

 30 32  0  0  1  0  0  0  0  0999 V2000
   41.0150   72.7920   57.7380 C   0  0  0  0  0  0  0  0  0  0  0  0
   41.8990   72.0440   58.4900 C   0  0  0  0  0  0  0  0  0  0  0  0
   42.3140   72.4750   59.7460 C   0  0  0  0  0  0  0  0  0  0  0  0
   41.8530   73.6380   60.2460 N   0  0  0  0  0  0  0  0  0  0  0  0
   40.9870   74.3520   59.4900 C   0  0  0  0  0  0  0  0  0  0  0  0
   40.5640   73.9620   58.2670 N   0  0  0  0  0  0  0  0  0  0  0  0
   42.2770   71.1020   58.0950 H   0  0  0  0  0  0  0  0  0  0  0  0
   43.0010   71.8350   60.2630 H   0  0  0  0  0  0  0  0  0  0  0  0
   39.5590   72.8060   54.3910 C   0  0  0  0  0  0  0  0  0  0  0  0
   39.7700   71.5030   53.9630 C   0  0  0  0  0  0  0  0  0  0  0  0
   40.4070   70.6130   54.8100 C   0  0  0  0  0  0  0  0  0  0  0  0
   40.7880   71.0970   56.0220 N   0  0  0  0  0  0  0  0  0  0  0  0
   40.5730   72.3640   56.4150 C   0  0  0  0  0  0  0  0  0  0  0  0
   39.9640   73.2230   55.6140 N   0  0  0  0  0  0  0  0  0  0  0  0
   38.8830   73.6130   53.4210 N   0  0  0  0  0  0  0  0  0  0  0  0
   39.4680   71.1140   52.9990 H   0  0  0  0  0  0  0  0  0  0  0  0
   40.5980   69.5840   54.5290 H   0  0  0  0  0  0  0  0  0  0  0  0
   37.9340   73.6560   53.8580 H   0  0  0  0  0  0  0  0  0  0  0  0
   39.1480   74.0660   52.5340 H   0  0  0  0  0  0  0  0  0  0  0  0
   40.5120   75.6450   60.0850 C   0  0  1  0  0  0  0  0  0  0  0  0
   39.3080   76.2930   59.6220 C   0  0  0  0  0  0  0  0  0  0  0  0
   39.1850   75.4570   60.8530 C   0  0  1  0  0  0  0  0  0  0  0  0
   41.2550   76.2210   60.7060 H   0  0  0  0  0  0  0  0  0  0  0  0
   39.1880   77.3890   59.6370 H   0  0  0  0  0  0  0  0  0  0  0  0
   38.8700   75.8690   58.6710 H   0  0  0  0  0  0  0  0  0  0  0  0
   39.0270   76.0430   61.7760 H   0  0  0  0  0  0  0  0  0  0  0  0
   38.4230   74.1900   60.7230 C   0  0  0  0  0  0  0  0  0  0  0  0
   37.2920   74.2850   61.5390 F   0  0  0  0  0  0  0  0  0  0  0  0
   37.9530   74.0220   59.4380 F   0  0  0  0  0  0  0  0  0  0  0  0
   39.0940   73.0740   61.1570 F   0  0  0  0  0  0  0  0  0  0  0  0
  1  6  2  0  0  0  0
  1  2  1  0  0  0  0
  2  3  2  0  0  0  0
  3  4  1  0  0  0  0
  3  8  1  0  0  0  0
  5 20  1  0  0  0  0
  5  4  2  0  0  0  0
  6  5  1  0  0  0  0
  7  2  1  0  0  0  0
  9 14  1  0  0  0  0
 10  9  2  0  0  0  0
 10 11  1  0  0  0  0
 11 12  2  0  0  0  0
 12 13  1  0  0  0  0
 13  1  1  0  0  0  0
 14 13  2  0  0  0  0
 15 18  1  0  0  0  0
 15  9  1  0  0  0  0
 16 10  1  0  0  0  0
 17 11  1  0  0  0  0
 19 15  1  0  0  0  0
 20 23  1  1  0  0  0
 20 22  1  0  0  0  0
 21 24  1  0  0  0  0
 21 20  1  0  0  0  0
 21 22  1  0  0  0  0
 22 26  1  1  0  0  0
 25 21  1  0  0  0  0
 27 22  1  0  0  0  0
 27 30  1  0  0  0  0
 27 28  1  0  0  0  0
 29 27  1  0  0  0  0
M  END
>  <minimizedAffinity>
-5.14408255

$$$$

 OpenBabel03212520523D

 30 32  0  0  1  0  0  0  0  0999 V2000
   42.5660   71.1530   61.6770 C   0  0  0  0  0  0  0  0  0  0  0  0
   41.7040   71.1090   62.7540 C   0  0  0  0  0  0  0  0  0  0  0  0
   41.5310   69.9400   63.4870 C   0  0  0  0  0  0  0  0  0  0  0  0
   42.2110   68.8260   63.1500 N   0  0  0  0  0  0  0  0  0  0  0  0
   43.0510   68.8950   62.0910 C   0  0  0  0  0  0  0  0  0  0  0  0
   43.2410   70.0160   61.3580 N   0  0  0  0  0  0  0  0  0  0  0  0
   41.1490   72.0040   63.0350 H   0  0  0  0  0  0  0  0  0  0  0  0
   40.8430   69.9920   64.3080 H   0  0  0  0  0  0  0  0  0  0  0  0
   44.1240   73.8410   59.7600 C   0  0  0  0  0  0  0  0  0  0  0  0
   43.0420   74.6410   59.4260 C   0  0  0  0  0  0  0  0  0  0  0  0
   41.7770   74.2720   59.8490 C   0  0  0  0  0  0  0  0  0  0  0  0
   41.6920   73.1270   60.5770 N   0  0  0  0  0  0  0  0  0  0  0  0
   42.7550   72.3660   60.8890 C   0  0  0  0  0  0  0  0  0  0  0  0
   43.9690   72.7090   60.4890 N   0  0  0  0  0  0  0  0  0  0  0  0
   45.3690   74.3440   59.2660 N   0  0  0  0  0  0  0  0  0  0  0  0
   43.1050   75.5540   58.8480 H   0  0  0  0  0  0  0  0  0  0  0  0
   40.8960   74.8590   59.6180 H   0  0  0  0  0  0  0  0  0  0  0  0
   45.7760   74.7140   60.1560 H   0  0  0  0  0  0  0  0  0  0  0  0
   45.8280   74.3840   58.3440 H   0  0  0  0  0  0  0  0  0  0  0  0
   43.7750   67.6270   61.7470 C   0  0  1  0  0  0  0  0  0  0  0  0
   43.2560   66.3330   62.1260 C   0  0  0  0  0  0  0  0  0  0  0  0
   42.9780   66.7810   60.7290 C   0  0  1  0  0  0  0  0  0  0  0  0
   44.8510   67.7260   61.4280 H   0  0  0  0  0  0  0  0  0  0  0  0
   43.9150   65.4800   62.3530 H   0  0  0  0  0  0  0  0  0  0  0  0
   42.3910   66.3580   62.8520 H   0  0  0  0  0  0  0  0  0  0  0  0
   43.5400   66.2210   59.9610 H   0  0  0  0  0  0  0  0  0  0  0  0
   41.5710   67.1320   60.4110 C   0  0  0  0  0  0  0  0  0  0  0  0
   41.1240   66.2500   59.4230 F   0  0  0  0  0  0  0  0  0  0  0  0
   40.7510   66.9330   61.5010 F   0  0  0  0  0  0  0  0  0  0  0  0
   41.4020   68.3880   59.8830 F   0  0  0  0  0  0  0  0  0  0  0  0
  1  2  1  0  0  0  0
  2  7  1  0  0  0  0
  2  3  2  0  0  0  0
  3  8  1  0  0  0  0
  4  3  1  0  0  0  0
  5  4  2  0  0  0  0
  6  1  2  0  0  0  0
  6  5  1  0  0  0  0
  9 14  1  0  0  0  0
 10  9  2  0  0  0  0
 10 11  1  0  0  0  0
 11 12  2  0  0  0  0
 12 13  1  0  0  0  0
 13  1  1  0  0  0  0
 14 13  2  0  0  0  0
 15  9  1  0  0  0  0
 15 18  1  0  0  0  0
 16 10  1  0  0  0  0
 17 11  1  0  0  0  0
 19 15  1  0  0  0  0
 20 23  1  6  0  0  0
 20  5  1  0  0  0  0
 20 21  1  0  0  0  0
 21 24  1  0  0  0  0
 21 25  1  0  0  0  0
 22 26  1  6  0  0  0
 22 20  1  0  0  0  0
 22 21  1  0  0  0  0
 27 22  1  0  0  0  0
 27 29  1  0  0  0  0
 28 27  1  0  0  0  0
 30 27  1  0  0  0  0
M  END
>  <minimizedAffinity>
-5.11134243

$$$$
