
 OpenBabel03212520123D

 26 27  0  0  0  0  0  0  0  0999 V2000
   42.6370   84.2250   58.5330 Cl  0  0  0  0  0  0  0  0  0  0  0  0
   41.5900   82.8380   58.2350 C   0  0  0  0  0  0  0  0  0  0  0  0
   40.9030   82.1920   59.2510 C   0  0  0  0  0  0  0  0  0  0  0  0
   40.1200   81.1140   58.8460 C   0  0  0  0  0  0  0  0  0  0  0  0
   39.9850   80.6600   57.5520 C   0  0  0  0  0  0  0  0  0  0  0  0
   40.6800   81.3260   56.5910 C   0  0  0  0  0  0  0  0  0  0  0  0
   40.5820   80.8310   54.9000 Cl  0  0  0  0  0  0  0  0  0  0  0  0
   41.4670   82.3980   56.9360 C   0  0  0  0  0  0  0  0  0  0  0  0
   39.5860   80.6190   59.6630 H   0  0  0  0  0  0  0  0  0  0  0  0
   39.3500   79.8090   57.3360 H   0  0  0  0  0  0  0  0  0  0  0  0
   41.9920   82.2610   61.5360 C   0  0  0  0  0  0  0  0  0  0  0  0
   41.0350   82.6530   60.5860 C   0  0  0  0  0  0  0  0  0  0  0  0
   40.0940   83.6080   60.9860 C   0  0  0  0  0  0  0  0  0  0  0  0
   40.1630   84.0920   62.2520 N   0  0  0  0  0  0  0  0  0  0  0  0
   41.0970   83.6890   63.1320 C   0  0  0  0  0  0  0  0  0  0  0  0
   42.0060   82.7780   62.7730 N   0  0  0  0  0  0  0  0  0  0  0  0
   42.7010   81.5210   61.1890 H   0  0  0  0  0  0  0  0  0  0  0  0
   39.3180   83.9790   60.3430 H   0  0  0  0  0  0  0  0  0  0  0  0
   41.0320   84.3230   64.4850 C   0  0  0  0  0  0  0  0  0  0  0  0
   40.6650   85.6560   64.4090 F   0  0  0  0  0  0  0  0  0  0  0  0
   40.0880   83.6750   65.2560 F   0  0  0  0  0  0  0  0  0  0  0  0
   42.2670   84.3030   65.1100 F   0  0  0  0  0  0  0  0  0  0  0  0
   42.2130   83.1010   55.8440 C   0  0  0  0  0  0  0  0  0  0  0  0
   43.5650   82.9780   55.9930 F   0  0  0  0  0  0  0  0  0  0  0  0
   41.9090   84.4370   55.8970 F   0  0  0  0  0  0  0  0  0  0  0  0
   41.8170   82.6200   54.6170 F   0  0  0  0  0  0  0  0  0  0  0  0
  2  1  1  0  0  0  0
  2  3  1  0  0  0  0
  3 12  1  0  0  0  0
  4  3  2  0  0  0  0
  4  9  1  0  0  0  0
  5  4  1  0  0  0  0
  6  8  1  0  0  0  0
  6  5  2  0  0  0  0
  7  6  1  0  0  0  0
  8  2  2  0  0  0  0
 10  5  1  0  0  0  0
 11 16  1  0  0  0  0
 12 13  1  0  0  0  0
 12 11  2  0  0  0  0
 13 14  2  0  0  0  0
 14 15  1  0  0  0  0
 15 19  1  0  0  0  0
 16 15  2  0  0  0  0
 17 11  1  0  0  0  0
 18 13  1  0  0  0  0
 19 22  1  0  0  0  0
 19 21  1  0  0  0  0
 20 19  1  0  0  0  0
 23 25  1  0  0  0  0
 23 24  1  0  0  0  0
 23  8  1  0  0  0  0
 26 23  1  0  0  0  0
M  END
>  <minimizedAffinity>
-5.36739302

>  <minimizedRMSD>
0.67839992

$$$$
