
 OpenBabel03212520123D

 26 27  0  0  0  0  0  0  0  0999 V2000
   42.5810   84.1040   58.4490 Cl  0  0  0  0  0  0  0  0  0  0  0  0
   41.5130   82.7250   58.1820 C   0  0  0  0  0  0  0  0  0  0  0  0
   40.8330   82.1000   59.2150 C   0  0  0  0  0  0  0  0  0  0  0  0
   40.0310   81.0280   58.8350 C   0  0  0  0  0  0  0  0  0  0  0  0
   39.8730   80.5600   57.5480 C   0  0  0  0  0  0  0  0  0  0  0  0
   40.5620   81.2060   56.5690 C   0  0  0  0  0  0  0  0  0  0  0  0
   40.4340   80.6910   54.8860 Cl  0  0  0  0  0  0  0  0  0  0  0  0
   41.3670   82.2710   56.8900 C   0  0  0  0  0  0  0  0  0  0  0  0
   39.5030   80.5490   59.6650 H   0  0  0  0  0  0  0  0  0  0  0  0
   39.2240   79.7140   57.3510 H   0  0  0  0  0  0  0  0  0  0  0  0
   41.9630   82.1930   61.4800 C   0  0  0  0  0  0  0  0  0  0  0  0
   40.9900   82.5760   60.5430 C   0  0  0  0  0  0  0  0  0  0  0  0
   40.0570   83.5370   60.9480 C   0  0  0  0  0  0  0  0  0  0  0  0
   40.1490   84.0350   62.2080 N   0  0  0  0  0  0  0  0  0  0  0  0
   41.0980   83.6400   63.0750 C   0  0  0  0  0  0  0  0  0  0  0  0
   42.0000   82.7230   62.7100 N   0  0  0  0  0  0  0  0  0  0  0  0
   42.6640   81.4480   61.1280 H   0  0  0  0  0  0  0  0  0  0  0  0
   39.2710   83.9020   60.3150 H   0  0  0  0  0  0  0  0  0  0  0  0
   41.0580   84.2880   64.4230 C   0  0  0  0  0  0  0  0  0  0  0  0
   40.7240   85.6290   64.3360 F   0  0  0  0  0  0  0  0  0  0  0  0
   40.1040   83.6710   65.2070 F   0  0  0  0  0  0  0  0  0  0  0  0
   42.2970   84.2450   65.0390 F   0  0  0  0  0  0  0  0  0  0  0  0
   42.1060   82.9520   55.7790 C   0  0  0  0  0  0  0  0  0  0  0  0
   41.7440   82.4630   54.5570 F   0  0  0  0  0  0  0  0  0  0  0  0
   43.4480   82.7180   55.9390 F   0  0  0  0  0  0  0  0  0  0  0  0
   41.9000   84.3110   55.8380 F   0  0  0  0  0  0  0  0  0  0  0  0
  2  1  1  0  0  0  0
  2  3  1  0  0  0  0
  3 12  1  0  0  0  0
  4  3  2  0  0  0  0
  4  9  1  0  0  0  0
  5  4  1  0  0  0  0
  6  8  1  0  0  0  0
  6  5  2  0  0  0  0
  7  6  1  0  0  0  0
  8  2  2  0  0  0  0
 10  5  1  0  0  0  0
 11 16  1  0  0  0  0
 12 13  1  0  0  0  0
 12 11  2  0  0  0  0
 13 14  2  0  0  0  0
 14 15  1  0  0  0  0
 15 19  1  0  0  0  0
 16 15  2  0  0  0  0
 17 11  1  0  0  0  0
 18 13  1  0  0  0  0
 19 22  1  0  0  0  0
 19 21  1  0  0  0  0
 20 19  1  0  0  0  0
 23 26  1  0  0  0  0
 23 25  1  0  0  0  0
 23  8  1  0  0  0  0
 24 23  1  0  0  0  0
M  END
>  <minimizedAffinity>
-5.39630747

>  <minimizedRMSD>
0.509463727

$$$$
