
 OpenBabel03212520043D

 36 39  0  0  0  0  0  0  0  0999 V2000
   40.7350   81.7560   57.1200 C   0  0  0  0  0  0  0  0  0  0  0  0
   41.8100   82.3320   56.4270 C   0  0  0  0  0  0  0  0  0  0  0  0
   42.5870   83.2400   57.1010 C   0  0  0  0  0  0  0  0  0  0  0  0
   42.3060   83.5530   58.4000 N   0  0  0  0  0  0  0  0  0  0  0  0
   41.2590   82.9740   59.0440 C   0  0  0  0  0  0  0  0  0  0  0  0
   40.4620   82.0700   58.4040 N   0  0  0  0  0  0  0  0  0  0  0  0
   40.0430   81.0360   56.7210 H   0  0  0  0  0  0  0  0  0  0  0  0
   41.8600   81.9140   55.4510 H   0  0  0  0  0  0  0  0  0  0  0  0
   39.6820   83.0920   60.9150 C   0  0  0  0  0  0  0  0  0  0  0  0
   40.9830   83.2820   60.4410 C   0  0  0  0  0  0  0  0  0  0  0  0
   42.0000   83.7360   61.2810 C   0  0  0  0  0  0  0  0  0  0  0  0
   41.7610   84.0160   62.6150 C   0  0  0  0  0  0  0  0  0  0  0  0
   42.4560   84.4470   63.6780 N   0  0  0  0  0  0  0  0  0  0  0  0
   41.6680   84.5320   64.7640 C   0  0  0  0  0  0  0  0  0  0  0  0
   40.4590   84.1380   64.3400 N   0  0  0  0  0  0  0  0  0  0  0  0
   40.4750   83.8150   63.0330 C   0  0  0  0  0  0  0  0  0  0  0  0
   39.4290   83.3700   62.2590 C   0  0  0  0  0  0  0  0  0  0  0  0
   38.8790   82.7490   60.3110 H   0  0  0  0  0  0  0  0  0  0  0  0
   43.0190   83.8850   60.9100 H   0  0  0  0  0  0  0  0  0  0  0  0
   43.4880   84.6710   63.5940 H   0  0  0  0  0  0  0  0  0  0  0  0
   42.0480   84.8600   65.7150 H   0  0  0  0  0  0  0  0  0  0  0  0
   38.4520   83.2410   62.6660 H   0  0  0  0  0  0  0  0  0  0  0  0
   42.3350   83.6160   54.1560 Cl  0  0  0  0  0  0  0  0  0  0  0  0
   43.7290   84.1280   55.1070 C   0  0  0  0  0  0  0  0  0  0  0  0
   43.7060   83.8910   56.4560 C   0  0  0  0  0  0  0  0  0  0  0  0
   44.8400   84.3360   57.1340 C   0  0  0  0  0  0  0  0  0  0  0  0
   45.9040   84.9620   56.5150 C   0  0  0  0  0  0  0  0  0  0  0  0
   45.8700   85.1730   55.1500 C   0  0  0  0  0  0  0  0  0  0  0  0
   47.1890   85.9590   54.3230 Cl  0  0  0  0  0  0  0  0  0  0  0  0
   44.7720   84.7500   54.4480 C   0  0  0  0  0  0  0  0  0  0  0  0
   44.8980   84.1860   58.2040 H   0  0  0  0  0  0  0  0  0  0  0  0
   46.7450   85.2770   57.1080 H   0  0  0  0  0  0  0  0  0  0  0  0
   44.6830   84.9510   52.9780 C   0  0  0  0  0  0  0  0  0  0  0  0
   43.4660   84.5330   52.4920 F   0  0  0  0  0  0  0  0  0  0  0  0
   45.7370   84.4170   52.2870 F   0  0  0  0  0  0  0  0  0  0  0  0
   44.7140   86.3350   52.7840 F   0  0  0  0  0  0  0  0  0  0  0  0
  1  6  1  0  0  0  0
  2  3  1  0  0  0  0
  2  1  2  0  0  0  0
  3  4  2  0  0  0  0
  4  5  1  0  0  0  0
  5 10  1  0  0  0  0
  6  5  2  0  0  0  0
  7  1  1  0  0  0  0
  8  2  1  0  0  0  0
  9 17  1  0  0  0  0
 10  9  2  0  0  0  0
 10 11  1  0  0  0  0
 11 12  2  0  0  0  0
 12 16  1  0  0  0  0
 12 13  1  0  0  0  0
 13 14  1  0  0  0  0
 14 21  1  0  0  0  0
 15 14  2  0  0  0  0
 16 15  1  0  0  0  0
 17 22  1  0  0  0  0
 17 16  2  0  0  0  0
 18  9  1  0  0  0  0
 19 11  1  0  0  0  0
 20 13  1  0  0  0  0
 23 24  1  0  0  0  0
 24 25  1  0  0  0  0
 25  3  1  0  0  0  0
 25 26  2  0  0  0  0
 26 31  1  0  0  0  0
 27 32  1  0  0  0  0
 27 26  1  0  0  0  0
 28 27  2  0  0  0  0
 29 28  1  0  0  0  0
 30 24  2  0  0  0  0
 30 28  1  0  0  0  0
 33 30  1  0  0  0  0
 34 33  1  0  0  0  0
 35 33  1  0  0  0  0
 36 33  1  0  0  0  0
M  END
>  <minimizedAffinity>
-4.98982334

>  <minimizedRMSD>
0.0493739136

$$$$
