
 OpenBabel03212520513D

 30 32  0  0  1  0  0  0  0  0999 V2000
   42.4490   84.4040   61.7860 C   0  0  0  0  0  0  0  0  0  0  0  0
   42.2930   84.6210   63.1390 C   0  0  0  0  0  0  0  0  0  0  0  0
   41.3040   83.9620   63.8620 C   0  0  0  0  0  0  0  0  0  0  0  0
   40.4790   83.0970   63.2400 N   0  0  0  0  0  0  0  0  0  0  0  0
   40.6530   82.9010   61.9120 C   0  0  0  0  0  0  0  0  0  0  0  0
   41.6040   83.5240   61.1820 N   0  0  0  0  0  0  0  0  0  0  0  0
   42.9550   85.3190   63.6510 H   0  0  0  0  0  0  0  0  0  0  0  0
   41.2510   84.1880   64.9080 H   0  0  0  0  0  0  0  0  0  0  0  0
   45.6830   85.4070   60.4200 C   0  0  0  0  0  0  0  0  0  0  0  0
   45.3370   86.4120   59.5290 C   0  0  0  0  0  0  0  0  0  0  0  0
   44.0040   86.7550   59.3880 C   0  0  0  0  0  0  0  0  0  0  0  0
   43.1160   86.0620   60.1500 N   0  0  0  0  0  0  0  0  0  0  0  0
   43.4740   85.0910   61.0070 C   0  0  0  0  0  0  0  0  0  0  0  0
   44.7460   84.7550   61.1500 N   0  0  0  0  0  0  0  0  0  0  0  0
   47.0920   85.1620   60.4710 N   0  0  0  0  0  0  0  0  0  0  0  0
   46.0400   86.9660   58.9210 H   0  0  0  0  0  0  0  0  0  0  0  0
   43.6760   87.5320   58.7080 H   0  0  0  0  0  0  0  0  0  0  0  0
   47.3160   85.6120   61.3880 H   0  0  0  0  0  0  0  0  0  0  0  0
   47.7770   84.6990   59.8570 H   0  0  0  0  0  0  0  0  0  0  0  0
   39.7020   81.9380   61.2640 C   0  0  1  0  0  0  0  0  0  0  0  0
   39.9900   81.3390   59.9810 C   0  0  0  0  0  0  0  0  0  0  0  0
   40.3050   80.5170   61.1870 C   0  0  1  0  0  0  0  0  0  0  0  0
   38.6540   81.9050   61.6740 H   0  0  0  0  0  0  0  0  0  0  0  0
   39.1940   81.0640   59.2700 H   0  0  0  0  0  0  0  0  0  0  0  0
   40.8650   81.7900   59.4270 H   0  0  0  0  0  0  0  0  0  0  0  0
   39.6300   79.6540   61.3280 H   0  0  0  0  0  0  0  0  0  0  0  0
   41.7420   80.3020   61.4880 C   0  0  0  0  0  0  0  0  0  0  0  0
   41.9580   78.9230   61.5800 F   0  0  0  0  0  0  0  0  0  0  0  0
   42.5380   80.7460   60.4550 F   0  0  0  0  0  0  0  0  0  0  0  0
   42.1550   80.8160   62.6930 F   0  0  0  0  0  0  0  0  0  0  0  0
  1  2  1  0  0  0  0
  2  7  1  0  0  0  0
  2  3  2  0  0  0  0
  3  8  1  0  0  0  0
  4  3  1  0  0  0  0
  5  4  2  0  0  0  0
  6  1  2  0  0  0  0
  6  5  1  0  0  0  0
  9 15  1  0  0  0  0
  9 14  1  0  0  0  0
 10  9  2  0  0  0  0
 11 10  1  0  0  0  0
 11 12  2  0  0  0  0
 12 13  1  0  0  0  0
 13 14  2  0  0  0  0
 13  1  1  0  0  0  0
 15 18  1  0  0  0  0
 16 10  1  0  0  0  0
 17 11  1  0  0  0  0
 19 15  1  0  0  0  0
 20 23  1  1  0  0  0
 20  5  1  0  0  0  0
 21 22  1  0  0  0  0
 21 20  1  0  0  0  0
 22 20  1  0  0  0  0
 22 26  1  1  0  0  0
 22 27  1  0  0  0  0
 24 21  1  0  0  0  0
 25 21  1  0  0  0  0
 27 28  1  0  0  0  0
 27 30  1  0  0  0  0
 29 27  1  0  0  0  0
M  END
>  <minimizedAffinity>
-5.0980835

>  <minimizedRMSD>
2.51766348

$$$$
