
 OpenBabel03212521033D

 23 24  0  0  0  0  0  0  0  0999 V2000
   41.7180   84.1330   61.7650 C   0  0  0  0  0  0  0  0  0  0  0  0
   42.7540   84.3380   62.6660 C   0  0  0  0  0  0  0  0  0  0  0  0
   42.5670   84.3230   64.0230 C   0  0  0  0  0  0  0  0  0  0  0  0
   41.2660   84.0900   64.5130 C   0  0  0  0  0  0  0  0  0  0  0  0
   40.2330   83.8850   63.6110 C   0  0  0  0  0  0  0  0  0  0  0  0
   40.4460   83.9040   62.2480 C   0  0  0  0  0  0  0  0  0  0  0  0
   43.7430   84.5140   62.2500 H   0  0  0  0  0  0  0  0  0  0  0  0
   43.3710   84.4830   64.7270 H   0  0  0  0  0  0  0  0  0  0  0  0
   41.1630   84.0860   65.5810 H   0  0  0  0  0  0  0  0  0  0  0  0
   39.2740   83.7150   64.0830 H   0  0  0  0  0  0  0  0  0  0  0  0
   42.5220   83.1050   58.3410 C   0  0  0  0  0  0  0  0  0  0  0  0
   42.4910   84.3010   57.6340 C   0  0  0  0  0  0  0  0  0  0  0  0
   42.1920   85.4640   58.3460 C   0  0  0  0  0  0  0  0  0  0  0  0
   41.9500   85.3710   59.6690 N   0  0  0  0  0  0  0  0  0  0  0  0
   41.9850   84.1820   60.3450 C   0  0  0  0  0  0  0  0  0  0  0  0
   42.2700   83.0970   59.6550 N   0  0  0  0  0  0  0  0  0  0  0  0
   42.7490   82.1690   57.8390 H   0  0  0  0  0  0  0  0  0  0  0  0
   42.6880   84.3440   56.5810 H   0  0  0  0  0  0  0  0  0  0  0  0
   42.1480   86.4480   57.8570 H   0  0  0  0  0  0  0  0  0  0  0  0
   39.2480   83.6390   61.4270 C   0  0  0  0  0  0  0  0  0  0  0  0
   38.9840   84.6400   60.5120 F   0  0  0  0  0  0  0  0  0  0  0  0
   38.1100   83.5000   62.2160 F   0  0  0  0  0  0  0  0  0  0  0  0
   39.3450   82.4490   60.7340 F   0  0  0  0  0  0  0  0  0  0  0  0
  1  6  2  0  0  0  0
  1  2  1  0  0  0  0
  2  3  2  0  0  0  0
  3  4  1  0  0  0  0
  3  8  1  0  0  0  0
  4  9  1  0  0  0  0
  5 10  1  0  0  0  0
  5  4  2  0  0  0  0
  6  5  1  0  0  0  0
  7  2  1  0  0  0  0
 11 16  1  0  0  0  0
 12 11  2  0  0  0  0
 12 13  1  0  0  0  0
 13 14  2  0  0  0  0
 14 15  1  0  0  0  0
 15  1  1  0  0  0  0
 16 15  2  0  0  0  0
 17 11  1  0  0  0  0
 18 12  1  0  0  0  0
 19 13  1  0  0  0  0
 20 22  1  0  0  0  0
 20  6  1  0  0  0  0
 21 20  1  0  0  0  0
 23 20  1  0  0  0  0
M  END
>  <minimizedAffinity>
-5.18488979

>  <minimizedRMSD>
1.11953938

$$$$
