
 OpenBabel03212520543D

 28 30  0  0  0  0  0  0  0  0999 V2000
   42.9420   78.2040   62.2360 C   0  0  0  0  0  0  0  0  0  0  0  0
   41.5840   78.5110   62.2530 C   0  0  0  0  0  0  0  0  0  0  0  0
   41.2220   79.7990   62.0540 C   0  0  0  0  0  0  0  0  0  0  0  0
   42.2030   80.7700   61.8400 C   0  0  0  0  0  0  0  0  0  0  0  0
   43.7710   79.7880   61.9260 S   0  0  0  0  0  0  0  0  0  0  0  0
   40.8230   77.7610   62.4190 H   0  0  0  0  0  0  0  0  0  0  0  0
   40.2340   80.2320   62.0310 H   0  0  0  0  0  0  0  0  0  0  0  0
   43.6300   74.6570   61.6590 C   0  0  0  0  0  0  0  0  0  0  0  0
   44.4530   74.3040   62.7600 C   0  0  0  0  0  0  0  0  0  0  0  0
   44.7600   75.2940   63.6860 C   0  0  0  0  0  0  0  0  0  0  0  0
   44.2580   76.5200   63.4790 N   0  0  0  0  0  0  0  0  0  0  0  0
   43.4850   76.8390   62.4370 C   0  0  0  0  0  0  0  0  0  0  0  0
   43.1760   75.9140   61.5390 N   0  0  0  0  0  0  0  0  0  0  0  0
   43.3400   73.9460   60.8860 H   0  0  0  0  0  0  0  0  0  0  0  0
   44.7880   73.2870   62.8090 H   0  0  0  0  0  0  0  0  0  0  0  0
   45.3810   75.0340   64.5210 H   0  0  0  0  0  0  0  0  0  0  0  0
   42.2320   82.1780   61.6010 C   0  0  0  0  0  0  0  0  0  0  0  0
   43.2480   82.9240   62.1710 C   0  0  0  0  0  0  0  0  0  0  0  0
   43.1660   84.2880   61.8640 C   0  0  0  0  0  0  0  0  0  0  0  0
   42.2100   84.8310   61.1000 N   0  0  0  0  0  0  0  0  0  0  0  0
   41.2510   84.0070   60.5850 C   0  0  0  0  0  0  0  0  0  0  0  0
   41.2590   82.6620   60.8370 N   0  0  0  0  0  0  0  0  0  0  0  0
   44.0240   82.5320   62.7820 H   0  0  0  0  0  0  0  0  0  0  0  0
   43.9060   84.9630   62.2560 H   0  0  0  0  0  0  0  0  0  0  0  0
   40.1490   84.5520   59.7190 C   0  0  0  0  0  0  0  0  0  0  0  0
   40.7470   85.5750   58.9730 F   0  0  0  0  0  0  0  0  0  0  0  0
   39.2070   85.1520   60.4970 F   0  0  0  0  0  0  0  0  0  0  0  0
   39.6200   83.5970   58.9050 F   0  0  0  0  0  0  0  0  0  0  0  0
  1  2  2  0  0  0  0
  1 12  1  0  0  0  0
  2  6  1  0  0  0  0
  3  2  1  0  0  0  0
  4  5  1  0  0  0  0
  4  3  2  0  0  0  0
  5  1  1  0  0  0  0
  7  3  1  0  0  0  0
  8  9  1  0  0  0  0
  9 15  1  0  0  0  0
  9 10  2  0  0  0  0
 10 16  1  0  0  0  0
 11 10  1  0  0  0  0
 12 11  2  0  0  0  0
 13  8  2  0  0  0  0
 13 12  1  0  0  0  0
 14  8  1  0  0  0  0
 17  4  1  0  0  0  0
 17 18  1  0  0  0  0
 18 23  1  0  0  0  0
 19 18  2  0  0  0  0
 19 24  1  0  0  0  0
 20 19  1  0  0  0  0
 21 22  1  0  0  0  0
 21 20  2  0  0  0  0
 22 17  2  0  0  0  0
 25 27  1  0  0  0  0
 25 21  1  0  0  0  0
 26 25  1  0  0  0  0
 28 25  1  0  0  0  0
M  END
>  <minimizedAffinity>
-4.89236784

>  <minimizedRMSD>
4.15276051

$$$$
