
 OpenBabel03212520343D

 29 31  0  0  0  0  0  0  0  0999 V2000
   41.7060   83.2050   58.8030 C   0  0  0  0  0  0  0  0  0  0  0  0
   42.4190   84.1780   58.0940 C   0  0  0  0  0  0  0  0  0  0  0  0
   42.5450   84.1860   56.7200 C   0  0  0  0  0  0  0  0  0  0  0  0
   41.9480   83.1920   55.9790 C   0  0  0  0  0  0  0  0  0  0  0  0
   41.2390   82.2220   56.6620 C   0  0  0  0  0  0  0  0  0  0  0  0
   40.6040   81.1730   56.0250 C   0  0  0  0  0  0  0  0  0  0  0  0
   39.9090   80.2070   56.7180 C   0  0  0  0  0  0  0  0  0  0  0  0
   39.8110   80.2400   58.0930 C   0  0  0  0  0  0  0  0  0  0  0  0
   40.4360   81.2810   58.7580 C   0  0  0  0  0  0  0  0  0  0  0  0
   41.1250   82.2320   58.0340 C   0  0  0  0  0  0  0  0  0  0  0  0
   42.9240   85.0020   58.6070 H   0  0  0  0  0  0  0  0  0  0  0  0
   43.1090   84.9620   56.2140 H   0  0  0  0  0  0  0  0  0  0  0  0
   42.0110   83.1460   54.9150 H   0  0  0  0  0  0  0  0  0  0  0  0
   40.6700   81.1270   54.9270 H   0  0  0  0  0  0  0  0  0  0  0  0
   39.4490   79.4280   56.1240 H   0  0  0  0  0  0  0  0  0  0  0  0
   39.2540   79.4590   58.6010 H   0  0  0  0  0  0  0  0  0  0  0  0
   40.3460   81.2980   59.8350 H   0  0  0  0  0  0  0  0  0  0  0  0
   42.5710   82.9300   61.2200 C   0  0  0  0  0  0  0  0  0  0  0  0
   41.6880   83.3930   60.2490 C   0  0  0  0  0  0  0  0  0  0  0  0
   40.5770   84.1710   60.6700 C   0  0  0  0  0  0  0  0  0  0  0  0
   40.4310   84.4220   61.9960 N   0  0  0  0  0  0  0  0  0  0  0  0
   41.3140   83.9510   62.9130 C   0  0  0  0  0  0  0  0  0  0  0  0
   42.3540   83.2230   62.5090 N   0  0  0  0  0  0  0  0  0  0  0  0
   43.3860   82.3550   60.8020 H   0  0  0  0  0  0  0  0  0  0  0  0
   39.8280   84.5830   60.0100 H   0  0  0  0  0  0  0  0  0  0  0  0
   41.0980   84.2600   64.3330 C   0  0  0  0  0  0  0  0  0  0  0  0
   40.2480   83.4030   64.9800 F   0  0  0  0  0  0  0  0  0  0  0  0
   42.3130   84.2300   65.0230 F   0  0  0  0  0  0  0  0  0  0  0  0
   40.6340   85.5550   64.4310 F   0  0  0  0  0  0  0  0  0  0  0  0
  1 19  1  0  0  0  0
  2 11  1  0  0  0  0
  2  1  1  0  0  0  0
  3  2  2  0  0  0  0
  4  5  2  0  0  0  0
  4  3  1  0  0  0  0
  5 10  1  0  0  0  0
  6  5  1  0  0  0  0
  6  7  2  0  0  0  0
  7  8  1  0  0  0  0
  8 16  1  0  0  0  0
  8  9  2  0  0  0  0
  9 17  1  0  0  0  0
 10  9  1  0  0  0  0
 10  1  2  0  0  0  0
 12  3  1  0  0  0  0
 13  4  1  0  0  0  0
 14  6  1  0  0  0  0
 15  7  1  0  0  0  0
 18 23  1  0  0  0  0
 19 20  1  0  0  0  0
 19 18  2  0  0  0  0
 20 21  2  0  0  0  0
 21 22  1  0  0  0  0
 22 26  1  0  0  0  0
 23 22  2  0  0  0  0
 24 18  1  0  0  0  0
 25 20  1  0  0  0  0
 26 29  1  0  0  0  0
 26 27  1  0  0  0  0
 26 28  1  0  0  0  0
M  END
>  <minimizedAffinity>
-5.45008516

>  <minimizedRMSD>
2.06882286

$$$$
