
 OpenBabel03212520133D

 26 27  0  0  0  0  0  0  0  0999 V2000
   43.1800   82.3970   60.0510 Cl  0  0  0  0  0  0  0  0  0  0  0  0
   41.7140   82.7650   60.9600 C   0  0  0  0  0  0  0  0  0  0  0  0
   40.4610   82.3320   60.5580 C   0  0  0  0  0  0  0  0  0  0  0  0
   39.4080   82.7080   61.3870 C   0  0  0  0  0  0  0  0  0  0  0  0
   39.5210   83.4570   62.5390 C   0  0  0  0  0  0  0  0  0  0  0  0
   40.7720   83.8600   62.8910 C   0  0  0  0  0  0  0  0  0  0  0  0
   41.0330   84.8230   64.3460 Cl  0  0  0  0  0  0  0  0  0  0  0  0
   41.8460   83.5150   62.1080 C   0  0  0  0  0  0  0  0  0  0  0  0
   38.4280   82.3560   61.0530 H   0  0  0  0  0  0  0  0  0  0  0  0
   38.6390   83.7010   63.1200 H   0  0  0  0  0  0  0  0  0  0  0  0
   40.2720   82.0270   58.0510 C   0  0  0  0  0  0  0  0  0  0  0  0
   40.3350   81.5600   59.3740 C   0  0  0  0  0  0  0  0  0  0  0  0
   40.2670   80.1760   59.5660 C   0  0  0  0  0  0  0  0  0  0  0  0
   40.1460   79.3780   58.4740 N   0  0  0  0  0  0  0  0  0  0  0  0
   40.0890   79.8660   57.2230 C   0  0  0  0  0  0  0  0  0  0  0  0
   40.1520   81.1850   57.0150 N   0  0  0  0  0  0  0  0  0  0  0  0
   40.3280   83.1020   57.9450 H   0  0  0  0  0  0  0  0  0  0  0  0
   40.3060   79.7100   60.5330 H   0  0  0  0  0  0  0  0  0  0  0  0
   39.9560   78.8490   56.1340 C   0  0  0  0  0  0  0  0  0  0  0  0
   38.6450   78.4350   55.9770 F   0  0  0  0  0  0  0  0  0  0  0  0
   40.3670   79.3960   54.9350 F   0  0  0  0  0  0  0  0  0  0  0  0
   40.6840   77.7070   56.4210 F   0  0  0  0  0  0  0  0  0  0  0  0
   43.2040   83.9800   62.5350 C   0  0  0  0  0  0  0  0  0  0  0  0
   44.1860   83.4950   61.7180 F   0  0  0  0  0  0  0  0  0  0  0  0
   43.4490   83.5130   63.8010 F   0  0  0  0  0  0  0  0  0  0  0  0
   43.2420   85.3540   62.5720 F   0  0  0  0  0  0  0  0  0  0  0  0
  1  2  1  0  0  0  0
  2  8  1  0  0  0  0
  3  2  2  0  0  0  0
  3  4  1  0  0  0  0
  4  5  2  0  0  0  0
  5  6  1  0  0  0  0
  5 10  1  0  0  0  0
  6  7  1  0  0  0  0
  8 23  1  0  0  0  0
  8  6  2  0  0  0  0
  9  4  1  0  0  0  0
 11 12  1  0  0  0  0
 12 13  2  0  0  0  0
 12  3  1  0  0  0  0
 13 18  1  0  0  0  0
 14 13  1  0  0  0  0
 15 14  2  0  0  0  0
 16 15  1  0  0  0  0
 16 11  2  0  0  0  0
 17 11  1  0  0  0  0
 19 22  1  0  0  0  0
 19 15  1  0  0  0  0
 20 19  1  0  0  0  0
 21 19  1  0  0  0  0
 23 26  1  0  0  0  0
 23 25  1  0  0  0  0
 24 23  1  0  0  0  0
M  END
>  <minimizedAffinity>
-5.01208115

>  <minimizedRMSD>
7.10422277

$$$$
