
 OpenBabel03212520513D

 30 32  0  0  1  0  0  0  0  0999 V2000
   41.8870   83.8880   61.2500 C   0  0  0  0  0  0  0  0  0  0  0  0
   40.9370   84.1470   62.2160 C   0  0  0  0  0  0  0  0  0  0  0  0
   40.4850   83.1420   63.0650 C   0  0  0  0  0  0  0  0  0  0  0  0
   40.9760   81.8930   62.9510 N   0  0  0  0  0  0  0  0  0  0  0  0
   41.9090   81.6640   61.9970 C   0  0  0  0  0  0  0  0  0  0  0  0
   42.3690   82.6190   61.1560 N   0  0  0  0  0  0  0  0  0  0  0  0
   40.5330   85.1540   62.3160 H   0  0  0  0  0  0  0  0  0  0  0  0
   39.7460   83.4280   63.7870 H   0  0  0  0  0  0  0  0  0  0  0  0
   43.7310   86.7310   59.8910 C   0  0  0  0  0  0  0  0  0  0  0  0
   43.2200   86.8380   58.6060 C   0  0  0  0  0  0  0  0  0  0  0  0
   42.2460   85.9440   58.1940 C   0  0  0  0  0  0  0  0  0  0  0  0
   41.8590   85.0090   59.1020 N   0  0  0  0  0  0  0  0  0  0  0  0
   42.3690   84.9250   60.3430 C   0  0  0  0  0  0  0  0  0  0  0  0
   43.3000   85.7740   60.7470 N   0  0  0  0  0  0  0  0  0  0  0  0
   44.7210   87.7220   60.1850 N   0  0  0  0  0  0  0  0  0  0  0  0
   43.5250   87.5800   57.8800 H   0  0  0  0  0  0  0  0  0  0  0  0
   41.8110   85.9800   57.2020 H   0  0  0  0  0  0  0  0  0  0  0  0
   44.1620   88.3520   60.8040 H   0  0  0  0  0  0  0  0  0  0  0  0
   45.7080   87.8690   59.9260 H   0  0  0  0  0  0  0  0  0  0  0  0
   42.4150   80.2560   61.9020 C   0  0  1  0  0  0  0  0  0  0  0  0
   41.5780   79.1260   62.2320 C   0  0  0  0  0  0  0  0  0  0  0  0
   41.6920   79.4710   60.7840 C   0  0  1  0  0  0  0  0  0  0  0  0
   43.5310   80.1210   61.8260 H   0  0  0  0  0  0  0  0  0  0  0  0
   41.9880   78.1940   62.6520 H   0  0  0  0  0  0  0  0  0  0  0  0
   40.6040   79.3860   62.7430 H   0  0  0  0  0  0  0  0  0  0  0  0
   42.2760   78.7400   60.1960 H   0  0  0  0  0  0  0  0  0  0  0  0
   40.4840   80.0410   60.1380 C   0  0  0  0  0  0  0  0  0  0  0  0
   39.5710   80.3630   61.1480 F   0  0  0  0  0  0  0  0  0  0  0  0
   40.7750   81.2240   59.4940 F   0  0  0  0  0  0  0  0  0  0  0  0
   39.8180   79.1720   59.3080 F   0  0  0  0  0  0  0  0  0  0  0  0
  1  2  1  0  0  0  0
  2  7  1  0  0  0  0
  2  3  2  0  0  0  0
  3  8  1  0  0  0  0
  4  3  1  0  0  0  0
  5  4  2  0  0  0  0
  6  1  2  0  0  0  0
  6  5  1  0  0  0  0
  9 15  1  0  0  0  0
  9 14  1  0  0  0  0
 10  9  2  0  0  0  0
 11 10  1  0  0  0  0
 11 12  2  0  0  0  0
 12 13  1  0  0  0  0
 13 14  2  0  0  0  0
 13  1  1  0  0  0  0
 15 18  1  0  0  0  0
 16 10  1  0  0  0  0
 17 11  1  0  0  0  0
 19 15  1  0  0  0  0
 20 23  1  1  0  0  0
 20  5  1  0  0  0  0
 20 21  1  0  0  0  0
 21 24  1  0  0  0  0
 21 25  1  0  0  0  0
 22 26  1  6  0  0  0
 22 20  1  0  0  0  0
 22 21  1  0  0  0  0
 27 22  1  0  0  0  0
 27 28  1  0  0  0  0
 29 27  1  0  0  0  0
 30 27  1  0  0  0  0
M  END
>  <minimizedAffinity>
-4.90952873

>  <minimizedRMSD>
0.929700255

$$$$
