
 OpenBabel03212520023D

 26 28  0  0  0  0  0  0  0  0999 V2000
   41.5230   71.5160   62.7280 C   0  0  0  0  0  0  0  0  0  0  0  0
   42.2210   71.7960   61.5400 C   0  0  0  0  0  0  0  0  0  0  0  0
   43.1550   70.9090   61.0440 C   0  0  0  0  0  0  0  0  0  0  0  0
   43.4300   69.7190   61.7060 C   0  0  0  0  0  0  0  0  0  0  0  0
   44.2540   68.6650   61.5050 N   0  0  0  0  0  0  0  0  0  0  0  0
   44.0920   67.7730   62.5010 C   0  0  0  0  0  0  0  0  0  0  0  0
   43.1410   68.3080   63.3230 N   0  0  0  0  0  0  0  0  0  0  0  0
   42.7290   69.4890   62.8550 C   0  0  0  0  0  0  0  0  0  0  0  0
   41.7820   70.3320   63.4060 C   0  0  0  0  0  0  0  0  0  0  0  0
   40.8050   72.2300   63.0790 H   0  0  0  0  0  0  0  0  0  0  0  0
   43.7010   71.1150   60.1260 H   0  0  0  0  0  0  0  0  0  0  0  0
   44.8660   68.6900   60.6560 H   0  0  0  0  0  0  0  0  0  0  0  0
   44.6530   66.8510   62.5430 H   0  0  0  0  0  0  0  0  0  0  0  0
   41.2580   70.0870   64.3270 H   0  0  0  0  0  0  0  0  0  0  0  0
   42.4920   74.6960   59.3180 C   0  0  0  0  0  0  0  0  0  0  0  0
   41.3130   75.4240   59.6030 C   0  0  0  0  0  0  0  0  0  0  0  0
   40.4510   74.8950   60.5580 C   0  0  0  0  0  0  0  0  0  0  0  0
   40.7680   73.7200   61.1690 N   0  0  0  0  0  0  0  0  0  0  0  0
   41.9190   73.0460   60.8640 C   0  0  0  0  0  0  0  0  0  0  0  0
   42.7540   73.5440   59.9490 N   0  0  0  0  0  0  0  0  0  0  0  0
   43.2210   75.0240   58.5940 H   0  0  0  0  0  0  0  0  0  0  0  0
   41.1350   76.3560   59.0690 H   0  0  0  0  0  0  0  0  0  0  0  0
   39.2070   75.6360   60.8790 C   0  0  0  0  0  0  0  0  0  0  0  0
   38.2510   74.8720   61.4770 F   0  0  0  0  0  0  0  0  0  0  0  0
   39.5110   76.6970   61.7200 F   0  0  0  0  0  0  0  0  0  0  0  0
   38.7320   76.1470   59.6710 F   0  0  0  0  0  0  0  0  0  0  0  0
  1 10  1  0  0  0  0
  1  9  1  0  0  0  0
  2  1  2  0  0  0  0
  3  2  1  0  0  0  0
  3  4  2  0  0  0  0
  4  8  1  0  0  0  0
  5  4  1  0  0  0  0
  5  6  1  0  0  0  0
  6 13  1  0  0  0  0
  6  7  2  0  0  0  0
  8  7  1  0  0  0  0
  8  9  2  0  0  0  0
  9 14  1  0  0  0  0
 11  3  1  0  0  0  0
 12  5  1  0  0  0  0
 15 16  2  0  0  0  0
 15 20  1  0  0  0  0
 16 17  1  0  0  0  0
 17 23  1  0  0  0  0
 17 18  2  0  0  0  0
 19 18  1  0  0  0  0
 19  2  1  0  0  0  0
 20 19  2  0  0  0  0
 21 15  1  0  0  0  0
 22 16  1  0  0  0  0
 23 24  1  0  0  0  0
 23 25  1  0  0  0  0
 26 23  1  0  0  0  0
M  END
>  <minimizedAffinity>
-5.69968557

$$$$

 OpenBabel03212520023D

 26 28  0  0  0  0  0  0  0  0999 V2000
   42.4030   74.0330   59.9900 C   0  0  0  0  0  0  0  0  0  0  0  0
   41.0490   74.2570   60.2940 C   0  0  0  0  0  0  0  0  0  0  0  0
   40.3920   73.4670   61.2150 C   0  0  0  0  0  0  0  0  0  0  0  0
   41.0510   72.4300   61.8630 C   0  0  0  0  0  0  0  0  0  0  0  0
   40.7220   71.4960   62.7860 N   0  0  0  0  0  0  0  0  0  0  0  0
   41.7960   70.7290   63.0510 C   0  0  0  0  0  0  0  0  0  0  0  0
   42.8010   71.2170   62.2640 N   0  0  0  0  0  0  0  0  0  0  0  0
   42.3650   72.2490   61.5370 C   0  0  0  0  0  0  0  0  0  0  0  0
   43.0820   73.0030   60.6270 C   0  0  0  0  0  0  0  0  0  0  0  0
   42.8770   74.6700   59.2700 H   0  0  0  0  0  0  0  0  0  0  0  0
   39.3450   73.6290   61.4580 H   0  0  0  0  0  0  0  0  0  0  0  0
   39.7370   71.5010   63.1420 H   0  0  0  0  0  0  0  0  0  0  0  0
   41.7610   69.9160   63.7610 H   0  0  0  0  0  0  0  0  0  0  0  0
   44.1300   72.8060   60.4120 H   0  0  0  0  0  0  0  0  0  0  0  0
   40.0280   77.6310   59.2950 C   0  0  0  0  0  0  0  0  0  0  0  0
   39.0830   77.3850   58.2720 C   0  0  0  0  0  0  0  0  0  0  0  0
   38.8200   76.0580   57.9510 C   0  0  0  0  0  0  0  0  0  0  0  0
   39.4690   75.0650   58.6200 N   0  0  0  0  0  0  0  0  0  0  0  0
   40.3780   75.3450   59.6040 C   0  0  0  0  0  0  0  0  0  0  0  0
   40.6380   76.6160   59.9210 N   0  0  0  0  0  0  0  0  0  0  0  0
   40.2990   78.6250   59.6150 H   0  0  0  0  0  0  0  0  0  0  0  0
   38.6080   78.2370   57.7870 H   0  0  0  0  0  0  0  0  0  0  0  0
   37.8320   75.7680   56.8820 C   0  0  0  0  0  0  0  0  0  0  0  0
   37.1750   76.8720   56.4290 F   0  0  0  0  0  0  0  0  0  0  0  0
   38.4790   75.1720   55.8100 F   0  0  0  0  0  0  0  0  0  0  0  0
   36.9280   74.8530   57.4220 F   0  0  0  0  0  0  0  0  0  0  0  0
  1  2  2  0  0  0  0
  1  9  1  0  0  0  0
  2  3  1  0  0  0  0
  3 11  1  0  0  0  0
  3  4  2  0  0  0  0
  4  5  1  0  0  0  0
  5  6  1  0  0  0  0
  5 12  1  0  0  0  0
  6 13  1  0  0  0  0
  7  6  2  0  0  0  0
  8  4  1  0  0  0  0
  8  7  1  0  0  0  0
  9  8  2  0  0  0  0
 10  1  1  0  0  0  0
 14  9  1  0  0  0  0
 15 21  1  0  0  0  0
 15 20  1  0  0  0  0
 16 15  2  0  0  0  0
 17 16  1  0  0  0  0
 17 18  2  0  0  0  0
 18 19  1  0  0  0  0
 19 20  2  0  0  0  0
 19  2  1  0  0  0  0
 22 16  1  0  0  0  0
 23 26  1  0  0  0  0
 23 17  1  0  0  0  0
 24 23  1  0  0  0  0
 25 23  1  0  0  0  0
M  END
>  <minimizedAffinity>
-5.6509285

$$$$

 OpenBabel03212520023D

 26 28  0  0  0  0  0  0  0  0999 V2000
   41.6420   71.3770   62.8580 C   0  0  0  0  0  0  0  0  0  0  0  0
   41.8170   71.4560   61.4650 C   0  0  0  0  0  0  0  0  0  0  0  0
   42.0750   70.3240   60.7210 C   0  0  0  0  0  0  0  0  0  0  0  0
   42.1710   69.0770   61.3280 C   0  0  0  0  0  0  0  0  0  0  0  0
   42.4040   67.8110   60.9140 N   0  0  0  0  0  0  0  0  0  0  0  0
   42.3810   66.9800   61.9730 C   0  0  0  0  0  0  0  0  0  0  0  0
   42.1250   67.7730   63.0570 N   0  0  0  0  0  0  0  0  0  0  0  0
   41.9940   69.0480   62.6820 C   0  0  0  0  0  0  0  0  0  0  0  0
   41.7330   70.1420   63.4860 C   0  0  0  0  0  0  0  0  0  0  0  0
   41.4420   72.2800   63.4000 H   0  0  0  0  0  0  0  0  0  0  0  0
   42.2120   70.3720   59.6430 H   0  0  0  0  0  0  0  0  0  0  0  0
   42.5620   67.6630   59.8890 H   0  0  0  0  0  0  0  0  0  0  0  0
   42.5440   65.9180   61.8750 H   0  0  0  0  0  0  0  0  0  0  0  0
   41.6020   70.0500   64.5620 H   0  0  0  0  0  0  0  0  0  0  0  0
   42.6030   74.4290   59.4730 C   0  0  0  0  0  0  0  0  0  0  0  0
   41.4860   75.2660   59.7020 C   0  0  0  0  0  0  0  0  0  0  0  0
   40.4860   74.7840   60.5390 C   0  0  0  0  0  0  0  0  0  0  0  0
   40.6180   73.5490   61.0970 N   0  0  0  0  0  0  0  0  0  0  0  0
   41.7140   72.7680   60.8500 C   0  0  0  0  0  0  0  0  0  0  0  0
   42.6800   73.2210   60.0470 N   0  0  0  0  0  0  0  0  0  0  0  0
   43.4270   74.7140   58.8400 H   0  0  0  0  0  0  0  0  0  0  0  0
   41.4590   76.2410   59.2160 H   0  0  0  0  0  0  0  0  0  0  0  0
   39.3030   75.6400   60.7980 C   0  0  0  0  0  0  0  0  0  0  0  0
   38.7090   76.1140   59.6670 F   0  0  0  0  0  0  0  0  0  0  0  0
   38.3630   74.9170   61.5170 F   0  0  0  0  0  0  0  0  0  0  0  0
   39.7510   76.6990   61.5900 F   0  0  0  0  0  0  0  0  0  0  0  0
  1 10  1  0  0  0  0
  1  9  1  0  0  0  0
  2  1  2  0  0  0  0
  3  4  2  0  0  0  0
  3  2  1  0  0  0  0
  4  8  1  0  0  0  0
  5  4  1  0  0  0  0
  5  6  1  0  0  0  0
  6  7  2  0  0  0  0
  8  7  1  0  0  0  0
  8  9  2  0  0  0  0
  9 14  1  0  0  0  0
 11  3  1  0  0  0  0
 12  5  1  0  0  0  0
 13  6  1  0  0  0  0
 15 16  2  0  0  0  0
 15 20  1  0  0  0  0
 16 17  1  0  0  0  0
 17 23  1  0  0  0  0
 17 18  2  0  0  0  0
 19 18  1  0  0  0  0
 19  2  1  0  0  0  0
 20 19  2  0  0  0  0
 21 15  1  0  0  0  0
 22 16  1  0  0  0  0
 23 25  1  0  0  0  0
 23 26  1  0  0  0  0
 24 23  1  0  0  0  0
M  END
>  <minimizedAffinity>
-5.51271582

$$$$

 OpenBabel03212520023D

 26 28  0  0  0  0  0  0  0  0999 V2000
   39.7300   75.2160   59.5590 C   0  0  0  0  0  0  0  0  0  0  0  0
   39.6580   73.8150   59.4650 C   0  0  0  0  0  0  0  0  0  0  0  0
   38.7980   73.2100   58.5710 C   0  0  0  0  0  0  0  0  0  0  0  0
   37.9810   73.9690   57.7430 C   0  0  0  0  0  0  0  0  0  0  0  0
   37.0570   73.7110   56.7890 N   0  0  0  0  0  0  0  0  0  0  0  0
   36.5710   74.8710   56.3080 C   0  0  0  0  0  0  0  0  0  0  0  0
   37.2250   75.8560   56.9940 N   0  0  0  0  0  0  0  0  0  0  0  0
   38.0830   75.3260   57.8680 C   0  0  0  0  0  0  0  0  0  0  0  0
   38.9220   75.9940   58.7400 C   0  0  0  0  0  0  0  0  0  0  0  0
   40.4110   75.6460   60.2650 H   0  0  0  0  0  0  0  0  0  0  0  0
   38.7340   72.1270   58.4900 H   0  0  0  0  0  0  0  0  0  0  0  0
   36.8600   72.7050   56.5730 H   0  0  0  0  0  0  0  0  0  0  0  0
   35.8180   74.9020   55.5350 H   0  0  0  0  0  0  0  0  0  0  0  0
   38.9550   77.0810   58.7900 H   0  0  0  0  0  0  0  0  0  0  0  0
   41.5800   72.7580   62.4000 C   0  0  0  0  0  0  0  0  0  0  0  0
   42.1630   71.5420   61.9740 C   0  0  0  0  0  0  0  0  0  0  0  0
   41.8780   71.1150   60.6820 C   0  0  0  0  0  0  0  0  0  0  0  0
   41.0660   71.8680   59.8910 N   0  0  0  0  0  0  0  0  0  0  0  0
   40.5200   73.0400   60.3400 C   0  0  0  0  0  0  0  0  0  0  0  0
   40.7870   73.4600   61.5800 N   0  0  0  0  0  0  0  0  0  0  0  0
   41.7410   73.1720   63.3830 H   0  0  0  0  0  0  0  0  0  0  0  0
   42.8020   71.0000   62.6700 H   0  0  0  0  0  0  0  0  0  0  0  0
   42.4770   69.8420   60.2070 C   0  0  0  0  0  0  0  0  0  0  0  0
   42.3930   69.6660   58.8590 F   0  0  0  0  0  0  0  0  0  0  0  0
   43.8140   69.8020   60.5730 F   0  0  0  0  0  0  0  0  0  0  0  0
   41.8010   68.8190   60.8720 F   0  0  0  0  0  0  0  0  0  0  0  0
  1 10  1  0  0  0  0
  2  1  1  0  0  0  0
  2 19  1  0  0  0  0
  3  2  2  0  0  0  0
  4  8  2  0  0  0  0
  4  3  1  0  0  0  0
  5  4  1  0  0  0  0
  6  5  1  0  0  0  0
  6  7  2  0  0  0  0
  7  8  1  0  0  0  0
  8  9  1  0  0  0  0
  9 14  1  0  0  0  0
  9  1  2  0  0  0  0
 11  3  1  0  0  0  0
 12  5  1  0  0  0  0
 13  6  1  0  0  0  0
 15 21  1  0  0  0  0
 16 15  1  0  0  0  0
 16 22  1  0  0  0  0
 17 16  2  0  0  0  0
 18 19  2  0  0  0  0
 18 17  1  0  0  0  0
 19 20  1  0  0  0  0
 20 15  2  0  0  0  0
 23 25  1  0  0  0  0
 23 17  1  0  0  0  0
 23 26  1  0  0  0  0
 24 23  1  0  0  0  0
M  END
>  <minimizedAffinity>
-5.4791441

$$$$

 OpenBabel03212520023D

 26 28  0  0  0  0  0  0  0  0999 V2000
   41.4630   71.9570   62.6690 C   0  0  0  0  0  0  0  0  0  0  0  0
   41.3900   72.2250   61.2910 C   0  0  0  0  0  0  0  0  0  0  0  0
   41.6940   71.2500   60.3640 C   0  0  0  0  0  0  0  0  0  0  0  0
   42.0810   69.9780   60.7690 C   0  0  0  0  0  0  0  0  0  0  0  0
   42.4370   68.8290   60.1500 N   0  0  0  0  0  0  0  0  0  0  0  0
   42.7180   67.8900   61.0730 C   0  0  0  0  0  0  0  0  0  0  0  0
   42.5250   68.4940   62.2830 N   0  0  0  0  0  0  0  0  0  0  0  0
   42.1380   69.7610   62.1160 C   0  0  0  0  0  0  0  0  0  0  0  0
   41.8470   70.6920   63.0960 C   0  0  0  0  0  0  0  0  0  0  0  0
   41.2170   72.7420   63.3560 H   0  0  0  0  0  0  0  0  0  0  0  0
   41.6420   71.4460   59.2960 H   0  0  0  0  0  0  0  0  0  0  0  0
   42.4440   68.8310   59.1020 H   0  0  0  0  0  0  0  0  0  0  0  0
   43.0260   66.8910   60.8020 H   0  0  0  0  0  0  0  0  0  0  0  0
   41.9120   70.4540   64.1560 H   0  0  0  0  0  0  0  0  0  0  0  0
   39.3960   75.2700   60.8670 C   0  0  0  0  0  0  0  0  0  0  0  0
   40.2500   76.1030   60.1080 C   0  0  0  0  0  0  0  0  0  0  0  0
   41.4960   75.5940   59.7600 C   0  0  0  0  0  0  0  0  0  0  0  0
   41.8400   74.3370   60.1550 N   0  0  0  0  0  0  0  0  0  0  0  0
   40.9850   73.5610   60.8900 C   0  0  0  0  0  0  0  0  0  0  0  0
   39.7850   74.0410   61.2290 N   0  0  0  0  0  0  0  0  0  0  0  0
   38.4120   75.5750   61.1840 H   0  0  0  0  0  0  0  0  0  0  0  0
   39.8970   77.0970   59.8320 H   0  0  0  0  0  0  0  0  0  0  0  0
   42.4140   76.4450   58.9630 C   0  0  0  0  0  0  0  0  0  0  0  0
   41.9460   76.7400   57.7180 F   0  0  0  0  0  0  0  0  0  0  0  0
   42.6390   77.6340   59.6410 F   0  0  0  0  0  0  0  0  0  0  0  0
   43.6190   75.7470   58.8750 F   0  0  0  0  0  0  0  0  0  0  0  0
  1  9  1  0  0  0  0
  1 10  1  0  0  0  0
  2  1  2  0  0  0  0
  3  4  2  0  0  0  0
  3  2  1  0  0  0  0
  4  8  1  0  0  0  0
  5  4  1  0  0  0  0
  5  6  1  0  0  0  0
  6  7  2  0  0  0  0
  8  7  1  0  0  0  0
  8  9  2  0  0  0  0
  9 14  1  0  0  0  0
 11  3  1  0  0  0  0
 12  5  1  0  0  0  0
 13  6  1  0  0  0  0
 15 21  1  0  0  0  0
 15 20  1  0  0  0  0
 16 15  2  0  0  0  0
 17 16  1  0  0  0  0
 17 18  2  0  0  0  0
 18 19  1  0  0  0  0
 19 20  2  0  0  0  0
 19  2  1  0  0  0  0
 22 16  1  0  0  0  0
 23 25  1  0  0  0  0
 23 17  1  0  0  0  0
 24 23  1  0  0  0  0
 26 23  1  0  0  0  0
M  END
>  <minimizedAffinity>
-5.3899703

$$$$

 OpenBabel03212520023D

 26 28  0  0  0  0  0  0  0  0999 V2000
   39.8650   76.0540   58.9690 C   0  0  0  0  0  0  0  0  0  0  0  0
   40.1370   74.6910   58.7580 C   0  0  0  0  0  0  0  0  0  0  0  0
   39.3870   73.9510   57.8670 C   0  0  0  0  0  0  0  0  0  0  0  0
   38.3450   74.5330   57.1560 C   0  0  0  0  0  0  0  0  0  0  0  0
   37.4420   74.1150   56.2390 N   0  0  0  0  0  0  0  0  0  0  0  0
   36.6480   75.1450   55.8890 C   0  0  0  0  0  0  0  0  0  0  0  0
   37.0880   76.2130   56.6180 N   0  0  0  0  0  0  0  0  0  0  0  0
   38.1160   75.8590   57.3920 C   0  0  0  0  0  0  0  0  0  0  0  0
   38.8280   76.6570   58.2690 C   0  0  0  0  0  0  0  0  0  0  0  0
   40.4710   76.5940   59.6690 H   0  0  0  0  0  0  0  0  0  0  0  0
   39.5880   72.8960   57.6950 H   0  0  0  0  0  0  0  0  0  0  0  0
   37.4850   73.1100   55.9480 H   0  0  0  0  0  0  0  0  0  0  0  0
   35.8530   75.0370   55.1670 H   0  0  0  0  0  0  0  0  0  0  0  0
   38.5940   77.7100   58.4100 H   0  0  0  0  0  0  0  0  0  0  0  0
   43.5030   73.9970   60.0280 C   0  0  0  0  0  0  0  0  0  0  0  0
   43.2800   72.9560   60.9600 C   0  0  0  0  0  0  0  0  0  0  0  0
   41.9710   72.5190   61.1280 C   0  0  0  0  0  0  0  0  0  0  0  0
   40.9730   73.0960   60.4030 N   0  0  0  0  0  0  0  0  0  0  0  0
   41.2300   74.1020   59.5110 C   0  0  0  0  0  0  0  0  0  0  0  0
   42.4830   74.5300   59.3420 N   0  0  0  0  0  0  0  0  0  0  0  0
   44.4810   74.4040   59.8280 H   0  0  0  0  0  0  0  0  0  0  0  0
   44.1350   72.5490   61.4980 H   0  0  0  0  0  0  0  0  0  0  0  0
   41.7070   71.4270   62.0980 C   0  0  0  0  0  0  0  0  0  0  0  0
   40.5550   71.5910   62.8080 F   0  0  0  0  0  0  0  0  0  0  0  0
   41.6370   70.2200   61.4200 F   0  0  0  0  0  0  0  0  0  0  0  0
   42.8050   71.3940   62.9580 F   0  0  0  0  0  0  0  0  0  0  0  0
  1 10  1  0  0  0  0
  2  1  1  0  0  0  0
  2 19  1  0  0  0  0
  3  2  2  0  0  0  0
  4  8  2  0  0  0  0
  4  3  1  0  0  0  0
  5  4  1  0  0  0  0
  6  5  1  0  0  0  0
  6  7  2  0  0  0  0
  7  8  1  0  0  0  0
  8  9  1  0  0  0  0
  9 14  1  0  0  0  0
  9  1  2  0  0  0  0
 11  3  1  0  0  0  0
 12  5  1  0  0  0  0
 13  6  1  0  0  0  0
 15 16  1  0  0  0  0
 16 17  2  0  0  0  0
 16 22  1  0  0  0  0
 17 23  1  0  0  0  0
 18 17  1  0  0  0  0
 19 18  2  0  0  0  0
 20 19  1  0  0  0  0
 20 15  2  0  0  0  0
 21 15  1  0  0  0  0
 23 24  1  0  0  0  0
 23 26  1  0  0  0  0
 25 23  1  0  0  0  0
M  END
>  <minimizedAffinity>
-5.36831474

$$$$

 OpenBabel03212520023D

 26 28  0  0  0  0  0  0  0  0999 V2000
   42.4150   72.6600   60.0230 C   0  0  0  0  0  0  0  0  0  0  0  0
   41.6580   72.0830   61.0580 C   0  0  0  0  0  0  0  0  0  0  0  0
   40.5940   72.7600   61.6170 C   0  0  0  0  0  0  0  0  0  0  0  0
   40.2440   74.0300   61.1740 C   0  0  0  0  0  0  0  0  0  0  0  0
   39.2950   74.9410   61.4880 N   0  0  0  0  0  0  0  0  0  0  0  0
   39.4390   76.0280   60.7060 C   0  0  0  0  0  0  0  0  0  0  0  0
   40.5060   75.7600   59.8960 N   0  0  0  0  0  0  0  0  0  0  0  0
   41.0070   74.5520   60.1670 C   0  0  0  0  0  0  0  0  0  0  0  0
   42.0820   73.9280   59.5640 C   0  0  0  0  0  0  0  0  0  0  0  0
   43.2330   72.1010   59.6150 H   0  0  0  0  0  0  0  0  0  0  0  0
   40.0010   72.3250   62.4180 H   0  0  0  0  0  0  0  0  0  0  0  0
   38.6230   74.6890   62.2510 H   0  0  0  0  0  0  0  0  0  0  0  0
   38.7860   76.8840   60.7860 H   0  0  0  0  0  0  0  0  0  0  0  0
   42.6490   74.4000   58.7640 H   0  0  0  0  0  0  0  0  0  0  0  0
   43.0110   69.3690   63.1140 C   0  0  0  0  0  0  0  0  0  0  0  0
   42.7550   68.2210   62.3290 C   0  0  0  0  0  0  0  0  0  0  0  0
   42.1200   68.4110   61.1070 C   0  0  0  0  0  0  0  0  0  0  0  0
   41.7760   69.6700   60.7190 N   0  0  0  0  0  0  0  0  0  0  0  0
   42.0410   70.7560   61.5080 C   0  0  0  0  0  0  0  0  0  0  0  0
   42.6500   70.5850   62.6840 N   0  0  0  0  0  0  0  0  0  0  0  0
   43.4970   69.3240   64.0750 H   0  0  0  0  0  0  0  0  0  0  0  0
   43.0640   67.2490   62.7130 H   0  0  0  0  0  0  0  0  0  0  0  0
   41.8400   67.2240   60.2610 C   0  0  0  0  0  0  0  0  0  0  0  0
   42.9600   66.5980   59.8050 F   0  0  0  0  0  0  0  0  0  0  0  0
   41.0910   66.3110   60.9880 F   0  0  0  0  0  0  0  0  0  0  0  0
   41.0700   67.6800   59.1900 F   0  0  0  0  0  0  0  0  0  0  0  0
  1  2  1  0  0  0  0
  2 19  1  0  0  0  0
  2  3  2  0  0  0  0
  3 11  1  0  0  0  0
  4  5  1  0  0  0  0
  4  3  1  0  0  0  0
  5 12  1  0  0  0  0
  6 13  1  0  0  0  0
  6  5  1  0  0  0  0
  7  8  1  0  0  0  0
  7  6  2  0  0  0  0
  8  4  2  0  0  0  0
  9  1  2  0  0  0  0
  9  8  1  0  0  0  0
 10  1  1  0  0  0  0
 14  9  1  0  0  0  0
 15 21  1  0  0  0  0
 16 22  1  0  0  0  0
 16 15  2  0  0  0  0
 17 16  1  0  0  0  0
 18 17  2  0  0  0  0
 18 19  1  0  0  0  0
 19 20  2  0  0  0  0
 20 15  1  0  0  0  0
 23 25  1  0  0  0  0
 23 17  1  0  0  0  0
 24 23  1  0  0  0  0
 26 23  1  0  0  0  0
M  END
>  <minimizedAffinity>
-5.25866079

$$$$

 OpenBabel03212520023D

 26 28  0  0  0  0  0  0  0  0999 V2000
   42.0650   71.5600   62.6960 C   0  0  0  0  0  0  0  0  0  0  0  0
   42.4650   71.4740   61.3510 C   0  0  0  0  0  0  0  0  0  0  0  0
   42.4920   70.2580   60.6990 C   0  0  0  0  0  0  0  0  0  0  0  0
   42.1260   69.0890   61.3540 C   0  0  0  0  0  0  0  0  0  0  0  0
   42.0400   67.7790   61.0280 N   0  0  0  0  0  0  0  0  0  0  0  0
   41.6150   67.0770   62.0950 C   0  0  0  0  0  0  0  0  0  0  0  0
   41.4390   67.9940   63.0920 N   0  0  0  0  0  0  0  0  0  0  0  0
   41.7450   69.2200   62.6590 C   0  0  0  0  0  0  0  0  0  0  0  0
   41.6940   70.4040   63.3700 C   0  0  0  0  0  0  0  0  0  0  0  0
   42.0570   72.5230   63.1660 H   0  0  0  0  0  0  0  0  0  0  0  0
   42.7990   70.1790   59.6580 H   0  0  0  0  0  0  0  0  0  0  0  0
   42.3020   67.5100   60.0500 H   0  0  0  0  0  0  0  0  0  0  0  0
   41.4740   66.0070   62.0600 H   0  0  0  0  0  0  0  0  0  0  0  0
   41.3800   70.4390   64.4120 H   0  0  0  0  0  0  0  0  0  0  0  0
   44.4960   74.1140   59.8250 C   0  0  0  0  0  0  0  0  0  0  0  0
   43.5280   75.0610   59.4180 C   0  0  0  0  0  0  0  0  0  0  0  0
   42.1940   74.7660   59.6800 C   0  0  0  0  0  0  0  0  0  0  0  0
   41.8780   73.5990   60.3070 N   0  0  0  0  0  0  0  0  0  0  0  0
   42.8440   72.7070   60.6840 C   0  0  0  0  0  0  0  0  0  0  0  0
   44.1280   72.9810   60.4380 N   0  0  0  0  0  0  0  0  0  0  0  0
   45.5530   74.2520   59.6660 H   0  0  0  0  0  0  0  0  0  0  0  0
   43.8660   75.9710   58.9230 H   0  0  0  0  0  0  0  0  0  0  0  0
   41.1560   75.7420   59.2660 C   0  0  0  0  0  0  0  0  0  0  0  0
   41.0880   76.8430   60.0640 F   0  0  0  0  0  0  0  0  0  0  0  0
   41.4110   76.1560   57.9670 F   0  0  0  0  0  0  0  0  0  0  0  0
   39.9420   75.0540   59.2850 F   0  0  0  0  0  0  0  0  0  0  0  0
  1 10  1  0  0  0  0
  1  9  1  0  0  0  0
  2  1  2  0  0  0  0
  3  2  1  0  0  0  0
  3  4  2  0  0  0  0
  4  8  1  0  0  0  0
  5  4  1  0  0  0  0
  5  6  1  0  0  0  0
  6  7  2  0  0  0  0
  8  7  1  0  0  0  0
  8  9  2  0  0  0  0
  9 14  1  0  0  0  0
 11  3  1  0  0  0  0
 12  5  1  0  0  0  0
 13  6  1  0  0  0  0
 15 20  1  0  0  0  0
 16 17  1  0  0  0  0
 16 15  2  0  0  0  0
 17 18  2  0  0  0  0
 18 19  1  0  0  0  0
 19  2  1  0  0  0  0
 20 19  2  0  0  0  0
 21 15  1  0  0  0  0
 22 16  1  0  0  0  0
 23 26  1  0  0  0  0
 23 17  1  0  0  0  0
 23 24  1  0  0  0  0
 25 23  1  0  0  0  0
M  END
>  <minimizedAffinity>
-5.25804663

$$$$

 OpenBabel03212520023D

 26 28  0  0  0  0  0  0  0  0999 V2000
   39.4380   73.9110   61.2530 C   0  0  0  0  0  0  0  0  0  0  0  0
   40.7360   73.5100   60.8900 C   0  0  0  0  0  0  0  0  0  0  0  0
   41.5200   74.3050   60.0790 C   0  0  0  0  0  0  0  0  0  0  0  0
   41.0460   75.5200   59.5990 C   0  0  0  0  0  0  0  0  0  0  0  0
   41.5310   76.5090   58.8140 N   0  0  0  0  0  0  0  0  0  0  0  0
   40.6020   77.4750   58.6830 C   0  0  0  0  0  0  0  0  0  0  0  0
   39.5280   77.0530   59.4140 N   0  0  0  0  0  0  0  0  0  0  0  0
   39.7810   75.8690   59.9760 C   0  0  0  0  0  0  0  0  0  0  0  0
   38.9450   75.1220   60.7850 C   0  0  0  0  0  0  0  0  0  0  0  0
   38.8620   73.2650   61.8850 H   0  0  0  0  0  0  0  0  0  0  0  0
   42.5250   74.0060   59.7920 H   0  0  0  0  0  0  0  0  0  0  0  0
   42.5020   76.3910   58.4380 H   0  0  0  0  0  0  0  0  0  0  0  0
   40.7760   78.3640   58.0950 H   0  0  0  0  0  0  0  0  0  0  0  0
   37.9440   75.4580   61.0490 H   0  0  0  0  0  0  0  0  0  0  0  0
   41.7080   70.8410   63.2040 C   0  0  0  0  0  0  0  0  0  0  0  0
   42.1210   69.8040   62.3340 C   0  0  0  0  0  0  0  0  0  0  0  0
   42.0540   70.0520   60.9680 C   0  0  0  0  0  0  0  0  0  0  0  0
   41.6030   71.2590   60.5270 N   0  0  0  0  0  0  0  0  0  0  0  0
   41.2120   72.2360   61.4010 C   0  0  0  0  0  0  0  0  0  0  0  0
   41.2720   72.0090   62.7160 N   0  0  0  0  0  0  0  0  0  0  0  0
   41.7230   70.7440   64.2780 H   0  0  0  0  0  0  0  0  0  0  0  0
   42.4700   68.8680   62.7700 H   0  0  0  0  0  0  0  0  0  0  0  0
   42.4820   68.9840   60.0310 C   0  0  0  0  0  0  0  0  0  0  0  0
   43.0780   67.9230   60.6430 F   0  0  0  0  0  0  0  0  0  0  0  0
   41.3780   68.5230   59.3290 F   0  0  0  0  0  0  0  0  0  0  0  0
   43.3640   69.5820   59.1310 F   0  0  0  0  0  0  0  0  0  0  0  0
  1 10  1  0  0  0  0
  2  1  1  0  0  0  0
  2 19  1  0  0  0  0
  3  2  2  0  0  0  0
  4  8  2  0  0  0  0
  4  3  1  0  0  0  0
  5  4  1  0  0  0  0
  6  5  1  0  0  0  0
  6  7  2  0  0  0  0
  7  8  1  0  0  0  0
  8  9  1  0  0  0  0
  9 14  1  0  0  0  0
  9  1  2  0  0  0  0
 11  3  1  0  0  0  0
 12  5  1  0  0  0  0
 13  6  1  0  0  0  0
 15 21  1  0  0  0  0
 16 22  1  0  0  0  0
 16 15  2  0  0  0  0
 17 16  1  0  0  0  0
 18 17  2  0  0  0  0
 18 19  1  0  0  0  0
 19 20  2  0  0  0  0
 20 15  1  0  0  0  0
 23 24  1  0  0  0  0
 23 17  1  0  0  0  0
 25 23  1  0  0  0  0
 26 23  1  0  0  0  0
M  END
>  <minimizedAffinity>
-5.17669916

$$$$
