
 OpenBabel03212520123D

 26 27  0  0  0  0  0  0  0  0999 V2000
   42.6290   84.1330   58.4620 Cl  0  0  0  0  0  0  0  0  0  0  0  0
   41.5610   82.7580   58.1800 C   0  0  0  0  0  0  0  0  0  0  0  0
   40.8710   82.1290   59.2040 C   0  0  0  0  0  0  0  0  0  0  0  0
   40.0710   81.0600   58.8120 C   0  0  0  0  0  0  0  0  0  0  0  0
   39.9220   80.5980   57.5220 C   0  0  0  0  0  0  0  0  0  0  0  0
   40.6210   81.2470   56.5520 C   0  0  0  0  0  0  0  0  0  0  0  0
   40.5060   80.7400   54.8660 Cl  0  0  0  0  0  0  0  0  0  0  0  0
   41.4250   82.3100   56.8850 C   0  0  0  0  0  0  0  0  0  0  0  0
   39.5340   80.5780   59.6360 H   0  0  0  0  0  0  0  0  0  0  0  0
   39.2730   79.7540   57.3160 H   0  0  0  0  0  0  0  0  0  0  0  0
   41.9800   82.2070   61.4790 C   0  0  0  0  0  0  0  0  0  0  0  0
   41.0180   82.5980   60.5350 C   0  0  0  0  0  0  0  0  0  0  0  0
   40.0860   83.5620   60.9360 C   0  0  0  0  0  0  0  0  0  0  0  0
   40.1690   84.0540   62.1990 N   0  0  0  0  0  0  0  0  0  0  0  0
   41.1080   83.6510   63.0730 C   0  0  0  0  0  0  0  0  0  0  0  0
   42.0080   82.7320   62.7130 N   0  0  0  0  0  0  0  0  0  0  0  0
   42.6820   81.4610   61.1320 H   0  0  0  0  0  0  0  0  0  0  0  0
   39.3070   83.9340   60.2980 H   0  0  0  0  0  0  0  0  0  0  0  0
   41.0580   84.2950   64.4230 C   0  0  0  0  0  0  0  0  0  0  0  0
   40.7200   85.6350   64.3390 F   0  0  0  0  0  0  0  0  0  0  0  0
   40.1010   83.6720   65.1990 F   0  0  0  0  0  0  0  0  0  0  0  0
   42.2930   84.2520   65.0460 F   0  0  0  0  0  0  0  0  0  0  0  0
   42.1750   82.9940   55.7830 C   0  0  0  0  0  0  0  0  0  0  0  0
   41.9420   84.3390   55.7730 F   0  0  0  0  0  0  0  0  0  0  0  0
   41.7440   82.4880   54.5820 F   0  0  0  0  0  0  0  0  0  0  0  0
   43.5200   82.7360   55.8970 F   0  0  0  0  0  0  0  0  0  0  0  0
  2  1  1  0  0  0  0
  2  3  1  0  0  0  0
  3 12  1  0  0  0  0
  4  3  2  0  0  0  0
  4  9  1  0  0  0  0
  5  4  1  0  0  0  0
  6  8  1  0  0  0  0
  6  5  2  0  0  0  0
  7  6  1  0  0  0  0
  8  2  2  0  0  0  0
 10  5  1  0  0  0  0
 11 16  1  0  0  0  0
 12 13  1  0  0  0  0
 12 11  2  0  0  0  0
 13 14  2  0  0  0  0
 14 15  1  0  0  0  0
 15 19  1  0  0  0  0
 16 15  2  0  0  0  0
 17 11  1  0  0  0  0
 18 13  1  0  0  0  0
 19 22  1  0  0  0  0
 19 21  1  0  0  0  0
 20 19  1  0  0  0  0
 23 26  1  0  0  0  0
 23  8  1  0  0  0  0
 24 23  1  0  0  0  0
 25 23  1  0  0  0  0
M  END
>  <minimizedAffinity>
-5.3806057

>  <minimizedRMSD>
0.589433849

$$$$
