
 OpenBabel03212520513D

 30 32  0  0  1  0  0  0  0  0999 V2000
   43.3140   84.8200   61.2120 C   0  0  0  0  0  0  0  0  0  0  0  0
   44.1890   84.0610   61.9610 C   0  0  0  0  0  0  0  0  0  0  0  0
   43.7220   83.1190   62.8730 C   0  0  0  0  0  0  0  0  0  0  0  0
   42.3970   82.9380   63.0340 N   0  0  0  0  0  0  0  0  0  0  0  0
   41.5590   83.6940   62.2870 C   0  0  0  0  0  0  0  0  0  0  0  0
   41.9810   84.6160   61.3930 N   0  0  0  0  0  0  0  0  0  0  0  0
   45.2630   84.1990   61.8380 H   0  0  0  0  0  0  0  0  0  0  0  0
   44.4680   82.5720   63.4140 H   0  0  0  0  0  0  0  0  0  0  0  0
   44.4730   86.4090   58.1360 C   0  0  0  0  0  0  0  0  0  0  0  0
   44.6560   87.7270   58.5260 C   0  0  0  0  0  0  0  0  0  0  0  0
   44.3870   88.0840   59.8370 C   0  0  0  0  0  0  0  0  0  0  0  0
   43.9530   87.0900   60.6580 N   0  0  0  0  0  0  0  0  0  0  0  0
   43.7820   85.8190   60.2570 C   0  0  0  0  0  0  0  0  0  0  0  0
   44.0370   85.4670   59.0060 N   0  0  0  0  0  0  0  0  0  0  0  0
   44.7960   86.1810   56.7600 N   0  0  0  0  0  0  0  0  0  0  0  0
   45.0020   88.5210   57.8770 H   0  0  0  0  0  0  0  0  0  0  0  0
   44.5120   89.0980   60.1970 H   0  0  0  0  0  0  0  0  0  0  0  0
   45.7100   85.6850   56.8740 H   0  0  0  0  0  0  0  0  0  0  0  0
   44.3460   86.3930   55.8590 H   0  0  0  0  0  0  0  0  0  0  0  0
   40.0940   83.4640   62.5120 C   0  0  1  0  0  0  0  0  0  0  0  0
   39.1070   83.8660   61.5370 C   0  0  0  0  0  0  0  0  0  0  0  0
   39.5260   82.4330   61.5110 C   0  0  1  0  0  0  0  0  0  0  0  0
   39.7740   83.2180   63.5630 H   0  0  0  0  0  0  0  0  0  0  0  0
   38.0910   84.1790   61.8260 H   0  0  0  0  0  0  0  0  0  0  0  0
   39.4940   84.5270   60.7070 H   0  0  0  0  0  0  0  0  0  0  0  0
   38.7470   81.7340   61.8660 H   0  0  0  0  0  0  0  0  0  0  0  0
   40.3390   81.9990   60.3480 C   0  0  0  0  0  0  0  0  0  0  0  0
   40.5920   83.1250   59.5590 F   0  0  0  0  0  0  0  0  0  0  0  0
   41.5710   81.5300   60.7500 F   0  0  0  0  0  0  0  0  0  0  0  0
   39.7130   81.1040   59.5160 F   0  0  0  0  0  0  0  0  0  0  0  0
  1  6  2  0  0  0  0
  1  2  1  0  0  0  0
  2  3  2  0  0  0  0
  3  4  1  0  0  0  0
  3  8  1  0  0  0  0
  5 20  1  0  0  0  0
  5  4  2  0  0  0  0
  6  5  1  0  0  0  0
  7  2  1  0  0  0  0
  9 10  2  0  0  0  0
  9 14  1  0  0  0  0
 10 11  1  0  0  0  0
 11 17  1  0  0  0  0
 11 12  2  0  0  0  0
 13 12  1  0  0  0  0
 13  1  1  0  0  0  0
 14 13  2  0  0  0  0
 15 18  1  0  0  0  0
 15  9  1  0  0  0  0
 16 10  1  0  0  0  0
 19 15  1  0  0  0  0
 20 23  1  1  0  0  0
 21 24  1  0  0  0  0
 21 20  1  0  0  0  0
 22 21  1  0  0  0  0
 22 26  1  1  0  0  0
 22 20  1  0  0  0  0
 25 21  1  0  0  0  0
 27 29  1  0  0  0  0
 27 22  1  0  0  0  0
 28 27  1  0  0  0  0
 30 27  1  0  0  0  0
M  END
>  <minimizedAffinity>
-5.13489437

>  <minimizedRMSD>
2.922647

$$$$
