
 OpenBabel03212520123D

 26 27  0  0  0  0  0  0  0  0999 V2000
   42.6330   83.1900   58.8380 Cl  0  0  0  0  0  0  0  0  0  0  0  0
   41.6150   83.1000   60.2760 C   0  0  0  0  0  0  0  0  0  0  0  0
   40.5480   82.2210   60.3790 C   0  0  0  0  0  0  0  0  0  0  0  0
   39.8470   82.2760   61.5790 C   0  0  0  0  0  0  0  0  0  0  0  0
   40.1280   83.1140   62.6370 C   0  0  0  0  0  0  0  0  0  0  0  0
   41.1840   83.9590   62.4880 C   0  0  0  0  0  0  0  0  0  0  0  0
   41.6340   85.0760   63.7770 Cl  0  0  0  0  0  0  0  0  0  0  0  0
   41.9110   83.9450   61.3220 C   0  0  0  0  0  0  0  0  0  0  0  0
   39.0090   81.5740   61.6400 H   0  0  0  0  0  0  0  0  0  0  0  0
   39.5210   83.0840   63.5340 H   0  0  0  0  0  0  0  0  0  0  0  0
   39.9110   81.7120   57.9810 C   0  0  0  0  0  0  0  0  0  0  0  0
   40.2510   81.3540   59.2950 C   0  0  0  0  0  0  0  0  0  0  0  0
   40.3090   79.9870   59.5890 C   0  0  0  0  0  0  0  0  0  0  0  0
   40.0350   79.1010   58.5970 N   0  0  0  0  0  0  0  0  0  0  0  0
   39.7130   79.4870   57.3500 C   0  0  0  0  0  0  0  0  0  0  0  0
   39.6510   80.7870   57.0460 N   0  0  0  0  0  0  0  0  0  0  0  0
   39.8770   82.7770   57.7930 H   0  0  0  0  0  0  0  0  0  0  0  0
   40.5580   79.6010   60.5600 H   0  0  0  0  0  0  0  0  0  0  0  0
   39.4420   78.3820   56.3790 C   0  0  0  0  0  0  0  0  0  0  0  0
   40.4560   77.4390   56.3800 F   0  0  0  0  0  0  0  0  0  0  0  0
   38.2720   77.7370   56.7240 F   0  0  0  0  0  0  0  0  0  0  0  0
   39.3690   78.8610   55.0810 F   0  0  0  0  0  0  0  0  0  0  0  0
   43.0650   84.8920   61.2030 C   0  0  0  0  0  0  0  0  0  0  0  0
   43.2670   85.5900   62.3600 F   0  0  0  0  0  0  0  0  0  0  0  0
   42.7850   85.8000   60.2130 F   0  0  0  0  0  0  0  0  0  0  0  0
   44.2020   84.2080   60.8460 F   0  0  0  0  0  0  0  0  0  0  0  0
  1  2  1  0  0  0  0
  2  3  2  0  0  0  0
  2  8  1  0  0  0  0
  3  4  1  0  0  0  0
  4  9  1  0  0  0  0
  4  5  2  0  0  0  0
  5 10  1  0  0  0  0
  6  5  1  0  0  0  0
  6  7  1  0  0  0  0
  8  6  2  0  0  0  0
 11 12  1  0  0  0  0
 12 13  2  0  0  0  0
 12  3  1  0  0  0  0
 13 18  1  0  0  0  0
 14 13  1  0  0  0  0
 15 14  2  0  0  0  0
 16 15  1  0  0  0  0
 16 11  2  0  0  0  0
 17 11  1  0  0  0  0
 19 20  1  0  0  0  0
 19 21  1  0  0  0  0
 19 15  1  0  0  0  0
 22 19  1  0  0  0  0
 23  8  1  0  0  0  0
 23 24  1  0  0  0  0
 25 23  1  0  0  0  0
 26 23  1  0  0  0  0
M  END
>  <minimizedAffinity>
-4.76899004

>  <minimizedRMSD>
6.86073732

$$$$
