
 OpenBabel03212520513D

 30 32  0  0  1  0  0  0  0  0999 V2000
   41.8310   83.9210   61.3020 C   0  0  0  0  0  0  0  0  0  0  0  0
   40.9060   84.2270   62.2790 C   0  0  0  0  0  0  0  0  0  0  0  0
   40.4260   83.2480   63.1430 C   0  0  0  0  0  0  0  0  0  0  0  0
   40.8640   81.9780   63.0330 N   0  0  0  0  0  0  0  0  0  0  0  0
   41.7720   81.7040   62.0680 C   0  0  0  0  0  0  0  0  0  0  0  0
   42.2590   82.6320   61.2130 N   0  0  0  0  0  0  0  0  0  0  0  0
   40.5450   85.2500   62.3760 H   0  0  0  0  0  0  0  0  0  0  0  0
   39.7090   83.5690   63.8720 H   0  0  0  0  0  0  0  0  0  0  0  0
   43.7490   86.6940   59.9030 C   0  0  0  0  0  0  0  0  0  0  0  0
   43.2470   86.7900   58.6130 C   0  0  0  0  0  0  0  0  0  0  0  0
   42.2540   85.9130   58.2120 C   0  0  0  0  0  0  0  0  0  0  0  0
   41.8400   85.0040   59.1340 N   0  0  0  0  0  0  0  0  0  0  0  0
   42.3420   84.9290   60.3790 C   0  0  0  0  0  0  0  0  0  0  0  0
   43.2910   85.7630   60.7730 N   0  0  0  0  0  0  0  0  0  0  0  0
   44.7610   87.6660   60.1840 N   0  0  0  0  0  0  0  0  0  0  0  0
   43.5730   87.5120   57.8760 H   0  0  0  0  0  0  0  0  0  0  0  0
   41.8250   85.9420   57.2180 H   0  0  0  0  0  0  0  0  0  0  0  0
   44.2150   88.3210   60.7890 H   0  0  0  0  0  0  0  0  0  0  0  0
   45.7520   87.7850   59.9280 H   0  0  0  0  0  0  0  0  0  0  0  0
   42.2200   80.2750   61.9780 C   0  0  1  0  0  0  0  0  0  0  0  0
   41.2990   79.1800   62.1800 C   0  0  0  0  0  0  0  0  0  0  0  0
   41.5830   79.5610   60.7650 C   0  0  1  0  0  0  0  0  0  0  0  0
   43.3300   80.0870   62.0150 H   0  0  0  0  0  0  0  0  0  0  0  0
   41.6190   78.2170   62.6090 H   0  0  0  0  0  0  0  0  0  0  0  0
   40.2900   79.4730   62.5950 H   0  0  0  0  0  0  0  0  0  0  0  0
   42.1910   78.8190   60.2170 H   0  0  0  0  0  0  0  0  0  0  0  0
   40.4780   80.2090   60.0160 C   0  0  0  0  0  0  0  0  0  0  0  0
   41.0440   81.1510   59.1500 F   0  0  0  0  0  0  0  0  0  0  0  0
   39.8190   79.3010   59.2160 F   0  0  0  0  0  0  0  0  0  0  0  0
   39.5980   80.9160   60.7980 F   0  0  0  0  0  0  0  0  0  0  0  0
  1  2  1  0  0  0  0
  2  7  1  0  0  0  0
  2  3  2  0  0  0  0
  3  8  1  0  0  0  0
  4  3  1  0  0  0  0
  5  4  2  0  0  0  0
  6  1  2  0  0  0  0
  6  5  1  0  0  0  0
  9 15  1  0  0  0  0
  9 14  1  0  0  0  0
 10  9  2  0  0  0  0
 11 10  1  0  0  0  0
 11 12  2  0  0  0  0
 12 13  1  0  0  0  0
 13 14  2  0  0  0  0
 13  1  1  0  0  0  0
 15 18  1  0  0  0  0
 16 10  1  0  0  0  0
 17 11  1  0  0  0  0
 19 15  1  0  0  0  0
 20 23  1  1  0  0  0
 20  5  1  0  0  0  0
 20 21  1  0  0  0  0
 21 25  1  0  0  0  0
 21 24  1  0  0  0  0
 22 26  1  6  0  0  0
 22 20  1  0  0  0  0
 22 21  1  0  0  0  0
 27 22  1  0  0  0  0
 27 30  1  0  0  0  0
 28 27  1  0  0  0  0
 29 27  1  0  0  0  0
M  END
>  <minimizedAffinity>
-4.97168636

>  <minimizedRMSD>
0.933027327

$$$$
