
 OpenBabel03212520513D

 30 32  0  0  1  0  0  0  0  0999 V2000
   42.3190   84.3230   61.0680 C   0  0  0  0  0  0  0  0  0  0  0  0
   41.4870   84.1860   62.1600 C   0  0  0  0  0  0  0  0  0  0  0  0
   41.9690   83.7040   63.3730 C   0  0  0  0  0  0  0  0  0  0  0  0
   43.2660   83.3630   63.4950 N   0  0  0  0  0  0  0  0  0  0  0  0
   44.0630   83.5080   62.4100 C   0  0  0  0  0  0  0  0  0  0  0  0
   43.6260   83.9740   61.2180 N   0  0  0  0  0  0  0  0  0  0  0  0
   40.4360   84.4590   62.0720 H   0  0  0  0  0  0  0  0  0  0  0  0
   41.2560   83.6280   64.1700 H   0  0  0  0  0  0  0  0  0  0  0  0
   40.1810   85.7770   58.4910 C   0  0  0  0  0  0  0  0  0  0  0  0
   40.9850   85.7190   57.3620 C   0  0  0  0  0  0  0  0  0  0  0  0
   42.2580   85.1860   57.4700 C   0  0  0  0  0  0  0  0  0  0  0  0
   42.6300   84.7520   58.7040 N   0  0  0  0  0  0  0  0  0  0  0  0
   41.8330   84.8180   59.7850 C   0  0  0  0  0  0  0  0  0  0  0  0
   40.6150   85.3260   59.6920 N   0  0  0  0  0  0  0  0  0  0  0  0
   38.8920   86.3410   58.2330 N   0  0  0  0  0  0  0  0  0  0  0  0
   40.6940   86.0630   56.3780 H   0  0  0  0  0  0  0  0  0  0  0  0
   42.9290   85.1150   56.6230 H   0  0  0  0  0  0  0  0  0  0  0  0
   38.3110   85.4720   58.2550 H   0  0  0  0  0  0  0  0  0  0  0  0
   38.5300   87.2910   58.0640 H   0  0  0  0  0  0  0  0  0  0  0  0
   45.4960   83.1040   62.5920 C   0  0  1  0  0  0  0  0  0  0  0  0
   45.8700   82.0170   63.4670 C   0  0  0  0  0  0  0  0  0  0  0  0
   45.7620   81.6960   62.0120 C   0  0  1  0  0  0  0  0  0  0  0  0
   46.2780   83.8340   62.2420 H   0  0  0  0  0  0  0  0  0  0  0  0
   46.8300   82.0010   64.0060 H   0  0  0  0  0  0  0  0  0  0  0  0
   45.0430   81.6350   64.1360 H   0  0  0  0  0  0  0  0  0  0  0  0
   46.7350   81.5070   61.5240 H   0  0  0  0  0  0  0  0  0  0  0  0
   44.6260   80.8340   61.6040 C   0  0  0  0  0  0  0  0  0  0  0  0
   44.1590   81.2980   60.3690 F   0  0  0  0  0  0  0  0  0  0  0  0
   45.0370   79.5350   61.3930 F   0  0  0  0  0  0  0  0  0  0  0  0
   43.5420   80.8830   62.4450 F   0  0  0  0  0  0  0  0  0  0  0  0
  1  6  2  0  0  0  0
  1  2  1  0  0  0  0
  2  3  2  0  0  0  0
  3  4  1  0  0  0  0
  3  8  1  0  0  0  0
  5 20  1  0  0  0  0
  5  4  2  0  0  0  0
  6  5  1  0  0  0  0
  7  2  1  0  0  0  0
  9 14  1  0  0  0  0
 10 11  1  0  0  0  0
 10  9  2  0  0  0  0
 11 12  2  0  0  0  0
 12 13  1  0  0  0  0
 13  1  1  0  0  0  0
 14 13  2  0  0  0  0
 15 18  1  0  0  0  0
 15  9  1  0  0  0  0
 16 10  1  0  0  0  0
 17 11  1  0  0  0  0
 19 15  1  0  0  0  0
 20 23  1  6  0  0  0
 20 21  1  0  0  0  0
 21 24  1  0  0  0  0
 21 25  1  0  0  0  0
 22 26  1  6  0  0  0
 22 20  1  0  0  0  0
 22 21  1  0  0  0  0
 27 22  1  0  0  0  0
 27 30  1  0  0  0  0
 28 27  1  0  0  0  0
 29 27  1  0  0  0  0
M  END
>  <minimizedAffinity>
-4.45130587

>  <minimizedRMSD>
4.01167917

$$$$
