
 OpenBabel03212520513D

 30 32  0  0  1  0  0  0  0  0999 V2000
   41.8250   83.9260   61.3010 C   0  0  0  0  0  0  0  0  0  0  0  0
   40.8970   84.2330   62.2740 C   0  0  0  0  0  0  0  0  0  0  0  0
   40.4140   83.2550   63.1380 C   0  0  0  0  0  0  0  0  0  0  0  0
   40.8530   81.9860   63.0320 N   0  0  0  0  0  0  0  0  0  0  0  0
   41.7650   81.7100   62.0700 C   0  0  0  0  0  0  0  0  0  0  0  0
   42.2540   82.6370   61.2150 N   0  0  0  0  0  0  0  0  0  0  0  0
   40.5350   85.2560   62.3690 H   0  0  0  0  0  0  0  0  0  0  0  0
   39.6950   83.5770   63.8650 H   0  0  0  0  0  0  0  0  0  0  0  0
   43.7500   86.6940   59.9020 C   0  0  0  0  0  0  0  0  0  0  0  0
   43.2470   86.7920   58.6130 C   0  0  0  0  0  0  0  0  0  0  0  0
   42.2520   85.9190   58.2120 C   0  0  0  0  0  0  0  0  0  0  0  0
   41.8350   85.0100   59.1340 N   0  0  0  0  0  0  0  0  0  0  0  0
   42.3380   84.9340   60.3780 C   0  0  0  0  0  0  0  0  0  0  0  0
   43.2900   85.7640   60.7720 N   0  0  0  0  0  0  0  0  0  0  0  0
   44.7660   87.6630   60.1830 N   0  0  0  0  0  0  0  0  0  0  0  0
   43.5750   87.5140   57.8750 H   0  0  0  0  0  0  0  0  0  0  0  0
   41.8220   85.9490   57.2180 H   0  0  0  0  0  0  0  0  0  0  0  0
   44.2220   88.3190   60.7880 H   0  0  0  0  0  0  0  0  0  0  0  0
   45.7570   87.7790   59.9260 H   0  0  0  0  0  0  0  0  0  0  0  0
   42.2130   80.2810   61.9830 C   0  0  1  0  0  0  0  0  0  0  0  0
   41.2920   79.1870   62.1840 C   0  0  0  0  0  0  0  0  0  0  0  0
   41.5810   79.5660   60.7690 C   0  0  1  0  0  0  0  0  0  0  0  0
   43.3230   80.0940   62.0250 H   0  0  0  0  0  0  0  0  0  0  0  0
   41.6110   78.2240   62.6150 H   0  0  0  0  0  0  0  0  0  0  0  0
   40.2820   79.4800   62.5950 H   0  0  0  0  0  0  0  0  0  0  0  0
   42.1910   78.8230   60.2240 H   0  0  0  0  0  0  0  0  0  0  0  0
   40.4780   80.2120   60.0150 C   0  0  0  0  0  0  0  0  0  0  0  0
   41.0460   81.1530   59.1490 F   0  0  0  0  0  0  0  0  0  0  0  0
   39.8210   79.3030   59.2150 F   0  0  0  0  0  0  0  0  0  0  0  0
   39.5950   80.9210   60.7930 F   0  0  0  0  0  0  0  0  0  0  0  0
  1  2  1  0  0  0  0
  2  7  1  0  0  0  0
  2  3  2  0  0  0  0
  3  8  1  0  0  0  0
  4  3  1  0  0  0  0
  5  4  2  0  0  0  0
  6  1  2  0  0  0  0
  6  5  1  0  0  0  0
  9 15  1  0  0  0  0
  9 14  1  0  0  0  0
 10  9  2  0  0  0  0
 11 10  1  0  0  0  0
 11 12  2  0  0  0  0
 12 13  1  0  0  0  0
 13 14  2  0  0  0  0
 13  1  1  0  0  0  0
 15 18  1  0  0  0  0
 16 10  1  0  0  0  0
 17 11  1  0  0  0  0
 19 15  1  0  0  0  0
 20 23  1  1  0  0  0
 20  5  1  0  0  0  0
 20 21  1  0  0  0  0
 21 25  1  0  0  0  0
 21 24  1  0  0  0  0
 22 26  1  6  0  0  0
 22 20  1  0  0  0  0
 22 21  1  0  0  0  0
 27 22  1  0  0  0  0
 27 30  1  0  0  0  0
 28 27  1  0  0  0  0
 29 27  1  0  0  0  0
M  END
>  <minimizedAffinity>
-4.97261238

>  <minimizedRMSD>
0.921689212

$$$$
