
 OpenBabel03212520303D

 23 24  0  0  0  0  0  0  0  0999 V2000
   40.8710   73.2030   59.0750 C   0  0  0  0  0  0  0  0  0  0  0  0
   39.5410   73.5750   59.3370 C   0  0  0  0  0  0  0  0  0  0  0  0
   39.0640   73.4310   60.6460 C   0  0  0  0  0  0  0  0  0  0  0  0
   39.9190   72.9390   61.5890 N   0  0  0  0  0  0  0  0  0  0  0  0
   41.1770   72.5950   61.3000 C   0  0  0  0  0  0  0  0  0  0  0  0
   41.6550   72.7260   60.0450 N   0  0  0  0  0  0  0  0  0  0  0  0
   41.2340   73.3170   58.0540 H   0  0  0  0  0  0  0  0  0  0  0  0
   38.0400   73.7190   60.8460 H   0  0  0  0  0  0  0  0  0  0  0  0
   38.7180   74.0820   58.2850 N   0  0  0  0  0  0  0  0  0  0  0  0
   38.6350   75.4020   58.2480 C   0  0  0  0  0  0  0  0  0  0  0  0
   37.8570   75.9910   57.2590 C   0  0  0  0  0  0  0  0  0  0  0  0
   37.1900   75.1800   56.3440 C   0  0  0  0  0  0  0  0  0  0  0  0
   36.4670   75.6250   55.4210 O   0  0  0  0  0  0  0  0  0  0  0  0
   37.3220   73.8250   56.4450 N   0  0  0  0  0  0  0  0  0  0  0  0
   38.0900   73.2540   57.4200 C   0  0  0  0  0  0  0  0  0  0  0  0
   38.2120   72.0230   57.5140 O   0  0  0  0  0  0  0  0  0  0  0  0
   39.1200   76.0780   58.9200 H   0  0  0  0  0  0  0  0  0  0  0  0
   37.7470   77.0670   57.1740 H   0  0  0  0  0  0  0  0  0  0  0  0
   36.8110   73.2280   55.7440 H   0  0  0  0  0  0  0  0  0  0  0  0
   42.0520   72.0670   62.3690 C   0  0  0  0  0  0  0  0  0  0  0  0
   41.3750   71.3460   63.3160 F   0  0  0  0  0  0  0  0  0  0  0  0
   43.0420   71.2410   61.8250 F   0  0  0  0  0  0  0  0  0  0  0  0
   42.7060   73.1250   62.9700 F   0  0  0  0  0  0  0  0  0  0  0  0
  1  2  2  0  0  0  0
  1  6  1  0  0  0  0
  2  3  1  0  0  0  0
  3  8  1  0  0  0  0
  3  4  2  0  0  0  0
  5  4  1  0  0  0  0
  5 20  1  0  0  0  0
  6  5  2  0  0  0  0
  7  1  1  0  0  0  0
  9  2  1  0  0  0  0
 10  9  1  0  0  0  0
 10 17  1  0  0  0  0
 11 10  2  0  0  0  0
 12 14  1  0  0  0  0
 12 11  1  0  0  0  0
 13 12  2  0  0  0  0
 14 15  1  0  0  0  0
 15 16  2  0  0  0  0
 15  9  1  0  0  0  0
 18 11  1  0  0  0  0
 19 14  1  0  0  0  0
 20 23  1  0  0  0  0
 20 21  1  0  0  0  0
 22 20  1  0  0  0  0
M  END
>  <minimizedAffinity>
-5.41858768

$$$$

 OpenBabel03212520303D

 23 24  0  0  0  0  0  0  0  0999 V2000
   39.0250   73.6440   60.5040 C   0  0  0  0  0  0  0  0  0  0  0  0
   39.5080   73.7420   59.1870 C   0  0  0  0  0  0  0  0  0  0  0  0
   40.7990   73.2660   58.9250 C   0  0  0  0  0  0  0  0  0  0  0  0
   41.5100   72.7360   59.9610 N   0  0  0  0  0  0  0  0  0  0  0  0
   41.0160   72.6620   61.2000 C   0  0  0  0  0  0  0  0  0  0  0  0
   39.7740   73.1140   61.4740 N   0  0  0  0  0  0  0  0  0  0  0  0
   38.0190   74.0160   60.7000 H   0  0  0  0  0  0  0  0  0  0  0  0
   41.1690   73.3420   57.9100 H   0  0  0  0  0  0  0  0  0  0  0  0
   38.6910   74.3120   58.1640 N   0  0  0  0  0  0  0  0  0  0  0  0
   38.7010   75.6350   58.1330 C   0  0  0  0  0  0  0  0  0  0  0  0
   37.9360   76.2830   57.1720 C   0  0  0  0  0  0  0  0  0  0  0  0
   37.1860   75.5260   56.2750 C   0  0  0  0  0  0  0  0  0  0  0  0
   36.4680   76.0270   55.3770 O   0  0  0  0  0  0  0  0  0  0  0  0
   37.2240   74.1650   56.3670 N   0  0  0  0  0  0  0  0  0  0  0  0
   37.9790   73.5350   57.3160 C   0  0  0  0  0  0  0  0  0  0  0  0
   38.0160   72.2990   57.4020 O   0  0  0  0  0  0  0  0  0  0  0  0
   39.2540   76.2700   58.7920 H   0  0  0  0  0  0  0  0  0  0  0  0
   37.9010   77.3650   57.0930 H   0  0  0  0  0  0  0  0  0  0  0  0
   36.6500   73.6100   55.6810 H   0  0  0  0  0  0  0  0  0  0  0  0
   41.8400   72.0760   62.2800 C   0  0  0  0  0  0  0  0  0  0  0  0
   41.1250   71.2790   63.1340 F   0  0  0  0  0  0  0  0  0  0  0  0
   42.8760   71.3070   61.7390 F   0  0  0  0  0  0  0  0  0  0  0  0
   42.4360   73.1010   62.9890 F   0  0  0  0  0  0  0  0  0  0  0  0
  1  7  1  0  0  0  0
  1  6  1  0  0  0  0
  2  1  2  0  0  0  0
  3  2  1  0  0  0  0
  3  4  2  0  0  0  0
  4  5  1  0  0  0  0
  5  6  2  0  0  0  0
  5 20  1  0  0  0  0
  8  3  1  0  0  0  0
  9  2  1  0  0  0  0
 10  9  1  0  0  0  0
 10 17  1  0  0  0  0
 11 10  2  0  0  0  0
 12 14  1  0  0  0  0
 12 11  1  0  0  0  0
 13 12  2  0  0  0  0
 14 15  1  0  0  0  0
 15 16  2  0  0  0  0
 15  9  1  0  0  0  0
 18 11  1  0  0  0  0
 19 14  1  0  0  0  0
 20 23  1  0  0  0  0
 20 21  1  0  0  0  0
 22 20  1  0  0  0  0
M  END
>  <minimizedAffinity>
-5.39367294

$$$$

 OpenBabel03212520303D

 23 24  0  0  0  0  0  0  0  0999 V2000
   40.7520   73.5210   59.1130 C   0  0  0  0  0  0  0  0  0  0  0  0
   39.4590   73.9840   59.4130 C   0  0  0  0  0  0  0  0  0  0  0  0
   38.9720   73.7790   60.7110 C   0  0  0  0  0  0  0  0  0  0  0  0
   39.7810   73.1430   61.6060 N   0  0  0  0  0  0  0  0  0  0  0  0
   41.0050   72.7160   61.2820 C   0  0  0  0  0  0  0  0  0  0  0  0
   41.4930   72.9040   60.0370 N   0  0  0  0  0  0  0  0  0  0  0  0
   41.1230   73.6840   58.1020 H   0  0  0  0  0  0  0  0  0  0  0  0
   37.9760   74.1370   60.9390 H   0  0  0  0  0  0  0  0  0  0  0  0
   38.6820   74.6410   58.4110 N   0  0  0  0  0  0  0  0  0  0  0  0
   37.9580   73.8240   57.6610 C   0  0  0  0  0  0  0  0  0  0  0  0
   37.1680   74.3700   56.6580 C   0  0  0  0  0  0  0  0  0  0  0  0
   37.1620   75.7500   56.4700 C   0  0  0  0  0  0  0  0  0  0  0  0
   36.4800   76.3270   55.5890 O   0  0  0  0  0  0  0  0  0  0  0  0
   37.9350   76.5300   57.2810 N   0  0  0  0  0  0  0  0  0  0  0  0
   38.7090   75.9850   58.2660 C   0  0  0  0  0  0  0  0  0  0  0  0
   39.4120   76.6910   59.0050 O   0  0  0  0  0  0  0  0  0  0  0  0
   37.9200   72.7600   57.7550 H   0  0  0  0  0  0  0  0  0  0  0  0
   36.5510   73.7560   56.0090 H   0  0  0  0  0  0  0  0  0  0  0  0
   37.9170   77.5700   57.1250 H   0  0  0  0  0  0  0  0  0  0  0  0
   41.8320   72.0330   62.3000 C   0  0  0  0  0  0  0  0  0  0  0  0
   41.0940   71.3340   63.2170 F   0  0  0  0  0  0  0  0  0  0  0  0
   42.7170   71.1380   61.6880 F   0  0  0  0  0  0  0  0  0  0  0  0
   42.6080   72.9760   62.9470 F   0  0  0  0  0  0  0  0  0  0  0  0
  1  2  2  0  0  0  0
  1  6  1  0  0  0  0
  2  3  1  0  0  0  0
  3  8  1  0  0  0  0
  3  4  2  0  0  0  0
  5  4  1  0  0  0  0
  5 20  1  0  0  0  0
  6  5  2  0  0  0  0
  7  1  1  0  0  0  0
  9  2  1  0  0  0  0
 10 17  1  0  0  0  0
 10  9  1  0  0  0  0
 11 10  2  0  0  0  0
 12 11  1  0  0  0  0
 12 14  1  0  0  0  0
 13 12  2  0  0  0  0
 14 15  1  0  0  0  0
 15  9  1  0  0  0  0
 15 16  2  0  0  0  0
 18 11  1  0  0  0  0
 19 14  1  0  0  0  0
 20 23  1  0  0  0  0
 20 21  1  0  0  0  0
 22 20  1  0  0  0  0
M  END
>  <minimizedAffinity>
-5.2992382

$$$$

 OpenBabel03212520303D

 23 24  0  0  0  0  0  0  0  0999 V2000
   37.6780   74.9180   57.5390 C   0  0  0  0  0  0  0  0  0  0  0  0
   38.1830   76.1300   57.0360 C   0  0  0  0  0  0  0  0  0  0  0  0
   38.9420   76.9330   57.8980 C   0  0  0  0  0  0  0  0  0  0  0  0
   39.1450   76.4920   59.1730 N   0  0  0  0  0  0  0  0  0  0  0  0
   38.6470   75.3340   59.6140 C   0  0  0  0  0  0  0  0  0  0  0  0
   37.9140   74.5450   58.7990 N   0  0  0  0  0  0  0  0  0  0  0  0
   37.0890   74.2990   56.8630 H   0  0  0  0  0  0  0  0  0  0  0  0
   39.3310   77.8650   57.5090 H   0  0  0  0  0  0  0  0  0  0  0  0
   37.9200   76.5110   55.6860 N   0  0  0  0  0  0  0  0  0  0  0  0
   36.8110   77.2160   55.5260 C   0  0  0  0  0  0  0  0  0  0  0  0
   36.4690   77.6340   54.2460 C   0  0  0  0  0  0  0  0  0  0  0  0
   37.2970   77.3010   53.1760 C   0  0  0  0  0  0  0  0  0  0  0  0
   37.0650   77.6350   51.9900 O   0  0  0  0  0  0  0  0  0  0  0  0
   38.4240   76.5700   53.4170 N   0  0  0  0  0  0  0  0  0  0  0  0
   38.7540   76.1630   54.6790 C   0  0  0  0  0  0  0  0  0  0  0  0
   39.7780   75.5000   54.9010 O   0  0  0  0  0  0  0  0  0  0  0  0
   36.1360   77.5030   56.3030 H   0  0  0  0  0  0  0  0  0  0  0  0
   35.5740   78.2140   54.0470 H   0  0  0  0  0  0  0  0  0  0  0  0
   39.0370   76.3280   52.5970 H   0  0  0  0  0  0  0  0  0  0  0  0
   38.9040   74.9130   61.0090 C   0  0  0  0  0  0  0  0  0  0  0  0
   38.4070   75.7870   61.9380 F   0  0  0  0  0  0  0  0  0  0  0  0
   38.3370   73.6570   61.2510 F   0  0  0  0  0  0  0  0  0  0  0  0
   40.2670   74.7710   61.1850 F   0  0  0  0  0  0  0  0  0  0  0  0
  1  6  1  0  0  0  0
  2  1  2  0  0  0  0
  2  3  1  0  0  0  0
  3  4  2  0  0  0  0
  4  5  1  0  0  0  0
  5 20  1  0  0  0  0
  6  5  2  0  0  0  0
  7  1  1  0  0  0  0
  8  3  1  0  0  0  0
  9  2  1  0  0  0  0
 10  9  1  0  0  0  0
 10 17  1  0  0  0  0
 11 10  2  0  0  0  0
 12 14  1  0  0  0  0
 12 11  1  0  0  0  0
 13 12  2  0  0  0  0
 14 15  1  0  0  0  0
 15 16  2  0  0  0  0
 15  9  1  0  0  0  0
 18 11  1  0  0  0  0
 19 14  1  0  0  0  0
 20 23  1  0  0  0  0
 20 22  1  0  0  0  0
 20 21  1  0  0  0  0
M  END
>  <minimizedAffinity>
-5.19976807

$$$$

 OpenBabel03212520303D

 23 24  0  0  0  0  0  0  0  0999 V2000
   39.2510   73.9300   57.7240 C   0  0  0  0  0  0  0  0  0  0  0  0
   39.5390   74.6540   58.8940 C   0  0  0  0  0  0  0  0  0  0  0  0
   39.1100   75.9860   58.9650 C   0  0  0  0  0  0  0  0  0  0  0  0
   38.4390   76.5010   57.8950 N   0  0  0  0  0  0  0  0  0  0  0  0
   38.1850   75.7800   56.7990 C   0  0  0  0  0  0  0  0  0  0  0  0
   38.5890   74.4950   56.7110 N   0  0  0  0  0  0  0  0  0  0  0  0
   39.5870   72.8950   57.6770 H   0  0  0  0  0  0  0  0  0  0  0  0
   39.3330   76.5420   59.8670 H   0  0  0  0  0  0  0  0  0  0  0  0
   40.2480   74.0320   59.9660 N   0  0  0  0  0  0  0  0  0  0  0  0
   41.5410   73.8660   59.7390 C   0  0  0  0  0  0  0  0  0  0  0  0
   42.3170   73.2680   60.7250 C   0  0  0  0  0  0  0  0  0  0  0  0
   41.7140   72.8640   61.9140 C   0  0  0  0  0  0  0  0  0  0  0  0
   42.3370   72.3160   62.8550 O   0  0  0  0  0  0  0  0  0  0  0  0
   40.3750   73.0670   62.0770 N   0  0  0  0  0  0  0  0  0  0  0  0
   39.6190   73.6560   61.1030 C   0  0  0  0  0  0  0  0  0  0  0  0
   38.4020   73.8420   61.2490 O   0  0  0  0  0  0  0  0  0  0  0  0
   42.0610   74.1530   58.8510 H   0  0  0  0  0  0  0  0  0  0  0  0
   43.3820   73.1030   60.6010 H   0  0  0  0  0  0  0  0  0  0  0  0
   39.9370   72.7550   62.9820 H   0  0  0  0  0  0  0  0  0  0  0  0
   37.4520   76.3990   55.6730 C   0  0  0  0  0  0  0  0  0  0  0  0
   36.4690   75.5940   55.1590 F   0  0  0  0  0  0  0  0  0  0  0  0
   36.8580   77.5990   56.0790 F   0  0  0  0  0  0  0  0  0  0  0  0
   38.3560   76.7220   54.6790 F   0  0  0  0  0  0  0  0  0  0  0  0
  1  2  1  0  0  0  0
  2  3  2  0  0  0  0
  2  9  1  0  0  0  0
  3  8  1  0  0  0  0
  4  3  1  0  0  0  0
  5  4  2  0  0  0  0
  6  5  1  0  0  0  0
  6  1  2  0  0  0  0
  7  1  1  0  0  0  0
  9 15  1  0  0  0  0
 10  9  1  0  0  0  0
 10 11  2  0  0  0  0
 11 12  1  0  0  0  0
 12 14  1  0  0  0  0
 12 13  2  0  0  0  0
 14 19  1  0  0  0  0
 15 16  2  0  0  0  0
 15 14  1  0  0  0  0
 17 10  1  0  0  0  0
 18 11  1  0  0  0  0
 20 22  1  0  0  0  0
 20  5  1  0  0  0  0
 21 20  1  0  0  0  0
 23 20  1  0  0  0  0
M  END
>  <minimizedAffinity>
-5.084342

$$$$

 OpenBabel03212520303D

 23 24  0  0  0  0  0  0  0  0999 V2000
   41.6540   72.7360   62.2440 C   0  0  0  0  0  0  0  0  0  0  0  0
   41.2270   72.8710   60.9120 C   0  0  0  0  0  0  0  0  0  0  0  0
   41.3450   71.7580   60.0690 C   0  0  0  0  0  0  0  0  0  0  0  0
   41.8670   70.6110   60.5910 N   0  0  0  0  0  0  0  0  0  0  0  0
   42.2620   70.5230   61.8640 C   0  0  0  0  0  0  0  0  0  0  0  0
   42.1570   71.5840   62.6930 N   0  0  0  0  0  0  0  0  0  0  0  0
   41.5590   73.6070   62.8940 H   0  0  0  0  0  0  0  0  0  0  0  0
   41.0160   71.8640   59.0430 H   0  0  0  0  0  0  0  0  0  0  0  0
   40.6930   74.1130   60.4520 N   0  0  0  0  0  0  0  0  0  0  0  0
   41.5590   74.8680   59.7960 C   0  0  0  0  0  0  0  0  0  0  0  0
   41.1320   76.0970   59.3080 C   0  0  0  0  0  0  0  0  0  0  0  0
   39.8140   76.4950   59.5240 C   0  0  0  0  0  0  0  0  0  0  0  0
   39.3450   77.5860   59.1210 O   0  0  0  0  0  0  0  0  0  0  0  0
   38.9780   75.6630   60.2100 N   0  0  0  0  0  0  0  0  0  0  0  0
   39.4060   74.4560   60.6860 C   0  0  0  0  0  0  0  0  0  0  0  0
   38.6470   73.6980   61.3090 O   0  0  0  0  0  0  0  0  0  0  0  0
   42.5800   74.6210   59.5990 H   0  0  0  0  0  0  0  0  0  0  0  0
   41.7920   76.7640   58.7630 H   0  0  0  0  0  0  0  0  0  0  0  0
   37.9860   75.9810   60.3630 H   0  0  0  0  0  0  0  0  0  0  0  0
   42.8200   69.2490   62.3680 C   0  0  0  0  0  0  0  0  0  0  0  0
   41.8600   68.3210   62.6730 F   0  0  0  0  0  0  0  0  0  0  0  0
   43.6780   68.6840   61.4190 F   0  0  0  0  0  0  0  0  0  0  0  0
   43.5860   69.5120   63.4870 F   0  0  0  0  0  0  0  0  0  0  0  0
  1  6  1  0  0  0  0
  1  7  1  0  0  0  0
  2  1  2  0  0  0  0
  3  4  2  0  0  0  0
  3  2  1  0  0  0  0
  4  5  1  0  0  0  0
  5 20  1  0  0  0  0
  5  6  2  0  0  0  0
  8  3  1  0  0  0  0
  9 15  1  0  0  0  0
  9  2  1  0  0  0  0
 10  9  1  0  0  0  0
 11 12  1  0  0  0  0
 11 10  2  0  0  0  0
 12 14  1  0  0  0  0
 13 12  2  0  0  0  0
 14 19  1  0  0  0  0
 14 15  1  0  0  0  0
 15 16  2  0  0  0  0
 17 10  1  0  0  0  0
 18 11  1  0  0  0  0
 20 21  1  0  0  0  0
 20 23  1  0  0  0  0
 22 20  1  0  0  0  0
M  END
>  <minimizedAffinity>
-5.04439116

$$$$

 OpenBabel03212520303D

 23 24  0  0  0  0  0  0  0  0999 V2000
   41.4610   71.5770   60.3640 C   0  0  0  0  0  0  0  0  0  0  0  0
   41.4670   72.7130   61.1920 C   0  0  0  0  0  0  0  0  0  0  0  0
   41.9550   72.5710   62.4970 C   0  0  0  0  0  0  0  0  0  0  0  0
   42.3950   71.3400   62.8870 N   0  0  0  0  0  0  0  0  0  0  0  0
   42.3720   70.2840   62.0710 C   0  0  0  0  0  0  0  0  0  0  0  0
   41.9060   70.3990   60.8090 N   0  0  0  0  0  0  0  0  0  0  0  0
   41.0790   71.6950   59.3500 H   0  0  0  0  0  0  0  0  0  0  0  0
   41.9590   73.4470   63.1330 H   0  0  0  0  0  0  0  0  0  0  0  0
   40.9860   73.9630   60.6970 N   0  0  0  0  0  0  0  0  0  0  0  0
   39.7630   74.2730   61.0990 C   0  0  0  0  0  0  0  0  0  0  0  0
   39.2080   75.4720   60.6700 C   0  0  0  0  0  0  0  0  0  0  0  0
   39.9480   76.3050   59.8340 C   0  0  0  0  0  0  0  0  0  0  0  0
   39.5250   77.4030   59.3990 O   0  0  0  0  0  0  0  0  0  0  0  0
   41.2020   75.9190   59.4600 N   0  0  0  0  0  0  0  0  0  0  0  0
   41.7410   74.7380   59.8870 C   0  0  0  0  0  0  0  0  0  0  0  0
   42.8810   74.3850   59.5490 O   0  0  0  0  0  0  0  0  0  0  0  0
   39.1460   73.6780   61.7380 H   0  0  0  0  0  0  0  0  0  0  0  0
   38.2110   75.7850   60.9630 H   0  0  0  0  0  0  0  0  0  0  0  0
   41.7460   76.5620   58.8290 H   0  0  0  0  0  0  0  0  0  0  0  0
   42.8640   68.9760   62.5560 C   0  0  0  0  0  0  0  0  0  0  0  0
   43.3400   68.1710   61.5550 F   0  0  0  0  0  0  0  0  0  0  0  0
   43.8930   69.1580   63.4870 F   0  0  0  0  0  0  0  0  0  0  0  0
   41.8370   68.3340   63.2220 F   0  0  0  0  0  0  0  0  0  0  0  0
  1  6  2  0  0  0  0
  1  2  1  0  0  0  0
  2  3  2  0  0  0  0
  3  4  1  0  0  0  0
  3  8  1  0  0  0  0
  5 20  1  0  0  0  0
  5  4  2  0  0  0  0
  6  5  1  0  0  0  0
  7  1  1  0  0  0  0
  9 10  1  0  0  0  0
  9  2  1  0  0  0  0
 10 17  1  0  0  0  0
 11 18  1  0  0  0  0
 11 10  2  0  0  0  0
 12 11  1  0  0  0  0
 13 12  2  0  0  0  0
 14 12  1  0  0  0  0
 14 15  1  0  0  0  0
 15  9  1  0  0  0  0
 16 15  2  0  0  0  0
 19 14  1  0  0  0  0
 20 23  1  0  0  0  0
 20 22  1  0  0  0  0
 21 20  1  0  0  0  0
M  END
>  <minimizedAffinity>
-4.99140978

$$$$

 OpenBabel03212520303D

 23 24  0  0  0  0  0  0  0  0999 V2000
   40.1050   72.7540   61.3470 C   0  0  0  0  0  0  0  0  0  0  0  0
   41.3420   72.4310   60.7630 C   0  0  0  0  0  0  0  0  0  0  0  0
   42.0380   73.4470   60.0950 C   0  0  0  0  0  0  0  0  0  0  0  0
   41.4740   74.6880   60.0510 N   0  0  0  0  0  0  0  0  0  0  0  0
   40.2950   74.9550   60.6180 C   0  0  0  0  0  0  0  0  0  0  0  0
   39.6080   73.9910   61.2670 N   0  0  0  0  0  0  0  0  0  0  0  0
   39.5700   71.9580   61.8650 H   0  0  0  0  0  0  0  0  0  0  0  0
   42.9910   73.1960   59.6460 H   0  0  0  0  0  0  0  0  0  0  0  0
   41.8560   71.1020   60.8600 N   0  0  0  0  0  0  0  0  0  0  0  0
   41.7140   70.3820   59.7580 C   0  0  0  0  0  0  0  0  0  0  0  0
   42.1830   69.0750   59.7550 C   0  0  0  0  0  0  0  0  0  0  0  0
   42.7840   68.5630   60.9020 C   0  0  0  0  0  0  0  0  0  0  0  0
   43.2350   67.3960   60.9880 O   0  0  0  0  0  0  0  0  0  0  0  0
   42.8960   69.3650   62.0020 N   0  0  0  0  0  0  0  0  0  0  0  0
   42.4320   70.6500   61.9970 C   0  0  0  0  0  0  0  0  0  0  0  0
   42.5320   71.3800   62.9940 O   0  0  0  0  0  0  0  0  0  0  0  0
   41.2620   70.7160   58.8490 H   0  0  0  0  0  0  0  0  0  0  0  0
   42.0970   68.4320   58.8840 H   0  0  0  0  0  0  0  0  0  0  0  0
   43.3530   68.9610   62.8590 H   0  0  0  0  0  0  0  0  0  0  0  0
   39.7380   76.3240   60.5340 C   0  0  0  0  0  0  0  0  0  0  0  0
   38.8820   76.4960   59.4790 F   0  0  0  0  0  0  0  0  0  0  0  0
   39.0450   76.6400   61.7080 F   0  0  0  0  0  0  0  0  0  0  0  0
   40.7830   77.2220   60.4370 F   0  0  0  0  0  0  0  0  0  0  0  0
  1  7  1  0  0  0  0
  2  9  1  0  0  0  0
  2  1  2  0  0  0  0
  3  2  1  0  0  0  0
  4  3  2  0  0  0  0
  4  5  1  0  0  0  0
  5  6  2  0  0  0  0
  6  1  1  0  0  0  0
  8  3  1  0  0  0  0
  9 15  1  0  0  0  0
 10  9  1  0  0  0  0
 11 10  2  0  0  0  0
 11 12  1  0  0  0  0
 12 13  2  0  0  0  0
 12 14  1  0  0  0  0
 14 19  1  0  0  0  0
 15 14  1  0  0  0  0
 15 16  2  0  0  0  0
 17 10  1  0  0  0  0
 18 11  1  0  0  0  0
 20  5  1  0  0  0  0
 20 22  1  0  0  0  0
 21 20  1  0  0  0  0
 23 20  1  0  0  0  0
M  END
>  <minimizedAffinity>
-4.90270948

$$$$

 OpenBabel03212520303D

 23 24  0  0  0  0  0  0  0  0999 V2000
   37.7870   74.2760   57.6350 C   0  0  0  0  0  0  0  0  0  0  0  0
   38.8430   74.7540   56.8400 C   0  0  0  0  0  0  0  0  0  0  0  0
   39.9860   75.2400   57.4900 C   0  0  0  0  0  0  0  0  0  0  0  0
   40.0050   75.2190   58.8530 N   0  0  0  0  0  0  0  0  0  0  0  0
   38.9800   74.7570   59.5740 C   0  0  0  0  0  0  0  0  0  0  0  0
   37.8700   74.2840   58.9680 N   0  0  0  0  0  0  0  0  0  0  0  0
   36.9020   73.8990   57.1220 H   0  0  0  0  0  0  0  0  0  0  0  0
   40.7980   75.6080   56.8760 H   0  0  0  0  0  0  0  0  0  0  0  0
   38.7340   74.7370   55.4170 N   0  0  0  0  0  0  0  0  0  0  0  0
   38.2810   75.8640   54.8920 C   0  0  0  0  0  0  0  0  0  0  0  0
   38.1400   75.9440   53.5120 C   0  0  0  0  0  0  0  0  0  0  0  0
   38.4770   74.8440   52.7280 C   0  0  0  0  0  0  0  0  0  0  0  0
   38.3810   74.8280   51.4770 O   0  0  0  0  0  0  0  0  0  0  0  0
   38.9380   73.7140   53.3390 N   0  0  0  0  0  0  0  0  0  0  0  0
   39.0730   73.6430   54.6970 C   0  0  0  0  0  0  0  0  0  0  0  0
   39.4930   72.6180   55.2550 O   0  0  0  0  0  0  0  0  0  0  0  0
   38.0060   76.7410   55.4380 H   0  0  0  0  0  0  0  0  0  0  0  0
   37.7740   76.8390   53.0190 H   0  0  0  0  0  0  0  0  0  0  0  0
   39.1870   72.8930   52.7300 H   0  0  0  0  0  0  0  0  0  0  0  0
   39.0650   74.7620   61.0510 C   0  0  0  0  0  0  0  0  0  0  0  0
   38.6390   75.9360   61.6130 F   0  0  0  0  0  0  0  0  0  0  0  0
   38.2960   73.7240   61.5870 F   0  0  0  0  0  0  0  0  0  0  0  0
   40.3730   74.5160   61.4210 F   0  0  0  0  0  0  0  0  0  0  0  0
  1  6  1  0  0  0  0
  2  3  1  0  0  0  0
  2  1  2  0  0  0  0
  3  4  2  0  0  0  0
  4  5  1  0  0  0  0
  5 20  1  0  0  0  0
  6  5  2  0  0  0  0
  7  1  1  0  0  0  0
  8  3  1  0  0  0  0
  9  2  1  0  0  0  0
 10  9  1  0  0  0  0
 10 17  1  0  0  0  0
 11 10  2  0  0  0  0
 12 14  1  0  0  0  0
 12 11  1  0  0  0  0
 13 12  2  0  0  0  0
 14 15  1  0  0  0  0
 15 16  2  0  0  0  0
 15  9  1  0  0  0  0
 18 11  1  0  0  0  0
 19 14  1  0  0  0  0
 20 23  1  0  0  0  0
 20 22  1  0  0  0  0
 20 21  1  0  0  0  0
M  END
>  <minimizedAffinity>
-4.8313756

$$$$
