
 OpenBabel03212520293D

 23 24  0  0  0  0  0  0  0  0999 V2000
   39.7040   82.2820   61.7900 C   0  0  0  0  0  0  0  0  0  0  0  0
   40.7240   81.5760   61.1280 C   0  0  0  0  0  0  0  0  0  0  0  0
   42.0520   81.9160   61.4170 C   0  0  0  0  0  0  0  0  0  0  0  0
   42.2760   82.9110   62.3230 N   0  0  0  0  0  0  0  0  0  0  0  0
   41.2790   83.5590   62.9310 C   0  0  0  0  0  0  0  0  0  0  0  0
   39.9920   83.2470   62.6670 N   0  0  0  0  0  0  0  0  0  0  0  0
   38.6730   82.0110   61.5600 H   0  0  0  0  0  0  0  0  0  0  0  0
   42.8360   81.3720   60.9070 H   0  0  0  0  0  0  0  0  0  0  0  0
   40.3940   80.5480   60.1930 N   0  0  0  0  0  0  0  0  0  0  0  0
   40.3510   79.3320   60.7140 C   0  0  0  0  0  0  0  0  0  0  0  0
   40.0390   78.2640   59.8830 C   0  0  0  0  0  0  0  0  0  0  0  0
   39.7830   78.5030   58.5350 C   0  0  0  0  0  0  0  0  0  0  0  0
   39.4950   77.6000   57.7130 O   0  0  0  0  0  0  0  0  0  0  0  0
   39.8470   79.7840   58.0670 N   0  0  0  0  0  0  0  0  0  0  0  0
   40.1550   80.8290   58.8920 C   0  0  0  0  0  0  0  0  0  0  0  0
   40.2120   81.9940   58.4710 O   0  0  0  0  0  0  0  0  0  0  0  0
   40.5380   79.0850   61.7370 H   0  0  0  0  0  0  0  0  0  0  0  0
   39.9880   77.2430   60.2470 H   0  0  0  0  0  0  0  0  0  0  0  0
   39.6500   79.9450   57.0460 H   0  0  0  0  0  0  0  0  0  0  0  0
   41.5910   84.6290   63.9050 C   0  0  0  0  0  0  0  0  0  0  0  0
   40.4750   85.2470   64.4060 F   0  0  0  0  0  0  0  0  0  0  0  0
   42.3160   84.1110   64.9830 F   0  0  0  0  0  0  0  0  0  0  0  0
   42.4050   85.5620   63.2930 F   0  0  0  0  0  0  0  0  0  0  0  0
  1  6  1  0  0  0  0
  2  3  1  0  0  0  0
  2  1  2  0  0  0  0
  3  4  2  0  0  0  0
  4  5  1  0  0  0  0
  5 20  1  0  0  0  0
  6  5  2  0  0  0  0
  7  1  1  0  0  0  0
  8  3  1  0  0  0  0
  9 10  1  0  0  0  0
  9  2  1  0  0  0  0
 10 17  1  0  0  0  0
 11 18  1  0  0  0  0
 11 10  2  0  0  0  0
 12 11  1  0  0  0  0
 13 12  2  0  0  0  0
 14 12  1  0  0  0  0
 14 15  1  0  0  0  0
 15  9  1  0  0  0  0
 16 15  2  0  0  0  0
 19 14  1  0  0  0  0
 20 21  1  0  0  0  0
 20 22  1  0  0  0  0
 23 20  1  0  0  0  0
M  END
>  <minimizedAffinity>
-4.87669754

>  <minimizedRMSD>
2.88686967

$$$$
