
 OpenBabel03212520113D

 23 24  0  0  0  0  0  0  0  0999 V2000
   41.9960   82.3110   61.4000 C   0  0  0  0  0  0  0  0  0  0  0  0
   40.8600   82.4540   60.6000 C   0  0  0  0  0  0  0  0  0  0  0  0
   39.7960   83.2150   61.1150 C   0  0  0  0  0  0  0  0  0  0  0  0
   39.9510   83.7560   62.3520 N   0  0  0  0  0  0  0  0  0  0  0  0
   41.0590   83.5990   63.0950 C   0  0  0  0  0  0  0  0  0  0  0  0
   42.0780   82.8740   62.6110 N   0  0  0  0  0  0  0  0  0  0  0  0
   42.7830   81.7210   60.9650 H   0  0  0  0  0  0  0  0  0  0  0  0
   38.8650   83.3830   60.5650 H   0  0  0  0  0  0  0  0  0  0  0  0
   41.8940   84.1660   58.3010 Cl  0  0  0  0  0  0  0  0  0  0  0  0
   41.0680   82.6160   58.1900 C   0  0  0  0  0  0  0  0  0  0  0  0
   40.6370   81.9150   59.3010 C   0  0  0  0  0  0  0  0  0  0  0  0
   40.0050   80.7100   59.0350 C   0  0  0  0  0  0  0  0  0  0  0  0
   39.7760   80.1670   57.7850 C   0  0  0  0  0  0  0  0  0  0  0  0
   40.2210   80.8970   56.7200 C   0  0  0  0  0  0  0  0  0  0  0  0
   39.9870   80.3090   55.0740 Cl  0  0  0  0  0  0  0  0  0  0  0  0
   40.8590   82.1080   56.9260 C   0  0  0  0  0  0  0  0  0  0  0  0
   39.6580   80.1430   59.8970 H   0  0  0  0  0  0  0  0  0  0  0  0
   39.2740   79.2190   57.6810 H   0  0  0  0  0  0  0  0  0  0  0  0
   41.1960   82.6550   56.0440 H   0  0  0  0  0  0  0  0  0  0  0  0
   41.0440   84.2670   64.4250 C   0  0  0  0  0  0  0  0  0  0  0  0
   40.7310   85.6030   64.3290 F   0  0  0  0  0  0  0  0  0  0  0  0
   40.1100   83.6550   65.2420 F   0  0  0  0  0  0  0  0  0  0  0  0
   42.3030   84.2180   65.0150 F   0  0  0  0  0  0  0  0  0  0  0  0
  1  6  1  0  0  0  0
  2  3  1  0  0  0  0
  2  1  2  0  0  0  0
  3  4  2  0  0  0  0
  4  5  1  0  0  0  0
  5 20  1  0  0  0  0
  6  5  2  0  0  0  0
  7  1  1  0  0  0  0
  8  3  1  0  0  0  0
 10  9  1  0  0  0  0
 10 11  1  0  0  0  0
 11  2  1  0  0  0  0
 12 11  2  0  0  0  0
 12 17  1  0  0  0  0
 13 12  1  0  0  0  0
 14 16  1  0  0  0  0
 14 13  2  0  0  0  0
 15 14  1  0  0  0  0
 16 10  2  0  0  0  0
 18 13  1  0  0  0  0
 19 16  1  0  0  0  0
 20 23  1  0  0  0  0
 20 22  1  0  0  0  0
 21 20  1  0  0  0  0
M  END
>  <minimizedAffinity>
-5.13357639

>  <minimizedRMSD>
2.8696835

$$$$
