
 OpenBabel03212520123D

 26 27  0  0  0  0  0  0  0  0999 V2000
   42.6320   84.0960   58.4480 Cl  0  0  0  0  0  0  0  0  0  0  0  0
   41.5520   82.7290   58.1720 C   0  0  0  0  0  0  0  0  0  0  0  0
   40.8570   82.1100   59.1990 C   0  0  0  0  0  0  0  0  0  0  0  0
   40.0480   81.0460   58.8110 C   0  0  0  0  0  0  0  0  0  0  0  0
   39.8950   80.5810   57.5230 C   0  0  0  0  0  0  0  0  0  0  0  0
   40.5980   81.2200   56.5500 C   0  0  0  0  0  0  0  0  0  0  0  0
   40.4780   80.7090   54.8660 Cl  0  0  0  0  0  0  0  0  0  0  0  0
   41.4120   82.2770   56.8780 C   0  0  0  0  0  0  0  0  0  0  0  0
   39.5080   80.5720   59.6370 H   0  0  0  0  0  0  0  0  0  0  0  0
   39.2390   79.7420   57.3200 H   0  0  0  0  0  0  0  0  0  0  0  0
   41.9730   82.1930   61.4710 C   0  0  0  0  0  0  0  0  0  0  0  0
   41.0080   82.5830   60.5280 C   0  0  0  0  0  0  0  0  0  0  0  0
   40.0790   83.5490   60.9290 C   0  0  0  0  0  0  0  0  0  0  0  0
   40.1670   84.0450   62.1900 N   0  0  0  0  0  0  0  0  0  0  0  0
   41.1070   83.6430   63.0630 C   0  0  0  0  0  0  0  0  0  0  0  0
   42.0060   82.7210   62.7020 N   0  0  0  0  0  0  0  0  0  0  0  0
   42.6720   81.4440   61.1230 H   0  0  0  0  0  0  0  0  0  0  0  0
   39.2990   83.9210   60.2910 H   0  0  0  0  0  0  0  0  0  0  0  0
   41.0630   84.2910   64.4100 C   0  0  0  0  0  0  0  0  0  0  0  0
   40.7320   85.6320   64.3230 F   0  0  0  0  0  0  0  0  0  0  0  0
   40.1040   83.6750   65.1890 F   0  0  0  0  0  0  0  0  0  0  0  0
   42.2980   84.2430   65.0330 F   0  0  0  0  0  0  0  0  0  0  0  0
   42.1670   82.9510   55.7740 C   0  0  0  0  0  0  0  0  0  0  0  0
   43.5150   82.7760   55.9030 F   0  0  0  0  0  0  0  0  0  0  0  0
   41.9140   84.2990   55.8310 F   0  0  0  0  0  0  0  0  0  0  0  0
   41.7330   82.4870   54.5540 F   0  0  0  0  0  0  0  0  0  0  0  0
  2  1  1  0  0  0  0
  2  3  1  0  0  0  0
  3 12  1  0  0  0  0
  4  3  2  0  0  0  0
  4  9  1  0  0  0  0
  5  4  1  0  0  0  0
  6  8  1  0  0  0  0
  6  5  2  0  0  0  0
  7  6  1  0  0  0  0
  8  2  2  0  0  0  0
 10  5  1  0  0  0  0
 11 16  1  0  0  0  0
 12 13  1  0  0  0  0
 12 11  2  0  0  0  0
 13 14  2  0  0  0  0
 14 15  1  0  0  0  0
 15 19  1  0  0  0  0
 16 15  2  0  0  0  0
 17 11  1  0  0  0  0
 18 13  1  0  0  0  0
 19 22  1  0  0  0  0
 19 21  1  0  0  0  0
 20 19  1  0  0  0  0
 23 25  1  0  0  0  0
 23 24  1  0  0  0  0
 23  8  1  0  0  0  0
 26 23  1  0  0  0  0
M  END
>  <minimizedAffinity>
-5.38608837

>  <minimizedRMSD>
0.582287133

$$$$
