
 OpenBabel03212520143D

 26 27  0  0  0  0  0  0  0  0999 V2000
   43.6030   74.0700   59.9550 Cl  0  0  0  0  0  0  0  0  0  0  0  0
   41.8740   74.3940   60.0900 C   0  0  0  0  0  0  0  0  0  0  0  0
   41.0060   73.5410   60.7520 C   0  0  0  0  0  0  0  0  0  0  0  0
   39.6740   73.9430   60.7670 C   0  0  0  0  0  0  0  0  0  0  0  0
   39.1740   75.0900   60.1890 C   0  0  0  0  0  0  0  0  0  0  0  0
   40.0650   75.8960   59.5500 C   0  0  0  0  0  0  0  0  0  0  0  0
   39.5360   77.3890   58.7750 Cl  0  0  0  0  0  0  0  0  0  0  0  0
   41.3930   75.5450   59.5060 C   0  0  0  0  0  0  0  0  0  0  0  0
   39.0050   73.2550   61.2950 H   0  0  0  0  0  0  0  0  0  0  0  0
   38.1160   75.3180   60.2540 H   0  0  0  0  0  0  0  0  0  0  0  0
   41.8750   72.1640   62.6920 C   0  0  0  0  0  0  0  0  0  0  0  0
   41.5120   72.3570   61.3490 C   0  0  0  0  0  0  0  0  0  0  0  0
   41.6580   71.2660   60.4860 C   0  0  0  0  0  0  0  0  0  0  0  0
   42.1380   70.1010   60.9930 N   0  0  0  0  0  0  0  0  0  0  0  0
   42.4750   69.9590   62.2870 C   0  0  0  0  0  0  0  0  0  0  0  0
   42.3430   70.9870   63.1300 N   0  0  0  0  0  0  0  0  0  0  0  0
   41.7470   73.0300   63.3270 H   0  0  0  0  0  0  0  0  0  0  0  0
   41.4120   71.3010   59.4410 H   0  0  0  0  0  0  0  0  0  0  0  0
   42.9850   68.6090   62.6800 C   0  0  0  0  0  0  0  0  0  0  0  0
   42.0500   67.9020   63.4160 F   0  0  0  0  0  0  0  0  0  0  0  0
   43.2680   67.8720   61.5480 F   0  0  0  0  0  0  0  0  0  0  0  0
   44.1060   68.7100   63.4860 F   0  0  0  0  0  0  0  0  0  0  0  0
   42.3370   76.4630   58.7920 C   0  0  0  0  0  0  0  0  0  0  0  0
   41.8810   76.7920   57.5490 F   0  0  0  0  0  0  0  0  0  0  0  0
   43.5390   75.8190   58.6380 F   0  0  0  0  0  0  0  0  0  0  0  0
   42.5530   77.5950   59.5440 F   0  0  0  0  0  0  0  0  0  0  0  0
  1  2  1  0  0  0  0
  2  3  1  0  0  0  0
  3  4  2  0  0  0  0
  3 12  1  0  0  0  0
  4  9  1  0  0  0  0
  5 10  1  0  0  0  0
  5  4  1  0  0  0  0
  6  5  2  0  0  0  0
  7  6  1  0  0  0  0
  8  6  1  0  0  0  0
  8  2  2  0  0  0  0
 11 16  1  0  0  0  0
 11 17  1  0  0  0  0
 12 11  2  0  0  0  0
 13 14  2  0  0  0  0
 13 12  1  0  0  0  0
 14 15  1  0  0  0  0
 15 19  1  0  0  0  0
 15 16  2  0  0  0  0
 18 13  1  0  0  0  0
 19 20  1  0  0  0  0
 19 22  1  0  0  0  0
 21 19  1  0  0  0  0
 23  8  1  0  0  0  0
 23 26  1  0  0  0  0
 24 23  1  0  0  0  0
 25 23  1  0  0  0  0
M  END
>  <minimizedAffinity>
-5.92408419

$$$$

 OpenBabel03212520143D

 26 27  0  0  0  0  0  0  0  0999 V2000
   39.2770   73.2560   61.4060 Cl  0  0  0  0  0  0  0  0  0  0  0  0
   40.7220   73.9300   60.6510 C   0  0  0  0  0  0  0  0  0  0  0  0
   41.9340   73.2590   60.6350 C   0  0  0  0  0  0  0  0  0  0  0  0
   42.9750   73.9300   59.9990 C   0  0  0  0  0  0  0  0  0  0  0  0
   42.8870   75.1710   59.4050 C   0  0  0  0  0  0  0  0  0  0  0  0
   41.6760   75.7890   59.4480 C   0  0  0  0  0  0  0  0  0  0  0  0
   41.4500   77.3800   58.7210 Cl  0  0  0  0  0  0  0  0  0  0  0  0
   40.6150   75.1710   60.0640 C   0  0  0  0  0  0  0  0  0  0  0  0
   43.9230   73.3840   59.9970 H   0  0  0  0  0  0  0  0  0  0  0  0
   43.7580   75.6130   58.9340 H   0  0  0  0  0  0  0  0  0  0  0  0
   42.2350   71.6940   62.6030 C   0  0  0  0  0  0  0  0  0  0  0  0
   42.0340   71.9810   61.2430 C   0  0  0  0  0  0  0  0  0  0  0  0
   41.9170   70.8930   60.3720 C   0  0  0  0  0  0  0  0  0  0  0  0
   42.0030   69.6400   60.8880 N   0  0  0  0  0  0  0  0  0  0  0  0
   42.1960   69.4080   62.1990 C   0  0  0  0  0  0  0  0  0  0  0  0
   42.3110   70.4320   63.0500 N   0  0  0  0  0  0  0  0  0  0  0  0
   42.3210   72.5610   63.2440 H   0  0  0  0  0  0  0  0  0  0  0  0
   41.7620   70.9960   59.3140 H   0  0  0  0  0  0  0  0  0  0  0  0
   42.2660   67.9690   62.6000 C   0  0  0  0  0  0  0  0  0  0  0  0
   42.2960   67.1310   61.4990 F   0  0  0  0  0  0  0  0  0  0  0  0
   43.4190   67.7460   63.3260 F   0  0  0  0  0  0  0  0  0  0  0  0
   41.1520   67.5960   63.3320 F   0  0  0  0  0  0  0  0  0  0  0  0
   39.3010   75.8890   60.0860 C   0  0  0  0  0  0  0  0  0  0  0  0
   39.3810   77.1100   59.4830 F   0  0  0  0  0  0  0  0  0  0  0  0
   38.9360   76.0920   61.3920 F   0  0  0  0  0  0  0  0  0  0  0  0
   38.3320   75.1170   59.4880 F   0  0  0  0  0  0  0  0  0  0  0  0
  2  1  1  0  0  0  0
  3  2  1  0  0  0  0
  3 12  1  0  0  0  0
  4  3  2  0  0  0  0
  5  6  2  0  0  0  0
  5  4  1  0  0  0  0
  6  8  1  0  0  0  0
  7  6  1  0  0  0  0
  8 23  1  0  0  0  0
  8  2  2  0  0  0  0
  9  4  1  0  0  0  0
 10  5  1  0  0  0  0
 11 16  1  0  0  0  0
 11 17  1  0  0  0  0
 12 11  2  0  0  0  0
 13 14  2  0  0  0  0
 13 12  1  0  0  0  0
 14 15  1  0  0  0  0
 15 19  1  0  0  0  0
 15 16  2  0  0  0  0
 18 13  1  0  0  0  0
 19 21  1  0  0  0  0
 19 22  1  0  0  0  0
 20 19  1  0  0  0  0
 23 25  1  0  0  0  0
 24 23  1  0  0  0  0
 26 23  1  0  0  0  0
M  END
>  <minimizedAffinity>
-5.89259863

$$$$

 OpenBabel03212520143D

 26 27  0  0  0  0  0  0  0  0999 V2000
   39.4910   73.1550   61.4840 Cl  0  0  0  0  0  0  0  0  0  0  0  0
   40.8240   73.9200   60.6190 C   0  0  0  0  0  0  0  0  0  0  0  0
   41.9850   73.2390   60.2880 C   0  0  0  0  0  0  0  0  0  0  0  0
   42.9390   73.9880   59.6050 C   0  0  0  0  0  0  0  0  0  0  0  0
   42.8150   75.3140   59.2480 C   0  0  0  0  0  0  0  0  0  0  0  0
   41.6580   75.9390   59.5960 C   0  0  0  0  0  0  0  0  0  0  0  0
   41.3920   77.6350   59.1900 Cl  0  0  0  0  0  0  0  0  0  0  0  0
   40.6830   75.2450   60.2700 C   0  0  0  0  0  0  0  0  0  0  0  0
   43.8470   73.4320   59.3530 H   0  0  0  0  0  0  0  0  0  0  0  0
   43.6170   75.8130   58.7160 H   0  0  0  0  0  0  0  0  0  0  0  0
   42.6100   71.3550   61.8610 C   0  0  0  0  0  0  0  0  0  0  0  0
   42.1210   71.8740   60.6510 C   0  0  0  0  0  0  0  0  0  0  0  0
   41.7170   70.9530   59.6790 C   0  0  0  0  0  0  0  0  0  0  0  0
   41.8210   69.6290   59.9610 N   0  0  0  0  0  0  0  0  0  0  0  0
   42.2960   69.1730   61.1330 C   0  0  0  0  0  0  0  0  0  0  0  0
   42.6880   70.0340   62.0770 N   0  0  0  0  0  0  0  0  0  0  0  0
   42.9130   72.0980   62.5860 H   0  0  0  0  0  0  0  0  0  0  0  0
   41.3280   71.2380   58.7190 H   0  0  0  0  0  0  0  0  0  0  0  0
   42.3420   67.6850   61.2810 C   0  0  0  0  0  0  0  0  0  0  0  0
   42.6760   67.3090   62.5710 F   0  0  0  0  0  0  0  0  0  0  0  0
   41.1010   67.1520   60.9990 F   0  0  0  0  0  0  0  0  0  0  0  0
   43.3090   67.1290   60.4610 F   0  0  0  0  0  0  0  0  0  0  0  0
   39.4250   75.9740   60.6320 C   0  0  0  0  0  0  0  0  0  0  0  0
   38.4770   75.1300   61.1320 F   0  0  0  0  0  0  0  0  0  0  0  0
   38.9140   76.5520   59.4980 F   0  0  0  0  0  0  0  0  0  0  0  0
   39.7040   76.9760   61.5330 F   0  0  0  0  0  0  0  0  0  0  0  0
  2  1  1  0  0  0  0
  3  2  1  0  0  0  0
  3 12  1  0  0  0  0
  4  3  2  0  0  0  0
  5  6  2  0  0  0  0
  5  4  1  0  0  0  0
  6  8  1  0  0  0  0
  7  6  1  0  0  0  0
  8  2  2  0  0  0  0
  8 23  1  0  0  0  0
  9  4  1  0  0  0  0
 10  5  1  0  0  0  0
 11 16  1  0  0  0  0
 11 17  1  0  0  0  0
 12 11  2  0  0  0  0
 13 14  2  0  0  0  0
 13 12  1  0  0  0  0
 14 15  1  0  0  0  0
 15 19  1  0  0  0  0
 15 16  2  0  0  0  0
 18 13  1  0  0  0  0
 19 20  1  0  0  0  0
 21 19  1  0  0  0  0
 22 19  1  0  0  0  0
 23 24  1  0  0  0  0
 23 26  1  0  0  0  0
 25 23  1  0  0  0  0
M  END
>  <minimizedAffinity>
-5.80541945

$$$$

 OpenBabel03212520143D

 26 27  0  0  0  0  0  0  0  0999 V2000
   40.6660   70.5030   58.4310 Cl  0  0  0  0  0  0  0  0  0  0  0  0
   41.6820   70.1210   59.8220 C   0  0  0  0  0  0  0  0  0  0  0  0
   42.0090   71.0620   60.7850 C   0  0  0  0  0  0  0  0  0  0  0  0
   42.8190   70.5980   61.8170 C   0  0  0  0  0  0  0  0  0  0  0  0
   43.3040   69.3140   61.9430 C   0  0  0  0  0  0  0  0  0  0  0  0
   42.9570   68.4270   60.9720 C   0  0  0  0  0  0  0  0  0  0  0  0
   43.5210   66.7570   61.0330 Cl  0  0  0  0  0  0  0  0  0  0  0  0
   42.1570   68.8330   59.9310 C   0  0  0  0  0  0  0  0  0  0  0  0
   43.0650   71.3560   62.5680 H   0  0  0  0  0  0  0  0  0  0  0  0
   43.9320   69.0480   62.7860 H   0  0  0  0  0  0  0  0  0  0  0  0
   42.0560   73.4360   59.9050 C   0  0  0  0  0  0  0  0  0  0  0  0
   41.5140   72.3860   60.6640 C   0  0  0  0  0  0  0  0  0  0  0  0
   40.3510   72.6600   61.3920 C   0  0  0  0  0  0  0  0  0  0  0  0
   39.8230   73.9090   61.3210 N   0  0  0  0  0  0  0  0  0  0  0  0
   40.3750   74.8870   60.5810 C   0  0  0  0  0  0  0  0  0  0  0  0
   41.4860   74.6490   59.8770 N   0  0  0  0  0  0  0  0  0  0  0  0
   42.9540   73.1850   59.3570 H   0  0  0  0  0  0  0  0  0  0  0  0
   39.8520   71.9330   62.0060 H   0  0  0  0  0  0  0  0  0  0  0  0
   39.6670   76.2040   60.6140 C   0  0  0  0  0  0  0  0  0  0  0  0
   40.5570   77.2640   60.6340 F   0  0  0  0  0  0  0  0  0  0  0  0
   38.8840   76.3380   59.4850 F   0  0  0  0  0  0  0  0  0  0  0  0
   38.8960   76.3330   61.7570 F   0  0  0  0  0  0  0  0  0  0  0  0
   41.8000   67.8220   58.8850 C   0  0  0  0  0  0  0  0  0  0  0  0
   40.7100   68.2070   58.1600 F   0  0  0  0  0  0  0  0  0  0  0  0
   41.4910   66.6400   59.5080 F   0  0  0  0  0  0  0  0  0  0  0  0
   42.8770   67.5990   58.0580 F   0  0  0  0  0  0  0  0  0  0  0  0
  1  2  1  0  0  0  0
  2  8  2  0  0  0  0
  2  3  1  0  0  0  0
  3  4  2  0  0  0  0
  4  5  1  0  0  0  0
  4  9  1  0  0  0  0
  5 10  1  0  0  0  0
  6  7  1  0  0  0  0
  6  5  2  0  0  0  0
  8  6  1  0  0  0  0
 11 12  1  0  0  0  0
 12  3  1  0  0  0  0
 12 13  2  0  0  0  0
 13 18  1  0  0  0  0
 14 13  1  0  0  0  0
 15 19  1  0  0  0  0
 15 14  2  0  0  0  0
 16 11  2  0  0  0  0
 16 15  1  0  0  0  0
 17 11  1  0  0  0  0
 19 20  1  0  0  0  0
 19 22  1  0  0  0  0
 21 19  1  0  0  0  0
 23 25  1  0  0  0  0
 23  8  1  0  0  0  0
 24 23  1  0  0  0  0
 26 23  1  0  0  0  0
M  END
>  <minimizedAffinity>
-5.63511229

$$$$

 OpenBabel03212520143D

 26 27  0  0  0  0  0  0  0  0999 V2000
   42.3320   71.6320   62.6920 Cl  0  0  0  0  0  0  0  0  0  0  0  0
   42.0290   70.7920   61.1710 C   0  0  0  0  0  0  0  0  0  0  0  0
   41.4200   71.4070   60.0890 C   0  0  0  0  0  0  0  0  0  0  0  0
   41.2550   70.6050   58.9650 C   0  0  0  0  0  0  0  0  0  0  0  0
   41.6410   69.2860   58.8550 C   0  0  0  0  0  0  0  0  0  0  0  0
   42.2340   68.7260   59.9440 C   0  0  0  0  0  0  0  0  0  0  0  0
   42.7680   67.0450   59.9150 Cl  0  0  0  0  0  0  0  0  0  0  0  0
   42.4220   69.4750   61.0800 C   0  0  0  0  0  0  0  0  0  0  0  0
   40.7720   71.1100   58.1220 H   0  0  0  0  0  0  0  0  0  0  0  0
   41.4680   68.7410   57.9330 H   0  0  0  0  0  0  0  0  0  0  0  0
   39.8300   73.2660   60.7460 C   0  0  0  0  0  0  0  0  0  0  0  0
   41.0190   72.7650   60.1930 C   0  0  0  0  0  0  0  0  0  0  0  0
   41.9270   73.6970   59.6790 C   0  0  0  0  0  0  0  0  0  0  0  0
   41.6060   75.0150   59.7460 N   0  0  0  0  0  0  0  0  0  0  0  0
   40.4550   75.4540   60.2840 C   0  0  0  0  0  0  0  0  0  0  0  0
   39.5720   74.5820   60.7810 N   0  0  0  0  0  0  0  0  0  0  0  0
   39.1550   72.5150   61.1310 H   0  0  0  0  0  0  0  0  0  0  0  0
   42.8660   73.4260   59.2340 H   0  0  0  0  0  0  0  0  0  0  0  0
   40.2580   76.9370   60.2790 C   0  0  0  0  0  0  0  0  0  0  0  0
   39.8940   77.4100   61.5280 F   0  0  0  0  0  0  0  0  0  0  0  0
   41.4380   77.5600   59.9250 F   0  0  0  0  0  0  0  0  0  0  0  0
   39.2380   77.3060   59.4190 F   0  0  0  0  0  0  0  0  0  0  0  0
   43.0790   68.8170   62.2540 C   0  0  0  0  0  0  0  0  0  0  0  0
   44.3210   68.3460   61.9400 F   0  0  0  0  0  0  0  0  0  0  0  0
   42.3130   67.7470   62.6410 F   0  0  0  0  0  0  0  0  0  0  0  0
   43.1480   69.6960   63.3100 F   0  0  0  0  0  0  0  0  0  0  0  0
  2  1  1  0  0  0  0
  3 12  1  0  0  0  0
  3  2  2  0  0  0  0
  4  3  1  0  0  0  0
  5  4  2  0  0  0  0
  5  6  1  0  0  0  0
  6  8  2  0  0  0  0
  7  6  1  0  0  0  0
  8  2  1  0  0  0  0
  8 23  1  0  0  0  0
  9  4  1  0  0  0  0
 10  5  1  0  0  0  0
 11 16  1  0  0  0  0
 11 17  1  0  0  0  0
 12 11  2  0  0  0  0
 13 14  2  0  0  0  0
 13 12  1  0  0  0  0
 14 15  1  0  0  0  0
 15 16  2  0  0  0  0
 18 13  1  0  0  0  0
 19 15  1  0  0  0  0
 19 20  1  0  0  0  0
 21 19  1  0  0  0  0
 22 19  1  0  0  0  0
 23 25  1  0  0  0  0
 23 26  1  0  0  0  0
 24 23  1  0  0  0  0
M  END
>  <minimizedAffinity>
-5.5564909

$$$$

 OpenBabel03212520143D

 26 27  0  0  0  0  0  0  0  0999 V2000
   41.5220   70.4740   58.8440 Cl  0  0  0  0  0  0  0  0  0  0  0  0
   41.8650   70.3810   60.5720 C   0  0  0  0  0  0  0  0  0  0  0  0
   42.0370   71.5090   61.3580 C   0  0  0  0  0  0  0  0  0  0  0  0
   42.3020   71.2610   62.7020 C   0  0  0  0  0  0  0  0  0  0  0  0
   42.4020   70.0160   63.2850 C   0  0  0  0  0  0  0  0  0  0  0  0
   42.2260   68.9400   62.4720 C   0  0  0  0  0  0  0  0  0  0  0  0
   42.3320   67.3000   63.1120 Cl  0  0  0  0  0  0  0  0  0  0  0  0
   41.9620   69.1290   61.1370 C   0  0  0  0  0  0  0  0  0  0  0  0
   42.4340   72.1650   63.3050 H   0  0  0  0  0  0  0  0  0  0  0  0
   42.6120   69.9260   64.3450 H   0  0  0  0  0  0  0  0  0  0  0  0
   40.7820   73.5800   60.6180 C   0  0  0  0  0  0  0  0  0  0  0  0
   41.9360   72.7940   60.7660 C   0  0  0  0  0  0  0  0  0  0  0  0
   43.1360   73.3250   60.2790 C   0  0  0  0  0  0  0  0  0  0  0  0
   43.1110   74.5530   59.6990 N   0  0  0  0  0  0  0  0  0  0  0  0
   41.9820   75.2730   59.5770 C   0  0  0  0  0  0  0  0  0  0  0  0
   40.8240   74.7870   60.0350 N   0  0  0  0  0  0  0  0  0  0  0  0
   39.8760   73.1360   61.0070 H   0  0  0  0  0  0  0  0  0  0  0  0
   44.0770   72.8120   60.3380 H   0  0  0  0  0  0  0  0  0  0  0  0
   42.1300   76.6060   58.9140 C   0  0  0  0  0  0  0  0  0  0  0  0
   42.7050   77.5380   59.7620 F   0  0  0  0  0  0  0  0  0  0  0  0
   42.9490   76.4860   57.8100 F   0  0  0  0  0  0  0  0  0  0  0  0
   40.9000   77.1280   58.5530 F   0  0  0  0  0  0  0  0  0  0  0  0
   41.7740   67.9140   60.2810 C   0  0  0  0  0  0  0  0  0  0  0  0
   41.2110   68.2260   59.0770 F   0  0  0  0  0  0  0  0  0  0  0  0
   40.9270   67.0500   60.9260 F   0  0  0  0  0  0  0  0  0  0  0  0
   42.9790   67.2740   60.1000 F   0  0  0  0  0  0  0  0  0  0  0  0
  1  2  1  0  0  0  0
  2  8  2  0  0  0  0
  2  3  1  0  0  0  0
  3  4  2  0  0  0  0
  4  5  1  0  0  0  0
  4  9  1  0  0  0  0
  5 10  1  0  0  0  0
  6  7  1  0  0  0  0
  6  5  2  0  0  0  0
  8  6  1  0  0  0  0
 11 12  1  0  0  0  0
 11 17  1  0  0  0  0
 12  3  1  0  0  0  0
 13 18  1  0  0  0  0
 13 12  2  0  0  0  0
 14 13  1  0  0  0  0
 15 14  2  0  0  0  0
 15 16  1  0  0  0  0
 16 11  2  0  0  0  0
 19 15  1  0  0  0  0
 19 20  1  0  0  0  0
 21 19  1  0  0  0  0
 22 19  1  0  0  0  0
 23 25  1  0  0  0  0
 23  8  1  0  0  0  0
 24 23  1  0  0  0  0
 26 23  1  0  0  0  0
M  END
>  <minimizedAffinity>
-5.45453024

$$$$

 OpenBabel03212520143D

 26 27  0  0  0  0  0  0  0  0999 V2000
   43.3380   73.4850   58.6760 Cl  0  0  0  0  0  0  0  0  0  0  0  0
   41.8680   73.9100   59.5530 C   0  0  0  0  0  0  0  0  0  0  0  0
   41.0630   72.9590   60.1610 C   0  0  0  0  0  0  0  0  0  0  0  0
   39.9400   73.4600   60.8120 C   0  0  0  0  0  0  0  0  0  0  0  0
   39.5840   74.7890   60.8920 C   0  0  0  0  0  0  0  0  0  0  0  0
   40.4050   75.6840   60.2790 C   0  0  0  0  0  0  0  0  0  0  0  0
   40.0460   77.4110   60.3170 Cl  0  0  0  0  0  0  0  0  0  0  0  0
   41.5280   75.2420   59.6230 C   0  0  0  0  0  0  0  0  0  0  0  0
   39.3180   72.6930   61.2850 H   0  0  0  0  0  0  0  0  0  0  0  0
   38.6850   75.0830   61.4230 H   0  0  0  0  0  0  0  0  0  0  0  0
   42.1060   70.8270   61.0460 C   0  0  0  0  0  0  0  0  0  0  0  0
   41.4220   71.5880   60.0840 C   0  0  0  0  0  0  0  0  0  0  0  0
   41.0420   70.9350   58.9060 C   0  0  0  0  0  0  0  0  0  0  0  0
   41.3550   69.6210   58.7670 N   0  0  0  0  0  0  0  0  0  0  0  0
   42.0120   68.9290   59.7140 C   0  0  0  0  0  0  0  0  0  0  0  0
   42.3850   69.5310   60.8470 N   0  0  0  0  0  0  0  0  0  0  0  0
   42.3830   71.3680   61.9410 H   0  0  0  0  0  0  0  0  0  0  0  0
   40.5160   71.4190   58.1050 H   0  0  0  0  0  0  0  0  0  0  0  0
   42.2760   67.4900   59.4010 C   0  0  0  0  0  0  0  0  0  0  0  0
   43.0540   67.3470   58.2640 F   0  0  0  0  0  0  0  0  0  0  0  0
   42.9580   66.9050   60.4480 F   0  0  0  0  0  0  0  0  0  0  0  0
   41.1000   66.8070   59.1440 F   0  0  0  0  0  0  0  0  0  0  0  0
   42.4030   76.2640   58.9630 C   0  0  0  0  0  0  0  0  0  0  0  0
   43.6330   75.7560   58.6600 F   0  0  0  0  0  0  0  0  0  0  0  0
   42.5860   77.3090   59.8330 F   0  0  0  0  0  0  0  0  0  0  0  0
   41.7890   76.7520   57.8330 F   0  0  0  0  0  0  0  0  0  0  0  0
  1  2  1  0  0  0  0
  2  8  2  0  0  0  0
  2  3  1  0  0  0  0
  3  4  2  0  0  0  0
  4  5  1  0  0  0  0
  4  9  1  0  0  0  0
  5 10  1  0  0  0  0
  6  7  1  0  0  0  0
  6  5  2  0  0  0  0
  8  6  1  0  0  0  0
 11 17  1  0  0  0  0
 12  3  1  0  0  0  0
 12 11  2  0  0  0  0
 13 12  1  0  0  0  0
 14 13  2  0  0  0  0
 14 15  1  0  0  0  0
 15 16  2  0  0  0  0
 16 11  1  0  0  0  0
 18 13  1  0  0  0  0
 19 15  1  0  0  0  0
 19 21  1  0  0  0  0
 20 19  1  0  0  0  0
 22 19  1  0  0  0  0
 23  8  1  0  0  0  0
 23 25  1  0  0  0  0
 24 23  1  0  0  0  0
 26 23  1  0  0  0  0
M  END
>  <minimizedAffinity>
-5.32412195

$$$$

 OpenBabel03212520143D

 26 27  0  0  0  0  0  0  0  0999 V2000
   39.5970   72.7790   60.4870 Cl  0  0  0  0  0  0  0  0  0  0  0  0
   41.2470   73.3330   60.2020 C   0  0  0  0  0  0  0  0  0  0  0  0
   42.3560   72.5900   60.5750 C   0  0  0  0  0  0  0  0  0  0  0  0
   43.5860   73.1700   60.2780 C   0  0  0  0  0  0  0  0  0  0  0  0
   43.7730   74.3890   59.6620 C   0  0  0  0  0  0  0  0  0  0  0  0
   42.6530   75.0810   59.3160 C   0  0  0  0  0  0  0  0  0  0  0  0
   42.7740   76.6520   58.5230 Cl  0  0  0  0  0  0  0  0  0  0  0  0
   41.4140   74.5530   59.5860 C   0  0  0  0  0  0  0  0  0  0  0  0
   44.4490   72.5670   60.5800 H   0  0  0  0  0  0  0  0  0  0  0  0
   44.7750   74.7580   59.4740 H   0  0  0  0  0  0  0  0  0  0  0  0
   41.8390   71.0930   62.5510 C   0  0  0  0  0  0  0  0  0  0  0  0
   42.1740   71.3340   61.2090 C   0  0  0  0  0  0  0  0  0  0  0  0
   42.3550   70.2170   60.3870 C   0  0  0  0  0  0  0  0  0  0  0  0
   42.1960   68.9820   60.9300 N   0  0  0  0  0  0  0  0  0  0  0  0
   41.8740   68.7960   62.2220 C   0  0  0  0  0  0  0  0  0  0  0  0
   41.6970   69.8480   63.0270 N   0  0  0  0  0  0  0  0  0  0  0  0
   41.7090   71.9820   63.1540 H   0  0  0  0  0  0  0  0  0  0  0  0
   42.6130   70.2830   59.3460 H   0  0  0  0  0  0  0  0  0  0  0  0
   41.7370   67.3720   62.6590 C   0  0  0  0  0  0  0  0  0  0  0  0
   40.5890   67.1730   63.4060 F   0  0  0  0  0  0  0  0  0  0  0  0
   41.6590   66.5520   61.5510 F   0  0  0  0  0  0  0  0  0  0  0  0
   42.7910   66.9910   63.4720 F   0  0  0  0  0  0  0  0  0  0  0  0
   40.2100   75.3500   59.1870 C   0  0  0  0  0  0  0  0  0  0  0  0
   39.0490   74.7200   59.5300 F   0  0  0  0  0  0  0  0  0  0  0  0
   40.2170   75.4980   57.8230 F   0  0  0  0  0  0  0  0  0  0  0  0
   40.2650   76.6030   59.7520 F   0  0  0  0  0  0  0  0  0  0  0  0
  2  1  1  0  0  0  0
  2  3  1  0  0  0  0
  3 12  1  0  0  0  0
  4  3  2  0  0  0  0
  4  9  1  0  0  0  0
  5  4  1  0  0  0  0
  6  8  1  0  0  0  0
  6  5  2  0  0  0  0
  7  6  1  0  0  0  0
  8  2  2  0  0  0  0
 10  5  1  0  0  0  0
 11 16  1  0  0  0  0
 11 17  1  0  0  0  0
 12 11  2  0  0  0  0
 13 14  2  0  0  0  0
 13 12  1  0  0  0  0
 14 15  1  0  0  0  0
 15 19  1  0  0  0  0
 15 16  2  0  0  0  0
 18 13  1  0  0  0  0
 19 20  1  0  0  0  0
 19 22  1  0  0  0  0
 21 19  1  0  0  0  0
 23 24  1  0  0  0  0
 23  8  1  0  0  0  0
 23 26  1  0  0  0  0
 25 23  1  0  0  0  0
M  END
>  <minimizedAffinity>
-5.22173262

$$$$

 OpenBabel03212520143D

 26 27  0  0  0  0  0  0  0  0999 V2000
   41.0670   70.8030   58.4010 Cl  0  0  0  0  0  0  0  0  0  0  0  0
   41.4570   71.3160   60.0440 C   0  0  0  0  0  0  0  0  0  0  0  0
   41.2020   72.5980   60.5030 C   0  0  0  0  0  0  0  0  0  0  0  0
   41.5700   72.8390   61.8240 C   0  0  0  0  0  0  0  0  0  0  0  0
   42.1510   71.9250   62.6760 C   0  0  0  0  0  0  0  0  0  0  0  0
   42.3820   70.6800   62.1780 C   0  0  0  0  0  0  0  0  0  0  0  0
   43.1220   69.4310   63.1810 Cl  0  0  0  0  0  0  0  0  0  0  0  0
   42.0370   70.3890   60.8810 C   0  0  0  0  0  0  0  0  0  0  0  0
   41.3600   73.8570   62.1670 H   0  0  0  0  0  0  0  0  0  0  0  0
   42.4030   72.2090   63.6910 H   0  0  0  0  0  0  0  0  0  0  0  0
   41.2490   74.4000   58.7250 C   0  0  0  0  0  0  0  0  0  0  0  0
   40.6030   73.5450   59.6330 C   0  0  0  0  0  0  0  0  0  0  0  0
   39.2080   73.6240   59.7020 C   0  0  0  0  0  0  0  0  0  0  0  0
   38.5710   74.5120   58.8960 N   0  0  0  0  0  0  0  0  0  0  0  0
   39.2280   75.3130   58.0390 C   0  0  0  0  0  0  0  0  0  0  0  0
   40.5610   75.2550   57.9550 N   0  0  0  0  0  0  0  0  0  0  0  0
   42.3260   74.3090   58.7010 H   0  0  0  0  0  0  0  0  0  0  0  0
   38.6130   73.0200   60.3610 H   0  0  0  0  0  0  0  0  0  0  0  0
   38.3730   76.2310   57.2230 C   0  0  0  0  0  0  0  0  0  0  0  0
   38.8510   76.3610   55.9310 F   0  0  0  0  0  0  0  0  0  0  0  0
   37.0920   75.7260   57.1460 F   0  0  0  0  0  0  0  0  0  0  0  0
   38.3600   77.5100   57.7550 F   0  0  0  0  0  0  0  0  0  0  0  0
   42.3100   69.0050   60.3760 C   0  0  0  0  0  0  0  0  0  0  0  0
   41.7290   68.7860   59.1610 F   0  0  0  0  0  0  0  0  0  0  0  0
   41.7770   68.1040   61.2620 F   0  0  0  0  0  0  0  0  0  0  0  0
   43.6670   68.7860   60.3100 F   0  0  0  0  0  0  0  0  0  0  0  0
  1  2  1  0  0  0  0
  2  3  2  0  0  0  0
  2  8  1  0  0  0  0
  3  4  1  0  0  0  0
  4  9  1  0  0  0  0
  4  5  2  0  0  0  0
  5 10  1  0  0  0  0
  6  5  1  0  0  0  0
  6  7  1  0  0  0  0
  8  6  2  0  0  0  0
 11 12  1  0  0  0  0
 12 13  2  0  0  0  0
 12  3  1  0  0  0  0
 13 18  1  0  0  0  0
 14 13  1  0  0  0  0
 15 14  2  0  0  0  0
 16 15  1  0  0  0  0
 16 11  2  0  0  0  0
 17 11  1  0  0  0  0
 19 22  1  0  0  0  0
 19 15  1  0  0  0  0
 20 19  1  0  0  0  0
 21 19  1  0  0  0  0
 23  8  1  0  0  0  0
 23 25  1  0  0  0  0
 24 23  1  0  0  0  0
 26 23  1  0  0  0  0
M  END
>  <minimizedAffinity>
-5.16009665

$$$$
