
 OpenBabel03212520293D

 23 24  0  0  0  0  0  0  0  0999 V2000
   39.4900   82.6630   61.5220 C   0  0  0  0  0  0  0  0  0  0  0  0
   40.6030   82.2190   60.7870 C   0  0  0  0  0  0  0  0  0  0  0  0
   41.8780   82.4710   61.3100 C   0  0  0  0  0  0  0  0  0  0  0  0
   41.9640   83.1310   62.5010 N   0  0  0  0  0  0  0  0  0  0  0  0
   40.8820   83.5370   63.1700 C   0  0  0  0  0  0  0  0  0  0  0  0
   39.6440   83.3040   62.6830 N   0  0  0  0  0  0  0  0  0  0  0  0
   38.5020   82.4630   61.1090 H   0  0  0  0  0  0  0  0  0  0  0  0
   42.7340   82.1280   60.7420 H   0  0  0  0  0  0  0  0  0  0  0  0
   40.4170   81.5360   59.5470 N   0  0  0  0  0  0  0  0  0  0  0  0
   40.3060   80.2220   59.6620 C   0  0  0  0  0  0  0  0  0  0  0  0
   40.1230   79.4680   58.5090 C   0  0  0  0  0  0  0  0  0  0  0  0
   40.0630   80.1120   57.2760 C   0  0  0  0  0  0  0  0  0  0  0  0
   39.9000   79.5120   56.1870 O   0  0  0  0  0  0  0  0  0  0  0  0
   40.1860   81.4710   57.2350 N   0  0  0  0  0  0  0  0  0  0  0  0
   40.3660   82.2050   58.3740 C   0  0  0  0  0  0  0  0  0  0  0  0
   40.4770   83.4400   58.3390 O   0  0  0  0  0  0  0  0  0  0  0  0
   40.3450   79.6690   60.5760 H   0  0  0  0  0  0  0  0  0  0  0  0
   40.0250   78.3870   58.5350 H   0  0  0  0  0  0  0  0  0  0  0  0
   40.1370   81.9410   56.2950 H   0  0  0  0  0  0  0  0  0  0  0  0
   41.0440   84.2480   64.4570 C   0  0  0  0  0  0  0  0  0  0  0  0
   42.3130   84.1600   64.9680 F   0  0  0  0  0  0  0  0  0  0  0  0
   40.7340   85.6040   64.3070 F   0  0  0  0  0  0  0  0  0  0  0  0
   40.1390   83.7330   65.3660 F   0  0  0  0  0  0  0  0  0  0  0  0
  1  6  1  0  0  0  0
  2  3  1  0  0  0  0
  2  1  2  0  0  0  0
  3  4  2  0  0  0  0
  4  5  1  0  0  0  0
  5 20  1  0  0  0  0
  6  5  2  0  0  0  0
  7  1  1  0  0  0  0
  8  3  1  0  0  0  0
  9 10  1  0  0  0  0
  9  2  1  0  0  0  0
 10 17  1  0  0  0  0
 11 18  1  0  0  0  0
 11 10  2  0  0  0  0
 12 11  1  0  0  0  0
 13 12  2  0  0  0  0
 14 12  1  0  0  0  0
 14 15  1  0  0  0  0
 15  9  1  0  0  0  0
 16 15  2  0  0  0  0
 19 14  1  0  0  0  0
 20 21  1  0  0  0  0
 20 23  1  0  0  0  0
 22 20  1  0  0  0  0
M  END
>  <minimizedAffinity>
-5.15167046

>  <minimizedRMSD>
2.26745486

$$$$
