
 OpenBabel03212521023D

 23 24  0  0  0  0  0  0  0  0999 V2000
   41.9830   84.2020   61.7740 C   0  0  0  0  0  0  0  0  0  0  0  0
   42.4250   84.7350   62.9780 C   0  0  0  0  0  0  0  0  0  0  0  0
   41.8230   84.4540   64.1750 C   0  0  0  0  0  0  0  0  0  0  0  0
   40.7110   83.5880   64.1750 C   0  0  0  0  0  0  0  0  0  0  0  0
   40.2720   83.0550   62.9720 C   0  0  0  0  0  0  0  0  0  0  0  0
   40.8950   83.3520   61.7770 C   0  0  0  0  0  0  0  0  0  0  0  0
   43.2840   85.3990   62.9370 H   0  0  0  0  0  0  0  0  0  0  0  0
   42.1630   84.8680   65.1130 H   0  0  0  0  0  0  0  0  0  0  0  0
   40.2690   83.3930   65.1330 H   0  0  0  0  0  0  0  0  0  0  0  0
   39.4160   82.4030   63.0740 H   0  0  0  0  0  0  0  0  0  0  0  0
   44.4440   84.3060   59.0620 C   0  0  0  0  0  0  0  0  0  0  0  0
   43.9180   85.2540   58.1920 C   0  0  0  0  0  0  0  0  0  0  0  0
   42.7100   85.8560   58.5460 C   0  0  0  0  0  0  0  0  0  0  0  0
   42.1200   85.4940   59.7030 N   0  0  0  0  0  0  0  0  0  0  0  0
   42.6550   84.5570   60.5450 C   0  0  0  0  0  0  0  0  0  0  0  0
   43.7960   84.0020   60.1910 N   0  0  0  0  0  0  0  0  0  0  0  0
   45.3810   83.8050   58.8370 H   0  0  0  0  0  0  0  0  0  0  0  0
   44.4110   85.5230   57.2780 H   0  0  0  0  0  0  0  0  0  0  0  0
   42.2320   86.6150   57.9100 H   0  0  0  0  0  0  0  0  0  0  0  0
   40.3240   82.6800   60.5930 C   0  0  0  0  0  0  0  0  0  0  0  0
   39.4770   81.6380   60.9160 F   0  0  0  0  0  0  0  0  0  0  0  0
   41.3220   82.1550   59.7770 F   0  0  0  0  0  0  0  0  0  0  0  0
   39.6280   83.5530   59.7830 F   0  0  0  0  0  0  0  0  0  0  0  0
  1  6  2  0  0  0  0
  1  2  1  0  0  0  0
  2  3  2  0  0  0  0
  3  8  1  0  0  0  0
  4  3  1  0  0  0  0
  4  9  1  0  0  0  0
  5 10  1  0  0  0  0
  5  4  2  0  0  0  0
  6  5  1  0  0  0  0
  7  2  1  0  0  0  0
 11 16  1  0  0  0  0
 12 13  1  0  0  0  0
 12 11  2  0  0  0  0
 13 14  2  0  0  0  0
 14 15  1  0  0  0  0
 15  1  1  0  0  0  0
 16 15  2  0  0  0  0
 17 11  1  0  0  0  0
 18 12  1  0  0  0  0
 19 13  1  0  0  0  0
 20 21  1  0  0  0  0
 20  6  1  0  0  0  0
 22 20  1  0  0  0  0
 23 20  1  0  0  0  0
M  END
>  <minimizedAffinity>
-4.70231104

>  <minimizedRMSD>
1.16041136

$$$$
