
 OpenBabel03212521033D

 23 24  0  0  0  0  0  0  0  0999 V2000
   41.7120   84.1230   61.7790 C   0  0  0  0  0  0  0  0  0  0  0  0
   42.7490   84.3420   62.6760 C   0  0  0  0  0  0  0  0  0  0  0  0
   42.5660   84.3330   64.0330 C   0  0  0  0  0  0  0  0  0  0  0  0
   41.2690   84.0900   64.5290 C   0  0  0  0  0  0  0  0  0  0  0  0
   40.2350   83.8690   63.6300 C   0  0  0  0  0  0  0  0  0  0  0  0
   40.4440   83.8830   62.2670 C   0  0  0  0  0  0  0  0  0  0  0  0
   43.7350   84.5270   62.2560 H   0  0  0  0  0  0  0  0  0  0  0  0
   43.3700   84.5050   64.7340 H   0  0  0  0  0  0  0  0  0  0  0  0
   41.1680   84.0910   65.5970 H   0  0  0  0  0  0  0  0  0  0  0  0
   39.2790   83.6920   64.1060 H   0  0  0  0  0  0  0  0  0  0  0  0
   42.5170   83.0840   58.3590 C   0  0  0  0  0  0  0  0  0  0  0  0
   42.4720   84.2760   57.6450 C   0  0  0  0  0  0  0  0  0  0  0  0
   42.1630   85.4390   58.3510 C   0  0  0  0  0  0  0  0  0  0  0  0
   41.9260   85.3510   59.6750 N   0  0  0  0  0  0  0  0  0  0  0  0
   41.9750   84.1660   60.3580 C   0  0  0  0  0  0  0  0  0  0  0  0
   42.2690   83.0800   59.6730 N   0  0  0  0  0  0  0  0  0  0  0  0
   42.7530   82.1470   57.8610 H   0  0  0  0  0  0  0  0  0  0  0  0
   42.6660   84.3150   56.5920 H   0  0  0  0  0  0  0  0  0  0  0  0
   42.1080   86.4200   57.8570 H   0  0  0  0  0  0  0  0  0  0  0  0
   39.2460   83.6010   61.4500 C   0  0  0  0  0  0  0  0  0  0  0  0
   39.3570   82.4410   60.7080 F   0  0  0  0  0  0  0  0  0  0  0  0
   38.9870   84.6330   60.5540 F   0  0  0  0  0  0  0  0  0  0  0  0
   38.1040   83.5030   62.2170 F   0  0  0  0  0  0  0  0  0  0  0  0
  1  6  2  0  0  0  0
  1  2  1  0  0  0  0
  2  3  2  0  0  0  0
  3  4  1  0  0  0  0
  3  8  1  0  0  0  0
  4  9  1  0  0  0  0
  5 10  1  0  0  0  0
  5  4  2  0  0  0  0
  6  5  1  0  0  0  0
  7  2  1  0  0  0  0
 11 16  1  0  0  0  0
 12 13  1  0  0  0  0
 12 11  2  0  0  0  0
 13 14  2  0  0  0  0
 14 15  1  0  0  0  0
 15  1  1  0  0  0  0
 16 15  2  0  0  0  0
 17 11  1  0  0  0  0
 18 12  1  0  0  0  0
 19 13  1  0  0  0  0
 20 23  1  0  0  0  0
 20  6  1  0  0  0  0
 21 20  1  0  0  0  0
 22 20  1  0  0  0  0
M  END
>  <minimizedAffinity>
-5.16727543

>  <minimizedRMSD>
1.16320968

$$$$
