
 OpenBabel03212520293D

 23 24  0  0  0  0  0  0  0  0999 V2000
   39.4740   82.6500   61.5040 C   0  0  0  0  0  0  0  0  0  0  0  0
   40.5930   82.2190   60.7710 C   0  0  0  0  0  0  0  0  0  0  0  0
   41.8650   82.4900   61.2940 C   0  0  0  0  0  0  0  0  0  0  0  0
   41.9400   83.1550   62.4820 N   0  0  0  0  0  0  0  0  0  0  0  0
   40.8520   83.5500   63.1490 C   0  0  0  0  0  0  0  0  0  0  0  0
   39.6180   83.2980   62.6620 N   0  0  0  0  0  0  0  0  0  0  0  0
   38.4880   82.4360   61.0900 H   0  0  0  0  0  0  0  0  0  0  0  0
   42.7250   82.1570   60.7280 H   0  0  0  0  0  0  0  0  0  0  0  0
   40.4180   81.5280   59.5340 N   0  0  0  0  0  0  0  0  0  0  0  0
   40.3090   80.2140   59.6550 C   0  0  0  0  0  0  0  0  0  0  0  0
   40.1350   79.4540   58.5050 C   0  0  0  0  0  0  0  0  0  0  0  0
   40.0820   80.0920   57.2680 C   0  0  0  0  0  0  0  0  0  0  0  0
   39.9280   79.4840   56.1810 O   0  0  0  0  0  0  0  0  0  0  0  0
   40.2020   81.4500   57.2200 N   0  0  0  0  0  0  0  0  0  0  0  0
   40.3720   82.1910   58.3560 C   0  0  0  0  0  0  0  0  0  0  0  0
   40.4810   83.4260   58.3160 O   0  0  0  0  0  0  0  0  0  0  0  0
   40.3420   79.6670   60.5720 H   0  0  0  0  0  0  0  0  0  0  0  0
   40.0400   78.3730   58.5360 H   0  0  0  0  0  0  0  0  0  0  0  0
   40.1590   81.9150   56.2770 H   0  0  0  0  0  0  0  0  0  0  0  0
   41.0040   84.2680   64.4330 C   0  0  0  0  0  0  0  0  0  0  0  0
   40.7280   85.6060   64.3410 F   0  0  0  0  0  0  0  0  0  0  0  0
   40.1550   83.7190   65.4010 F   0  0  0  0  0  0  0  0  0  0  0  0
   42.2940   84.0890   64.8930 F   0  0  0  0  0  0  0  0  0  0  0  0
  1  6  1  0  0  0  0
  2  3  1  0  0  0  0
  2  1  2  0  0  0  0
  3  4  2  0  0  0  0
  4  5  1  0  0  0  0
  5 20  1  0  0  0  0
  6  5  2  0  0  0  0
  7  1  1  0  0  0  0
  8  3  1  0  0  0  0
  9 10  1  0  0  0  0
  9  2  1  0  0  0  0
 10 17  1  0  0  0  0
 11 18  1  0  0  0  0
 11 10  2  0  0  0  0
 12 11  1  0  0  0  0
 13 12  2  0  0  0  0
 14 12  1  0  0  0  0
 14 15  1  0  0  0  0
 15  9  1  0  0  0  0
 16 15  2  0  0  0  0
 19 14  1  0  0  0  0
 20 23  1  0  0  0  0
 20 22  1  0  0  0  0
 21 20  1  0  0  0  0
M  END
>  <minimizedAffinity>
-5.11184072

>  <minimizedRMSD>
2.27850628

$$$$
