
 OpenBabel03212521033D

 23 24  0  0  0  0  0  0  0  0999 V2000
   42.3600   84.4610   62.3120 C   0  0  0  0  0  0  0  0  0  0  0  0
   42.2980   84.3630   63.6960 C   0  0  0  0  0  0  0  0  0  0  0  0
   41.1570   84.0010   64.3610 C   0  0  0  0  0  0  0  0  0  0  0  0
   40.0050   83.7180   63.6000 C   0  0  0  0  0  0  0  0  0  0  0  0
   40.0690   83.8140   62.2180 C   0  0  0  0  0  0  0  0  0  0  0  0
   41.2310   84.1810   61.5700 C   0  0  0  0  0  0  0  0  0  0  0  0
   43.2070   84.5900   64.2480 H   0  0  0  0  0  0  0  0  0  0  0  0
   41.1050   83.9250   65.4370 H   0  0  0  0  0  0  0  0  0  0  0  0
   39.1330   83.4380   64.1580 H   0  0  0  0  0  0  0  0  0  0  0  0
   39.1360   83.5780   61.7240 H   0  0  0  0  0  0  0  0  0  0  0  0
   45.6580   84.3340   60.7220 C   0  0  0  0  0  0  0  0  0  0  0  0
   45.9420   85.6710   60.4700 C   0  0  0  0  0  0  0  0  0  0  0  0
   44.9880   86.6160   60.8520 C   0  0  0  0  0  0  0  0  0  0  0  0
   43.8530   86.1900   61.4410 N   0  0  0  0  0  0  0  0  0  0  0  0
   43.5940   84.8680   61.6780 C   0  0  0  0  0  0  0  0  0  0  0  0
   44.5070   83.9930   61.3100 N   0  0  0  0  0  0  0  0  0  0  0  0
   46.3640   83.5550   60.4450 H   0  0  0  0  0  0  0  0  0  0  0  0
   46.8550   85.9800   60.0000 H   0  0  0  0  0  0  0  0  0  0  0  0
   45.1400   87.6920   60.6860 H   0  0  0  0  0  0  0  0  0  0  0  0
   41.1410   84.2070   60.0960 C   0  0  0  0  0  0  0  0  0  0  0  0
   42.0300   83.3440   59.4840 F   0  0  0  0  0  0  0  0  0  0  0  0
   41.3970   85.4790   59.5940 F   0  0  0  0  0  0  0  0  0  0  0  0
   39.8740   83.8970   59.6460 F   0  0  0  0  0  0  0  0  0  0  0  0
  1  2  1  0  0  0  0
  2  7  1  0  0  0  0
  2  3  2  0  0  0  0
  3  8  1  0  0  0  0
  4  9  1  0  0  0  0
  4  3  1  0  0  0  0
  5  4  2  0  0  0  0
  6  5  1  0  0  0  0
  6  1  2  0  0  0  0
 10  5  1  0  0  0  0
 11 16  1  0  0  0  0
 12 11  2  0  0  0  0
 12 13  1  0  0  0  0
 13 14  2  0  0  0  0
 14 15  1  0  0  0  0
 15  1  1  0  0  0  0
 16 15  2  0  0  0  0
 17 11  1  0  0  0  0
 18 12  1  0  0  0  0
 19 13  1  0  0  0  0
 20  6  1  0  0  0  0
 21 20  1  0  0  0  0
 22 20  1  0  0  0  0
 23 20  1  0  0  0  0
M  END
>  <minimizedAffinity>
-4.637362

>  <minimizedRMSD>
2.14083362

$$$$
