
 OpenBabel03212520293D

 23 24  0  0  0  0  0  0  0  0999 V2000
   39.4800   82.6830   61.5010 C   0  0  0  0  0  0  0  0  0  0  0  0
   40.6050   82.2820   60.7600 C   0  0  0  0  0  0  0  0  0  0  0  0
   41.8730   82.5660   61.2860 C   0  0  0  0  0  0  0  0  0  0  0  0
   41.9390   83.2140   62.4840 N   0  0  0  0  0  0  0  0  0  0  0  0
   40.8450   83.5800   63.1580 C   0  0  0  0  0  0  0  0  0  0  0  0
   39.6150   83.3160   62.6690 N   0  0  0  0  0  0  0  0  0  0  0  0
   38.4970   82.4590   61.0860 H   0  0  0  0  0  0  0  0  0  0  0  0
   42.7380   82.2560   60.7140 H   0  0  0  0  0  0  0  0  0  0  0  0
   40.4390   81.6080   59.5130 N   0  0  0  0  0  0  0  0  0  0  0  0
   40.3000   80.2950   59.6180 C   0  0  0  0  0  0  0  0  0  0  0  0
   40.1330   79.5510   58.4570 C   0  0  0  0  0  0  0  0  0  0  0  0
   40.1180   80.2020   57.2260 C   0  0  0  0  0  0  0  0  0  0  0  0
   39.9720   79.6090   56.1300 O   0  0  0  0  0  0  0  0  0  0  0  0
   40.2670   81.5580   57.1950 N   0  0  0  0  0  0  0  0  0  0  0  0
   40.4310   82.2830   58.3410 C   0  0  0  0  0  0  0  0  0  0  0  0
   40.5660   83.5160   58.3160 O   0  0  0  0  0  0  0  0  0  0  0  0
   40.3050   79.7380   60.5300 H   0  0  0  0  0  0  0  0  0  0  0  0
   40.0150   78.4720   58.4750 H   0  0  0  0  0  0  0  0  0  0  0  0
   40.2520   82.0330   56.2560 H   0  0  0  0  0  0  0  0  0  0  0  0
   40.9870   84.2800   64.4540 C   0  0  0  0  0  0  0  0  0  0  0  0
   40.6770   85.6130   64.3850 F   0  0  0  0  0  0  0  0  0  0  0  0
   40.1590   83.6940   65.4170 F   0  0  0  0  0  0  0  0  0  0  0  0
   42.2850   84.1260   64.9020 F   0  0  0  0  0  0  0  0  0  0  0  0
  1  6  1  0  0  0  0
  2  3  1  0  0  0  0
  2  1  2  0  0  0  0
  3  4  2  0  0  0  0
  4  5  1  0  0  0  0
  5 20  1  0  0  0  0
  6  5  2  0  0  0  0
  7  1  1  0  0  0  0
  8  3  1  0  0  0  0
  9 10  1  0  0  0  0
  9  2  1  0  0  0  0
 10 17  1  0  0  0  0
 11 18  1  0  0  0  0
 11 10  2  0  0  0  0
 12 11  1  0  0  0  0
 13 12  2  0  0  0  0
 14 12  1  0  0  0  0
 14 15  1  0  0  0  0
 15  9  1  0  0  0  0
 16 15  2  0  0  0  0
 19 14  1  0  0  0  0
 20 23  1  0  0  0  0
 20 22  1  0  0  0  0
 21 20  1  0  0  0  0
M  END
>  <minimizedAffinity>
-5.11168575

>  <minimizedRMSD>
2.2483356

$$$$
