
 OpenBabel03212520013D

 26 28  0  0  0  0  0  0  0  0999 V2000
   39.5070   83.0780   61.0880 C   0  0  0  0  0  0  0  0  0  0  0  0
   40.7890   83.0790   60.5120 C   0  0  0  0  0  0  0  0  0  0  0  0
   41.8940   83.4550   61.2490 C   0  0  0  0  0  0  0  0  0  0  0  0
   41.7670   83.8430   62.5770 C   0  0  0  0  0  0  0  0  0  0  0  0
   42.6090   84.2550   63.5520 N   0  0  0  0  0  0  0  0  0  0  0  0
   41.9080   84.5020   64.6750 C   0  0  0  0  0  0  0  0  0  0  0  0
   40.6060   84.2280   64.3650 N   0  0  0  0  0  0  0  0  0  0  0  0
   40.5040   83.8270   63.0950 C   0  0  0  0  0  0  0  0  0  0  0  0
   39.3570   83.4610   62.4150 C   0  0  0  0  0  0  0  0  0  0  0  0
   38.6750   82.7780   60.4830 H   0  0  0  0  0  0  0  0  0  0  0  0
   42.8910   83.4600   60.8140 H   0  0  0  0  0  0  0  0  0  0  0  0
   43.6260   84.3220   63.3110 H   0  0  0  0  0  0  0  0  0  0  0  0
   42.3810   84.8440   65.5840 H   0  0  0  0  0  0  0  0  0  0  0  0
   38.3770   83.4700   62.8880 H   0  0  0  0  0  0  0  0  0  0  0  0
   40.4860   81.1150   57.4340 C   0  0  0  0  0  0  0  0  0  0  0  0
   41.1300   81.9310   56.4750 C   0  0  0  0  0  0  0  0  0  0  0  0
   41.6550   83.1410   56.9140 C   0  0  0  0  0  0  0  0  0  0  0  0
   41.5310   83.4880   58.2250 N   0  0  0  0  0  0  0  0  0  0  0  0
   40.9000   82.6710   59.1220 C   0  0  0  0  0  0  0  0  0  0  0  0
   40.3920   81.5060   58.7120 N   0  0  0  0  0  0  0  0  0  0  0  0
   40.0480   80.1600   57.1910 H   0  0  0  0  0  0  0  0  0  0  0  0
   41.1860   81.5780   55.4450 H   0  0  0  0  0  0  0  0  0  0  0  0
   42.3370   84.0180   55.9300 C   0  0  0  0  0  0  0  0  0  0  0  0
   43.6700   84.1740   56.1660 F   0  0  0  0  0  0  0  0  0  0  0  0
   42.1750   83.4900   54.6580 F   0  0  0  0  0  0  0  0  0  0  0  0
   41.6870   85.2510   55.9880 F   0  0  0  0  0  0  0  0  0  0  0  0
  1  9  1  0  0  0  0
  2  1  2  0  0  0  0
  2  3  1  0  0  0  0
  3  4  2  0  0  0  0
  4  8  1  0  0  0  0
  4  5  1  0  0  0  0
  5  6  1  0  0  0  0
  6 13  1  0  0  0  0
  7  6  2  0  0  0  0
  8  7  1  0  0  0  0
  9 14  1  0  0  0  0
  9  8  2  0  0  0  0
 10  1  1  0  0  0  0
 11  3  1  0  0  0  0
 12  5  1  0  0  0  0
 15 20  1  0  0  0  0
 16 17  1  0  0  0  0
 16 15  2  0  0  0  0
 17 18  2  0  0  0  0
 18 19  1  0  0  0  0
 19  2  1  0  0  0  0
 20 19  2  0  0  0  0
 21 15  1  0  0  0  0
 22 16  1  0  0  0  0
 23 26  1  0  0  0  0
 23 24  1  0  0  0  0
 23 17  1  0  0  0  0
 25 23  1  0  0  0  0
M  END
>  <minimizedAffinity>
-4.90193176

>  <minimizedRMSD>
0.294513792

$$$$
