
 OpenBabel03212520513D

 30 32  0  0  1  0  0  0  0  0999 V2000
   42.4510   84.4030   61.7860 C   0  0  0  0  0  0  0  0  0  0  0  0
   42.2960   84.6180   63.1400 C   0  0  0  0  0  0  0  0  0  0  0  0
   41.3070   83.9590   63.8620 C   0  0  0  0  0  0  0  0  0  0  0  0
   40.4820   83.0950   63.2410 N   0  0  0  0  0  0  0  0  0  0  0  0
   40.6540   82.8990   61.9130 C   0  0  0  0  0  0  0  0  0  0  0  0
   41.6050   83.5240   61.1820 N   0  0  0  0  0  0  0  0  0  0  0  0
   42.9590   85.3160   63.6520 H   0  0  0  0  0  0  0  0  0  0  0  0
   41.2560   84.1840   64.9090 H   0  0  0  0  0  0  0  0  0  0  0  0
   45.6830   85.4070   60.4190 C   0  0  0  0  0  0  0  0  0  0  0  0
   45.3370   86.4120   59.5280 C   0  0  0  0  0  0  0  0  0  0  0  0
   44.0030   86.7540   59.3860 C   0  0  0  0  0  0  0  0  0  0  0  0
   43.1160   86.0610   60.1490 N   0  0  0  0  0  0  0  0  0  0  0  0
   43.4750   85.0900   61.0060 C   0  0  0  0  0  0  0  0  0  0  0  0
   44.7470   84.7550   61.1490 N   0  0  0  0  0  0  0  0  0  0  0  0
   47.0930   85.1640   60.4700 N   0  0  0  0  0  0  0  0  0  0  0  0
   46.0390   86.9670   58.9190 H   0  0  0  0  0  0  0  0  0  0  0  0
   43.6750   87.5310   58.7060 H   0  0  0  0  0  0  0  0  0  0  0  0
   47.3170   85.6140   61.3870 H   0  0  0  0  0  0  0  0  0  0  0  0
   47.7780   84.7010   59.8560 H   0  0  0  0  0  0  0  0  0  0  0  0
   39.7030   81.9380   61.2650 C   0  0  1  0  0  0  0  0  0  0  0  0
   39.9890   81.3390   59.9820 C   0  0  0  0  0  0  0  0  0  0  0  0
   40.3050   80.5160   61.1870 C   0  0  1  0  0  0  0  0  0  0  0  0
   38.6540   81.9050   61.6750 H   0  0  0  0  0  0  0  0  0  0  0  0
   39.1930   81.0650   59.2710 H   0  0  0  0  0  0  0  0  0  0  0  0
   40.8650   81.7890   59.4280 H   0  0  0  0  0  0  0  0  0  0  0  0
   39.6290   79.6540   61.3280 H   0  0  0  0  0  0  0  0  0  0  0  0
   41.7420   80.3000   61.4880 C   0  0  0  0  0  0  0  0  0  0  0  0
   41.9570   78.9220   61.5800 F   0  0  0  0  0  0  0  0  0  0  0  0
   42.5380   80.7440   60.4550 F   0  0  0  0  0  0  0  0  0  0  0  0
   42.1560   80.8150   62.6920 F   0  0  0  0  0  0  0  0  0  0  0  0
  1  2  1  0  0  0  0
  2  7  1  0  0  0  0
  2  3  2  0  0  0  0
  3  8  1  0  0  0  0
  4  3  1  0  0  0  0
  5  4  2  0  0  0  0
  6  1  2  0  0  0  0
  6  5  1  0  0  0  0
  9 15  1  0  0  0  0
  9 14  1  0  0  0  0
 10  9  2  0  0  0  0
 11 10  1  0  0  0  0
 11 12  2  0  0  0  0
 12 13  1  0  0  0  0
 13 14  2  0  0  0  0
 13  1  1  0  0  0  0
 15 18  1  0  0  0  0
 16 10  1  0  0  0  0
 17 11  1  0  0  0  0
 19 15  1  0  0  0  0
 20 23  1  1  0  0  0
 20  5  1  0  0  0  0
 21 22  1  0  0  0  0
 21 20  1  0  0  0  0
 22 20  1  0  0  0  0
 22 26  1  1  0  0  0
 22 27  1  0  0  0  0
 24 21  1  0  0  0  0
 25 21  1  0  0  0  0
 27 28  1  0  0  0  0
 27 30  1  0  0  0  0
 29 27  1  0  0  0  0
M  END
>  <minimizedAffinity>
-5.09859991

>  <minimizedRMSD>
2.52353644

$$$$
