
 OpenBabel03212521063D

 31 33  0  0  0  0  0  0  0  0999 V2000
   41.7960   84.1480   61.5530 C   0  0  0  0  0  0  0  0  0  0  0  0
   41.4460   83.8780   62.8670 C   0  0  0  0  0  0  0  0  0  0  0  0
   40.1540   83.5380   63.2210 C   0  0  0  0  0  0  0  0  0  0  0  0
   39.1830   83.4680   62.2300 C   0  0  0  0  0  0  0  0  0  0  0  0
   39.5250   83.7390   60.9030 C   0  0  0  0  0  0  0  0  0  0  0  0
   40.8200   84.0760   60.5690 C   0  0  0  0  0  0  0  0  0  0  0  0
   42.2190   83.9390   63.6240 H   0  0  0  0  0  0  0  0  0  0  0  0
   39.9340   83.3370   64.2560 H   0  0  0  0  0  0  0  0  0  0  0  0
   38.1690   83.2030   62.4900 H   0  0  0  0  0  0  0  0  0  0  0  0
   38.7370   83.6720   60.1590 H   0  0  0  0  0  0  0  0  0  0  0  0
   45.2760   83.8860   60.4720 C   0  0  0  0  0  0  0  0  0  0  0  0
   45.7670   85.1730   60.6610 C   0  0  0  0  0  0  0  0  0  0  0  0
   44.8880   86.1470   61.1680 C   0  0  0  0  0  0  0  0  0  0  0  0
   43.6160   85.7770   61.4430 N   0  0  0  0  0  0  0  0  0  0  0  0
   43.1700   84.4990   61.2440 C   0  0  0  0  0  0  0  0  0  0  0  0
   44.0020   83.5920   60.7670 N   0  0  0  0  0  0  0  0  0  0  0  0
   45.8950   83.0840   60.0840 H   0  0  0  0  0  0  0  0  0  0  0  0
   46.7750   85.4120   60.4280 H   0  0  0  0  0  0  0  0  0  0  0  0
   45.2180   87.1740   61.3360 H   0  0  0  0  0  0  0  0  0  0  0  0
   41.1440   84.3500   59.1900 C   0  0  0  0  0  0  0  0  0  0  0  0
   41.0210   85.7140   58.8870 C   0  0  0  0  0  0  0  0  0  0  0  0
   41.2850   86.1960   57.6120 C   0  0  0  0  0  0  0  0  0  0  0  0
   41.6650   85.2920   56.6830 N   0  0  0  0  0  0  0  0  0  0  0  0
   41.7810   83.9780   56.9830 C   0  0  0  0  0  0  0  0  0  0  0  0
   41.5250   83.5190   58.2120 N   0  0  0  0  0  0  0  0  0  0  0  0
   40.7210   86.4890   59.5850 H   0  0  0  0  0  0  0  0  0  0  0  0
   41.1980   87.2400   57.3510 H   0  0  0  0  0  0  0  0  0  0  0  0
   42.2030   83.0210   55.9240 C   0  0  0  0  0  0  0  0  0  0  0  0
   42.3390   83.6100   54.6880 F   0  0  0  0  0  0  0  0  0  0  0  0
   43.3140   82.3090   56.3200 F   0  0  0  0  0  0  0  0  0  0  0  0
   41.1900   82.0660   55.7700 F   0  0  0  0  0  0  0  0  0  0  0  0
  1  2  1  0  0  0  0
  2  3  2  0  0  0  0
  2  7  1  0  0  0  0
  3  8  1  0  0  0  0
  4  9  1  0  0  0  0
  4  3  1  0  0  0  0
  5  4  2  0  0  0  0
  6  5  1  0  0  0  0
  6  1  2  0  0  0  0
 10  5  1  0  0  0  0
 11 12  2  0  0  0  0
 11 16  1  0  0  0  0
 12 13  1  0  0  0  0
 13 19  1  0  0  0  0
 13 14  2  0  0  0  0
 15 14  1  0  0  0  0
 15  1  1  0  0  0  0
 16 15  2  0  0  0  0
 17 11  1  0  0  0  0
 18 12  1  0  0  0  0
 20  6  1  0  0  0  0
 21 20  1  0  0  0  0
 21 26  1  0  0  0  0
 22 21  2  0  0  0  0
 23 24  2  0  0  0  0
 23 22  1  0  0  0  0
 24 25  1  0  0  0  0
 25 20  2  0  0  0  0
 27 22  1  0  0  0  0
 28 30  1  0  0  0  0
 28 24  1  0  0  0  0
 29 28  1  0  0  0  0
 31 28  1  0  0  0  0
M  END
>  <minimizedAffinity>
-5.41900921

>  <minimizedRMSD>
0.584022343

$$$$
