
 OpenBabel03212521033D

 23 24  0  0  0  0  0  0  0  0999 V2000
   41.7110   84.1370   61.7760 C   0  0  0  0  0  0  0  0  0  0  0  0
   42.7560   84.3160   62.6730 C   0  0  0  0  0  0  0  0  0  0  0  0
   42.5740   84.3030   64.0300 C   0  0  0  0  0  0  0  0  0  0  0  0
   41.2700   84.1010   64.5260 C   0  0  0  0  0  0  0  0  0  0  0  0
   40.2280   83.9220   63.6280 C   0  0  0  0  0  0  0  0  0  0  0  0
   40.4360   83.9380   62.2640 C   0  0  0  0  0  0  0  0  0  0  0  0
   43.7470   84.4690   62.2530 H   0  0  0  0  0  0  0  0  0  0  0  0
   43.3850   84.4420   64.7310 H   0  0  0  0  0  0  0  0  0  0  0  0
   41.1710   84.0980   65.5940 H   0  0  0  0  0  0  0  0  0  0  0  0
   39.2680   83.7750   64.1040 H   0  0  0  0  0  0  0  0  0  0  0  0
   42.5000   83.0980   58.3520 C   0  0  0  0  0  0  0  0  0  0  0  0
   42.4700   84.2920   57.6420 C   0  0  0  0  0  0  0  0  0  0  0  0
   42.1770   85.4580   58.3520 C   0  0  0  0  0  0  0  0  0  0  0  0
   41.9400   85.3690   59.6760 N   0  0  0  0  0  0  0  0  0  0  0  0
   41.9730   84.1810   60.3550 C   0  0  0  0  0  0  0  0  0  0  0  0
   42.2530   83.0940   59.6670 N   0  0  0  0  0  0  0  0  0  0  0  0
   42.7230   82.1600   57.8520 H   0  0  0  0  0  0  0  0  0  0  0  0
   42.6640   84.3320   56.5890 H   0  0  0  0  0  0  0  0  0  0  0  0
   42.1350   86.4400   57.8610 H   0  0  0  0  0  0  0  0  0  0  0  0
   39.2280   83.7030   61.4470 C   0  0  0  0  0  0  0  0  0  0  0  0
   38.0800   83.5670   62.2040 F   0  0  0  0  0  0  0  0  0  0  0  0
   39.3500   82.5460   60.6830 F   0  0  0  0  0  0  0  0  0  0  0  0
   39.0140   84.7120   60.5320 F   0  0  0  0  0  0  0  0  0  0  0  0
  1  6  2  0  0  0  0
  1  2  1  0  0  0  0
  2  3  2  0  0  0  0
  3  4  1  0  0  0  0
  3  8  1  0  0  0  0
  4  9  1  0  0  0  0
  5 10  1  0  0  0  0
  5  4  2  0  0  0  0
  6  5  1  0  0  0  0
  7  2  1  0  0  0  0
 11 16  1  0  0  0  0
 12 13  1  0  0  0  0
 12 11  2  0  0  0  0
 13 14  2  0  0  0  0
 14 15  1  0  0  0  0
 15  1  1  0  0  0  0
 16 15  2  0  0  0  0
 17 11  1  0  0  0  0
 18 12  1  0  0  0  0
 19 13  1  0  0  0  0
 20 21  1  0  0  0  0
 20  6  1  0  0  0  0
 22 20  1  0  0  0  0
 23 20  1  0  0  0  0
M  END
>  <minimizedAffinity>
-5.18867207

>  <minimizedRMSD>
1.1401751

$$$$
