
 OpenBabel03212520133D

 26 27  0  0  0  0  0  0  0  0999 V2000
   43.1750   82.4340   60.0490 Cl  0  0  0  0  0  0  0  0  0  0  0  0
   41.7070   82.7890   60.9610 C   0  0  0  0  0  0  0  0  0  0  0  0
   40.4570   82.3440   60.5620 C   0  0  0  0  0  0  0  0  0  0  0  0
   39.4030   82.7110   61.3930 C   0  0  0  0  0  0  0  0  0  0  0  0
   39.5110   83.4610   62.5440 C   0  0  0  0  0  0  0  0  0  0  0  0
   40.7580   83.8760   62.8930 C   0  0  0  0  0  0  0  0  0  0  0  0
   41.0130   84.8420   64.3470 Cl  0  0  0  0  0  0  0  0  0  0  0  0
   41.8340   83.5400   62.1080 C   0  0  0  0  0  0  0  0  0  0  0  0
   38.4250   82.3490   61.0600 H   0  0  0  0  0  0  0  0  0  0  0  0
   38.6270   83.6980   63.1260 H   0  0  0  0  0  0  0  0  0  0  0  0
   40.2730   82.0350   58.0550 C   0  0  0  0  0  0  0  0  0  0  0  0
   40.3370   81.5700   59.3780 C   0  0  0  0  0  0  0  0  0  0  0  0
   40.2740   80.1860   59.5720 C   0  0  0  0  0  0  0  0  0  0  0  0
   40.1580   79.3860   58.4800 N   0  0  0  0  0  0  0  0  0  0  0  0
   40.1010   79.8730   57.2280 C   0  0  0  0  0  0  0  0  0  0  0  0
   40.1580   81.1920   57.0190 N   0  0  0  0  0  0  0  0  0  0  0  0
   40.3240   83.1100   57.9470 H   0  0  0  0  0  0  0  0  0  0  0  0
   40.3130   79.7210   60.5390 H   0  0  0  0  0  0  0  0  0  0  0  0
   39.9740   78.8550   56.1400 C   0  0  0  0  0  0  0  0  0  0  0  0
   40.4050   77.6060   56.5550 F   0  0  0  0  0  0  0  0  0  0  0  0
   38.6500   78.7360   55.7680 F   0  0  0  0  0  0  0  0  0  0  0  0
   40.7580   79.1850   55.0480 F   0  0  0  0  0  0  0  0  0  0  0  0
   43.1890   84.0180   62.5330 C   0  0  0  0  0  0  0  0  0  0  0  0
   43.2430   85.3810   62.6080 F   0  0  0  0  0  0  0  0  0  0  0  0
   44.1080   83.6170   61.5960 F   0  0  0  0  0  0  0  0  0  0  0  0
   43.5330   83.4530   63.7390 F   0  0  0  0  0  0  0  0  0  0  0  0
  1  2  1  0  0  0  0
  2  8  1  0  0  0  0
  3  2  2  0  0  0  0
  3  4  1  0  0  0  0
  4  5  2  0  0  0  0
  5  6  1  0  0  0  0
  5 10  1  0  0  0  0
  6  7  1  0  0  0  0
  8 23  1  0  0  0  0
  8  6  2  0  0  0  0
  9  4  1  0  0  0  0
 11 12  1  0  0  0  0
 12 13  2  0  0  0  0
 12  3  1  0  0  0  0
 13 18  1  0  0  0  0
 14 13  1  0  0  0  0
 15 14  2  0  0  0  0
 16 15  1  0  0  0  0
 16 11  2  0  0  0  0
 17 11  1  0  0  0  0
 19 20  1  0  0  0  0
 19 15  1  0  0  0  0
 21 19  1  0  0  0  0
 22 19  1  0  0  0  0
 23 24  1  0  0  0  0
 23 26  1  0  0  0  0
 25 23  1  0  0  0  0
M  END
>  <minimizedAffinity>
-4.99115562

>  <minimizedRMSD>
7.08844757

$$$$
