
 OpenBabel03212520513D

 30 32  0  0  1  0  0  0  0  0999 V2000
   41.8260   83.9090   61.2580 C   0  0  0  0  0  0  0  0  0  0  0  0
   40.9130   84.1990   62.2510 C   0  0  0  0  0  0  0  0  0  0  0  0
   40.4690   83.2130   63.1270 C   0  0  0  0  0  0  0  0  0  0  0  0
   40.9300   81.9530   63.0120 N   0  0  0  0  0  0  0  0  0  0  0  0
   41.8260   81.6930   62.0310 C   0  0  0  0  0  0  0  0  0  0  0  0
   42.2780   82.6280   61.1640 N   0  0  0  0  0  0  0  0  0  0  0  0
   40.5340   85.2150   62.3520 H   0  0  0  0  0  0  0  0  0  0  0  0
   39.7600   83.5230   63.8690 H   0  0  0  0  0  0  0  0  0  0  0  0
   43.7110   86.6690   59.7910 C   0  0  0  0  0  0  0  0  0  0  0  0
   43.1310   86.8000   58.5380 C   0  0  0  0  0  0  0  0  0  0  0  0
   42.0970   85.9510   58.1840 C   0  0  0  0  0  0  0  0  0  0  0  0
   41.7220   85.0330   59.1140 N   0  0  0  0  0  0  0  0  0  0  0  0
   42.2990   84.9240   60.3240 C   0  0  0  0  0  0  0  0  0  0  0  0
   43.2890   85.7310   60.6720 N   0  0  0  0  0  0  0  0  0  0  0  0
   44.7600   87.6140   60.0260 N   0  0  0  0  0  0  0  0  0  0  0  0
   43.4260   87.5290   57.7940 H   0  0  0  0  0  0  0  0  0  0  0  0
   41.6070   86.0080   57.2200 H   0  0  0  0  0  0  0  0  0  0  0  0
   44.2670   88.2680   60.6750 H   0  0  0  0  0  0  0  0  0  0  0  0
   45.7350   87.7180   59.7090 H   0  0  0  0  0  0  0  0  0  0  0  0
   42.2990   80.2730   61.9370 C   0  0  1  0  0  0  0  0  0  0  0  0
   41.4110   79.1620   62.1850 C   0  0  0  0  0  0  0  0  0  0  0  0
   41.6310   79.5340   60.7560 C   0  0  1  0  0  0  0  0  0  0  0  0
   43.4140   80.1090   61.9310 H   0  0  0  0  0  0  0  0  0  0  0  0
   41.7680   78.2090   62.6090 H   0  0  0  0  0  0  0  0  0  0  0  0
   40.4130   79.4370   62.6370 H   0  0  0  0  0  0  0  0  0  0  0  0
   42.2320   78.7990   60.1910 H   0  0  0  0  0  0  0  0  0  0  0  0
   40.4830   80.1510   60.0460 C   0  0  0  0  0  0  0  0  0  0  0  0
   40.9920   81.1170   59.1710 F   0  0  0  0  0  0  0  0  0  0  0  0
   39.8290   79.2280   59.2600 F   0  0  0  0  0  0  0  0  0  0  0  0
   39.6050   80.8250   60.8600 F   0  0  0  0  0  0  0  0  0  0  0  0
  1  2  1  0  0  0  0
  2  7  1  0  0  0  0
  2  3  2  0  0  0  0
  3  8  1  0  0  0  0
  4  3  1  0  0  0  0
  5  4  2  0  0  0  0
  6  1  2  0  0  0  0
  6  5  1  0  0  0  0
  9 15  1  0  0  0  0
  9 14  1  0  0  0  0
 10  9  2  0  0  0  0
 11 10  1  0  0  0  0
 11 12  2  0  0  0  0
 12 13  1  0  0  0  0
 13 14  2  0  0  0  0
 13  1  1  0  0  0  0
 15 18  1  0  0  0  0
 16 10  1  0  0  0  0
 17 11  1  0  0  0  0
 19 15  1  0  0  0  0
 20 23  1  1  0  0  0
 20  5  1  0  0  0  0
 20 21  1  0  0  0  0
 21 24  1  0  0  0  0
 21 25  1  0  0  0  0
 22 26  1  6  0  0  0
 22 20  1  0  0  0  0
 22 21  1  0  0  0  0
 27 22  1  0  0  0  0
 27 30  1  0  0  0  0
 28 27  1  0  0  0  0
 29 27  1  0  0  0  0
M  END
>  <minimizedAffinity>
-4.95337105

>  <minimizedRMSD>
1.02237439

$$$$
