
 OpenBabel03212521063D

 31 33  0  0  0  0  0  0  0  0999 V2000
   41.8100   84.2220   61.5610 C   0  0  0  0  0  0  0  0  0  0  0  0
   41.4730   83.9430   62.8750 C   0  0  0  0  0  0  0  0  0  0  0  0
   40.2030   83.5290   63.2300 C   0  0  0  0  0  0  0  0  0  0  0  0
   39.2410   83.3910   62.2370 C   0  0  0  0  0  0  0  0  0  0  0  0
   39.5700   83.6700   60.9080 C   0  0  0  0  0  0  0  0  0  0  0  0
   40.8430   84.0820   60.5750 C   0  0  0  0  0  0  0  0  0  0  0  0
   42.2390   84.0580   63.6340 H   0  0  0  0  0  0  0  0  0  0  0  0
   39.9920   83.3240   64.2660 H   0  0  0  0  0  0  0  0  0  0  0  0
   38.2440   83.0680   62.4970 H   0  0  0  0  0  0  0  0  0  0  0  0
   38.7900   83.5490   60.1630 H   0  0  0  0  0  0  0  0  0  0  0  0
   45.3140   84.1550   60.5300 C   0  0  0  0  0  0  0  0  0  0  0  0
   45.7140   85.4790   60.6680 C   0  0  0  0  0  0  0  0  0  0  0  0
   44.7630   86.4110   61.1210 C   0  0  0  0  0  0  0  0  0  0  0  0
   43.5150   85.9670   61.3990 N   0  0  0  0  0  0  0  0  0  0  0  0
   43.1610   84.6540   61.2510 C   0  0  0  0  0  0  0  0  0  0  0  0
   44.0600   83.7870   60.8240 N   0  0  0  0  0  0  0  0  0  0  0  0
   45.9920   83.3810   60.1850 H   0  0  0  0  0  0  0  0  0  0  0  0
   46.7060   85.7770   60.4360 H   0  0  0  0  0  0  0  0  0  0  0  0
   45.0200   87.4650   61.2480 H   0  0  0  0  0  0  0  0  0  0  0  0
   41.1530   84.3630   59.1940 C   0  0  0  0  0  0  0  0  0  0  0  0
   40.8760   85.6970   58.8580 C   0  0  0  0  0  0  0  0  0  0  0  0
   41.1010   86.1790   57.5760 C   0  0  0  0  0  0  0  0  0  0  0  0
   41.5990   85.3070   56.6730 N   0  0  0  0  0  0  0  0  0  0  0  0
   41.8630   84.0230   57.0050 C   0  0  0  0  0  0  0  0  0  0  0  0
   41.6450   83.5630   58.2400 N   0  0  0  0  0  0  0  0  0  0  0  0
   40.4760   86.4460   59.5340 H   0  0  0  0  0  0  0  0  0  0  0  0
   40.8960   87.2000   57.2900 H   0  0  0  0  0  0  0  0  0  0  0  0
   42.4110   83.1000   55.9730 C   0  0  0  0  0  0  0  0  0  0  0  0
   41.9020   81.8240   56.0650 F   0  0  0  0  0  0  0  0  0  0  0  0
   42.2980   83.6480   54.7140 F   0  0  0  0  0  0  0  0  0  0  0  0
   43.7890   82.9650   56.1930 F   0  0  0  0  0  0  0  0  0  0  0  0
  1  2  1  0  0  0  0
  2  3  2  0  0  0  0
  2  7  1  0  0  0  0
  3  8  1  0  0  0  0
  4  9  1  0  0  0  0
  4  3  1  0  0  0  0
  5  4  2  0  0  0  0
  6  5  1  0  0  0  0
  6  1  2  0  0  0  0
 10  5  1  0  0  0  0
 11 12  2  0  0  0  0
 11 16  1  0  0  0  0
 12 13  1  0  0  0  0
 13 19  1  0  0  0  0
 13 14  2  0  0  0  0
 15 14  1  0  0  0  0
 15  1  1  0  0  0  0
 16 15  2  0  0  0  0
 17 11  1  0  0  0  0
 18 12  1  0  0  0  0
 20  6  1  0  0  0  0
 21 20  1  0  0  0  0
 21 26  1  0  0  0  0
 22 21  2  0  0  0  0
 23 24  2  0  0  0  0
 23 22  1  0  0  0  0
 24 25  1  0  0  0  0
 25 20  2  0  0  0  0
 27 22  1  0  0  0  0
 28 29  1  0  0  0  0
 28 31  1  0  0  0  0
 28 24  1  0  0  0  0
 30 28  1  0  0  0  0
M  END
>  <minimizedAffinity>
-5.33602619

>  <minimizedRMSD>
0.32067433

$$$$
