
 OpenBabel03212520123D

 26 27  0  0  0  0  0  0  0  0999 V2000
   42.6290   84.1300   58.4580 Cl  0  0  0  0  0  0  0  0  0  0  0  0
   41.5600   82.7550   58.1770 C   0  0  0  0  0  0  0  0  0  0  0  0
   40.8700   82.1280   59.2020 C   0  0  0  0  0  0  0  0  0  0  0  0
   40.0690   81.0580   58.8110 C   0  0  0  0  0  0  0  0  0  0  0  0
   39.9200   80.5960   57.5210 C   0  0  0  0  0  0  0  0  0  0  0  0
   40.6180   81.2440   56.5500 C   0  0  0  0  0  0  0  0  0  0  0  0
   40.5030   80.7370   54.8650 Cl  0  0  0  0  0  0  0  0  0  0  0  0
   41.4230   82.3070   56.8820 C   0  0  0  0  0  0  0  0  0  0  0  0
   39.5330   80.5770   59.6350 H   0  0  0  0  0  0  0  0  0  0  0  0
   39.2710   79.7520   57.3150 H   0  0  0  0  0  0  0  0  0  0  0  0
   41.9830   82.2080   61.4760 C   0  0  0  0  0  0  0  0  0  0  0  0
   41.0170   82.5970   60.5330 C   0  0  0  0  0  0  0  0  0  0  0  0
   40.0830   83.5580   60.9350 C   0  0  0  0  0  0  0  0  0  0  0  0
   40.1670   84.0510   62.1980 N   0  0  0  0  0  0  0  0  0  0  0  0
   41.1080   83.6500   63.0710 C   0  0  0  0  0  0  0  0  0  0  0  0
   42.0110   82.7330   62.7090 N   0  0  0  0  0  0  0  0  0  0  0  0
   42.6860   81.4640   61.1270 H   0  0  0  0  0  0  0  0  0  0  0  0
   39.3020   83.9280   60.2970 H   0  0  0  0  0  0  0  0  0  0  0  0
   41.0580   84.2940   64.4200 C   0  0  0  0  0  0  0  0  0  0  0  0
   40.7220   85.6340   64.3360 F   0  0  0  0  0  0  0  0  0  0  0  0
   40.1010   83.6720   65.1960 F   0  0  0  0  0  0  0  0  0  0  0  0
   42.2930   84.2500   65.0440 F   0  0  0  0  0  0  0  0  0  0  0  0
   42.1730   82.9900   55.7800 C   0  0  0  0  0  0  0  0  0  0  0  0
   41.9420   84.3360   55.7690 F   0  0  0  0  0  0  0  0  0  0  0  0
   41.7410   82.4850   54.5800 F   0  0  0  0  0  0  0  0  0  0  0  0
   43.5190   82.7320   55.8930 F   0  0  0  0  0  0  0  0  0  0  0  0
  2  1  1  0  0  0  0
  2  3  1  0  0  0  0
  3 12  1  0  0  0  0
  4  3  2  0  0  0  0
  4  9  1  0  0  0  0
  5  4  1  0  0  0  0
  6  8  1  0  0  0  0
  6  5  2  0  0  0  0
  7  6  1  0  0  0  0
  8  2  2  0  0  0  0
 10  5  1  0  0  0  0
 11 16  1  0  0  0  0
 12 13  1  0  0  0  0
 12 11  2  0  0  0  0
 13 14  2  0  0  0  0
 14 15  1  0  0  0  0
 15 19  1  0  0  0  0
 16 15  2  0  0  0  0
 17 11  1  0  0  0  0
 18 13  1  0  0  0  0
 19 22  1  0  0  0  0
 19 21  1  0  0  0  0
 20 19  1  0  0  0  0
 23 26  1  0  0  0  0
 23  8  1  0  0  0  0
 24 23  1  0  0  0  0
 25 23  1  0  0  0  0
M  END
>  <minimizedAffinity>
-5.38115549

>  <minimizedRMSD>
0.555685341

$$$$
