
 OpenBabel03212521053D

 31 33  0  0  0  0  0  0  0  0999 V2000
   41.8110   84.2180   61.5510 C   0  0  0  0  0  0  0  0  0  0  0  0
   41.4820   83.9180   62.8630 C   0  0  0  0  0  0  0  0  0  0  0  0
   40.2130   83.5010   63.2190 C   0  0  0  0  0  0  0  0  0  0  0  0
   39.2440   83.3820   62.2300 C   0  0  0  0  0  0  0  0  0  0  0  0
   39.5660   83.6820   60.9040 C   0  0  0  0  0  0  0  0  0  0  0  0
   40.8380   84.0970   60.5690 C   0  0  0  0  0  0  0  0  0  0  0  0
   42.2530   84.0180   63.6190 H   0  0  0  0  0  0  0  0  0  0  0  0
   40.0080   83.2800   64.2530 H   0  0  0  0  0  0  0  0  0  0  0  0
   38.2480   83.0570   62.4900 H   0  0  0  0  0  0  0  0  0  0  0  0
   38.7810   83.5760   60.1620 H   0  0  0  0  0  0  0  0  0  0  0  0
   45.3100   84.1580   60.5020 C   0  0  0  0  0  0  0  0  0  0  0  0
   45.7130   85.4790   60.6550 C   0  0  0  0  0  0  0  0  0  0  0  0
   44.7660   86.4070   61.1260 C   0  0  0  0  0  0  0  0  0  0  0  0
   43.5190   85.9620   61.4040 N   0  0  0  0  0  0  0  0  0  0  0  0
   43.1620   84.6510   61.2410 C   0  0  0  0  0  0  0  0  0  0  0  0
   44.0570   83.7880   60.7970 N   0  0  0  0  0  0  0  0  0  0  0  0
   45.9850   83.3880   60.1440 H   0  0  0  0  0  0  0  0  0  0  0  0
   46.7050   85.7790   60.4220 H   0  0  0  0  0  0  0  0  0  0  0  0
   45.0250   87.4590   61.2650 H   0  0  0  0  0  0  0  0  0  0  0  0
   41.1410   84.4000   59.1910 C   0  0  0  0  0  0  0  0  0  0  0  0
   40.8660   85.7400   58.8800 C   0  0  0  0  0  0  0  0  0  0  0  0
   41.0850   86.2430   57.6050 C   0  0  0  0  0  0  0  0  0  0  0  0
   41.5740   85.3850   56.6840 N   0  0  0  0  0  0  0  0  0  0  0  0
   41.8350   84.0940   56.9920 C   0  0  0  0  0  0  0  0  0  0  0  0
   41.6220   83.6140   58.2210 N   0  0  0  0  0  0  0  0  0  0  0  0
   40.4740   86.4790   59.5710 H   0  0  0  0  0  0  0  0  0  0  0  0
   40.8830   87.2700   57.3370 H   0  0  0  0  0  0  0  0  0  0  0  0
   42.3720   83.1860   55.9410 C   0  0  0  0  0  0  0  0  0  0  0  0
   43.5930   82.6430   56.2700 F   0  0  0  0  0  0  0  0  0  0  0  0
   41.4330   82.2460   55.5760 F   0  0  0  0  0  0  0  0  0  0  0  0
   42.6030   83.9450   54.7850 F   0  0  0  0  0  0  0  0  0  0  0  0
  1  2  1  0  0  0  0
  2  3  2  0  0  0  0
  2  7  1  0  0  0  0
  3  8  1  0  0  0  0
  4  9  1  0  0  0  0
  4  3  1  0  0  0  0
  5  4  2  0  0  0  0
  6  5  1  0  0  0  0
  6  1  2  0  0  0  0
 10  5  1  0  0  0  0
 11 12  2  0  0  0  0
 11 16  1  0  0  0  0
 12 13  1  0  0  0  0
 13 19  1  0  0  0  0
 13 14  2  0  0  0  0
 15 14  1  0  0  0  0
 15  1  1  0  0  0  0
 16 15  2  0  0  0  0
 17 11  1  0  0  0  0
 18 12  1  0  0  0  0
 20  6  1  0  0  0  0
 21 20  1  0  0  0  0
 21 26  1  0  0  0  0
 22 21  2  0  0  0  0
 23 24  2  0  0  0  0
 23 22  1  0  0  0  0
 24 25  1  0  0  0  0
 25 20  2  0  0  0  0
 27 22  1  0  0  0  0
 28 29  1  0  0  0  0
 28 24  1  0  0  0  0
 30 28  1  0  0  0  0
 31 28  1  0  0  0  0
M  END
>  <minimizedAffinity>
-5.39021873

>  <minimizedRMSD>
0.516824841

$$$$
