
 OpenBabel03212520513D

 30 32  0  0  1  0  0  0  0  0999 V2000
   41.8210   83.9290   61.3030 C   0  0  0  0  0  0  0  0  0  0  0  0
   40.8920   84.2370   62.2760 C   0  0  0  0  0  0  0  0  0  0  0  0
   40.4080   83.2600   63.1400 C   0  0  0  0  0  0  0  0  0  0  0  0
   40.8470   81.9900   63.0340 N   0  0  0  0  0  0  0  0  0  0  0  0
   41.7590   81.7140   62.0730 C   0  0  0  0  0  0  0  0  0  0  0  0
   42.2490   82.6400   61.2180 N   0  0  0  0  0  0  0  0  0  0  0  0
   40.5310   85.2610   62.3690 H   0  0  0  0  0  0  0  0  0  0  0  0
   39.6890   83.5830   63.8660 H   0  0  0  0  0  0  0  0  0  0  0  0
   43.7540   86.6910   59.9020 C   0  0  0  0  0  0  0  0  0  0  0  0
   43.2470   86.7930   58.6150 C   0  0  0  0  0  0  0  0  0  0  0  0
   42.2470   85.9250   58.2160 C   0  0  0  0  0  0  0  0  0  0  0  0
   41.8290   85.0170   59.1380 N   0  0  0  0  0  0  0  0  0  0  0  0
   42.3360   84.9360   60.3810 C   0  0  0  0  0  0  0  0  0  0  0  0
   43.2930   85.7620   60.7730 N   0  0  0  0  0  0  0  0  0  0  0  0
   44.7750   87.6540   60.1820 N   0  0  0  0  0  0  0  0  0  0  0  0
   43.5760   87.5140   57.8780 H   0  0  0  0  0  0  0  0  0  0  0  0
   41.8140   85.9590   57.2230 H   0  0  0  0  0  0  0  0  0  0  0  0
   44.2360   88.3120   60.7900 H   0  0  0  0  0  0  0  0  0  0  0  0
   45.7660   87.7670   59.9220 H   0  0  0  0  0  0  0  0  0  0  0  0
   42.2060   80.2850   61.9880 C   0  0  1  0  0  0  0  0  0  0  0  0
   41.2840   79.1900   62.1860 C   0  0  0  0  0  0  0  0  0  0  0  0
   41.5770   79.5690   60.7710 C   0  0  1  0  0  0  0  0  0  0  0  0
   43.3160   80.0960   62.0320 H   0  0  0  0  0  0  0  0  0  0  0  0
   41.6000   78.2270   62.6170 H   0  0  0  0  0  0  0  0  0  0  0  0
   40.2720   79.4840   62.5940 H   0  0  0  0  0  0  0  0  0  0  0  0
   42.1880   78.8270   60.2280 H   0  0  0  0  0  0  0  0  0  0  0  0
   40.4770   80.2170   60.0150 C   0  0  0  0  0  0  0  0  0  0  0  0
   41.0490   81.1570   59.1500 F   0  0  0  0  0  0  0  0  0  0  0  0
   39.8220   79.3090   59.2120 F   0  0  0  0  0  0  0  0  0  0  0  0
   39.5920   80.9260   60.7900 F   0  0  0  0  0  0  0  0  0  0  0  0
  1  2  1  0  0  0  0
  2  7  1  0  0  0  0
  2  3  2  0  0  0  0
  3  8  1  0  0  0  0
  4  3  1  0  0  0  0
  5  4  2  0  0  0  0
  6  1  2  0  0  0  0
  6  5  1  0  0  0  0
  9 15  1  0  0  0  0
  9 14  1  0  0  0  0
 10  9  2  0  0  0  0
 11 10  1  0  0  0  0
 11 12  2  0  0  0  0
 12 13  1  0  0  0  0
 13 14  2  0  0  0  0
 13  1  1  0  0  0  0
 15 18  1  0  0  0  0
 16 10  1  0  0  0  0
 17 11  1  0  0  0  0
 19 15  1  0  0  0  0
 20 23  1  1  0  0  0
 20  5  1  0  0  0  0
 20 21  1  0  0  0  0
 21 25  1  0  0  0  0
 21 24  1  0  0  0  0
 22 26  1  6  0  0  0
 22 20  1  0  0  0  0
 22 21  1  0  0  0  0
 27 22  1  0  0  0  0
 27 30  1  0  0  0  0
 28 27  1  0  0  0  0
 29 27  1  0  0  0  0
M  END
>  <minimizedAffinity>
-4.97145605

>  <minimizedRMSD>
0.962861538

$$$$
