
 OpenBabel03212520083D

 13 13  0  0  0  0  0  0  0  0999 V2000
   40.0470   81.9990   60.6440 C   0  0  0  0  0  0  0  0  0  0  0  0
   40.1050   82.9220   59.5900 C   0  0  0  0  0  0  0  0  0  0  0  0
   39.5470   84.1870   59.7710 C   0  0  0  0  0  0  0  0  0  0  0  0
   38.9650   84.4580   60.9880 N   0  0  0  0  0  0  0  0  0  0  0  0
   38.9220   83.5560   61.9830 C   0  0  0  0  0  0  0  0  0  0  0  0
   39.4590   82.3280   61.8210 N   0  0  0  0  0  0  0  0  0  0  0  0
   40.4630   81.0060   60.5590 H   0  0  0  0  0  0  0  0  0  0  0  0
   39.5860   84.9060   58.9670 H   0  0  0  0  0  0  0  0  0  0  0  0
   38.4560   83.7960   62.9350 H   0  0  0  0  0  0  0  0  0  0  0  0
   40.7570   82.5310   58.3130 C   0  0  0  0  0  0  0  0  0  0  0  0
   39.8570   81.7420   57.6200 F   0  0  0  0  0  0  0  0  0  0  0  0
   41.1210   83.6570   57.6080 F   0  0  0  0  0  0  0  0  0  0  0  0
   41.8680   81.7600   58.6230 F   0  0  0  0  0  0  0  0  0  0  0  0
  1  6  1  0  0  0  0
  2  3  1  0  0  0  0
  2  1  2  0  0  0  0
  3  4  2  0  0  0  0
  4  5  1  0  0  0  0
  5  9  1  0  0  0  0
  6  5  2  0  0  0  0
  7  1  1  0  0  0  0
  8  3  1  0  0  0  0
 10 13  1  0  0  0  0
 10  2  1  0  0  0  0
 11 10  1  0  0  0  0
 12 10  1  0  0  0  0
M  END
>  <minimizedAffinity>
-3.90276384

>  <minimizedRMSD>
0.6621961

$$$$
