
 OpenBabel03212521053D

 31 33  0  0  0  0  0  0  0  0999 V2000
   41.8210   84.2350   61.5590 C   0  0  0  0  0  0  0  0  0  0  0  0
   41.4670   83.9610   62.8710 C   0  0  0  0  0  0  0  0  0  0  0  0
   40.1920   83.5450   63.2090 C   0  0  0  0  0  0  0  0  0  0  0  0
   39.2450   83.4000   62.2040 C   0  0  0  0  0  0  0  0  0  0  0  0
   39.5910   83.6740   60.8790 C   0  0  0  0  0  0  0  0  0  0  0  0
   40.8680   84.0880   60.5610 C   0  0  0  0  0  0  0  0  0  0  0  0
   42.2210   84.0800   63.6390 H   0  0  0  0  0  0  0  0  0  0  0  0
   39.9680   83.3450   64.2430 H   0  0  0  0  0  0  0  0  0  0  0  0
   38.2450   83.0760   62.4510 H   0  0  0  0  0  0  0  0  0  0  0  0
   38.8220   83.5480   60.1230 H   0  0  0  0  0  0  0  0  0  0  0  0
   45.3550   84.1610   60.6350 C   0  0  0  0  0  0  0  0  0  0  0  0
   45.7340   85.4960   60.7140 C   0  0  0  0  0  0  0  0  0  0  0  0
   44.7580   86.4380   61.0910 C   0  0  0  0  0  0  0  0  0  0  0  0
   43.5090   85.9920   61.3550 N   0  0  0  0  0  0  0  0  0  0  0  0
   43.1750   84.6680   61.2670 C   0  0  0  0  0  0  0  0  0  0  0  0
   44.0970   83.7920   60.9120 N   0  0  0  0  0  0  0  0  0  0  0  0
   46.0520   83.3800   60.3520 H   0  0  0  0  0  0  0  0  0  0  0  0
   46.7290   85.7950   60.4960 H   0  0  0  0  0  0  0  0  0  0  0  0
   44.9990   87.5000   61.1690 H   0  0  0  0  0  0  0  0  0  0  0  0
   41.1970   84.3630   59.1830 C   0  0  0  0  0  0  0  0  0  0  0  0
   40.7850   85.6470   58.7950 C   0  0  0  0  0  0  0  0  0  0  0  0
   41.0030   86.1150   57.5070 C   0  0  0  0  0  0  0  0  0  0  0  0
   41.6290   85.2800   56.6500 N   0  0  0  0  0  0  0  0  0  0  0  0
   42.0230   84.0440   57.0320 C   0  0  0  0  0  0  0  0  0  0  0  0
   41.8100   83.5970   58.2730 N   0  0  0  0  0  0  0  0  0  0  0  0
   40.2780   86.3650   59.4330 H   0  0  0  0  0  0  0  0  0  0  0  0
   40.6960   87.0980   57.1810 H   0  0  0  0  0  0  0  0  0  0  0  0
   42.7090   83.1600   56.0490 C   0  0  0  0  0  0  0  0  0  0  0  0
   43.5770   83.8400   55.2270 F   0  0  0  0  0  0  0  0  0  0  0  0
   43.2830   82.0780   56.6800 F   0  0  0  0  0  0  0  0  0  0  0  0
   41.7390   82.6170   55.1970 F   0  0  0  0  0  0  0  0  0  0  0  0
  1  2  1  0  0  0  0
  2  3  2  0  0  0  0
  2  7  1  0  0  0  0
  3  8  1  0  0  0  0
  4  9  1  0  0  0  0
  4  3  1  0  0  0  0
  5  4  2  0  0  0  0
  6  5  1  0  0  0  0
  6  1  2  0  0  0  0
 10  5  1  0  0  0  0
 11 12  2  0  0  0  0
 11 16  1  0  0  0  0
 12 13  1  0  0  0  0
 13 19  1  0  0  0  0
 13 14  2  0  0  0  0
 15 14  1  0  0  0  0
 15  1  1  0  0  0  0
 16 15  2  0  0  0  0
 17 11  1  0  0  0  0
 18 12  1  0  0  0  0
 20  6  1  0  0  0  0
 21 20  1  0  0  0  0
 21 26  1  0  0  0  0
 22 21  2  0  0  0  0
 23 24  2  0  0  0  0
 23 22  1  0  0  0  0
 24 25  1  0  0  0  0
 25 20  2  0  0  0  0
 27 22  1  0  0  0  0
 28 30  1  0  0  0  0
 28 24  1  0  0  0  0
 29 28  1  0  0  0  0
 31 28  1  0  0  0  0
M  END
>  <minimizedAffinity>
-5.35064411

>  <minimizedRMSD>
0.273490816

$$$$
