
 OpenBabel03212521033D

 23 24  0  0  0  0  0  0  0  0999 V2000
   41.7110   84.1370   61.7770 C   0  0  0  0  0  0  0  0  0  0  0  0
   42.7560   84.3150   62.6750 C   0  0  0  0  0  0  0  0  0  0  0  0
   42.5740   84.3030   64.0320 C   0  0  0  0  0  0  0  0  0  0  0  0
   41.2700   84.1020   64.5270 C   0  0  0  0  0  0  0  0  0  0  0  0
   40.2280   83.9230   63.6290 C   0  0  0  0  0  0  0  0  0  0  0  0
   40.4360   83.9380   62.2660 C   0  0  0  0  0  0  0  0  0  0  0  0
   43.7470   84.4680   62.2550 H   0  0  0  0  0  0  0  0  0  0  0  0
   43.3840   84.4420   64.7330 H   0  0  0  0  0  0  0  0  0  0  0  0
   41.1700   84.0990   65.5950 H   0  0  0  0  0  0  0  0  0  0  0  0
   39.2680   83.7760   64.1050 H   0  0  0  0  0  0  0  0  0  0  0  0
   42.5000   83.0960   58.3540 C   0  0  0  0  0  0  0  0  0  0  0  0
   42.4710   84.2900   57.6440 C   0  0  0  0  0  0  0  0  0  0  0  0
   42.1770   85.4560   58.3530 C   0  0  0  0  0  0  0  0  0  0  0  0
   41.9400   85.3670   59.6770 N   0  0  0  0  0  0  0  0  0  0  0  0
   41.9730   84.1800   60.3560 C   0  0  0  0  0  0  0  0  0  0  0  0
   42.2530   83.0930   59.6680 N   0  0  0  0  0  0  0  0  0  0  0  0
   42.7230   82.1580   57.8540 H   0  0  0  0  0  0  0  0  0  0  0  0
   42.6650   84.3300   56.5900 H   0  0  0  0  0  0  0  0  0  0  0  0
   42.1360   86.4390   57.8610 H   0  0  0  0  0  0  0  0  0  0  0  0
   39.2280   83.7030   61.4480 C   0  0  0  0  0  0  0  0  0  0  0  0
   38.0790   83.5670   62.2040 F   0  0  0  0  0  0  0  0  0  0  0  0
   39.3500   82.5470   60.6840 F   0  0  0  0  0  0  0  0  0  0  0  0
   39.0140   84.7120   60.5320 F   0  0  0  0  0  0  0  0  0  0  0  0
  1  6  2  0  0  0  0
  1  2  1  0  0  0  0
  2  3  2  0  0  0  0
  3  4  1  0  0  0  0
  3  8  1  0  0  0  0
  4  9  1  0  0  0  0
  5 10  1  0  0  0  0
  5  4  2  0  0  0  0
  6  5  1  0  0  0  0
  7  2  1  0  0  0  0
 11 16  1  0  0  0  0
 12 13  1  0  0  0  0
 12 11  2  0  0  0  0
 13 14  2  0  0  0  0
 14 15  1  0  0  0  0
 15  1  1  0  0  0  0
 16 15  2  0  0  0  0
 17 11  1  0  0  0  0
 18 12  1  0  0  0  0
 19 13  1  0  0  0  0
 20 21  1  0  0  0  0
 20  6  1  0  0  0  0
 22 20  1  0  0  0  0
 23 20  1  0  0  0  0
M  END
>  <minimizedAffinity>
-5.18489933

>  <minimizedRMSD>
1.16326559

$$$$
