
 OpenBabel03212521023D

 23 24  0  0  0  0  0  0  0  0999 V2000
   42.0270   84.2010   61.9010 C   0  0  0  0  0  0  0  0  0  0  0  0
   42.4120   84.7310   63.1260 C   0  0  0  0  0  0  0  0  0  0  0  0
   41.7350   84.4700   64.2880 C   0  0  0  0  0  0  0  0  0  0  0  0
   40.6050   83.6300   64.2270 C   0  0  0  0  0  0  0  0  0  0  0  0
   40.2240   83.1010   63.0030 C   0  0  0  0  0  0  0  0  0  0  0  0
   40.9210   83.3780   61.8450 C   0  0  0  0  0  0  0  0  0  0  0  0
   43.2880   85.3740   63.1330 H   0  0  0  0  0  0  0  0  0  0  0  0
   42.0310   84.8810   65.2420 H   0  0  0  0  0  0  0  0  0  0  0  0
   40.1050   83.4510   65.1590 H   0  0  0  0  0  0  0  0  0  0  0  0
   39.3470   82.4700   63.0580 H   0  0  0  0  0  0  0  0  0  0  0  0
   44.6240   84.2080   59.3160 C   0  0  0  0  0  0  0  0  0  0  0  0
   44.1900   85.1890   58.4320 C   0  0  0  0  0  0  0  0  0  0  0  0
   42.9980   85.8480   58.7340 C   0  0  0  0  0  0  0  0  0  0  0  0
   42.3330   85.5040   59.8550 N   0  0  0  0  0  0  0  0  0  0  0  0
   42.7770   84.5340   60.7110 C   0  0  0  0  0  0  0  0  0  0  0  0
   43.9050   83.9250   60.4080 N   0  0  0  0  0  0  0  0  0  0  0  0
   45.5450   83.6620   59.1320 H   0  0  0  0  0  0  0  0  0  0  0  0
   44.7420   85.4410   57.5480 H   0  0  0  0  0  0  0  0  0  0  0  0
   42.5900   86.6350   58.0840 H   0  0  0  0  0  0  0  0  0  0  0  0
   40.4040   82.7130   60.6320 C   0  0  0  0  0  0  0  0  0  0  0  0
   39.7950   83.5870   59.7520 F   0  0  0  0  0  0  0  0  0  0  0  0
   39.4640   81.7360   60.9500 F   0  0  0  0  0  0  0  0  0  0  0  0
   41.3930   82.0410   59.9440 F   0  0  0  0  0  0  0  0  0  0  0  0
  1  2  1  0  0  0  0
  2  7  1  0  0  0  0
  2  3  2  0  0  0  0
  3  8  1  0  0  0  0
  4  3  1  0  0  0  0
  4  9  1  0  0  0  0
  5 10  1  0  0  0  0
  5  4  2  0  0  0  0
  6  1  2  0  0  0  0
  6  5  1  0  0  0  0
 11 16  1  0  0  0  0
 12 13  1  0  0  0  0
 12 11  2  0  0  0  0
 13 14  2  0  0  0  0
 14 15  1  0  0  0  0
 15  1  1  0  0  0  0
 16 15  2  0  0  0  0
 17 11  1  0  0  0  0
 18 12  1  0  0  0  0
 19 13  1  0  0  0  0
 20 22  1  0  0  0  0
 20  6  1  0  0  0  0
 21 20  1  0  0  0  0
 23 20  1  0  0  0  0
M  END
>  <minimizedAffinity>
-4.67926455

>  <minimizedRMSD>
1.21465421

$$$$
