
 OpenBabel03212520293D

 23 24  0  0  0  0  0  0  0  0999 V2000
   39.4690   82.6430   61.4870 C   0  0  0  0  0  0  0  0  0  0  0  0
   40.5890   82.1920   60.7670 C   0  0  0  0  0  0  0  0  0  0  0  0
   41.8590   82.4400   61.3050 C   0  0  0  0  0  0  0  0  0  0  0  0
   41.9330   83.1030   62.4950 N   0  0  0  0  0  0  0  0  0  0  0  0
   40.8440   83.5170   63.1490 C   0  0  0  0  0  0  0  0  0  0  0  0
   39.6110   83.2880   62.6470 N   0  0  0  0  0  0  0  0  0  0  0  0
   38.4850   82.4470   61.0620 H   0  0  0  0  0  0  0  0  0  0  0  0
   42.7200   82.0920   60.7490 H   0  0  0  0  0  0  0  0  0  0  0  0
   40.4160   81.5050   59.5270 N   0  0  0  0  0  0  0  0  0  0  0  0
   40.3030   80.1920   59.6440 C   0  0  0  0  0  0  0  0  0  0  0  0
   40.1310   79.4350   58.4910 C   0  0  0  0  0  0  0  0  0  0  0  0
   40.0840   80.0770   57.2560 C   0  0  0  0  0  0  0  0  0  0  0  0
   39.9320   79.4730   56.1670 O   0  0  0  0  0  0  0  0  0  0  0  0
   40.2080   81.4350   57.2130 N   0  0  0  0  0  0  0  0  0  0  0  0
   40.3770   82.1720   58.3510 C   0  0  0  0  0  0  0  0  0  0  0  0
   40.4890   83.4070   58.3150 O   0  0  0  0  0  0  0  0  0  0  0  0
   40.3320   79.6420   60.5600 H   0  0  0  0  0  0  0  0  0  0  0  0
   40.0320   78.3550   58.5190 H   0  0  0  0  0  0  0  0  0  0  0  0
   40.1700   81.9020   56.2710 H   0  0  0  0  0  0  0  0  0  0  0  0
   40.9930   84.2310   64.4360 C   0  0  0  0  0  0  0  0  0  0  0  0
   40.1350   83.7830   65.4060 F   0  0  0  0  0  0  0  0  0  0  0  0
   42.2980   84.0960   64.9200 F   0  0  0  0  0  0  0  0  0  0  0  0
   40.7890   85.5800   64.2200 F   0  0  0  0  0  0  0  0  0  0  0  0
  1  6  1  0  0  0  0
  2  3  1  0  0  0  0
  2  1  2  0  0  0  0
  3  4  2  0  0  0  0
  4  5  1  0  0  0  0
  5 20  1  0  0  0  0
  6  5  2  0  0  0  0
  7  1  1  0  0  0  0
  8  3  1  0  0  0  0
  9 10  1  0  0  0  0
  9  2  1  0  0  0  0
 10 17  1  0  0  0  0
 11 18  1  0  0  0  0
 11 10  2  0  0  0  0
 12 11  1  0  0  0  0
 13 12  2  0  0  0  0
 14 12  1  0  0  0  0
 14 15  1  0  0  0  0
 15  9  1  0  0  0  0
 16 15  2  0  0  0  0
 19 14  1  0  0  0  0
 20 22  1  0  0  0  0
 20 21  1  0  0  0  0
 23 20  1  0  0  0  0
M  END
>  <minimizedAffinity>
-5.10180283

>  <minimizedRMSD>
2.32185817

$$$$
