
 OpenBabel03212521063D

 31 33  0  0  0  0  0  0  0  0999 V2000
   41.7980   84.1460   61.5460 C   0  0  0  0  0  0  0  0  0  0  0  0
   41.4500   83.8690   62.8580 C   0  0  0  0  0  0  0  0  0  0  0  0
   40.1580   83.5270   63.2130 C   0  0  0  0  0  0  0  0  0  0  0  0
   39.1860   83.4620   62.2220 C   0  0  0  0  0  0  0  0  0  0  0  0
   39.5260   83.7400   60.8970 C   0  0  0  0  0  0  0  0  0  0  0  0
   40.8210   84.0790   60.5630 C   0  0  0  0  0  0  0  0  0  0  0  0
   42.2240   83.9260   63.6150 H   0  0  0  0  0  0  0  0  0  0  0  0
   39.9400   83.3200   64.2470 H   0  0  0  0  0  0  0  0  0  0  0  0
   38.1730   83.1960   62.4820 H   0  0  0  0  0  0  0  0  0  0  0  0
   38.7380   83.6770   60.1530 H   0  0  0  0  0  0  0  0  0  0  0  0
   45.2760   83.8920   60.4570 C   0  0  0  0  0  0  0  0  0  0  0  0
   45.7680   85.1770   60.6530 C   0  0  0  0  0  0  0  0  0  0  0  0
   44.8890   86.1480   61.1680 C   0  0  0  0  0  0  0  0  0  0  0  0
   43.6170   85.7770   61.4430 N   0  0  0  0  0  0  0  0  0  0  0  0
   43.1720   84.5000   61.2370 C   0  0  0  0  0  0  0  0  0  0  0  0
   44.0030   83.5960   60.7530 N   0  0  0  0  0  0  0  0  0  0  0  0
   45.8950   83.0930   60.0630 H   0  0  0  0  0  0  0  0  0  0  0  0
   46.7750   85.4180   60.4200 H   0  0  0  0  0  0  0  0  0  0  0  0
   45.2190   87.1740   61.3420 H   0  0  0  0  0  0  0  0  0  0  0  0
   41.1420   84.3610   59.1850 C   0  0  0  0  0  0  0  0  0  0  0  0
   41.0200   85.7270   58.8900 C   0  0  0  0  0  0  0  0  0  0  0  0
   41.2830   86.2160   57.6170 C   0  0  0  0  0  0  0  0  0  0  0  0
   41.6600   85.3170   56.6820 N   0  0  0  0  0  0  0  0  0  0  0  0
   41.7750   84.0010   56.9750 C   0  0  0  0  0  0  0  0  0  0  0  0
   41.5210   83.5360   58.2010 N   0  0  0  0  0  0  0  0  0  0  0  0
   40.7220   86.4980   59.5920 H   0  0  0  0  0  0  0  0  0  0  0  0
   41.1970   87.2610   57.3620 H   0  0  0  0  0  0  0  0  0  0  0  0
   42.1940   83.0500   55.9090 C   0  0  0  0  0  0  0  0  0  0  0  0
   41.3420   81.9780   55.7770 F   0  0  0  0  0  0  0  0  0  0  0  0
   42.4320   83.7120   54.7250 F   0  0  0  0  0  0  0  0  0  0  0  0
   43.4290   82.4990   56.2770 F   0  0  0  0  0  0  0  0  0  0  0  0
  1  2  1  0  0  0  0
  2  3  2  0  0  0  0
  2  7  1  0  0  0  0
  3  8  1  0  0  0  0
  4  9  1  0  0  0  0
  4  3  1  0  0  0  0
  5  4  2  0  0  0  0
  6  5  1  0  0  0  0
  6  1  2  0  0  0  0
 10  5  1  0  0  0  0
 11 12  2  0  0  0  0
 11 16  1  0  0  0  0
 12 13  1  0  0  0  0
 13 19  1  0  0  0  0
 13 14  2  0  0  0  0
 15 14  1  0  0  0  0
 15  1  1  0  0  0  0
 16 15  2  0  0  0  0
 17 11  1  0  0  0  0
 18 12  1  0  0  0  0
 20  6  1  0  0  0  0
 21 20  1  0  0  0  0
 21 26  1  0  0  0  0
 22 21  2  0  0  0  0
 23 24  2  0  0  0  0
 23 22  1  0  0  0  0
 24 25  1  0  0  0  0
 25 20  2  0  0  0  0
 27 22  1  0  0  0  0
 28 31  1  0  0  0  0
 28 24  1  0  0  0  0
 29 28  1  0  0  0  0
 30 28  1  0  0  0  0
M  END
>  <minimizedAffinity>
-5.38449335

>  <minimizedRMSD>
0.468789309

$$$$
