
 OpenBabel03212520133D

 26 27  0  0  0  0  0  0  0  0999 V2000
   40.3120   82.5880   58.4410 Cl  0  0  0  0  0  0  0  0  0  0  0  0
   40.1920   80.8750   58.8470 C   0  0  0  0  0  0  0  0  0  0  0  0
   40.3850   80.4010   60.1340 C   0  0  0  0  0  0  0  0  0  0  0  0
   40.2540   79.0230   60.2850 C   0  0  0  0  0  0  0  0  0  0  0  0
   39.9570   78.1290   59.2790 C   0  0  0  0  0  0  0  0  0  0  0  0
   39.7770   78.6430   58.0320 C   0  0  0  0  0  0  0  0  0  0  0  0
   39.3940   77.5910   56.6700 Cl  0  0  0  0  0  0  0  0  0  0  0  0
   39.8950   79.9970   57.8290 C   0  0  0  0  0  0  0  0  0  0  0  0
   40.4100   78.6690   61.3090 H   0  0  0  0  0  0  0  0  0  0  0  0
   39.8770   77.0700   59.4960 H   0  0  0  0  0  0  0  0  0  0  0  0
   41.9420   81.5510   61.7660 C   0  0  0  0  0  0  0  0  0  0  0  0
   40.6900   81.3140   61.1770 C   0  0  0  0  0  0  0  0  0  0  0  0
   39.6060   82.0540   61.6610 C   0  0  0  0  0  0  0  0  0  0  0  0
   39.8290   82.9470   62.6590 N   0  0  0  0  0  0  0  0  0  0  0  0
   41.0450   83.1440   63.1970 C   0  0  0  0  0  0  0  0  0  0  0  0
   42.0960   82.4480   62.7510 N   0  0  0  0  0  0  0  0  0  0  0  0
   42.7540   80.9600   61.3650 H   0  0  0  0  0  0  0  0  0  0  0  0
   38.6060   81.9540   61.2840 H   0  0  0  0  0  0  0  0  0  0  0  0
   41.1160   84.1650   64.2880 C   0  0  0  0  0  0  0  0  0  0  0  0
   40.9320   85.4480   63.8010 F   0  0  0  0  0  0  0  0  0  0  0  0
   40.1210   83.9240   65.2140 F   0  0  0  0  0  0  0  0  0  0  0  0
   42.3580   84.1640   64.8990 F   0  0  0  0  0  0  0  0  0  0  0  0
   39.6880   80.5180   56.4400 C   0  0  0  0  0  0  0  0  0  0  0  0
   40.4060   81.6560   56.2140 F   0  0  0  0  0  0  0  0  0  0  0  0
   38.3600   80.8250   56.2810 F   0  0  0  0  0  0  0  0  0  0  0  0
   40.0140   79.5490   55.5190 F   0  0  0  0  0  0  0  0  0  0  0  0
  1  2  1  0  0  0  0
  2  3  1  0  0  0  0
  3  4  2  0  0  0  0
  3 12  1  0  0  0  0
  4  9  1  0  0  0  0
  5 10  1  0  0  0  0
  5  4  1  0  0  0  0
  6  5  2  0  0  0  0
  7  6  1  0  0  0  0
  8  6  1  0  0  0  0
  8  2  2  0  0  0  0
 11 16  1  0  0  0  0
 12 13  1  0  0  0  0
 12 11  2  0  0  0  0
 13 14  2  0  0  0  0
 14 15  1  0  0  0  0
 15 19  1  0  0  0  0
 16 15  2  0  0  0  0
 17 11  1  0  0  0  0
 18 13  1  0  0  0  0
 19 22  1  0  0  0  0
 19 21  1  0  0  0  0
 20 19  1  0  0  0  0
 23  8  1  0  0  0  0
 24 23  1  0  0  0  0
 25 23  1  0  0  0  0
 26 23  1  0  0  0  0
M  END
>  <minimizedAffinity>
-6.04898453

>  <minimizedRMSD>
2.03294659

$$$$
