
 OpenBabel03212520133D

 26 27  0  0  0  0  0  0  0  0999 V2000
   42.9900   83.0730   59.6030 Cl  0  0  0  0  0  0  0  0  0  0  0  0
   41.6270   83.1450   60.7200 C   0  0  0  0  0  0  0  0  0  0  0  0
   40.4470   82.4520   60.5010 C   0  0  0  0  0  0  0  0  0  0  0  0
   39.4700   82.6170   61.4790 C   0  0  0  0  0  0  0  0  0  0  0  0
   39.5900   83.3950   62.6100 C   0  0  0  0  0  0  0  0  0  0  0  0
   40.7660   84.0560   62.7810 C   0  0  0  0  0  0  0  0  0  0  0  0
   41.0280   85.0800   64.1940 Cl  0  0  0  0  0  0  0  0  0  0  0  0
   41.7640   83.9280   61.8460 C   0  0  0  0  0  0  0  0  0  0  0  0
   38.5470   82.0610   61.2860 H   0  0  0  0  0  0  0  0  0  0  0  0
   38.7690   83.4600   63.3160 H   0  0  0  0  0  0  0  0  0  0  0  0
   40.2030   82.0820   58.0070 C   0  0  0  0  0  0  0  0  0  0  0  0
   40.3150   81.6490   59.3380 C   0  0  0  0  0  0  0  0  0  0  0  0
   40.2970   80.2690   59.5640 C   0  0  0  0  0  0  0  0  0  0  0  0
   40.1730   79.4410   58.4940 N   0  0  0  0  0  0  0  0  0  0  0  0
   40.0670   79.8970   57.2340 C   0  0  0  0  0  0  0  0  0  0  0  0
   40.0830   81.2120   56.9940 N   0  0  0  0  0  0  0  0  0  0  0  0
   40.2210   83.1550   57.8740 H   0  0  0  0  0  0  0  0  0  0  0  0
   40.3750   79.8270   60.5400 H   0  0  0  0  0  0  0  0  0  0  0  0
   39.9390   78.8510   56.1730 C   0  0  0  0  0  0  0  0  0  0  0  0
   40.9030   77.8660   56.3050 F   0  0  0  0  0  0  0  0  0  0  0  0
   38.7040   78.2410   56.2700 F   0  0  0  0  0  0  0  0  0  0  0  0
   40.1170   79.3900   54.9100 F   0  0  0  0  0  0  0  0  0  0  0  0
   43.0420   84.6740   62.0760 C   0  0  0  0  0  0  0  0  0  0  0  0
   44.0580   83.8380   62.4410 F   0  0  0  0  0  0  0  0  0  0  0  0
   42.8480   85.5660   63.1000 F   0  0  0  0  0  0  0  0  0  0  0  0
   43.3820   85.3850   60.9500 F   0  0  0  0  0  0  0  0  0  0  0  0
  1  2  1  0  0  0  0
  2  8  1  0  0  0  0
  3  2  2  0  0  0  0
  3  4  1  0  0  0  0
  4  5  2  0  0  0  0
  5  6  1  0  0  0  0
  5 10  1  0  0  0  0
  6  7  1  0  0  0  0
  8 23  1  0  0  0  0
  8  6  2  0  0  0  0
  9  4  1  0  0  0  0
 11 12  1  0  0  0  0
 12 13  2  0  0  0  0
 12  3  1  0  0  0  0
 13 18  1  0  0  0  0
 14 13  1  0  0  0  0
 15 14  2  0  0  0  0
 16 15  1  0  0  0  0
 16 11  2  0  0  0  0
 17 11  1  0  0  0  0
 19 21  1  0  0  0  0
 19 20  1  0  0  0  0
 19 15  1  0  0  0  0
 22 19  1  0  0  0  0
 23 24  1  0  0  0  0
 23 25  1  0  0  0  0
 26 23  1  0  0  0  0
M  END
>  <minimizedAffinity>
-4.94643402

>  <minimizedRMSD>
6.99612522

$$$$
