
 OpenBabel03212521063D

 31 33  0  0  0  0  0  0  0  0999 V2000
   41.8030   84.2360   61.5530 C   0  0  0  0  0  0  0  0  0  0  0  0
   41.4600   83.9440   62.8630 C   0  0  0  0  0  0  0  0  0  0  0  0
   40.1870   83.5300   63.2080 C   0  0  0  0  0  0  0  0  0  0  0  0
   39.2280   83.4060   62.2090 C   0  0  0  0  0  0  0  0  0  0  0  0
   39.5640   83.6980   60.8850 C   0  0  0  0  0  0  0  0  0  0  0  0
   40.8400   84.1100   60.5610 C   0  0  0  0  0  0  0  0  0  0  0  0
   42.2230   84.0470   63.6260 H   0  0  0  0  0  0  0  0  0  0  0  0
   39.9710   83.3150   64.2400 H   0  0  0  0  0  0  0  0  0  0  0  0
   38.2300   83.0830   62.4610 H   0  0  0  0  0  0  0  0  0  0  0  0
   38.7870   83.5880   60.1350 H   0  0  0  0  0  0  0  0  0  0  0  0
   45.3250   84.1590   60.5820 C   0  0  0  0  0  0  0  0  0  0  0  0
   45.7150   85.4890   60.6890 C   0  0  0  0  0  0  0  0  0  0  0  0
   44.7510   86.4280   61.1000 C   0  0  0  0  0  0  0  0  0  0  0  0
   43.5020   85.9850   61.3690 N   0  0  0  0  0  0  0  0  0  0  0  0
   43.1570   84.6660   61.2530 C   0  0  0  0  0  0  0  0  0  0  0  0
   44.0670   83.7930   60.8660 N   0  0  0  0  0  0  0  0  0  0  0  0
   46.0120   83.3800   60.2710 H   0  0  0  0  0  0  0  0  0  0  0  0
   46.7090   85.7860   60.4650 H   0  0  0  0  0  0  0  0  0  0  0  0
   45.0000   87.4870   61.2010 H   0  0  0  0  0  0  0  0  0  0  0  0
   41.1570   84.4050   59.1850 C   0  0  0  0  0  0  0  0  0  0  0  0
   40.7710   85.7060   58.8280 C   0  0  0  0  0  0  0  0  0  0  0  0
   40.9830   86.1940   57.5470 C   0  0  0  0  0  0  0  0  0  0  0  0
   41.5770   85.3620   56.6640 N   0  0  0  0  0  0  0  0  0  0  0  0
   41.9460   84.1090   57.0160 C   0  0  0  0  0  0  0  0  0  0  0  0
   41.7390   83.6430   58.2510 N   0  0  0  0  0  0  0  0  0  0  0  0
   40.2910   86.4220   59.4870 H   0  0  0  0  0  0  0  0  0  0  0  0
   40.6960   87.1910   57.2440 H   0  0  0  0  0  0  0  0  0  0  0  0
   42.5970   83.2280   56.0070 C   0  0  0  0  0  0  0  0  0  0  0  0
   43.6050   82.4550   56.5360 F   0  0  0  0  0  0  0  0  0  0  0  0
   41.6570   82.5030   55.3090 F   0  0  0  0  0  0  0  0  0  0  0  0
   43.2170   84.0440   55.0520 F   0  0  0  0  0  0  0  0  0  0  0  0
  1  2  1  0  0  0  0
  2  3  2  0  0  0  0
  2  7  1  0  0  0  0
  3  8  1  0  0  0  0
  4  9  1  0  0  0  0
  4  3  1  0  0  0  0
  5  4  2  0  0  0  0
  6  5  1  0  0  0  0
  6  1  2  0  0  0  0
 10  5  1  0  0  0  0
 11 12  2  0  0  0  0
 11 16  1  0  0  0  0
 12 13  1  0  0  0  0
 13 19  1  0  0  0  0
 13 14  2  0  0  0  0
 15 14  1  0  0  0  0
 15  1  1  0  0  0  0
 16 15  2  0  0  0  0
 17 11  1  0  0  0  0
 18 12  1  0  0  0  0
 20  6  1  0  0  0  0
 21 20  1  0  0  0  0
 21 26  1  0  0  0  0
 22 21  2  0  0  0  0
 23 24  2  0  0  0  0
 23 22  1  0  0  0  0
 24 25  1  0  0  0  0
 25 20  2  0  0  0  0
 27 22  1  0  0  0  0
 28 29  1  0  0  0  0
 28 24  1  0  0  0  0
 30 28  1  0  0  0  0
 31 28  1  0  0  0  0
M  END
>  <minimizedAffinity>
-5.344841

>  <minimizedRMSD>
0.424289316

$$$$
