
 OpenBabel03212520083D

 13 13  0  0  0  0  0  0  0  0999 V2000
   40.0390   81.9920   60.6520 C   0  0  0  0  0  0  0  0  0  0  0  0
   40.0970   82.9100   59.5920 C   0  0  0  0  0  0  0  0  0  0  0  0
   39.5450   84.1780   59.7680 C   0  0  0  0  0  0  0  0  0  0  0  0
   38.9680   84.4570   60.9860 N   0  0  0  0  0  0  0  0  0  0  0  0
   38.9250   83.5610   61.9860 C   0  0  0  0  0  0  0  0  0  0  0  0
   39.4560   82.3300   61.8280 N   0  0  0  0  0  0  0  0  0  0  0  0
   40.4510   80.9970   60.5700 H   0  0  0  0  0  0  0  0  0  0  0  0
   39.5840   84.8930   58.9600 H   0  0  0  0  0  0  0  0  0  0  0  0
   38.4630   83.8080   62.9380 H   0  0  0  0  0  0  0  0  0  0  0  0
   40.7430   82.5090   58.3150 C   0  0  0  0  0  0  0  0  0  0  0  0
   41.9040   81.8310   58.6380 F   0  0  0  0  0  0  0  0  0  0  0  0
   39.8760   81.7430   57.5700 F   0  0  0  0  0  0  0  0  0  0  0  0
   41.0880   83.6680   57.6340 F   0  0  0  0  0  0  0  0  0  0  0  0
  1  6  1  0  0  0  0
  2  3  1  0  0  0  0
  2  1  2  0  0  0  0
  3  4  2  0  0  0  0
  4  5  1  0  0  0  0
  5  9  1  0  0  0  0
  6  5  2  0  0  0  0
  7  1  1  0  0  0  0
  8  3  1  0  0  0  0
 10 11  1  0  0  0  0
 10  2  1  0  0  0  0
 12 10  1  0  0  0  0
 13 10  1  0  0  0  0
M  END
>  <minimizedAffinity>
-3.89783096

>  <minimizedRMSD>
0.521475315

$$$$
