
 OpenBabel03212520123D

 26 27  0  0  0  0  0  0  0  0999 V2000
   43.0190   83.0220   59.6420 Cl  0  0  0  0  0  0  0  0  0  0  0  0
   41.6410   83.1160   60.7380 C   0  0  0  0  0  0  0  0  0  0  0  0
   40.4530   82.4440   60.4990 C   0  0  0  0  0  0  0  0  0  0  0  0
   39.4650   82.6240   61.4630 C   0  0  0  0  0  0  0  0  0  0  0  0
   39.5810   83.3970   62.5980 C   0  0  0  0  0  0  0  0  0  0  0  0
   40.7660   84.0370   62.7880 C   0  0  0  0  0  0  0  0  0  0  0  0
   41.0250   85.0530   64.2070 Cl  0  0  0  0  0  0  0  0  0  0  0  0
   41.7750   83.8930   61.8680 C   0  0  0  0  0  0  0  0  0  0  0  0
   38.5350   82.0860   61.2560 H   0  0  0  0  0  0  0  0  0  0  0  0
   38.7510   83.4760   63.2920 H   0  0  0  0  0  0  0  0  0  0  0  0
   40.2130   82.0840   58.0040 C   0  0  0  0  0  0  0  0  0  0  0  0
   40.3240   81.6460   59.3330 C   0  0  0  0  0  0  0  0  0  0  0  0
   40.3070   80.2640   59.5530 C   0  0  0  0  0  0  0  0  0  0  0  0
   40.1860   79.4410   58.4790 N   0  0  0  0  0  0  0  0  0  0  0  0
   40.0820   79.9030   57.2210 C   0  0  0  0  0  0  0  0  0  0  0  0
   40.0960   81.2190   56.9870 N   0  0  0  0  0  0  0  0  0  0  0  0
   40.2300   83.1580   57.8760 H   0  0  0  0  0  0  0  0  0  0  0  0
   40.3840   79.8190   60.5270 H   0  0  0  0  0  0  0  0  0  0  0  0
   39.9570   78.8610   56.1550 C   0  0  0  0  0  0  0  0  0  0  0  0
   40.7640   77.7660   56.4120 F   0  0  0  0  0  0  0  0  0  0  0  0
   38.6530   78.4130   56.0950 F   0  0  0  0  0  0  0  0  0  0  0  0
   40.3600   79.3500   54.9240 F   0  0  0  0  0  0  0  0  0  0  0  0
   43.0630   84.6160   62.1180 C   0  0  0  0  0  0  0  0  0  0  0  0
   43.5870   85.1310   60.9670 F   0  0  0  0  0  0  0  0  0  0  0  0
   43.9730   83.7250   62.6270 F   0  0  0  0  0  0  0  0  0  0  0  0
   42.8720   85.6100   63.0500 F   0  0  0  0  0  0  0  0  0  0  0  0
  1  2  1  0  0  0  0
  2  8  1  0  0  0  0
  3  2  2  0  0  0  0
  3  4  1  0  0  0  0
  4  5  2  0  0  0  0
  5  6  1  0  0  0  0
  5 10  1  0  0  0  0
  6  7  1  0  0  0  0
  8 23  1  0  0  0  0
  8  6  2  0  0  0  0
  9  4  1  0  0  0  0
 11 12  1  0  0  0  0
 12 13  2  0  0  0  0
 12  3  1  0  0  0  0
 13 18  1  0  0  0  0
 14 13  1  0  0  0  0
 15 14  2  0  0  0  0
 16 15  1  0  0  0  0
 16 11  2  0  0  0  0
 17 11  1  0  0  0  0
 19 20  1  0  0  0  0
 19 15  1  0  0  0  0
 21 19  1  0  0  0  0
 22 19  1  0  0  0  0
 23 25  1  0  0  0  0
 23 26  1  0  0  0  0
 24 23  1  0  0  0  0
M  END
>  <minimizedAffinity>
-4.93342638

>  <minimizedRMSD>
6.99298191

$$$$
