
 OpenBabel03212520483D

 23 24  0  0  0  0  0  0  0  0999 V2000
   41.6470   83.8650   61.5320 C   0  0  0  0  0  0  0  0  0  0  0  0
   41.2630   84.2690   62.7830 C   0  0  0  0  0  0  0  0  0  0  0  0
   40.7700   83.3860   63.7400 C   0  0  0  0  0  0  0  0  0  0  0  0
   40.6660   82.0720   63.4160 N   0  0  0  0  0  0  0  0  0  0  0  0
   41.0410   81.6810   62.1940 C   0  0  0  0  0  0  0  0  0  0  0  0
   41.5220   82.5610   61.2680 N   0  0  0  0  0  0  0  0  0  0  0  0
   41.3370   85.3130   63.0660 H   0  0  0  0  0  0  0  0  0  0  0  0
   40.4790   83.7520   64.7200 H   0  0  0  0  0  0  0  0  0  0  0  0
   43.6610   86.4240   59.8700 C   0  0  0  0  0  0  0  0  0  0  0  0
   43.0450   86.5130   58.6260 C   0  0  0  0  0  0  0  0  0  0  0  0
   41.9530   85.7100   58.3490 C   0  0  0  0  0  0  0  0  0  0  0  0
   41.5480   84.8680   59.3420 N   0  0  0  0  0  0  0  0  0  0  0  0
   42.1620   84.8030   60.5360 C   0  0  0  0  0  0  0  0  0  0  0  0
   43.2060   85.5650   60.8110 N   0  0  0  0  0  0  0  0  0  0  0  0
   44.7680   87.3080   60.0080 N   0  0  0  0  0  0  0  0  0  0  0  0
   43.3350   87.1620   57.8250 H   0  0  0  0  0  0  0  0  0  0  0  0
   41.4270   85.7210   57.4180 H   0  0  0  0  0  0  0  0  0  0  0  0
   45.7130   87.3690   59.5910 H   0  0  0  0  0  0  0  0  0  0  0  0
   44.4780   88.0300   60.7070 H   0  0  0  0  0  0  0  0  0  0  0  0
   40.9190   80.2270   61.8540 C   0  0  0  0  0  0  0  0  0  0  0  0
   42.0810   79.7710   61.2550 F   0  0  0  0  0  0  0  0  0  0  0  0
   39.8720   80.0070   60.9620 F   0  0  0  0  0  0  0  0  0  0  0  0
   40.7170   79.4310   62.9460 F   0  0  0  0  0  0  0  0  0  0  0  0
  1  2  1  0  0  0  0
  2  7  1  0  0  0  0
  2  3  2  0  0  0  0
  3  8  1  0  0  0  0
  4  3  1  0  0  0  0
  5  4  2  0  0  0  0
  6  1  2  0  0  0  0
  6  5  1  0  0  0  0
  9 15  1  0  0  0  0
  9 14  1  0  0  0  0
 10  9  2  0  0  0  0
 11 10  1  0  0  0  0
 11 12  2  0  0  0  0
 12 13  1  0  0  0  0
 13 14  2  0  0  0  0
 13  1  1  0  0  0  0
 15 19  1  0  0  0  0
 16 10  1  0  0  0  0
 17 11  1  0  0  0  0
 18 15  1  0  0  0  0
 20  5  1  0  0  0  0
 20 23  1  0  0  0  0
 21 20  1  0  0  0  0
 22 20  1  0  0  0  0
M  END
>  <minimizedAffinity>
-4.99142313

>  <minimizedRMSD>
0.34630394

$$$$
