
 OpenBabel03212520343D

 29 31  0  0  0  0  0  0  0  0999 V2000
   40.7970   73.4170   60.7810 C   0  0  0  0  0  0  0  0  0  0  0  0
   39.4800   73.4970   61.2480 C   0  0  0  0  0  0  0  0  0  0  0  0
   38.6840   74.6150   61.1050 C   0  0  0  0  0  0  0  0  0  0  0  0
   39.1880   75.7300   60.4740 C   0  0  0  0  0  0  0  0  0  0  0  0
   40.4870   75.6690   60.0060 C   0  0  0  0  0  0  0  0  0  0  0  0
   41.1000   76.7270   59.3640 C   0  0  0  0  0  0  0  0  0  0  0  0
   42.3990   76.6570   58.9110 C   0  0  0  0  0  0  0  0  0  0  0  0
   43.1560   75.5170   59.0780 C   0  0  0  0  0  0  0  0  0  0  0  0
   42.5670   74.4400   59.7160 C   0  0  0  0  0  0  0  0  0  0  0  0
   41.2640   74.5430   60.1580 C   0  0  0  0  0  0  0  0  0  0  0  0
   39.0040   72.6560   61.7610 H   0  0  0  0  0  0  0  0  0  0  0  0
   37.6680   74.6320   61.4840 H   0  0  0  0  0  0  0  0  0  0  0  0
   38.6200   76.6220   60.3350 H   0  0  0  0  0  0  0  0  0  0  0  0
   40.5130   77.6470   59.2200 H   0  0  0  0  0  0  0  0  0  0  0  0
   42.7840   77.5420   58.4210 H   0  0  0  0  0  0  0  0  0  0  0  0
   44.1770   75.5030   58.7060 H   0  0  0  0  0  0  0  0  0  0  0  0
   43.1710   73.5510   59.8350 H   0  0  0  0  0  0  0  0  0  0  0  0
   41.7430   71.1010   60.1430 C   0  0  0  0  0  0  0  0  0  0  0  0
   41.4530   72.1380   61.0250 C   0  0  0  0  0  0  0  0  0  0  0  0
   41.8250   71.9820   62.3870 C   0  0  0  0  0  0  0  0  0  0  0  0
   42.4420   70.8320   62.7590 N   0  0  0  0  0  0  0  0  0  0  0  0
   42.7070   69.8430   61.8680 C   0  0  0  0  0  0  0  0  0  0  0  0
   42.3560   69.9980   60.5920 N   0  0  0  0  0  0  0  0  0  0  0  0
   41.4290   71.3150   59.1300 H   0  0  0  0  0  0  0  0  0  0  0  0
   41.6510   72.7150   63.1600 H   0  0  0  0  0  0  0  0  0  0  0  0
   43.3790   68.6240   62.3370 C   0  0  0  0  0  0  0  0  0  0  0  0
   42.5430   67.5620   62.5590 F   0  0  0  0  0  0  0  0  0  0  0  0
   44.3300   68.2080   61.4020 F   0  0  0  0  0  0  0  0  0  0  0  0
   44.0790   68.9270   63.4860 F   0  0  0  0  0  0  0  0  0  0  0  0
  1 19  1  0  0  0  0
  1  2  1  0  0  0  0
  2 11  1  0  0  0  0
  3  2  2  0  0  0  0
  3 12  1  0  0  0  0
  4  3  1  0  0  0  0
  5 10  1  0  0  0  0
  5  4  2  0  0  0  0
  6  5  1  0  0  0  0
  7  8  1  0  0  0  0
  7  6  2  0  0  0  0
  8  9  2  0  0  0  0
  9 17  1  0  0  0  0
  9 10  1  0  0  0  0
 10  1  2  0  0  0  0
 13  4  1  0  0  0  0
 14  6  1  0  0  0  0
 15  7  1  0  0  0  0
 16  8  1  0  0  0  0
 18 23  2  0  0  0  0
 18 19  1  0  0  0  0
 19 20  2  0  0  0  0
 20 21  1  0  0  0  0
 20 25  1  0  0  0  0
 22 26  1  0  0  0  0
 22 21  2  0  0  0  0
 23 22  1  0  0  0  0
 24 18  1  0  0  0  0
 26 27  1  0  0  0  0
 26 29  1  0  0  0  0
 28 26  1  0  0  0  0
M  END
>  <minimizedAffinity>
-6.07933521

$$$$

 OpenBabel03212520343D

 29 31  0  0  0  0  0  0  0  0999 V2000
   42.2370   73.0820   60.6970 C   0  0  0  0  0  0  0  0  0  0  0  0
   43.5070   73.3010   60.1520 C   0  0  0  0  0  0  0  0  0  0  0  0
   43.8700   74.4610   59.4990 C   0  0  0  0  0  0  0  0  0  0  0  0
   42.9510   75.4760   59.3590 C   0  0  0  0  0  0  0  0  0  0  0  0
   41.6910   75.2770   59.8910 C   0  0  0  0  0  0  0  0  0  0  0  0
   40.6870   76.2220   59.8040 C   0  0  0  0  0  0  0  0  0  0  0  0
   39.4320   76.0080   60.3300 C   0  0  0  0  0  0  0  0  0  0  0  0
   39.1150   74.8310   60.9740 C   0  0  0  0  0  0  0  0  0  0  0  0
   40.1030   73.8670   61.0780 C   0  0  0  0  0  0  0  0  0  0  0  0
   41.3490   74.1130   60.5390 C   0  0  0  0  0  0  0  0  0  0  0  0
   44.2940   72.5450   60.2200 H   0  0  0  0  0  0  0  0  0  0  0  0
   44.8680   74.5860   59.0920 H   0  0  0  0  0  0  0  0  0  0  0  0
   43.1750   76.3940   58.8640 H   0  0  0  0  0  0  0  0  0  0  0  0
   40.9180   77.1690   59.2940 H   0  0  0  0  0  0  0  0  0  0  0  0
   38.7180   76.8120   60.2080 H   0  0  0  0  0  0  0  0  0  0  0  0
   38.1130   74.7020   61.3750 H   0  0  0  0  0  0  0  0  0  0  0  0
   39.8420   72.9510   61.5900 H   0  0  0  0  0  0  0  0  0  0  0  0
   41.9040   71.4940   62.7060 C   0  0  0  0  0  0  0  0  0  0  0  0
   42.0700   71.7920   61.3560 C   0  0  0  0  0  0  0  0  0  0  0  0
   42.0940   70.7150   60.4300 C   0  0  0  0  0  0  0  0  0  0  0  0
   41.9550   69.4520   60.9080 N   0  0  0  0  0  0  0  0  0  0  0  0
   41.7950   69.2020   62.2330 C   0  0  0  0  0  0  0  0  0  0  0  0
   41.7730   70.2180   63.0930 N   0  0  0  0  0  0  0  0  0  0  0  0
   41.8920   72.3780   63.3290 H   0  0  0  0  0  0  0  0  0  0  0  0
   42.2170   70.8230   59.3630 H   0  0  0  0  0  0  0  0  0  0  0  0
   41.6500   67.8110   62.6820 C   0  0  0  0  0  0  0  0  0  0  0  0
   41.5740   66.8900   61.6710 F   0  0  0  0  0  0  0  0  0  0  0  0
   42.7350   67.4490   63.4850 F   0  0  0  0  0  0  0  0  0  0  0  0
   40.5330   67.7280   63.4870 F   0  0  0  0  0  0  0  0  0  0  0  0
  1 19  1  0  0  0  0
  2 11  1  0  0  0  0
  2  1  2  0  0  0  0
  3  2  1  0  0  0  0
  4  3  2  0  0  0  0
  4  5  1  0  0  0  0
  5 10  1  0  0  0  0
  6  5  2  0  0  0  0
  6  7  1  0  0  0  0
  7  8  2  0  0  0  0
  8  9  1  0  0  0  0
  8 16  1  0  0  0  0
  9 17  1  0  0  0  0
 10  1  1  0  0  0  0
 10  9  2  0  0  0  0
 12  3  1  0  0  0  0
 13  4  1  0  0  0  0
 14  6  1  0  0  0  0
 15  7  1  0  0  0  0
 18 23  1  0  0  0  0
 18 24  1  0  0  0  0
 19 18  2  0  0  0  0
 20 21  2  0  0  0  0
 20 19  1  0  0  0  0
 21 22  1  0  0  0  0
 22 26  1  0  0  0  0
 22 23  2  0  0  0  0
 25 20  1  0  0  0  0
 26 28  1  0  0  0  0
 26 29  1  0  0  0  0
 27 26  1  0  0  0  0
M  END
>  <minimizedAffinity>
-5.79324627

$$$$

 OpenBabel03212520343D

 29 31  0  0  0  0  0  0  0  0999 V2000
   40.4460   73.3700   60.0200 C   0  0  0  0  0  0  0  0  0  0  0  0
   39.2400   73.4540   60.7240 C   0  0  0  0  0  0  0  0  0  0  0  0
   38.6680   74.6430   61.1270 C   0  0  0  0  0  0  0  0  0  0  0  0
   39.2980   75.8310   60.8330 C   0  0  0  0  0  0  0  0  0  0  0  0
   40.4910   75.7690   60.1370 C   0  0  0  0  0  0  0  0  0  0  0  0
   41.2140   76.8950   59.7940 C   0  0  0  0  0  0  0  0  0  0  0  0
   42.4070   76.8180   59.1080 C   0  0  0  0  0  0  0  0  0  0  0  0
   42.9400   75.6050   58.7280 C   0  0  0  0  0  0  0  0  0  0  0  0
   42.2350   74.4600   59.0570 C   0  0  0  0  0  0  0  0  0  0  0  0
   41.0440   74.5710   59.7450 C   0  0  0  0  0  0  0  0  0  0  0  0
   38.6770   72.5570   60.9980 H   0  0  0  0  0  0  0  0  0  0  0  0
   37.7310   74.6580   61.6720 H   0  0  0  0  0  0  0  0  0  0  0  0
   38.9040   76.7810   61.1180 H   0  0  0  0  0  0  0  0  0  0  0  0
   40.8070   77.8740   60.0870 H   0  0  0  0  0  0  0  0  0  0  0  0
   42.8940   77.7590   58.8890 H   0  0  0  0  0  0  0  0  0  0  0  0
   43.8830   75.5890   58.1890 H   0  0  0  0  0  0  0  0  0  0  0  0
   42.6620   73.5160   58.7480 H   0  0  0  0  0  0  0  0  0  0  0  0
   41.7490   71.1640   60.3370 C   0  0  0  0  0  0  0  0  0  0  0  0
   40.8630   72.0150   59.6820 C   0  0  0  0  0  0  0  0  0  0  0  0
   40.2430   71.5480   58.4920 C   0  0  0  0  0  0  0  0  0  0  0  0
   40.5450   70.3000   58.0540 N   0  0  0  0  0  0  0  0  0  0  0  0
   41.4150   69.5000   58.7220 C   0  0  0  0  0  0  0  0  0  0  0  0
   41.9910   69.9450   59.8380 N   0  0  0  0  0  0  0  0  0  0  0  0
   42.1630   71.6040   61.2340 H   0  0  0  0  0  0  0  0  0  0  0  0
   39.5420   72.1170   57.9000 H   0  0  0  0  0  0  0  0  0  0  0  0
   41.6970   68.1590   58.1940 C   0  0  0  0  0  0  0  0  0  0  0  0
   41.3380   67.1310   59.0250 F   0  0  0  0  0  0  0  0  0  0  0  0
   41.0210   67.9650   56.9870 F   0  0  0  0  0  0  0  0  0  0  0  0
   43.0420   68.0820   57.8950 F   0  0  0  0  0  0  0  0  0  0  0  0
  1  2  1  0  0  0  0
  2 11  1  0  0  0  0
  2  3  2  0  0  0  0
  3 12  1  0  0  0  0
  4 13  1  0  0  0  0
  4  3  1  0  0  0  0
  5  4  2  0  0  0  0
  6 14  1  0  0  0  0
  6  5  1  0  0  0  0
  7  6  2  0  0  0  0
  8  9  2  0  0  0  0
  8  7  1  0  0  0  0
  9 10  1  0  0  0  0
 10  1  2  0  0  0  0
 10  5  1  0  0  0  0
 15  7  1  0  0  0  0
 16  8  1  0  0  0  0
 17  9  1  0  0  0  0
 18 24  1  0  0  0  0
 19  1  1  0  0  0  0
 19 18  2  0  0  0  0
 20 19  1  0  0  0  0
 21 20  2  0  0  0  0
 21 22  1  0  0  0  0
 22 23  2  0  0  0  0
 23 18  1  0  0  0  0
 25 20  1  0  0  0  0
 26 22  1  0  0  0  0
 26 27  1  0  0  0  0
 28 26  1  0  0  0  0
 29 26  1  0  0  0  0
M  END
>  <minimizedAffinity>
-5.69452238

$$$$

 OpenBabel03212520343D

 29 31  0  0  0  0  0  0  0  0999 V2000
   41.9950   71.0220   61.0580 C   0  0  0  0  0  0  0  0  0  0  0  0
   42.5860   70.8180   62.3100 C   0  0  0  0  0  0  0  0  0  0  0  0
   43.1050   69.6080   62.7250 C   0  0  0  0  0  0  0  0  0  0  0  0
   43.0490   68.5220   61.8800 C   0  0  0  0  0  0  0  0  0  0  0  0
   42.4690   68.7050   60.6390 C   0  0  0  0  0  0  0  0  0  0  0  0
   42.3520   67.6870   59.7120 C   0  0  0  0  0  0  0  0  0  0  0  0
   41.7620   67.8790   58.4830 C   0  0  0  0  0  0  0  0  0  0  0  0
   41.2570   69.1080   58.1130 C   0  0  0  0  0  0  0  0  0  0  0  0
   41.3630   70.1470   59.0210 C   0  0  0  0  0  0  0  0  0  0  0  0
   41.9580   69.9210   60.2450 C   0  0  0  0  0  0  0  0  0  0  0  0
   42.6690   71.6280   63.0400 H   0  0  0  0  0  0  0  0  0  0  0  0
   43.5530   69.4970   63.7050 H   0  0  0  0  0  0  0  0  0  0  0  0
   43.4330   67.5630   62.1450 H   0  0  0  0  0  0  0  0  0  0  0  0
   42.7490   66.6970   59.9870 H   0  0  0  0  0  0  0  0  0  0  0  0
   41.7210   67.0160   57.8310 H   0  0  0  0  0  0  0  0  0  0  0  0
   40.8000   69.2170   57.1340 H   0  0  0  0  0  0  0  0  0  0  0  0
   40.9670   71.1060   58.7160 H   0  0  0  0  0  0  0  0  0  0  0  0
   42.0880   73.4000   60.0570 C   0  0  0  0  0  0  0  0  0  0  0  0
   41.5250   72.3810   60.8200 C   0  0  0  0  0  0  0  0  0  0  0  0
   40.3060   72.6490   61.4980 C   0  0  0  0  0  0  0  0  0  0  0  0
   39.7540   73.8820   61.3690 N   0  0  0  0  0  0  0  0  0  0  0  0
   40.3350   74.8500   60.6160 C   0  0  0  0  0  0  0  0  0  0  0  0
   41.4780   74.5900   59.9820 N   0  0  0  0  0  0  0  0  0  0  0  0
   43.0090   73.0990   59.5750 H   0  0  0  0  0  0  0  0  0  0  0  0
   39.7780   71.9390   62.1170 H   0  0  0  0  0  0  0  0  0  0  0  0
   39.6850   76.1630   60.5190 C   0  0  0  0  0  0  0  0  0  0  0  0
   40.5460   77.2160   60.3580 F   0  0  0  0  0  0  0  0  0  0  0  0
   38.8040   76.1850   59.4340 F   0  0  0  0  0  0  0  0  0  0  0  0
   38.9090   76.3490   61.6440 F   0  0  0  0  0  0  0  0  0  0  0  0
  1  2  1  0  0  0  0
  2  3  2  0  0  0  0
  2 11  1  0  0  0  0
  3 12  1  0  0  0  0
  4 13  1  0  0  0  0
  4  3  1  0  0  0  0
  5  4  2  0  0  0  0
  6 14  1  0  0  0  0
  6  5  1  0  0  0  0
  7  6  2  0  0  0  0
  8  7  1  0  0  0  0
  8  9  2  0  0  0  0
  9 10  1  0  0  0  0
 10  5  1  0  0  0  0
 10  1  2  0  0  0  0
 15  7  1  0  0  0  0
 16  8  1  0  0  0  0
 17  9  1  0  0  0  0
 18 19  1  0  0  0  0
 19  1  1  0  0  0  0
 19 20  2  0  0  0  0
 20 25  1  0  0  0  0
 21 20  1  0  0  0  0
 22 21  2  0  0  0  0
 23 18  2  0  0  0  0
 23 22  1  0  0  0  0
 24 18  1  0  0  0  0
 26 22  1  0  0  0  0
 26 29  1  0  0  0  0
 27 26  1  0  0  0  0
 28 26  1  0  0  0  0
M  END
>  <minimizedAffinity>
-5.59048843

$$$$

 OpenBabel03212520343D

 29 31  0  0  0  0  0  0  0  0999 V2000
   42.3220   75.4610   59.5530 C   0  0  0  0  0  0  0  0  0  0  0  0
   42.2750   76.8420   59.3370 C   0  0  0  0  0  0  0  0  0  0  0  0
   41.1810   77.6290   59.6340 C   0  0  0  0  0  0  0  0  0  0  0  0
   40.0560   77.0470   60.1750 C   0  0  0  0  0  0  0  0  0  0  0  0
   40.0840   75.6830   60.3960 C   0  0  0  0  0  0  0  0  0  0  0  0
   39.0120   74.9910   60.9260 C   0  0  0  0  0  0  0  0  0  0  0  0
   39.0490   73.6290   61.1330 C   0  0  0  0  0  0  0  0  0  0  0  0
   40.1660   72.8850   60.8180 C   0  0  0  0  0  0  0  0  0  0  0  0
   41.2560   73.5530   60.2870 C   0  0  0  0  0  0  0  0  0  0  0  0
   41.1860   74.9170   60.0920 C   0  0  0  0  0  0  0  0  0  0  0  0
   43.1260   77.3820   58.9100 H   0  0  0  0  0  0  0  0  0  0  0  0
   41.1910   78.6970   59.4490 H   0  0  0  0  0  0  0  0  0  0  0  0
   39.1810   77.6030   60.4250 H   0  0  0  0  0  0  0  0  0  0  0  0
   38.1100   75.5650   61.1850 H   0  0  0  0  0  0  0  0  0  0  0  0
   38.1560   73.1850   61.5530 H   0  0  0  0  0  0  0  0  0  0  0  0
   40.1530   71.8140   60.9970 H   0  0  0  0  0  0  0  0  0  0  0  0
   42.1270   72.9580   60.0500 H   0  0  0  0  0  0  0  0  0  0  0  0
   44.4840   74.1080   59.9580 C   0  0  0  0  0  0  0  0  0  0  0  0
   43.5810   74.8270   59.1800 C   0  0  0  0  0  0  0  0  0  0  0  0
   43.8790   75.0080   57.8030 C   0  0  0  0  0  0  0  0  0  0  0  0
   45.0280   74.4720   57.3170 N   0  0  0  0  0  0  0  0  0  0  0  0
   45.8840   73.7780   58.1100 C   0  0  0  0  0  0  0  0  0  0  0  0
   45.5960   73.6130   59.4000 N   0  0  0  0  0  0  0  0  0  0  0  0
   44.1670   74.0190   60.9890 H   0  0  0  0  0  0  0  0  0  0  0  0
   43.2560   75.5450   57.1040 H   0  0  0  0  0  0  0  0  0  0  0  0
   47.1100   73.2250   57.5190 C   0  0  0  0  0  0  0  0  0  0  0  0
   46.9530   72.0050   56.9180 F   0  0  0  0  0  0  0  0  0  0  0  0
   47.6140   74.0980   56.5510 F   0  0  0  0  0  0  0  0  0  0  0  0
   48.0730   73.1500   58.5050 F   0  0  0  0  0  0  0  0  0  0  0  0
  1 10  1  0  0  0  0
  2  1  2  0  0  0  0
  2  3  1  0  0  0  0
  3  4  2  0  0  0  0
  4  5  1  0  0  0  0
  4 13  1  0  0  0  0
  5  6  1  0  0  0  0
  6  7  2  0  0  0  0
  6 14  1  0  0  0  0
  7 15  1  0  0  0  0
  8 16  1  0  0  0  0
  8  7  1  0  0  0  0
  9  8  2  0  0  0  0
 10  9  1  0  0  0  0
 10  5  2  0  0  0  0
 11  2  1  0  0  0  0
 12  3  1  0  0  0  0
 17  9  1  0  0  0  0
 18 24  1  0  0  0  0
 19  1  1  0  0  0  0
 19 18  2  0  0  0  0
 20 19  1  0  0  0  0
 21 20  2  0  0  0  0
 21 22  1  0  0  0  0
 22 23  2  0  0  0  0
 23 18  1  0  0  0  0
 25 20  1  0  0  0  0
 26 22  1  0  0  0  0
 26 29  1  0  0  0  0
 27 26  1  0  0  0  0
 28 26  1  0  0  0  0
M  END
>  <minimizedAffinity>
-5.4831953

$$$$

 OpenBabel03212520343D

 29 31  0  0  0  0  0  0  0  0999 V2000
   42.1340   73.6460   59.5480 C   0  0  0  0  0  0  0  0  0  0  0  0
   43.2070   74.0620   58.7520 C   0  0  0  0  0  0  0  0  0  0  0  0
   43.4140   75.3710   58.3670 C   0  0  0  0  0  0  0  0  0  0  0  0
   42.5280   76.3440   58.7740 C   0  0  0  0  0  0  0  0  0  0  0  0
   41.4620   75.9520   59.5600 C   0  0  0  0  0  0  0  0  0  0  0  0
   40.5070   76.8390   60.0200 C   0  0  0  0  0  0  0  0  0  0  0  0
   39.4440   76.4330   60.7960 C   0  0  0  0  0  0  0  0  0  0  0  0
   39.2790   75.1120   61.1540 C   0  0  0  0  0  0  0  0  0  0  0  0
   40.2220   74.2010   60.7090 C   0  0  0  0  0  0  0  0  0  0  0  0
   41.2750   74.6400   59.9330 C   0  0  0  0  0  0  0  0  0  0  0  0
   43.9550   73.3520   58.3870 H   0  0  0  0  0  0  0  0  0  0  0  0
   44.2600   75.6470   57.7490 H   0  0  0  0  0  0  0  0  0  0  0  0
   42.6360   77.3720   58.5080 H   0  0  0  0  0  0  0  0  0  0  0  0
   40.6200   77.8980   59.7460 H   0  0  0  0  0  0  0  0  0  0  0  0
   38.7530   77.2070   61.1040 H   0  0  0  0  0  0  0  0  0  0  0  0
   38.4260   74.8340   61.7670 H   0  0  0  0  0  0  0  0  0  0  0  0
   40.0830   73.1700   61.0020 H   0  0  0  0  0  0  0  0  0  0  0  0
   41.4920   71.1740   59.1700 C   0  0  0  0  0  0  0  0  0  0  0  0
   42.1140   72.2190   59.8470 C   0  0  0  0  0  0  0  0  0  0  0  0
   42.8520   71.9110   61.0210 C   0  0  0  0  0  0  0  0  0  0  0  0
   42.9140   70.6160   61.4220 N   0  0  0  0  0  0  0  0  0  0  0  0
   42.2930   69.6250   60.7340 C   0  0  0  0  0  0  0  0  0  0  0  0
   41.6030   69.9220   59.6340 N   0  0  0  0  0  0  0  0  0  0  0  0
   40.9610   71.5060   58.2880 H   0  0  0  0  0  0  0  0  0  0  0  0
   43.3750   72.6360   61.6270 H   0  0  0  0  0  0  0  0  0  0  0  0
   42.4000   68.2440   61.2240 C   0  0  0  0  0  0  0  0  0  0  0  0
   43.5020   67.5640   60.7770 F   0  0  0  0  0  0  0  0  0  0  0  0
   42.4490   68.2310   62.6200 F   0  0  0  0  0  0  0  0  0  0  0  0
   41.2490   67.5680   60.8760 F   0  0  0  0  0  0  0  0  0  0  0  0
  1 19  1  0  0  0  0
  1 10  1  0  0  0  0
  2  1  2  0  0  0  0
  3  2  1  0  0  0  0
  3  4  2  0  0  0  0
  4  5  1  0  0  0  0
  5 10  2  0  0  0  0
  5  6  1  0  0  0  0
  6  7  2  0  0  0  0
  7 15  1  0  0  0  0
  7  8  1  0  0  0  0
  8 16  1  0  0  0  0
  9 17  1  0  0  0  0
  9  8  2  0  0  0  0
 10  9  1  0  0  0  0
 11  2  1  0  0  0  0
 12  3  1  0  0  0  0
 13  4  1  0  0  0  0
 14  6  1  0  0  0  0
 18 23  2  0  0  0  0
 18 19  1  0  0  0  0
 19 20  2  0  0  0  0
 20 21  1  0  0  0  0
 20 25  1  0  0  0  0
 22 26  1  0  0  0  0
 22 21  2  0  0  0  0
 23 22  1  0  0  0  0
 24 18  1  0  0  0  0
 26 28  1  0  0  0  0
 27 26  1  0  0  0  0
 29 26  1  0  0  0  0
M  END
>  <minimizedAffinity>
-5.47400522

$$$$

 OpenBabel03212520343D

 29 31  0  0  0  0  0  0  0  0999 V2000
   41.9600   73.5250   59.3000 C   0  0  0  0  0  0  0  0  0  0  0  0
   43.0570   74.0060   58.5770 C   0  0  0  0  0  0  0  0  0  0  0  0
   43.3260   75.3470   58.3940 C   0  0  0  0  0  0  0  0  0  0  0  0
   42.4830   76.2880   58.9420 C   0  0  0  0  0  0  0  0  0  0  0  0
   41.3950   75.8310   59.6610 C   0  0  0  0  0  0  0  0  0  0  0  0
   40.4790   76.6820   60.2490 C   0  0  0  0  0  0  0  0  0  0  0  0
   39.3920   76.2140   60.9550 C   0  0  0  0  0  0  0  0  0  0  0  0
   39.1640   74.8630   61.1100 C   0  0  0  0  0  0  0  0  0  0  0  0
   40.0670   73.9870   60.5320 C   0  0  0  0  0  0  0  0  0  0  0  0
   41.1450   74.4890   59.8310 C   0  0  0  0  0  0  0  0  0  0  0  0
   43.7740   73.3260   58.1080 H   0  0  0  0  0  0  0  0  0  0  0  0
   44.1890   75.6730   57.8240 H   0  0  0  0  0  0  0  0  0  0  0  0
   42.6400   77.3380   58.8340 H   0  0  0  0  0  0  0  0  0  0  0  0
   40.6410   77.7650   60.1380 H   0  0  0  0  0  0  0  0  0  0  0  0
   38.7360   76.9640   61.3760 H   0  0  0  0  0  0  0  0  0  0  0  0
   38.2950   74.5360   61.6740 H   0  0  0  0  0  0  0  0  0  0  0  0
   39.8790   72.9310   60.6660 H   0  0  0  0  0  0  0  0  0  0  0  0
   42.2740   71.2080   60.3960 C   0  0  0  0  0  0  0  0  0  0  0  0
   41.8720   72.0720   59.3810 C   0  0  0  0  0  0  0  0  0  0  0  0
   41.2840   71.5100   58.2160 C   0  0  0  0  0  0  0  0  0  0  0  0
   41.1440   70.1610   58.1520 N   0  0  0  0  0  0  0  0  0  0  0  0
   41.5490   69.3520   59.1640 C   0  0  0  0  0  0  0  0  0  0  0  0
   42.0990   69.8880   60.2520 N   0  0  0  0  0  0  0  0  0  0  0  0
   42.7030   71.7290   61.2410 H   0  0  0  0  0  0  0  0  0  0  0  0
   40.9360   72.0780   57.3670 H   0  0  0  0  0  0  0  0  0  0  0  0
   41.3680   67.9000   59.0300 C   0  0  0  0  0  0  0  0  0  0  0  0
   40.6240   67.5160   57.9460 F   0  0  0  0  0  0  0  0  0  0  0  0
   42.6100   67.2690   58.9190 F   0  0  0  0  0  0  0  0  0  0  0  0
   40.7980   67.4230   60.1920 F   0  0  0  0  0  0  0  0  0  0  0  0
  1 19  1  0  0  0  0
  1 10  1  0  0  0  0
  2  1  2  0  0  0  0
  3  2  1  0  0  0  0
  3  4  2  0  0  0  0
  4  5  1  0  0  0  0
  5 10  2  0  0  0  0
  5  6  1  0  0  0  0
  6  7  2  0  0  0  0
  7  8  1  0  0  0  0
  7 15  1  0  0  0  0
  8 16  1  0  0  0  0
  9 17  1  0  0  0  0
  9  8  2  0  0  0  0
 10  9  1  0  0  0  0
 11  2  1  0  0  0  0
 12  3  1  0  0  0  0
 13  4  1  0  0  0  0
 14  6  1  0  0  0  0
 18 24  1  0  0  0  0
 19 18  2  0  0  0  0
 20 19  1  0  0  0  0
 21 20  2  0  0  0  0
 21 22  1  0  0  0  0
 22 23  2  0  0  0  0
 23 18  1  0  0  0  0
 25 20  1  0  0  0  0
 26 22  1  0  0  0  0
 26 29  1  0  0  0  0
 27 26  1  0  0  0  0
 28 26  1  0  0  0  0
M  END
>  <minimizedAffinity>
-5.4715786

$$$$

 OpenBabel03212520343D

 29 31  0  0  0  0  0  0  0  0999 V2000
   42.1740   73.3880   59.6430 C   0  0  0  0  0  0  0  0  0  0  0  0
   43.3070   73.8100   58.9380 C   0  0  0  0  0  0  0  0  0  0  0  0
   43.5530   75.1240   58.5990 C   0  0  0  0  0  0  0  0  0  0  0  0
   42.6500   76.0980   58.9610 C   0  0  0  0  0  0  0  0  0  0  0  0
   41.5250   75.7000   59.6580 C   0  0  0  0  0  0  0  0  0  0  0  0
   40.5480   76.5870   60.0670 C   0  0  0  0  0  0  0  0  0  0  0  0
   39.4260   76.1770   60.7540 C   0  0  0  0  0  0  0  0  0  0  0  0
   39.2230   74.8500   61.0690 C   0  0  0  0  0  0  0  0  0  0  0  0
   40.1870   73.9390   60.6740 C   0  0  0  0  0  0  0  0  0  0  0  0
   41.2980   74.3830   59.9870 C   0  0  0  0  0  0  0  0  0  0  0  0
   44.0730   73.0990   58.6120 H   0  0  0  0  0  0  0  0  0  0  0  0
   44.4460   75.4040   58.0500 H   0  0  0  0  0  0  0  0  0  0  0  0
   42.7870   77.1300   58.7270 H   0  0  0  0  0  0  0  0  0  0  0  0
   40.6900   77.6520   59.8260 H   0  0  0  0  0  0  0  0  0  0  0  0
   38.7220   76.9520   61.0270 H   0  0  0  0  0  0  0  0  0  0  0  0
   38.3240   74.5690   61.6110 H   0  0  0  0  0  0  0  0  0  0  0  0
   40.0170   72.9030   60.9320 H   0  0  0  0  0  0  0  0  0  0  0  0
   42.5440   71.2360   61.0210 C   0  0  0  0  0  0  0  0  0  0  0  0
   42.1180   71.9550   59.9080 C   0  0  0  0  0  0  0  0  0  0  0  0
   41.5360   71.2380   58.8290 C   0  0  0  0  0  0  0  0  0  0  0  0
   41.4250   69.8890   58.9370 N   0  0  0  0  0  0  0  0  0  0  0  0
   41.8530   69.2240   60.0400 C   0  0  0  0  0  0  0  0  0  0  0  0
   42.3970   69.9050   61.0470 N   0  0  0  0  0  0  0  0  0  0  0  0
   42.9660   71.8690   61.7900 H   0  0  0  0  0  0  0  0  0  0  0  0
   41.1710   71.6860   57.9170 H   0  0  0  0  0  0  0  0  0  0  0  0
   41.7030   67.7630   60.0930 C   0  0  0  0  0  0  0  0  0  0  0  0
   40.7950   67.3160   61.0150 F   0  0  0  0  0  0  0  0  0  0  0  0
   41.2950   67.2770   58.8470 F   0  0  0  0  0  0  0  0  0  0  0  0
   42.9410   67.2060   60.3340 F   0  0  0  0  0  0  0  0  0  0  0  0
  1 19  1  0  0  0  0
  1 10  1  0  0  0  0
  2  1  2  0  0  0  0
  3  2  1  0  0  0  0
  3  4  2  0  0  0  0
  4  5  1  0  0  0  0
  5 10  2  0  0  0  0
  5  6  1  0  0  0  0
  6  7  2  0  0  0  0
  7 15  1  0  0  0  0
  7  8  1  0  0  0  0
  8 16  1  0  0  0  0
  9 17  1  0  0  0  0
  9  8  2  0  0  0  0
 10  9  1  0  0  0  0
 11  2  1  0  0  0  0
 12  3  1  0  0  0  0
 13  4  1  0  0  0  0
 14  6  1  0  0  0  0
 18 23  1  0  0  0  0
 18 24  1  0  0  0  0
 19 18  2  0  0  0  0
 20 21  2  0  0  0  0
 20 19  1  0  0  0  0
 21 22  1  0  0  0  0
 22 26  1  0  0  0  0
 22 23  2  0  0  0  0
 25 20  1  0  0  0  0
 26 29  1  0  0  0  0
 26 27  1  0  0  0  0
 28 26  1  0  0  0  0
M  END
>  <minimizedAffinity>
-5.45622444

$$$$

 OpenBabel03212520343D

 29 31  0  0  0  0  0  0  0  0999 V2000
   41.7290   73.6710   58.9670 C   0  0  0  0  0  0  0  0  0  0  0  0
   42.8390   74.1740   58.2810 C   0  0  0  0  0  0  0  0  0  0  0  0
   43.1950   75.5080   58.2720 C   0  0  0  0  0  0  0  0  0  0  0  0
   42.4300   76.4170   58.9680 C   0  0  0  0  0  0  0  0  0  0  0  0
   41.3300   75.9380   59.6520 C   0  0  0  0  0  0  0  0  0  0  0  0
   40.4870   76.7580   60.3780 C   0  0  0  0  0  0  0  0  0  0  0  0
   39.3870   76.2690   61.0480 C   0  0  0  0  0  0  0  0  0  0  0  0
   39.0710   74.9270   61.0270 C   0  0  0  0  0  0  0  0  0  0  0  0
   39.9000   74.0820   60.3090 C   0  0  0  0  0  0  0  0  0  0  0  0
   40.9930   74.6030   59.6490 C   0  0  0  0  0  0  0  0  0  0  0  0
   43.4980   73.5190   57.7030 H   0  0  0  0  0  0  0  0  0  0  0  0
   44.0650   75.8520   57.7240 H   0  0  0  0  0  0  0  0  0  0  0  0
   42.6560   77.4590   58.9970 H   0  0  0  0  0  0  0  0  0  0  0  0
   40.7200   77.8330   60.4080 H   0  0  0  0  0  0  0  0  0  0  0  0
   38.7930   76.9950   61.5860 H   0  0  0  0  0  0  0  0  0  0  0  0
   38.1950   74.5830   61.5690 H   0  0  0  0  0  0  0  0  0  0  0  0
   39.6430   73.0310   60.3060 H   0  0  0  0  0  0  0  0  0  0  0  0
   40.7470   71.4970   57.9790 C   0  0  0  0  0  0  0  0  0  0  0  0
   41.5440   72.2290   58.8550 C   0  0  0  0  0  0  0  0  0  0  0  0
   42.3150   71.5170   59.8120 C   0  0  0  0  0  0  0  0  0  0  0  0
   42.2360   70.1620   59.8250 N   0  0  0  0  0  0  0  0  0  0  0  0
   41.4450   69.4850   58.9540 C   0  0  0  0  0  0  0  0  0  0  0  0
   40.7260   70.1600   58.0590 N   0  0  0  0  0  0  0  0  0  0  0  0
   40.2040   72.1250   57.2860 H   0  0  0  0  0  0  0  0  0  0  0  0
   42.9680   71.9750   60.5400 H   0  0  0  0  0  0  0  0  0  0  0  0
   41.4060   68.0180   59.0230 C   0  0  0  0  0  0  0  0  0  0  0  0
   40.8880   67.5150   60.1860 F   0  0  0  0  0  0  0  0  0  0  0  0
   40.6330   67.5080   57.9760 F   0  0  0  0  0  0  0  0  0  0  0  0
   42.6840   67.5380   58.8230 F   0  0  0  0  0  0  0  0  0  0  0  0
  1 10  1  0  0  0  0
  2  1  2  0  0  0  0
  3  2  1  0  0  0  0
  3  4  2  0  0  0  0
  4 13  1  0  0  0  0
  4  5  1  0  0  0  0
  5  6  1  0  0  0  0
  6 14  1  0  0  0  0
  6  7  2  0  0  0  0
  7 15  1  0  0  0  0
  8  7  1  0  0  0  0
  8 16  1  0  0  0  0
  9  8  2  0  0  0  0
 10  5  2  0  0  0  0
 10  9  1  0  0  0  0
 11  2  1  0  0  0  0
 12  3  1  0  0  0  0
 17  9  1  0  0  0  0
 18 23  2  0  0  0  0
 18 19  1  0  0  0  0
 19  1  1  0  0  0  0
 19 20  2  0  0  0  0
 20 21  1  0  0  0  0
 20 25  1  0  0  0  0
 22 26  1  0  0  0  0
 22 21  2  0  0  0  0
 23 22  1  0  0  0  0
 24 18  1  0  0  0  0
 26 27  1  0  0  0  0
 28 26  1  0  0  0  0
 29 26  1  0  0  0  0
M  END
>  <minimizedAffinity>
-5.40304804

$$$$
