
 OpenBabel03212520293D

 23 24  0  0  0  0  0  0  0  0999 V2000
   39.4740   82.6570   61.5060 C   0  0  0  0  0  0  0  0  0  0  0  0
   40.5930   82.2320   60.7700 C   0  0  0  0  0  0  0  0  0  0  0  0
   41.8640   82.5050   61.2910 C   0  0  0  0  0  0  0  0  0  0  0  0
   41.9400   83.1670   62.4820 N   0  0  0  0  0  0  0  0  0  0  0  0
   40.8510   83.5560   63.1510 C   0  0  0  0  0  0  0  0  0  0  0  0
   39.6170   83.3020   62.6660 N   0  0  0  0  0  0  0  0  0  0  0  0
   38.4880   82.4400   61.0930 H   0  0  0  0  0  0  0  0  0  0  0  0
   42.7250   82.1770   60.7230 H   0  0  0  0  0  0  0  0  0  0  0  0
   40.4180   81.5430   59.5310 N   0  0  0  0  0  0  0  0  0  0  0  0
   40.3090   80.2290   59.6490 C   0  0  0  0  0  0  0  0  0  0  0  0
   40.1350   79.4720   58.4970 C   0  0  0  0  0  0  0  0  0  0  0  0
   40.0830   80.1120   57.2620 C   0  0  0  0  0  0  0  0  0  0  0  0
   39.9300   79.5080   56.1730 O   0  0  0  0  0  0  0  0  0  0  0  0
   40.2030   81.4710   57.2170 N   0  0  0  0  0  0  0  0  0  0  0  0
   40.3740   82.2090   58.3550 C   0  0  0  0  0  0  0  0  0  0  0  0
   40.4820   83.4440   58.3170 O   0  0  0  0  0  0  0  0  0  0  0  0
   40.3420   79.6800   60.5650 H   0  0  0  0  0  0  0  0  0  0  0  0
   40.0400   78.3910   58.5260 H   0  0  0  0  0  0  0  0  0  0  0  0
   40.1610   81.9380   56.2750 H   0  0  0  0  0  0  0  0  0  0  0  0
   41.0030   84.2710   64.4370 C   0  0  0  0  0  0  0  0  0  0  0  0
   40.7240   85.6100   64.3490 F   0  0  0  0  0  0  0  0  0  0  0  0
   40.1560   83.7190   65.4040 F   0  0  0  0  0  0  0  0  0  0  0  0
   42.2940   84.0930   64.8950 F   0  0  0  0  0  0  0  0  0  0  0  0
  1  6  1  0  0  0  0
  2  3  1  0  0  0  0
  2  1  2  0  0  0  0
  3  4  2  0  0  0  0
  4  5  1  0  0  0  0
  5 20  1  0  0  0  0
  6  5  2  0  0  0  0
  7  1  1  0  0  0  0
  8  3  1  0  0  0  0
  9 10  1  0  0  0  0
  9  2  1  0  0  0  0
 10 17  1  0  0  0  0
 11 18  1  0  0  0  0
 11 10  2  0  0  0  0
 12 11  1  0  0  0  0
 13 12  2  0  0  0  0
 14 12  1  0  0  0  0
 14 15  1  0  0  0  0
 15  9  1  0  0  0  0
 16 15  2  0  0  0  0
 19 14  1  0  0  0  0
 20 23  1  0  0  0  0
 20 22  1  0  0  0  0
 21 20  1  0  0  0  0
M  END
>  <minimizedAffinity>
-5.11762476

>  <minimizedRMSD>
2.29082227

$$$$
