
 OpenBabel03212521053D

 31 33  0  0  0  0  0  0  0  0999 V2000
   41.8030   84.2360   61.5530 C   0  0  0  0  0  0  0  0  0  0  0  0
   41.4620   83.9390   62.8620 C   0  0  0  0  0  0  0  0  0  0  0  0
   40.1900   83.5240   63.2080 C   0  0  0  0  0  0  0  0  0  0  0  0
   39.2290   83.4050   62.2100 C   0  0  0  0  0  0  0  0  0  0  0  0
   39.5630   83.7030   60.8870 C   0  0  0  0  0  0  0  0  0  0  0  0
   40.8380   84.1150   60.5620 C   0  0  0  0  0  0  0  0  0  0  0  0
   42.2270   84.0390   63.6240 H   0  0  0  0  0  0  0  0  0  0  0  0
   39.9760   83.3050   64.2400 H   0  0  0  0  0  0  0  0  0  0  0  0
   38.2310   83.0820   62.4630 H   0  0  0  0  0  0  0  0  0  0  0  0
   38.7840   83.5960   60.1380 H   0  0  0  0  0  0  0  0  0  0  0  0
   45.3240   84.1610   60.5800 C   0  0  0  0  0  0  0  0  0  0  0  0
   45.7140   85.4910   60.6870 C   0  0  0  0  0  0  0  0  0  0  0  0
   44.7510   86.4290   61.1000 C   0  0  0  0  0  0  0  0  0  0  0  0
   43.5020   85.9860   61.3700 N   0  0  0  0  0  0  0  0  0  0  0  0
   43.1570   84.6670   61.2530 C   0  0  0  0  0  0  0  0  0  0  0  0
   44.0670   83.7940   60.8640 N   0  0  0  0  0  0  0  0  0  0  0  0
   46.0110   83.3820   60.2670 H   0  0  0  0  0  0  0  0  0  0  0  0
   46.7090   85.7880   60.4630 H   0  0  0  0  0  0  0  0  0  0  0  0
   45.0000   87.4880   61.2010 H   0  0  0  0  0  0  0  0  0  0  0  0
   41.1530   84.4150   59.1870 C   0  0  0  0  0  0  0  0  0  0  0  0
   40.7600   85.7150   58.8340 C   0  0  0  0  0  0  0  0  0  0  0  0
   40.9690   86.2090   57.5540 C   0  0  0  0  0  0  0  0  0  0  0  0
   41.5660   85.3820   56.6690 N   0  0  0  0  0  0  0  0  0  0  0  0
   41.9420   84.1300   57.0170 C   0  0  0  0  0  0  0  0  0  0  0  0
   41.7390   83.6590   58.2510 N   0  0  0  0  0  0  0  0  0  0  0  0
   40.2760   86.4280   59.4950 H   0  0  0  0  0  0  0  0  0  0  0  0
   40.6760   87.2040   57.2540 H   0  0  0  0  0  0  0  0  0  0  0  0
   42.5970   83.2560   56.0050 C   0  0  0  0  0  0  0  0  0  0  0  0
   41.7030   82.4960   55.2880 F   0  0  0  0  0  0  0  0  0  0  0  0
   43.4600   83.9820   55.2140 F   0  0  0  0  0  0  0  0  0  0  0  0
   43.4070   82.3330   56.6830 F   0  0  0  0  0  0  0  0  0  0  0  0
  1  2  1  0  0  0  0
  2  3  2  0  0  0  0
  2  7  1  0  0  0  0
  3  8  1  0  0  0  0
  4  9  1  0  0  0  0
  4  3  1  0  0  0  0
  5  4  2  0  0  0  0
  6  5  1  0  0  0  0
  6  1  2  0  0  0  0
 10  5  1  0  0  0  0
 11 12  2  0  0  0  0
 11 16  1  0  0  0  0
 12 13  1  0  0  0  0
 13 19  1  0  0  0  0
 13 14  2  0  0  0  0
 15 14  1  0  0  0  0
 15  1  1  0  0  0  0
 16 15  2  0  0  0  0
 17 11  1  0  0  0  0
 18 12  1  0  0  0  0
 20  6  1  0  0  0  0
 21 20  1  0  0  0  0
 21 26  1  0  0  0  0
 22 21  2  0  0  0  0
 23 24  2  0  0  0  0
 23 22  1  0  0  0  0
 24 25  1  0  0  0  0
 25 20  2  0  0  0  0
 27 22  1  0  0  0  0
 28 31  1  0  0  0  0
 28 24  1  0  0  0  0
 29 28  1  0  0  0  0
 30 28  1  0  0  0  0
M  END
>  <minimizedAffinity>
-5.33306456

>  <minimizedRMSD>
0.31042847

$$$$
