
 OpenBabel03212520393D

 22 23  0  0  1  0  0  0  0  0999 V2000
   42.3160   85.1820   59.8740 C   0  0  1  0  0  0  0  0  0  0  0  0
   43.2780   85.0520   58.6950 C   0  0  0  0  0  0  0  0  0  0  0  0
   41.8620   84.4820   58.6630 C   0  0  1  0  0  0  0  0  0  0  0  0
   42.0470   86.2640   60.0420 H   0  0  0  0  0  0  0  0  0  0  0  0
   43.4180   85.9040   58.0040 H   0  0  0  0  0  0  0  0  0  0  0  0
   44.0680   84.2890   58.7200 H   0  0  0  0  0  0  0  0  0  0  0  0
   41.1170   84.9610   58.0240 H   0  0  0  0  0  0  0  0  0  0  0  0
   42.7540   84.4190   60.9890 O   0  0  0  0  0  0  0  0  0  0  0  0
   39.9850   83.6940   63.1880 C   0  0  0  0  0  0  0  0  0  0  0  0
   40.5270   83.9500   64.4460 C   0  0  0  0  0  0  0  0  0  0  0  0
   41.8930   84.3830   64.4930 C   0  0  0  0  0  0  0  0  0  0  0  0
   42.5350   84.5050   63.3000 N   0  0  0  0  0  0  0  0  0  0  0  0
   41.9740   84.2490   62.1020 C   0  0  0  0  0  0  0  0  0  0  0  0
   40.7060   83.8450   62.0370 N   0  0  0  0  0  0  0  0  0  0  0  0
   38.9510   83.3670   63.1510 H   0  0  0  0  0  0  0  0  0  0  0  0
   39.9400   83.8250   65.3470 H   0  0  0  0  0  0  0  0  0  0  0  0
   42.3400   84.5880   65.4350 H   0  0  0  0  0  0  0  0  0  0  0  0
   41.7070   83.0920   58.7650 O   0  0  0  0  0  0  0  0  0  0  0  0
   40.3680   82.7140   58.7090 C   0  0  0  0  0  0  0  0  0  0  0  0
   39.4940   83.7370   58.9330 F   0  0  0  0  0  0  0  0  0  0  0  0
   40.1600   82.0690   57.5100 F   0  0  0  0  0  0  0  0  0  0  0  0
   40.2080   81.7590   59.7100 F   0  0  0  0  0  0  0  0  0  0  0  0
  1  4  1  1  0  0  0
  1  8  1  0  0  0  0
  2  6  1  0  0  0  0
  2  1  1  0  0  0  0
  3  7  1  6  0  0  0
  3  2  1  0  0  0  0
  3 18  1  0  0  0  0
  3  1  1  0  0  0  0
  5  2  1  0  0  0  0
  8 13  1  0  0  0  0
  9 10  1  0  0  0  0
 10 11  2  0  0  0  0
 10 16  1  0  0  0  0
 11 17  1  0  0  0  0
 12 11  1  0  0  0  0
 13 12  2  0  0  0  0
 14 13  1  0  0  0  0
 14  9  2  0  0  0  0
 15  9  1  0  0  0  0
 19 18  1  0  0  0  0
 19 20  1  0  0  0  0
 19 22  1  0  0  0  0
 21 19  1  0  0  0  0
M  END
>  <minimizedAffinity>
-3.99755645

>  <minimizedRMSD>
2.65416265

$$$$
