
 OpenBabel03212520393D

 22 23  0  0  1  0  0  0  0  0999 V2000
   42.9660   85.7550   60.1650 C   0  0  1  0  0  0  0  0  0  0  0  0
   44.1110   85.8530   59.1590 C   0  0  0  0  0  0  0  0  0  0  0  0
   42.6590   85.6610   58.7290 C   0  0  1  0  0  0  0  0  0  0  0  0
   42.8410   86.7330   60.7120 H   0  0  0  0  0  0  0  0  0  0  0  0
   44.5170   86.8430   58.8830 H   0  0  0  0  0  0  0  0  0  0  0  0
   44.7520   84.9780   58.9770 H   0  0  0  0  0  0  0  0  0  0  0  0
   42.1390   86.4900   58.2440 H   0  0  0  0  0  0  0  0  0  0  0  0
   43.0490   84.5620   60.9320 O   0  0  0  0  0  0  0  0  0  0  0  0
   40.0920   83.5190   62.7200 C   0  0  0  0  0  0  0  0  0  0  0  0
   40.4490   83.7500   64.0480 C   0  0  0  0  0  0  0  0  0  0  0  0
   41.7580   84.2810   64.2900 C   0  0  0  0  0  0  0  0  0  0  0  0
   42.5330   84.5130   63.1970 N   0  0  0  0  0  0  0  0  0  0  0  0
   42.1510   84.2770   61.9260 C   0  0  0  0  0  0  0  0  0  0  0  0
   40.9380   83.7830   61.6800 N   0  0  0  0  0  0  0  0  0  0  0  0
   39.1010   83.1170   62.5360 H   0  0  0  0  0  0  0  0  0  0  0  0
   39.7650   83.5340   64.8590 H   0  0  0  0  0  0  0  0  0  0  0  0
   42.0640   84.4700   65.2890 H   0  0  0  0  0  0  0  0  0  0  0  0
   42.2720   84.3990   58.2550 O   0  0  0  0  0  0  0  0  0  0  0  0
   41.9600   84.4290   56.8980 C   0  0  0  0  0  0  0  0  0  0  0  0
   41.3990   83.2730   56.4340 F   0  0  0  0  0  0  0  0  0  0  0  0
   41.1860   85.5440   56.6640 F   0  0  0  0  0  0  0  0  0  0  0  0
   43.1700   84.6350   56.2410 F   0  0  0  0  0  0  0  0  0  0  0  0
  1  4  1  1  0  0  0
  1  8  1  0  0  0  0
  2  1  1  0  0  0  0
  3  7  1  6  0  0  0
  3  2  1  0  0  0  0
  3  1  1  0  0  0  0
  5  2  1  0  0  0  0
  6  2  1  0  0  0  0
  8 13  1  0  0  0  0
  9 10  1  0  0  0  0
 10 11  2  0  0  0  0
 10 16  1  0  0  0  0
 11 17  1  0  0  0  0
 12 11  1  0  0  0  0
 13 12  2  0  0  0  0
 14 13  1  0  0  0  0
 14  9  2  0  0  0  0
 15  9  1  0  0  0  0
 18  3  1  0  0  0  0
 19 18  1  0  0  0  0
 20 19  1  0  0  0  0
 21 19  1  0  0  0  0
 22 19  1  0  0  0  0
M  END
>  <minimizedAffinity>
-3.85793233

>  <minimizedRMSD>
1.33483362

$$$$
