
 OpenBabel03212520393D

 22 23  0  0  1  0  0  0  0  0999 V2000
   42.3160   85.1820   59.8740 C   0  0  1  0  0  0  0  0  0  0  0  0
   43.2780   85.0520   58.6940 C   0  0  0  0  0  0  0  0  0  0  0  0
   41.8620   84.4820   58.6620 C   0  0  1  0  0  0  0  0  0  0  0  0
   42.0470   86.2640   60.0420 H   0  0  0  0  0  0  0  0  0  0  0  0
   43.4180   85.9030   58.0040 H   0  0  0  0  0  0  0  0  0  0  0  0
   44.0680   84.2880   58.7190 H   0  0  0  0  0  0  0  0  0  0  0  0
   41.1160   84.9600   58.0230 H   0  0  0  0  0  0  0  0  0  0  0  0
   42.7540   84.4180   60.9880 O   0  0  0  0  0  0  0  0  0  0  0  0
   39.9850   83.6940   63.1880 C   0  0  0  0  0  0  0  0  0  0  0  0
   40.5280   83.9490   64.4460 C   0  0  0  0  0  0  0  0  0  0  0  0
   41.8940   84.3830   64.4930 C   0  0  0  0  0  0  0  0  0  0  0  0
   42.5350   84.5050   63.2990 N   0  0  0  0  0  0  0  0  0  0  0  0
   41.9750   84.2480   62.1010 C   0  0  0  0  0  0  0  0  0  0  0  0
   40.7060   83.8450   62.0370 N   0  0  0  0  0  0  0  0  0  0  0  0
   38.9510   83.3670   63.1510 H   0  0  0  0  0  0  0  0  0  0  0  0
   39.9410   83.8240   65.3470 H   0  0  0  0  0  0  0  0  0  0  0  0
   42.3410   84.5870   65.4340 H   0  0  0  0  0  0  0  0  0  0  0  0
   41.7070   83.0910   58.7650 O   0  0  0  0  0  0  0  0  0  0  0  0
   40.3680   82.7130   58.7090 C   0  0  0  0  0  0  0  0  0  0  0  0
   39.4940   83.7380   58.9330 F   0  0  0  0  0  0  0  0  0  0  0  0
   40.1590   82.0690   57.5090 F   0  0  0  0  0  0  0  0  0  0  0  0
   40.2080   81.7580   59.7110 F   0  0  0  0  0  0  0  0  0  0  0  0
  1  4  1  1  0  0  0
  1  8  1  0  0  0  0
  2  6  1  0  0  0  0
  2  1  1  0  0  0  0
  3  7  1  6  0  0  0
  3  2  1  0  0  0  0
  3 18  1  0  0  0  0
  3  1  1  0  0  0  0
  5  2  1  0  0  0  0
  8 13  1  0  0  0  0
  9 10  1  0  0  0  0
 10 11  2  0  0  0  0
 10 16  1  0  0  0  0
 11 17  1  0  0  0  0
 12 11  1  0  0  0  0
 13 12  2  0  0  0  0
 14 13  1  0  0  0  0
 14  9  2  0  0  0  0
 15  9  1  0  0  0  0
 19 18  1  0  0  0  0
 19 20  1  0  0  0  0
 19 22  1  0  0  0  0
 21 19  1  0  0  0  0
M  END
>  <minimizedAffinity>
-3.99780107

>  <minimizedRMSD>
2.69424939

$$$$
