
 OpenBabel03212520393D

 22 23  0  0  1  0  0  0  0  0999 V2000
   43.4120   85.6780   60.5920 C   0  0  1  0  0  0  0  0  0  0  0  0
   44.7150   85.5830   59.8020 C   0  0  0  0  0  0  0  0  0  0  0  0
   43.4250   86.1250   59.1910 C   0  0  1  0  0  0  0  0  0  0  0  0
   43.5160   86.4260   61.4300 H   0  0  0  0  0  0  0  0  0  0  0  0
   45.4930   86.3570   59.9300 H   0  0  0  0  0  0  0  0  0  0  0  0
   45.0330   84.6140   59.3920 H   0  0  0  0  0  0  0  0  0  0  0  0
   43.3530   87.1930   58.9760 H   0  0  0  0  0  0  0  0  0  0  0  0
   42.8960   84.3910   60.9010 O   0  0  0  0  0  0  0  0  0  0  0  0
   40.0330   83.5440   62.9300 C   0  0  0  0  0  0  0  0  0  0  0  0
   40.4910   83.8110   64.2190 C   0  0  0  0  0  0  0  0  0  0  0  0
   41.8340   84.2960   64.3490 C   0  0  0  0  0  0  0  0  0  0  0  0
   42.5390   84.4520   63.1960 N   0  0  0  0  0  0  0  0  0  0  0  0
   42.0600   84.1830   61.9650 C   0  0  0  0  0  0  0  0  0  0  0  0
   40.8140   83.7310   61.8240 N   0  0  0  0  0  0  0  0  0  0  0  0
   39.0160   83.1770   62.8310 H   0  0  0  0  0  0  0  0  0  0  0  0
   39.8570   83.6560   65.0830 H   0  0  0  0  0  0  0  0  0  0  0  0
   42.2160   84.5100   65.3160 H   0  0  0  0  0  0  0  0  0  0  0  0
   42.7400   85.3180   58.2710 O   0  0  0  0  0  0  0  0  0  0  0  0
   41.5470   85.9030   57.8560 C   0  0  0  0  0  0  0  0  0  0  0  0
   41.1660   85.5480   56.5940 F   0  0  0  0  0  0  0  0  0  0  0  0
   40.5890   85.6360   58.8100 F   0  0  0  0  0  0  0  0  0  0  0  0
   41.7730   87.2770   57.8880 F   0  0  0  0  0  0  0  0  0  0  0  0
  1  8  1  0  0  0  0
  1  4  1  1  0  0  0
  2  5  1  0  0  0  0
  2  1  1  0  0  0  0
  3  7  1  6  0  0  0
  3  2  1  0  0  0  0
  3  1  1  0  0  0  0
  6  2  1  0  0  0  0
  8 13  1  0  0  0  0
  9 10  1  0  0  0  0
 10 11  2  0  0  0  0
 10 16  1  0  0  0  0
 11 17  1  0  0  0  0
 12 11  1  0  0  0  0
 13 12  2  0  0  0  0
 14 13  1  0  0  0  0
 14  9  2  0  0  0  0
 15  9  1  0  0  0  0
 18  3  1  0  0  0  0
 19 22  1  0  0  0  0
 19 18  1  0  0  0  0
 19 21  1  0  0  0  0
 20 19  1  0  0  0  0
M  END
>  <minimizedAffinity>
-4.08538485

>  <minimizedRMSD>
2.18612146

$$$$
