
 OpenBabel03212520393D

 22 23  0  0  1  0  0  0  0  0999 V2000
   42.3740   85.4470   59.7850 C   0  0  1  0  0  0  0  0  0  0  0  0
   43.4640   86.4660   59.4600 C   0  0  0  0  0  0  0  0  0  0  0  0
   43.0230   85.3950   58.4650 C   0  0  1  0  0  0  0  0  0  0  0  0
   41.3790   85.9650   59.9110 H   0  0  0  0  0  0  0  0  0  0  0  0
   43.1840   87.4890   59.1480 H   0  0  0  0  0  0  0  0  0  0  0  0
   44.4790   86.3210   59.8540 H   0  0  0  0  0  0  0  0  0  0  0  0
   42.4530   85.6980   57.5840 H   0  0  0  0  0  0  0  0  0  0  0  0
   42.7930   84.5430   60.7960 O   0  0  0  0  0  0  0  0  0  0  0  0
   40.0520   83.5240   62.9130 C   0  0  0  0  0  0  0  0  0  0  0  0
   40.5620   83.7480   64.1910 C   0  0  0  0  0  0  0  0  0  0  0  0
   41.8950   84.2680   64.2810 C   0  0  0  0  0  0  0  0  0  0  0  0
   42.5410   84.4940   63.1050 N   0  0  0  0  0  0  0  0  0  0  0  0
   42.0130   84.2640   61.8870 C   0  0  0  0  0  0  0  0  0  0  0  0
   40.7750   83.7820   61.7830 N   0  0  0  0  0  0  0  0  0  0  0  0
   39.0420   83.1320   62.8440 H   0  0  0  0  0  0  0  0  0  0  0  0
   39.9740   83.5380   65.0750 H   0  0  0  0  0  0  0  0  0  0  0  0
   42.3170   84.4510   65.2380 H   0  0  0  0  0  0  0  0  0  0  0  0
   43.8840   84.3130   58.2350 O   0  0  0  0  0  0  0  0  0  0  0  0
   43.5710   83.6430   57.0550 C   0  0  0  0  0  0  0  0  0  0  0  0
   43.6320   84.4260   55.9400 F   0  0  0  0  0  0  0  0  0  0  0  0
   44.3690   82.5220   56.9800 F   0  0  0  0  0  0  0  0  0  0  0  0
   42.2630   83.1920   57.2180 F   0  0  0  0  0  0  0  0  0  0  0  0
  1  4  1  1  0  0  0
  1  8  1  0  0  0  0
  2  1  1  0  0  0  0
  2  6  1  0  0  0  0
  3  7  1  6  0  0  0
  3  2  1  0  0  0  0
  3  1  1  0  0  0  0
  5  2  1  0  0  0  0
  8 13  1  0  0  0  0
  9 10  1  0  0  0  0
 10 11  2  0  0  0  0
 10 16  1  0  0  0  0
 11 17  1  0  0  0  0
 12 11  1  0  0  0  0
 13 12  2  0  0  0  0
 14 13  1  0  0  0  0
 14  9  2  0  0  0  0
 15  9  1  0  0  0  0
 18  3  1  0  0  0  0
 19 22  1  0  0  0  0
 19 18  1  0  0  0  0
 20 19  1  0  0  0  0
 21 19  1  0  0  0  0
M  END
>  <minimizedAffinity>
-3.43122911

>  <minimizedRMSD>
0.359704494

$$$$
