
 OpenBabel03212520393D

 22 23  0  0  1  0  0  0  0  0999 V2000
   42.9840   85.7400   60.2200 C   0  0  1  0  0  0  0  0  0  0  0  0
   44.1000   85.8060   59.1790 C   0  0  0  0  0  0  0  0  0  0  0  0
   42.6270   85.6890   58.7940 C   0  0  1  0  0  0  0  0  0  0  0  0
   42.9210   86.7120   60.7890 H   0  0  0  0  0  0  0  0  0  0  0  0
   44.5420   86.7830   58.9090 H   0  0  0  0  0  0  0  0  0  0  0  0
   44.6940   84.9080   58.9610 H   0  0  0  0  0  0  0  0  0  0  0  0
   42.1310   86.5500   58.3420 H   0  0  0  0  0  0  0  0  0  0  0  0
   43.0370   84.5300   60.9620 O   0  0  0  0  0  0  0  0  0  0  0  0
   40.0840   83.5110   62.7710 C   0  0  0  0  0  0  0  0  0  0  0  0
   40.4500   83.7450   64.0960 C   0  0  0  0  0  0  0  0  0  0  0  0
   41.7630   84.2720   64.3290 C   0  0  0  0  0  0  0  0  0  0  0  0
   42.5340   84.4940   63.2300 N   0  0  0  0  0  0  0  0  0  0  0  0
   42.1430   84.2540   61.9620 C   0  0  0  0  0  0  0  0  0  0  0  0
   40.9260   83.7650   61.7260 N   0  0  0  0  0  0  0  0  0  0  0  0
   39.0900   83.1130   62.5940 H   0  0  0  0  0  0  0  0  0  0  0  0
   39.7690   83.5380   64.9120 H   0  0  0  0  0  0  0  0  0  0  0  0
   42.0760   84.4630   65.3250 H   0  0  0  0  0  0  0  0  0  0  0  0
   42.1680   84.4550   58.3090 O   0  0  0  0  0  0  0  0  0  0  0  0
   42.0200   84.4660   56.9240 C   0  0  0  0  0  0  0  0  0  0  0  0
   43.1910   84.6360   56.2430 F   0  0  0  0  0  0  0  0  0  0  0  0
   41.3380   83.3230   56.5630 F   0  0  0  0  0  0  0  0  0  0  0  0
   41.1770   85.5390   56.6460 F   0  0  0  0  0  0  0  0  0  0  0  0
  1  4  1  1  0  0  0
  1  8  1  0  0  0  0
  2  1  1  0  0  0  0
  3  7  1  6  0  0  0
  3  2  1  0  0  0  0
  3  1  1  0  0  0  0
  5  2  1  0  0  0  0
  6  2  1  0  0  0  0
  8 13  1  0  0  0  0
  9 10  1  0  0  0  0
 10 11  2  0  0  0  0
 10 16  1  0  0  0  0
 11 17  1  0  0  0  0
 12 11  1  0  0  0  0
 13 12  2  0  0  0  0
 14 13  1  0  0  0  0
 14  9  2  0  0  0  0
 15  9  1  0  0  0  0
 18  3  1  0  0  0  0
 19 18  1  0  0  0  0
 20 19  1  0  0  0  0
 21 19  1  0  0  0  0
 22 19  1  0  0  0  0
M  END
>  <minimizedAffinity>
-3.85103202

>  <minimizedRMSD>
1.31689215

$$$$
