
 OpenBabel03212520393D

 22 23  0  0  1  0  0  0  0  0999 V2000
   43.3190   85.7230   60.4810 C   0  0  1  0  0  0  0  0  0  0  0  0
   44.6700   85.6480   59.7730 C   0  0  0  0  0  0  0  0  0  0  0  0
   43.4020   86.1220   59.0680 C   0  0  1  0  0  0  0  0  0  0  0  0
   43.3480   86.5030   61.2960 H   0  0  0  0  0  0  0  0  0  0  0  0
   45.4130   86.4530   59.9180 H   0  0  0  0  0  0  0  0  0  0  0  0
   45.0440   84.6770   59.4180 H   0  0  0  0  0  0  0  0  0  0  0  0
   43.3070   87.1790   58.8100 H   0  0  0  0  0  0  0  0  0  0  0  0
   42.8300   84.4300   60.8060 O   0  0  0  0  0  0  0  0  0  0  0  0
   40.0440   83.5480   62.9260 C   0  0  0  0  0  0  0  0  0  0  0  0
   40.5410   83.8190   64.2000 C   0  0  0  0  0  0  0  0  0  0  0  0
   41.8820   84.3190   64.2860 C   0  0  0  0  0  0  0  0  0  0  0  0
   42.5470   84.4840   63.1110 N   0  0  0  0  0  0  0  0  0  0  0  0
   42.0310   84.2110   61.8960 C   0  0  0  0  0  0  0  0  0  0  0  0
   40.7860   83.7460   61.7960 N   0  0  0  0  0  0  0  0  0  0  0  0
   39.0290   83.1710   62.8600 H   0  0  0  0  0  0  0  0  0  0  0  0
   39.9380   83.6560   65.0840 H   0  0  0  0  0  0  0  0  0  0  0  0
   42.2940   84.5360   65.2410 H   0  0  0  0  0  0  0  0  0  0  0  0
   42.8000   85.2600   58.1390 O   0  0  0  0  0  0  0  0  0  0  0  0
   41.5180   85.6810   57.7960 C   0  0  0  0  0  0  0  0  0  0  0  0
   40.5300   85.1130   58.5480 F   0  0  0  0  0  0  0  0  0  0  0  0
   41.5020   87.0580   57.8230 F   0  0  0  0  0  0  0  0  0  0  0  0
   41.3450   85.3030   56.4670 F   0  0  0  0  0  0  0  0  0  0  0  0
  1  8  1  0  0  0  0
  1  4  1  1  0  0  0
  2  5  1  0  0  0  0
  2  1  1  0  0  0  0
  3  7  1  6  0  0  0
  3  2  1  0  0  0  0
  3  1  1  0  0  0  0
  6  2  1  0  0  0  0
  8 13  1  0  0  0  0
  9 10  1  0  0  0  0
 10 11  2  0  0  0  0
 10 16  1  0  0  0  0
 11 17  1  0  0  0  0
 12 11  1  0  0  0  0
 13 12  2  0  0  0  0
 14 13  1  0  0  0  0
 14  9  2  0  0  0  0
 15  9  1  0  0  0  0
 18  3  1  0  0  0  0
 19 21  1  0  0  0  0
 19 18  1  0  0  0  0
 19 20  1  0  0  0  0
 22 19  1  0  0  0  0
M  END
>  <minimizedAffinity>
-4.07177591

>  <minimizedRMSD>
2.10092354

$$$$
