
 OpenBabel03212520393D

 22 23  0  0  1  0  0  0  0  0999 V2000
   43.3120   85.9960   60.4220 C   0  0  1  0  0  0  0  0  0  0  0  0
   44.4930   86.1120   59.4610 C   0  0  0  0  0  0  0  0  0  0  0  0
   43.0450   86.0940   58.9790 C   0  0  1  0  0  0  0  0  0  0  0  0
   43.2480   86.9120   61.0770 H   0  0  0  0  0  0  0  0  0  0  0  0
   44.9870   87.0900   59.3140 H   0  0  0  0  0  0  0  0  0  0  0  0
   45.0660   85.2140   59.1930 H   0  0  0  0  0  0  0  0  0  0  0  0
   42.6100   87.0140   58.5830 H   0  0  0  0  0  0  0  0  0  0  0  0
   43.2730   84.7210   61.0460 O   0  0  0  0  0  0  0  0  0  0  0  0
   40.1890   83.5860   62.5410 C   0  0  0  0  0  0  0  0  0  0  0  0
   40.4370   83.7550   63.9020 C   0  0  0  0  0  0  0  0  0  0  0  0
   41.7190   84.2780   64.2730 C   0  0  0  0  0  0  0  0  0  0  0  0
   42.5780   84.5630   63.2570 N   0  0  0  0  0  0  0  0  0  0  0  0
   42.3000   84.3860   61.9500 C   0  0  0  0  0  0  0  0  0  0  0  0
   41.1140   83.9010   61.5850 N   0  0  0  0  0  0  0  0  0  0  0  0
   39.2180   83.1900   62.2590 H   0  0  0  0  0  0  0  0  0  0  0  0
   39.6920   83.5000   64.6450 H   0  0  0  0  0  0  0  0  0  0  0  0
   41.9430   84.4210   65.3010 H   0  0  0  0  0  0  0  0  0  0  0  0
   42.5730   84.9320   58.3510 O   0  0  0  0  0  0  0  0  0  0  0  0
   41.2250   85.0350   58.0160 C   0  0  0  0  0  0  0  0  0  0  0  0
   40.4720   85.6910   58.9460 F   0  0  0  0  0  0  0  0  0  0  0  0
   41.1420   85.5860   56.7560 F   0  0  0  0  0  0  0  0  0  0  0  0
   40.7660   83.7240   57.9110 F   0  0  0  0  0  0  0  0  0  0  0  0
  1  8  1  0  0  0  0
  1  4  1  1  0  0  0
  2  1  1  0  0  0  0
  3  7  1  6  0  0  0
  3  2  1  0  0  0  0
  3  1  1  0  0  0  0
  5  2  1  0  0  0  0
  6  2  1  0  0  0  0
  8 13  1  0  0  0  0
  9 10  1  0  0  0  0
 10 11  2  0  0  0  0
 10 16  1  0  0  0  0
 11 17  1  0  0  0  0
 12 11  1  0  0  0  0
 13 12  2  0  0  0  0
 14 13  1  0  0  0  0
 14  9  2  0  0  0  0
 15  9  1  0  0  0  0
 18  3  1  0  0  0  0
 19 18  1  0  0  0  0
 19 20  1  0  0  0  0
 21 19  1  0  0  0  0
 22 19  1  0  0  0  0
M  END
>  <minimizedAffinity>
-3.96970487

>  <minimizedRMSD>
2.08665133

$$$$
