
 OpenBabel03212520393D

 22 23  0  0  1  0  0  0  0  0999 V2000
   43.2560   85.7590   60.4460 C   0  0  1  0  0  0  0  0  0  0  0  0
   44.6330   85.7340   59.7860 C   0  0  0  0  0  0  0  0  0  0  0  0
   43.3670   86.1170   59.0230 C   0  0  1  0  0  0  0  0  0  0  0  0
   43.2140   86.5640   61.2340 H   0  0  0  0  0  0  0  0  0  0  0  0
   45.3260   86.5830   59.9300 H   0  0  0  0  0  0  0  0  0  0  0  0
   45.0700   84.7750   59.4770 H   0  0  0  0  0  0  0  0  0  0  0  0
   43.2260   87.1590   58.7270 H   0  0  0  0  0  0  0  0  0  0  0  0
   42.8240   84.4530   60.7960 O   0  0  0  0  0  0  0  0  0  0  0  0
   40.0500   83.5410   62.9190 C   0  0  0  0  0  0  0  0  0  0  0  0
   40.5490   83.8040   64.1930 C   0  0  0  0  0  0  0  0  0  0  0  0
   41.8880   84.3100   64.2790 C   0  0  0  0  0  0  0  0  0  0  0  0
   42.5490   84.4870   63.1030 N   0  0  0  0  0  0  0  0  0  0  0  0
   42.0300   84.2210   61.8880 C   0  0  0  0  0  0  0  0  0  0  0  0
   40.7870   83.7500   61.7880 N   0  0  0  0  0  0  0  0  0  0  0  0
   39.0360   83.1580   62.8530 H   0  0  0  0  0  0  0  0  0  0  0  0
   39.9510   83.6310   65.0780 H   0  0  0  0  0  0  0  0  0  0  0  0
   42.3020   84.5220   65.2340 H   0  0  0  0  0  0  0  0  0  0  0  0
   42.8460   85.1950   58.1040 O   0  0  0  0  0  0  0  0  0  0  0  0
   41.5810   85.5680   57.6560 C   0  0  0  0  0  0  0  0  0  0  0  0
   41.3030   86.8930   57.8230 F   0  0  0  0  0  0  0  0  0  0  0  0
   41.4500   85.1420   56.3520 F   0  0  0  0  0  0  0  0  0  0  0  0
   40.6820   84.8210   58.4140 F   0  0  0  0  0  0  0  0  0  0  0  0
  1  8  1  0  0  0  0
  1  4  1  1  0  0  0
  2  5  1  0  0  0  0
  2  1  1  0  0  0  0
  3  7  1  6  0  0  0
  3  2  1  0  0  0  0
  3  1  1  0  0  0  0
  6  2  1  0  0  0  0
  8 13  1  0  0  0  0
  9 10  1  0  0  0  0
 10 11  2  0  0  0  0
 10 16  1  0  0  0  0
 11 17  1  0  0  0  0
 12 11  1  0  0  0  0
 13 12  2  0  0  0  0
 14 13  1  0  0  0  0
 14  9  2  0  0  0  0
 15  9  1  0  0  0  0
 18  3  1  0  0  0  0
 19 20  1  0  0  0  0
 19 18  1  0  0  0  0
 19 22  1  0  0  0  0
 21 19  1  0  0  0  0
M  END
>  <minimizedAffinity>
-4.04827642

>  <minimizedRMSD>
2.06065989

$$$$
