
 OpenBabel03212520393D

 22 23  0  0  1  0  0  0  0  0999 V2000
   42.3000   85.4220   59.7830 C   0  0  1  0  0  0  0  0  0  0  0  0
   43.4260   85.8970   58.8660 C   0  0  0  0  0  0  0  0  0  0  0  0
   42.4210   84.8290   58.4420 C   0  0  1  0  0  0  0  0  0  0  0  0
   41.5700   86.2600   59.9720 H   0  0  0  0  0  0  0  0  0  0  0  0
   43.3160   86.8430   58.3050 H   0  0  0  0  0  0  0  0  0  0  0  0
   44.4460   85.5170   59.0170 H   0  0  0  0  0  0  0  0  0  0  0  0
   41.6760   85.0790   57.6840 H   0  0  0  0  0  0  0  0  0  0  0  0
   42.8070   84.7080   60.9010 O   0  0  0  0  0  0  0  0  0  0  0  0
   40.0430   83.5670   62.9240 C   0  0  0  0  0  0  0  0  0  0  0  0
   40.5310   83.7350   64.2190 C   0  0  0  0  0  0  0  0  0  0  0  0
   41.8590   84.2600   64.3540 C   0  0  0  0  0  0  0  0  0  0  0  0
   42.5200   84.5470   63.2010 N   0  0  0  0  0  0  0  0  0  0  0  0
   42.0130   84.3720   61.9650 C   0  0  0  0  0  0  0  0  0  0  0  0
   40.7810   83.8840   61.8190 N   0  0  0  0  0  0  0  0  0  0  0  0
   39.0390   83.1700   62.8210 H   0  0  0  0  0  0  0  0  0  0  0  0
   39.9320   83.4780   65.0830 H   0  0  0  0  0  0  0  0  0  0  0  0
   42.2640   84.4020   65.3260 H   0  0  0  0  0  0  0  0  0  0  0  0
   42.8570   83.4970   58.3850 O   0  0  0  0  0  0  0  0  0  0  0  0
   41.8190   82.6250   58.0640 C   0  0  0  0  0  0  0  0  0  0  0  0
   41.0530   82.2600   59.1330 F   0  0  0  0  0  0  0  0  0  0  0  0
   41.0930   83.1880   57.0380 F   0  0  0  0  0  0  0  0  0  0  0  0
   42.4350   81.4890   57.5430 F   0  0  0  0  0  0  0  0  0  0  0  0
  1  4  1  1  0  0  0
  1  8  1  0  0  0  0
  2  6  1  0  0  0  0
  2  1  1  0  0  0  0
  3  7  1  6  0  0  0
  3  2  1  0  0  0  0
  3  1  1  0  0  0  0
  5  2  1  0  0  0  0
  8 13  1  0  0  0  0
  9 10  1  0  0  0  0
 10 11  2  0  0  0  0
 10 16  1  0  0  0  0
 11 17  1  0  0  0  0
 12 11  1  0  0  0  0
 13 12  2  0  0  0  0
 14 13  1  0  0  0  0
 14  9  2  0  0  0  0
 15  9  1  0  0  0  0
 18  3  1  0  0  0  0
 19 18  1  0  0  0  0
 19 20  1  0  0  0  0
 21 19  1  0  0  0  0
 22 19  1  0  0  0  0
M  END
>  <minimizedAffinity>
-3.60056853

>  <minimizedRMSD>
1.7447145

$$$$
