
 OpenBabel03212520393D

 22 23  0  0  1  0  0  0  0  0999 V2000
   42.1740   85.2190   59.7980 C   0  0  1  0  0  0  0  0  0  0  0  0
   43.1090   85.1190   58.5940 C   0  0  0  0  0  0  0  0  0  0  0  0
   41.7370   84.4500   58.6220 C   0  0  1  0  0  0  0  0  0  0  0  0
   41.8330   86.2840   59.9420 H   0  0  0  0  0  0  0  0  0  0  0  0
   43.1690   85.9560   57.8740 H   0  0  0  0  0  0  0  0  0  0  0  0
   43.9520   84.4140   58.6170 H   0  0  0  0  0  0  0  0  0  0  0  0
   40.9410   84.8550   57.9920 H   0  0  0  0  0  0  0  0  0  0  0  0
   42.6970   84.5240   60.9210 O   0  0  0  0  0  0  0  0  0  0  0  0
   40.0010   83.6490   63.1570 C   0  0  0  0  0  0  0  0  0  0  0  0
   40.5650   83.8840   64.4100 C   0  0  0  0  0  0  0  0  0  0  0  0
   41.9180   84.3570   64.4400 C   0  0  0  0  0  0  0  0  0  0  0  0
   42.5280   84.5340   63.2380 N   0  0  0  0  0  0  0  0  0  0  0  0
   41.9480   84.2970   62.0440 C   0  0  0  0  0  0  0  0  0  0  0  0
   40.6910   83.8570   61.9960 N   0  0  0  0  0  0  0  0  0  0  0  0
   38.9770   83.2920   63.1330 H   0  0  0  0  0  0  0  0  0  0  0  0
   40.0030   83.7140   65.3190 H   0  0  0  0  0  0  0  0  0  0  0  0
   42.3800   84.5470   65.3780 H   0  0  0  0  0  0  0  0  0  0  0  0
   41.6840   83.0570   58.7710 O   0  0  0  0  0  0  0  0  0  0  0  0
   40.3820   82.5740   58.6700 C   0  0  0  0  0  0  0  0  0  0  0  0
   40.0920   82.0120   57.4600 F   0  0  0  0  0  0  0  0  0  0  0  0
   40.1610   81.7250   59.7330 F   0  0  0  0  0  0  0  0  0  0  0  0
   39.5560   83.6790   58.8610 F   0  0  0  0  0  0  0  0  0  0  0  0
  1  4  1  1  0  0  0
  1  8  1  0  0  0  0
  2  6  1  0  0  0  0
  2  3  1  0  0  0  0
  2  1  1  0  0  0  0
  3  7  1  6  0  0  0
  3 18  1  0  0  0  0
  3  1  1  0  0  0  0
  5  2  1  0  0  0  0
  8 13  1  0  0  0  0
  9 10  1  0  0  0  0
 10 11  2  0  0  0  0
 10 16  1  0  0  0  0
 11 17  1  0  0  0  0
 12 11  1  0  0  0  0
 13 12  2  0  0  0  0
 14 13  1  0  0  0  0
 14  9  2  0  0  0  0
 15  9  1  0  0  0  0
 19 18  1  0  0  0  0
 19 22  1  0  0  0  0
 19 21  1  0  0  0  0
 20 19  1  0  0  0  0
M  END
>  <minimizedAffinity>
-4.02294016

>  <minimizedRMSD>
2.6180923

$$$$
