
 OpenBabel03212520393D

 22 23  0  0  1  0  0  0  0  0999 V2000
   42.1790   85.2140   59.8040 C   0  0  1  0  0  0  0  0  0  0  0  0
   43.1160   85.1130   58.6020 C   0  0  0  0  0  0  0  0  0  0  0  0
   41.7410   84.4490   58.6260 C   0  0  1  0  0  0  0  0  0  0  0  0
   41.8420   86.2800   59.9490 H   0  0  0  0  0  0  0  0  0  0  0  0
   43.1800   85.9500   57.8840 H   0  0  0  0  0  0  0  0  0  0  0  0
   43.9560   84.4050   58.6250 H   0  0  0  0  0  0  0  0  0  0  0  0
   40.9490   84.8580   57.9950 H   0  0  0  0  0  0  0  0  0  0  0  0
   42.6970   84.5140   60.9260 O   0  0  0  0  0  0  0  0  0  0  0  0
   39.9950   83.6640   63.1640 C   0  0  0  0  0  0  0  0  0  0  0  0
   40.5620   83.8920   64.4170 C   0  0  0  0  0  0  0  0  0  0  0  0
   41.9190   84.3530   64.4470 C   0  0  0  0  0  0  0  0  0  0  0  0
   42.5300   84.5250   63.2440 N   0  0  0  0  0  0  0  0  0  0  0  0
   41.9470   84.2940   62.0510 C   0  0  0  0  0  0  0  0  0  0  0  0
   40.6860   83.8650   62.0030 N   0  0  0  0  0  0  0  0  0  0  0  0
   38.9670   83.3160   63.1410 H   0  0  0  0  0  0  0  0  0  0  0  0
   39.9990   83.7270   65.3270 H   0  0  0  0  0  0  0  0  0  0  0  0
   42.3840   84.5370   65.3840 H   0  0  0  0  0  0  0  0  0  0  0  0
   41.6830   83.0550   58.7720 O   0  0  0  0  0  0  0  0  0  0  0  0
   40.3790   82.5770   58.6650 C   0  0  0  0  0  0  0  0  0  0  0  0
   40.0910   82.0190   57.4540 F   0  0  0  0  0  0  0  0  0  0  0  0
   40.1530   81.7270   59.7260 F   0  0  0  0  0  0  0  0  0  0  0  0
   39.5580   83.6850   58.8570 F   0  0  0  0  0  0  0  0  0  0  0  0
  1  4  1  1  0  0  0
  1  8  1  0  0  0  0
  2  6  1  0  0  0  0
  2  3  1  0  0  0  0
  2  1  1  0  0  0  0
  3  7  1  6  0  0  0
  3 18  1  0  0  0  0
  3  1  1  0  0  0  0
  5  2  1  0  0  0  0
  8 13  1  0  0  0  0
  9 10  1  0  0  0  0
 10 11  2  0  0  0  0
 10 16  1  0  0  0  0
 11 17  1  0  0  0  0
 12 11  1  0  0  0  0
 13 12  2  0  0  0  0
 14 13  1  0  0  0  0
 14  9  2  0  0  0  0
 15  9  1  0  0  0  0
 19 18  1  0  0  0  0
 19 22  1  0  0  0  0
 19 21  1  0  0  0  0
 20 19  1  0  0  0  0
M  END
>  <minimizedAffinity>
-4.01836586

>  <minimizedRMSD>
2.63792014

$$$$
