
 OpenBabel03212520393D

 23 24  0  0  1  0  0  0  0  0999 V2000
   42.3700   85.4580   59.7820 C   0  0  1  0  0  0  0  0  0  0  0  0
   43.4580   86.4720   59.4470 C   0  0  0  0  0  0  0  0  0  0  0  0
   43.0090   85.4060   58.4570 C   0  0  1  0  0  0  0  0  0  0  0  0
   41.3870   85.9790   59.9590 H   0  0  0  0  0  0  0  0  0  0  0  0
   43.1920   87.5230   59.2470 H   0  0  0  0  0  0  0  0  0  0  0  0
   44.4700   86.3380   59.8230 H   0  0  0  0  0  0  0  0  0  0  0  0
   42.4180   85.8150   57.6150 H   0  0  0  0  0  0  0  0  0  0  0  0
   42.7950   84.5560   60.7880 O   0  0  0  0  0  0  0  0  0  0  0  0
   40.0540   83.5180   62.9040 C   0  0  0  0  0  0  0  0  0  0  0  0
   40.5680   83.7390   64.1810 C   0  0  0  0  0  0  0  0  0  0  0  0
   41.9010   84.2610   64.2780 C   0  0  0  0  0  0  0  0  0  0  0  0
   42.5210   84.4850   63.1100 N   0  0  0  0  0  0  0  0  0  0  0  0
   42.0350   84.2760   61.8880 C   0  0  0  0  0  0  0  0  0  0  0  0
   40.8050   83.7940   61.7830 N   0  0  0  0  0  0  0  0  0  0  0  0
   39.0390   83.1190   62.7960 H   0  0  0  0  0  0  0  0  0  0  0  0
   40.0170   83.5380   65.0790 H   0  0  0  0  0  0  0  0  0  0  0  0
   42.3600   84.4560   65.2390 H   0  0  0  0  0  0  0  0  0  0  0  0
   43.8780   84.3260   58.2320 O   0  0  0  0  0  0  0  0  0  0  0  0
   43.9440   83.6430   57.0240 C   0  0  0  0  0  0  0  0  0  0  0  0
   44.5940   84.3460   56.1790 O   0  0  0  0  0  0  0  0  0  0  0  0
   43.3780   82.3620   56.7700 N   0  0  0  0  0  0  0  0  0  0  0  0
   43.6620   81.7110   57.5360 H   0  0  0  0  0  0  0  0  0  0  0  0
   42.8140   82.3810   55.8770 H   0  0  0  0  0  0  0  0  0  0  0  0
  1  4  1  1  0  0  0
  1  8  1  0  0  0  0
  2  1  1  0  0  0  0
  2  6  1  0  0  0  0
  3  7  1  6  0  0  0
  3  2  1  0  0  0  0
  3  1  1  0  0  0  0
  5  2  1  0  0  0  0
  8 13  1  0  0  0  0
  9 10  1  0  0  0  0
 10 11  2  0  0  0  0
 10 16  1  0  0  0  0
 11 17  1  0  0  0  0
 12 11  1  0  0  0  0
 13 12  2  0  0  0  0
 14 13  1  0  0  0  0
 14  9  2  0  0  0  0
 15  9  1  0  0  0  0
 18  3  1  0  0  0  0
 19 18  1  0  0  0  0
 20 19  2  0  0  0  0
 21 19  1  0  0  0  0
 21 22  1  0  0  0  0
 23 21  1  0  0  0  0
M  END
>  <minimizedAffinity>
-3.30104375

>  <minimizedRMSD>
0.229588598

$$$$
