
 OpenBabel03212520203D

 32 33  0  0  0  0  0  0  0  0999 V2000
   43.0610   84.0120   58.5840 Cl  0  0  0  0  0  0  0  0  0  0  0  0
   41.8660   82.8000   58.1960 C   0  0  0  0  0  0  0  0  0  0  0  0
   41.0070   82.2540   59.1400 C   0  0  0  0  0  0  0  0  0  0  0  0
   40.1170   81.3060   58.6820 C   0  0  0  0  0  0  0  0  0  0  0  0
   39.9940   80.8510   57.3960 C   0  0  0  0  0  0  0  0  0  0  0  0
   40.8560   81.4100   56.4930 C   0  0  0  0  0  0  0  0  0  0  0  0
   40.8130   80.9200   54.7960 Cl  0  0  0  0  0  0  0  0  0  0  0  0
   41.7830   82.3750   56.8870 C   0  0  0  0  0  0  0  0  0  0  0  0
   39.4620   80.9040   59.4550 H   0  0  0  0  0  0  0  0  0  0  0  0
   39.2660   80.1020   57.1220 H   0  0  0  0  0  0  0  0  0  0  0  0
   41.9550   82.1780   61.5010 C   0  0  0  0  0  0  0  0  0  0  0  0
   41.0980   82.6960   60.4850 C   0  0  0  0  0  0  0  0  0  0  0  0
   40.2680   83.7380   60.8490 C   0  0  0  0  0  0  0  0  0  0  0  0
   40.3370   84.1820   62.1400 N   0  0  0  0  0  0  0  0  0  0  0  0
   41.1520   83.6760   63.0670 C   0  0  0  0  0  0  0  0  0  0  0  0
   41.9850   82.6450   62.7410 N   0  0  0  0  0  0  0  0  0  0  0  0
   42.5930   81.3560   61.1690 H   0  0  0  0  0  0  0  0  0  0  0  0
   39.5760   84.2070   60.1550 H   0  0  0  0  0  0  0  0  0  0  0  0
   41.0700   84.3020   64.4020 C   0  0  0  0  0  0  0  0  0  0  0  0
   40.7380   85.6360   64.3360 F   0  0  0  0  0  0  0  0  0  0  0  0
   40.1210   83.6550   65.1840 F   0  0  0  0  0  0  0  0  0  0  0  0
   42.3250   84.2650   65.0470 F   0  0  0  0  0  0  0  0  0  0  0  0
   42.6340   82.9140   55.9380 O   0  0  0  0  0  0  0  0  0  0  0  0
   42.3500   84.1020   55.2240 C   0  0  0  0  0  0  0  0  0  0  0  0
   41.7430   84.7430   55.8910 H   0  0  0  0  0  0  0  0  0  0  0  0
   41.7840   83.9380   54.3030 H   0  0  0  0  0  0  0  0  0  0  0  0
   43.6030   84.7170   54.9430 O   0  0  0  0  0  0  0  0  0  0  0  0
   44.2460   84.5930   53.7440 C   0  0  0  0  0  0  0  0  0  0  0  0
   45.0710   83.6940   53.5250 O   0  0  0  0  0  0  0  0  0  0  0  0
   43.8260   85.6280   52.8350 N   0  0  0  0  0  0  0  0  0  0  0  0
   44.5870   86.1810   52.3850 H   0  0  0  0  0  0  0  0  0  0  0  0
   42.7950   85.7970   52.6470 H   0  0  0  0  0  0  0  0  0  0  0  0
  2  1  1  0  0  0  0
  2  3  1  0  0  0  0
  3 12  1  0  0  0  0
  4  3  2  0  0  0  0
  4  9  1  0  0  0  0
  5  4  1  0  0  0  0
  6  8  1  0  0  0  0
  6  5  2  0  0  0  0
  7  6  1  0  0  0  0
  8  2  2  0  0  0  0
 10  5  1  0  0  0  0
 11 16  1  0  0  0  0
 12 13  1  0  0  0  0
 12 11  2  0  0  0  0
 13 14  2  0  0  0  0
 14 15  1  0  0  0  0
 15 19  1  0  0  0  0
 16 15  2  0  0  0  0
 17 11  1  0  0  0  0
 18 13  1  0  0  0  0
 19 22  1  0  0  0  0
 19 21  1  0  0  0  0
 20 19  1  0  0  0  0
 23  8  1  0  0  0  0
 24 25  1  0  0  0  0
 24 23  1  0  0  0  0
 26 24  1  0  0  0  0
 27 24  1  0  0  0  0
 28 27  1  0  0  0  0
 29 28  2  0  0  0  0
 30 28  1  0  0  0  0
 31 30  1  0  0  0  0
 32 30  1  0  0  0  0
M  END
>  <minimizedAffinity>
-5.08335352

>  <minimizedRMSD>
0.580704391

$$$$
