
 OpenBabel03212520393D

 23 24  0  0  1  0  0  0  0  0999 V2000
   42.3690   85.4500   59.7830 C   0  0  1  0  0  0  0  0  0  0  0  0
   43.4450   86.4730   59.4340 C   0  0  0  0  0  0  0  0  0  0  0  0
   43.0130   85.3850   58.4610 C   0  0  1  0  0  0  0  0  0  0  0  0
   41.3780   85.9590   59.9480 H   0  0  0  0  0  0  0  0  0  0  0  0
   43.1640   87.5160   59.2150 H   0  0  0  0  0  0  0  0  0  0  0  0
   44.4570   86.3590   59.8150 H   0  0  0  0  0  0  0  0  0  0  0  0
   42.4190   85.7710   57.6100 H   0  0  0  0  0  0  0  0  0  0  0  0
   42.8030   84.5700   60.8050 O   0  0  0  0  0  0  0  0  0  0  0  0
   40.0530   83.5210   62.9020 C   0  0  0  0  0  0  0  0  0  0  0  0
   40.5590   83.7410   64.1830 C   0  0  0  0  0  0  0  0  0  0  0  0
   41.8890   84.2680   64.2890 C   0  0  0  0  0  0  0  0  0  0  0  0
   42.5150   84.4950   63.1250 N   0  0  0  0  0  0  0  0  0  0  0  0
   42.0380   84.2870   61.8990 C   0  0  0  0  0  0  0  0  0  0  0  0
   40.8100   83.8010   61.7870 N   0  0  0  0  0  0  0  0  0  0  0  0
   39.0400   83.1190   62.7870 H   0  0  0  0  0  0  0  0  0  0  0  0
   40.0020   83.5370   65.0770 H   0  0  0  0  0  0  0  0  0  0  0  0
   42.3410   84.4620   65.2530 H   0  0  0  0  0  0  0  0  0  0  0  0
   43.8970   84.3130   58.2560 O   0  0  0  0  0  0  0  0  0  0  0  0
   44.0490   83.6750   57.0310 C   0  0  0  0  0  0  0  0  0  0  0  0
   44.8520   82.6910   57.1660 O   0  0  0  0  0  0  0  0  0  0  0  0
   43.4100   84.0590   55.8180 N   0  0  0  0  0  0  0  0  0  0  0  0
   42.3900   84.1880   56.0020 H   0  0  0  0  0  0  0  0  0  0  0  0
   44.1180   84.1190   55.0340 H   0  0  0  0  0  0  0  0  0  0  0  0
  1  4  1  1  0  0  0
  1  8  1  0  0  0  0
  2  1  1  0  0  0  0
  2  6  1  0  0  0  0
  3  7  1  6  0  0  0
  3  2  1  0  0  0  0
  3  1  1  0  0  0  0
  5  2  1  0  0  0  0
  8 13  1  0  0  0  0
  9 10  1  0  0  0  0
 10 11  2  0  0  0  0
 10 16  1  0  0  0  0
 11 17  1  0  0  0  0
 12 11  1  0  0  0  0
 13 12  2  0  0  0  0
 14 13  1  0  0  0  0
 14  9  2  0  0  0  0
 15  9  1  0  0  0  0
 18  3  1  0  0  0  0
 19 20  2  0  0  0  0
 19 18  1  0  0  0  0
 21 22  1  0  0  0  0
 21 19  1  0  0  0  0
 23 21  1  0  0  0  0
M  END
>  <minimizedAffinity>
-3.30500793

>  <minimizedRMSD>
0.12355417

$$$$
