
 OpenBabel03212520393D

 23 24  0  0  1  0  0  0  0  0999 V2000
   42.3990   85.5010   59.7950 C   0  0  1  0  0  0  0  0  0  0  0  0
   43.5560   86.4370   59.4620 C   0  0  0  0  0  0  0  0  0  0  0  0
   42.9850   85.4580   58.4450 C   0  0  1  0  0  0  0  0  0  0  0  0
   41.4700   86.0910   60.0310 H   0  0  0  0  0  0  0  0  0  0  0  0
   43.3710   87.5140   59.3160 H   0  0  0  0  0  0  0  0  0  0  0  0
   44.5660   86.2030   59.7920 H   0  0  0  0  0  0  0  0  0  0  0  0
   42.4010   85.9510   57.6440 H   0  0  0  0  0  0  0  0  0  0  0  0
   42.7820   84.5220   60.7440 O   0  0  0  0  0  0  0  0  0  0  0  0
   40.0640   83.5080   62.9000 C   0  0  0  0  0  0  0  0  0  0  0  0
   40.5980   83.7250   64.1700 C   0  0  0  0  0  0  0  0  0  0  0  0
   41.9360   84.2380   64.2470 C   0  0  0  0  0  0  0  0  0  0  0  0
   42.5410   84.4560   63.0700 N   0  0  0  0  0  0  0  0  0  0  0  0
   42.0360   84.2490   61.8550 C   0  0  0  0  0  0  0  0  0  0  0  0
   40.8010   83.7760   61.7690 N   0  0  0  0  0  0  0  0  0  0  0  0
   39.0450   83.1160   62.8070 H   0  0  0  0  0  0  0  0  0  0  0  0
   40.0580   83.5290   65.0750 H   0  0  0  0  0  0  0  0  0  0  0  0
   42.4100   84.4300   65.2010 H   0  0  0  0  0  0  0  0  0  0  0  0
   43.7530   84.3210   58.1410 O   0  0  0  0  0  0  0  0  0  0  0  0
   44.1090   83.9690   56.8450 C   0  0  0  0  0  0  0  0  0  0  0  0
   44.0670   85.0070   56.1010 O   0  0  0  0  0  0  0  0  0  0  0  0
   44.4660   82.6600   56.4150 N   0  0  0  0  0  0  0  0  0  0  0  0
   45.1790   82.2740   57.0730 H   0  0  0  0  0  0  0  0  0  0  0  0
   43.9260   82.4000   55.5440 H   0  0  0  0  0  0  0  0  0  0  0  0
  1  4  1  1  0  0  0
  1  8  1  0  0  0  0
  2  6  1  0  0  0  0
  2  1  1  0  0  0  0
  3  7  1  6  0  0  0
  3  2  1  0  0  0  0
  3  1  1  0  0  0  0
  5  2  1  0  0  0  0
  8 13  1  0  0  0  0
  9 10  1  0  0  0  0
 10 11  2  0  0  0  0
 10 16  1  0  0  0  0
 11 17  1  0  0  0  0
 12 11  1  0  0  0  0
 13 12  2  0  0  0  0
 14 13  1  0  0  0  0
 14  9  2  0  0  0  0
 15  9  1  0  0  0  0
 18  3  1  0  0  0  0
 19 18  1  0  0  0  0
 20 19  2  0  0  0  0
 21 19  1  0  0  0  0
 21 22  1  0  0  0  0
 23 21  1  0  0  0  0
M  END
>  <minimizedAffinity>
-3.43802857

>  <minimizedRMSD>
0.239633441

$$$$
