
 OpenBabel03212520393D

 23 24  0  0  1  0  0  0  0  0999 V2000
   42.3610   85.4550   59.7700 C   0  0  1  0  0  0  0  0  0  0  0  0
   43.4500   86.4800   59.4720 C   0  0  0  0  0  0  0  0  0  0  0  0
   43.0150   85.4380   58.4510 C   0  0  1  0  0  0  0  0  0  0  0  0
   41.3750   85.9670   59.9490 H   0  0  0  0  0  0  0  0  0  0  0  0
   43.1820   87.5350   59.2950 H   0  0  0  0  0  0  0  0  0  0  0  0
   44.4580   86.3400   59.8550 H   0  0  0  0  0  0  0  0  0  0  0  0
   42.4310   85.8660   57.6120 H   0  0  0  0  0  0  0  0  0  0  0  0
   42.7790   84.5290   60.7570 O   0  0  0  0  0  0  0  0  0  0  0  0
   40.0570   83.5130   62.9080 C   0  0  0  0  0  0  0  0  0  0  0  0
   40.5890   83.7300   64.1780 C   0  0  0  0  0  0  0  0  0  0  0  0
   41.9270   84.2430   64.2580 C   0  0  0  0  0  0  0  0  0  0  0  0
   42.5340   84.4610   63.0820 N   0  0  0  0  0  0  0  0  0  0  0  0
   42.0320   84.2550   61.8660 C   0  0  0  0  0  0  0  0  0  0  0  0
   40.7960   83.7820   61.7770 N   0  0  0  0  0  0  0  0  0  0  0  0
   39.0380   83.1220   62.8120 H   0  0  0  0  0  0  0  0  0  0  0  0
   40.0470   83.5340   65.0830 H   0  0  0  0  0  0  0  0  0  0  0  0
   42.3990   84.4340   65.2130 H   0  0  0  0  0  0  0  0  0  0  0  0
   43.8900   84.3670   58.2080 O   0  0  0  0  0  0  0  0  0  0  0  0
   44.5140   84.1570   56.9850 C   0  0  0  0  0  0  0  0  0  0  0  0
   44.3060   85.1650   56.2280 O   0  0  0  0  0  0  0  0  0  0  0  0
   45.2660   83.0010   56.6300 N   0  0  0  0  0  0  0  0  0  0  0  0
   45.9520   82.8000   57.3920 H   0  0  0  0  0  0  0  0  0  0  0  0
   44.9490   82.6320   55.6910 H   0  0  0  0  0  0  0  0  0  0  0  0
  1  4  1  1  0  0  0
  1  8  1  0  0  0  0
  2  1  1  0  0  0  0
  2  6  1  0  0  0  0
  3  7  1  6  0  0  0
  3  2  1  0  0  0  0
  3  1  1  0  0  0  0
  5  2  1  0  0  0  0
  8 13  1  0  0  0  0
  9 10  1  0  0  0  0
 10 11  2  0  0  0  0
 10 16  1  0  0  0  0
 11 17  1  0  0  0  0
 12 11  1  0  0  0  0
 13 12  2  0  0  0  0
 14 13  1  0  0  0  0
 14  9  2  0  0  0  0
 15  9  1  0  0  0  0
 18  3  1  0  0  0  0
 19 18  1  0  0  0  0
 20 19  2  0  0  0  0
 21 19  1  0  0  0  0
 21 22  1  0  0  0  0
 23 21  1  0  0  0  0
M  END
>  <minimizedAffinity>
-3.47315764

>  <minimizedRMSD>
0.336257845

$$$$
