
 OpenBabel03212520393D

 23 24  0  0  1  0  0  0  0  0999 V2000
   42.3810   85.4280   59.7990 C   0  0  1  0  0  0  0  0  0  0  0  0
   43.4350   86.4600   59.4110 C   0  0  0  0  0  0  0  0  0  0  0  0
   43.0360   85.3190   58.4860 C   0  0  1  0  0  0  0  0  0  0  0  0
   41.3780   85.9200   59.9350 H   0  0  0  0  0  0  0  0  0  0  0  0
   43.1310   87.4850   59.1440 H   0  0  0  0  0  0  0  0  0  0  0  0
   44.4470   86.3880   59.8030 H   0  0  0  0  0  0  0  0  0  0  0  0
   42.4390   85.6530   57.6140 H   0  0  0  0  0  0  0  0  0  0  0  0
   42.8290   84.6060   60.8620 O   0  0  0  0  0  0  0  0  0  0  0  0
   40.0420   83.5300   62.8980 C   0  0  0  0  0  0  0  0  0  0  0  0
   40.5220   83.7440   64.1900 C   0  0  0  0  0  0  0  0  0  0  0  0
   41.8470   84.2750   64.3250 C   0  0  0  0  0  0  0  0  0  0  0  0
   42.4950   84.5130   63.1760 N   0  0  0  0  0  0  0  0  0  0  0  0
   42.0430   84.3110   61.9390 C   0  0  0  0  0  0  0  0  0  0  0  0
   40.8200   83.8210   61.7990 N   0  0  0  0  0  0  0  0  0  0  0  0
   39.0330   83.1240   62.7600 H   0  0  0  0  0  0  0  0  0  0  0  0
   39.9480   83.5310   65.0710 H   0  0  0  0  0  0  0  0  0  0  0  0
   42.2790   84.4650   65.2990 H   0  0  0  0  0  0  0  0  0  0  0  0
   43.9470   84.2610   58.3350 O   0  0  0  0  0  0  0  0  0  0  0  0
   43.8080   83.2690   57.3720 C   0  0  0  0  0  0  0  0  0  0  0  0
   42.6250   82.7900   57.4310 O   0  0  0  0  0  0  0  0  0  0  0  0
   44.8220   82.8530   56.4650 N   0  0  0  0  0  0  0  0  0  0  0  0
   45.2360   83.6970   56.0130 H   0  0  0  0  0  0  0  0  0  0  0  0
   44.9090   81.7980   56.4710 H   0  0  0  0  0  0  0  0  0  0  0  0
  1  4  1  1  0  0  0
  1  8  1  0  0  0  0
  2  1  1  0  0  0  0
  2  6  1  0  0  0  0
  3  7  1  6  0  0  0
  3  2  1  0  0  0  0
  3  1  1  0  0  0  0
  5  2  1  0  0  0  0
  8 13  1  0  0  0  0
  9 10  1  0  0  0  0
 10 11  2  0  0  0  0
 10 16  1  0  0  0  0
 11 17  1  0  0  0  0
 12 11  1  0  0  0  0
 13 12  2  0  0  0  0
 14 13  1  0  0  0  0
 14  9  2  0  0  0  0
 15  9  1  0  0  0  0
 18  3  1  0  0  0  0
 19 20  2  0  0  0  0
 19 18  1  0  0  0  0
 21 23  1  0  0  0  0
 21 19  1  0  0  0  0
 22 21  1  0  0  0  0
M  END
>  <minimizedAffinity>
-3.29865551

>  <minimizedRMSD>
0.448262483

$$$$
