
 OpenBabel03212520393D

 23 24  0  0  1  0  0  0  0  0999 V2000
   42.3760   85.4480   59.7970 C   0  0  1  0  0  0  0  0  0  0  0  0
   43.4370   86.4730   59.4110 C   0  0  0  0  0  0  0  0  0  0  0  0
   43.0190   85.3460   58.4760 C   0  0  1  0  0  0  0  0  0  0  0  0
   41.3790   85.9490   59.9460 H   0  0  0  0  0  0  0  0  0  0  0  0
   43.1430   87.5040   59.1570 H   0  0  0  0  0  0  0  0  0  0  0  0
   44.4520   86.3860   59.7930 H   0  0  0  0  0  0  0  0  0  0  0  0
   42.4180   85.6950   57.6140 H   0  0  0  0  0  0  0  0  0  0  0  0
   42.8240   84.6090   60.8470 O   0  0  0  0  0  0  0  0  0  0  0  0
   40.0510   83.5200   62.8940 C   0  0  0  0  0  0  0  0  0  0  0  0
   40.5350   83.7360   64.1840 C   0  0  0  0  0  0  0  0  0  0  0  0
   41.8580   84.2750   64.3140 C   0  0  0  0  0  0  0  0  0  0  0  0
   42.5000   84.5160   63.1610 N   0  0  0  0  0  0  0  0  0  0  0  0
   42.0450   84.3110   61.9270 C   0  0  0  0  0  0  0  0  0  0  0  0
   40.8230   83.8140   61.7920 N   0  0  0  0  0  0  0  0  0  0  0  0
   39.0440   83.1090   62.7600 H   0  0  0  0  0  0  0  0  0  0  0  0
   39.9660   83.5210   65.0670 H   0  0  0  0  0  0  0  0  0  0  0  0
   42.2930   84.4670   65.2860 H   0  0  0  0  0  0  0  0  0  0  0  0
   43.9180   84.2800   58.3060 O   0  0  0  0  0  0  0  0  0  0  0  0
   44.1870   83.7020   57.0720 C   0  0  0  0  0  0  0  0  0  0  0  0
   43.5060   84.2990   56.1710 O   0  0  0  0  0  0  0  0  0  0  0  0
   45.0800   82.6170   56.8480 N   0  0  0  0  0  0  0  0  0  0  0  0
   45.9860   82.8240   57.3220 H   0  0  0  0  0  0  0  0  0  0  0  0
   44.6120   81.8720   56.2610 H   0  0  0  0  0  0  0  0  0  0  0  0
  1  4  1  1  0  0  0
  1  8  1  0  0  0  0
  2  6  1  0  0  0  0
  2  1  1  0  0  0  0
  3  7  1  6  0  0  0
  3  2  1  0  0  0  0
  3  1  1  0  0  0  0
  5  2  1  0  0  0  0
  8 13  1  0  0  0  0
  9 10  1  0  0  0  0
 10 11  2  0  0  0  0
 10 16  1  0  0  0  0
 11 17  1  0  0  0  0
 12 11  1  0  0  0  0
 13 12  2  0  0  0  0
 14 13  1  0  0  0  0
 14  9  2  0  0  0  0
 15  9  1  0  0  0  0
 18  3  1  0  0  0  0
 19 18  1  0  0  0  0
 20 19  2  0  0  0  0
 21 19  1  0  0  0  0
 21 22  1  0  0  0  0
 23 21  1  0  0  0  0
M  END
>  <minimizedAffinity>
-3.30910158

>  <minimizedRMSD>
0.150141865

$$$$
