
 OpenBabel03212520363D

 15 15  0  0  0  0  0  0  0  0999 V2000
   39.5040   76.4290   60.3660 C   0  0  0  0  0  0  0  0  0  0  0  0
   39.0770   75.3710   61.1900 C   0  0  0  0  0  0  0  0  0  0  0  0
   38.4040   74.2830   60.5850 C   0  0  0  0  0  0  0  0  0  0  0  0
   38.2170   74.3390   59.2490 N   0  0  0  0  0  0  0  0  0  0  0  0
   38.6290   75.3530   58.4860 C   0  0  0  0  0  0  0  0  0  0  0  0
   39.2780   76.4100   59.0390 N   0  0  0  0  0  0  0  0  0  0  0  0
   40.0150   77.2410   60.8660 H   0  0  0  0  0  0  0  0  0  0  0  0
   39.2100   75.2960   62.2480 H   0  0  0  0  0  0  0  0  0  0  0  0
   38.0540   73.4400   61.1790 H   0  0  0  0  0  0  0  0  0  0  0  0
   38.4080   75.3580   57.1060 O   0  0  0  0  0  0  0  0  0  0  0  0
   37.1510   75.5290   56.5370 C   0  0  0  0  0  0  0  0  0  0  0  0
   36.5040   76.5170   56.0660 O   0  0  0  0  0  0  0  0  0  0  0  0
   36.4670   74.2750   56.4950 N   0  0  0  0  0  0  0  0  0  0  0  0
   35.5080   74.3100   56.9530 H   0  0  0  0  0  0  0  0  0  0  0  0
   35.9330   73.3590   56.4800 H   0  0  0  0  0  0  0  0  0  0  0  0
  1  7  1  0  0  0  0
  1  2  1  0  0  0  0
  2  8  1  0  0  0  0
  3  9  1  0  0  0  0
  3  2  2  0  0  0  0
  4  3  1  0  0  0  0
  5  6  1  0  0  0  0
  5  4  2  0  0  0  0
  6  1  2  0  0  0  0
 10  5  1  0  0  0  0
 11 10  1  0  0  0  0
 12 11  2  0  0  0  0
 13 11  1  0  0  0  0
 13 14  1  0  0  0  0
 15 13  1  0  0  0  0
M  END
>  <minimizedAffinity>
-3.87909079

$$$$

 OpenBabel03212520363D

 15 15  0  0  0  0  0  0  0  0999 V2000
   38.3530   74.3470   60.5110 C   0  0  0  0  0  0  0  0  0  0  0  0
   39.0430   75.3640   61.1970 C   0  0  0  0  0  0  0  0  0  0  0  0
   39.5260   76.4650   60.4510 C   0  0  0  0  0  0  0  0  0  0  0  0
   39.2880   76.4620   59.1220 N   0  0  0  0  0  0  0  0  0  0  0  0
   38.6320   75.4860   58.4900 C   0  0  0  0  0  0  0  0  0  0  0  0
   38.1580   74.4180   59.1800 N   0  0  0  0  0  0  0  0  0  0  0  0
   38.0000   73.5230   61.1160 H   0  0  0  0  0  0  0  0  0  0  0  0
   39.2460   75.3970   62.2460 H   0  0  0  0  0  0  0  0  0  0  0  0
   40.0650   77.2770   60.9350 H   0  0  0  0  0  0  0  0  0  0  0  0
   38.4150   75.5350   57.1100 O   0  0  0  0  0  0  0  0  0  0  0  0
   37.1500   75.6280   56.5400 C   0  0  0  0  0  0  0  0  0  0  0  0
   36.4750   76.5580   55.9970 O   0  0  0  0  0  0  0  0  0  0  0  0
   36.4990   74.3570   56.6060 N   0  0  0  0  0  0  0  0  0  0  0  0
   35.5430   74.4050   57.0690 H   0  0  0  0  0  0  0  0  0  0  0  0
   35.9890   73.4300   56.6700 H   0  0  0  0  0  0  0  0  0  0  0  0
  1  7  1  0  0  0  0
  1  2  1  0  0  0  0
  2  8  1  0  0  0  0
  3  9  1  0  0  0  0
  3  2  2  0  0  0  0
  4  3  1  0  0  0  0
  5  4  2  0  0  0  0
  5  6  1  0  0  0  0
  6  1  2  0  0  0  0
 10  5  1  0  0  0  0
 11 13  1  0  0  0  0
 11 10  1  0  0  0  0
 12 11  2  0  0  0  0
 13 15  1  0  0  0  0
 13 14  1  0  0  0  0
M  END
>  <minimizedAffinity>
-3.85560012

$$$$

 OpenBabel03212520363D

 15 15  0  0  0  0  0  0  0  0999 V2000
   42.4710   73.3340   60.5980 C   0  0  0  0  0  0  0  0  0  0  0  0
   43.0520   72.4890   61.5630 C   0  0  0  0  0  0  0  0  0  0  0  0
   42.2050   71.9050   62.5350 C   0  0  0  0  0  0  0  0  0  0  0  0
   40.8890   72.2020   62.4660 N   0  0  0  0  0  0  0  0  0  0  0  0
   40.3590   73.0060   61.5420 C   0  0  0  0  0  0  0  0  0  0  0  0
   41.1480   73.5810   60.5980 N   0  0  0  0  0  0  0  0  0  0  0  0
   43.1510   73.7610   59.8730 H   0  0  0  0  0  0  0  0  0  0  0  0
   44.0870   72.2340   61.6440 H   0  0  0  0  0  0  0  0  0  0  0  0
   42.6050   71.2440   63.3020 H   0  0  0  0  0  0  0  0  0  0  0  0
   38.9890   73.2790   61.5190 O   0  0  0  0  0  0  0  0  0  0  0  0
   38.4290   74.3030   60.7650 C   0  0  0  0  0  0  0  0  0  0  0  0
   37.8880   74.3830   59.6170 O   0  0  0  0  0  0  0  0  0  0  0  0
   38.5010   75.5320   61.4940 N   0  0  0  0  0  0  0  0  0  0  0  0
   38.9710   76.3120   60.9450 H   0  0  0  0  0  0  0  0  0  0  0  0
   38.5710   76.4570   62.0070 H   0  0  0  0  0  0  0  0  0  0  0  0
  1  6  2  0  0  0  0
  1  2  1  0  0  0  0
  2  8  1  0  0  0  0
  2  3  2  0  0  0  0
  3  9  1  0  0  0  0
  4  3  1  0  0  0  0
  5  4  2  0  0  0  0
  6  5  1  0  0  0  0
  7  1  1  0  0  0  0
 10  5  1  0  0  0  0
 11 13  1  0  0  0  0
 11 10  1  0  0  0  0
 12 11  2  0  0  0  0
 13 15  1  0  0  0  0
 14 13  1  0  0  0  0
M  END
>  <minimizedAffinity>
-3.73554945

$$$$

 OpenBabel03212520363D

 15 15  0  0  0  0  0  0  0  0999 V2000
   37.4460   74.9720   57.3150 C   0  0  0  0  0  0  0  0  0  0  0  0
   37.3900   76.0160   56.3730 C   0  0  0  0  0  0  0  0  0  0  0  0
   38.1250   77.1960   56.6400 C   0  0  0  0  0  0  0  0  0  0  0  0
   38.8330   77.2360   57.7890 N   0  0  0  0  0  0  0  0  0  0  0  0
   38.8710   76.2330   58.6700 C   0  0  0  0  0  0  0  0  0  0  0  0
   38.1760   75.0900   58.4400 N   0  0  0  0  0  0  0  0  0  0  0  0
   36.8710   74.0880   57.0750 H   0  0  0  0  0  0  0  0  0  0  0  0
   36.8420   76.0160   55.4550 H   0  0  0  0  0  0  0  0  0  0  0  0
   38.1160   78.0320   55.9420 H   0  0  0  0  0  0  0  0  0  0  0  0
   39.6210   76.3300   59.8450 O   0  0  0  0  0  0  0  0  0  0  0  0
   39.5670   75.3850   60.8630 C   0  0  0  0  0  0  0  0  0  0  0  0
   40.3050   74.4180   61.2320 O   0  0  0  0  0  0  0  0  0  0  0  0
   38.3900   75.5900   61.6480 N   0  0  0  0  0  0  0  0  0  0  0  0
   37.7930   74.7150   61.7370 H   0  0  0  0  0  0  0  0  0  0  0  0
   37.5090   75.7100   62.2250 H   0  0  0  0  0  0  0  0  0  0  0  0
  1  6  1  0  0  0  0
  2  3  1  0  0  0  0
  2  1  2  0  0  0  0
  3  4  2  0  0  0  0
  4  5  1  0  0  0  0
  5 10  1  0  0  0  0
  6  5  2  0  0  0  0
  7  1  1  0  0  0  0
  8  2  1  0  0  0  0
  9  3  1  0  0  0  0
 10 11  1  0  0  0  0
 11 12  2  0  0  0  0
 11 13  1  0  0  0  0
 13 14  1  0  0  0  0
 13 15  1  0  0  0  0
M  END
>  <minimizedAffinity>
-3.6656394

$$$$

 OpenBabel03212520363D

 15 15  0  0  0  0  0  0  0  0999 V2000
   37.8770   76.5410   56.7590 C   0  0  0  0  0  0  0  0  0  0  0  0
   38.7380   77.5930   57.1250 C   0  0  0  0  0  0  0  0  0  0  0  0
   39.4500   77.4800   58.3420 C   0  0  0  0  0  0  0  0  0  0  0  0
   39.2520   76.3620   59.0720 N   0  0  0  0  0  0  0  0  0  0  0  0
   38.4300   75.3750   58.7070 C   0  0  0  0  0  0  0  0  0  0  0  0
   37.7330   75.4570   57.5450 N   0  0  0  0  0  0  0  0  0  0  0  0
   37.3500   76.6650   55.8220 H   0  0  0  0  0  0  0  0  0  0  0  0
   38.9170   78.4890   56.5700 H   0  0  0  0  0  0  0  0  0  0  0  0
   40.1290   78.2660   58.6690 H   0  0  0  0  0  0  0  0  0  0  0  0
   38.2630   74.2400   59.5030 O   0  0  0  0  0  0  0  0  0  0  0  0
   38.7180   74.1540   60.8140 C   0  0  0  0  0  0  0  0  0  0  0  0
   39.4360   73.3310   61.4650 O   0  0  0  0  0  0  0  0  0  0  0  0
   38.2420   75.2750   61.5630 N   0  0  0  0  0  0  0  0  0  0  0  0
   37.7250   74.9930   62.4490 H   0  0  0  0  0  0  0  0  0  0  0  0
   37.8750   76.0840   62.1420 H   0  0  0  0  0  0  0  0  0  0  0  0
  1  2  2  0  0  0  0
  1  6  1  0  0  0  0
  2  3  1  0  0  0  0
  3  9  1  0  0  0  0
  3  4  2  0  0  0  0
  5  4  1  0  0  0  0
  5 10  1  0  0  0  0
  6  5  2  0  0  0  0
  7  1  1  0  0  0  0
  8  2  1  0  0  0  0
 10 11  1  0  0  0  0
 11 12  2  0  0  0  0
 11 13  1  0  0  0  0
 13 15  1  0  0  0  0
 13 14  1  0  0  0  0
M  END
>  <minimizedAffinity>
-3.6086359

$$$$

 OpenBabel03212520363D

 15 15  0  0  0  0  0  0  0  0999 V2000
   42.0280   71.8870   62.5730 C   0  0  0  0  0  0  0  0  0  0  0  0
   42.9660   72.4230   61.6720 C   0  0  0  0  0  0  0  0  0  0  0  0
   42.4970   73.2910   60.6570 C   0  0  0  0  0  0  0  0  0  0  0  0
   41.1710   73.5450   60.6260 N   0  0  0  0  0  0  0  0  0  0  0  0
   40.2980   73.0250   61.4900 C   0  0  0  0  0  0  0  0  0  0  0  0
   40.7190   72.1880   62.4740 N   0  0  0  0  0  0  0  0  0  0  0  0
   42.4250   71.2280   63.3330 H   0  0  0  0  0  0  0  0  0  0  0  0
   44.0200   72.2440   61.6700 H   0  0  0  0  0  0  0  0  0  0  0  0
   43.1830   73.7330   59.9360 H   0  0  0  0  0  0  0  0  0  0  0  0
   38.9350   73.3210   61.4100 O   0  0  0  0  0  0  0  0  0  0  0  0
   38.4180   74.3120   60.5820 C   0  0  0  0  0  0  0  0  0  0  0  0
   37.8330   74.3260   59.4530 O   0  0  0  0  0  0  0  0  0  0  0  0
   38.6160   75.5940   61.1840 N   0  0  0  0  0  0  0  0  0  0  0  0
   39.1170   76.2790   60.5440 H   0  0  0  0  0  0  0  0  0  0  0  0
   38.7780   76.5540   61.6010 H   0  0  0  0  0  0  0  0  0  0  0  0
  1  7  1  0  0  0  0
  2  1  2  0  0  0  0
  3  2  1  0  0  0  0
  4  3  2  0  0  0  0
  4  5  1  0  0  0  0
  5  6  2  0  0  0  0
  6  1  1  0  0  0  0
  8  2  1  0  0  0  0
  9  3  1  0  0  0  0
 10  5  1  0  0  0  0
 11 13  1  0  0  0  0
 11 10  1  0  0  0  0
 12 11  2  0  0  0  0
 13 15  1  0  0  0  0
 14 13  1  0  0  0  0
M  END
>  <minimizedAffinity>
-3.56455684

$$$$

 OpenBabel03212520363D

 15 15  0  0  0  0  0  0  0  0999 V2000
   40.4050   75.9090   60.0750 C   0  0  0  0  0  0  0  0  0  0  0  0
   39.5540   75.5950   61.1510 C   0  0  0  0  0  0  0  0  0  0  0  0
   38.4820   74.7020   60.9160 C   0  0  0  0  0  0  0  0  0  0  0  0
   38.3500   74.2110   59.6650 N   0  0  0  0  0  0  0  0  0  0  0  0
   39.1690   74.5230   58.6580 C   0  0  0  0  0  0  0  0  0  0  0  0
   40.2060   75.3780   58.8550 N   0  0  0  0  0  0  0  0  0  0  0  0
   41.2120   76.5950   60.2950 H   0  0  0  0  0  0  0  0  0  0  0  0
   39.6320   75.9650   62.1510 H   0  0  0  0  0  0  0  0  0  0  0  0
   37.7960   74.4270   61.7150 H   0  0  0  0  0  0  0  0  0  0  0  0
   38.9850   73.9850   57.3820 O   0  0  0  0  0  0  0  0  0  0  0  0
   38.0480   72.9980   57.0990 C   0  0  0  0  0  0  0  0  0  0  0  0
   38.0730   71.7290   57.0210 O   0  0  0  0  0  0  0  0  0  0  0  0
   36.7760   73.6000   56.8420 N   0  0  0  0  0  0  0  0  0  0  0  0
   36.3570   73.3030   55.9120 H   0  0  0  0  0  0  0  0  0  0  0  0
   35.8330   74.0300   56.6220 H   0  0  0  0  0  0  0  0  0  0  0  0
  1  7  1  0  0  0  0
  1  2  1  0  0  0  0
  2  8  1  0  0  0  0
  3  2  2  0  0  0  0
  3  9  1  0  0  0  0
  4  3  1  0  0  0  0
  5  6  1  0  0  0  0
  5  4  2  0  0  0  0
  6  1  2  0  0  0  0
 10  5  1  0  0  0  0
 11 10  1  0  0  0  0
 12 11  2  0  0  0  0
 13 11  1  0  0  0  0
 14 13  1  0  0  0  0
 15 13  1  0  0  0  0
M  END
>  <minimizedAffinity>
-3.44099879

$$$$

 OpenBabel03212520363D

 15 15  0  0  0  0  0  0  0  0999 V2000
   39.3230   76.7320   59.2190 C   0  0  0  0  0  0  0  0  0  0  0  0
   38.6030   76.3320   58.0780 C   0  0  0  0  0  0  0  0  0  0  0  0
   38.0130   75.0460   58.0770 C   0  0  0  0  0  0  0  0  0  0  0  0
   38.1850   74.2870   59.1800 N   0  0  0  0  0  0  0  0  0  0  0  0
   38.8730   74.6850   60.2530 C   0  0  0  0  0  0  0  0  0  0  0  0
   39.4500   75.9140   60.2810 N   0  0  0  0  0  0  0  0  0  0  0  0
   39.7590   77.7210   59.1810 H   0  0  0  0  0  0  0  0  0  0  0  0
   38.4480   76.9080   57.1910 H   0  0  0  0  0  0  0  0  0  0  0  0
   37.4450   74.6900   57.2190 H   0  0  0  0  0  0  0  0  0  0  0  0
   39.0200   73.8570   61.3680 O   0  0  0  0  0  0  0  0  0  0  0  0
   40.0870   72.9800   61.5310 C   0  0  0  0  0  0  0  0  0  0  0  0
   40.5130   72.2490   62.4800 O   0  0  0  0  0  0  0  0  0  0  0  0
   40.8520   72.9230   60.3240 N   0  0  0  0  0  0  0  0  0  0  0  0
   41.8840   73.1260   60.4780 H   0  0  0  0  0  0  0  0  0  0  0  0
   41.4470   72.8890   59.4480 H   0  0  0  0  0  0  0  0  0  0  0  0
  1  6  1  0  0  0  0
  2  1  2  0  0  0  0
  3  2  1  0  0  0  0
  3  4  2  0  0  0  0
  4  5  1  0  0  0  0
  5  6  2  0  0  0  0
  5 10  1  0  0  0  0
  7  1  1  0  0  0  0
  8  2  1  0  0  0  0
  9  3  1  0  0  0  0
 10 11  1  0  0  0  0
 11 12  2  0  0  0  0
 13 14  1  0  0  0  0
 13 11  1  0  0  0  0
 15 13  1  0  0  0  0
M  END
>  <minimizedAffinity>
-3.374861

$$$$

 OpenBabel03212520363D

 15 15  0  0  0  0  0  0  0  0999 V2000
   38.9690   73.6460   61.2180 C   0  0  0  0  0  0  0  0  0  0  0  0
   40.3410   73.3660   61.0710 C   0  0  0  0  0  0  0  0  0  0  0  0
   41.0190   73.9150   59.9570 C   0  0  0  0  0  0  0  0  0  0  0  0
   40.2960   74.6760   59.1080 N   0  0  0  0  0  0  0  0  0  0  0  0
   38.9950   74.9290   59.2650 C   0  0  0  0  0  0  0  0  0  0  0  0
   38.3180   74.4140   60.3250 N   0  0  0  0  0  0  0  0  0  0  0  0
   38.4870   73.2080   62.0810 H   0  0  0  0  0  0  0  0  0  0  0  0
   40.9410   72.7700   61.7250 H   0  0  0  0  0  0  0  0  0  0  0  0
   42.0800   73.7290   59.7990 H   0  0  0  0  0  0  0  0  0  0  0  0
   38.2960   75.7230   58.3530 O   0  0  0  0  0  0  0  0  0  0  0  0
   37.4220   75.2050   57.4040 C   0  0  0  0  0  0  0  0  0  0  0  0
   36.6400   75.7030   56.5350 O   0  0  0  0  0  0  0  0  0  0  0  0
   37.4440   73.7760   57.4590 N   0  0  0  0  0  0  0  0  0  0  0  0
   36.4780   73.3510   57.5810 H   0  0  0  0  0  0  0  0  0  0  0  0
   37.4270   72.7180   57.5040 H   0  0  0  0  0  0  0  0  0  0  0  0
  1  7  1  0  0  0  0
  2  1  1  0  0  0  0
  2  8  1  0  0  0  0
  3  2  2  0  0  0  0
  4  5  2  0  0  0  0
  4  3  1  0  0  0  0
  5  6  1  0  0  0  0
  6  1  2  0  0  0  0
  9  3  1  0  0  0  0
 10  5  1  0  0  0  0
 11 13  1  0  0  0  0
 11 10  1  0  0  0  0
 12 11  2  0  0  0  0
 13 15  1  0  0  0  0
 13 14  1  0  0  0  0
M  END
>  <minimizedAffinity>
-3.36041784

$$$$
