
 OpenBabel03212520393D

 23 24  0  0  1  0  0  0  0  0999 V2000
   42.2880   85.4690   59.7630 C   0  0  1  0  0  0  0  0  0  0  0  0
   43.4020   86.3460   59.2010 C   0  0  0  0  0  0  0  0  0  0  0  0
   42.7420   85.2460   58.3810 C   0  0  1  0  0  0  0  0  0  0  0  0
   41.3820   86.0910   60.0090 H   0  0  0  0  0  0  0  0  0  0  0  0
   43.1970   87.3950   58.9350 H   0  0  0  0  0  0  0  0  0  0  0  0
   44.4400   86.1510   59.4600 H   0  0  0  0  0  0  0  0  0  0  0  0
   42.0800   85.6340   57.5820 H   0  0  0  0  0  0  0  0  0  0  0  0
   42.7670   84.6200   60.7910 O   0  0  0  0  0  0  0  0  0  0  0  0
   40.0580   83.5200   62.9180 C   0  0  0  0  0  0  0  0  0  0  0  0
   40.5840   83.7250   64.1930 C   0  0  0  0  0  0  0  0  0  0  0  0
   41.9120   84.2590   64.2850 C   0  0  0  0  0  0  0  0  0  0  0  0
   42.5180   84.5080   63.1140 N   0  0  0  0  0  0  0  0  0  0  0  0
   42.0220   84.3140   61.8940 C   0  0  0  0  0  0  0  0  0  0  0  0
   40.7950   83.8210   61.7940 N   0  0  0  0  0  0  0  0  0  0  0  0
   39.0460   83.1120   62.8130 H   0  0  0  0  0  0  0  0  0  0  0  0
   40.0440   83.5030   65.0930 H   0  0  0  0  0  0  0  0  0  0  0  0
   42.3790   84.4430   65.2440 H   0  0  0  0  0  0  0  0  0  0  0  0
   43.4830   84.0740   58.1550 O   0  0  0  0  0  0  0  0  0  0  0  0
   43.7820   83.5960   56.8860 C   0  0  0  0  0  0  0  0  0  0  0  0
   44.3290   84.5280   56.2040 O   0  0  0  0  0  0  0  0  0  0  0  0
   43.5200   82.2780   56.4200 N   0  0  0  0  0  0  0  0  0  0  0  0
   43.8780   81.5940   57.1230 H   0  0  0  0  0  0  0  0  0  0  0  0
   43.0320   82.3100   55.4820 H   0  0  0  0  0  0  0  0  0  0  0  0
  1  4  1  1  0  0  0
  1  8  1  0  0  0  0
  2  6  1  0  0  0  0
  2  1  1  0  0  0  0
  3  7  1  6  0  0  0
  3  2  1  0  0  0  0
  3  1  1  0  0  0  0
  5  2  1  0  0  0  0
  8 13  1  0  0  0  0
  9 10  1  0  0  0  0
 10 11  2  0  0  0  0
 10 16  1  0  0  0  0
 11 17  1  0  0  0  0
 12 11  1  0  0  0  0
 13 12  2  0  0  0  0
 14 13  1  0  0  0  0
 14  9  2  0  0  0  0
 15  9  1  0  0  0  0
 18  3  1  0  0  0  0
 19 18  1  0  0  0  0
 20 19  2  0  0  0  0
 21 19  1  0  0  0  0
 21 22  1  0  0  0  0
 23 21  1  0  0  0  0
M  END
>  <minimizedAffinity>
-3.29119396

>  <minimizedRMSD>
0.323302329

$$$$
