
 OpenBabel03212520393D

 23 24  0  0  1  0  0  0  0  0999 V2000
   42.3690   85.4490   59.7820 C   0  0  1  0  0  0  0  0  0  0  0  0
   43.4460   86.4720   59.4380 C   0  0  0  0  0  0  0  0  0  0  0  0
   43.0140   85.3890   58.4600 C   0  0  1  0  0  0  0  0  0  0  0  0
   41.3790   85.9600   59.9480 H   0  0  0  0  0  0  0  0  0  0  0  0
   43.1680   87.5170   59.2240 H   0  0  0  0  0  0  0  0  0  0  0  0
   44.4590   86.3550   59.8200 H   0  0  0  0  0  0  0  0  0  0  0  0
   42.4220   85.7800   57.6100 H   0  0  0  0  0  0  0  0  0  0  0  0
   42.8010   84.5650   60.8000 O   0  0  0  0  0  0  0  0  0  0  0  0
   40.0530   83.5190   62.9040 C   0  0  0  0  0  0  0  0  0  0  0  0
   40.5610   83.7410   64.1830 C   0  0  0  0  0  0  0  0  0  0  0  0
   41.8910   84.2680   64.2860 C   0  0  0  0  0  0  0  0  0  0  0  0
   42.5160   84.4940   63.1210 N   0  0  0  0  0  0  0  0  0  0  0  0
   42.0370   84.2830   61.8970 C   0  0  0  0  0  0  0  0  0  0  0  0
   40.8090   83.7970   61.7860 N   0  0  0  0  0  0  0  0  0  0  0  0
   39.0400   83.1170   62.7900 H   0  0  0  0  0  0  0  0  0  0  0  0
   40.0060   83.5390   65.0780 H   0  0  0  0  0  0  0  0  0  0  0  0
   42.3450   84.4640   65.2490 H   0  0  0  0  0  0  0  0  0  0  0  0
   43.8970   84.3160   58.2520 O   0  0  0  0  0  0  0  0  0  0  0  0
   44.0360   83.6720   57.0290 C   0  0  0  0  0  0  0  0  0  0  0  0
   44.8300   82.6810   57.1630 O   0  0  0  0  0  0  0  0  0  0  0  0
   43.3940   84.0570   55.8180 N   0  0  0  0  0  0  0  0  0  0  0  0
   42.3770   84.1960   56.0070 H   0  0  0  0  0  0  0  0  0  0  0  0
   44.0980   84.1070   55.0300 H   0  0  0  0  0  0  0  0  0  0  0  0
  1  4  1  1  0  0  0
  1  8  1  0  0  0  0
  2  1  1  0  0  0  0
  2  6  1  0  0  0  0
  3  7  1  6  0  0  0
  3  2  1  0  0  0  0
  3  1  1  0  0  0  0
  5  2  1  0  0  0  0
  8 13  1  0  0  0  0
  9 10  1  0  0  0  0
 10 11  2  0  0  0  0
 10 16  1  0  0  0  0
 11 17  1  0  0  0  0
 12 11  1  0  0  0  0
 13 12  2  0  0  0  0
 14 13  1  0  0  0  0
 14  9  2  0  0  0  0
 15  9  1  0  0  0  0
 18  3  1  0  0  0  0
 19 20  2  0  0  0  0
 19 18  1  0  0  0  0
 21 22  1  0  0  0  0
 21 19  1  0  0  0  0
 23 21  1  0  0  0  0
M  END
>  <minimizedAffinity>
-3.30529952

>  <minimizedRMSD>
0.189559177

$$$$
