
 OpenBabel03212520393D

 23 24  0  0  1  0  0  0  0  0999 V2000
   42.3690   85.4450   59.7890 C   0  0  1  0  0  0  0  0  0  0  0  0
   43.4430   86.4690   59.4390 C   0  0  0  0  0  0  0  0  0  0  0  0
   43.0160   85.3750   58.4690 C   0  0  1  0  0  0  0  0  0  0  0  0
   41.3770   85.9520   59.9500 H   0  0  0  0  0  0  0  0  0  0  0  0
   43.1610   87.5100   59.2150 H   0  0  0  0  0  0  0  0  0  0  0  0
   44.4550   86.3590   59.8220 H   0  0  0  0  0  0  0  0  0  0  0  0
   42.4230   85.7570   57.6150 H   0  0  0  0  0  0  0  0  0  0  0  0
   42.8030   84.5710   60.8160 O   0  0  0  0  0  0  0  0  0  0  0  0
   40.0490   83.5240   62.9110 C   0  0  0  0  0  0  0  0  0  0  0  0
   40.5520   83.7480   64.1920 C   0  0  0  0  0  0  0  0  0  0  0  0
   41.8820   84.2770   64.2990 C   0  0  0  0  0  0  0  0  0  0  0  0
   42.5100   84.5020   63.1350 N   0  0  0  0  0  0  0  0  0  0  0  0
   42.0360   84.2890   61.9100 C   0  0  0  0  0  0  0  0  0  0  0  0
   40.8080   83.8010   61.7960 N   0  0  0  0  0  0  0  0  0  0  0  0
   39.0370   83.1200   62.7940 H   0  0  0  0  0  0  0  0  0  0  0  0
   39.9940   83.5460   65.0850 H   0  0  0  0  0  0  0  0  0  0  0  0
   42.3310   84.4750   65.2630 H   0  0  0  0  0  0  0  0  0  0  0  0
   43.9040   84.3050   58.2710 O   0  0  0  0  0  0  0  0  0  0  0  0
   44.1490   83.7410   57.0250 C   0  0  0  0  0  0  0  0  0  0  0  0
   45.3770   83.9140   56.7190 O   0  0  0  0  0  0  0  0  0  0  0  0
   43.1840   83.0750   56.2180 N   0  0  0  0  0  0  0  0  0  0  0  0
   42.6790   82.3760   56.8050 H   0  0  0  0  0  0  0  0  0  0  0  0
   43.2120   83.4490   55.2290 H   0  0  0  0  0  0  0  0  0  0  0  0
  1  4  1  1  0  0  0
  1  8  1  0  0  0  0
  2  1  1  0  0  0  0
  2  6  1  0  0  0  0
  3  7  1  6  0  0  0
  3  2  1  0  0  0  0
  3  1  1  0  0  0  0
  5  2  1  0  0  0  0
  8 13  1  0  0  0  0
  9 10  1  0  0  0  0
 10 11  2  0  0  0  0
 10 16  1  0  0  0  0
 11 17  1  0  0  0  0
 12 11  1  0  0  0  0
 13 12  2  0  0  0  0
 14 13  1  0  0  0  0
 14  9  2  0  0  0  0
 15  9  1  0  0  0  0
 18  3  1  0  0  0  0
 19 18  1  0  0  0  0
 20 19  2  0  0  0  0
 21 22  1  0  0  0  0
 21 19  1  0  0  0  0
 23 21  1  0  0  0  0
M  END
>  <minimizedAffinity>
-3.28566241

>  <minimizedRMSD>
0.0722107738

$$$$
