
 OpenBabel03212520393D

 23 24  0  0  1  0  0  0  0  0999 V2000
   42.3780   85.4330   59.8000 C   0  0  1  0  0  0  0  0  0  0  0  0
   43.4360   86.4570   59.4010 C   0  0  0  0  0  0  0  0  0  0  0  0
   43.0230   85.3150   58.4810 C   0  0  1  0  0  0  0  0  0  0  0  0
   41.3790   85.9320   59.9410 H   0  0  0  0  0  0  0  0  0  0  0  0
   43.1370   87.4830   59.1330 H   0  0  0  0  0  0  0  0  0  0  0  0
   44.4500   86.3780   59.7850 H   0  0  0  0  0  0  0  0  0  0  0  0
   42.4220   85.6500   57.6130 H   0  0  0  0  0  0  0  0  0  0  0  0
   42.8280   84.6110   60.8620 O   0  0  0  0  0  0  0  0  0  0  0  0
   40.0430   83.5300   62.8980 C   0  0  0  0  0  0  0  0  0  0  0  0
   40.5240   83.7410   64.1900 C   0  0  0  0  0  0  0  0  0  0  0  0
   41.8500   84.2730   64.3250 C   0  0  0  0  0  0  0  0  0  0  0  0
   42.4970   84.5140   63.1750 N   0  0  0  0  0  0  0  0  0  0  0  0
   42.0440   84.3140   61.9390 C   0  0  0  0  0  0  0  0  0  0  0  0
   40.8200   83.8230   61.7990 N   0  0  0  0  0  0  0  0  0  0  0  0
   39.0350   83.1240   62.7600 H   0  0  0  0  0  0  0  0  0  0  0  0
   39.9520   83.5260   65.0710 H   0  0  0  0  0  0  0  0  0  0  0  0
   42.2820   84.4610   65.2990 H   0  0  0  0  0  0  0  0  0  0  0  0
   43.9250   84.2500   58.3270 O   0  0  0  0  0  0  0  0  0  0  0  0
   44.4190   83.8450   57.0940 C   0  0  0  0  0  0  0  0  0  0  0  0
   44.7680   84.8730   56.4220 O   0  0  0  0  0  0  0  0  0  0  0  0
   44.5200   82.4970   56.6490 N   0  0  0  0  0  0  0  0  0  0  0  0
   44.9820   81.9310   57.3950 H   0  0  0  0  0  0  0  0  0  0  0  0
   44.1040   82.3970   55.6820 H   0  0  0  0  0  0  0  0  0  0  0  0
  1  4  1  1  0  0  0
  1  8  1  0  0  0  0
  2  6  1  0  0  0  0
  2  1  1  0  0  0  0
  3  7  1  6  0  0  0
  3  2  1  0  0  0  0
  3  1  1  0  0  0  0
  5  2  1  0  0  0  0
  8 13  1  0  0  0  0
  9 10  1  0  0  0  0
 10 11  2  0  0  0  0
 10 16  1  0  0  0  0
 11 17  1  0  0  0  0
 12 11  1  0  0  0  0
 13 12  2  0  0  0  0
 14 13  1  0  0  0  0
 14  9  2  0  0  0  0
 15  9  1  0  0  0  0
 18  3  1  0  0  0  0
 19 18  1  0  0  0  0
 20 19  2  0  0  0  0
 21 19  1  0  0  0  0
 21 22  1  0  0  0  0
 23 21  1  0  0  0  0
M  END
>  <minimizedAffinity>
-3.30847979

>  <minimizedRMSD>
0.185204878

$$$$
