
 OpenBabel03212520393D

 23 24  0  0  1  0  0  0  0  0999 V2000
   41.5700   85.2230   59.4630 C   0  0  1  0  0  0  0  0  0  0  0  0
   42.4310   85.4670   58.2280 C   0  0  0  0  0  0  0  0  0  0  0  0
   41.3550   84.3900   58.2680 C   0  0  1  0  0  0  0  0  0  0  0  0
   40.9400   86.1280   59.6890 H   0  0  0  0  0  0  0  0  0  0  0  0
   42.2600   86.3580   57.6030 H   0  0  0  0  0  0  0  0  0  0  0  0
   43.4480   85.0840   58.1810 H   0  0  0  0  0  0  0  0  0  0  0  0
   40.4670   84.6380   57.6550 H   0  0  0  0  0  0  0  0  0  0  0  0
   42.3370   84.7050   60.5340 O   0  0  0  0  0  0  0  0  0  0  0  0
   40.0090   83.5850   63.0630 C   0  0  0  0  0  0  0  0  0  0  0  0
   40.7470   83.7480   64.2350 C   0  0  0  0  0  0  0  0  0  0  0  0
   42.0810   84.2620   64.1130 C   0  0  0  0  0  0  0  0  0  0  0  0
   42.4840   84.5340   62.8630 N   0  0  0  0  0  0  0  0  0  0  0  0
   41.7850   84.3800   61.7400 C   0  0  0  0  0  0  0  0  0  0  0  0
   40.5500   83.9070   61.8380 N   0  0  0  0  0  0  0  0  0  0  0  0
   38.9870   83.1950   63.1220 H   0  0  0  0  0  0  0  0  0  0  0  0
   40.3630   83.5110   65.2080 H   0  0  0  0  0  0  0  0  0  0  0  0
   42.7070   84.4130   64.9830 H   0  0  0  0  0  0  0  0  0  0  0  0
   41.7800   83.0540   58.3610 O   0  0  0  0  0  0  0  0  0  0  0  0
   40.9500   82.0190   58.7710 C   0  0  0  0  0  0  0  0  0  0  0  0
   41.5280   81.3600   59.7000 O   0  0  0  0  0  0  0  0  0  0  0  0
   39.6610   81.7370   58.2390 N   0  0  0  0  0  0  0  0  0  0  0  0
   39.1050   82.6200   58.2200 H   0  0  0  0  0  0  0  0  0  0  0  0
   39.5810   80.7110   57.9960 H   0  0  0  0  0  0  0  0  0  0  0  0
  1  4  1  1  0  0  0
  1  8  1  0  0  0  0
  2  3  1  0  0  0  0
  2  1  1  0  0  0  0
  3  7  1  6  0  0  0
  3 18  1  0  0  0  0
  3  1  1  0  0  0  0
  5  2  1  0  0  0  0
  6  2  1  0  0  0  0
  8 13  1  0  0  0  0
  9 15  1  0  0  0  0
  9 10  1  0  0  0  0
 10 16  1  0  0  0  0
 11 10  2  0  0  0  0
 11 17  1  0  0  0  0
 12 11  1  0  0  0  0
 13 14  1  0  0  0  0
 13 12  2  0  0  0  0
 14  9  2  0  0  0  0
 18 19  1  0  0  0  0
 19 20  2  0  0  0  0
 21 19  1  0  0  0  0
 22 21  1  0  0  0  0
 23 21  1  0  0  0  0
M  END
>  <minimizedAffinity>
-3.8098433

>  <minimizedRMSD>
2.4913938

$$$$
