
 OpenBabel03212520413D

 23 24  0  0  1  0  0  0  0  0999 V2000
   39.1950   73.8190   61.2090 C   0  0  1  0  0  0  0  0  0  0  0  0
   39.0270   75.3220   61.0120 C   0  0  0  0  0  0  0  0  0  0  0  0
   38.2440   74.3030   60.1950 C   0  0  1  0  0  0  0  0  0  0  0  0
   38.8730   73.5180   62.2450 H   0  0  0  0  0  0  0  0  0  0  0  0
   38.4880   75.9200   61.7640 H   0  0  0  0  0  0  0  0  0  0  0  0
   39.7600   75.8880   60.4410 H   0  0  0  0  0  0  0  0  0  0  0  0
   37.1720   74.2550   60.4710 H   0  0  0  0  0  0  0  0  0  0  0  0
   40.4780   73.3830   60.7960 O   0  0  0  0  0  0  0  0  0  0  0  0
   41.6750   70.9100   63.1450 C   0  0  0  0  0  0  0  0  0  0  0  0
   42.3370   70.0090   62.3120 C   0  0  0  0  0  0  0  0  0  0  0  0
   42.3510   70.2930   60.9060 C   0  0  0  0  0  0  0  0  0  0  0  0
   41.7150   71.4150   60.5360 N   0  0  0  0  0  0  0  0  0  0  0  0
   41.0810   72.2790   61.3270 C   0  0  0  0  0  0  0  0  0  0  0  0
   41.0600   72.0280   62.6280 N   0  0  0  0  0  0  0  0  0  0  0  0
   41.6450   70.7210   64.2240 H   0  0  0  0  0  0  0  0  0  0  0  0
   42.8280   69.1270   62.6740 H   0  0  0  0  0  0  0  0  0  0  0  0
   42.8480   69.6350   60.2040 H   0  0  0  0  0  0  0  0  0  0  0  0
   38.6220   74.1210   58.8550 O   0  0  0  0  0  0  0  0  0  0  0  0
   37.7990   74.4410   57.7830 C   0  0  0  0  0  0  0  0  0  0  0  0
   37.8000   75.7080   57.6150 O   0  0  0  0  0  0  0  0  0  0  0  0
   37.0700   73.5060   56.9950 N   0  0  0  0  0  0  0  0  0  0  0  0
   37.7140   72.7400   56.7020 H   0  0  0  0  0  0  0  0  0  0  0  0
   36.0620   73.8130   56.9010 H   0  0  0  0  0  0  0  0  0  0  0  0
  1  4  1  1  0  0  0
  2  1  1  0  0  0  0
  2  5  1  0  0  0  0
  3  7  1  1  0  0  0
  3  2  1  0  0  0  0
  3  1  1  0  0  0  0
  6  2  1  0  0  0  0
  8  1  1  0  0  0  0
  8 13  1  0  0  0  0
  9 15  1  0  0  0  0
 10 16  1  0  0  0  0
 10  9  2  0  0  0  0
 11 10  1  0  0  0  0
 12 11  2  0  0  0  0
 12 13  1  0  0  0  0
 13 14  2  0  0  0  0
 14  9  1  0  0  0  0
 17 11  1  0  0  0  0
 18  3  1  0  0  0  0
 19 18  1  0  0  0  0
 20 19  2  0  0  0  0
 21 19  1  0  0  0  0
 22 21  1  0  0  0  0
 23 21  1  0  0  0  0
M  END
>  <minimizedAffinity>
-4.22187567

$$$$

 OpenBabel03212520413D

 23 24  0  0  1  0  0  0  0  0999 V2000
   40.2100   76.7220   58.8070 C   0  0  1  0  0  0  0  0  0  0  0  0
   40.7650   77.5160   59.9840 C   0  0  0  0  0  0  0  0  0  0  0  0
   40.4380   76.0330   60.0870 C   0  0  1  0  0  0  0  0  0  0  0  0
   40.9560   76.6940   57.9640 H   0  0  0  0  0  0  0  0  0  0  0  0
   41.8230   77.8240   59.9940 H   0  0  0  0  0  0  0  0  0  0  0  0
   40.1130   78.1610   60.5700 H   0  0  0  0  0  0  0  0  0  0  0  0
   41.3390   75.3910   60.1410 H   0  0  0  0  0  0  0  0  0  0  0  0
   38.8980   77.1390   58.4730 O   0  0  0  0  0  0  0  0  0  0  0  0
   38.1000   77.3350   54.9530 C   0  0  0  0  0  0  0  0  0  0  0  0
   37.1540   76.3210   54.8090 C   0  0  0  0  0  0  0  0  0  0  0  0
   36.8040   75.5690   55.9800 C   0  0  0  0  0  0  0  0  0  0  0  0
   37.4360   75.9270   57.1080 N   0  0  0  0  0  0  0  0  0  0  0  0
   38.3410   76.8930   57.2510 C   0  0  0  0  0  0  0  0  0  0  0  0
   38.6740   77.5960   56.1770 N   0  0  0  0  0  0  0  0  0  0  0  0
   38.3900   77.9270   54.0780 H   0  0  0  0  0  0  0  0  0  0  0  0
   36.6840   76.0850   53.8740 H   0  0  0  0  0  0  0  0  0  0  0  0
   36.0760   74.7700   55.9380 H   0  0  0  0  0  0  0  0  0  0  0  0
   39.2890   75.6720   60.8090 O   0  0  0  0  0  0  0  0  0  0  0  0
   38.5940   74.4890   60.5900 C   0  0  0  0  0  0  0  0  0  0  0  0
   39.0180   73.5960   61.3990 O   0  0  0  0  0  0  0  0  0  0  0  0
   37.5700   74.3030   59.6180 N   0  0  0  0  0  0  0  0  0  0  0  0
   36.8820   75.0830   59.7020 H   0  0  0  0  0  0  0  0  0  0  0  0
   37.7560   73.4280   59.0530 H   0  0  0  0  0  0  0  0  0  0  0  0
  1  4  1  6  0  0  0
  1  2  1  0  0  0  0
  1  3  1  0  0  0  0
  2  5  1  0  0  0  0
  2  3  1  0  0  0  0
  2  6  1  0  0  0  0
  3  7  1  1  0  0  0
  3 18  1  0  0  0  0
  8  1  1  0  0  0  0
  9 14  1  0  0  0  0
 10  9  2  0  0  0  0
 10 11  1  0  0  0  0
 11 12  2  0  0  0  0
 12 13  1  0  0  0  0
 13  8  1  0  0  0  0
 14 13  2  0  0  0  0
 15  9  1  0  0  0  0
 16 10  1  0  0  0  0
 17 11  1  0  0  0  0
 19 18  1  0  0  0  0
 19 20  2  0  0  0  0
 21 22  1  0  0  0  0
 21 19  1  0  0  0  0
 23 21  1  0  0  0  0
M  END
>  <minimizedAffinity>
-4.16084623

$$$$

 OpenBabel03212520413D

 23 24  0  0  1  0  0  0  0  0999 V2000
   38.9450   75.5040   60.1310 C   0  0  1  0  0  0  0  0  0  0  0  0
   39.6750   74.6190   61.1350 C   0  0  0  0  0  0  0  0  0  0  0  0
   40.2750   75.9160   60.6090 C   0  0  1  0  0  0  0  0  0  0  0  0
   37.9920   75.9040   60.5780 H   0  0  0  0  0  0  0  0  0  0  0  0
   39.3400   74.5810   62.1840 H   0  0  0  0  0  0  0  0  0  0  0  0
   40.1900   73.7200   60.8040 H   0  0  0  0  0  0  0  0  0  0  0  0
   40.2920   76.7260   61.3640 H   0  0  0  0  0  0  0  0  0  0  0  0
   38.8330   74.8720   58.8690 O   0  0  0  0  0  0  0  0  0  0  0  0
   37.7990   77.2880   56.3870 C   0  0  0  0  0  0  0  0  0  0  0  0
   36.8660   76.5660   55.6430 C   0  0  0  0  0  0  0  0  0  0  0  0
   36.6110   75.2100   56.0370 C   0  0  0  0  0  0  0  0  0  0  0  0
   37.3090   74.7740   57.0970 N   0  0  0  0  0  0  0  0  0  0  0  0
   38.2010   75.4590   57.8100 C   0  0  0  0  0  0  0  0  0  0  0  0
   38.4470   76.7130   57.4570 N   0  0  0  0  0  0  0  0  0  0  0  0
   38.0180   78.3260   56.1110 H   0  0  0  0  0  0  0  0  0  0  0  0
   36.3410   76.9760   54.8030 H   0  0  0  0  0  0  0  0  0  0  0  0
   35.8990   74.5950   55.5030 H   0  0  0  0  0  0  0  0  0  0  0  0
   41.3250   75.8140   59.6820 O   0  0  0  0  0  0  0  0  0  0  0  0
   41.8060   76.8960   58.9550 C   0  0  0  0  0  0  0  0  0  0  0  0
   42.5670   77.5990   59.7020 O   0  0  0  0  0  0  0  0  0  0  0  0
   41.4980   77.1760   57.5940 N   0  0  0  0  0  0  0  0  0  0  0  0
   41.6410   76.3090   57.0320 H   0  0  0  0  0  0  0  0  0  0  0  0
   41.2020   78.1860   57.4850 H   0  0  0  0  0  0  0  0  0  0  0  0
  1  4  1  1  0  0  0
  1  3  1  0  0  0  0
  1  2  1  0  0  0  0
  2  5  1  0  0  0  0
  3  2  1  0  0  0  0
  3  7  1  1  0  0  0
  6  2  1  0  0  0  0
  8  1  1  0  0  0  0
  9 14  1  0  0  0  0
 10 11  1  0  0  0  0
 10  9  2  0  0  0  0
 11 12  2  0  0  0  0
 12 13  1  0  0  0  0
 13  8  1  0  0  0  0
 14 13  2  0  0  0  0
 15  9  1  0  0  0  0
 16 10  1  0  0  0  0
 17 11  1  0  0  0  0
 18  3  1  0  0  0  0
 19 18  1  0  0  0  0
 19 20  2  0  0  0  0
 21 19  1  0  0  0  0
 22 21  1  0  0  0  0
 23 21  1  0  0  0  0
M  END
>  <minimizedAffinity>
-4.15617085

$$$$

 OpenBabel03212520413D

 23 24  0  0  1  0  0  0  0  0999 V2000
   37.0460   75.7560   56.5030 C   0  0  1  0  0  0  0  0  0  0  0  0
   36.6910   76.8000   55.4500 C   0  0  0  0  0  0  0  0  0  0  0  0
   37.0440   75.3650   55.0840 C   0  0  1  0  0  0  0  0  0  0  0  0
   36.1680   75.5670   57.1820 H   0  0  0  0  0  0  0  0  0  0  0  0
   35.6470   77.1320   55.3300 H   0  0  0  0  0  0  0  0  0  0  0  0
   37.4270   77.5370   55.1360 H   0  0  0  0  0  0  0  0  0  0  0  0
   36.1720   74.7750   54.7420 H   0  0  0  0  0  0  0  0  0  0  0  0
   38.2780   76.0540   57.1340 O   0  0  0  0  0  0  0  0  0  0  0  0
   38.3790   74.2550   60.2670 C   0  0  0  0  0  0  0  0  0  0  0  0
   39.1090   75.1220   61.0810 C   0  0  0  0  0  0  0  0  0  0  0  0
   39.5620   76.3530   60.5000 C   0  0  0  0  0  0  0  0  0  0  0  0
   39.2310   76.5410   59.2140 N   0  0  0  0  0  0  0  0  0  0  0  0
   38.5360   75.7180   58.4320 C   0  0  0  0  0  0  0  0  0  0  0  0
   38.1100   74.5770   58.9560 N   0  0  0  0  0  0  0  0  0  0  0  0
   38.0190   73.3060   60.6810 H   0  0  0  0  0  0  0  0  0  0  0  0
   39.3400   74.9090   62.1060 H   0  0  0  0  0  0  0  0  0  0  0  0
   40.1320   77.0690   61.0760 H   0  0  0  0  0  0  0  0  0  0  0  0
   38.3030   75.1360   54.5040 O   0  0  0  0  0  0  0  0  0  0  0  0
   38.4720   74.7520   53.1800 C   0  0  0  0  0  0  0  0  0  0  0  0
   39.5940   74.1540   53.0550 O   0  0  0  0  0  0  0  0  0  0  0  0
   37.5420   74.9890   52.1290 N   0  0  0  0  0  0  0  0  0  0  0  0
   36.5950   74.6850   52.4440 H   0  0  0  0  0  0  0  0  0  0  0  0
   38.0340   75.4100   51.2920 H   0  0  0  0  0  0  0  0  0  0  0  0
  1  8  1  0  0  0  0
  1  4  1  1  0  0  0
  2  1  1  0  0  0  0
  3  7  1  6  0  0  0
  3  2  1  0  0  0  0
  3  1  1  0  0  0  0
  5  2  1  0  0  0  0
  6  2  1  0  0  0  0
  8 13  1  0  0  0  0
  9 15  1  0  0  0  0
  9 10  1  0  0  0  0
 10 16  1  0  0  0  0
 11 17  1  0  0  0  0
 11 10  2  0  0  0  0
 12 11  1  0  0  0  0
 13 14  1  0  0  0  0
 13 12  2  0  0  0  0
 14  9  2  0  0  0  0
 18  3  1  0  0  0  0
 19 18  1  0  0  0  0
 20 19  2  0  0  0  0
 21 22  1  0  0  0  0
 21 19  1  0  0  0  0
 23 21  1  0  0  0  0
M  END
>  <minimizedAffinity>
-4.15131998

$$$$

 OpenBabel03212520413D

 23 24  0  0  1  0  0  0  0  0999 V2000
   40.3110   75.2370   58.8280 C   0  0  1  0  0  0  0  0  0  0  0  0
   40.2980   75.0630   57.3130 C   0  0  0  0  0  0  0  0  0  0  0  0
   39.2730   75.9220   58.0410 C   0  0  1  0  0  0  0  0  0  0  0  0
   41.2570   75.7510   59.1580 H   0  0  0  0  0  0  0  0  0  0  0  0
   41.0590   75.5640   56.6930 H   0  0  0  0  0  0  0  0  0  0  0  0
   39.8900   74.1600   56.8650 H   0  0  0  0  0  0  0  0  0  0  0  0
   39.4210   77.0080   57.8800 H   0  0  0  0  0  0  0  0  0  0  0  0
   39.9870   74.0270   59.4900 O   0  0  0  0  0  0  0  0  0  0  0  0
   42.9660   72.9590   61.2380 C   0  0  0  0  0  0  0  0  0  0  0  0
   42.4360   72.2280   62.3010 C   0  0  0  0  0  0  0  0  0  0  0  0
   41.0080   72.1190   62.3850 C   0  0  0  0  0  0  0  0  0  0  0  0
   40.3230   72.7450   61.4170 N   0  0  0  0  0  0  0  0  0  0  0  0
   40.8220   73.4460   60.4010 C   0  0  0  0  0  0  0  0  0  0  0  0
   42.1400   73.5540   60.3100 N   0  0  0  0  0  0  0  0  0  0  0  0
   44.0530   73.0620   61.1450 H   0  0  0  0  0  0  0  0  0  0  0  0
   43.0440   71.7500   63.0440 H   0  0  0  0  0  0  0  0  0  0  0  0
   40.5330   71.5650   63.1850 H   0  0  0  0  0  0  0  0  0  0  0  0
   37.9700   75.4130   58.1590 O   0  0  0  0  0  0  0  0  0  0  0  0
   37.1700   75.1070   57.0660 C   0  0  0  0  0  0  0  0  0  0  0  0
   36.7870   76.1900   56.5080 O   0  0  0  0  0  0  0  0  0  0  0  0
   36.8310   73.7930   56.6350 N   0  0  0  0  0  0  0  0  0  0  0  0
   37.7030   73.2230   56.5780 H   0  0  0  0  0  0  0  0  0  0  0  0
   35.7880   73.7160   56.4780 H   0  0  0  0  0  0  0  0  0  0  0  0
  1  4  1  1  0  0  0
  1  8  1  0  0  0  0
  2  3  1  0  0  0  0
  2  1  1  0  0  0  0
  3  7  1  6  0  0  0
  3 18  1  0  0  0  0
  3  1  1  0  0  0  0
  5  2  1  0  0  0  0
  6  2  1  0  0  0  0
  8 13  1  0  0  0  0
  9 10  1  0  0  0  0
 10 11  2  0  0  0  0
 10 16  1  0  0  0  0
 11 17  1  0  0  0  0
 12 11  1  0  0  0  0
 13 12  2  0  0  0  0
 14 13  1  0  0  0  0
 14  9  2  0  0  0  0
 15  9  1  0  0  0  0
 19 18  1  0  0  0  0
 20 19  2  0  0  0  0
 21 19  1  0  0  0  0
 22 21  1  0  0  0  0
 23 21  1  0  0  0  0
M  END
>  <minimizedAffinity>
-4.09927845

$$$$

 OpenBabel03212520413D

 23 24  0  0  1  0  0  0  0  0999 V2000
   39.7740   76.4840   58.6920 C   0  0  1  0  0  0  0  0  0  0  0  0
   39.8350   76.7060   60.1990 C   0  0  0  0  0  0  0  0  0  0  0  0
   40.3170   75.4170   59.5480 C   0  0  1  0  0  0  0  0  0  0  0  0
   40.4330   77.2240   58.1570 H   0  0  0  0  0  0  0  0  0  0  0  0
   40.5830   77.3920   60.6270 H   0  0  0  0  0  0  0  0  0  0  0  0
   38.9400   76.5940   60.8090 H   0  0  0  0  0  0  0  0  0  0  0  0
   41.4200   75.3120   59.5550 H   0  0  0  0  0  0  0  0  0  0  0  0
   38.4370   76.3870   58.2360 O   0  0  0  0  0  0  0  0  0  0  0  0
   38.5560   74.8470   54.9670 C   0  0  0  0  0  0  0  0  0  0  0  0
   37.4070   75.3550   54.3610 C   0  0  0  0  0  0  0  0  0  0  0  0
   36.5920   76.2510   55.1300 C   0  0  0  0  0  0  0  0  0  0  0  0
   37.0290   76.5090   56.3720 N   0  0  0  0  0  0  0  0  0  0  0  0
   38.1240   76.0280   56.9560 C   0  0  0  0  0  0  0  0  0  0  0  0
   38.8870   75.1980   56.2570 N   0  0  0  0  0  0  0  0  0  0  0  0
   39.1990   74.1600   54.4080 H   0  0  0  0  0  0  0  0  0  0  0  0
   37.1140   75.1070   53.3600 H   0  0  0  0  0  0  0  0  0  0  0  0
   35.6880   76.6810   54.7190 H   0  0  0  0  0  0  0  0  0  0  0  0
   39.5130   74.2760   59.6990 O   0  0  0  0  0  0  0  0  0  0  0  0
   39.2350   73.6980   60.9320 C   0  0  0  0  0  0  0  0  0  0  0  0
   38.0430   73.9980   61.2770 O   0  0  0  0  0  0  0  0  0  0  0  0
   40.1380   72.9000   61.6890 N   0  0  0  0  0  0  0  0  0  0  0  0
   40.5460   72.1700   61.0650 H   0  0  0  0  0  0  0  0  0  0  0  0
   40.1750   73.2380   62.6910 H   0  0  0  0  0  0  0  0  0  0  0  0
  1  4  1  6  0  0  0
  1  3  1  0  0  0  0
  1  2  1  0  0  0  0
  2  5  1  0  0  0  0
  2  6  1  0  0  0  0
  3  7  1  6  0  0  0
  3 18  1  0  0  0  0
  3  2  1  0  0  0  0
  8  1  1  0  0  0  0
  9 14  1  0  0  0  0
 10  9  2  0  0  0  0
 10 11  1  0  0  0  0
 11 12  2  0  0  0  0
 12 13  1  0  0  0  0
 13  8  1  0  0  0  0
 14 13  2  0  0  0  0
 15  9  1  0  0  0  0
 16 10  1  0  0  0  0
 17 11  1  0  0  0  0
 18 19  1  0  0  0  0
 19 20  2  0  0  0  0
 19 21  1  0  0  0  0
 21 23  1  0  0  0  0
 22 21  1  0  0  0  0
M  END
>  <minimizedAffinity>
-4.00383234

$$$$

 OpenBabel03212520413D

 23 24  0  0  1  0  0  0  0  0999 V2000
   39.2200   73.4940   61.2370 C   0  0  1  0  0  0  0  0  0  0  0  0
   38.6040   74.8820   61.1010 C   0  0  0  0  0  0  0  0  0  0  0  0
   38.8020   73.9610   59.9050 C   0  0  1  0  0  0  0  0  0  0  0  0
   38.5690   72.8350   61.8770 H   0  0  0  0  0  0  0  0  0  0  0  0
   37.5780   75.0690   61.4570 H   0  0  0  0  0  0  0  0  0  0  0  0
   39.2370   75.7670   61.0960 H   0  0  0  0  0  0  0  0  0  0  0  0
   37.8540   73.5410   59.5160 H   0  0  0  0  0  0  0  0  0  0  0  0
   40.5880   73.5670   61.5940 O   0  0  0  0  0  0  0  0  0  0  0  0
   43.0660   70.9560   61.2570 C   0  0  0  0  0  0  0  0  0  0  0  0
   42.8260   70.1750   62.3880 C   0  0  0  0  0  0  0  0  0  0  0  0
   41.7720   70.5900   63.2690 C   0  0  0  0  0  0  0  0  0  0  0  0
   41.1190   71.7040   62.9050 N   0  0  0  0  0  0  0  0  0  0  0  0
   41.3440   72.4540   61.8280 C   0  0  0  0  0  0  0  0  0  0  0  0
   42.3150   72.0820   61.0050 N   0  0  0  0  0  0  0  0  0  0  0  0
   43.8640   70.6670   60.5650 H   0  0  0  0  0  0  0  0  0  0  0  0
   43.3870   69.2920   62.6200 H   0  0  0  0  0  0  0  0  0  0  0  0
   41.5340   70.0290   64.1630 H   0  0  0  0  0  0  0  0  0  0  0  0
   39.8360   74.2790   59.0090 O   0  0  0  0  0  0  0  0  0  0  0  0
   40.4200   75.5370   58.9360 C   0  0  0  0  0  0  0  0  0  0  0  0
   39.7180   76.2830   58.1730 O   0  0  0  0  0  0  0  0  0  0  0  0
   41.6130   75.9310   59.6050 N   0  0  0  0  0  0  0  0  0  0  0  0
   41.5420   75.6560   60.6090 H   0  0  0  0  0  0  0  0  0  0  0  0
   42.2750   76.4020   58.9270 H   0  0  0  0  0  0  0  0  0  0  0  0
  1  8  1  0  0  0  0
  1  4  1  1  0  0  0
  2  1  1  0  0  0  0
  2  5  1  0  0  0  0
  3  7  1  6  0  0  0
  3  2  1  0  0  0  0
  3  1  1  0  0  0  0
  6  2  1  0  0  0  0
  8 13  1  0  0  0  0
  9 10  1  0  0  0  0
 10 16  1  0  0  0  0
 10 11  2  0  0  0  0
 11 17  1  0  0  0  0
 12 11  1  0  0  0  0
 13 12  2  0  0  0  0
 14  9  2  0  0  0  0
 14 13  1  0  0  0  0
 15  9  1  0  0  0  0
 18  3  1  0  0  0  0
 19 18  1  0  0  0  0
 19 21  1  0  0  0  0
 20 19  2  0  0  0  0
 21 22  1  0  0  0  0
 23 21  1  0  0  0  0
M  END
>  <minimizedAffinity>
-3.85269475

$$$$

 OpenBabel03212520413D

 23 24  0  0  1  0  0  0  0  0999 V2000
   39.1400   75.2220   59.0320 C   0  0  1  0  0  0  0  0  0  0  0  0
   39.0040   75.0690   60.5440 C   0  0  0  0  0  0  0  0  0  0  0  0
   39.7740   74.0690   59.6920 C   0  0  1  0  0  0  0  0  0  0  0  0
   39.7070   76.1620   58.7800 H   0  0  0  0  0  0  0  0  0  0  0  0
   39.5690   75.7310   61.2190 H   0  0  0  0  0  0  0  0  0  0  0  0
   38.0870   74.6760   60.9770 H   0  0  0  0  0  0  0  0  0  0  0  0
   40.8710   74.1310   59.8320 H   0  0  0  0  0  0  0  0  0  0  0  0
   37.8950   75.0430   58.3800 O   0  0  0  0  0  0  0  0  0  0  0  0
   36.6860   76.1150   55.1470 C   0  0  0  0  0  0  0  0  0  0  0  0
   37.5270   75.4260   54.2750 C   0  0  0  0  0  0  0  0  0  0  0  0
   38.5280   74.5760   54.8520 C   0  0  0  0  0  0  0  0  0  0  0  0
   38.5490   74.5350   56.1930 N   0  0  0  0  0  0  0  0  0  0  0  0
   37.7490   75.1910   57.0310 C   0  0  0  0  0  0  0  0  0  0  0  0
   36.8190   75.9800   56.5110 N   0  0  0  0  0  0  0  0  0  0  0  0
   35.9110   76.7730   54.7380 H   0  0  0  0  0  0  0  0  0  0  0  0
   37.4570   75.5030   53.2070 H   0  0  0  0  0  0  0  0  0  0  0  0
   39.2130   74.0120   54.2320 H   0  0  0  0  0  0  0  0  0  0  0  0
   39.1770   72.8190   59.4620 O   0  0  0  0  0  0  0  0  0  0  0  0
   39.5270   71.9920   58.4030 C   0  0  0  0  0  0  0  0  0  0  0  0
   40.7760   71.7330   58.4670 O   0  0  0  0  0  0  0  0  0  0  0  0
   38.6340   71.5100   57.4050 N   0  0  0  0  0  0  0  0  0  0  0  0
   37.7910   71.1110   57.8720 H   0  0  0  0  0  0  0  0  0  0  0  0
   39.0400   71.6710   56.4410 H   0  0  0  0  0  0  0  0  0  0  0  0
  1  4  1  6  0  0  0
  1  3  1  0  0  0  0
  1  2  1  0  0  0  0
  2  6  1  0  0  0  0
  2  5  1  0  0  0  0
  3  7  1  1  0  0  0
  3  2  1  0  0  0  0
  8  1  1  0  0  0  0
  9 14  1  0  0  0  0
 10 11  1  0  0  0  0
 10  9  2  0  0  0  0
 11 12  2  0  0  0  0
 12 13  1  0  0  0  0
 13  8  1  0  0  0  0
 14 13  2  0  0  0  0
 15  9  1  0  0  0  0
 16 10  1  0  0  0  0
 17 11  1  0  0  0  0
 18  3  1  0  0  0  0
 19 20  2  0  0  0  0
 19 18  1  0  0  0  0
 21 22  1  0  0  0  0
 21 19  1  0  0  0  0
 23 21  1  0  0  0  0
M  END
>  <minimizedAffinity>
-3.82430863

$$$$

 OpenBabel03212520413D

 23 24  0  0  1  0  0  0  0  0999 V2000
   40.0500   73.2780   58.8980 C   0  0  1  0  0  0  0  0  0  0  0  0
   41.3970   72.9080   59.5110 C   0  0  0  0  0  0  0  0  0  0  0  0
   40.3540   73.7160   60.2700 C   0  0  1  0  0  0  0  0  0  0  0  0
   39.4490   72.3520   58.6790 H   0  0  0  0  0  0  0  0  0  0  0  0
   41.5930   71.8710   59.8280 H   0  0  0  0  0  0  0  0  0  0  0  0
   42.2930   73.4660   59.2480 H   0  0  0  0  0  0  0  0  0  0  0  0
   39.8660   73.1440   61.0840 H   0  0  0  0  0  0  0  0  0  0  0  0
   40.2020   74.1980   57.8320 O   0  0  0  0  0  0  0  0  0  0  0  0
   38.1100   76.8190   56.4820 C   0  0  0  0  0  0  0  0  0  0  0  0
   36.9380   76.1290   56.1700 C   0  0  0  0  0  0  0  0  0  0  0  0
   36.9040   74.7220   56.4470 C   0  0  0  0  0  0  0  0  0  0  0  0
   38.0210   74.2100   56.9850 N   0  0  0  0  0  0  0  0  0  0  0  0
   39.1430   74.8630   57.2840 C   0  0  0  0  0  0  0  0  0  0  0  0
   39.1880   76.1650   57.0340 N   0  0  0  0  0  0  0  0  0  0  0  0
   38.1680   77.8950   56.2820 H   0  0  0  0  0  0  0  0  0  0  0  0
   36.0770   76.6000   55.7390 H   0  0  0  0  0  0  0  0  0  0  0  0
   36.0260   74.1280   56.2290 H   0  0  0  0  0  0  0  0  0  0  0  0
   40.5980   75.0890   60.4410 O   0  0  0  0  0  0  0  0  0  0  0  0
   39.6140   75.9950   60.8170 C   0  0  0  0  0  0  0  0  0  0  0  0
   39.8570   77.1270   60.2770 O   0  0  0  0  0  0  0  0  0  0  0  0
   38.5110   75.7070   61.6690 N   0  0  0  0  0  0  0  0  0  0  0  0
   38.0480   74.8340   61.3350 H   0  0  0  0  0  0  0  0  0  0  0  0
   38.4300   76.4420   62.4260 H   0  0  0  0  0  0  0  0  0  0  0  0
  1  4  1  6  0  0  0
  1  2  1  0  0  0  0
  1  3  1  0  0  0  0
  2  5  1  0  0  0  0
  2  3  1  0  0  0  0
  3 18  1  0  0  0  0
  3  7  1  1  0  0  0
  6  2  1  0  0  0  0
  8  1  1  0  0  0  0
  9 14  1  0  0  0  0
 10 11  1  0  0  0  0
 10  9  2  0  0  0  0
 11 12  2  0  0  0  0
 12 13  1  0  0  0  0
 13  8  1  0  0  0  0
 14 13  2  0  0  0  0
 15  9  1  0  0  0  0
 16 10  1  0  0  0  0
 17 11  1  0  0  0  0
 18 19  1  0  0  0  0
 19 21  1  0  0  0  0
 20 19  2  0  0  0  0
 21 23  1  0  0  0  0
 22 21  1  0  0  0  0
M  END
>  <minimizedAffinity>
-3.77617598

$$$$
