
 OpenBabel03212520213D

 32 33  0  0  0  0  0  0  0  0999 V2000
   42.3210   71.3210   62.3430 Cl  0  0  0  0  0  0  0  0  0  0  0  0
   41.8910   70.5620   60.8300 C   0  0  0  0  0  0  0  0  0  0  0  0
   41.3560   71.2620   59.7570 C   0  0  0  0  0  0  0  0  0  0  0  0
   41.0680   70.5240   58.6290 C   0  0  0  0  0  0  0  0  0  0  0  0
   41.2550   69.1780   58.4590 C   0  0  0  0  0  0  0  0  0  0  0  0
   41.7830   68.5210   59.5360 C   0  0  0  0  0  0  0  0  0  0  0  0
   42.0810   66.7810   59.4630 Cl  0  0  0  0  0  0  0  0  0  0  0  0
   42.0990   69.2050   60.7100 C   0  0  0  0  0  0  0  0  0  0  0  0
   40.6500   71.1110   57.8120 H   0  0  0  0  0  0  0  0  0  0  0  0
   41.0000   68.6770   57.5370 H   0  0  0  0  0  0  0  0  0  0  0  0
   42.0620   73.6980   59.5460 C   0  0  0  0  0  0  0  0  0  0  0  0
   41.1450   72.6580   59.8870 C   0  0  0  0  0  0  0  0  0  0  0  0
   39.9250   73.0530   60.3990 C   0  0  0  0  0  0  0  0  0  0  0  0
   39.7000   74.3940   60.5350 N   0  0  0  0  0  0  0  0  0  0  0  0
   40.5780   75.3420   60.2050 C   0  0  0  0  0  0  0  0  0  0  0  0
   41.7930   74.9870   59.6970 N   0  0  0  0  0  0  0  0  0  0  0  0
   43.0130   73.3400   59.1460 H   0  0  0  0  0  0  0  0  0  0  0  0
   39.1550   72.3450   60.6920 H   0  0  0  0  0  0  0  0  0  0  0  0
   40.1340   76.7330   60.4310 C   0  0  0  0  0  0  0  0  0  0  0  0
   39.4960   76.8900   61.6410 F   0  0  0  0  0  0  0  0  0  0  0  0
   41.2170   77.6010   60.3950 F   0  0  0  0  0  0  0  0  0  0  0  0
   39.1830   77.1150   59.4600 F   0  0  0  0  0  0  0  0  0  0  0  0
   42.6330   68.4980   61.7750 O   0  0  0  0  0  0  0  0  0  0  0  0
   41.9090   68.2070   62.9550 C   0  0  0  0  0  0  0  0  0  0  0  0
   41.2930   69.0970   63.1840 H   0  0  0  0  0  0  0  0  0  0  0  0
   42.5440   68.0010   63.8220 H   0  0  0  0  0  0  0  0  0  0  0  0
   41.0800   67.0880   62.6590 O   0  0  0  0  0  0  0  0  0  0  0  0
   41.4380   65.7990   62.9360 C   0  0  0  0  0  0  0  0  0  0  0  0
   40.6210   64.9550   63.3360 O   0  0  0  0  0  0  0  0  0  0  0  0
   42.8450   65.6010   62.6990 N   0  0  0  0  0  0  0  0  0  0  0  0
   43.3870   65.1750   63.4810 H   0  0  0  0  0  0  0  0  0  0  0  0
   43.2810   65.8780   61.7720 H   0  0  0  0  0  0  0  0  0  0  0  0
  2  1  1  0  0  0  0
  3 12  1  0  0  0  0
  3  2  2  0  0  0  0
  4  3  1  0  0  0  0
  5  4  2  0  0  0  0
  5  6  1  0  0  0  0
  6  8  2  0  0  0  0
  7  6  1  0  0  0  0
  8  2  1  0  0  0  0
  8 23  1  0  0  0  0
  9  4  1  0  0  0  0
 10  5  1  0  0  0  0
 11 16  2  0  0  0  0
 11 12  1  0  0  0  0
 12 13  2  0  0  0  0
 13 14  1  0  0  0  0
 13 18  1  0  0  0  0
 15 19  1  0  0  0  0
 15 14  2  0  0  0  0
 16 15  1  0  0  0  0
 17 11  1  0  0  0  0
 19 20  1  0  0  0  0
 21 19  1  0  0  0  0
 22 19  1  0  0  0  0
 23 24  1  0  0  0  0
 24 25  1  0  0  0  0
 24 26  1  0  0  0  0
 27 28  1  0  0  0  0
 27 24  1  0  0  0  0
 28 29  2  0  0  0  0
 30 28  1  0  0  0  0
 30 31  1  0  0  0  0
 32 30  1  0  0  0  0
M  END
>  <minimizedAffinity>
-5.83669138

$$$$

 OpenBabel03212520213D

 32 33  0  0  0  0  0  0  0  0999 V2000
   38.2480   72.9680   58.4210 Cl  0  0  0  0  0  0  0  0  0  0  0  0
   39.0830   74.4910   58.6010 C   0  0  0  0  0  0  0  0  0  0  0  0
   40.2320   74.6390   59.3670 C   0  0  0  0  0  0  0  0  0  0  0  0
   40.7770   75.9030   59.4120 C   0  0  0  0  0  0  0  0  0  0  0  0
   40.3050   77.0230   58.7820 C   0  0  0  0  0  0  0  0  0  0  0  0
   39.1730   76.8420   58.0370 C   0  0  0  0  0  0  0  0  0  0  0  0
   38.4480   78.1980   57.1670 Cl  0  0  0  0  0  0  0  0  0  0  0  0
   38.5670   75.5880   57.9460 C   0  0  0  0  0  0  0  0  0  0  0  0
   41.6770   75.9750   60.0240 H   0  0  0  0  0  0  0  0  0  0  0  0
   40.7970   77.9810   58.8720 H   0  0  0  0  0  0  0  0  0  0  0  0
   41.6700   72.5440   59.5070 C   0  0  0  0  0  0  0  0  0  0  0  0
   40.7580   73.5050   60.0370 C   0  0  0  0  0  0  0  0  0  0  0  0
   40.3420   73.3090   61.3390 C   0  0  0  0  0  0  0  0  0  0  0  0
   40.8350   72.2230   62.0050 N   0  0  0  0  0  0  0  0  0  0  0  0
   41.6890   71.3430   61.4820 C   0  0  0  0  0  0  0  0  0  0  0  0
   42.1200   71.5050   60.1970 N   0  0  0  0  0  0  0  0  0  0  0  0
   41.9720   72.7370   58.4760 H   0  0  0  0  0  0  0  0  0  0  0  0
   39.6490   73.9800   61.8400 H   0  0  0  0  0  0  0  0  0  0  0  0
   42.0990   70.2390   62.3740 C   0  0  0  0  0  0  0  0  0  0  0  0
   43.4640   70.0570   62.3890 F   0  0  0  0  0  0  0  0  0  0  0  0
   41.6780   70.4840   63.6740 F   0  0  0  0  0  0  0  0  0  0  0  0
   41.5680   69.0120   61.9220 F   0  0  0  0  0  0  0  0  0  0  0  0
   37.4220   75.4510   57.1790 O   0  0  0  0  0  0  0  0  0  0  0  0
   37.4440   75.1390   55.8000 C   0  0  0  0  0  0  0  0  0  0  0  0
   37.0430   74.1130   55.6940 H   0  0  0  0  0  0  0  0  0  0  0  0
   38.4440   75.1610   55.3580 H   0  0  0  0  0  0  0  0  0  0  0  0
   36.5880   76.0780   55.1570 O   0  0  0  0  0  0  0  0  0  0  0  0
   36.4880   76.1910   53.7990 C   0  0  0  0  0  0  0  0  0  0  0  0
   36.6350   77.2740   53.2110 O   0  0  0  0  0  0  0  0  0  0  0  0
   36.1970   74.9120   53.2030 N   0  0  0  0  0  0  0  0  0  0  0  0
   35.3820   74.8830   52.5540 H   0  0  0  0  0  0  0  0  0  0  0  0
   36.7950   74.0640   53.4260 H   0  0  0  0  0  0  0  0  0  0  0  0
  1  2  1  0  0  0  0
  2  3  1  0  0  0  0
  3  4  2  0  0  0  0
  3 12  1  0  0  0  0
  4  9  1  0  0  0  0
  5 10  1  0  0  0  0
  5  4  1  0  0  0  0
  6  5  2  0  0  0  0
  7  6  1  0  0  0  0
  8  6  1  0  0  0  0
  8  2  2  0  0  0  0
 11 12  2  0  0  0  0
 11 16  1  0  0  0  0
 12 13  1  0  0  0  0
 13 18  1  0  0  0  0
 13 14  2  0  0  0  0
 15 14  1  0  0  0  0
 15 19  1  0  0  0  0
 16 15  2  0  0  0  0
 17 11  1  0  0  0  0
 19 20  1  0  0  0  0
 19 21  1  0  0  0  0
 22 19  1  0  0  0  0
 23  8  1  0  0  0  0
 24 23  1  0  0  0  0
 25 24  1  0  0  0  0
 26 24  1  0  0  0  0
 27 24  1  0  0  0  0
 28 27  1  0  0  0  0
 29 28  2  0  0  0  0
 30 32  1  0  0  0  0
 30 28  1  0  0  0  0
 31 30  1  0  0  0  0
M  END
>  <minimizedAffinity>
-5.75898027

$$$$

 OpenBabel03212520213D

 32 33  0  0  0  0  0  0  0  0999 V2000
   39.5660   72.8850   60.5720 Cl  0  0  0  0  0  0  0  0  0  0  0  0
   41.1810   73.4510   60.2260 C   0  0  0  0  0  0  0  0  0  0  0  0
   42.3230   72.7440   60.5770 C   0  0  0  0  0  0  0  0  0  0  0  0
   43.5280   73.3200   60.2350 C   0  0  0  0  0  0  0  0  0  0  0  0
   43.7130   74.5120   59.5880 C   0  0  0  0  0  0  0  0  0  0  0  0
   42.5660   75.1820   59.2580 C   0  0  0  0  0  0  0  0  0  0  0  0
   42.6490   76.7340   58.4190 Cl  0  0  0  0  0  0  0  0  0  0  0  0
   41.3130   74.6570   59.5720 C   0  0  0  0  0  0  0  0  0  0  0  0
   44.3980   72.7320   60.5290 H   0  0  0  0  0  0  0  0  0  0  0  0
   44.6970   74.8920   59.3580 H   0  0  0  0  0  0  0  0  0  0  0  0
   42.0840   71.2970   62.6570 C   0  0  0  0  0  0  0  0  0  0  0  0
   42.1800   71.5020   61.2480 C   0  0  0  0  0  0  0  0  0  0  0  0
   42.1300   70.3740   60.4540 C   0  0  0  0  0  0  0  0  0  0  0  0
   41.9920   69.1660   61.0790 N   0  0  0  0  0  0  0  0  0  0  0  0
   41.9040   69.0070   62.4000 C   0  0  0  0  0  0  0  0  0  0  0  0
   41.9510   70.1020   63.2140 N   0  0  0  0  0  0  0  0  0  0  0  0
   42.1280   72.2160   63.2460 H   0  0  0  0  0  0  0  0  0  0  0  0
   42.1940   70.4160   59.3700 H   0  0  0  0  0  0  0  0  0  0  0  0
   41.7590   67.6150   62.8700 C   0  0  0  0  0  0  0  0  0  0  0  0
   40.6520   67.4440   63.6710 F   0  0  0  0  0  0  0  0  0  0  0  0
   41.6530   66.7470   61.7910 F   0  0  0  0  0  0  0  0  0  0  0  0
   42.8580   67.2450   63.6750 F   0  0  0  0  0  0  0  0  0  0  0  0
   40.1800   75.3700   59.2180 O   0  0  0  0  0  0  0  0  0  0  0  0
   39.6070   75.3250   57.9250 C   0  0  0  0  0  0  0  0  0  0  0  0
   40.1090   74.5060   57.3770 H   0  0  0  0  0  0  0  0  0  0  0  0
   39.7380   76.2480   57.3520 H   0  0  0  0  0  0  0  0  0  0  0  0
   38.2240   75.0340   58.1020 O   0  0  0  0  0  0  0  0  0  0  0  0
   37.2940   75.1920   57.1140 C   0  0  0  0  0  0  0  0  0  0  0  0
   37.0420   76.2980   56.6110 O   0  0  0  0  0  0  0  0  0  0  0  0
   36.6900   73.9280   56.7800 N   0  0  0  0  0  0  0  0  0  0  0  0
   35.6480   73.9010   56.7860 H   0  0  0  0  0  0  0  0  0  0  0  0
   37.2930   73.0870   56.5420 H   0  0  0  0  0  0  0  0  0  0  0  0
  2  1  1  0  0  0  0
  2  3  1  0  0  0  0
  3 12  1  0  0  0  0
  4  9  1  0  0  0  0
  4  3  2  0  0  0  0
  5  4  1  0  0  0  0
  6  8  1  0  0  0  0
  6  5  2  0  0  0  0
  7  6  1  0  0  0  0
  8  2  2  0  0  0  0
 10  5  1  0  0  0  0
 11 16  1  0  0  0  0
 11 17  1  0  0  0  0
 12 11  2  0  0  0  0
 13 14  2  0  0  0  0
 13 12  1  0  0  0  0
 14 15  1  0  0  0  0
 15 19  1  0  0  0  0
 15 16  2  0  0  0  0
 18 13  1  0  0  0  0
 19 20  1  0  0  0  0
 19 22  1  0  0  0  0
 21 19  1  0  0  0  0
 23  8  1  0  0  0  0
 24 27  1  0  0  0  0
 24 23  1  0  0  0  0
 25 24  1  0  0  0  0
 26 24  1  0  0  0  0
 28 27  1  0  0  0  0
 29 28  2  0  0  0  0
 30 31  1  0  0  0  0
 30 28  1  0  0  0  0
 32 30  1  0  0  0  0
M  END
>  <minimizedAffinity>
-5.72006702

$$$$

 OpenBabel03212520213D

 32 33  0  0  0  0  0  0  0  0999 V2000
   40.0200   71.4630   58.6890 Cl  0  0  0  0  0  0  0  0  0  0  0  0
   41.4330   72.2130   59.3890 C   0  0  0  0  0  0  0  0  0  0  0  0
   42.3220   71.5340   60.2100 C   0  0  0  0  0  0  0  0  0  0  0  0
   43.3910   72.2620   60.6870 C   0  0  0  0  0  0  0  0  0  0  0  0
   43.6650   73.5790   60.4340 C   0  0  0  0  0  0  0  0  0  0  0  0
   42.7680   74.2170   59.6220 C   0  0  0  0  0  0  0  0  0  0  0  0
   42.9910   75.9200   59.2080 Cl  0  0  0  0  0  0  0  0  0  0  0  0
   41.6620   73.5420   59.1030 C   0  0  0  0  0  0  0  0  0  0  0  0
   44.0640   71.6910   61.3270 H   0  0  0  0  0  0  0  0  0  0  0  0
   44.5290   74.0750   60.8510 H   0  0  0  0  0  0  0  0  0  0  0  0
   41.9960   69.0950   59.5600 C   0  0  0  0  0  0  0  0  0  0  0  0
   42.0800   70.1670   60.4990 C   0  0  0  0  0  0  0  0  0  0  0  0
   41.9060   69.8380   61.8290 C   0  0  0  0  0  0  0  0  0  0  0  0
   41.6700   68.5260   62.1310 N   0  0  0  0  0  0  0  0  0  0  0  0
   41.5980   67.5470   61.2290 C   0  0  0  0  0  0  0  0  0  0  0  0
   41.7650   67.8370   59.9060 N   0  0  0  0  0  0  0  0  0  0  0  0
   42.1390   69.4000   58.5210 H   0  0  0  0  0  0  0  0  0  0  0  0
   41.9500   70.5760   62.6250 H   0  0  0  0  0  0  0  0  0  0  0  0
   41.3360   66.1970   61.7680 C   0  0  0  0  0  0  0  0  0  0  0  0
   39.9930   65.8960   61.7950 F   0  0  0  0  0  0  0  0  0  0  0  0
   41.9830   65.2350   61.0050 F   0  0  0  0  0  0  0  0  0  0  0  0
   41.7610   66.1070   63.1110 F   0  0  0  0  0  0  0  0  0  0  0  0
   40.7810   74.2280   58.2850 O   0  0  0  0  0  0  0  0  0  0  0  0
   39.4580   74.5540   58.6680 C   0  0  0  0  0  0  0  0  0  0  0  0
   38.9120   73.5990   58.7870 H   0  0  0  0  0  0  0  0  0  0  0  0
   38.9240   75.1610   57.9320 H   0  0  0  0  0  0  0  0  0  0  0  0
   39.5510   75.2360   59.9140 O   0  0  0  0  0  0  0  0  0  0  0  0
   38.9100   74.8180   61.0450 C   0  0  0  0  0  0  0  0  0  0  0  0
   38.6860   73.6200   61.2760 O   0  0  0  0  0  0  0  0  0  0  0  0
   38.5560   75.9430   61.8720 N   0  0  0  0  0  0  0  0  0  0  0  0
   37.5600   75.9960   62.1740 H   0  0  0  0  0  0  0  0  0  0  0  0
   39.2870   76.6630   62.1470 H   0  0  0  0  0  0  0  0  0  0  0  0
  1  2  1  0  0  0  0
  2  3  1  0  0  0  0
  3 12  1  0  0  0  0
  3  4  2  0  0  0  0
  4  9  1  0  0  0  0
  5  4  1  0  0  0  0
  5 10  1  0  0  0  0
  6  5  2  0  0  0  0
  7  6  1  0  0  0  0
  8  2  2  0  0  0  0
  8  6  1  0  0  0  0
 11 16  2  0  0  0  0
 11 12  1  0  0  0  0
 12 13  2  0  0  0  0
 13 14  1  0  0  0  0
 13 18  1  0  0  0  0
 15 19  1  0  0  0  0
 15 14  2  0  0  0  0
 16 15  1  0  0  0  0
 17 11  1  0  0  0  0
 19 20  1  0  0  0  0
 19 22  1  0  0  0  0
 21 19  1  0  0  0  0
 23 24  1  0  0  0  0
 23  8  1  0  0  0  0
 24 25  1  0  0  0  0
 24 27  1  0  0  0  0
 26 24  1  0  0  0  0
 27 28  1  0  0  0  0
 28 29  2  0  0  0  0
 28 30  1  0  0  0  0
 30 32  1  0  0  0  0
 30 31  1  0  0  0  0
M  END
>  <minimizedAffinity>
-5.62668705

$$$$

 OpenBabel03212520213D

 32 33  0  0  0  0  0  0  0  0999 V2000
   40.0460   71.4630   58.7710 Cl  0  0  0  0  0  0  0  0  0  0  0  0
   41.4720   72.2520   59.3980 C   0  0  0  0  0  0  0  0  0  0  0  0
   42.3670   71.6290   60.2570 C   0  0  0  0  0  0  0  0  0  0  0  0
   43.4460   72.3820   60.6670 C   0  0  0  0  0  0  0  0  0  0  0  0
   43.7240   73.6760   60.3150 C   0  0  0  0  0  0  0  0  0  0  0  0
   42.8210   74.2590   59.4690 C   0  0  0  0  0  0  0  0  0  0  0  0
   43.0500   75.9250   58.9290 Cl  0  0  0  0  0  0  0  0  0  0  0  0
   41.7060   73.5550   59.0140 C   0  0  0  0  0  0  0  0  0  0  0  0
   44.1230   71.8550   61.3390 H   0  0  0  0  0  0  0  0  0  0  0  0
   44.5970   74.1940   60.6850 H   0  0  0  0  0  0  0  0  0  0  0  0
   41.8380   69.8180   61.9650 C   0  0  0  0  0  0  0  0  0  0  0  0
   42.1200   70.2880   60.6480 C   0  0  0  0  0  0  0  0  0  0  0  0
   42.1570   69.3370   59.6470 C   0  0  0  0  0  0  0  0  0  0  0  0
   41.9220   68.0380   59.9990 N   0  0  0  0  0  0  0  0  0  0  0  0
   41.6600   67.6300   61.2410 C   0  0  0  0  0  0  0  0  0  0  0  0
   41.6170   68.5440   62.2540 N   0  0  0  0  0  0  0  0  0  0  0  0
   41.8190   70.6030   62.7240 H   0  0  0  0  0  0  0  0  0  0  0  0
   42.3630   69.5850   58.6090 H   0  0  0  0  0  0  0  0  0  0  0  0
   41.4350   66.1800   61.4060 C   0  0  0  0  0  0  0  0  0  0  0  0
   42.2400   65.6320   62.3790 F   0  0  0  0  0  0  0  0  0  0  0  0
   40.1120   65.9280   61.7430 F   0  0  0  0  0  0  0  0  0  0  0  0
   41.7660   65.4870   60.2210 F   0  0  0  0  0  0  0  0  0  0  0  0
   40.8190   74.1850   58.1580 O   0  0  0  0  0  0  0  0  0  0  0  0
   39.7090   74.9390   58.6060 C   0  0  0  0  0  0  0  0  0  0  0  0
   38.8010   74.4400   58.2170 H   0  0  0  0  0  0  0  0  0  0  0  0
   39.7060   75.9730   58.2510 H   0  0  0  0  0  0  0  0  0  0  0  0
   39.7330   74.8930   60.0280 O   0  0  0  0  0  0  0  0  0  0  0  0
   39.5050   75.9860   60.8160 C   0  0  0  0  0  0  0  0  0  0  0  0
   40.1510   77.0380   60.6950 O   0  0  0  0  0  0  0  0  0  0  0  0
   38.4490   75.7190   61.7590 N   0  0  0  0  0  0  0  0  0  0  0  0
   38.6640   75.9210   62.7590 H   0  0  0  0  0  0  0  0  0  0  0  0
   37.5130   75.3410   61.4290 H   0  0  0  0  0  0  0  0  0  0  0  0
  1  2  1  0  0  0  0
  2  3  1  0  0  0  0
  3 12  1  0  0  0  0
  3  4  2  0  0  0  0
  4  9  1  0  0  0  0
  5  4  1  0  0  0  0
  5 10  1  0  0  0  0
  6  5  2  0  0  0  0
  7  6  1  0  0  0  0
  8  2  2  0  0  0  0
  8  6  1  0  0  0  0
 11 16  1  0  0  0  0
 11 17  1  0  0  0  0
 12 11  2  0  0  0  0
 13 14  2  0  0  0  0
 13 12  1  0  0  0  0
 14 15  1  0  0  0  0
 15 19  1  0  0  0  0
 15 16  2  0  0  0  0
 18 13  1  0  0  0  0
 19 21  1  0  0  0  0
 19 20  1  0  0  0  0
 22 19  1  0  0  0  0
 23 24  1  0  0  0  0
 23  8  1  0  0  0  0
 24 27  1  0  0  0  0
 25 24  1  0  0  0  0
 26 24  1  0  0  0  0
 27 28  1  0  0  0  0
 28 30  1  0  0  0  0
 29 28  2  0  0  0  0
 30 31  1  0  0  0  0
 32 30  1  0  0  0  0
M  END
>  <minimizedAffinity>
-5.53232336

$$$$

 OpenBabel03212520213D

 32 33  0  0  0  0  0  0  0  0999 V2000
   41.1140   70.9230   58.4800 Cl  0  0  0  0  0  0  0  0  0  0  0  0
   41.4950   71.2110   60.1600 C   0  0  0  0  0  0  0  0  0  0  0  0
   41.1900   72.3970   60.8130 C   0  0  0  0  0  0  0  0  0  0  0  0
   41.5540   72.4750   62.1400 C   0  0  0  0  0  0  0  0  0  0  0  0
   42.1820   71.5070   62.8760 C   0  0  0  0  0  0  0  0  0  0  0  0
   42.4680   70.3520   62.2010 C   0  0  0  0  0  0  0  0  0  0  0  0
   43.2770   69.0130   63.0220 Cl  0  0  0  0  0  0  0  0  0  0  0  0
   42.1280   70.2040   60.8560 C   0  0  0  0  0  0  0  0  0  0  0  0
   41.2960   73.4220   62.6140 H   0  0  0  0  0  0  0  0  0  0  0  0
   42.4330   71.6510   63.9170 H   0  0  0  0  0  0  0  0  0  0  0  0
   39.1330   73.5800   59.8930 C   0  0  0  0  0  0  0  0  0  0  0  0
   40.5380   73.4290   60.0890 C   0  0  0  0  0  0  0  0  0  0  0  0
   41.3500   74.3870   59.5140 C   0  0  0  0  0  0  0  0  0  0  0  0
   40.7440   75.3910   58.8120 N   0  0  0  0  0  0  0  0  0  0  0  0
   39.4260   75.5050   58.6470 C   0  0  0  0  0  0  0  0  0  0  0  0
   38.5950   74.5750   59.2020 N   0  0  0  0  0  0  0  0  0  0  0  0
   38.5300   72.8010   60.3640 H   0  0  0  0  0  0  0  0  0  0  0  0
   42.4330   74.3670   59.6020 H   0  0  0  0  0  0  0  0  0  0  0  0
   38.9780   76.6660   57.8520 C   0  0  0  0  0  0  0  0  0  0  0  0
   38.9590   77.8290   58.5890 F   0  0  0  0  0  0  0  0  0  0  0  0
   39.8120   76.8570   56.7590 F   0  0  0  0  0  0  0  0  0  0  0  0
   37.6490   76.4860   57.4130 F   0  0  0  0  0  0  0  0  0  0  0  0
   42.4360   69.0170   60.2140 O   0  0  0  0  0  0  0  0  0  0  0  0
   41.5280   67.9370   60.0980 C   0  0  0  0  0  0  0  0  0  0  0  0
   41.3120   67.8110   59.0200 H   0  0  0  0  0  0  0  0  0  0  0  0
   40.5800   68.1010   60.6180 H   0  0  0  0  0  0  0  0  0  0  0  0
   42.1940   66.7890   60.6130 O   0  0  0  0  0  0  0  0  0  0  0  0
   41.7010   66.0360   61.6400 C   0  0  0  0  0  0  0  0  0  0  0  0
   42.3700   65.1520   62.1950 O   0  0  0  0  0  0  0  0  0  0  0  0
   40.3470   66.4210   61.9460 N   0  0  0  0  0  0  0  0  0  0  0  0
   39.6460   65.6490   61.9770 H   0  0  0  0  0  0  0  0  0  0  0  0
   40.1020   67.4370   62.1270 H   0  0  0  0  0  0  0  0  0  0  0  0
  1  2  1  0  0  0  0
  2  3  2  0  0  0  0
  2  8  1  0  0  0  0
  3  4  1  0  0  0  0
  4  9  1  0  0  0  0
  4  5  2  0  0  0  0
  5 10  1  0  0  0  0
  6  5  1  0  0  0  0
  6  7  1  0  0  0  0
  8  6  2  0  0  0  0
 11 12  1  0  0  0  0
 11 17  1  0  0  0  0
 12  3  1  0  0  0  0
 13 18  1  0  0  0  0
 13 12  2  0  0  0  0
 14 13  1  0  0  0  0
 15 14  2  0  0  0  0
 15 16  1  0  0  0  0
 16 11  2  0  0  0  0
 19 20  1  0  0  0  0
 19 15  1  0  0  0  0
 21 19  1  0  0  0  0
 22 19  1  0  0  0  0
 23  8  1  0  0  0  0
 24 23  1  0  0  0  0
 24 27  1  0  0  0  0
 24 26  1  0  0  0  0
 25 24  1  0  0  0  0
 27 28  1  0  0  0  0
 28 30  1  0  0  0  0
 28 29  2  0  0  0  0
 30 31  1  0  0  0  0
 30 32  1  0  0  0  0
M  END
>  <minimizedAffinity>
-5.40865421

$$$$

 OpenBabel03212520213D

 32 33  0  0  0  0  0  0  0  0999 V2000
   39.7340   71.9300   58.9710 Cl  0  0  0  0  0  0  0  0  0  0  0  0
   41.2500   72.6730   59.4220 C   0  0  0  0  0  0  0  0  0  0  0  0
   42.2710   71.9820   60.0600 C   0  0  0  0  0  0  0  0  0  0  0  0
   43.4080   72.7040   60.3520 C   0  0  0  0  0  0  0  0  0  0  0  0
   43.6320   74.0270   60.0780 C   0  0  0  0  0  0  0  0  0  0  0  0
   42.6050   74.6760   59.4500 C   0  0  0  0  0  0  0  0  0  0  0  0
   42.7510   76.3870   59.0340 Cl  0  0  0  0  0  0  0  0  0  0  0  0
   41.4250   74.0070   59.1240 C   0  0  0  0  0  0  0  0  0  0  0  0
   44.1830   72.1240   60.8520 H   0  0  0  0  0  0  0  0  0  0  0  0
   44.5570   74.5180   60.3440 H   0  0  0  0  0  0  0  0  0  0  0  0
   41.9810   69.5330   59.4310 C   0  0  0  0  0  0  0  0  0  0  0  0
   42.0830   70.6090   60.3630 C   0  0  0  0  0  0  0  0  0  0  0  0
   41.9890   70.2790   61.7000 C   0  0  0  0  0  0  0  0  0  0  0  0
   41.8080   68.9620   62.0160 N   0  0  0  0  0  0  0  0  0  0  0  0
   41.7170   67.9780   61.1210 C   0  0  0  0  0  0  0  0  0  0  0  0
   41.8050   68.2690   59.7900 N   0  0  0  0  0  0  0  0  0  0  0  0
   42.0600   69.8390   58.3860 H   0  0  0  0  0  0  0  0  0  0  0  0
   42.0540   71.0190   62.4930 H   0  0  0  0  0  0  0  0  0  0  0  0
   41.5220   66.6230   61.6740 C   0  0  0  0  0  0  0  0  0  0  0  0
   42.0650   65.6460   60.8710 F   0  0  0  0  0  0  0  0  0  0  0  0
   42.1020   66.5250   62.9330 F   0  0  0  0  0  0  0  0  0  0  0  0
   40.1480   66.3120   61.7560 F   0  0  0  0  0  0  0  0  0  0  0  0
   40.4120   74.7040   58.4880 O   0  0  0  0  0  0  0  0  0  0  0  0
   39.4010   75.4120   59.1810 C   0  0  0  0  0  0  0  0  0  0  0  0
   39.9100   76.0820   59.8990 H   0  0  0  0  0  0  0  0  0  0  0  0
   38.7180   74.7680   59.7410 H   0  0  0  0  0  0  0  0  0  0  0  0
   38.6940   76.1700   58.2050 O   0  0  0  0  0  0  0  0  0  0  0  0
   37.6670   75.6610   57.4620 C   0  0  0  0  0  0  0  0  0  0  0  0
   37.0560   76.3400   56.6220 O   0  0  0  0  0  0  0  0  0  0  0  0
   37.4280   74.2830   57.8050 N   0  0  0  0  0  0  0  0  0  0  0  0
   36.4440   74.0330   58.0450 H   0  0  0  0  0  0  0  0  0  0  0  0
   38.2230   73.5800   57.8040 H   0  0  0  0  0  0  0  0  0  0  0  0
  1  2  1  0  0  0  0
  2  3  1  0  0  0  0
  3  4  2  0  0  0  0
  3 12  1  0  0  0  0
  4  9  1  0  0  0  0
  5 10  1  0  0  0  0
  5  4  1  0  0  0  0
  6  5  2  0  0  0  0
  7  6  1  0  0  0  0
  8  2  2  0  0  0  0
  8  6  1  0  0  0  0
 11 16  2  0  0  0  0
 11 12  1  0  0  0  0
 12 13  2  0  0  0  0
 13 14  1  0  0  0  0
 13 18  1  0  0  0  0
 15 19  1  0  0  0  0
 15 14  2  0  0  0  0
 16 15  1  0  0  0  0
 17 11  1  0  0  0  0
 19 22  1  0  0  0  0
 19 21  1  0  0  0  0
 20 19  1  0  0  0  0
 23  8  1  0  0  0  0
 23 24  1  0  0  0  0
 24 26  1  0  0  0  0
 24 25  1  0  0  0  0
 27 24  1  0  0  0  0
 28 30  1  0  0  0  0
 28 27  1  0  0  0  0
 29 28  2  0  0  0  0
 30 31  1  0  0  0  0
 32 30  1  0  0  0  0
M  END
>  <minimizedAffinity>
-5.40669155

$$$$

 OpenBabel03212520213D

 32 33  0  0  0  0  0  0  0  0999 V2000
   39.3420   72.9780   60.1450 Cl  0  0  0  0  0  0  0  0  0  0  0  0
   40.5920   74.1460   59.7960 C   0  0  0  0  0  0  0  0  0  0  0  0
   41.9450   73.8750   59.9460 C   0  0  0  0  0  0  0  0  0  0  0  0
   42.8120   74.8990   59.6300 C   0  0  0  0  0  0  0  0  0  0  0  0
   42.4770   76.1500   59.1850 C   0  0  0  0  0  0  0  0  0  0  0  0
   41.1350   76.3820   59.0500 C   0  0  0  0  0  0  0  0  0  0  0  0
   40.5530   77.9510   58.4850 Cl  0  0  0  0  0  0  0  0  0  0  0  0
   40.2010   75.3910   59.3510 C   0  0  0  0  0  0  0  0  0  0  0  0
   43.8630   74.6440   59.7620 H   0  0  0  0  0  0  0  0  0  0  0  0
   43.2240   76.8970   58.9610 H   0  0  0  0  0  0  0  0  0  0  0  0
   42.6310   71.4490   59.5990 C   0  0  0  0  0  0  0  0  0  0  0  0
   42.3390   72.5910   60.4030 C   0  0  0  0  0  0  0  0  0  0  0  0
   42.4510   72.4310   61.7700 C   0  0  0  0  0  0  0  0  0  0  0  0
   42.8300   71.2020   62.2340 N   0  0  0  0  0  0  0  0  0  0  0  0
   43.0970   70.1530   61.4560 C   0  0  0  0  0  0  0  0  0  0  0  0
   42.9950   70.2770   60.1010 N   0  0  0  0  0  0  0  0  0  0  0  0
   42.5300   71.6210   58.5260 H   0  0  0  0  0  0  0  0  0  0  0  0
   42.2520   73.2350   62.4730 H   0  0  0  0  0  0  0  0  0  0  0  0
   43.4900   68.9160   62.1610 C   0  0  0  0  0  0  0  0  0  0  0  0
   44.5960   68.3200   61.5970 F   0  0  0  0  0  0  0  0  0  0  0  0
   43.7720   69.1850   63.4940 F   0  0  0  0  0  0  0  0  0  0  0  0
   42.4660   67.9490   62.0760 F   0  0  0  0  0  0  0  0  0  0  0  0
   38.8540   75.6710   59.1980 O   0  0  0  0  0  0  0  0  0  0  0  0
   38.2130   75.7400   57.9380 C   0  0  0  0  0  0  0  0  0  0  0  0
   38.6320   76.6170   57.4100 H   0  0  0  0  0  0  0  0  0  0  0  0
   37.1290   75.8690   58.0020 H   0  0  0  0  0  0  0  0  0  0  0  0
   38.5390   74.5380   57.2490 O   0  0  0  0  0  0  0  0  0  0  0  0
   37.6320   73.5480   57.0010 C   0  0  0  0  0  0  0  0  0  0  0  0
   37.9050   72.3460   57.1470 O   0  0  0  0  0  0  0  0  0  0  0  0
   36.3780   74.1070   56.5650 N   0  0  0  0  0  0  0  0  0  0  0  0
   35.9860   73.7190   55.6800 H   0  0  0  0  0  0  0  0  0  0  0  0
   35.8990   74.8670   57.1300 H   0  0  0  0  0  0  0  0  0  0  0  0
  2  3  1  0  0  0  0
  2  1  1  0  0  0  0
  3 12  1  0  0  0  0
  4  9  1  0  0  0  0
  4  3  2  0  0  0  0
  5  4  1  0  0  0  0
  6  5  2  0  0  0  0
  6  8  1  0  0  0  0
  7  6  1  0  0  0  0
  8  2  2  0  0  0  0
 10  5  1  0  0  0  0
 11 16  2  0  0  0  0
 11 12  1  0  0  0  0
 12 13  2  0  0  0  0
 13 14  1  0  0  0  0
 13 18  1  0  0  0  0
 15 19  1  0  0  0  0
 15 14  2  0  0  0  0
 16 15  1  0  0  0  0
 17 11  1  0  0  0  0
 19 21  1  0  0  0  0
 20 19  1  0  0  0  0
 22 19  1  0  0  0  0
 23  8  1  0  0  0  0
 24 26  1  0  0  0  0
 24 23  1  0  0  0  0
 25 24  1  0  0  0  0
 27 24  1  0  0  0  0
 28 29  2  0  0  0  0
 28 27  1  0  0  0  0
 30 28  1  0  0  0  0
 30 32  1  0  0  0  0
 31 30  1  0  0  0  0
M  END
>  <minimizedAffinity>
-5.40119362

$$$$

 OpenBabel03212520213D

 32 33  0  0  0  0  0  0  0  0999 V2000
   39.1060   72.8140   59.1090 Cl  0  0  0  0  0  0  0  0  0  0  0  0
   40.4830   73.8340   58.7710 C   0  0  0  0  0  0  0  0  0  0  0  0
   41.7250   73.6500   59.3620 C   0  0  0  0  0  0  0  0  0  0  0  0
   42.7140   74.5370   58.9940 C   0  0  0  0  0  0  0  0  0  0  0  0
   42.5970   75.5750   58.1090 C   0  0  0  0  0  0  0  0  0  0  0  0
   41.3600   75.7270   57.5460 C   0  0  0  0  0  0  0  0  0  0  0  0
   41.0590   77.0240   56.3850 Cl  0  0  0  0  0  0  0  0  0  0  0  0
   40.3120   74.8650   57.8720 C   0  0  0  0  0  0  0  0  0  0  0  0
   43.6720   74.3570   59.4810 H   0  0  0  0  0  0  0  0  0  0  0  0
   43.4280   76.2260   57.8760 H   0  0  0  0  0  0  0  0  0  0  0  0
   41.6550   72.6270   61.6910 C   0  0  0  0  0  0  0  0  0  0  0  0
   41.8930   72.5860   60.2850 C   0  0  0  0  0  0  0  0  0  0  0  0
   42.3340   71.3850   59.7670 C   0  0  0  0  0  0  0  0  0  0  0  0
   42.5040   70.3450   60.6380 N   0  0  0  0  0  0  0  0  0  0  0  0
   42.2720   70.4150   61.9490 C   0  0  0  0  0  0  0  0  0  0  0  0
   41.8350   71.5880   62.4930 N   0  0  0  0  0  0  0  0  0  0  0  0
   41.3080   73.5960   62.0570 H   0  0  0  0  0  0  0  0  0  0  0  0
   42.5460   71.2440   58.7110 H   0  0  0  0  0  0  0  0  0  0  0  0
   42.5180   69.1740   62.7100 C   0  0  0  0  0  0  0  0  0  0  0  0
   41.5610   68.9520   63.6750 F   0  0  0  0  0  0  0  0  0  0  0  0
   42.5410   68.0770   61.8580 F   0  0  0  0  0  0  0  0  0  0  0  0
   43.7390   69.2560   63.4140 F   0  0  0  0  0  0  0  0  0  0  0  0
   39.0770   75.0570   57.2770 O   0  0  0  0  0  0  0  0  0  0  0  0
   38.1010   75.9490   57.7810 C   0  0  0  0  0  0  0  0  0  0  0  0
   38.5870   76.9380   57.8790 H   0  0  0  0  0  0  0  0  0  0  0  0
   37.7080   75.6650   58.7610 H   0  0  0  0  0  0  0  0  0  0  0  0
   37.0570   76.0000   56.8140 O   0  0  0  0  0  0  0  0  0  0  0  0
   36.8130   74.9920   55.9240 C   0  0  0  0  0  0  0  0  0  0  0  0
   36.8470   75.1690   54.6960 O   0  0  0  0  0  0  0  0  0  0  0  0
   36.5230   73.7630   56.6170 N   0  0  0  0  0  0  0  0  0  0  0  0
   35.6470   73.2730   56.3350 H   0  0  0  0  0  0  0  0  0  0  0  0
   37.1800   73.3970   57.3660 H   0  0  0  0  0  0  0  0  0  0  0  0
  2  1  1  0  0  0  0
  2  3  1  0  0  0  0
  3 12  1  0  0  0  0
  4  3  2  0  0  0  0
  4  9  1  0  0  0  0
  5  4  1  0  0  0  0
  6  8  1  0  0  0  0
  6  5  2  0  0  0  0
  7  6  1  0  0  0  0
  8  2  2  0  0  0  0
 10  5  1  0  0  0  0
 11 17  1  0  0  0  0
 11 16  1  0  0  0  0
 12 11  2  0  0  0  0
 13 12  1  0  0  0  0
 13 14  2  0  0  0  0
 14 15  1  0  0  0  0
 15 16  2  0  0  0  0
 15 19  1  0  0  0  0
 18 13  1  0  0  0  0
 19 22  1  0  0  0  0
 19 20  1  0  0  0  0
 21 19  1  0  0  0  0
 23 24  1  0  0  0  0
 23  8  1  0  0  0  0
 24 25  1  0  0  0  0
 24 26  1  0  0  0  0
 27 24  1  0  0  0  0
 28 30  1  0  0  0  0
 28 27  1  0  0  0  0
 29 28  2  0  0  0  0
 30 32  1  0  0  0  0
 31 30  1  0  0  0  0
M  END
>  <minimizedAffinity>
-5.32562256

$$$$
