
 OpenBabel03212520393D

 23 24  0  0  1  0  0  0  0  0999 V2000
   42.3670   85.4550   59.7800 C   0  0  1  0  0  0  0  0  0  0  0  0
   43.4570   86.4680   59.4460 C   0  0  0  0  0  0  0  0  0  0  0  0
   43.0040   85.4050   58.4540 C   0  0  1  0  0  0  0  0  0  0  0  0
   41.3850   85.9770   59.9590 H   0  0  0  0  0  0  0  0  0  0  0  0
   43.1930   87.5190   59.2480 H   0  0  0  0  0  0  0  0  0  0  0  0
   44.4690   86.3300   59.8200 H   0  0  0  0  0  0  0  0  0  0  0  0
   42.4130   85.8170   57.6130 H   0  0  0  0  0  0  0  0  0  0  0  0
   42.7910   84.5500   60.7830 O   0  0  0  0  0  0  0  0  0  0  0  0
   40.0540   83.5170   62.9070 C   0  0  0  0  0  0  0  0  0  0  0  0
   40.5720   83.7390   64.1830 C   0  0  0  0  0  0  0  0  0  0  0  0
   41.9050   84.2610   64.2760 C   0  0  0  0  0  0  0  0  0  0  0  0
   42.5220   84.4830   63.1060 N   0  0  0  0  0  0  0  0  0  0  0  0
   42.0340   84.2720   61.8850 C   0  0  0  0  0  0  0  0  0  0  0  0
   40.8030   83.7900   61.7840 N   0  0  0  0  0  0  0  0  0  0  0  0
   39.0390   83.1180   62.8020 H   0  0  0  0  0  0  0  0  0  0  0  0
   40.0220   83.5400   65.0820 H   0  0  0  0  0  0  0  0  0  0  0  0
   42.3660   84.4570   65.2350 H   0  0  0  0  0  0  0  0  0  0  0  0
   43.8700   84.3230   58.2250 O   0  0  0  0  0  0  0  0  0  0  0  0
   43.9780   83.6820   56.9980 C   0  0  0  0  0  0  0  0  0  0  0  0
   43.6460   82.4560   57.1340 O   0  0  0  0  0  0  0  0  0  0  0  0
   44.3930   84.2940   55.7820 N   0  0  0  0  0  0  0  0  0  0  0  0
   43.8510   85.1770   55.6490 H   0  0  0  0  0  0  0  0  0  0  0  0
   45.1410   83.7120   55.3140 H   0  0  0  0  0  0  0  0  0  0  0  0
  1  4  1  1  0  0  0
  1  8  1  0  0  0  0
  2  1  1  0  0  0  0
  2  6  1  0  0  0  0
  3  7  1  6  0  0  0
  3  2  1  0  0  0  0
  3  1  1  0  0  0  0
  5  2  1  0  0  0  0
  8 13  1  0  0  0  0
  9 10  1  0  0  0  0
 10 11  2  0  0  0  0
 10 16  1  0  0  0  0
 11 17  1  0  0  0  0
 12 11  1  0  0  0  0
 13 12  2  0  0  0  0
 14 13  1  0  0  0  0
 14  9  2  0  0  0  0
 15  9  1  0  0  0  0
 18  3  1  0  0  0  0
 19 20  2  0  0  0  0
 19 18  1  0  0  0  0
 21 19  1  0  0  0  0
 22 21  1  0  0  0  0
 23 21  1  0  0  0  0
M  END
>  <minimizedAffinity>
-3.30840611

>  <minimizedRMSD>
0.203815699

$$$$
