
 OpenBabel03212520393D

 23 24  0  0  1  0  0  0  0  0999 V2000
   42.2790   85.4120   59.7210 C   0  0  1  0  0  0  0  0  0  0  0  0
   43.3250   86.3370   59.1070 C   0  0  0  0  0  0  0  0  0  0  0  0
   42.7900   85.1150   58.3730 C   0  0  1  0  0  0  0  0  0  0  0  0
   41.3150   85.9670   59.8940 H   0  0  0  0  0  0  0  0  0  0  0  0
   43.0340   87.3370   58.7470 H   0  0  0  0  0  0  0  0  0  0  0  0
   44.3690   86.2610   59.4030 H   0  0  0  0  0  0  0  0  0  0  0  0
   42.1180   85.3720   57.5300 H   0  0  0  0  0  0  0  0  0  0  0  0
   42.8040   84.7010   60.8280 O   0  0  0  0  0  0  0  0  0  0  0  0
   40.0660   83.5350   62.8820 C   0  0  0  0  0  0  0  0  0  0  0  0
   40.5670   83.7180   64.1710 C   0  0  0  0  0  0  0  0  0  0  0  0
   41.8890   84.2620   64.2980 C   0  0  0  0  0  0  0  0  0  0  0  0
   42.5130   84.5400   63.1440 N   0  0  0  0  0  0  0  0  0  0  0  0
   42.0410   84.3670   61.9110 C   0  0  0  0  0  0  0  0  0  0  0  0
   40.8210   83.8660   61.7780 N   0  0  0  0  0  0  0  0  0  0  0  0
   39.0600   83.1220   62.7500 H   0  0  0  0  0  0  0  0  0  0  0  0
   40.0120   83.4740   65.0550 H   0  0  0  0  0  0  0  0  0  0  0  0
   42.3360   84.4290   65.2690 H   0  0  0  0  0  0  0  0  0  0  0  0
   43.6390   84.0020   58.2650 O   0  0  0  0  0  0  0  0  0  0  0  0
   44.0410   83.4670   57.0470 C   0  0  0  0  0  0  0  0  0  0  0  0
   44.0740   84.3960   56.1700 O   0  0  0  0  0  0  0  0  0  0  0  0
   44.3640   82.1010   56.8140 N   0  0  0  0  0  0  0  0  0  0  0  0
   45.0290   81.7820   57.5520 H   0  0  0  0  0  0  0  0  0  0  0  0
   43.8540   81.7450   55.9580 H   0  0  0  0  0  0  0  0  0  0  0  0
  1  4  1  1  0  0  0
  1  8  1  0  0  0  0
  2  6  1  0  0  0  0
  2  1  1  0  0  0  0
  3  7  1  6  0  0  0
  3  2  1  0  0  0  0
  3  1  1  0  0  0  0
  5  2  1  0  0  0  0
  8 13  1  0  0  0  0
  9 10  1  0  0  0  0
 10 11  2  0  0  0  0
 10 16  1  0  0  0  0
 11 17  1  0  0  0  0
 12 11  1  0  0  0  0
 13 12  2  0  0  0  0
 14 13  1  0  0  0  0
 14  9  2  0  0  0  0
 15  9  1  0  0  0  0
 18  3  1  0  0  0  0
 19 18  1  0  0  0  0
 20 19  2  0  0  0  0
 21 19  1  0  0  0  0
 21 22  1  0  0  0  0
 23 21  1  0  0  0  0
M  END
>  <minimizedAffinity>
-3.28890991

>  <minimizedRMSD>
0.260290325

$$$$
