
 OpenBabel03212520393D

 23 24  0  0  1  0  0  0  0  0999 V2000
   42.3730   85.4570   59.7880 C   0  0  1  0  0  0  0  0  0  0  0  0
   43.4370   86.4860   59.4210 C   0  0  0  0  0  0  0  0  0  0  0  0
   43.0180   85.3760   58.4680 C   0  0  1  0  0  0  0  0  0  0  0  0
   41.3770   85.9580   59.9440 H   0  0  0  0  0  0  0  0  0  0  0  0
   43.1450   87.5220   59.1840 H   0  0  0  0  0  0  0  0  0  0  0  0
   44.4510   86.3910   59.8040 H   0  0  0  0  0  0  0  0  0  0  0  0
   42.4200   85.7400   57.6100 H   0  0  0  0  0  0  0  0  0  0  0  0
   42.8180   84.6010   60.8250 O   0  0  0  0  0  0  0  0  0  0  0  0
   40.0560   83.5170   62.8900 C   0  0  0  0  0  0  0  0  0  0  0  0
   40.5480   83.7340   64.1770 C   0  0  0  0  0  0  0  0  0  0  0  0
   41.8720   84.2710   64.2990 C   0  0  0  0  0  0  0  0  0  0  0  0
   42.5080   84.5100   63.1420 N   0  0  0  0  0  0  0  0  0  0  0  0
   42.0440   84.3050   61.9110 C   0  0  0  0  0  0  0  0  0  0  0  0
   40.8210   83.8090   61.7840 N   0  0  0  0  0  0  0  0  0  0  0  0
   39.0470   83.1070   62.7630 H   0  0  0  0  0  0  0  0  0  0  0  0
   39.9840   83.5200   65.0640 H   0  0  0  0  0  0  0  0  0  0  0  0
   42.3140   84.4630   65.2680 H   0  0  0  0  0  0  0  0  0  0  0  0
   43.9150   84.3110   58.2810 O   0  0  0  0  0  0  0  0  0  0  0  0
   44.0780   83.6580   57.0660 C   0  0  0  0  0  0  0  0  0  0  0  0
   43.2380   84.1220   56.2230 O   0  0  0  0  0  0  0  0  0  0  0  0
   45.0310   82.6350   56.8030 N   0  0  0  0  0  0  0  0  0  0  0  0
   45.9670   82.9530   57.1370 H   0  0  0  0  0  0  0  0  0  0  0  0
   44.5630   81.8080   56.3370 H   0  0  0  0  0  0  0  0  0  0  0  0
  1  4  1  1  0  0  0
  1  8  1  0  0  0  0
  2  1  1  0  0  0  0
  2  6  1  0  0  0  0
  3  7  1  6  0  0  0
  3  2  1  0  0  0  0
  3  1  1  0  0  0  0
  5  2  1  0  0  0  0
  8 13  1  0  0  0  0
  9 10  1  0  0  0  0
 10 11  2  0  0  0  0
 10 16  1  0  0  0  0
 11 17  1  0  0  0  0
 12 11  1  0  0  0  0
 13 12  2  0  0  0  0
 14 13  1  0  0  0  0
 14  9  2  0  0  0  0
 15  9  1  0  0  0  0
 18  3  1  0  0  0  0
 19 18  1  0  0  0  0
 20 19  2  0  0  0  0
 21 19  1  0  0  0  0
 21 22  1  0  0  0  0
 23 21  1  0  0  0  0
M  END
>  <minimizedAffinity>
-3.30608153

>  <minimizedRMSD>
0.222250044

$$$$
