
 OpenBabel03212520363D

 15 15  0  0  0  0  0  0  0  0999 V2000
   39.7720   84.0110   61.1400 C   0  0  0  0  0  0  0  0  0  0  0  0
   39.7450   83.4510   62.4300 C   0  0  0  0  0  0  0  0  0  0  0  0
   40.9450   83.4420   63.1800 C   0  0  0  0  0  0  0  0  0  0  0  0
   42.0400   83.9760   62.5980 N   0  0  0  0  0  0  0  0  0  0  0  0
   42.0440   84.5030   61.3710 C   0  0  0  0  0  0  0  0  0  0  0  0
   40.9070   84.5240   60.6300 N   0  0  0  0  0  0  0  0  0  0  0  0
   38.8350   83.9990   60.5990 H   0  0  0  0  0  0  0  0  0  0  0  0
   38.8970   83.0210   62.9190 H   0  0  0  0  0  0  0  0  0  0  0  0
   40.9770   83.0200   64.1830 H   0  0  0  0  0  0  0  0  0  0  0  0
   43.2080   85.0420   60.8190 O   0  0  0  0  0  0  0  0  0  0  0  0
   44.1000   85.8290   61.5390 C   0  0  0  0  0  0  0  0  0  0  0  0
   44.1670   87.0600   61.8480 O   0  0  0  0  0  0  0  0  0  0  0  0
   45.1750   85.0190   62.0210 N   0  0  0  0  0  0  0  0  0  0  0  0
   46.1320   85.3920   61.7460 H   0  0  0  0  0  0  0  0  0  0  0  0
   45.9940   84.4400   62.3630 H   0  0  0  0  0  0  0  0  0  0  0  0
  1  2  1  0  0  0  0
  2  8  1  0  0  0  0
  2  3  2  0  0  0  0
  3  9  1  0  0  0  0
  4  3  1  0  0  0  0
  5  4  2  0  0  0  0
  6  1  2  0  0  0  0
  6  5  1  0  0  0  0
  7  1  1  0  0  0  0
 10  5  1  0  0  0  0
 10 11  1  0  0  0  0
 11 12  2  0  0  0  0
 11 13  1  0  0  0  0
 13 15  1  0  0  0  0
 14 13  1  0  0  0  0
M  END
>  <minimizedAffinity>
-3.52375674

>  <minimizedRMSD>
5.08708239

$$$$
