
 OpenBabel03212520393D

 23 24  0  0  1  0  0  0  0  0999 V2000
   42.3740   85.4540   59.8030 C   0  0  1  0  0  0  0  0  0  0  0  0
   43.4650   86.4730   59.4960 C   0  0  0  0  0  0  0  0  0  0  0  0
   43.0320   85.4180   58.4870 C   0  0  1  0  0  0  0  0  0  0  0  0
   41.3880   85.9700   59.9720 H   0  0  0  0  0  0  0  0  0  0  0  0
   43.2000   87.5260   59.3040 H   0  0  0  0  0  0  0  0  0  0  0  0
   44.4720   86.3360   59.8840 H   0  0  0  0  0  0  0  0  0  0  0  0
   42.4520   85.8360   57.6410 H   0  0  0  0  0  0  0  0  0  0  0  0
   42.7860   84.5400   60.8040 O   0  0  0  0  0  0  0  0  0  0  0  0
   40.0430   83.5190   62.9260 C   0  0  0  0  0  0  0  0  0  0  0  0
   40.5560   83.7510   64.2020 C   0  0  0  0  0  0  0  0  0  0  0  0
   41.8890   84.2750   64.2960 C   0  0  0  0  0  0  0  0  0  0  0  0
   42.5100   84.4890   63.1260 N   0  0  0  0  0  0  0  0  0  0  0  0
   42.0260   84.2690   61.9050 C   0  0  0  0  0  0  0  0  0  0  0  0
   40.7950   83.7860   61.8030 N   0  0  0  0  0  0  0  0  0  0  0  0
   39.0290   83.1190   62.8200 H   0  0  0  0  0  0  0  0  0  0  0  0
   40.0040   83.5570   65.1000 H   0  0  0  0  0  0  0  0  0  0  0  0
   42.3460   84.4780   65.2550 H   0  0  0  0  0  0  0  0  0  0  0  0
   43.9060   84.3420   58.2610 O   0  0  0  0  0  0  0  0  0  0  0  0
   43.9320   83.6200   57.0750 C   0  0  0  0  0  0  0  0  0  0  0  0
   43.8960   82.3720   57.3420 O   0  0  0  0  0  0  0  0  0  0  0  0
   43.9900   84.1820   55.7690 N   0  0  0  0  0  0  0  0  0  0  0  0
   43.2600   84.9240   55.6890 H   0  0  0  0  0  0  0  0  0  0  0  0
   44.7510   83.7160   55.2020 H   0  0  0  0  0  0  0  0  0  0  0  0
  1  4  1  1  0  0  0
  1  8  1  0  0  0  0
  2  1  1  0  0  0  0
  2  6  1  0  0  0  0
  3  7  1  6  0  0  0
  3  2  1  0  0  0  0
  3  1  1  0  0  0  0
  5  2  1  0  0  0  0
  8 13  1  0  0  0  0
  9 10  1  0  0  0  0
 10 11  2  0  0  0  0
 10 16  1  0  0  0  0
 11 17  1  0  0  0  0
 12 11  1  0  0  0  0
 13 12  2  0  0  0  0
 14 13  1  0  0  0  0
 14  9  2  0  0  0  0
 15  9  1  0  0  0  0
 18  3  1  0  0  0  0
 19 20  2  0  0  0  0
 19 18  1  0  0  0  0
 21 19  1  0  0  0  0
 22 21  1  0  0  0  0
 23 21  1  0  0  0  0
M  END
>  <minimizedAffinity>
-3.30621362

>  <minimizedRMSD>
0.200881466

$$$$
