
 OpenBabel03212520393D

 23 24  0  0  1  0  0  0  0  0999 V2000
   42.3870   85.4520   59.8090 C   0  0  1  0  0  0  0  0  0  0  0  0
   43.4510   86.4660   59.4040 C   0  0  0  0  0  0  0  0  0  0  0  0
   43.0240   85.3280   58.4880 C   0  0  1  0  0  0  0  0  0  0  0  0
   41.3930   85.9600   59.9540 H   0  0  0  0  0  0  0  0  0  0  0  0
   43.1600   87.4950   59.1360 H   0  0  0  0  0  0  0  0  0  0  0  0
   44.4670   86.3800   59.7840 H   0  0  0  0  0  0  0  0  0  0  0  0
   42.4220   85.6660   57.6220 H   0  0  0  0  0  0  0  0  0  0  0  0
   42.8350   84.6280   60.8700 O   0  0  0  0  0  0  0  0  0  0  0  0
   40.0450   83.5270   62.8880 C   0  0  0  0  0  0  0  0  0  0  0  0
   40.5180   83.7350   64.1830 C   0  0  0  0  0  0  0  0  0  0  0  0
   41.8400   84.2730   64.3270 C   0  0  0  0  0  0  0  0  0  0  0  0
   42.4920   84.5200   63.1810 N   0  0  0  0  0  0  0  0  0  0  0  0
   42.0460   84.3230   61.9420 C   0  0  0  0  0  0  0  0  0  0  0  0
   40.8260   83.8270   61.7940 N   0  0  0  0  0  0  0  0  0  0  0  0
   39.0390   83.1170   62.7430 H   0  0  0  0  0  0  0  0  0  0  0  0
   39.9420   83.5150   65.0600 H   0  0  0  0  0  0  0  0  0  0  0  0
   42.2670   84.4590   65.3040 H   0  0  0  0  0  0  0  0  0  0  0  0
   43.9170   84.2550   58.3310 O   0  0  0  0  0  0  0  0  0  0  0  0
   43.5610   83.0480   57.7420 C   0  0  0  0  0  0  0  0  0  0  0  0
   44.3660   82.7920   56.7840 O   0  0  0  0  0  0  0  0  0  0  0  0
   42.4690   82.2270   58.1440 N   0  0  0  0  0  0  0  0  0  0  0  0
   42.5130   82.0920   59.1770 H   0  0  0  0  0  0  0  0  0  0  0  0
   41.8860   81.9560   57.3040 H   0  0  0  0  0  0  0  0  0  0  0  0
  1  4  1  1  0  0  0
  1  8  1  0  0  0  0
  2  6  1  0  0  0  0
  2  1  1  0  0  0  0
  3  7  1  6  0  0  0
  3  2  1  0  0  0  0
  3  1  1  0  0  0  0
  5  2  1  0  0  0  0
  8 13  1  0  0  0  0
  9 10  1  0  0  0  0
 10 11  2  0  0  0  0
 10 16  1  0  0  0  0
 11 17  1  0  0  0  0
 12 11  1  0  0  0  0
 13 12  2  0  0  0  0
 14 13  1  0  0  0  0
 14  9  2  0  0  0  0
 15  9  1  0  0  0  0
 18  3  1  0  0  0  0
 19 21  1  0  0  0  0
 19 18  1  0  0  0  0
 20 19  2  0  0  0  0
 21 22  1  0  0  0  0
 23 21  1  0  0  0  0
M  END
>  <minimizedAffinity>
-3.31257176

>  <minimizedRMSD>
0.812672913

$$$$
