
 OpenBabel03212520583D

 38 41  0  0  1  0  0  0  0  0999 V2000
   39.8250   77.4850   59.1780 C   0  0  0  0  0  0  0  0  0  0  0  0
   40.4820   76.3300   58.9430 C   0  0  0  0  0  0  0  0  0  0  0  0
   39.9520   75.6290   57.8430 C   0  0  0  0  0  0  0  0  0  0  0  0
   38.9100   76.0540   57.1030 N   0  0  0  0  0  0  0  0  0  0  0  0
   38.3190   77.2400   57.4300 C   0  0  0  0  0  0  0  0  0  0  0  0
   38.7800   77.9600   58.4750 N   0  0  0  0  0  0  0  0  0  0  0  0
   41.3060   75.9490   59.4940 H   0  0  0  0  0  0  0  0  0  0  0  0
   40.3800   74.6710   57.5280 H   0  0  0  0  0  0  0  0  0  0  0  0
   40.9710   80.4200   61.7740 C   0  0  0  0  0  0  0  0  0  0  0  0
   40.9430   79.1810   62.3570 C   0  0  0  0  0  0  0  0  0  0  0  0
   40.5830   78.1210   61.6120 C   0  0  0  0  0  0  0  0  0  0  0  0
   40.2510   78.3270   60.2770 C   0  0  0  0  0  0  0  0  0  0  0  0
   40.4610   80.1420   60.0520 S   0  0  0  0  0  0  0  0  0  0  0  0
   41.2060   79.0220   63.4130 H   0  0  0  0  0  0  0  0  0  0  0  0
   40.5020   77.0780   61.8850 H   0  0  0  0  0  0  0  0  0  0  0  0
   43.0180   83.2210   62.9660 C   0  0  0  0  0  0  0  0  0  0  0  0
   42.1090   83.9640   63.7640 C   0  0  0  0  0  0  0  0  0  0  0  0
   40.7880   83.4960   63.8850 C   0  0  0  0  0  0  0  0  0  0  0  0
   40.4580   82.3620   63.2320 N   0  0  0  0  0  0  0  0  0  0  0  0
   41.3480   81.6720   62.4760 C   0  0  0  0  0  0  0  0  0  0  0  0
   42.6030   82.1080   62.3550 N   0  0  0  0  0  0  0  0  0  0  0  0
   44.0450   83.5160   62.8260 H   0  0  0  0  0  0  0  0  0  0  0  0
   42.4490   84.8520   64.2480 H   0  0  0  0  0  0  0  0  0  0  0  0
   40.0750   84.0400   64.4850 H   0  0  0  0  0  0  0  0  0  0  0  0
   37.2030   77.6820   56.6190 C   0  0  0  0  0  0  0  0  0  0  0  0
   36.0710   77.2760   56.9270 O   0  0  0  0  0  0  0  0  0  0  0  0
   37.3790   78.5950   55.4310 C   0  0  1  0  0  0  0  0  0  0  0  0
   37.3960   80.0540   55.7930 C   0  0  0  0  0  0  0  0  0  0  0  0
   38.5940   79.3800   55.2910 C   0  0  2  0  0  0  0  0  0  0  0  0
   36.5560   78.4200   54.6790 H   0  0  0  0  0  0  0  0  0  0  0  0
   37.4390   80.3510   56.8690 H   0  0  0  0  0  0  0  0  0  0  0  0
   36.8520   80.7580   55.1680 H   0  0  0  0  0  0  0  0  0  0  0  0
   39.4720   79.1140   55.9240 H   0  0  0  0  0  0  0  0  0  0  0  0
   40.1290   78.7640   52.2330 H   0  0  0  0  0  0  0  0  0  0  0  0
   39.8510   78.5900   53.2640 C   0  0  0  0  0  0  0  0  0  0  0  0
   40.3070   77.5400   53.8120 O   0  0  0  0  0  0  0  0  0  0  0  0
   39.0060   79.5610   53.8870 N   0  0  0  0  0  0  0  0  0  0  0  0
   38.6880   80.3920   53.3400 H   0  0  0  0  0  0  0  0  0  0  0  0
  1 12  1  0  0  0  0
  2  1  1  0  0  0  0
  2  7  1  0  0  0  0
  3  2  2  0  0  0  0
  4  5  2  0  0  0  0
  4  3  1  0  0  0  0
  5  6  1  0  0  0  0
  6  1  2  0  0  0  0
  8  3  1  0  0  0  0
  9 10  2  0  0  0  0
  9 20  1  0  0  0  0
 10 14  1  0  0  0  0
 11 15  1  0  0  0  0
 11 10  1  0  0  0  0
 12 11  2  0  0  0  0
 13 12  1  0  0  0  0
 13  9  1  0  0  0  0
 16 17  1  0  0  0  0
 17 18  2  0  0  0  0
 17 23  1  0  0  0  0
 18 24  1  0  0  0  0
 19 18  1  0  0  0  0
 20 19  2  0  0  0  0
 21 20  1  0  0  0  0
 21 16  2  0  0  0  0
 22 16  1  0  0  0  0
 25 26  2  0  0  0  0
 25  5  1  0  0  0  0
 27 30  1  6  0  0  0
 27 28  1  0  0  0  0
 27 25  1  0  0  0  0
 28 31  1  0  0  0  0
 29 27  1  0  0  0  0
 29 28  1  0  0  0  0
 29 33  1  1  0  0  0
 32 28  1  0  0  0  0
 34 35  1  0  0  0  0
 35 36  2  0  0  0  0
 35 37  1  0  0  0  0
 37 29  1  0  0  0  0
 38 37  1  0  0  0  0
M  END
>  <minimizedAffinity>
-5.90990782

>  <minimizedRMSD>
0.156969562

$$$$
