
 OpenBabel03212520583D

 38 41  0  0  1  0  0  0  0  0999 V2000
   39.7510   77.2690   59.2430 C   0  0  0  0  0  0  0  0  0  0  0  0
   40.4040   76.1090   59.0170 C   0  0  0  0  0  0  0  0  0  0  0  0
   39.8460   75.3840   57.9460 C   0  0  0  0  0  0  0  0  0  0  0  0
   38.7840   75.7920   57.2260 N   0  0  0  0  0  0  0  0  0  0  0  0
   38.2010   76.9850   57.5410 C   0  0  0  0  0  0  0  0  0  0  0  0
   38.6880   77.7270   58.5580 N   0  0  0  0  0  0  0  0  0  0  0  0
   41.2420   75.7410   59.5540 H   0  0  0  0  0  0  0  0  0  0  0  0
   40.2670   74.4200   57.6420 H   0  0  0  0  0  0  0  0  0  0  0  0
   40.9660   80.2600   61.7430 C   0  0  0  0  0  0  0  0  0  0  0  0
   40.9470   79.0350   62.3560 C   0  0  0  0  0  0  0  0  0  0  0  0
   40.5670   77.9590   61.6440 C   0  0  0  0  0  0  0  0  0  0  0  0
   40.2050   78.1340   60.3120 C   0  0  0  0  0  0  0  0  0  0  0  0
   40.4170   79.9430   60.0390 S   0  0  0  0  0  0  0  0  0  0  0  0
   41.2330   78.9000   63.4090 H   0  0  0  0  0  0  0  0  0  0  0  0
   40.4870   76.9240   61.9440 H   0  0  0  0  0  0  0  0  0  0  0  0
   43.0520   83.0750   62.8290 C   0  0  0  0  0  0  0  0  0  0  0  0
   42.1610   83.8450   63.6220 C   0  0  0  0  0  0  0  0  0  0  0  0
   40.8380   83.3910   63.7750 C   0  0  0  0  0  0  0  0  0  0  0  0
   40.4900   82.2430   63.1570 N   0  0  0  0  0  0  0  0  0  0  0  0
   41.3630   81.5270   62.4060 C   0  0  0  0  0  0  0  0  0  0  0  0
   42.6200   81.9500   62.2540 N   0  0  0  0  0  0  0  0  0  0  0  0
   44.0780   83.3580   62.6660 H   0  0  0  0  0  0  0  0  0  0  0  0
   42.5150   84.7430   64.0770 H   0  0  0  0  0  0  0  0  0  0  0  0
   40.1390   83.9560   64.3720 H   0  0  0  0  0  0  0  0  0  0  0  0
   37.0640   77.4090   56.7500 C   0  0  0  0  0  0  0  0  0  0  0  0
   35.9340   77.0790   57.1440 O   0  0  0  0  0  0  0  0  0  0  0  0
   37.2150   78.2130   55.4830 C   0  0  1  0  0  0  0  0  0  0  0  0
   37.4010   79.6840   55.7260 C   0  0  0  0  0  0  0  0  0  0  0  0
   38.4800   78.8610   55.1810 C   0  0  2  0  0  0  0  0  0  0  0  0
   36.3150   78.0690   54.8190 H   0  0  0  0  0  0  0  0  0  0  0  0
   37.5700   80.0510   56.7680 H   0  0  0  0  0  0  0  0  0  0  0  0
   36.8710   80.3940   55.0950 H   0  0  0  0  0  0  0  0  0  0  0  0
   39.3840   78.5530   55.7560 H   0  0  0  0  0  0  0  0  0  0  0  0
   39.9090   79.8390   52.1660 H   0  0  0  0  0  0  0  0  0  0  0  0
   39.7220   79.8460   53.2310 C   0  0  0  0  0  0  0  0  0  0  0  0
   40.3640   80.6990   53.9200 O   0  0  0  0  0  0  0  0  0  0  0  0
   38.7780   78.9000   53.7370 N   0  0  0  0  0  0  0  0  0  0  0  0
   38.3060   78.2430   53.0770 H   0  0  0  0  0  0  0  0  0  0  0  0
  1 12  1  0  0  0  0
  2  1  1  0  0  0  0
  2  7  1  0  0  0  0
  3  2  2  0  0  0  0
  4  5  2  0  0  0  0
  4  3  1  0  0  0  0
  5  6  1  0  0  0  0
  6  1  2  0  0  0  0
  8  3  1  0  0  0  0
  9 10  2  0  0  0  0
  9 20  1  0  0  0  0
 10 14  1  0  0  0  0
 11 15  1  0  0  0  0
 11 10  1  0  0  0  0
 12 11  2  0  0  0  0
 13 12  1  0  0  0  0
 13  9  1  0  0  0  0
 16 17  1  0  0  0  0
 17 18  2  0  0  0  0
 17 23  1  0  0  0  0
 18 24  1  0  0  0  0
 19 18  1  0  0  0  0
 20 19  2  0  0  0  0
 21 20  1  0  0  0  0
 21 16  2  0  0  0  0
 22 16  1  0  0  0  0
 25 26  2  0  0  0  0
 25  5  1  0  0  0  0
 27 30  1  6  0  0  0
 27 28  1  0  0  0  0
 27 25  1  0  0  0  0
 28 31  1  0  0  0  0
 29 27  1  0  0  0  0
 29 28  1  0  0  0  0
 29 33  1  1  0  0  0
 32 28  1  0  0  0  0
 34 35  1  0  0  0  0
 35 37  1  0  0  0  0
 35 36  2  0  0  0  0
 37 29  1  0  0  0  0
 38 37  1  0  0  0  0
M  END
>  <minimizedAffinity>
-6.08931684

>  <minimizedRMSD>
0.809546292

$$$$
