
 OpenBabel03212520583D

 38 41  0  0  1  0  0  0  0  0999 V2000
   39.7840   77.3820   59.1780 C   0  0  0  0  0  0  0  0  0  0  0  0
   40.4670   76.2480   58.9160 C   0  0  0  0  0  0  0  0  0  0  0  0
   39.9210   75.5370   57.8300 C   0  0  0  0  0  0  0  0  0  0  0  0
   38.8420   75.9340   57.1280 N   0  0  0  0  0  0  0  0  0  0  0  0
   38.2280   77.1010   57.4810 C   0  0  0  0  0  0  0  0  0  0  0  0
   38.7030   77.8290   58.5140 N   0  0  0  0  0  0  0  0  0  0  0  0
   41.3200   75.8890   59.4360 H   0  0  0  0  0  0  0  0  0  0  0  0
   40.3660   74.5930   57.4960 H   0  0  0  0  0  0  0  0  0  0  0  0
   40.9640   80.3330   61.7410 C   0  0  0  0  0  0  0  0  0  0  0  0
   40.9340   79.0990   62.3350 C   0  0  0  0  0  0  0  0  0  0  0  0
   40.5630   78.0350   61.6020 C   0  0  0  0  0  0  0  0  0  0  0  0
   40.2220   78.2310   60.2670 C   0  0  0  0  0  0  0  0  0  0  0  0
   40.4410   80.0430   60.0250 S   0  0  0  0  0  0  0  0  0  0  0  0
   41.2040   78.9480   63.3910 H   0  0  0  0  0  0  0  0  0  0  0  0
   40.4780   76.9950   61.8840 H   0  0  0  0  0  0  0  0  0  0  0  0
   43.0350   83.1310   62.8970 C   0  0  0  0  0  0  0  0  0  0  0  0
   42.1340   83.8880   63.6920 C   0  0  0  0  0  0  0  0  0  0  0  0
   40.8100   83.4300   63.8230 C   0  0  0  0  0  0  0  0  0  0  0  0
   40.4700   82.2920   63.1830 N   0  0  0  0  0  0  0  0  0  0  0  0
   41.3520   81.5890   62.4290 C   0  0  0  0  0  0  0  0  0  0  0  0
   42.6100   82.0160   62.2990 N   0  0  0  0  0  0  0  0  0  0  0  0
   44.0630   83.4180   62.7500 H   0  0  0  0  0  0  0  0  0  0  0  0
   42.4830   84.7780   64.1660 H   0  0  0  0  0  0  0  0  0  0  0  0
   40.1040   83.9850   64.4210 H   0  0  0  0  0  0  0  0  0  0  0  0
   37.0730   77.5140   56.7110 C   0  0  0  0  0  0  0  0  0  0  0  0
   35.9560   77.1440   57.1060 O   0  0  0  0  0  0  0  0  0  0  0  0
   37.1910   78.3530   55.4630 C   0  0  1  0  0  0  0  0  0  0  0  0
   37.3930   79.8160   55.7420 C   0  0  0  0  0  0  0  0  0  0  0  0
   38.4510   79.0030   55.1410 C   0  0  2  0  0  0  0  0  0  0  0  0
   36.2700   78.2330   54.8220 H   0  0  0  0  0  0  0  0  0  0  0  0
   37.5950   80.1520   56.7880 H   0  0  0  0  0  0  0  0  0  0  0  0
   36.8490   80.5460   55.1470 H   0  0  0  0  0  0  0  0  0  0  0  0
   39.3690   78.6740   55.6800 H   0  0  0  0  0  0  0  0  0  0  0  0
   39.4680   78.0730   51.9490 H   0  0  0  0  0  0  0  0  0  0  0  0
   39.3000   77.9720   53.0120 C   0  0  0  0  0  0  0  0  0  0  0  0
   39.6490   76.8730   53.5450 O   0  0  0  0  0  0  0  0  0  0  0  0
   38.7060   79.0810   53.6910 N   0  0  0  0  0  0  0  0  0  0  0  0
   38.4570   79.9400   53.1510 H   0  0  0  0  0  0  0  0  0  0  0  0
  1 12  1  0  0  0  0
  2  1  1  0  0  0  0
  2  7  1  0  0  0  0
  3  2  2  0  0  0  0
  4  5  2  0  0  0  0
  4  3  1  0  0  0  0
  5  6  1  0  0  0  0
  6  1  2  0  0  0  0
  8  3  1  0  0  0  0
  9 10  2  0  0  0  0
  9 20  1  0  0  0  0
 10 14  1  0  0  0  0
 11 15  1  0  0  0  0
 11 10  1  0  0  0  0
 12 11  2  0  0  0  0
 13 12  1  0  0  0  0
 13  9  1  0  0  0  0
 16 17  1  0  0  0  0
 17 18  2  0  0  0  0
 17 23  1  0  0  0  0
 18 24  1  0  0  0  0
 19 18  1  0  0  0  0
 20 19  2  0  0  0  0
 21 20  1  0  0  0  0
 21 16  2  0  0  0  0
 22 16  1  0  0  0  0
 25 26  2  0  0  0  0
 25  5  1  0  0  0  0
 27 30  1  6  0  0  0
 27 28  1  0  0  0  0
 27 25  1  0  0  0  0
 28 31  1  0  0  0  0
 29 27  1  0  0  0  0
 29 33  1  1  0  0  0
 29 28  1  0  0  0  0
 32 28  1  0  0  0  0
 34 35  1  0  0  0  0
 35 36  2  0  0  0  0
 35 37  1  0  0  0  0
 37 29  1  0  0  0  0
 38 37  1  0  0  0  0
M  END
>  <minimizedAffinity>
-5.90615177

>  <minimizedRMSD>
0.566464603

$$$$
