
 OpenBabel03212520123D

 27 28  0  0  0  0  0  0  0  0999 V2000
   40.2880   82.7780   58.4980 Cl  0  0  0  0  0  0  0  0  0  0  0  0
   40.1900   81.0550   58.8680 C   0  0  0  0  0  0  0  0  0  0  0  0
   40.3960   80.5520   60.1430 C   0  0  0  0  0  0  0  0  0  0  0  0
   40.2840   79.1800   60.2690 C   0  0  0  0  0  0  0  0  0  0  0  0
   39.9920   78.3020   59.2370 C   0  0  0  0  0  0  0  0  0  0  0  0
   39.7980   78.8350   58.0040 C   0  0  0  0  0  0  0  0  0  0  0  0
   39.4230   77.7940   56.6440 Cl  0  0  0  0  0  0  0  0  0  0  0  0
   39.8960   80.1950   57.8220 C   0  0  0  0  0  0  0  0  0  0  0  0
   40.4380   78.7500   61.2530 H   0  0  0  0  0  0  0  0  0  0  0  0
   39.9290   77.2320   59.4540 H   0  0  0  0  0  0  0  0  0  0  0  0
   41.9460   81.6880   61.7910 C   0  0  0  0  0  0  0  0  0  0  0  0
   40.6970   81.4480   61.2070 C   0  0  0  0  0  0  0  0  0  0  0  0
   39.6120   82.1630   61.7160 C   0  0  0  0  0  0  0  0  0  0  0  0
   39.8220   83.0340   62.7290 N   0  0  0  0  0  0  0  0  0  0  0  0
   41.0410   83.2400   63.2700 C   0  0  0  0  0  0  0  0  0  0  0  0
   42.1020   82.5580   62.7910 N   0  0  0  0  0  0  0  0  0  0  0  0
   42.7590   81.1140   61.3680 H   0  0  0  0  0  0  0  0  0  0  0  0
   38.6100   82.0420   61.3260 H   0  0  0  0  0  0  0  0  0  0  0  0
   41.1020   84.2300   64.3770 C   0  0  0  0  0  0  0  0  0  0  0  0
   40.9680   85.5200   63.9210 F   0  0  0  0  0  0  0  0  0  0  0  0
   40.0750   83.9880   65.2760 F   0  0  0  0  0  0  0  0  0  0  0  0
   42.3330   84.1920   65.0180 F   0  0  0  0  0  0  0  0  0  0  0  0
   40.5190   81.3050   54.5630 H   0  0  0  0  0  0  0  0  0  0  0  0
   40.7200   80.9050   55.5470 C   0  0  0  0  0  0  0  0  0  0  0  0
   41.9580   80.6430   55.7010 O   0  0  0  0  0  0  0  0  0  0  0  0
   39.6870   80.7170   56.5130 N   0  0  0  0  0  0  0  0  0  0  0  0
   38.7300   80.9930   56.1990 H   0  0  0  0  0  0  0  0  0  0  0  0
  1  2  1  0  0  0  0
  2  3  1  0  0  0  0
  3  4  2  0  0  0  0
  3 12  1  0  0  0  0
  4  9  1  0  0  0  0
  5 10  1  0  0  0  0
  5  4  1  0  0  0  0
  6  5  2  0  0  0  0
  7  6  1  0  0  0  0
  8  6  1  0  0  0  0
  8  2  2  0  0  0  0
 11 16  1  0  0  0  0
 12 13  1  0  0  0  0
 12 11  2  0  0  0  0
 13 14  2  0  0  0  0
 14 15  1  0  0  0  0
 15 19  1  0  0  0  0
 16 15  2  0  0  0  0
 17 11  1  0  0  0  0
 18 13  1  0  0  0  0
 19 22  1  0  0  0  0
 19 21  1  0  0  0  0
 20 19  1  0  0  0  0
 23 24  1  0  0  0  0
 24 25  2  0  0  0  0
 24 26  1  0  0  0  0
 26  8  1  0  0  0  0
 27 26  1  0  0  0  0
M  END
>  <minimizedAffinity>
-5.61260271

>  <minimizedRMSD>
1.75457311

$$$$
