
 OpenBabel03212521053D

 32 34  0  0  0  0  0  0  0  0999 V2000
   41.8130   84.2410   61.5800 C   0  0  0  0  0  0  0  0  0  0  0  0
   41.4450   83.9360   62.8820 C   0  0  0  0  0  0  0  0  0  0  0  0
   40.1690   83.5250   63.1950 C   0  0  0  0  0  0  0  0  0  0  0  0
   39.2200   83.4120   62.1740 C   0  0  0  0  0  0  0  0  0  0  0  0
   39.5940   83.7180   60.8710 C   0  0  0  0  0  0  0  0  0  0  0  0
   40.8740   84.1290   60.5620 C   0  0  0  0  0  0  0  0  0  0  0  0
   42.1100   83.9970   63.7210 H   0  0  0  0  0  0  0  0  0  0  0  0
   39.8660   83.2840   64.2060 H   0  0  0  0  0  0  0  0  0  0  0  0
   38.2230   83.0970   62.3740 H   0  0  0  0  0  0  0  0  0  0  0  0
   38.8290   83.6170   60.1060 H   0  0  0  0  0  0  0  0  0  0  0  0
   41.2100   84.4360   59.1910 C   0  0  0  0  0  0  0  0  0  0  0  0
   40.6600   85.6640   58.7950 C   0  0  0  0  0  0  0  0  0  0  0  0
   40.8580   86.1550   57.5080 C   0  0  0  0  0  0  0  0  0  0  0  0
   41.5960   85.4030   56.6790 N   0  0  0  0  0  0  0  0  0  0  0  0
   42.1260   84.2160   57.0680 C   0  0  0  0  0  0  0  0  0  0  0  0
   41.9360   83.7330   58.3160 N   0  0  0  0  0  0  0  0  0  0  0  0
   40.0480   86.3270   59.4190 H   0  0  0  0  0  0  0  0  0  0  0  0
   40.4500   87.0970   57.1680 H   0  0  0  0  0  0  0  0  0  0  0  0
   44.5870   82.9660   55.0080 H   0  0  0  0  0  0  0  0  0  0  0  0
   44.2380   83.7140   55.7200 C   0  0  0  0  0  0  0  0  0  0  0  0
   44.7080   84.7590   56.2750 O   0  0  0  0  0  0  0  0  0  0  0  0
   42.9020   83.4550   56.1480 N   0  0  0  0  0  0  0  0  0  0  0  0
   42.3170   82.6330   55.8120 H   0  0  0  0  0  0  0  0  0  0  0  0
   45.3700   84.1410   60.7590 C   0  0  0  0  0  0  0  0  0  0  0  0
   45.7470   85.4760   60.7880 C   0  0  0  0  0  0  0  0  0  0  0  0
   44.7510   86.4380   61.0980 C   0  0  0  0  0  0  0  0  0  0  0  0
   43.5060   85.9890   61.3430 N   0  0  0  0  0  0  0  0  0  0  0  0
   43.1720   84.6690   61.3070 C   0  0  0  0  0  0  0  0  0  0  0  0
   44.1040   83.7700   61.0170 N   0  0  0  0  0  0  0  0  0  0  0  0
   46.1450   83.4320   60.5220 H   0  0  0  0  0  0  0  0  0  0  0  0
   46.7170   85.8850   60.6020 H   0  0  0  0  0  0  0  0  0  0  0  0
   44.8750   87.5090   61.1620 H   0  0  0  0  0  0  0  0  0  0  0  0
  1  2  1  0  0  0  0
  2  3  2  0  0  0  0
  2  7  1  0  0  0  0
  3  8  1  0  0  0  0
  4  9  1  0  0  0  0
  4  3  1  0  0  0  0
  5  4  2  0  0  0  0
  6  5  1  0  0  0  0
  6  1  2  0  0  0  0
 10  5  1  0  0  0  0
 11  6  1  0  0  0  0
 12 11  1  0  0  0  0
 12 17  1  0  0  0  0
 13 12  2  0  0  0  0
 14 15  2  0  0  0  0
 14 13  1  0  0  0  0
 15 16  1  0  0  0  0
 16 11  2  0  0  0  0
 18 13  1  0  0  0  0
 19 20  1  0  0  0  0
 20 22  1  0  0  0  0
 20 21  2  0  0  0  0
 22 15  1  0  0  0  0
 23 22  1  0  0  0  0
 24 25  2  0  0  0  0
 24 29  1  0  0  0  0
 25 26  1  0  0  0  0
 26 32  1  0  0  0  0
 26 27  2  0  0  0  0
 28 27  1  0  0  0  0
 28  1  1  0  0  0  0
 29 28  2  0  0  0  0
 30 24  1  0  0  0  0
 31 25  1  0  0  0  0
M  END
>  <minimizedAffinity>
-5.45895815

>  <minimizedRMSD>
0.157019198

$$$$
