
 OpenBabel03212520283D

 24 25  0  0  0  0  0  0  0  0999 V2000
   38.8030   75.6120   58.8890 C   0  0  0  0  0  0  0  0  0  0  0  0
   39.4470   76.5300   59.7120 C   0  0  0  0  0  0  0  0  0  0  0  0
   39.9090   75.6900   60.7340 C   0  0  0  0  0  0  0  0  0  0  0  0
   39.5520   74.3930   60.5050 N   0  0  0  0  0  0  0  0  0  0  0  0
   38.8700   74.3700   59.3620 N   0  0  0  0  0  0  0  0  0  0  0  0
   39.5840   77.5850   59.6390 H   0  0  0  0  0  0  0  0  0  0  0  0
   40.4840   76.0320   61.6070 H   0  0  0  0  0  0  0  0  0  0  0  0
   37.6990   77.5170   55.8720 C   0  0  0  0  0  0  0  0  0  0  0  0
   38.3520   77.2030   57.0530 C   0  0  0  0  0  0  0  0  0  0  0  0
   38.1300   75.9710   57.6480 C   0  0  0  0  0  0  0  0  0  0  0  0
   37.2710   75.1070   57.0480 N   0  0  0  0  0  0  0  0  0  0  0  0
   36.6490   75.4570   55.8870 C   0  0  0  0  0  0  0  0  0  0  0  0
   36.8620   76.6400   55.3140 N   0  0  0  0  0  0  0  0  0  0  0  0
   37.9010   78.4930   55.4370 H   0  0  0  0  0  0  0  0  0  0  0  0
   39.0440   77.9240   57.5150 H   0  0  0  0  0  0  0  0  0  0  0  0
   35.9570   74.7950   55.3790 H   0  0  0  0  0  0  0  0  0  0  0  0
   39.8610   73.2710   61.3520 C   0  0  0  0  0  0  0  0  0  0  0  0
   39.4040   73.4200   62.3560 H   0  0  0  0  0  0  0  0  0  0  0  0
   39.4600   72.3150   60.9710 H   0  0  0  0  0  0  0  0  0  0  0  0
   42.8810   72.2770   62.6690 H   0  0  0  0  0  0  0  0  0  0  0  0
   41.8060   72.3100   62.5090 C   0  0  0  0  0  0  0  0  0  0  0  0
   41.1540   71.5110   63.2010 O   0  0  0  0  0  0  0  0  0  0  0  0
   41.2910   73.2300   61.5620 N   0  0  0  0  0  0  0  0  0  0  0  0
   41.9390   73.8600   61.0330 H   0  0  0  0  0  0  0  0  0  0  0  0
  1  5  2  0  0  0  0
  1  2  1  0  0  0  0
  2  3  2  0  0  0  0
  3  7  1  0  0  0  0
  4  3  1  0  0  0  0
  4 17  1  0  0  0  0
  5  4  1  0  0  0  0
  6  2  1  0  0  0  0
  8  9  1  0  0  0  0
  9 15  1  0  0  0  0
  9 10  2  0  0  0  0
 10  1  1  0  0  0  0
 11 10  1  0  0  0  0
 12 11  2  0  0  0  0
 13  8  2  0  0  0  0
 13 12  1  0  0  0  0
 14  8  1  0  0  0  0
 16 12  1  0  0  0  0
 17 23  1  0  0  0  0
 17 18  1  0  0  0  0
 19 17  1  0  0  0  0
 21 20  1  0  0  0  0
 21 22  2  0  0  0  0
 23 21  1  0  0  0  0
 24 23  1  0  0  0  0
M  END
>  <minimizedAffinity>
-4.76712275

$$$$

 OpenBabel03212520283D

 24 25  0  0  0  0  0  0  0  0999 V2000
   38.2060   75.8790   57.7790 C   0  0  0  0  0  0  0  0  0  0  0  0
   39.0300   76.8040   58.4100 C   0  0  0  0  0  0  0  0  0  0  0  0
   39.2870   76.1460   59.6210 C   0  0  0  0  0  0  0  0  0  0  0  0
   38.6530   74.9390   59.6690 N   0  0  0  0  0  0  0  0  0  0  0  0
   37.9930   74.7970   58.5220 N   0  0  0  0  0  0  0  0  0  0  0  0
   39.3980   77.7580   58.1100 H   0  0  0  0  0  0  0  0  0  0  0  0
   39.9160   76.5510   60.4260 H   0  0  0  0  0  0  0  0  0  0  0  0
   37.1900   75.3010   54.2320 C   0  0  0  0  0  0  0  0  0  0  0  0
   37.7400   75.0870   55.4850 C   0  0  0  0  0  0  0  0  0  0  0  0
   37.6390   76.0750   56.4510 C   0  0  0  0  0  0  0  0  0  0  0  0
   36.9980   77.2290   56.1330 N   0  0  0  0  0  0  0  0  0  0  0  0
   36.4710   77.3980   54.8870 C   0  0  0  0  0  0  0  0  0  0  0  0
   36.5680   76.4490   53.9570 N   0  0  0  0  0  0  0  0  0  0  0  0
   37.2920   74.5010   53.5020 H   0  0  0  0  0  0  0  0  0  0  0  0
   38.2530   74.1400   55.7140 H   0  0  0  0  0  0  0  0  0  0  0  0
   35.9530   78.3050   54.5950 H   0  0  0  0  0  0  0  0  0  0  0  0
   38.6990   74.0050   60.7640 C   0  0  0  0  0  0  0  0  0  0  0  0
   37.8410   74.1850   61.4480 H   0  0  0  0  0  0  0  0  0  0  0  0
   38.6180   72.9520   60.4410 H   0  0  0  0  0  0  0  0  0  0  0  0
   41.8180   73.4670   62.1170 H   0  0  0  0  0  0  0  0  0  0  0  0
   40.9180   73.2800   61.5360 C   0  0  0  0  0  0  0  0  0  0  0  0
   40.9100   72.1970   60.9290 O   0  0  0  0  0  0  0  0  0  0  0  0
   39.8940   74.2590   61.5380 N   0  0  0  0  0  0  0  0  0  0  0  0
   40.0090   75.1410   62.0920 H   0  0  0  0  0  0  0  0  0  0  0  0
  1  2  1  0  0  0  0
  1  5  2  0  0  0  0
  2  3  2  0  0  0  0
  3  4  1  0  0  0  0
  3  7  1  0  0  0  0
  4 17  1  0  0  0  0
  5  4  1  0  0  0  0
  6  2  1  0  0  0  0
  8  9  1  0  0  0  0
  9 15  1  0  0  0  0
  9 10  2  0  0  0  0
 10  1  1  0  0  0  0
 11 10  1  0  0  0  0
 12 11  2  0  0  0  0
 13  8  2  0  0  0  0
 13 12  1  0  0  0  0
 14  8  1  0  0  0  0
 16 12  1  0  0  0  0
 17 18  1  0  0  0  0
 17 23  1  0  0  0  0
 19 17  1  0  0  0  0
 21 23  1  0  0  0  0
 21 20  1  0  0  0  0
 22 21  2  0  0  0  0
 23 24  1  0  0  0  0
M  END
>  <minimizedAffinity>
-4.6774807

$$$$

 OpenBabel03212520283D

 24 25  0  0  0  0  0  0  0  0999 V2000
   38.1100   76.1180   57.3660 C   0  0  0  0  0  0  0  0  0  0  0  0
   38.3240   77.3930   56.8540 C   0  0  0  0  0  0  0  0  0  0  0  0
   37.7270   77.2760   55.5910 C   0  0  0  0  0  0  0  0  0  0  0  0
   37.2140   76.0260   55.4040 N   0  0  0  0  0  0  0  0  0  0  0  0
   37.4630   75.3300   56.5110 N   0  0  0  0  0  0  0  0  0  0  0  0
   38.8000   78.2570   57.2600 H   0  0  0  0  0  0  0  0  0  0  0  0
   37.6790   78.0860   54.8500 H   0  0  0  0  0  0  0  0  0  0  0  0
   39.7560   76.0790   60.7170 C   0  0  0  0  0  0  0  0  0  0  0  0
   39.3580   76.5090   59.4630 C   0  0  0  0  0  0  0  0  0  0  0  0
   38.5470   75.6930   58.6890 C   0  0  0  0  0  0  0  0  0  0  0  0
   38.1680   74.4910   59.1930 N   0  0  0  0  0  0  0  0  0  0  0  0
   38.5840   74.1070   60.4330 C   0  0  0  0  0  0  0  0  0  0  0  0
   39.3630   74.8900   61.1770 N   0  0  0  0  0  0  0  0  0  0  0  0
   40.3920   76.7480   61.2930 H   0  0  0  0  0  0  0  0  0  0  0  0
   39.6800   77.4900   59.0810 H   0  0  0  0  0  0  0  0  0  0  0  0
   38.3030   73.1550   60.8690 H   0  0  0  0  0  0  0  0  0  0  0  0
   36.5350   75.5610   54.2230 C   0  0  0  0  0  0  0  0  0  0  0  0
   35.6840   74.9060   54.5110 H   0  0  0  0  0  0  0  0  0  0  0  0
   36.1030   76.3800   53.6200 H   0  0  0  0  0  0  0  0  0  0  0  0
   38.8610   74.7060   51.8340 H   0  0  0  0  0  0  0  0  0  0  0  0
   38.1770   75.3270   52.4070 C   0  0  0  0  0  0  0  0  0  0  0  0
   38.1290   76.5140   52.0460 O   0  0  0  0  0  0  0  0  0  0  0  0
   37.4440   74.7310   53.4630 N   0  0  0  0  0  0  0  0  0  0  0  0
   37.5640   73.7140   53.6790 H   0  0  0  0  0  0  0  0  0  0  0  0
  1 10  1  0  0  0  0
  2  6  1  0  0  0  0
  2  1  1  0  0  0  0
  3  2  2  0  0  0  0
  4  3  1  0  0  0  0
  4  5  1  0  0  0  0
  5  1  2  0  0  0  0
  7  3  1  0  0  0  0
  8 13  1  0  0  0  0
  8 14  1  0  0  0  0
  9  8  2  0  0  0  0
 10 11  2  0  0  0  0
 10  9  1  0  0  0  0
 11 12  1  0  0  0  0
 12 16  1  0  0  0  0
 12 13  2  0  0  0  0
 15  9  1  0  0  0  0
 17 18  1  0  0  0  0
 17  4  1  0  0  0  0
 19 17  1  0  0  0  0
 20 21  1  0  0  0  0
 21 23  1  0  0  0  0
 22 21  2  0  0  0  0
 23 24  1  0  0  0  0
 23 17  1  0  0  0  0
M  END
>  <minimizedAffinity>
-4.53656054

$$$$

 OpenBabel03212520283D

 24 25  0  0  0  0  0  0  0  0999 V2000
   40.2950   73.5710   61.0800 C   0  0  0  0  0  0  0  0  0  0  0  0
   38.9170   73.5510   61.2630 C   0  0  0  0  0  0  0  0  0  0  0  0
   38.5550   74.7790   60.6920 C   0  0  0  0  0  0  0  0  0  0  0  0
   39.6500   75.4430   60.2210 N   0  0  0  0  0  0  0  0  0  0  0  0
   40.7110   74.6790   60.4720 N   0  0  0  0  0  0  0  0  0  0  0  0
   38.2630   72.8340   61.7050 H   0  0  0  0  0  0  0  0  0  0  0  0
   37.5250   75.1560   60.6310 H   0  0  0  0  0  0  0  0  0  0  0  0
   43.0480   71.0480   61.1230 C   0  0  0  0  0  0  0  0  0  0  0  0
   42.2180   72.0690   60.6900 C   0  0  0  0  0  0  0  0  0  0  0  0
   41.1830   72.4990   61.5070 C   0  0  0  0  0  0  0  0  0  0  0  0
   41.0190   71.8990   62.7140 N   0  0  0  0  0  0  0  0  0  0  0  0
   41.8580   70.8980   63.1000 C   0  0  0  0  0  0  0  0  0  0  0  0
   42.8530   70.4830   62.3160 N   0  0  0  0  0  0  0  0  0  0  0  0
   43.8470   70.7400   60.4530 H   0  0  0  0  0  0  0  0  0  0  0  0
   42.3770   72.5370   59.7060 H   0  0  0  0  0  0  0  0  0  0  0  0
   41.7590   70.3940   64.0560 H   0  0  0  0  0  0  0  0  0  0  0  0
   39.6430   76.7300   59.5760 C   0  0  0  0  0  0  0  0  0  0  0  0
   38.6130   77.1520   59.5880 H   0  0  0  0  0  0  0  0  0  0  0  0
   40.2850   77.4730   60.0820 H   0  0  0  0  0  0  0  0  0  0  0  0
   39.2020   76.1890   56.2050 H   0  0  0  0  0  0  0  0  0  0  0  0
   38.9440   76.3240   57.2540 C   0  0  0  0  0  0  0  0  0  0  0  0
   37.7290   76.2560   57.5010 O   0  0  0  0  0  0  0  0  0  0  0  0
   39.9890   76.5520   58.1830 N   0  0  0  0  0  0  0  0  0  0  0  0
   40.9840   76.5880   57.8590 H   0  0  0  0  0  0  0  0  0  0  0  0
  1  2  1  0  0  0  0
  1 10  1  0  0  0  0
  2  6  1  0  0  0  0
  3  2  2  0  0  0  0
  4  5  1  0  0  0  0
  4  3  1  0  0  0  0
  5  1  2  0  0  0  0
  7  3  1  0  0  0  0
  8 13  1  0  0  0  0
  9  8  2  0  0  0  0
  9 10  1  0  0  0  0
 10 11  2  0  0  0  0
 11 12  1  0  0  0  0
 12 16  1  0  0  0  0
 13 12  2  0  0  0  0
 14  8  1  0  0  0  0
 15  9  1  0  0  0  0
 17 18  1  0  0  0  0
 17 19  1  0  0  0  0
 17  4  1  0  0  0  0
 20 21  1  0  0  0  0
 21 22  2  0  0  0  0
 21 23  1  0  0  0  0
 23 17  1  0  0  0  0
 24 23  1  0  0  0  0
M  END
>  <minimizedAffinity>
-4.32978678

$$$$

 OpenBabel03212520283D

 24 25  0  0  0  0  0  0  0  0999 V2000
   42.4930   71.5670   61.6110 C   0  0  0  0  0  0  0  0  0  0  0  0
   41.7030   71.5990   62.7550 C   0  0  0  0  0  0  0  0  0  0  0  0
   41.6790   70.2410   63.0990 C   0  0  0  0  0  0  0  0  0  0  0  0
   42.4030   69.4970   62.2140 N   0  0  0  0  0  0  0  0  0  0  0  0
   42.8940   70.3360   61.3050 N   0  0  0  0  0  0  0  0  0  0  0  0
   41.2240   72.4000   63.2720 H   0  0  0  0  0  0  0  0  0  0  0  0
   41.1470   69.8300   63.9690 H   0  0  0  0  0  0  0  0  0  0  0  0
   42.2130   74.6920   59.5840 C   0  0  0  0  0  0  0  0  0  0  0  0
   41.8520   73.5740   60.3180 C   0  0  0  0  0  0  0  0  0  0  0  0
   42.8400   72.7490   60.8340 C   0  0  0  0  0  0  0  0  0  0  0  0
   44.1390   73.0710   60.6000 N   0  0  0  0  0  0  0  0  0  0  0  0
   44.4490   74.1800   59.8730 C   0  0  0  0  0  0  0  0  0  0  0  0
   43.5000   74.9730   59.3760 N   0  0  0  0  0  0  0  0  0  0  0  0
   41.4080   75.3120   59.1970 H   0  0  0  0  0  0  0  0  0  0  0  0
   40.7900   73.3400   60.4910 H   0  0  0  0  0  0  0  0  0  0  0  0
   45.4730   74.4690   59.6650 H   0  0  0  0  0  0  0  0  0  0  0  0
   42.5890   68.0700   62.2650 C   0  0  0  0  0  0  0  0  0  0  0  0
   42.4800   67.6390   61.2460 H   0  0  0  0  0  0  0  0  0  0  0  0
   43.5940   67.7750   62.6180 H   0  0  0  0  0  0  0  0  0  0  0  0
   40.5570   65.6520   63.6330 H   0  0  0  0  0  0  0  0  0  0  0  0
   41.3530   66.0890   63.0350 C   0  0  0  0  0  0  0  0  0  0  0  0
   42.0220   65.2680   62.3860 O   0  0  0  0  0  0  0  0  0  0  0  0
   41.5290   67.4940   63.0630 N   0  0  0  0  0  0  0  0  0  0  0  0
   40.9010   68.0920   63.6500 H   0  0  0  0  0  0  0  0  0  0  0  0
  1  2  1  0  0  0  0
  2  3  2  0  0  0  0
  2  6  1  0  0  0  0
  3  7  1  0  0  0  0
  4 17  1  0  0  0  0
  4  3  1  0  0  0  0
  5  1  2  0  0  0  0
  5  4  1  0  0  0  0
  8  9  1  0  0  0  0
  9 15  1  0  0  0  0
  9 10  2  0  0  0  0
 10  1  1  0  0  0  0
 11 10  1  0  0  0  0
 12 11  2  0  0  0  0
 13  8  2  0  0  0  0
 13 12  1  0  0  0  0
 14  8  1  0  0  0  0
 16 12  1  0  0  0  0
 17 19  1  0  0  0  0
 17 23  1  0  0  0  0
 18 17  1  0  0  0  0
 21 23  1  0  0  0  0
 21 20  1  0  0  0  0
 22 21  2  0  0  0  0
 23 24  1  0  0  0  0
M  END
>  <minimizedAffinity>
-4.31173134

$$$$

 OpenBabel03212520283D

 24 25  0  0  0  0  0  0  0  0999 V2000
   39.1870   74.7530   59.3000 C   0  0  0  0  0  0  0  0  0  0  0  0
   39.1830   75.2180   60.6100 C   0  0  0  0  0  0  0  0  0  0  0  0
   40.0180   74.2780   61.2280 C   0  0  0  0  0  0  0  0  0  0  0  0
   40.4620   73.3500   60.3320 N   0  0  0  0  0  0  0  0  0  0  0  0
   39.9360   73.6630   59.1500 N   0  0  0  0  0  0  0  0  0  0  0  0
   38.7000   76.0480   61.0730 H   0  0  0  0  0  0  0  0  0  0  0  0
   40.2810   74.2880   62.2960 H   0  0  0  0  0  0  0  0  0  0  0  0
   38.0200   77.2700   56.8010 C   0  0  0  0  0  0  0  0  0  0  0  0
   38.7320   76.6930   57.8380 C   0  0  0  0  0  0  0  0  0  0  0  0
   38.4540   75.3870   58.2130 C   0  0  0  0  0  0  0  0  0  0  0  0
   37.4830   74.7140   57.5430 N   0  0  0  0  0  0  0  0  0  0  0  0
   36.8060   75.3210   56.5280 C   0  0  0  0  0  0  0  0  0  0  0  0
   37.0720   76.5750   56.1670 N   0  0  0  0  0  0  0  0  0  0  0  0
   38.2680   78.2960   56.5380 H   0  0  0  0  0  0  0  0  0  0  0  0
   39.5150   77.2640   58.3620 H   0  0  0  0  0  0  0  0  0  0  0  0
   36.0250   74.8160   55.9700 H   0  0  0  0  0  0  0  0  0  0  0  0
   41.3350   72.2430   60.6260 C   0  0  0  0  0  0  0  0  0  0  0  0
   41.8790   72.4350   61.5770 H   0  0  0  0  0  0  0  0  0  0  0  0
   40.7950   71.2900   60.7690 H   0  0  0  0  0  0  0  0  0  0  0  0
   44.3800   72.6600   59.0770 H   0  0  0  0  0  0  0  0  0  0  0  0
   43.6200   72.7190   59.8530 C   0  0  0  0  0  0  0  0  0  0  0  0
   43.9860   73.2860   60.8950 O   0  0  0  0  0  0  0  0  0  0  0  0
   42.3430   72.1620   59.5920 N   0  0  0  0  0  0  0  0  0  0  0  0
   42.1450   71.7060   58.6710 H   0  0  0  0  0  0  0  0  0  0  0  0
  1  2  1  0  0  0  0
  2  6  1  0  0  0  0
  2  3  2  0  0  0  0
  3  7  1  0  0  0  0
  4 17  1  0  0  0  0
  4  3  1  0  0  0  0
  5  1  2  0  0  0  0
  5  4  1  0  0  0  0
  8  9  1  0  0  0  0
  9 10  2  0  0  0  0
  9 15  1  0  0  0  0
 10  1  1  0  0  0  0
 11 10  1  0  0  0  0
 12 11  2  0  0  0  0
 13 12  1  0  0  0  0
 13  8  2  0  0  0  0
 14  8  1  0  0  0  0
 16 12  1  0  0  0  0
 17 19  1  0  0  0  0
 17 18  1  0  0  0  0
 20 21  1  0  0  0  0
 21 22  2  0  0  0  0
 23 21  1  0  0  0  0
 23 17  1  0  0  0  0
 24 23  1  0  0  0  0
M  END
>  <minimizedAffinity>
-4.2677083

$$$$

 OpenBabel03212520283D

 24 25  0  0  0  0  0  0  0  0999 V2000
   40.7080   75.0940   59.2630 C   0  0  0  0  0  0  0  0  0  0  0  0
   40.3040   76.3860   59.5780 C   0  0  0  0  0  0  0  0  0  0  0  0
   39.0740   76.4500   58.9090 C   0  0  0  0  0  0  0  0  0  0  0  0
   38.8040   75.2780   58.2640 N   0  0  0  0  0  0  0  0  0  0  0  0
   39.8260   74.4580   58.4960 N   0  0  0  0  0  0  0  0  0  0  0  0
   40.7570   77.1570   60.1590 H   0  0  0  0  0  0  0  0  0  0  0  0
   38.4140   77.3290   58.9050 H   0  0  0  0  0  0  0  0  0  0  0  0
   44.3480   74.3880   59.7060 C   0  0  0  0  0  0  0  0  0  0  0  0
   43.1760   74.9680   59.2520 C   0  0  0  0  0  0  0  0  0  0  0  0
   41.9580   74.5030   59.7220 C   0  0  0  0  0  0  0  0  0  0  0  0
   41.9570   73.4850   60.6200 N   0  0  0  0  0  0  0  0  0  0  0  0
   43.1340   72.9420   61.0410 C   0  0  0  0  0  0  0  0  0  0  0  0
   44.3060   73.3890   60.5900 N   0  0  0  0  0  0  0  0  0  0  0  0
   45.2830   74.7820   59.3130 H   0  0  0  0  0  0  0  0  0  0  0  0
   43.2090   75.7930   58.5230 H   0  0  0  0  0  0  0  0  0  0  0  0
   43.1740   72.1290   61.7570 H   0  0  0  0  0  0  0  0  0  0  0  0
   37.6300   74.9990   57.4800 C   0  0  0  0  0  0  0  0  0  0  0  0
   37.3810   73.9170   57.5470 H   0  0  0  0  0  0  0  0  0  0  0  0
   36.7340   75.5420   57.8300 H   0  0  0  0  0  0  0  0  0  0  0  0
   37.5070   76.5470   54.4080 H   0  0  0  0  0  0  0  0  0  0  0  0
   37.2840   76.3490   55.4540 C   0  0  0  0  0  0  0  0  0  0  0  0
   36.4670   77.1320   55.9670 O   0  0  0  0  0  0  0  0  0  0  0  0
   37.9290   75.2590   56.0890 N   0  0  0  0  0  0  0  0  0  0  0  0
   38.6030   74.6620   55.5540 H   0  0  0  0  0  0  0  0  0  0  0  0
  1  2  1  0  0  0  0
  1 10  1  0  0  0  0
  2  6  1  0  0  0  0
  3  2  2  0  0  0  0
  4  5  1  0  0  0  0
  4  3  1  0  0  0  0
  5  1  2  0  0  0  0
  7  3  1  0  0  0  0
  8 13  1  0  0  0  0
  9  8  2  0  0  0  0
  9 10  1  0  0  0  0
 10 11  2  0  0  0  0
 11 12  1  0  0  0  0
 12 16  1  0  0  0  0
 13 12  2  0  0  0  0
 14  8  1  0  0  0  0
 15  9  1  0  0  0  0
 17 18  1  0  0  0  0
 17 19  1  0  0  0  0
 17  4  1  0  0  0  0
 20 21  1  0  0  0  0
 21 22  2  0  0  0  0
 21 23  1  0  0  0  0
 23 17  1  0  0  0  0
 24 23  1  0  0  0  0
M  END
>  <minimizedAffinity>
-4.26485062

$$$$

 OpenBabel03212520283D

 24 25  0  0  0  0  0  0  0  0999 V2000
   39.9650   74.3670   60.2620 C   0  0  0  0  0  0  0  0  0  0  0  0
   39.1430   73.5970   61.0770 C   0  0  0  0  0  0  0  0  0  0  0  0
   40.0930   72.8130   61.7470 C   0  0  0  0  0  0  0  0  0  0  0  0
   41.3580   73.1200   61.3390 N   0  0  0  0  0  0  0  0  0  0  0  0
   41.2540   74.0790   60.4230 N   0  0  0  0  0  0  0  0  0  0  0  0
   38.0840   73.5650   61.2020 H   0  0  0  0  0  0  0  0  0  0  0  0
   39.8500   72.0520   62.5020 H   0  0  0  0  0  0  0  0  0  0  0  0
   39.4390   77.6190   58.5030 C   0  0  0  0  0  0  0  0  0  0  0  0
   39.9270   76.6820   59.3980 C   0  0  0  0  0  0  0  0  0  0  0  0
   39.4690   75.3750   59.3350 C   0  0  0  0  0  0  0  0  0  0  0  0
   38.5470   75.0570   58.3890 N   0  0  0  0  0  0  0  0  0  0  0  0
   38.0930   76.0100   57.5290 C   0  0  0  0  0  0  0  0  0  0  0  0
   38.5330   77.2670   57.5880 N   0  0  0  0  0  0  0  0  0  0  0  0
   39.8240   78.6320   58.5850 H   0  0  0  0  0  0  0  0  0  0  0  0
   40.6750   76.9700   60.1530 H   0  0  0  0  0  0  0  0  0  0  0  0
   37.3580   75.7950   56.7610 H   0  0  0  0  0  0  0  0  0  0  0  0
   42.5700   72.5080   61.8180 C   0  0  0  0  0  0  0  0  0  0  0  0
   43.0650   71.9530   60.9910 H   0  0  0  0  0  0  0  0  0  0  0  0
   43.3120   73.2410   62.1840 H   0  0  0  0  0  0  0  0  0  0  0  0
   42.4390   69.4500   63.3930 H   0  0  0  0  0  0  0  0  0  0  0  0
   42.6970   70.1950   62.6440 C   0  0  0  0  0  0  0  0  0  0  0  0
   43.3910   69.7690   61.7070 O   0  0  0  0  0  0  0  0  0  0  0  0
   42.2260   71.5200   62.8180 N   0  0  0  0  0  0  0  0  0  0  0  0
   41.6430   71.7680   63.6510 H   0  0  0  0  0  0  0  0  0  0  0  0
  1  5  2  0  0  0  0
  1  2  1  0  0  0  0
  2  6  1  0  0  0  0
  2  3  2  0  0  0  0
  3  7  1  0  0  0  0
  4  3  1  0  0  0  0
  4 17  1  0  0  0  0
  5  4  1  0  0  0  0
  8 14  1  0  0  0  0
  8  9  1  0  0  0  0
  9 15  1  0  0  0  0
 10  9  2  0  0  0  0
 10  1  1  0  0  0  0
 11 10  1  0  0  0  0
 12 13  1  0  0  0  0
 12 11  2  0  0  0  0
 13  8  2  0  0  0  0
 16 12  1  0  0  0  0
 17 19  1  0  0  0  0
 17 23  1  0  0  0  0
 18 17  1  0  0  0  0
 21 23  1  0  0  0  0
 21 20  1  0  0  0  0
 22 21  2  0  0  0  0
 23 24  1  0  0  0  0
M  END
>  <minimizedAffinity>
-4.22293854

$$$$

 OpenBabel03212520283D

 24 25  0  0  0  0  0  0  0  0999 V2000
   40.9620   71.9780   60.9520 C   0  0  0  0  0  0  0  0  0  0  0  0
   40.8160   72.1560   59.5800 C   0  0  0  0  0  0  0  0  0  0  0  0
   39.8900   73.2080   59.5470 C   0  0  0  0  0  0  0  0  0  0  0  0
   39.5390   73.5930   60.8080 N   0  0  0  0  0  0  0  0  0  0  0  0
   40.2120   72.8210   61.6570 N   0  0  0  0  0  0  0  0  0  0  0  0
   41.2570   71.6650   58.7430 H   0  0  0  0  0  0  0  0  0  0  0  0
   39.4980   73.6610   58.6260 H   0  0  0  0  0  0  0  0  0  0  0  0
   42.6090   69.7350   63.4430 C   0  0  0  0  0  0  0  0  0  0  0  0
   41.7650   70.6910   62.9030 C   0  0  0  0  0  0  0  0  0  0  0  0
   41.8380   70.9790   61.5490 C   0  0  0  0  0  0  0  0  0  0  0  0
   42.7440   70.3070   60.7920 N   0  0  0  0  0  0  0  0  0  0  0  0
   43.5560   69.3740   61.3640 C   0  0  0  0  0  0  0  0  0  0  0  0
   43.4870   69.0970   62.6660 N   0  0  0  0  0  0  0  0  0  0  0  0
   42.5210   69.5400   64.5090 H   0  0  0  0  0  0  0  0  0  0  0  0
   41.0400   71.2190   63.5420 H   0  0  0  0  0  0  0  0  0  0  0  0
   44.2910   68.8180   60.7930 H   0  0  0  0  0  0  0  0  0  0  0  0
   38.6100   74.6420   61.1410 C   0  0  0  0  0  0  0  0  0  0  0  0
   38.1030   75.0030   60.2190 H   0  0  0  0  0  0  0  0  0  0  0  0
   37.8070   74.3110   61.8240 H   0  0  0  0  0  0  0  0  0  0  0  0
   40.3390   77.6180   61.1400 H   0  0  0  0  0  0  0  0  0  0  0  0
   39.7800   76.7690   60.7530 C   0  0  0  0  0  0  0  0  0  0  0  0
   39.5880   76.7930   59.5260 O   0  0  0  0  0  0  0  0  0  0  0  0
   39.3520   75.7690   61.6610 N   0  0  0  0  0  0  0  0  0  0  0  0
   39.5740   75.8540   62.6800 H   0  0  0  0  0  0  0  0  0  0  0  0
  1 10  1  0  0  0  0
  1  5  2  0  0  0  0
  2  1  1  0  0  0  0
  3  2  2  0  0  0  0
  3  4  1  0  0  0  0
  4 17  1  0  0  0  0
  4  5  1  0  0  0  0
  6  2  1  0  0  0  0
  7  3  1  0  0  0  0
  8 14  1  0  0  0  0
  9  8  1  0  0  0  0
  9 15  1  0  0  0  0
 10  9  2  0  0  0  0
 11 12  2  0  0  0  0
 11 10  1  0  0  0  0
 12 13  1  0  0  0  0
 13  8  2  0  0  0  0
 16 12  1  0  0  0  0
 17 23  1  0  0  0  0
 17 19  1  0  0  0  0
 18 17  1  0  0  0  0
 21 20  1  0  0  0  0
 21 23  1  0  0  0  0
 22 21  2  0  0  0  0
 23 24  1  0  0  0  0
M  END
>  <minimizedAffinity>
-4.20529222

$$$$
