
 OpenBabel03212521043D

 32 34  0  0  0  0  0  0  0  0999 V2000
   41.8210   84.2260   61.5900 C   0  0  0  0  0  0  0  0  0  0  0  0
   41.4410   83.9700   62.8990 C   0  0  0  0  0  0  0  0  0  0  0  0
   40.1650   83.5630   63.2150 C   0  0  0  0  0  0  0  0  0  0  0  0
   39.2270   83.4030   62.1900 C   0  0  0  0  0  0  0  0  0  0  0  0
   39.6130   83.6600   60.8790 C   0  0  0  0  0  0  0  0  0  0  0  0
   40.8930   84.0680   60.5670 C   0  0  0  0  0  0  0  0  0  0  0  0
   42.0970   84.0690   63.7420 H   0  0  0  0  0  0  0  0  0  0  0  0
   39.8530   83.3600   64.2320 H   0  0  0  0  0  0  0  0  0  0  0  0
   38.2300   83.0900   62.3920 H   0  0  0  0  0  0  0  0  0  0  0  0
   38.8560   83.5240   60.1120 H   0  0  0  0  0  0  0  0  0  0  0  0
   41.2410   84.3230   59.1890 C   0  0  0  0  0  0  0  0  0  0  0  0
   40.7890   85.5850   58.7750 C   0  0  0  0  0  0  0  0  0  0  0  0
   41.0160   86.0370   57.4790 C   0  0  0  0  0  0  0  0  0  0  0  0
   41.6830   85.2130   56.6580 N   0  0  0  0  0  0  0  0  0  0  0  0
   42.1180   83.9940   57.0640 C   0  0  0  0  0  0  0  0  0  0  0  0
   41.9010   83.5490   58.3220 N   0  0  0  0  0  0  0  0  0  0  0  0
   40.2390   86.3060   59.3920 H   0  0  0  0  0  0  0  0  0  0  0  0
   40.6820   87.0020   57.1250 H   0  0  0  0  0  0  0  0  0  0  0  0
   44.4960   82.3730   55.1720 H   0  0  0  0  0  0  0  0  0  0  0  0
   44.2300   83.1100   55.9300 C   0  0  0  0  0  0  0  0  0  0  0  0
   44.8450   83.9410   56.6730 O   0  0  0  0  0  0  0  0  0  0  0  0
   42.8230   83.1570   56.1520 N   0  0  0  0  0  0  0  0  0  0  0  0
   42.1170   82.5480   55.6400 H   0  0  0  0  0  0  0  0  0  0  0  0
   45.3750   84.1230   60.7550 C   0  0  0  0  0  0  0  0  0  0  0  0
   45.7540   85.4570   60.7910 C   0  0  0  0  0  0  0  0  0  0  0  0
   44.7620   86.4190   61.1090 C   0  0  0  0  0  0  0  0  0  0  0  0
   43.5170   85.9720   61.3570 N   0  0  0  0  0  0  0  0  0  0  0  0
   43.1800   84.6530   61.3140 C   0  0  0  0  0  0  0  0  0  0  0  0
   44.1090   83.7540   61.0150 N   0  0  0  0  0  0  0  0  0  0  0  0
   46.1460   83.4130   60.5100 H   0  0  0  0  0  0  0  0  0  0  0  0
   46.7250   85.8640   60.6030 H   0  0  0  0  0  0  0  0  0  0  0  0
   44.8890   87.4890   61.1790 H   0  0  0  0  0  0  0  0  0  0  0  0
  1  2  1  0  0  0  0
  2  3  2  0  0  0  0
  2  7  1  0  0  0  0
  3  8  1  0  0  0  0
  4  9  1  0  0  0  0
  4  3  1  0  0  0  0
  5  4  2  0  0  0  0
  6  5  1  0  0  0  0
  6  1  2  0  0  0  0
 10  5  1  0  0  0  0
 11  6  1  0  0  0  0
 12 11  1  0  0  0  0
 12 17  1  0  0  0  0
 13 12  2  0  0  0  0
 14 15  2  0  0  0  0
 14 13  1  0  0  0  0
 15 16  1  0  0  0  0
 16 11  2  0  0  0  0
 18 13  1  0  0  0  0
 19 20  1  0  0  0  0
 20 22  1  0  0  0  0
 20 21  2  0  0  0  0
 22 15  1  0  0  0  0
 23 22  1  0  0  0  0
 24 25  2  0  0  0  0
 24 29  1  0  0  0  0
 25 26  1  0  0  0  0
 26 32  1  0  0  0  0
 26 27  2  0  0  0  0
 28 27  1  0  0  0  0
 28  1  1  0  0  0  0
 29 28  2  0  0  0  0
 30 24  1  0  0  0  0
 31 25  1  0  0  0  0
M  END
>  <minimizedAffinity>
-5.4302845

>  <minimizedRMSD>
0.052142363

$$$$
