
 OpenBabel03212519583D

 14 14  0  0  0  0  0  0  0  0999 V2000
   41.6570   84.6620   60.1200 C   0  0  0  0  0  0  0  0  0  0  0  0
   40.6550   84.9610   59.1680 C   0  0  0  0  0  0  0  0  0  0  0  0
   39.3180   84.8710   59.5670 C   0  0  0  0  0  0  0  0  0  0  0  0
   39.0450   84.5030   60.8440 N   0  0  0  0  0  0  0  0  0  0  0  0
   40.0350   84.2230   61.7340 C   0  0  0  0  0  0  0  0  0  0  0  0
   41.3230   84.3020   61.3750 N   0  0  0  0  0  0  0  0  0  0  0  0
   42.7060   84.7180   59.8580 H   0  0  0  0  0  0  0  0  0  0  0  0
   40.9520   85.2460   58.1720 H   0  0  0  0  0  0  0  0  0  0  0  0
   38.5390   85.0920   58.8650 H   0  0  0  0  0  0  0  0  0  0  0  0
   39.9900   83.5650   65.1590 H   0  0  0  0  0  0  0  0  0  0  0  0
   40.4930   84.0020   64.2860 C   0  0  0  0  0  0  0  0  0  0  0  0
   41.5600   84.6310   64.0600 O   0  0  0  0  0  0  0  0  0  0  0  0
   39.7810   83.8360   63.0800 N   0  0  0  0  0  0  0  0  0  0  0  0
   38.8520   83.3390   63.0030 H   0  0  0  0  0  0  0  0  0  0  0  0
  1  6  1  0  0  0  0
  2  3  1  0  0  0  0
  2  1  2  0  0  0  0
  3  4  2  0  0  0  0
  4  5  1  0  0  0  0
  5 13  1  0  0  0  0
  6  5  2  0  0  0  0
  7  1  1  0  0  0  0
  8  2  1  0  0  0  0
  9  3  1  0  0  0  0
 11 10  1  0  0  0  0
 12 11  2  0  0  0  0
 13 11  1  0  0  0  0
 14 13  1  0  0  0  0
M  END
>  <minimizedAffinity>
-4.36195421

>  <minimizedRMSD>
2.1615746

$$$$
