
 OpenBabel03212520453D

 14 14  0  0  0  0  0  0  0  0999 V2000
   38.1620   74.8760   58.7500 C   0  0  0  0  0  0  0  0  0  0  0  0
   38.4030   74.2020   59.9570 C   0  0  0  0  0  0  0  0  0  0  0  0
   39.1870   74.8220   60.9280 C   0  0  0  0  0  0  0  0  0  0  0  0
   39.6770   76.0550   60.6470 N   0  0  0  0  0  0  0  0  0  0  0  0
   39.4370   76.6900   59.4810 C   0  0  0  0  0  0  0  0  0  0  0  0
   38.6770   76.0900   58.5380 N   0  0  0  0  0  0  0  0  0  0  0  0
   37.9980   73.2140   60.1570 H   0  0  0  0  0  0  0  0  0  0  0  0
   39.4190   74.3600   61.8950 H   0  0  0  0  0  0  0  0  0  0  0  0
   39.8960   77.6710   59.3990 H   0  0  0  0  0  0  0  0  0  0  0  0
   36.2400   74.5590   55.9280 H   0  0  0  0  0  0  0  0  0  0  0  0
   36.8520   75.0290   56.6920 C   0  0  0  0  0  0  0  0  0  0  0  0
   37.1390   76.2710   56.6750 O   0  0  0  0  0  0  0  0  0  0  0  0
   37.3620   74.2410   57.7600 N   0  0  0  0  0  0  0  0  0  0  0  0
   37.1550   73.2230   57.8160 H   0  0  0  0  0  0  0  0  0  0  0  0
  1  2  1  0  0  0  0
  2  7  1  0  0  0  0
  2  3  2  0  0  0  0
  3  8  1  0  0  0  0
  4  3  1  0  0  0  0
  5  4  2  0  0  0  0
  6  1  2  0  0  0  0
  6  5  1  0  0  0  0
  9  5  1  0  0  0  0
 10 11  1  0  0  0  0
 11 13  1  0  0  0  0
 12 11  2  0  0  0  0
 13 14  1  0  0  0  0
 13  1  1  0  0  0  0
M  END
>  <minimizedAffinity>
-3.7572546

$$$$

 OpenBabel03212520453D

 14 14  0  0  0  0  0  0  0  0999 V2000
   41.0850   67.8730   63.1590 C   0  0  0  0  0  0  0  0  0  0  0  0
   40.0670   66.9650   63.4870 C   0  0  0  0  0  0  0  0  0  0  0  0
   40.2390   65.6190   63.1680 C   0  0  0  0  0  0  0  0  0  0  0  0
   41.3930   65.2620   62.5520 N   0  0  0  0  0  0  0  0  0  0  0  0
   42.3620   66.1480   62.2420 C   0  0  0  0  0  0  0  0  0  0  0  0
   42.1970   67.4540   62.5500 N   0  0  0  0  0  0  0  0  0  0  0  0
   39.1520   67.2780   63.9820 H   0  0  0  0  0  0  0  0  0  0  0  0
   39.4910   64.8500   63.3920 H   0  0  0  0  0  0  0  0  0  0  0  0
   43.2290   65.7150   61.7500 H   0  0  0  0  0  0  0  0  0  0  0  0
   41.9230   71.1540   63.7020 H   0  0  0  0  0  0  0  0  0  0  0  0
   42.0420   70.1040   63.4550 C   0  0  0  0  0  0  0  0  0  0  0  0
   43.1660   69.5960   63.1350 O   0  0  0  0  0  0  0  0  0  0  0  0
   40.9070   69.2460   63.4860 N   0  0  0  0  0  0  0  0  0  0  0  0
   39.9690   69.6150   63.7420 H   0  0  0  0  0  0  0  0  0  0  0  0
  1 13  1  0  0  0  0
  1  2  1  0  0  0  0
  2  7  1  0  0  0  0
  3  8  1  0  0  0  0
  3  2  2  0  0  0  0
  4  3  1  0  0  0  0
  5  6  1  0  0  0  0
  5  4  2  0  0  0  0
  6  1  2  0  0  0  0
  9  5  1  0  0  0  0
 11 13  1  0  0  0  0
 11 10  1  0  0  0  0
 12 11  2  0  0  0  0
 13 14  1  0  0  0  0
M  END
>  <minimizedAffinity>
-3.68012142

$$$$

 OpenBabel03212520453D

 14 14  0  0  0  0  0  0  0  0999 V2000
   40.0560   75.9780   60.5660 C   0  0  0  0  0  0  0  0  0  0  0  0
   40.4090   77.3260   60.4000 C   0  0  0  0  0  0  0  0  0  0  0  0
   41.5920   77.6340   59.7320 C   0  0  0  0  0  0  0  0  0  0  0  0
   42.3430   76.6010   59.2760 N   0  0  0  0  0  0  0  0  0  0  0  0
   41.9910   75.3090   59.4450 C   0  0  0  0  0  0  0  0  0  0  0  0
   40.8430   75.0090   60.0930 N   0  0  0  0  0  0  0  0  0  0  0  0
   39.7880   78.1350   60.7750 H   0  0  0  0  0  0  0  0  0  0  0  0
   41.9340   78.6610   59.5630 H   0  0  0  0  0  0  0  0  0  0  0  0
   42.6910   74.5920   59.0260 H   0  0  0  0  0  0  0  0  0  0  0  0
   37.4060   74.0940   61.6560 H   0  0  0  0  0  0  0  0  0  0  0  0
   38.3270   74.3470   61.1410 C   0  0  0  0  0  0  0  0  0  0  0  0
   38.9740   73.5070   60.4340 O   0  0  0  0  0  0  0  0  0  0  0  0
   38.8480   75.6670   61.2490 N   0  0  0  0  0  0  0  0  0  0  0  0
   38.3560   76.3870   61.8150 H   0  0  0  0  0  0  0  0  0  0  0  0
  1 13  1  0  0  0  0
  2  1  1  0  0  0  0
  2  7  1  0  0  0  0
  3  2  2  0  0  0  0
  4  5  2  0  0  0  0
  4  3  1  0  0  0  0
  5  6  1  0  0  0  0
  6  1  2  0  0  0  0
  8  3  1  0  0  0  0
  9  5  1  0  0  0  0
 11 13  1  0  0  0  0
 11 10  1  0  0  0  0
 12 11  2  0  0  0  0
 13 14  1  0  0  0  0
M  END
>  <minimizedAffinity>
-3.60710478

$$$$

 OpenBabel03212520453D

 14 14  0  0  0  0  0  0  0  0999 V2000
   37.5400   75.2500   57.5980 C   0  0  0  0  0  0  0  0  0  0  0  0
   36.7860   74.9700   56.4480 C   0  0  0  0  0  0  0  0  0  0  0  0
   36.8080   75.8780   55.3920 C   0  0  0  0  0  0  0  0  0  0  0  0
   37.5660   76.9930   55.5390 N   0  0  0  0  0  0  0  0  0  0  0  0
   38.2850   77.2490   56.6510 C   0  0  0  0  0  0  0  0  0  0  0  0
   38.2640   76.3690   57.6770 N   0  0  0  0  0  0  0  0  0  0  0  0
   36.1870   74.0680   56.3570 H   0  0  0  0  0  0  0  0  0  0  0  0
   36.2470   75.7300   54.4620 H   0  0  0  0  0  0  0  0  0  0  0  0
   38.8430   78.1810   56.6240 H   0  0  0  0  0  0  0  0  0  0  0  0
   38.5020   73.7280   60.5170 H   0  0  0  0  0  0  0  0  0  0  0  0
   38.5070   74.4300   59.6880 C   0  0  0  0  0  0  0  0  0  0  0  0
   39.3720   75.3590   59.5800 O   0  0  0  0  0  0  0  0  0  0  0  0
   37.5150   74.3210   58.6750 N   0  0  0  0  0  0  0  0  0  0  0  0
   36.7880   73.5780   58.7200 H   0  0  0  0  0  0  0  0  0  0  0  0
  1  6  1  0  0  0  0
  1 13  1  0  0  0  0
  2  1  2  0  0  0  0
  3  4  2  0  0  0  0
  3  2  1  0  0  0  0
  4  5  1  0  0  0  0
  5  6  2  0  0  0  0
  7  2  1  0  0  0  0
  8  3  1  0  0  0  0
  9  5  1  0  0  0  0
 11 10  1  0  0  0  0
 12 11  2  0  0  0  0
 13 14  1  0  0  0  0
 13 11  1  0  0  0  0
M  END
>  <minimizedAffinity>
-3.32001567

$$$$

 OpenBabel03212520453D

 14 14  0  0  0  0  0  0  0  0999 V2000
   37.9090   74.4820   57.8540 C   0  0  0  0  0  0  0  0  0  0  0  0
   38.2780   73.5020   58.7870 C   0  0  0  0  0  0  0  0  0  0  0  0
   39.0480   73.8760   59.8870 C   0  0  0  0  0  0  0  0  0  0  0  0
   39.4000   75.1820   59.9910 N   0  0  0  0  0  0  0  0  0  0  0  0
   39.0390   76.1130   59.0840 C   0  0  0  0  0  0  0  0  0  0  0  0
   38.2920   75.7510   58.0170 N   0  0  0  0  0  0  0  0  0  0  0  0
   37.9810   72.4620   58.6800 H   0  0  0  0  0  0  0  0  0  0  0  0
   39.3740   73.1690   60.6580 H   0  0  0  0  0  0  0  0  0  0  0  0
   39.3950   77.1160   59.3000 H   0  0  0  0  0  0  0  0  0  0  0  0
   35.8800   74.8360   55.1120 H   0  0  0  0  0  0  0  0  0  0  0  0
   36.4830   75.1130   55.9710 C   0  0  0  0  0  0  0  0  0  0  0  0
   36.6470   76.3240   56.3330 O   0  0  0  0  0  0  0  0  0  0  0  0
   37.1230   74.0970   56.7320 N   0  0  0  0  0  0  0  0  0  0  0  0
   37.0190   73.0940   56.4750 H   0  0  0  0  0  0  0  0  0  0  0  0
  1  6  2  0  0  0  0
  1  2  1  0  0  0  0
  2  3  2  0  0  0  0
  3  4  1  0  0  0  0
  3  8  1  0  0  0  0
  5  9  1  0  0  0  0
  5  4  2  0  0  0  0
  6  5  1  0  0  0  0
  7  2  1  0  0  0  0
 10 11  1  0  0  0  0
 11 12  2  0  0  0  0
 11 13  1  0  0  0  0
 13  1  1  0  0  0  0
 14 13  1  0  0  0  0
M  END
>  <minimizedAffinity>
-3.31236696

$$$$

 OpenBabel03212520453D

 14 14  0  0  0  0  0  0  0  0999 V2000
   40.4540   75.6310   60.0820 C   0  0  0  0  0  0  0  0  0  0  0  0
   39.2000   75.6720   60.7110 C   0  0  0  0  0  0  0  0  0  0  0  0
   38.6490   74.4850   61.1890 C   0  0  0  0  0  0  0  0  0  0  0  0
   39.3640   73.3450   61.0150 N   0  0  0  0  0  0  0  0  0  0  0  0
   40.5680   73.3220   60.4070 C   0  0  0  0  0  0  0  0  0  0  0  0
   41.1050   74.4730   59.9420 N   0  0  0  0  0  0  0  0  0  0  0  0
   38.6490   76.5990   60.8370 H   0  0  0  0  0  0  0  0  0  0  0  0
   37.6770   74.4360   61.6910 H   0  0  0  0  0  0  0  0  0  0  0  0
   41.0220   72.3370   60.3410 H   0  0  0  0  0  0  0  0  0  0  0  0
   42.8380   77.7840   58.8820 H   0  0  0  0  0  0  0  0  0  0  0  0
   42.3950   76.8660   59.2550 C   0  0  0  0  0  0  0  0  0  0  0  0
   43.0640   75.7920   59.4050 O   0  0  0  0  0  0  0  0  0  0  0  0
   41.0140   76.8440   59.5940 N   0  0  0  0  0  0  0  0  0  0  0  0
   40.4270   77.6960   59.4880 H   0  0  0  0  0  0  0  0  0  0  0  0
  1  2  1  0  0  0  0
  2  7  1  0  0  0  0
  2  3  2  0  0  0  0
  3  8  1  0  0  0  0
  4  3  1  0  0  0  0
  5  4  2  0  0  0  0
  6  1  2  0  0  0  0
  6  5  1  0  0  0  0
  9  5  1  0  0  0  0
 10 11  1  0  0  0  0
 11 12  2  0  0  0  0
 11 13  1  0  0  0  0
 13  1  1  0  0  0  0
 14 13  1  0  0  0  0
M  END
>  <minimizedAffinity>
-3.29006577

$$$$

 OpenBabel03212520453D

 14 14  0  0  0  0  0  0  0  0999 V2000
   41.0410   73.5710   60.9230 C   0  0  0  0  0  0  0  0  0  0  0  0
   41.1020   74.6570   60.0370 C   0  0  0  0  0  0  0  0  0  0  0  0
   39.9220   75.3210   59.7060 C   0  0  0  0  0  0  0  0  0  0  0  0
   38.7710   74.8730   60.2660 N   0  0  0  0  0  0  0  0  0  0  0  0
   38.7290   73.8250   61.1150 C   0  0  0  0  0  0  0  0  0  0  0  0
   39.8720   73.1800   61.4370 N   0  0  0  0  0  0  0  0  0  0  0  0
   42.0380   74.9960   59.6030 H   0  0  0  0  0  0  0  0  0  0  0  0
   39.8880   76.1770   59.0230 H   0  0  0  0  0  0  0  0  0  0  0  0
   37.7360   73.5810   61.4830 H   0  0  0  0  0  0  0  0  0  0  0  0
   43.1570   71.4970   62.6500 H   0  0  0  0  0  0  0  0  0  0  0  0
   42.2450   72.0200   62.3810 C   0  0  0  0  0  0  0  0  0  0  0  0
   41.1570   71.8860   63.0310 O   0  0  0  0  0  0  0  0  0  0  0  0
   42.2470   72.8940   61.2580 N   0  0  0  0  0  0  0  0  0  0  0  0
   43.1100   73.0360   60.6960 H   0  0  0  0  0  0  0  0  0  0  0  0
  1 13  1  0  0  0  0
  1  6  1  0  0  0  0
  2  1  2  0  0  0  0
  3  2  1  0  0  0  0
  3  4  2  0  0  0  0
  4  5  1  0  0  0  0
  5  6  2  0  0  0  0
  5  9  1  0  0  0  0
  7  2  1  0  0  0  0
  8  3  1  0  0  0  0
 11 10  1  0  0  0  0
 11 12  2  0  0  0  0
 13 11  1  0  0  0  0
 14 13  1  0  0  0  0
M  END
>  <minimizedAffinity>
-3.28906059

$$$$

 OpenBabel03212520453D

 14 14  0  0  0  0  0  0  0  0999 V2000
   41.4300   72.0330   62.1940 C   0  0  0  0  0  0  0  0  0  0  0  0
   40.4710   72.8960   61.6440 C   0  0  0  0  0  0  0  0  0  0  0  0
   40.8750   73.8280   60.6900 C   0  0  0  0  0  0  0  0  0  0  0  0
   42.1860   73.8470   60.3450 N   0  0  0  0  0  0  0  0  0  0  0  0
   43.0970   73.0100   60.8850 C   0  0  0  0  0  0  0  0  0  0  0  0
   42.7070   72.1050   61.8110 N   0  0  0  0  0  0  0  0  0  0  0  0
   39.4260   72.8600   61.9380 H   0  0  0  0  0  0  0  0  0  0  0  0
   40.1850   74.5350   60.2150 H   0  0  0  0  0  0  0  0  0  0  0  0
   44.1090   73.1420   60.5110 H   0  0  0  0  0  0  0  0  0  0  0  0
   41.5920   69.2760   64.2270 H   0  0  0  0  0  0  0  0  0  0  0  0
   41.8930   70.0090   63.4870 C   0  0  0  0  0  0  0  0  0  0  0  0
   43.0130   69.9530   62.8800 O   0  0  0  0  0  0  0  0  0  0  0  0
   41.0160   71.0820   63.1680 N   0  0  0  0  0  0  0  0  0  0  0  0
   40.0910   71.1700   63.6380 H   0  0  0  0  0  0  0  0  0  0  0  0
  1 13  1  0  0  0  0
  2  7  1  0  0  0  0
  2  1  2  0  0  0  0
  3  2  1  0  0  0  0
  4  3  2  0  0  0  0
  4  5  1  0  0  0  0
  5  6  2  0  0  0  0
  6  1  1  0  0  0  0
  8  3  1  0  0  0  0
  9  5  1  0  0  0  0
 11 10  1  0  0  0  0
 12 11  2  0  0  0  0
 13 11  1  0  0  0  0
 13 14  1  0  0  0  0
M  END
>  <minimizedAffinity>
-3.28162813

$$$$

 OpenBabel03212520453D

 14 14  0  0  0  0  0  0  0  0999 V2000
   38.4650   75.5320   58.9540 C   0  0  0  0  0  0  0  0  0  0  0  0
   38.0200   75.6670   57.6300 C   0  0  0  0  0  0  0  0  0  0  0  0
   38.4590   76.7560   56.8810 C   0  0  0  0  0  0  0  0  0  0  0  0
   39.3000   77.6340   57.4820 N   0  0  0  0  0  0  0  0  0  0  0  0
   39.7180   77.4910   58.7570 C   0  0  0  0  0  0  0  0  0  0  0  0
   39.2930   76.4340   59.4860 N   0  0  0  0  0  0  0  0  0  0  0  0
   37.3460   74.9480   57.1720 H   0  0  0  0  0  0  0  0  0  0  0  0
   38.1570   76.9300   55.8420 H   0  0  0  0  0  0  0  0  0  0  0  0
   40.3900   78.2720   59.1020 H   0  0  0  0  0  0  0  0  0  0  0  0
   38.3680   73.2540   61.5160 H   0  0  0  0  0  0  0  0  0  0  0  0
   38.6990   74.1010   60.9220 C   0  0  0  0  0  0  0  0  0  0  0  0
   39.6850   74.8340   61.2610 O   0  0  0  0  0  0  0  0  0  0  0  0
   38.0150   74.4190   59.7160 N   0  0  0  0  0  0  0  0  0  0  0  0
   37.2040   73.8490   59.3990 H   0  0  0  0  0  0  0  0  0  0  0  0
  1  6  1  0  0  0  0
  1 13  1  0  0  0  0
  2  1  2  0  0  0  0
  3  4  2  0  0  0  0
  3  2  1  0  0  0  0
  4  5  1  0  0  0  0
  5  9  1  0  0  0  0
  5  6  2  0  0  0  0
  7  2  1  0  0  0  0
  8  3  1  0  0  0  0
 11 12  2  0  0  0  0
 11 10  1  0  0  0  0
 13 11  1  0  0  0  0
 14 13  1  0  0  0  0
M  END
>  <minimizedAffinity>
-3.27482772

$$$$
