
 OpenBabel03212521043D

 32 34  0  0  0  0  0  0  0  0999 V2000
   41.8280   84.2280   61.5850 C   0  0  0  0  0  0  0  0  0  0  0  0
   41.4570   83.9710   62.8970 C   0  0  0  0  0  0  0  0  0  0  0  0
   40.1850   83.5580   63.2200 C   0  0  0  0  0  0  0  0  0  0  0  0
   39.2420   83.3930   62.2000 C   0  0  0  0  0  0  0  0  0  0  0  0
   39.6190   83.6520   60.8870 C   0  0  0  0  0  0  0  0  0  0  0  0
   40.8950   84.0650   60.5680 C   0  0  0  0  0  0  0  0  0  0  0  0
   42.1180   84.0730   63.7350 H   0  0  0  0  0  0  0  0  0  0  0  0
   39.8790   83.3530   64.2390 H   0  0  0  0  0  0  0  0  0  0  0  0
   38.2470   83.0750   62.4090 H   0  0  0  0  0  0  0  0  0  0  0  0
   38.8580   83.5120   60.1240 H   0  0  0  0  0  0  0  0  0  0  0  0
   41.2340   84.3210   59.1880 C   0  0  0  0  0  0  0  0  0  0  0  0
   40.7990   85.5930   58.7850 C   0  0  0  0  0  0  0  0  0  0  0  0
   41.0220   86.0470   57.4880 C   0  0  0  0  0  0  0  0  0  0  0  0
   41.6670   85.2170   56.6570 N   0  0  0  0  0  0  0  0  0  0  0  0
   42.0850   83.9880   57.0530 C   0  0  0  0  0  0  0  0  0  0  0  0
   41.8730   83.5410   58.3100 N   0  0  0  0  0  0  0  0  0  0  0  0
   40.2670   86.3200   59.4100 H   0  0  0  0  0  0  0  0  0  0  0  0
   40.7000   87.0200   57.1420 H   0  0  0  0  0  0  0  0  0  0  0  0
   43.8050   82.6670   54.3780 H   0  0  0  0  0  0  0  0  0  0  0  0
   43.3460   83.5170   54.8810 C   0  0  0  0  0  0  0  0  0  0  0  0
   43.1890   84.7590   54.6490 O   0  0  0  0  0  0  0  0  0  0  0  0
   42.7670   83.1450   56.1300 N   0  0  0  0  0  0  0  0  0  0  0  0
   42.7800   82.1560   56.5230 H   0  0  0  0  0  0  0  0  0  0  0  0
   45.3760   84.1420   60.7260 C   0  0  0  0  0  0  0  0  0  0  0  0
   45.7510   85.4770   60.7630 C   0  0  0  0  0  0  0  0  0  0  0  0
   44.7580   86.4340   61.0910 C   0  0  0  0  0  0  0  0  0  0  0  0
   43.5160   85.9810   61.3460 N   0  0  0  0  0  0  0  0  0  0  0  0
   43.1830   84.6610   61.3020 C   0  0  0  0  0  0  0  0  0  0  0  0
   44.1140   83.7670   60.9940 N   0  0  0  0  0  0  0  0  0  0  0  0
   46.1490   83.4360   60.4730 H   0  0  0  0  0  0  0  0  0  0  0  0
   46.7190   85.8890   60.5700 H   0  0  0  0  0  0  0  0  0  0  0  0
   44.8800   87.5050   61.1640 H   0  0  0  0  0  0  0  0  0  0  0  0
  1  2  1  0  0  0  0
  2  3  2  0  0  0  0
  2  7  1  0  0  0  0
  3  8  1  0  0  0  0
  4  9  1  0  0  0  0
  4  3  1  0  0  0  0
  5  4  2  0  0  0  0
  6  5  1  0  0  0  0
  6  1  2  0  0  0  0
 10  5  1  0  0  0  0
 11  6  1  0  0  0  0
 12 11  1  0  0  0  0
 12 17  1  0  0  0  0
 13 12  2  0  0  0  0
 14 15  2  0  0  0  0
 14 13  1  0  0  0  0
 15 16  1  0  0  0  0
 16 11  2  0  0  0  0
 18 13  1  0  0  0  0
 19 20  1  0  0  0  0
 20 22  1  0  0  0  0
 21 20  2  0  0  0  0
 22 23  1  0  0  0  0
 22 15  1  0  0  0  0
 24 25  2  0  0  0  0
 24 29  1  0  0  0  0
 25 26  1  0  0  0  0
 26 32  1  0  0  0  0
 26 27  2  0  0  0  0
 28 27  1  0  0  0  0
 28  1  1  0  0  0  0
 29 28  2  0  0  0  0
 30 24  1  0  0  0  0
 31 25  1  0  0  0  0
M  END
>  <minimizedAffinity>
-5.7041049

>  <minimizedRMSD>
0.0748242363

$$$$
