
 OpenBabel03212521053D

 32 34  0  0  0  0  0  0  0  0999 V2000
   41.8090   84.2310   61.5850 C   0  0  0  0  0  0  0  0  0  0  0  0
   41.4260   83.9610   62.8910 C   0  0  0  0  0  0  0  0  0  0  0  0
   40.1460   83.5630   63.2010 C   0  0  0  0  0  0  0  0  0  0  0  0
   39.2070   83.4260   62.1740 C   0  0  0  0  0  0  0  0  0  0  0  0
   39.5950   83.6970   60.8670 C   0  0  0  0  0  0  0  0  0  0  0  0
   40.8800   84.0960   60.5610 C   0  0  0  0  0  0  0  0  0  0  0  0
   42.0830   84.0420   63.7350 H   0  0  0  0  0  0  0  0  0  0  0  0
   39.8320   83.3480   64.2150 H   0  0  0  0  0  0  0  0  0  0  0  0
   38.2070   83.1190   62.3720 H   0  0  0  0  0  0  0  0  0  0  0  0
   38.8380   83.5780   60.0980 H   0  0  0  0  0  0  0  0  0  0  0  0
   41.2310   84.3660   59.1860 C   0  0  0  0  0  0  0  0  0  0  0  0
   40.7420   85.6150   58.7720 C   0  0  0  0  0  0  0  0  0  0  0  0
   40.9660   86.0770   57.4790 C   0  0  0  0  0  0  0  0  0  0  0  0
   41.6640   85.2780   56.6610 N   0  0  0  0  0  0  0  0  0  0  0  0
   42.1340   84.0710   57.0680 C   0  0  0  0  0  0  0  0  0  0  0  0
   41.9210   83.6160   58.3220 N   0  0  0  0  0  0  0  0  0  0  0  0
   40.1650   86.3160   59.3860 H   0  0  0  0  0  0  0  0  0  0  0  0
   40.6040   87.0330   57.1250 H   0  0  0  0  0  0  0  0  0  0  0  0
   44.2960   81.8410   55.5790 H   0  0  0  0  0  0  0  0  0  0  0  0
   43.9030   82.3260   56.4730 C   0  0  0  0  0  0  0  0  0  0  0  0
   44.1220   82.2810   57.7250 O   0  0  0  0  0  0  0  0  0  0  0  0
   42.8720   83.2600   56.1590 N   0  0  0  0  0  0  0  0  0  0  0  0
   42.5270   83.4580   55.1730 H   0  0  0  0  0  0  0  0  0  0  0  0
   45.3660   84.1020   60.7680 C   0  0  0  0  0  0  0  0  0  0  0  0
   45.7540   85.4340   60.8030 C   0  0  0  0  0  0  0  0  0  0  0  0
   44.7670   86.4030   61.1150 C   0  0  0  0  0  0  0  0  0  0  0  0
   43.5180   85.9650   61.3570 N   0  0  0  0  0  0  0  0  0  0  0  0
   43.1710   84.6480   61.3160 C   0  0  0  0  0  0  0  0  0  0  0  0
   44.0960   83.7420   61.0230 N   0  0  0  0  0  0  0  0  0  0  0  0
   46.1340   83.3870   60.5290 H   0  0  0  0  0  0  0  0  0  0  0  0
   46.7290   85.8340   60.6190 H   0  0  0  0  0  0  0  0  0  0  0  0
   44.9000   87.4730   61.1830 H   0  0  0  0  0  0  0  0  0  0  0  0
  1  2  1  0  0  0  0
  2  3  2  0  0  0  0
  2  7  1  0  0  0  0
  3  8  1  0  0  0  0
  4  9  1  0  0  0  0
  4  3  1  0  0  0  0
  5  4  2  0  0  0  0
  6  5  1  0  0  0  0
  6  1  2  0  0  0  0
 10  5  1  0  0  0  0
 11  6  1  0  0  0  0
 12 11  1  0  0  0  0
 12 17  1  0  0  0  0
 13 12  2  0  0  0  0
 14 15  2  0  0  0  0
 14 13  1  0  0  0  0
 15 16  1  0  0  0  0
 16 11  2  0  0  0  0
 18 13  1  0  0  0  0
 19 20  1  0  0  0  0
 20 21  2  0  0  0  0
 22 20  1  0  0  0  0
 22 15  1  0  0  0  0
 23 22  1  0  0  0  0
 24 25  2  0  0  0  0
 24 29  1  0  0  0  0
 25 26  1  0  0  0  0
 26 32  1  0  0  0  0
 26 27  2  0  0  0  0
 28 27  1  0  0  0  0
 28  1  1  0  0  0  0
 29 28  2  0  0  0  0
 30 24  1  0  0  0  0
 31 25  1  0  0  0  0
M  END
>  <minimizedAffinity>
-5.4096036

>  <minimizedRMSD>
0.0436614864

$$$$
