
 OpenBabel03212521053D

 32 34  0  0  0  0  0  0  0  0999 V2000
   41.8220   84.2290   61.5840 C   0  0  0  0  0  0  0  0  0  0  0  0
   41.4480   83.9700   62.8940 C   0  0  0  0  0  0  0  0  0  0  0  0
   40.1730   83.5600   63.2150 C   0  0  0  0  0  0  0  0  0  0  0  0
   39.2320   83.3990   62.1930 C   0  0  0  0  0  0  0  0  0  0  0  0
   39.6120   83.6590   60.8810 C   0  0  0  0  0  0  0  0  0  0  0  0
   40.8900   84.0700   60.5650 C   0  0  0  0  0  0  0  0  0  0  0  0
   42.1070   84.0700   63.7340 H   0  0  0  0  0  0  0  0  0  0  0  0
   39.8660   83.3550   64.2320 H   0  0  0  0  0  0  0  0  0  0  0  0
   38.2370   83.0830   62.3990 H   0  0  0  0  0  0  0  0  0  0  0  0
   38.8530   83.5220   60.1160 H   0  0  0  0  0  0  0  0  0  0  0  0
   41.2330   84.3270   59.1860 C   0  0  0  0  0  0  0  0  0  0  0  0
   40.7990   85.5990   58.7820 C   0  0  0  0  0  0  0  0  0  0  0  0
   41.0240   86.0540   57.4870 C   0  0  0  0  0  0  0  0  0  0  0  0
   41.6710   85.2240   56.6560 N   0  0  0  0  0  0  0  0  0  0  0  0
   42.0890   83.9950   57.0530 C   0  0  0  0  0  0  0  0  0  0  0  0
   41.8730   83.5470   58.3090 N   0  0  0  0  0  0  0  0  0  0  0  0
   40.2650   86.3250   59.4070 H   0  0  0  0  0  0  0  0  0  0  0  0
   40.7040   87.0270   57.1410 H   0  0  0  0  0  0  0  0  0  0  0  0
   43.3830   81.3410   55.2820 H   0  0  0  0  0  0  0  0  0  0  0  0
   42.7720   81.7260   56.0970 C   0  0  0  0  0  0  0  0  0  0  0  0
   42.0560   81.2400   57.0310 O   0  0  0  0  0  0  0  0  0  0  0  0
   42.7720   83.1520   56.1300 N   0  0  0  0  0  0  0  0  0  0  0  0
   43.3030   83.7660   55.4430 H   0  0  0  0  0  0  0  0  0  0  0  0
   45.3720   84.1350   60.7350 C   0  0  0  0  0  0  0  0  0  0  0  0
   45.7490   85.4700   60.7710 C   0  0  0  0  0  0  0  0  0  0  0  0
   44.7560   86.4290   61.0950 C   0  0  0  0  0  0  0  0  0  0  0  0
   43.5130   85.9790   61.3470 N   0  0  0  0  0  0  0  0  0  0  0  0
   43.1780   84.6590   61.3040 C   0  0  0  0  0  0  0  0  0  0  0  0
   44.1080   83.7620   61.0000 N   0  0  0  0  0  0  0  0  0  0  0  0
   46.1450   83.4270   60.4860 H   0  0  0  0  0  0  0  0  0  0  0  0
   46.7180   85.8790   60.5800 H   0  0  0  0  0  0  0  0  0  0  0  0
   44.8810   87.4990   61.1670 H   0  0  0  0  0  0  0  0  0  0  0  0
  1  2  1  0  0  0  0
  2  3  2  0  0  0  0
  2  7  1  0  0  0  0
  3  8  1  0  0  0  0
  4  9  1  0  0  0  0
  4  3  1  0  0  0  0
  5  4  2  0  0  0  0
  6  5  1  0  0  0  0
  6  1  2  0  0  0  0
 10  5  1  0  0  0  0
 11  6  1  0  0  0  0
 12 11  1  0  0  0  0
 12 17  1  0  0  0  0
 13 12  2  0  0  0  0
 14 15  2  0  0  0  0
 14 13  1  0  0  0  0
 15 16  1  0  0  0  0
 16 11  2  0  0  0  0
 18 13  1  0  0  0  0
 19 20  1  0  0  0  0
 20 22  1  0  0  0  0
 20 21  2  0  0  0  0
 22 15  1  0  0  0  0
 23 22  1  0  0  0  0
 24 25  2  0  0  0  0
 24 29  1  0  0  0  0
 25 26  1  0  0  0  0
 26 32  1  0  0  0  0
 26 27  2  0  0  0  0
 28 27  1  0  0  0  0
 28  1  1  0  0  0  0
 29 28  2  0  0  0  0
 30 24  1  0  0  0  0
 31 25  1  0  0  0  0
M  END
>  <minimizedAffinity>
-5.4491024

>  <minimizedRMSD>
0.0828932822

$$$$
