
 OpenBabel03212519593D

 14 14  0  0  0  0  0  0  0  0999 V2000
   38.3280   74.2730   59.7840 C   0  0  0  0  0  0  0  0  0  0  0  0
   38.9790   74.7980   60.9250 C   0  0  0  0  0  0  0  0  0  0  0  0
   39.5420   76.0750   60.8330 C   0  0  0  0  0  0  0  0  0  0  0  0
   39.4380   76.7470   59.6590 N   0  0  0  0  0  0  0  0  0  0  0  0
   38.8050   76.2090   58.5820 C   0  0  0  0  0  0  0  0  0  0  0  0
   38.2570   74.9890   58.6450 N   0  0  0  0  0  0  0  0  0  0  0  0
   37.8770   73.2880   59.8080 H   0  0  0  0  0  0  0  0  0  0  0  0
   39.0200   74.2020   61.8210 H   0  0  0  0  0  0  0  0  0  0  0  0
   40.0410   76.4970   61.6820 H   0  0  0  0  0  0  0  0  0  0  0  0
   37.9360   77.5330   55.4740 H   0  0  0  0  0  0  0  0  0  0  0  0
   37.7080   76.8640   56.3140 C   0  0  0  0  0  0  0  0  0  0  0  0
   36.7930   76.0570   56.6240 O   0  0  0  0  0  0  0  0  0  0  0  0
   38.6780   76.8900   57.3370 N   0  0  0  0  0  0  0  0  0  0  0  0
   39.5490   77.4880   57.3150 H   0  0  0  0  0  0  0  0  0  0  0  0
  1  7  1  0  0  0  0
  1  2  1  0  0  0  0
  2  8  1  0  0  0  0
  3  2  2  0  0  0  0
  3  9  1  0  0  0  0
  4  3  1  0  0  0  0
  5  6  1  0  0  0  0
  5  4  2  0  0  0  0
  6  1  2  0  0  0  0
 10 11  1  0  0  0  0
 11 12  2  0  0  0  0
 11 13  1  0  0  0  0
 13  5  1  0  0  0  0
 14 13  1  0  0  0  0
M  END
>  <minimizedAffinity>
-3.6389215

$$$$

 OpenBabel03212519593D

 14 14  0  0  0  0  0  0  0  0999 V2000
   42.0790   75.3150   59.3420 C   0  0  0  0  0  0  0  0  0  0  0  0
   42.4760   76.6730   59.3300 C   0  0  0  0  0  0  0  0  0  0  0  0
   41.5480   77.6350   59.7380 C   0  0  0  0  0  0  0  0  0  0  0  0
   40.3130   77.2240   60.1230 N   0  0  0  0  0  0  0  0  0  0  0  0
   39.9650   75.9090   60.1210 C   0  0  0  0  0  0  0  0  0  0  0  0
   40.8370   74.9690   59.7360 N   0  0  0  0  0  0  0  0  0  0  0  0
   42.7630   74.5340   59.0360 H   0  0  0  0  0  0  0  0  0  0  0  0
   43.4750   76.9190   59.0110 H   0  0  0  0  0  0  0  0  0  0  0  0
   41.8230   78.6710   59.7380 H   0  0  0  0  0  0  0  0  0  0  0  0
   37.1370   74.2330   61.2850 H   0  0  0  0  0  0  0  0  0  0  0  0
   38.2210   74.2510   61.1110 C   0  0  0  0  0  0  0  0  0  0  0  0
   39.1950   73.4770   61.3000 O   0  0  0  0  0  0  0  0  0  0  0  0
   38.6790   75.4470   60.5200 N   0  0  0  0  0  0  0  0  0  0  0  0
   38.0540   76.2580   60.2610 H   0  0  0  0  0  0  0  0  0  0  0  0
  1  6  1  0  0  0  0
  2  1  2  0  0  0  0
  2  3  1  0  0  0  0
  3  9  1  0  0  0  0
  3  4  2  0  0  0  0
  5  4  1  0  0  0  0
  5 13  1  0  0  0  0
  6  5  2  0  0  0  0
  7  1  1  0  0  0  0
  8  2  1  0  0  0  0
 11 10  1  0  0  0  0
 11 12  2  0  0  0  0
 13 11  1  0  0  0  0
 14 13  1  0  0  0  0
M  END
>  <minimizedAffinity>
-3.57989883

$$$$

 OpenBabel03212519593D

 14 14  0  0  0  0  0  0  0  0999 V2000
   39.3450   73.4620   59.0950 C   0  0  0  0  0  0  0  0  0  0  0  0
   39.8220   72.1470   58.8890 C   0  0  0  0  0  0  0  0  0  0  0  0
   39.2310   71.3810   57.8800 C   0  0  0  0  0  0  0  0  0  0  0  0
   38.2300   71.9330   57.1480 N   0  0  0  0  0  0  0  0  0  0  0  0
   37.7960   73.2020   57.3750 C   0  0  0  0  0  0  0  0  0  0  0  0
   38.3470   73.9550   58.3350 N   0  0  0  0  0  0  0  0  0  0  0  0
   39.7720   74.0930   59.8650 H   0  0  0  0  0  0  0  0  0  0  0  0
   40.6210   71.7800   59.5120 H   0  0  0  0  0  0  0  0  0  0  0  0
   39.5740   70.3810   57.7030 H   0  0  0  0  0  0  0  0  0  0  0  0
   35.5540   75.2520   55.6610 H   0  0  0  0  0  0  0  0  0  0  0  0
   36.4690   75.1420   56.2580 C   0  0  0  0  0  0  0  0  0  0  0  0
   37.3620   75.9010   56.7180 O   0  0  0  0  0  0  0  0  0  0  0  0
   36.7500   73.8090   56.6230 N   0  0  0  0  0  0  0  0  0  0  0  0
   36.1490   72.9820   56.3590 H   0  0  0  0  0  0  0  0  0  0  0  0
  1  7  1  0  0  0  0
  2  1  1  0  0  0  0
  2  8  1  0  0  0  0
  3  2  2  0  0  0  0
  4  5  2  0  0  0  0
  4  3  1  0  0  0  0
  5  6  1  0  0  0  0
  6  1  2  0  0  0  0
  9  3  1  0  0  0  0
 10 11  1  0  0  0  0
 11 13  1  0  0  0  0
 11 12  2  0  0  0  0
 13  5  1  0  0  0  0
 14 13  1  0  0  0  0
M  END
>  <minimizedAffinity>
-3.38999844

$$$$

 OpenBabel03212519593D

 14 14  0  0  0  0  0  0  0  0999 V2000
   40.7390   75.0350   60.1520 C   0  0  0  0  0  0  0  0  0  0  0  0
   39.3830   75.4240   60.0460 C   0  0  0  0  0  0  0  0  0  0  0  0
   38.4180   74.6260   60.6690 C   0  0  0  0  0  0  0  0  0  0  0  0
   38.8250   73.5200   61.3420 N   0  0  0  0  0  0  0  0  0  0  0  0
   40.1390   73.1770   61.4220 C   0  0  0  0  0  0  0  0  0  0  0  0
   41.0820   73.9240   60.8350 N   0  0  0  0  0  0  0  0  0  0  0  0
   41.5220   75.6210   59.6870 H   0  0  0  0  0  0  0  0  0  0  0  0
   39.1400   76.3160   59.4940 H   0  0  0  0  0  0  0  0  0  0  0  0
   37.3840   74.8980   60.6040 H   0  0  0  0  0  0  0  0  0  0  0  0
   41.8080   70.7080   63.2360 H   0  0  0  0  0  0  0  0  0  0  0  0
   41.7930   71.7180   62.8030 C   0  0  0  0  0  0  0  0  0  0  0  0
   42.5720   72.7050   62.7480 O   0  0  0  0  0  0  0  0  0  0  0  0
   40.5970   72.0240   62.1210 N   0  0  0  0  0  0  0  0  0  0  0  0
   39.7830   71.3580   62.0230 H   0  0  0  0  0  0  0  0  0  0  0  0
  1  6  1  0  0  0  0
  2  1  2  0  0  0  0
  2  3  1  0  0  0  0
  3  4  2  0  0  0  0
  4  5  1  0  0  0  0
  5 13  1  0  0  0  0
  6  5  2  0  0  0  0
  7  1  1  0  0  0  0
  8  2  1  0  0  0  0
  9  3  1  0  0  0  0
 11 10  1  0  0  0  0
 12 11  2  0  0  0  0
 13 11  1  0  0  0  0
 14 13  1  0  0  0  0
M  END
>  <minimizedAffinity>
-3.34220243

$$$$

 OpenBabel03212519593D

 14 14  0  0  0  0  0  0  0  0999 V2000
   38.8540   77.3690   56.5750 C   0  0  0  0  0  0  0  0  0  0  0  0
   37.8290   77.6350   55.6370 C   0  0  0  0  0  0  0  0  0  0  0  0
   36.7210   76.7820   55.6120 C   0  0  0  0  0  0  0  0  0  0  0  0
   36.6820   75.7430   56.4840 N   0  0  0  0  0  0  0  0  0  0  0  0
   37.6880   75.5180   57.3720 C   0  0  0  0  0  0  0  0  0  0  0  0
   38.7580   76.3210   57.4160 N   0  0  0  0  0  0  0  0  0  0  0  0
   39.7300   78.0030   56.6320 H   0  0  0  0  0  0  0  0  0  0  0  0
   37.9330   78.4810   54.9780 H   0  0  0  0  0  0  0  0  0  0  0  0
   35.9300   76.9610   54.9120 H   0  0  0  0  0  0  0  0  0  0  0  0
   38.0110   73.2760   60.0250 H   0  0  0  0  0  0  0  0  0  0  0  0
   38.2180   74.2620   59.5890 C   0  0  0  0  0  0  0  0  0  0  0  0
   38.8230   75.3110   59.9350 O   0  0  0  0  0  0  0  0  0  0  0  0
   37.6750   74.4370   58.2990 N   0  0  0  0  0  0  0  0  0  0  0  0
   37.1200   73.7000   57.7840 H   0  0  0  0  0  0  0  0  0  0  0  0
  1  7  1  0  0  0  0
  1  6  1  0  0  0  0
  2  1  2  0  0  0  0
  3  2  1  0  0  0  0
  3  4  2  0  0  0  0
  4  5  1  0  0  0  0
  5  6  2  0  0  0  0
  5 13  1  0  0  0  0
  8  2  1  0  0  0  0
  9  3  1  0  0  0  0
 11 12  2  0  0  0  0
 11 10  1  0  0  0  0
 13 11  1  0  0  0  0
 14 13  1  0  0  0  0
M  END
>  <minimizedAffinity>
-3.33198071

$$$$

 OpenBabel03212519593D

 14 14  0  0  0  0  0  0  0  0999 V2000
   37.9410   75.4110   57.6380 C   0  0  0  0  0  0  0  0  0  0  0  0
   38.3420   76.7150   57.2660 C   0  0  0  0  0  0  0  0  0  0  0  0
   39.1310   77.4430   58.1610 C   0  0  0  0  0  0  0  0  0  0  0  0
   39.4750   76.8670   59.3410 N   0  0  0  0  0  0  0  0  0  0  0  0
   39.0700   75.6100   59.6660 C   0  0  0  0  0  0  0  0  0  0  0  0
   38.3150   74.8920   58.8250 N   0  0  0  0  0  0  0  0  0  0  0  0
   37.3300   74.8080   56.9780 H   0  0  0  0  0  0  0  0  0  0  0  0
   38.0280   77.1020   56.3110 H   0  0  0  0  0  0  0  0  0  0  0  0
   39.4480   78.4340   57.9040 H   0  0  0  0  0  0  0  0  0  0  0  0
   39.8790   73.5040   62.3270 H   0  0  0  0  0  0  0  0  0  0  0  0
   39.6180   73.6330   61.2680 C   0  0  0  0  0  0  0  0  0  0  0  0
   39.4460   72.8900   60.2670 O   0  0  0  0  0  0  0  0  0  0  0  0
   39.4150   74.9780   60.8940 N   0  0  0  0  0  0  0  0  0  0  0  0
   39.5000   75.7970   61.5560 H   0  0  0  0  0  0  0  0  0  0  0  0
  1  6  1  0  0  0  0
  2  1  2  0  0  0  0
  2  3  1  0  0  0  0
  3  4  2  0  0  0  0
  4  5  1  0  0  0  0
  5 13  1  0  0  0  0
  6  5  2  0  0  0  0
  7  1  1  0  0  0  0
  8  2  1  0  0  0  0
  9  3  1  0  0  0  0
 11 10  1  0  0  0  0
 12 11  2  0  0  0  0
 13 11  1  0  0  0  0
 13 14  1  0  0  0  0
M  END
>  <minimizedAffinity>
-3.28749108

$$$$

 OpenBabel03212519593D

 14 14  0  0  0  0  0  0  0  0999 V2000
   38.5070   76.7670   57.6640 C   0  0  0  0  0  0  0  0  0  0  0  0
   38.7630   75.8210   58.6830 C   0  0  0  0  0  0  0  0  0  0  0  0
   38.2200   74.5400   58.5460 C   0  0  0  0  0  0  0  0  0  0  0  0
   37.4740   74.2660   57.4460 N   0  0  0  0  0  0  0  0  0  0  0  0
   37.2480   75.2020   56.4850 C   0  0  0  0  0  0  0  0  0  0  0  0
   37.7580   76.4350   56.5940 N   0  0  0  0  0  0  0  0  0  0  0  0
   38.9080   77.7710   57.7260 H   0  0  0  0  0  0  0  0  0  0  0  0
   39.3660   76.1150   59.5270 H   0  0  0  0  0  0  0  0  0  0  0  0
   38.3980   73.8040   59.3040 H   0  0  0  0  0  0  0  0  0  0  0  0
   35.7370   75.0190   53.3460 H   0  0  0  0  0  0  0  0  0  0  0  0
   36.5040   75.4510   54.0040 C   0  0  0  0  0  0  0  0  0  0  0  0
   37.4310   76.2970   53.9020 O   0  0  0  0  0  0  0  0  0  0  0  0
   36.4710   74.9450   55.3200 N   0  0  0  0  0  0  0  0  0  0  0  0
   35.7820   74.2200   55.6600 H   0  0  0  0  0  0  0  0  0  0  0  0
  1  7  1  0  0  0  0
  1  2  1  0  0  0  0
  2  8  1  0  0  0  0
  3  2  2  0  0  0  0
  3  9  1  0  0  0  0
  4  3  1  0  0  0  0
  5  6  1  0  0  0  0
  5  4  2  0  0  0  0
  6  1  2  0  0  0  0
 10 11  1  0  0  0  0
 11 13  1  0  0  0  0
 12 11  2  0  0  0  0
 13 14  1  0  0  0  0
 13  5  1  0  0  0  0
M  END
>  <minimizedAffinity>
-3.28732252

$$$$

 OpenBabel03212519593D

 14 14  0  0  0  0  0  0  0  0999 V2000
   43.0060   71.7180   61.1160 C   0  0  0  0  0  0  0  0  0  0  0  0
   42.7890   70.7270   62.1010 C   0  0  0  0  0  0  0  0  0  0  0  0
   41.6850   70.8690   62.9470 C   0  0  0  0  0  0  0  0  0  0  0  0
   40.8760   71.9460   62.7830 N   0  0  0  0  0  0  0  0  0  0  0  0
   41.1160   72.8800   61.8240 C   0  0  0  0  0  0  0  0  0  0  0  0
   42.1660   72.7660   61.0020 N   0  0  0  0  0  0  0  0  0  0  0  0
   43.8480   71.6510   60.4370 H   0  0  0  0  0  0  0  0  0  0  0  0
   43.4770   69.9010   62.1680 H   0  0  0  0  0  0  0  0  0  0  0  0
   41.4980   70.1320   63.7030 H   0  0  0  0  0  0  0  0  0  0  0  0
   39.2690   75.6220   60.7120 H   0  0  0  0  0  0  0  0  0  0  0  0
   39.9570   74.7940   60.4950 C   0  0  0  0  0  0  0  0  0  0  0  0
   40.5490   74.3310   59.4850 O   0  0  0  0  0  0  0  0  0  0  0  0
   40.2850   74.0190   61.6270 N   0  0  0  0  0  0  0  0  0  0  0  0
   39.9160   74.2040   62.6000 H   0  0  0  0  0  0  0  0  0  0  0  0
  1  2  1  0  0  0  0
  2  8  1  0  0  0  0
  2  3  2  0  0  0  0
  3  9  1  0  0  0  0
  4  3  1  0  0  0  0
  5  4  2  0  0  0  0
  6  1  2  0  0  0  0
  6  5  1  0  0  0  0
  7  1  1  0  0  0  0
 11 10  1  0  0  0  0
 11 13  1  0  0  0  0
 12 11  2  0  0  0  0
 13  5  1  0  0  0  0
 13 14  1  0  0  0  0
M  END
>  <minimizedAffinity>
-3.221802

$$$$

 OpenBabel03212519593D

 14 14  0  0  0  0  0  0  0  0999 V2000
   39.3520   77.1410   55.6940 C   0  0  0  0  0  0  0  0  0  0  0  0
   38.1540   77.0270   54.9520 C   0  0  0  0  0  0  0  0  0  0  0  0
   37.0410   76.4590   55.5790 C   0  0  0  0  0  0  0  0  0  0  0  0
   37.1630   76.0440   56.8650 N   0  0  0  0  0  0  0  0  0  0  0  0
   38.3330   76.1690   57.5480 C   0  0  0  0  0  0  0  0  0  0  0  0
   39.4110   76.7100   56.9700 N   0  0  0  0  0  0  0  0  0  0  0  0
   40.2400   77.5750   55.2510 H   0  0  0  0  0  0  0  0  0  0  0  0
   38.1360   77.3810   53.9340 H   0  0  0  0  0  0  0  0  0  0  0  0
   36.1200   76.3610   55.0400 H   0  0  0  0  0  0  0  0  0  0  0  0
   39.1640   75.6150   60.8910 H   0  0  0  0  0  0  0  0  0  0  0  0
   39.3010   76.1890   59.9640 C   0  0  0  0  0  0  0  0  0  0  0  0
   40.0020   77.1620   59.5800 O   0  0  0  0  0  0  0  0  0  0  0  0
   38.4910   75.7440   58.8980 N   0  0  0  0  0  0  0  0  0  0  0  0
   37.8120   74.9370   58.9650 H   0  0  0  0  0  0  0  0  0  0  0  0
  1  6  1  0  0  0  0
  2  3  1  0  0  0  0
  2  1  2  0  0  0  0
  3  4  2  0  0  0  0
  4  5  1  0  0  0  0
  5 13  1  0  0  0  0
  6  5  2  0  0  0  0
  7  1  1  0  0  0  0
  8  2  1  0  0  0  0
  9  3  1  0  0  0  0
 11 10  1  0  0  0  0
 12 11  2  0  0  0  0
 13 14  1  0  0  0  0
 13 11  1  0  0  0  0
M  END
>  <minimizedAffinity>
-3.21618056

$$$$
