
 OpenBabel03212521053D

 32 34  0  0  0  0  0  0  0  0999 V2000
   41.8010   84.2330   61.6110 C   0  0  0  0  0  0  0  0  0  0  0  0
   41.4070   83.9740   62.9150 C   0  0  0  0  0  0  0  0  0  0  0  0
   40.1260   83.5740   63.2180 C   0  0  0  0  0  0  0  0  0  0  0  0
   39.1970   83.4230   62.1830 C   0  0  0  0  0  0  0  0  0  0  0  0
   39.5960   83.6830   60.8770 C   0  0  0  0  0  0  0  0  0  0  0  0
   40.8820   84.0850   60.5790 C   0  0  0  0  0  0  0  0  0  0  0  0
   42.0560   84.0650   63.7640 H   0  0  0  0  0  0  0  0  0  0  0  0
   39.8030   83.3680   64.2300 H   0  0  0  0  0  0  0  0  0  0  0  0
   38.1960   83.1150   62.3750 H   0  0  0  0  0  0  0  0  0  0  0  0
   38.8460   83.5550   60.1020 H   0  0  0  0  0  0  0  0  0  0  0  0
   41.2450   84.3430   59.2050 C   0  0  0  0  0  0  0  0  0  0  0  0
   40.7580   85.5860   58.7760 C   0  0  0  0  0  0  0  0  0  0  0  0
   40.9920   86.0370   57.4800 C   0  0  0  0  0  0  0  0  0  0  0  0
   41.7000   85.2320   56.6760 N   0  0  0  0  0  0  0  0  0  0  0  0
   42.1690   84.0300   57.0980 C   0  0  0  0  0  0  0  0  0  0  0  0
   41.9450   83.5860   58.3540 N   0  0  0  0  0  0  0  0  0  0  0  0
   40.1740   86.2930   59.3780 H   0  0  0  0  0  0  0  0  0  0  0  0
   40.6330   86.9890   57.1140 H   0  0  0  0  0  0  0  0  0  0  0  0
   44.5770   82.1380   55.5220 H   0  0  0  0  0  0  0  0  0  0  0  0
   44.2560   82.7510   56.3640 C   0  0  0  0  0  0  0  0  0  0  0  0
   44.7610   83.1660   57.4570 O   0  0  0  0  0  0  0  0  0  0  0  0
   42.9160   83.2110   56.2030 N   0  0  0  0  0  0  0  0  0  0  0  0
   42.3030   82.9850   55.3640 H   0  0  0  0  0  0  0  0  0  0  0  0
   45.3730   84.1070   60.8620 C   0  0  0  0  0  0  0  0  0  0  0  0
   45.7490   85.4430   60.8540 C   0  0  0  0  0  0  0  0  0  0  0  0
   44.7490   86.4130   61.1130 C   0  0  0  0  0  0  0  0  0  0  0  0
   43.4990   85.9730   61.3490 N   0  0  0  0  0  0  0  0  0  0  0  0
   43.1650   84.6520   61.3500 C   0  0  0  0  0  0  0  0  0  0  0  0
   44.1020   83.7450   61.1070 N   0  0  0  0  0  0  0  0  0  0  0  0
   46.1520   83.3900   60.6620 H   0  0  0  0  0  0  0  0  0  0  0  0
   46.7240   85.8450   60.6730 H   0  0  0  0  0  0  0  0  0  0  0  0
   44.8710   87.4860   61.1440 H   0  0  0  0  0  0  0  0  0  0  0  0
  1  2  1  0  0  0  0
  2  3  2  0  0  0  0
  2  7  1  0  0  0  0
  3  8  1  0  0  0  0
  4  9  1  0  0  0  0
  4  3  1  0  0  0  0
  5  4  2  0  0  0  0
  6  5  1  0  0  0  0
  6  1  2  0  0  0  0
 10  5  1  0  0  0  0
 11  6  1  0  0  0  0
 12 11  1  0  0  0  0
 12 17  1  0  0  0  0
 13 12  2  0  0  0  0
 14 15  2  0  0  0  0
 14 13  1  0  0  0  0
 15 16  1  0  0  0  0
 16 11  2  0  0  0  0
 18 13  1  0  0  0  0
 19 20  1  0  0  0  0
 20 21  2  0  0  0  0
 22 20  1  0  0  0  0
 22 15  1  0  0  0  0
 23 22  1  0  0  0  0
 24 29  1  0  0  0  0
 25 24  2  0  0  0  0
 25 26  1  0  0  0  0
 26 32  1  0  0  0  0
 26 27  2  0  0  0  0
 27 28  1  0  0  0  0
 28  1  1  0  0  0  0
 29 28  2  0  0  0  0
 30 24  1  0  0  0  0
 31 25  1  0  0  0  0
M  END
>  <minimizedAffinity>
-5.42462873

>  <minimizedRMSD>
0.0265067481

$$$$
