
 OpenBabel03212520263D

 24 25  0  0  0  0  0  0  0  0999 V2000
   42.4720   84.8150   61.1190 C   0  0  0  0  0  0  0  0  0  0  0  0
   43.4940   85.1550   61.9980 C   0  0  0  0  0  0  0  0  0  0  0  0
   44.1780   86.1220   61.2490 C   0  0  0  0  0  0  0  0  0  0  0  0
   43.5850   86.3140   60.0360 N   0  0  0  0  0  0  0  0  0  0  0  0
   42.5360   85.4970   59.9780 N   0  0  0  0  0  0  0  0  0  0  0  0
   43.7400   84.8120   62.9780 H   0  0  0  0  0  0  0  0  0  0  0  0
   45.0750   86.6550   61.5950 H   0  0  0  0  0  0  0  0  0  0  0  0
   40.7770   81.5610   61.8110 C   0  0  0  0  0  0  0  0  0  0  0  0
   41.7720   82.4810   61.5280 C   0  0  0  0  0  0  0  0  0  0  0  0
   41.4470   83.8240   61.4140 C   0  0  0  0  0  0  0  0  0  0  0  0
   40.1510   84.1930   61.5850 N   0  0  0  0  0  0  0  0  0  0  0  0
   39.2030   83.2540   61.8610 C   0  0  0  0  0  0  0  0  0  0  0  0
   39.5150   81.9630   61.9710 N   0  0  0  0  0  0  0  0  0  0  0  0
   41.0730   80.5180   61.8930 H   0  0  0  0  0  0  0  0  0  0  0  0
   42.8150   82.1510   61.3960 H   0  0  0  0  0  0  0  0  0  0  0  0
   38.1590   83.5100   62.0040 H   0  0  0  0  0  0  0  0  0  0  0  0
   44.0260   87.2310   59.0170 C   0  0  0  0  0  0  0  0  0  0  0  0
   43.5120   87.0040   58.0570 H   0  0  0  0  0  0  0  0  0  0  0  0
   43.7900   88.2850   59.2500 H   0  0  0  0  0  0  0  0  0  0  0  0
   47.0500   87.3060   57.3750 H   0  0  0  0  0  0  0  0  0  0  0  0
   45.9890   87.4660   57.5560 C   0  0  0  0  0  0  0  0  0  0  0  0
   45.3870   88.0380   56.6330 O   0  0  0  0  0  0  0  0  0  0  0  0
   45.4370   87.0170   58.7810 N   0  0  0  0  0  0  0  0  0  0  0  0
   46.0440   86.5430   59.4900 H   0  0  0  0  0  0  0  0  0  0  0  0
  1 10  1  0  0  0  0
  1  2  1  0  0  0  0
  2  6  1  0  0  0  0
  3  7  1  0  0  0  0
  3  2  2  0  0  0  0
  4  3  1  0  0  0  0
  5  4  1  0  0  0  0
  5  1  2  0  0  0  0
  8 14  1  0  0  0  0
  8 13  1  0  0  0  0
  9  8  2  0  0  0  0
 10  9  1  0  0  0  0
 10 11  2  0  0  0  0
 11 12  1  0  0  0  0
 12 13  2  0  0  0  0
 12 16  1  0  0  0  0
 15  9  1  0  0  0  0
 17 19  1  0  0  0  0
 17  4  1  0  0  0  0
 18 17  1  0  0  0  0
 20 21  1  0  0  0  0
 21 23  1  0  0  0  0
 22 21  2  0  0  0  0
 23 17  1  0  0  0  0
 23 24  1  0  0  0  0
M  END
>  <minimizedAffinity>
-4.15066051

>  <minimizedRMSD>
0.597950697

$$$$
