
 OpenBabel03212520423D

 14 14  0  0  0  0  0  0  0  0999 V2000
   40.0190   81.9800   60.6160 C   0  0  0  0  0  0  0  0  0  0  0  0
   40.1000   82.9180   59.5760 C   0  0  0  0  0  0  0  0  0  0  0  0
   39.5670   84.1900   59.7750 C   0  0  0  0  0  0  0  0  0  0  0  0
   38.9940   84.4500   60.9760 N   0  0  0  0  0  0  0  0  0  0  0  0
   38.9230   83.5370   61.9670 C   0  0  0  0  0  0  0  0  0  0  0  0
   39.4400   82.3020   61.7750 N   0  0  0  0  0  0  0  0  0  0  0  0
   40.5650   82.6840   58.6230 H   0  0  0  0  0  0  0  0  0  0  0  0
   39.5920   84.9760   59.0120 H   0  0  0  0  0  0  0  0  0  0  0  0
   38.4360   83.8890   62.8720 H   0  0  0  0  0  0  0  0  0  0  0  0
   41.1910   78.8540   61.4020 H   0  0  0  0  0  0  0  0  0  0  0  0
   40.7760   79.8470   61.5420 C   0  0  0  0  0  0  0  0  0  0  0  0
   40.4650   80.3070   62.6900 O   0  0  0  0  0  0  0  0  0  0  0  0
   40.5640   80.6820   60.4100 N   0  0  0  0  0  0  0  0  0  0  0  0
   40.8030   80.3510   59.4540 H   0  0  0  0  0  0  0  0  0  0  0  0
  1  6  1  0  0  0  0
  2  3  1  0  0  0  0
  2  1  2  0  0  0  0
  3  4  2  0  0  0  0
  4  5  1  0  0  0  0
  5  9  1  0  0  0  0
  6  5  2  0  0  0  0
  7  2  1  0  0  0  0
  8  3  1  0  0  0  0
 10 11  1  0  0  0  0
 11 12  2  0  0  0  0
 13  1  1  0  0  0  0
 13 11  1  0  0  0  0
 14 13  1  0  0  0  0
M  END
>  <minimizedAffinity>
-4.20440817

>  <minimizedRMSD>
0.273100644

$$$$
