
 OpenBabel03212520523D

 21 22  0  0  0  0  0  0  0  0999 V2000
   42.3010   81.1380   61.1810 C   0  0  0  0  0  0  0  0  0  0  0  0
   40.9590   80.8940   61.5050 C   0  0  0  0  0  0  0  0  0  0  0  0
   39.9870   81.6130   60.9010 C   0  0  0  0  0  0  0  0  0  0  0  0
   40.3740   82.5890   59.9630 C   0  0  0  0  0  0  0  0  0  0  0  0
   42.2400   82.4690   59.9420 S   0  0  0  0  0  0  0  0  0  0  0  0
   40.6820   80.1330   62.2350 H   0  0  0  0  0  0  0  0  0  0  0  0
   38.9420   81.5620   61.0230 H   0  0  0  0  0  0  0  0  0  0  0  0
   44.3820   78.3890   62.3880 C   0  0  0  0  0  0  0  0  0  0  0  0
   45.5270   79.0350   62.8930 C   0  0  0  0  0  0  0  0  0  0  0  0
   45.5820   80.4530   62.8150 C   0  0  0  0  0  0  0  0  0  0  0  0
   44.5200   81.0740   62.2550 N   0  0  0  0  0  0  0  0  0  0  0  0
   43.4360   80.4110   61.7810 C   0  0  0  0  0  0  0  0  0  0  0  0
   43.3590   79.0870   61.8430 N   0  0  0  0  0  0  0  0  0  0  0  0
   44.2640   77.3140   62.4120 H   0  0  0  0  0  0  0  0  0  0  0  0
   46.3090   78.4450   63.3150 H   0  0  0  0  0  0  0  0  0  0  0  0
   46.4390   80.9580   63.1900 H   0  0  0  0  0  0  0  0  0  0  0  0
   38.6800   85.5390   59.3280 H   0  0  0  0  0  0  0  0  0  0  0  0
   39.2180   84.7120   59.7370 C   0  0  0  0  0  0  0  0  0  0  0  0
   39.4610   84.8950   60.9780 O   0  0  0  0  0  0  0  0  0  0  0  0
   39.6870   83.4990   59.1610 N   0  0  0  0  0  0  0  0  0  0  0  0
   39.4500   83.4210   58.1440 H   0  0  0  0  0  0  0  0  0  0  0  0
  1  2  2  0  0  0  0
  1 12  1  0  0  0  0
  2  6  1  0  0  0  0
  3  7  1  0  0  0  0
  3  2  1  0  0  0  0
  4  3  2  0  0  0  0
  5  4  1  0  0  0  0
  5  1  1  0  0  0  0
  8 14  1  0  0  0  0
  8  9  1  0  0  0  0
  9 15  1  0  0  0  0
 10  9  2  0  0  0  0
 10 16  1  0  0  0  0
 11 10  1  0  0  0  0
 12 13  1  0  0  0  0
 12 11  2  0  0  0  0
 13  8  2  0  0  0  0
 17 18  1  0  0  0  0
 18 19  2  0  0  0  0
 20 18  1  0  0  0  0
 20  4  1  0  0  0  0
 21 20  1  0  0  0  0
M  END
>  <minimizedAffinity>
-3.78042698

>  <minimizedRMSD>
5.34924221

$$$$
