
 OpenBabel03212520243D

 14 14  0  0  0  0  0  0  0  0999 V2000
   39.4300   76.4680   59.5330 C   0  0  0  0  0  0  0  0  0  0  0  0
   38.7230   75.7740   58.5260 C   0  0  0  0  0  0  0  0  0  0  0  0
   38.0810   74.5920   58.8990 C   0  0  0  0  0  0  0  0  0  0  0  0
   38.1660   74.1720   60.2040 N   0  0  0  0  0  0  0  0  0  0  0  0
   38.8500   74.8630   61.1330 C   0  0  0  0  0  0  0  0  0  0  0  0
   39.4800   76.0080   60.8040 N   0  0  0  0  0  0  0  0  0  0  0  0
   39.9460   77.3920   59.2950 H   0  0  0  0  0  0  0  0  0  0  0  0
   38.7240   76.1910   57.5490 H   0  0  0  0  0  0  0  0  0  0  0  0
   38.7980   74.3730   62.0920 H   0  0  0  0  0  0  0  0  0  0  0  0
   37.6450   72.1580   56.5550 H   0  0  0  0  0  0  0  0  0  0  0  0
   38.0930   72.7760   57.3420 C   0  0  0  0  0  0  0  0  0  0  0  0
   39.2570   72.5150   57.7730 O   0  0  0  0  0  0  0  0  0  0  0  0
   37.3720   73.8930   57.8960 N   0  0  0  0  0  0  0  0  0  0  0  0
   36.4140   74.0350   57.4780 H   0  0  0  0  0  0  0  0  0  0  0  0
  1  6  1  0  0  0  0
  2  3  1  0  0  0  0
  2  1  2  0  0  0  0
  3  4  2  0  0  0  0
  4  5  1  0  0  0  0
  5  9  1  0  0  0  0
  6  5  2  0  0  0  0
  7  1  1  0  0  0  0
  8  2  1  0  0  0  0
 10 11  1  0  0  0  0
 11 12  2  0  0  0  0
 11 13  1  0  0  0  0
 13  3  1  0  0  0  0
 14 13  1  0  0  0  0
M  END
>  <minimizedAffinity>
-3.29127502

$$$$

 OpenBabel03212520243D

 14 14  0  0  0  0  0  0  0  0999 V2000
   39.1350   76.9340   58.4890 C   0  0  0  0  0  0  0  0  0  0  0  0
   39.4860   76.4360   59.7630 C   0  0  0  0  0  0  0  0  0  0  0  0
   38.9920   75.1780   60.1130 C   0  0  0  0  0  0  0  0  0  0  0  0
   38.2060   74.4990   59.2140 N   0  0  0  0  0  0  0  0  0  0  0  0
   37.8950   75.0090   58.0100 C   0  0  0  0  0  0  0  0  0  0  0  0
   38.3560   76.2210   57.6430 N   0  0  0  0  0  0  0  0  0  0  0  0
   39.4930   77.9070   58.1690 H   0  0  0  0  0  0  0  0  0  0  0  0
   40.1000   77.0470   60.3770 H   0  0  0  0  0  0  0  0  0  0  0  0
   37.2710   74.3270   57.4540 H   0  0  0  0  0  0  0  0  0  0  0  0
   40.8060   73.2930   62.2960 H   0  0  0  0  0  0  0  0  0  0  0  0
   40.4450   73.7500   61.3670 C   0  0  0  0  0  0  0  0  0  0  0  0
   40.9970   73.4680   60.2610 O   0  0  0  0  0  0  0  0  0  0  0  0
   39.3400   74.6750   61.3860 N   0  0  0  0  0  0  0  0  0  0  0  0
   38.9440   74.8490   62.3480 H   0  0  0  0  0  0  0  0  0  0  0  0
  1  2  1  0  0  0  0
  2  3  2  0  0  0  0
  2  8  1  0  0  0  0
  3 13  1  0  0  0  0
  4  3  1  0  0  0  0
  5  4  2  0  0  0  0
  6  5  1  0  0  0  0
  6  1  2  0  0  0  0
  7  1  1  0  0  0  0
  9  5  1  0  0  0  0
 11 13  1  0  0  0  0
 11 10  1  0  0  0  0
 12 11  2  0  0  0  0
 13 14  1  0  0  0  0
M  END
>  <minimizedAffinity>
-3.28457189

$$$$

 OpenBabel03212520243D

 14 14  0  0  0  0  0  0  0  0999 V2000
   39.0790   75.1750   60.9720 C   0  0  0  0  0  0  0  0  0  0  0  0
   38.3320   74.2920   60.1610 C   0  0  0  0  0  0  0  0  0  0  0  0
   38.1220   74.6700   58.8340 C   0  0  0  0  0  0  0  0  0  0  0  0
   38.6460   75.8600   58.3910 N   0  0  0  0  0  0  0  0  0  0  0  0
   39.3520   76.6730   59.1960 C   0  0  0  0  0  0  0  0  0  0  0  0
   39.5710   76.3350   60.4830 N   0  0  0  0  0  0  0  0  0  0  0  0
   39.2690   74.9270   62.0100 H   0  0  0  0  0  0  0  0  0  0  0  0
   37.9740   73.3970   60.6080 H   0  0  0  0  0  0  0  0  0  0  0  0
   39.6750   77.5540   58.6650 H   0  0  0  0  0  0  0  0  0  0  0  0
   37.7110   72.0800   56.6590 H   0  0  0  0  0  0  0  0  0  0  0  0
   38.1780   72.8170   57.3220 C   0  0  0  0  0  0  0  0  0  0  0  0
   39.4360   72.8200   57.4850 O   0  0  0  0  0  0  0  0  0  0  0  0
   37.3760   73.7910   58.0180 N   0  0  0  0  0  0  0  0  0  0  0  0
   36.3420   73.7120   57.8230 H   0  0  0  0  0  0  0  0  0  0  0  0
  1  7  1  0  0  0  0
  2  8  1  0  0  0  0
  2  1  2  0  0  0  0
  3  2  1  0  0  0  0
  4  3  2  0  0  0  0
  4  5  1  0  0  0  0
  5  6  2  0  0  0  0
  6  1  1  0  0  0  0
  9  5  1  0  0  0  0
 10 11  1  0  0  0  0
 11 12  2  0  0  0  0
 11 13  1  0  0  0  0
 13  3  1  0  0  0  0
 14 13  1  0  0  0  0
M  END
>  <minimizedAffinity>
-3.22445273

$$$$

 OpenBabel03212520243D

 14 14  0  0  0  0  0  0  0  0999 V2000
   38.7160   74.4530   60.7170 C   0  0  0  0  0  0  0  0  0  0  0  0
   39.5150   75.5860   60.9850 C   0  0  0  0  0  0  0  0  0  0  0  0
   39.6930   76.5000   59.9460 C   0  0  0  0  0  0  0  0  0  0  0  0
   39.0900   76.2560   58.7360 N   0  0  0  0  0  0  0  0  0  0  0  0
   38.3360   75.1640   58.5210 C   0  0  0  0  0  0  0  0  0  0  0  0
   38.1460   74.2630   59.5060 N   0  0  0  0  0  0  0  0  0  0  0  0
   38.5470   73.7120   61.4920 H   0  0  0  0  0  0  0  0  0  0  0  0
   39.9330   75.6730   61.9580 H   0  0  0  0  0  0  0  0  0  0  0  0
   37.9530   75.1530   57.5130 H   0  0  0  0  0  0  0  0  0  0  0  0
   42.5600   78.3390   59.8760 H   0  0  0  0  0  0  0  0  0  0  0  0
   41.8460   77.5200   59.7310 C   0  0  0  0  0  0  0  0  0  0  0  0
   42.2060   76.4580   59.1390 O   0  0  0  0  0  0  0  0  0  0  0  0
   40.4910   77.6350   60.2080 N   0  0  0  0  0  0  0  0  0  0  0  0
   40.2820   78.5520   60.6860 H   0  0  0  0  0  0  0  0  0  0  0  0
  1  2  1  0  0  0  0
  1  7  1  0  0  0  0
  2  8  1  0  0  0  0
  3 13  1  0  0  0  0
  3  2  2  0  0  0  0
  4  3  1  0  0  0  0
  5  4  2  0  0  0  0
  5  6  1  0  0  0  0
  6  1  2  0  0  0  0
  9  5  1  0  0  0  0
 11 10  1  0  0  0  0
 11 13  1  0  0  0  0
 12 11  2  0  0  0  0
 13 14  1  0  0  0  0
M  END
>  <minimizedAffinity>
-3.20505238

$$$$

 OpenBabel03212520243D

 14 14  0  0  0  0  0  0  0  0999 V2000
   40.1880   72.6610   60.1300 C   0  0  0  0  0  0  0  0  0  0  0  0
   39.9350   73.7000   61.0520 C   0  0  0  0  0  0  0  0  0  0  0  0
   38.9740   74.6470   60.6960 C   0  0  0  0  0  0  0  0  0  0  0  0
   38.3330   74.5210   59.4880 N   0  0  0  0  0  0  0  0  0  0  0  0
   38.6030   73.5160   58.6370 C   0  0  0  0  0  0  0  0  0  0  0  0
   39.5260   72.5860   58.9530 N   0  0  0  0  0  0  0  0  0  0  0  0
   40.9260   71.9000   60.3600 H   0  0  0  0  0  0  0  0  0  0  0  0
   40.4900   73.7000   61.9580 H   0  0  0  0  0  0  0  0  0  0  0  0
   37.9980   73.5920   57.7480 H   0  0  0  0  0  0  0  0  0  0  0  0
   39.4230   77.7340   62.0670 H   0  0  0  0  0  0  0  0  0  0  0  0
   39.5320   76.8590   61.4150 C   0  0  0  0  0  0  0  0  0  0  0  0
   40.3830   76.8680   60.4740 O   0  0  0  0  0  0  0  0  0  0  0  0
   38.7160   75.6890   61.6140 N   0  0  0  0  0  0  0  0  0  0  0  0
   38.0380   75.7720   62.4180 H   0  0  0  0  0  0  0  0  0  0  0  0
  1  7  1  0  0  0  0
  1  2  1  0  0  0  0
  2  8  1  0  0  0  0
  3  2  2  0  0  0  0
  3 13  1  0  0  0  0
  4  3  1  0  0  0  0
  5  6  1  0  0  0  0
  5  4  2  0  0  0  0
  6  1  2  0  0  0  0
  9  5  1  0  0  0  0
 11 13  1  0  0  0  0
 11 10  1  0  0  0  0
 12 11  2  0  0  0  0
 13 14  1  0  0  0  0
M  END
>  <minimizedAffinity>
-3.1864121

$$$$

 OpenBabel03212520243D

 14 14  0  0  0  0  0  0  0  0999 V2000
   39.3290   71.7920   57.9880 C   0  0  0  0  0  0  0  0  0  0  0  0
   38.2930   72.2620   57.1510 C   0  0  0  0  0  0  0  0  0  0  0  0
   37.6490   73.4380   57.5360 C   0  0  0  0  0  0  0  0  0  0  0  0
   38.0490   74.0690   58.6880 N   0  0  0  0  0  0  0  0  0  0  0  0
   39.0410   73.5880   59.4580 C   0  0  0  0  0  0  0  0  0  0  0  0
   39.6830   72.4540   59.1120 N   0  0  0  0  0  0  0  0  0  0  0  0
   39.8620   70.8810   57.7330 H   0  0  0  0  0  0  0  0  0  0  0  0
   38.0670   71.6930   56.2820 H   0  0  0  0  0  0  0  0  0  0  0  0
   39.2050   74.2230   60.3140 H   0  0  0  0  0  0  0  0  0  0  0  0
   36.2760   75.4740   55.1740 H   0  0  0  0  0  0  0  0  0  0  0  0
   36.9970   75.0200   55.8640 C   0  0  0  0  0  0  0  0  0  0  0  0
   38.1820   75.4660   55.9330 O   0  0  0  0  0  0  0  0  0  0  0  0
   36.6120   73.9130   56.7020 N   0  0  0  0  0  0  0  0  0  0  0  0
   35.6090   73.6100   56.5770 H   0  0  0  0  0  0  0  0  0  0  0  0
  1  6  1  0  0  0  0
  2  3  1  0  0  0  0
  2  1  2  0  0  0  0
  3  4  2  0  0  0  0
  4  5  1  0  0  0  0
  5  9  1  0  0  0  0
  6  5  2  0  0  0  0
  7  1  1  0  0  0  0
  8  2  1  0  0  0  0
 10 11  1  0  0  0  0
 11 12  2  0  0  0  0
 11 13  1  0  0  0  0
 13  3  1  0  0  0  0
 14 13  1  0  0  0  0
M  END
>  <minimizedAffinity>
-3.11399674

$$$$

 OpenBabel03212520243D

 14 14  0  0  0  0  0  0  0  0999 V2000
   40.5890   74.0870   59.7140 C   0  0  0  0  0  0  0  0  0  0  0  0
   39.7380   73.8800   58.6060 C   0  0  0  0  0  0  0  0  0  0  0  0
   38.3660   74.0090   58.8260 C   0  0  0  0  0  0  0  0  0  0  0  0
   37.9210   74.3270   60.0860 N   0  0  0  0  0  0  0  0  0  0  0  0
   38.7650   74.5160   61.1150 C   0  0  0  0  0  0  0  0  0  0  0  0
   40.0960   74.3980   60.9340 N   0  0  0  0  0  0  0  0  0  0  0  0
   41.6640   73.9980   59.5960 H   0  0  0  0  0  0  0  0  0  0  0  0
   40.1910   73.6380   57.6760 H   0  0  0  0  0  0  0  0  0  0  0  0
   38.2250   74.7550   62.0160 H   0  0  0  0  0  0  0  0  0  0  0  0
   36.5100   74.9790   56.1380 H   0  0  0  0  0  0  0  0  0  0  0  0
   37.1690   75.0120   57.0130 C   0  0  0  0  0  0  0  0  0  0  0  0
   37.6400   76.1190   57.4150 O   0  0  0  0  0  0  0  0  0  0  0  0
   37.5090   73.8040   57.7210 N   0  0  0  0  0  0  0  0  0  0  0  0
   37.0720   72.9330   57.3170 H   0  0  0  0  0  0  0  0  0  0  0  0
  1  6  1  0  0  0  0
  2  3  1  0  0  0  0
  2  1  2  0  0  0  0
  3  4  2  0  0  0  0
  4  5  1  0  0  0  0
  5  9  1  0  0  0  0
  6  5  2  0  0  0  0
  7  1  1  0  0  0  0
  8  2  1  0  0  0  0
 10 11  1  0  0  0  0
 11 12  2  0  0  0  0
 11 13  1  0  0  0  0
 13  3  1  0  0  0  0
 14 13  1  0  0  0  0
M  END
>  <minimizedAffinity>
-3.09242702

$$$$

 OpenBabel03212520243D

 14 14  0  0  0  0  0  0  0  0999 V2000
   40.7070   73.5560   60.1360 C   0  0  0  0  0  0  0  0  0  0  0  0
   40.9180   74.9180   59.8290 C   0  0  0  0  0  0  0  0  0  0  0  0
   39.9530   75.8260   60.2670 C   0  0  0  0  0  0  0  0  0  0  0  0
   38.8660   75.3560   60.9640 N   0  0  0  0  0  0  0  0  0  0  0  0
   38.7030   74.0490   61.2360 C   0  0  0  0  0  0  0  0  0  0  0  0
   39.6180   73.1480   60.8250 N   0  0  0  0  0  0  0  0  0  0  0  0
   41.4280   72.8100   59.8170 H   0  0  0  0  0  0  0  0  0  0  0  0
   41.7950   75.1690   59.2840 H   0  0  0  0  0  0  0  0  0  0  0  0
   37.7920   73.8830   61.7880 H   0  0  0  0  0  0  0  0  0  0  0  0
   39.5560   78.6750   58.4410 H   0  0  0  0  0  0  0  0  0  0  0  0
   39.4720   77.6350   58.7780 C   0  0  0  0  0  0  0  0  0  0  0  0
   38.7680   76.8080   58.1230 O   0  0  0  0  0  0  0  0  0  0  0  0
   40.1590   77.1900   59.9640 N   0  0  0  0  0  0  0  0  0  0  0  0
   40.7190   77.9450   60.4430 H   0  0  0  0  0  0  0  0  0  0  0  0
  1  6  1  0  0  0  0
  2  1  2  0  0  0  0
  2  3  1  0  0  0  0
  3  4  2  0  0  0  0
  4  5  1  0  0  0  0
  5  9  1  0  0  0  0
  6  5  2  0  0  0  0
  7  1  1  0  0  0  0
  8  2  1  0  0  0  0
 10 11  1  0  0  0  0
 11 13  1  0  0  0  0
 12 11  2  0  0  0  0
 13  3  1  0  0  0  0
 13 14  1  0  0  0  0
M  END
>  <minimizedAffinity>
-3.02980638

$$$$

 OpenBabel03212520243D

 14 14  0  0  0  0  0  0  0  0999 V2000
   40.3550   75.6010   60.1330 C   0  0  0  0  0  0  0  0  0  0  0  0
   41.0800   74.3890   60.1260 C   0  0  0  0  0  0  0  0  0  0  0  0
   40.4500   73.2670   60.6650 C   0  0  0  0  0  0  0  0  0  0  0  0
   39.1770   73.3960   61.1650 N   0  0  0  0  0  0  0  0  0  0  0  0
   38.5200   74.5690   61.1530 C   0  0  0  0  0  0  0  0  0  0  0  0
   39.1030   75.6710   60.6390 N   0  0  0  0  0  0  0  0  0  0  0  0
   40.8010   76.5020   59.7260 H   0  0  0  0  0  0  0  0  0  0  0  0
   42.0590   74.4050   59.7130 H   0  0  0  0  0  0  0  0  0  0  0  0
   37.5390   74.4650   61.5880 H   0  0  0  0  0  0  0  0  0  0  0  0
   42.4350   70.8510   62.0170 H   0  0  0  0  0  0  0  0  0  0  0  0
   41.8440   71.7670   61.9010 C   0  0  0  0  0  0  0  0  0  0  0  0
   41.7480   72.5900   62.8610 O   0  0  0  0  0  0  0  0  0  0  0  0
   41.1700   72.0520   60.6600 N   0  0  0  0  0  0  0  0  0  0  0  0
   41.3050   71.3130   59.9190 H   0  0  0  0  0  0  0  0  0  0  0  0
  1  6  1  0  0  0  0
  2  1  2  0  0  0  0
  2  3  1  0  0  0  0
  3  4  2  0  0  0  0
  5  4  1  0  0  0  0
  5  9  1  0  0  0  0
  6  5  2  0  0  0  0
  7  1  1  0  0  0  0
  8  2  1  0  0  0  0
 11 10  1  0  0  0  0
 11 12  2  0  0  0  0
 13  3  1  0  0  0  0
 13 11  1  0  0  0  0
 14 13  1  0  0  0  0
M  END
>  <minimizedAffinity>
-3.02933645

$$$$
