
 OpenBabel03212520463D

 16 16  0  0  0  0  0  0  0  0999 V2000
   39.1060   75.3290   60.1690 C   0  0  0  0  0  0  0  0  0  0  0  0
   39.4290   76.5880   59.6430 C   0  0  0  0  0  0  0  0  0  0  0  0
   38.9930   76.8550   58.3310 C   0  0  0  0  0  0  0  0  0  0  0  0
   38.3030   75.8900   57.6780 N   0  0  0  0  0  0  0  0  0  0  0  0
   38.0200   74.6960   58.2310 C   0  0  0  0  0  0  0  0  0  0  0  0
   38.4230   74.4080   59.4880 N   0  0  0  0  0  0  0  0  0  0  0  0
   39.5960   75.1730   61.4950 N   0  0  0  0  0  0  0  0  0  0  0  0
   39.9730   77.3560   60.1550 H   0  0  0  0  0  0  0  0  0  0  0  0
   39.1980   77.8020   57.8480 H   0  0  0  0  0  0  0  0  0  0  0  0
   38.7520   75.3170   62.0940 H   0  0  0  0  0  0  0  0  0  0  0  0
   40.5200   74.9690   61.9190 H   0  0  0  0  0  0  0  0  0  0  0  0
   37.7110   71.6560   56.7260 H   0  0  0  0  0  0  0  0  0  0  0  0
   37.9700   72.5440   57.2450 C   0  0  0  0  0  0  0  0  0  0  0  0
   39.1360   72.2330   57.6520 O   0  0  0  0  0  0  0  0  0  0  0  0
   37.2900   73.7470   57.4640 N   0  0  0  0  0  0  0  0  0  0  0  0
   36.3420   73.7790   57.0340 H   0  0  0  0  0  0  0  0  0  0  0  0
  1  7  1  0  0  0  0
  2  8  1  0  0  0  0
  2  1  1  0  0  0  0
  3  2  2  0  0  0  0
  4  5  2  0  0  0  0
  4  3  1  0  0  0  0
  5  6  1  0  0  0  0
  6  1  2  0  0  0  0
  7 11  1  0  0  0  0
  7 10  1  0  0  0  0
  9  3  1  0  0  0  0
 12 13  1  0  0  0  0
 13 15  1  0  0  0  0
 13 14  2  0  0  0  0
 15  5  1  0  0  0  0
 16 15  1  0  0  0  0
M  END
>  <minimizedAffinity>
-3.97760248

$$$$

 OpenBabel03212520463D

 16 16  0  0  0  0  0  0  0  0999 V2000
   37.4400   74.7560   57.3010 C   0  0  0  0  0  0  0  0  0  0  0  0
   37.5930   76.0700   56.8330 C   0  0  0  0  0  0  0  0  0  0  0  0
   38.5270   76.8770   57.5110 C   0  0  0  0  0  0  0  0  0  0  0  0
   39.2030   76.3360   58.5530 N   0  0  0  0  0  0  0  0  0  0  0  0
   39.0160   75.0670   58.9620 C   0  0  0  0  0  0  0  0  0  0  0  0
   38.1280   74.2650   58.3330 N   0  0  0  0  0  0  0  0  0  0  0  0
   36.4740   74.0390   56.5430 N   0  0  0  0  0  0  0  0  0  0  0  0
   37.0630   76.5020   56.0090 H   0  0  0  0  0  0  0  0  0  0  0  0
   38.7090   77.9020   57.2150 H   0  0  0  0  0  0  0  0  0  0  0  0
   37.0460   73.4370   55.9100 H   0  0  0  0  0  0  0  0  0  0  0  0
   35.4380   74.0100   56.5100 H   0  0  0  0  0  0  0  0  0  0  0  0
   39.2470   73.7710   62.1030 H   0  0  0  0  0  0  0  0  0  0  0  0
   38.9960   74.1690   61.1520 C   0  0  0  0  0  0  0  0  0  0  0  0
   37.7260   74.1730   61.2380 O   0  0  0  0  0  0  0  0  0  0  0  0
   39.7730   74.5900   60.0670 N   0  0  0  0  0  0  0  0  0  0  0  0
   40.7990   74.4950   60.2210 H   0  0  0  0  0  0  0  0  0  0  0  0
  1  6  1  0  0  0  0
  2  1  2  0  0  0  0
  2  3  1  0  0  0  0
  3  4  2  0  0  0  0
  4  5  1  0  0  0  0
  5 15  1  0  0  0  0
  6  5  2  0  0  0  0
  7  1  1  0  0  0  0
  8  2  1  0  0  0  0
  9  3  1  0  0  0  0
 10  7  1  0  0  0  0
 11  7  1  0  0  0  0
 13 14  2  0  0  0  0
 13 12  1  0  0  0  0
 15 16  1  0  0  0  0
 15 13  1  0  0  0  0
M  END
>  <minimizedAffinity>
-3.94208908

$$$$

 OpenBabel03212520463D

 16 16  0  0  0  0  0  0  0  0999 V2000
   37.9290   73.5040   57.9910 C   0  0  0  0  0  0  0  0  0  0  0  0
   38.7960   72.4380   57.7080 C   0  0  0  0  0  0  0  0  0  0  0  0
   39.7550   72.1280   58.6910 C   0  0  0  0  0  0  0  0  0  0  0  0
   39.7740   72.8690   59.8240 N   0  0  0  0  0  0  0  0  0  0  0  0
   38.9170   73.8840   60.0440 C   0  0  0  0  0  0  0  0  0  0  0  0
   37.9840   74.2080   59.1220 N   0  0  0  0  0  0  0  0  0  0  0  0
   37.0070   73.7250   56.9310 N   0  0  0  0  0  0  0  0  0  0  0  0
   38.7850   71.8470   56.8150 H   0  0  0  0  0  0  0  0  0  0  0  0
   40.4630   71.3200   58.5560 H   0  0  0  0  0  0  0  0  0  0  0  0
   36.1200   73.2940   57.2740 H   0  0  0  0  0  0  0  0  0  0  0  0
   37.0520   74.1780   55.9990 H   0  0  0  0  0  0  0  0  0  0  0  0
   39.4090   76.7630   61.7960 H   0  0  0  0  0  0  0  0  0  0  0  0
   39.2800   75.9700   61.1040 C   0  0  0  0  0  0  0  0  0  0  0  0
   39.4340   76.6000   60.0080 O   0  0  0  0  0  0  0  0  0  0  0  0
   39.0160   74.6050   61.2650 N   0  0  0  0  0  0  0  0  0  0  0  0
   38.9290   74.3080   62.2600 H   0  0  0  0  0  0  0  0  0  0  0  0
  1  6  1  0  0  0  0
  2  1  2  0  0  0  0
  2  3  1  0  0  0  0
  3  4  2  0  0  0  0
  4  5  1  0  0  0  0
  5 15  1  0  0  0  0
  6  5  2  0  0  0  0
  7 10  1  0  0  0  0
  7  1  1  0  0  0  0
  8  2  1  0  0  0  0
  9  3  1  0  0  0  0
 11  7  1  0  0  0  0
 13 15  1  0  0  0  0
 13 12  1  0  0  0  0
 14 13  2  0  0  0  0
 15 16  1  0  0  0  0
M  END
>  <minimizedAffinity>
-3.93331885

$$$$

 OpenBabel03212520463D

 16 16  0  0  0  0  0  0  0  0999 V2000
   39.6380   74.9820   61.0010 C   0  0  0  0  0  0  0  0  0  0  0  0
   40.2890   75.7950   60.0610 C   0  0  0  0  0  0  0  0  0  0  0  0
   41.3530   75.2080   59.3490 C   0  0  0  0  0  0  0  0  0  0  0  0
   41.6680   73.9180   59.6170 N   0  0  0  0  0  0  0  0  0  0  0  0
   41.0090   73.1830   60.5320 C   0  0  0  0  0  0  0  0  0  0  0  0
   39.9830   73.7150   61.2330 N   0  0  0  0  0  0  0  0  0  0  0  0
   38.5850   75.6790   61.6570 N   0  0  0  0  0  0  0  0  0  0  0  0
   40.0430   76.8140   59.8440 H   0  0  0  0  0  0  0  0  0  0  0  0
   41.9090   75.7630   58.6050 H   0  0  0  0  0  0  0  0  0  0  0  0
   37.7200   75.3290   61.1880 H   0  0  0  0  0  0  0  0  0  0  0  0
   38.5300   76.3810   62.4180 H   0  0  0  0  0  0  0  0  0  0  0  0
   42.1850   70.6820   62.5230 H   0  0  0  0  0  0  0  0  0  0  0  0
   41.8300   71.5640   62.0510 C   0  0  0  0  0  0  0  0  0  0  0  0
   41.8770   72.3760   63.0300 O   0  0  0  0  0  0  0  0  0  0  0  0
   41.4150   71.8370   60.7430 N   0  0  0  0  0  0  0  0  0  0  0  0
   41.4610   71.0140   60.1060 H   0  0  0  0  0  0  0  0  0  0  0  0
  1  6  1  0  0  0  0
  1  7  1  0  0  0  0
  2  1  2  0  0  0  0
  3  4  2  0  0  0  0
  3  2  1  0  0  0  0
  4  5  1  0  0  0  0
  5 15  1  0  0  0  0
  5  6  2  0  0  0  0
  7 11  1  0  0  0  0
  8  2  1  0  0  0  0
  9  3  1  0  0  0  0
 10  7  1  0  0  0  0
 13 12  1  0  0  0  0
 13 14  2  0  0  0  0
 15 13  1  0  0  0  0
 16 15  1  0  0  0  0
M  END
>  <minimizedAffinity>
-3.81135321

$$$$

 OpenBabel03212520463D

 16 16  0  0  0  0  0  0  0  0999 V2000
   40.9940   76.9990   59.1550 C   0  0  0  0  0  0  0  0  0  0  0  0
   40.4950   77.2290   57.8640 C   0  0  0  0  0  0  0  0  0  0  0  0
   39.2290   76.6870   57.5710 C   0  0  0  0  0  0  0  0  0  0  0  0
   38.5890   75.9930   58.5430 N   0  0  0  0  0  0  0  0  0  0  0  0
   39.1150   75.8010   59.7670 C   0  0  0  0  0  0  0  0  0  0  0  0
   40.3280   76.3080   60.0810 N   0  0  0  0  0  0  0  0  0  0  0  0
   42.2740   77.5910   59.3350 N   0  0  0  0  0  0  0  0  0  0  0  0
   40.9950   77.7790   57.0930 H   0  0  0  0  0  0  0  0  0  0  0  0
   38.7690   76.8180   56.6000 H   0  0  0  0  0  0  0  0  0  0  0  0
   42.0770   78.4590   59.8810 H   0  0  0  0  0  0  0  0  0  0  0  0
   43.2430   77.3460   59.0580 H   0  0  0  0  0  0  0  0  0  0  0  0
   38.7350   73.1510   61.8730 H   0  0  0  0  0  0  0  0  0  0  0  0
   39.0140   73.9040   61.1790 C   0  0  0  0  0  0  0  0  0  0  0  0
   40.1640   73.4770   60.8370 O   0  0  0  0  0  0  0  0  0  0  0  0
   38.3670   75.0560   60.7190 N   0  0  0  0  0  0  0  0  0  0  0  0
   37.4270   75.2080   61.1400 H   0  0  0  0  0  0  0  0  0  0  0  0
  1  7  1  0  0  0  0
  1  6  1  0  0  0  0
  2  1  2  0  0  0  0
  3  2  1  0  0  0  0
  3  4  2  0  0  0  0
  4  5  1  0  0  0  0
  5  6  2  0  0  0  0
  5 15  1  0  0  0  0
  7 10  1  0  0  0  0
  8  2  1  0  0  0  0
  9  3  1  0  0  0  0
 11  7  1  0  0  0  0
 13 12  1  0  0  0  0
 14 13  2  0  0  0  0
 15 16  1  0  0  0  0
 15 13  1  0  0  0  0
M  END
>  <minimizedAffinity>
-3.78891468

$$$$

 OpenBabel03212520463D

 16 16  0  0  0  0  0  0  0  0999 V2000
   39.3050   75.6260   60.3820 C   0  0  0  0  0  0  0  0  0  0  0  0
   40.2780   74.6160   60.4020 C   0  0  0  0  0  0  0  0  0  0  0  0
   40.9990   74.4100   59.2100 C   0  0  0  0  0  0  0  0  0  0  0  0
   40.7070   75.1920   58.1430 N   0  0  0  0  0  0  0  0  0  0  0  0
   39.7620   76.1490   58.1780 C   0  0  0  0  0  0  0  0  0  0  0  0
   39.0520   76.3730   59.3060 N   0  0  0  0  0  0  0  0  0  0  0  0
   38.6440   75.7420   61.6360 N   0  0  0  0  0  0  0  0  0  0  0  0
   40.5140   73.9960   61.2430 H   0  0  0  0  0  0  0  0  0  0  0  0
   41.7680   73.6520   59.1370 H   0  0  0  0  0  0  0  0  0  0  0  0
   39.0860   76.5790   62.0780 H   0  0  0  0  0  0  0  0  0  0  0  0
   37.8980   75.2140   62.1260 H   0  0  0  0  0  0  0  0  0  0  0  0
   37.7380   77.2570   55.6730 H   0  0  0  0  0  0  0  0  0  0  0  0
   38.2230   76.8210   56.5100 C   0  0  0  0  0  0  0  0  0  0  0  0
   37.2640   76.1350   56.9910 O   0  0  0  0  0  0  0  0  0  0  0  0
   39.5280   76.9180   57.0060 N   0  0  0  0  0  0  0  0  0  0  0  0
   40.1460   77.5410   56.4450 H   0  0  0  0  0  0  0  0  0  0  0  0
  1  2  1  0  0  0  0
  1  7  1  0  0  0  0
  2  8  1  0  0  0  0
  3  2  2  0  0  0  0
  4  5  2  0  0  0  0
  4  3  1  0  0  0  0
  5  6  1  0  0  0  0
  6  1  2  0  0  0  0
  7 10  1  0  0  0  0
  7 11  1  0  0  0  0
  9  3  1  0  0  0  0
 12 13  1  0  0  0  0
 13 14  2  0  0  0  0
 13 15  1  0  0  0  0
 15  5  1  0  0  0  0
 16 15  1  0  0  0  0
M  END
>  <minimizedAffinity>
-3.72666955

$$$$

 OpenBabel03212520463D

 16 16  0  0  0  0  0  0  0  0999 V2000
   38.6620   76.4430   58.1320 C   0  0  0  0  0  0  0  0  0  0  0  0
   38.3360   77.3220   57.0880 C   0  0  0  0  0  0  0  0  0  0  0  0
   37.5640   76.7940   56.0360 C   0  0  0  0  0  0  0  0  0  0  0  0
   37.1940   75.4930   56.1040 N   0  0  0  0  0  0  0  0  0  0  0  0
   37.5350   74.6920   57.1310 C   0  0  0  0  0  0  0  0  0  0  0  0
   38.2750   75.1670   58.1570 N   0  0  0  0  0  0  0  0  0  0  0  0
   39.4410   77.0850   59.1330 N   0  0  0  0  0  0  0  0  0  0  0  0
   38.6250   78.3520   57.0290 H   0  0  0  0  0  0  0  0  0  0  0  0
   37.2670   77.4020   55.1910 H   0  0  0  0  0  0  0  0  0  0  0  0
   38.7580   77.2780   59.8990 H   0  0  0  0  0  0  0  0  0  0  0  0
   40.4370   77.3580   59.2280 H   0  0  0  0  0  0  0  0  0  0  0  0
   38.1520   71.3420   57.1240 H   0  0  0  0  0  0  0  0  0  0  0  0
   38.1400   72.4030   57.1310 C   0  0  0  0  0  0  0  0  0  0  0  0
   39.3900   72.6420   57.1620 O   0  0  0  0  0  0  0  0  0  0  0  0
   37.0990   73.3390   57.1120 N   0  0  0  0  0  0  0  0  0  0  0  0
   36.1490   72.9120   57.0860 H   0  0  0  0  0  0  0  0  0  0  0  0
  1  6  1  0  0  0  0
  1  7  1  0  0  0  0
  2  1  2  0  0  0  0
  3  4  2  0  0  0  0
  3  2  1  0  0  0  0
  4  5  1  0  0  0  0
  5  6  2  0  0  0  0
  7 11  1  0  0  0  0
  7 10  1  0  0  0  0
  8  2  1  0  0  0  0
  9  3  1  0  0  0  0
 12 13  1  0  0  0  0
 13 14  2  0  0  0  0
 15  5  1  0  0  0  0
 15 13  1  0  0  0  0
 16 15  1  0  0  0  0
M  END
>  <minimizedAffinity>
-3.67625546

$$$$

 OpenBabel03212520463D

 16 16  0  0  0  0  0  0  0  0999 V2000
   40.3370   76.2750   58.5140 C   0  0  0  0  0  0  0  0  0  0  0  0
   40.2770   76.2300   59.9150 C   0  0  0  0  0  0  0  0  0  0  0  0
   39.2350   75.4680   60.4780 C   0  0  0  0  0  0  0  0  0  0  0  0
   38.3760   74.8410   59.6400 N   0  0  0  0  0  0  0  0  0  0  0  0
   38.4790   74.9180   58.3000 C   0  0  0  0  0  0  0  0  0  0  0  0
   39.4680   75.6400   57.7270 N   0  0  0  0  0  0  0  0  0  0  0  0
   41.4250   77.0700   58.0620 N   0  0  0  0  0  0  0  0  0  0  0  0
   40.9540   76.7220   60.5830 H   0  0  0  0  0  0  0  0  0  0  0  0
   39.1150   75.3790   61.5500 H   0  0  0  0  0  0  0  0  0  0  0  0
   42.1490   76.3720   57.7800 H   0  0  0  0  0  0  0  0  0  0  0  0
   41.6060   78.0880   57.9720 H   0  0  0  0  0  0  0  0  0  0  0  0
   36.0120   74.8520   55.9520 H   0  0  0  0  0  0  0  0  0  0  0  0
   36.7820   75.0510   56.6550 C   0  0  0  0  0  0  0  0  0  0  0  0
   36.8720   76.3150   56.5350 O   0  0  0  0  0  0  0  0  0  0  0  0
   37.5280   74.2250   57.5030 N   0  0  0  0  0  0  0  0  0  0  0  0
   37.2810   73.2150   57.4320 H   0  0  0  0  0  0  0  0  0  0  0  0
  1  2  1  0  0  0  0
  2  3  2  0  0  0  0
  2  8  1  0  0  0  0
  3  9  1  0  0  0  0
  4  3  1  0  0  0  0
  5  4  2  0  0  0  0
  6  5  1  0  0  0  0
  6  1  2  0  0  0  0
  7  1  1  0  0  0  0
 10  7  1  0  0  0  0
 11  7  1  0  0  0  0
 12 13  1  0  0  0  0
 13 15  1  0  0  0  0
 14 13  2  0  0  0  0
 15  5  1  0  0  0  0
 16 15  1  0  0  0  0
M  END
>  <minimizedAffinity>
-3.67066407

$$$$

 OpenBabel03212520463D

 16 16  0  0  0  0  0  0  0  0999 V2000
   42.4650   73.4890   60.3700 C   0  0  0  0  0  0  0  0  0  0  0  0
   43.0670   72.8170   61.4440 C   0  0  0  0  0  0  0  0  0  0  0  0
   42.2110   72.3750   62.4710 C   0  0  0  0  0  0  0  0  0  0  0  0
   40.8850   72.6250   62.3520 N   0  0  0  0  0  0  0  0  0  0  0  0
   40.3590   73.2770   61.2980 C   0  0  0  0  0  0  0  0  0  0  0  0
   41.1520   73.7140   60.2950 N   0  0  0  0  0  0  0  0  0  0  0  0
   43.4230   73.8870   59.3980 N   0  0  0  0  0  0  0  0  0  0  0  0
   44.1140   72.6140   61.5430 H   0  0  0  0  0  0  0  0  0  0  0  0
   42.5910   71.8470   63.3360 H   0  0  0  0  0  0  0  0  0  0  0  0
   43.3180   73.1810   58.6360 H   0  0  0  0  0  0  0  0  0  0  0  0
   44.1170   74.6540   59.3190 H   0  0  0  0  0  0  0  0  0  0  0  0
   37.6430   75.3280   61.1830 H   0  0  0  0  0  0  0  0  0  0  0  0
   38.5850   74.8420   61.2160 C   0  0  0  0  0  0  0  0  0  0  0  0
   39.3590   75.8530   61.2010 O   0  0  0  0  0  0  0  0  0  0  0  0
   38.9550   73.4930   61.2630 N   0  0  0  0  0  0  0  0  0  0  0  0
   38.1470   72.8350   61.2670 H   0  0  0  0  0  0  0  0  0  0  0  0
  1  2  1  0  0  0  0
  2  8  1  0  0  0  0
  2  3  2  0  0  0  0
  3  9  1  0  0  0  0
  4  3  1  0  0  0  0
  5  4  2  0  0  0  0
  6  1  2  0  0  0  0
  6  5  1  0  0  0  0
  7  1  1  0  0  0  0
 10  7  1  0  0  0  0
 11  7  1  0  0  0  0
 12 13  1  0  0  0  0
 13 15  1  0  0  0  0
 14 13  2  0  0  0  0
 15 16  1  0  0  0  0
 15  5  1  0  0  0  0
M  END
>  <minimizedAffinity>
-3.62870407

$$$$
