
 OpenBabel03212521043D

 32 34  0  0  0  0  0  0  0  0999 V2000
   41.8120   84.2300   61.6180 C   0  0  0  0  0  0  0  0  0  0  0  0
   41.4190   83.9900   62.9270 C   0  0  0  0  0  0  0  0  0  0  0  0
   40.1400   83.5860   63.2350 C   0  0  0  0  0  0  0  0  0  0  0  0
   39.2120   83.4120   62.2020 C   0  0  0  0  0  0  0  0  0  0  0  0
   39.6110   83.6530   60.8920 C   0  0  0  0  0  0  0  0  0  0  0  0
   40.8940   84.0590   60.5880 C   0  0  0  0  0  0  0  0  0  0  0  0
   42.0660   84.1000   63.7740 H   0  0  0  0  0  0  0  0  0  0  0  0
   39.8170   83.3950   64.2510 H   0  0  0  0  0  0  0  0  0  0  0  0
   38.2140   83.1000   62.3980 H   0  0  0  0  0  0  0  0  0  0  0  0
   38.8630   83.5070   60.1190 H   0  0  0  0  0  0  0  0  0  0  0  0
   41.2560   84.2970   59.2110 C   0  0  0  0  0  0  0  0  0  0  0  0
   40.7790   85.5390   58.7670 C   0  0  0  0  0  0  0  0  0  0  0  0
   41.0140   85.9720   57.4650 C   0  0  0  0  0  0  0  0  0  0  0  0
   41.7130   85.1500   56.6700 N   0  0  0  0  0  0  0  0  0  0  0  0
   42.1730   83.9500   57.1050 C   0  0  0  0  0  0  0  0  0  0  0  0
   41.9480   83.5230   58.3680 N   0  0  0  0  0  0  0  0  0  0  0  0
   40.2030   86.2580   59.3620 H   0  0  0  0  0  0  0  0  0  0  0  0
   40.6620   86.9220   57.0880 H   0  0  0  0  0  0  0  0  0  0  0  0
   43.1880   81.6250   54.7760 H   0  0  0  0  0  0  0  0  0  0  0  0
   42.3950   82.1140   55.3430 C   0  0  0  0  0  0  0  0  0  0  0  0
   41.1270   82.0300   55.4280 O   0  0  0  0  0  0  0  0  0  0  0  0
   42.9110   83.1140   56.2190 N   0  0  0  0  0  0  0  0  0  0  0  0
   43.9430   83.3530   56.3100 H   0  0  0  0  0  0  0  0  0  0  0  0
   45.3820   84.1180   60.8620 C   0  0  0  0  0  0  0  0  0  0  0  0
   45.7520   85.4550   60.8440 C   0  0  0  0  0  0  0  0  0  0  0  0
   44.7470   86.4220   61.0980 C   0  0  0  0  0  0  0  0  0  0  0  0
   43.5000   85.9770   61.3400 N   0  0  0  0  0  0  0  0  0  0  0  0
   43.1730   84.6550   61.3510 C   0  0  0  0  0  0  0  0  0  0  0  0
   44.1140   83.7510   61.1130 N   0  0  0  0  0  0  0  0  0  0  0  0
   46.1640   83.4040   60.6660 H   0  0  0  0  0  0  0  0  0  0  0  0
   46.7230   85.8610   60.6580 H   0  0  0  0  0  0  0  0  0  0  0  0
   44.8640   87.4960   61.1210 H   0  0  0  0  0  0  0  0  0  0  0  0
  1  2  1  0  0  0  0
  2  3  2  0  0  0  0
  2  7  1  0  0  0  0
  3  8  1  0  0  0  0
  4  9  1  0  0  0  0
  4  3  1  0  0  0  0
  5  4  2  0  0  0  0
  6  5  1  0  0  0  0
  6  1  2  0  0  0  0
 10  5  1  0  0  0  0
 11  6  1  0  0  0  0
 12 11  1  0  0  0  0
 12 17  1  0  0  0  0
 13 12  2  0  0  0  0
 14 15  2  0  0  0  0
 14 13  1  0  0  0  0
 15 16  1  0  0  0  0
 16 11  2  0  0  0  0
 18 13  1  0  0  0  0
 19 20  1  0  0  0  0
 20 21  2  0  0  0  0
 20 22  1  0  0  0  0
 22 23  1  0  0  0  0
 22 15  1  0  0  0  0
 24 29  1  0  0  0  0
 25 24  2  0  0  0  0
 25 26  1  0  0  0  0
 26 32  1  0  0  0  0
 26 27  2  0  0  0  0
 27 28  1  0  0  0  0
 28  1  1  0  0  0  0
 29 28  2  0  0  0  0
 30 24  1  0  0  0  0
 31 25  1  0  0  0  0
M  END
>  <minimizedAffinity>
-5.66760397

>  <minimizedRMSD>
0.0571115166

$$$$
