
 OpenBabel03212521043D

 32 34  0  0  0  0  0  0  0  0999 V2000
   41.8070   84.2310   61.5740 C   0  0  0  0  0  0  0  0  0  0  0  0
   41.4320   83.9680   62.8830 C   0  0  0  0  0  0  0  0  0  0  0  0
   40.1560   83.5640   63.2020 C   0  0  0  0  0  0  0  0  0  0  0  0
   39.2130   83.4140   62.1800 C   0  0  0  0  0  0  0  0  0  0  0  0
   39.5940   83.6790   60.8690 C   0  0  0  0  0  0  0  0  0  0  0  0
   40.8740   84.0840   60.5550 C   0  0  0  0  0  0  0  0  0  0  0  0
   42.0920   84.0590   63.7230 H   0  0  0  0  0  0  0  0  0  0  0  0
   39.8470   83.3550   64.2190 H   0  0  0  0  0  0  0  0  0  0  0  0
   38.2160   83.1030   62.3850 H   0  0  0  0  0  0  0  0  0  0  0  0
   38.8340   83.5510   60.1040 H   0  0  0  0  0  0  0  0  0  0  0  0
   41.2180   84.3460   59.1770 C   0  0  0  0  0  0  0  0  0  0  0  0
   40.7850   85.6210   58.7790 C   0  0  0  0  0  0  0  0  0  0  0  0
   41.0120   86.0810   57.4850 C   0  0  0  0  0  0  0  0  0  0  0  0
   41.6580   85.2550   56.6520 N   0  0  0  0  0  0  0  0  0  0  0  0
   42.0740   84.0230   57.0420 C   0  0  0  0  0  0  0  0  0  0  0  0
   41.8570   83.5700   58.2970 N   0  0  0  0  0  0  0  0  0  0  0  0
   40.2530   86.3450   59.4070 H   0  0  0  0  0  0  0  0  0  0  0  0
   40.6930   87.0560   57.1430 H   0  0  0  0  0  0  0  0  0  0  0  0
   43.7410   81.4580   55.4620 H   0  0  0  0  0  0  0  0  0  0  0  0
   43.2620   81.8700   56.3500 C   0  0  0  0  0  0  0  0  0  0  0  0
   43.0330   81.4890   57.5420 O   0  0  0  0  0  0  0  0  0  0  0  0
   42.7570   83.1830   56.1170 N   0  0  0  0  0  0  0  0  0  0  0  0
   42.8370   83.6980   55.1900 H   0  0  0  0  0  0  0  0  0  0  0  0
   45.3550   84.1210   60.7140 C   0  0  0  0  0  0  0  0  0  0  0  0
   45.7420   85.4530   60.7660 C   0  0  0  0  0  0  0  0  0  0  0  0
   44.7570   86.4150   61.1040 C   0  0  0  0  0  0  0  0  0  0  0  0
   43.5110   85.9710   61.3540 N   0  0  0  0  0  0  0  0  0  0  0  0
   43.1660   84.6550   61.2950 C   0  0  0  0  0  0  0  0  0  0  0  0
   44.0890   83.7550   60.9780 N   0  0  0  0  0  0  0  0  0  0  0  0
   46.1210   83.4110   60.4540 H   0  0  0  0  0  0  0  0  0  0  0  0
   46.7140   85.8570   60.5770 H   0  0  0  0  0  0  0  0  0  0  0  0
   44.8890   87.4840   61.1890 H   0  0  0  0  0  0  0  0  0  0  0  0
  1  2  1  0  0  0  0
  2  3  2  0  0  0  0
  2  7  1  0  0  0  0
  3  8  1  0  0  0  0
  4  9  1  0  0  0  0
  4  3  1  0  0  0  0
  5  4  2  0  0  0  0
  6  5  1  0  0  0  0
  6  1  2  0  0  0  0
 10  5  1  0  0  0  0
 11  6  1  0  0  0  0
 12 11  1  0  0  0  0
 12 17  1  0  0  0  0
 13 12  2  0  0  0  0
 14 15  2  0  0  0  0
 14 13  1  0  0  0  0
 15 16  1  0  0  0  0
 16 11  2  0  0  0  0
 18 13  1  0  0  0  0
 19 20  1  0  0  0  0
 20 21  2  0  0  0  0
 22 20  1  0  0  0  0
 22 15  1  0  0  0  0
 23 22  1  0  0  0  0
 24 25  2  0  0  0  0
 24 29  1  0  0  0  0
 25 26  1  0  0  0  0
 26 32  1  0  0  0  0
 26 27  2  0  0  0  0
 28 27  1  0  0  0  0
 28  1  1  0  0  0  0
 29 28  2  0  0  0  0
 30 24  1  0  0  0  0
 31 25  1  0  0  0  0
M  END
>  <minimizedAffinity>
-5.42697048

>  <minimizedRMSD>
0.091716513

$$$$
