
 OpenBabel03212521053D

 32 34  0  0  0  0  0  0  0  0999 V2000
   41.8020   84.2350   61.5850 C   0  0  0  0  0  0  0  0  0  0  0  0
   41.4260   83.9390   62.8860 C   0  0  0  0  0  0  0  0  0  0  0  0
   40.1450   83.5410   63.1960 C   0  0  0  0  0  0  0  0  0  0  0  0
   39.1990   83.4320   62.1710 C   0  0  0  0  0  0  0  0  0  0  0  0
   39.5810   83.7300   60.8680 C   0  0  0  0  0  0  0  0  0  0  0  0
   40.8660   84.1280   60.5630 C   0  0  0  0  0  0  0  0  0  0  0  0
   42.0880   83.9980   63.7280 H   0  0  0  0  0  0  0  0  0  0  0  0
   39.8360   83.3070   64.2070 H   0  0  0  0  0  0  0  0  0  0  0  0
   38.1990   83.1280   62.3690 H   0  0  0  0  0  0  0  0  0  0  0  0
   38.8180   83.6330   60.1010 H   0  0  0  0  0  0  0  0  0  0  0  0
   41.2110   84.4260   59.1930 C   0  0  0  0  0  0  0  0  0  0  0  0
   40.6640   85.6530   58.7860 C   0  0  0  0  0  0  0  0  0  0  0  0
   40.8710   86.1360   57.4970 C   0  0  0  0  0  0  0  0  0  0  0  0
   41.6120   85.3780   56.6770 N   0  0  0  0  0  0  0  0  0  0  0  0
   42.1390   84.1930   57.0770 C   0  0  0  0  0  0  0  0  0  0  0  0
   41.9410   83.7180   58.3260 N   0  0  0  0  0  0  0  0  0  0  0  0
   40.0490   86.3200   59.4020 H   0  0  0  0  0  0  0  0  0  0  0  0
   40.4650   87.0760   57.1490 H   0  0  0  0  0  0  0  0  0  0  0  0
   44.2590   81.9310   55.5790 H   0  0  0  0  0  0  0  0  0  0  0  0
   43.7840   82.3340   56.4730 C   0  0  0  0  0  0  0  0  0  0  0  0
   43.7950   82.0890   57.7220 O   0  0  0  0  0  0  0  0  0  0  0  0
   42.9200   83.4260   56.1660 N   0  0  0  0  0  0  0  0  0  0  0  0
   42.7580   83.8010   55.1830 H   0  0  0  0  0  0  0  0  0  0  0  0
   45.3580   84.1010   60.7610 C   0  0  0  0  0  0  0  0  0  0  0  0
   45.7500   85.4320   60.8050 C   0  0  0  0  0  0  0  0  0  0  0  0
   44.7670   86.4020   61.1250 C   0  0  0  0  0  0  0  0  0  0  0  0
   43.5160   85.9660   61.3660 N   0  0  0  0  0  0  0  0  0  0  0  0
   43.1660   84.6500   61.3160 C   0  0  0  0  0  0  0  0  0  0  0  0
   44.0870   83.7430   61.0160 N   0  0  0  0  0  0  0  0  0  0  0  0
   46.1240   83.3860   60.5160 H   0  0  0  0  0  0  0  0  0  0  0  0
   46.7260   85.8300   60.6230 H   0  0  0  0  0  0  0  0  0  0  0  0
   44.9030   87.4700   61.2010 H   0  0  0  0  0  0  0  0  0  0  0  0
  1  2  1  0  0  0  0
  2  3  2  0  0  0  0
  2  7  1  0  0  0  0
  3  8  1  0  0  0  0
  4  9  1  0  0  0  0
  4  3  1  0  0  0  0
  5  4  2  0  0  0  0
  6  5  1  0  0  0  0
  6  1  2  0  0  0  0
 10  5  1  0  0  0  0
 11  6  1  0  0  0  0
 12 11  1  0  0  0  0
 12 17  1  0  0  0  0
 13 12  2  0  0  0  0
 14 15  2  0  0  0  0
 14 13  1  0  0  0  0
 15 16  1  0  0  0  0
 16 11  2  0  0  0  0
 18 13  1  0  0  0  0
 19 20  1  0  0  0  0
 20 21  2  0  0  0  0
 22 20  1  0  0  0  0
 22 15  1  0  0  0  0
 23 22  1  0  0  0  0
 24 25  2  0  0  0  0
 24 29  1  0  0  0  0
 25 26  1  0  0  0  0
 26 32  1  0  0  0  0
 26 27  2  0  0  0  0
 28 27  1  0  0  0  0
 28  1  1  0  0  0  0
 29 28  2  0  0  0  0
 30 24  1  0  0  0  0
 31 25  1  0  0  0  0
M  END
>  <minimizedAffinity>
-5.42038441

>  <minimizedRMSD>
0.131108999

$$$$
