
 OpenBabel03212521053D

 32 34  0  0  0  0  0  0  0  0999 V2000
   41.8050   84.2310   61.5980 C   0  0  0  0  0  0  0  0  0  0  0  0
   41.4180   83.9680   62.9040 C   0  0  0  0  0  0  0  0  0  0  0  0
   40.1370   83.5690   63.2110 C   0  0  0  0  0  0  0  0  0  0  0  0
   39.2020   83.4230   62.1810 C   0  0  0  0  0  0  0  0  0  0  0  0
   39.5950   83.6870   60.8740 C   0  0  0  0  0  0  0  0  0  0  0  0
   40.8800   84.0880   60.5700 C   0  0  0  0  0  0  0  0  0  0  0  0
   42.0710   84.0560   63.7490 H   0  0  0  0  0  0  0  0  0  0  0  0
   39.8190   83.3600   64.2250 H   0  0  0  0  0  0  0  0  0  0  0  0
   38.2020   83.1160   62.3770 H   0  0  0  0  0  0  0  0  0  0  0  0
   38.8410   83.5630   60.1020 H   0  0  0  0  0  0  0  0  0  0  0  0
   41.2360   84.3500   59.1960 C   0  0  0  0  0  0  0  0  0  0  0  0
   40.7570   85.6000   58.7760 C   0  0  0  0  0  0  0  0  0  0  0  0
   40.9870   86.0560   57.4810 C   0  0  0  0  0  0  0  0  0  0  0  0
   41.6820   85.2490   56.6680 N   0  0  0  0  0  0  0  0  0  0  0  0
   42.1430   84.0410   57.0800 C   0  0  0  0  0  0  0  0  0  0  0  0
   41.9240   83.5920   58.3360 N   0  0  0  0  0  0  0  0  0  0  0  0
   40.1830   86.3080   59.3860 H   0  0  0  0  0  0  0  0  0  0  0  0
   40.6330   87.0130   57.1230 H   0  0  0  0  0  0  0  0  0  0  0  0
   44.4280   81.9590   55.5630 H   0  0  0  0  0  0  0  0  0  0  0  0
   44.0830   82.5080   56.4390 C   0  0  0  0  0  0  0  0  0  0  0  0
   44.4740   82.6810   57.6380 O   0  0  0  0  0  0  0  0  0  0  0  0
   42.8770   83.2210   56.1760 N   0  0  0  0  0  0  0  0  0  0  0  0
   42.3740   83.2180   55.2390 H   0  0  0  0  0  0  0  0  0  0  0  0
   45.3700   84.1040   60.8170 C   0  0  0  0  0  0  0  0  0  0  0  0
   45.7510   85.4380   60.8240 C   0  0  0  0  0  0  0  0  0  0  0  0
   44.7560   86.4080   61.1050 C   0  0  0  0  0  0  0  0  0  0  0  0
   43.5070   85.9690   61.3460 N   0  0  0  0  0  0  0  0  0  0  0  0
   43.1680   84.6500   61.3310 C   0  0  0  0  0  0  0  0  0  0  0  0
   44.1000   83.7420   61.0680 N   0  0  0  0  0  0  0  0  0  0  0  0
   46.1440   83.3870   60.6010 H   0  0  0  0  0  0  0  0  0  0  0  0
   46.7250   85.8400   60.6410 H   0  0  0  0  0  0  0  0  0  0  0  0
   44.8820   87.4800   61.1500 H   0  0  0  0  0  0  0  0  0  0  0  0
  1  2  1  0  0  0  0
  2  3  2  0  0  0  0
  2  7  1  0  0  0  0
  3  8  1  0  0  0  0
  4  9  1  0  0  0  0
  4  3  1  0  0  0  0
  5  4  2  0  0  0  0
  6  5  1  0  0  0  0
  6  1  2  0  0  0  0
 10  5  1  0  0  0  0
 11  6  1  0  0  0  0
 12 11  1  0  0  0  0
 12 17  1  0  0  0  0
 13 12  2  0  0  0  0
 14 15  2  0  0  0  0
 14 13  1  0  0  0  0
 15 16  1  0  0  0  0
 16 11  2  0  0  0  0
 18 13  1  0  0  0  0
 19 20  1  0  0  0  0
 20 21  2  0  0  0  0
 22 20  1  0  0  0  0
 22 15  1  0  0  0  0
 23 22  1  0  0  0  0
 24 25  2  0  0  0  0
 24 29  1  0  0  0  0
 25 26  1  0  0  0  0
 26 32  1  0  0  0  0
 26 27  2  0  0  0  0
 28 27  1  0  0  0  0
 28  1  1  0  0  0  0
 29 28  2  0  0  0  0
 30 24  1  0  0  0  0
 31 25  1  0  0  0  0
M  END
>  <minimizedAffinity>
-5.41976357

>  <minimizedRMSD>
0.0204124432

$$$$
