
 OpenBabel03212521043D

 32 34  0  0  0  0  0  0  0  0999 V2000
   41.8030   84.2370   61.5640 C   0  0  0  0  0  0  0  0  0  0  0  0
   41.4370   83.9600   62.8740 C   0  0  0  0  0  0  0  0  0  0  0  0
   40.1630   83.5510   63.1970 C   0  0  0  0  0  0  0  0  0  0  0  0
   39.2130   83.4120   62.1800 C   0  0  0  0  0  0  0  0  0  0  0  0
   39.5840   83.6900   60.8700 C   0  0  0  0  0  0  0  0  0  0  0  0
   40.8620   84.1000   60.5500 C   0  0  0  0  0  0  0  0  0  0  0  0
   42.1040   84.0420   63.7100 H   0  0  0  0  0  0  0  0  0  0  0  0
   39.8630   83.3310   64.2140 H   0  0  0  0  0  0  0  0  0  0  0  0
   38.2180   83.0980   62.3890 H   0  0  0  0  0  0  0  0  0  0  0  0
   38.8190   83.5700   60.1090 H   0  0  0  0  0  0  0  0  0  0  0  0
   41.1950   84.3770   59.1730 C   0  0  0  0  0  0  0  0  0  0  0  0
   40.7640   85.6570   58.7930 C   0  0  0  0  0  0  0  0  0  0  0  0
   40.9810   86.1320   57.5030 C   0  0  0  0  0  0  0  0  0  0  0  0
   41.6180   85.3130   56.6550 N   0  0  0  0  0  0  0  0  0  0  0  0
   42.0340   84.0760   57.0280 C   0  0  0  0  0  0  0  0  0  0  0  0
   41.8260   83.6090   58.2790 N   0  0  0  0  0  0  0  0  0  0  0  0
   40.2380   86.3760   59.4330 H   0  0  0  0  0  0  0  0  0  0  0  0
   40.6620   87.1110   57.1750 H   0  0  0  0  0  0  0  0  0  0  0  0
   43.4880   81.4610   55.3230 H   0  0  0  0  0  0  0  0  0  0  0  0
   42.9500   81.8440   56.1890 C   0  0  0  0  0  0  0  0  0  0  0  0
   42.4780   81.3680   57.2730 O   0  0  0  0  0  0  0  0  0  0  0  0
   42.7070   83.2450   56.0880 N   0  0  0  0  0  0  0  0  0  0  0  0
   43.0140   83.8450   55.2650 H   0  0  0  0  0  0  0  0  0  0  0  0
   45.3430   84.1390   60.6740 C   0  0  0  0  0  0  0  0  0  0  0  0
   45.7300   85.4700   60.7400 C   0  0  0  0  0  0  0  0  0  0  0  0
   44.7490   86.4270   61.1000 C   0  0  0  0  0  0  0  0  0  0  0  0
   43.5050   85.9800   61.3540 N   0  0  0  0  0  0  0  0  0  0  0  0
   43.1590   84.6640   61.2800 C   0  0  0  0  0  0  0  0  0  0  0  0
   44.0790   83.7690   60.9430 N   0  0  0  0  0  0  0  0  0  0  0  0
   46.1070   83.4320   60.3980 H   0  0  0  0  0  0  0  0  0  0  0  0
   46.7010   85.8770   60.5500 H   0  0  0  0  0  0  0  0  0  0  0  0
   44.8820   87.4940   61.1980 H   0  0  0  0  0  0  0  0  0  0  0  0
  1  2  1  0  0  0  0
  2  3  2  0  0  0  0
  2  7  1  0  0  0  0
  3  8  1  0  0  0  0
  4  9  1  0  0  0  0
  4  3  1  0  0  0  0
  5  4  2  0  0  0  0
  6  5  1  0  0  0  0
  6  1  2  0  0  0  0
 10  5  1  0  0  0  0
 11  6  1  0  0  0  0
 12 11  1  0  0  0  0
 12 17  1  0  0  0  0
 13 12  2  0  0  0  0
 14 15  2  0  0  0  0
 14 13  1  0  0  0  0
 15 16  1  0  0  0  0
 16 11  2  0  0  0  0
 18 13  1  0  0  0  0
 19 20  1  0  0  0  0
 20 21  2  0  0  0  0
 22 20  1  0  0  0  0
 22 15  1  0  0  0  0
 23 22  1  0  0  0  0
 24 25  2  0  0  0  0
 24 29  1  0  0  0  0
 25 26  1  0  0  0  0
 26 32  1  0  0  0  0
 26 27  2  0  0  0  0
 28 27  1  0  0  0  0
 28  1  1  0  0  0  0
 29 28  2  0  0  0  0
 30 24  1  0  0  0  0
 31 25  1  0  0  0  0
M  END
>  <minimizedAffinity>
-5.43948841

>  <minimizedRMSD>
0.129070252

$$$$
