
 OpenBabel03212521053D

 32 34  0  0  0  0  0  0  0  0999 V2000
   41.7840   84.1680   61.5690 C   0  0  0  0  0  0  0  0  0  0  0  0
   41.4180   83.9110   62.8820 C   0  0  0  0  0  0  0  0  0  0  0  0
   40.1300   83.5630   63.2180 C   0  0  0  0  0  0  0  0  0  0  0  0
   39.1650   83.4650   62.2100 C   0  0  0  0  0  0  0  0  0  0  0  0
   39.5370   83.7230   60.8960 C   0  0  0  0  0  0  0  0  0  0  0  0
   40.8300   84.0720   60.5640 C   0  0  0  0  0  0  0  0  0  0  0  0
   42.0950   83.9640   63.7120 H   0  0  0  0  0  0  0  0  0  0  0  0
   39.8290   83.3590   64.2380 H   0  0  0  0  0  0  0  0  0  0  0  0
   38.1580   83.1980   62.4290 H   0  0  0  0  0  0  0  0  0  0  0  0
   38.7600   83.6360   60.1420 H   0  0  0  0  0  0  0  0  0  0  0  0
   41.1630   84.3310   59.1830 C   0  0  0  0  0  0  0  0  0  0  0  0
   40.8810   85.6590   58.8320 C   0  0  0  0  0  0  0  0  0  0  0  0
   41.1250   86.1260   57.5440 C   0  0  0  0  0  0  0  0  0  0  0  0
   41.6390   85.2510   56.6680 N   0  0  0  0  0  0  0  0  0  0  0  0
   41.9090   83.9670   57.0140 C   0  0  0  0  0  0  0  0  0  0  0  0
   41.6740   83.5070   58.2630 N   0  0  0  0  0  0  0  0  0  0  0  0
   40.4620   86.4260   59.4950 H   0  0  0  0  0  0  0  0  0  0  0  0
   40.9210   87.1430   57.2370 H   0  0  0  0  0  0  0  0  0  0  0  0
   42.5190   81.3750   54.8300 H   0  0  0  0  0  0  0  0  0  0  0  0
   41.8850   81.8560   55.5740 C   0  0  0  0  0  0  0  0  0  0  0  0
   40.7680   81.6170   56.1360 O   0  0  0  0  0  0  0  0  0  0  0  0
   42.4550   83.0760   56.0450 N   0  0  0  0  0  0  0  0  0  0  0  0
   43.3840   83.4690   55.7110 H   0  0  0  0  0  0  0  0  0  0  0  0
   45.2960   83.9110   60.6030 C   0  0  0  0  0  0  0  0  0  0  0  0
   45.7570   85.2160   60.7060 C   0  0  0  0  0  0  0  0  0  0  0  0
   44.8360   86.2120   61.1190 C   0  0  0  0  0  0  0  0  0  0  0  0
   43.5750   85.8230   61.3830 N   0  0  0  0  0  0  0  0  0  0  0  0
   43.1570   84.5320   61.2720 C   0  0  0  0  0  0  0  0  0  0  0  0
   44.0200   83.6010   60.8850 N   0  0  0  0  0  0  0  0  0  0  0  0
   46.0160   83.1750   60.2870 H   0  0  0  0  0  0  0  0  0  0  0  0
   46.7440   85.5770   60.5100 H   0  0  0  0  0  0  0  0  0  0  0  0
   45.0290   87.2660   61.2500 H   0  0  0  0  0  0  0  0  0  0  0  0
  1  2  1  0  0  0  0
  2  3  2  0  0  0  0
  2  7  1  0  0  0  0
  3  8  1  0  0  0  0
  4  9  1  0  0  0  0
  4  3  1  0  0  0  0
  5  4  2  0  0  0  0
  6  5  1  0  0  0  0
  6  1  2  0  0  0  0
 10  5  1  0  0  0  0
 11  6  1  0  0  0  0
 12 11  1  0  0  0  0
 12 17  1  0  0  0  0
 13 12  2  0  0  0  0
 14 15  2  0  0  0  0
 14 13  1  0  0  0  0
 15 16  1  0  0  0  0
 16 11  2  0  0  0  0
 18 13  1  0  0  0  0
 19 20  1  0  0  0  0
 20 22  1  0  0  0  0
 20 21  2  0  0  0  0
 22 15  1  0  0  0  0
 23 22  1  0  0  0  0
 24 25  2  0  0  0  0
 24 29  1  0  0  0  0
 25 26  1  0  0  0  0
 26 32  1  0  0  0  0
 26 27  2  0  0  0  0
 28 27  1  0  0  0  0
 28  1  1  0  0  0  0
 29 28  2  0  0  0  0
 30 24  1  0  0  0  0
 31 25  1  0  0  0  0
M  END
>  <minimizedAffinity>
-5.63891935

>  <minimizedRMSD>
0.294078618

$$$$
