
 OpenBabel03212521053D

 32 34  0  0  0  0  0  0  0  0999 V2000
   41.8130   84.2380   61.5610 C   0  0  0  0  0  0  0  0  0  0  0  0
   41.4630   83.9570   62.8740 C   0  0  0  0  0  0  0  0  0  0  0  0
   40.1950   83.5410   63.2110 C   0  0  0  0  0  0  0  0  0  0  0  0
   39.2350   83.3970   62.2040 C   0  0  0  0  0  0  0  0  0  0  0  0
   39.5900   83.6780   60.8900 C   0  0  0  0  0  0  0  0  0  0  0  0
   40.8630   84.0950   60.5570 C   0  0  0  0  0  0  0  0  0  0  0  0
   42.1380   84.0430   63.7030 H   0  0  0  0  0  0  0  0  0  0  0  0
   39.9070   83.3180   64.2310 H   0  0  0  0  0  0  0  0  0  0  0  0
   38.2440   83.0770   62.4240 H   0  0  0  0  0  0  0  0  0  0  0  0
   38.8170   83.5540   60.1380 H   0  0  0  0  0  0  0  0  0  0  0  0
   41.1790   84.3760   59.1760 C   0  0  0  0  0  0  0  0  0  0  0  0
   40.7720   85.6680   58.8140 C   0  0  0  0  0  0  0  0  0  0  0  0
   40.9790   86.1480   57.5240 C   0  0  0  0  0  0  0  0  0  0  0  0
   41.5820   85.3210   56.6590 N   0  0  0  0  0  0  0  0  0  0  0  0
   41.9740   84.0720   57.0160 C   0  0  0  0  0  0  0  0  0  0  0  0
   41.7760   83.6000   58.2660 N   0  0  0  0  0  0  0  0  0  0  0  0
   40.2750   86.3950   59.4680 H   0  0  0  0  0  0  0  0  0  0  0  0
   40.6790   87.1380   57.2090 H   0  0  0  0  0  0  0  0  0  0  0  0
   43.7840   82.7810   54.3860 H   0  0  0  0  0  0  0  0  0  0  0  0
   43.4260   83.6350   54.9590 C   0  0  0  0  0  0  0  0  0  0  0  0
   43.5420   84.9020   54.9070 O   0  0  0  0  0  0  0  0  0  0  0  0
   42.6110   83.2320   56.0580 N   0  0  0  0  0  0  0  0  0  0  0  0
   42.3800   82.2200   56.2900 H   0  0  0  0  0  0  0  0  0  0  0  0
   45.3380   84.1640   60.6100 C   0  0  0  0  0  0  0  0  0  0  0  0
   45.7240   85.4940   60.6960 C   0  0  0  0  0  0  0  0  0  0  0  0
   44.7470   86.4420   61.0900 C   0  0  0  0  0  0  0  0  0  0  0  0
   43.5080   85.9880   61.3560 N   0  0  0  0  0  0  0  0  0  0  0  0
   43.1640   84.6730   61.2630 C   0  0  0  0  0  0  0  0  0  0  0  0
   44.0790   83.7860   60.8930 N   0  0  0  0  0  0  0  0  0  0  0  0
   46.0990   83.4640   60.3080 H   0  0  0  0  0  0  0  0  0  0  0  0
   46.6900   85.9070   60.4970 H   0  0  0  0  0  0  0  0  0  0  0  0
   44.8800   87.5080   61.2060 H   0  0  0  0  0  0  0  0  0  0  0  0
  1  2  1  0  0  0  0
  2  3  2  0  0  0  0
  2  7  1  0  0  0  0
  3  8  1  0  0  0  0
  4  9  1  0  0  0  0
  4  3  1  0  0  0  0
  5  4  2  0  0  0  0
  6  5  1  0  0  0  0
  6  1  2  0  0  0  0
 10  5  1  0  0  0  0
 11  6  1  0  0  0  0
 12 11  1  0  0  0  0
 12 17  1  0  0  0  0
 13 12  2  0  0  0  0
 14 15  2  0  0  0  0
 14 13  1  0  0  0  0
 15 16  1  0  0  0  0
 16 11  2  0  0  0  0
 18 13  1  0  0  0  0
 19 20  1  0  0  0  0
 20 22  1  0  0  0  0
 21 20  2  0  0  0  0
 22 23  1  0  0  0  0
 22 15  1  0  0  0  0
 24 25  2  0  0  0  0
 24 29  1  0  0  0  0
 25 26  1  0  0  0  0
 26 32  1  0  0  0  0
 26 27  2  0  0  0  0
 28 27  1  0  0  0  0
 28  1  1  0  0  0  0
 29 28  2  0  0  0  0
 30 24  1  0  0  0  0
 31 25  1  0  0  0  0
M  END
>  <minimizedAffinity>
-5.66673088

>  <minimizedRMSD>
0.159349322

$$$$
