
 OpenBabel03212520143D

 27 28  0  0  0  0  0  0  0  0999 V2000
   42.4970   71.3290   62.2760 Cl  0  0  0  0  0  0  0  0  0  0  0  0
   41.9810   70.5430   60.7820 C   0  0  0  0  0  0  0  0  0  0  0  0
   41.3800   71.2360   59.7430 C   0  0  0  0  0  0  0  0  0  0  0  0
   41.0350   70.4770   58.6400 C   0  0  0  0  0  0  0  0  0  0  0  0
   41.2420   69.1130   58.5100 C   0  0  0  0  0  0  0  0  0  0  0  0
   41.8320   68.4720   59.5500 C   0  0  0  0  0  0  0  0  0  0  0  0
   42.1320   66.7470   59.4660 Cl  0  0  0  0  0  0  0  0  0  0  0  0
   42.1980   69.1790   60.6720 C   0  0  0  0  0  0  0  0  0  0  0  0
   40.5620   70.9860   57.8060 H   0  0  0  0  0  0  0  0  0  0  0  0
   40.9260   68.6160   57.5890 H   0  0  0  0  0  0  0  0  0  0  0  0
   42.0380   73.6700   59.5100 C   0  0  0  0  0  0  0  0  0  0  0  0
   41.1640   72.6380   59.8700 C   0  0  0  0  0  0  0  0  0  0  0  0
   39.9370   73.0090   60.4210 C   0  0  0  0  0  0  0  0  0  0  0  0
   39.6620   74.3240   60.5730 N   0  0  0  0  0  0  0  0  0  0  0  0
   40.5290   75.2950   60.2140 C   0  0  0  0  0  0  0  0  0  0  0  0
   41.7200   74.9550   59.6810 N   0  0  0  0  0  0  0  0  0  0  0  0
   42.9760   73.3380   59.0880 H   0  0  0  0  0  0  0  0  0  0  0  0
   39.2000   72.2790   60.7290 H   0  0  0  0  0  0  0  0  0  0  0  0
   40.0750   76.6910   60.4480 C   0  0  0  0  0  0  0  0  0  0  0  0
   41.1210   77.5830   60.4150 F   0  0  0  0  0  0  0  0  0  0  0  0
   39.1710   77.0590   59.4630 F   0  0  0  0  0  0  0  0  0  0  0  0
   39.5110   76.8310   61.7080 F   0  0  0  0  0  0  0  0  0  0  0  0
   42.6120   67.3260   63.6100 H   0  0  0  0  0  0  0  0  0  0  0  0
   42.1040   67.8540   62.8150 C   0  0  0  0  0  0  0  0  0  0  0  0
   40.8400   67.8390   62.9760 O   0  0  0  0  0  0  0  0  0  0  0  0
   42.8160   68.4720   61.7430 N   0  0  0  0  0  0  0  0  0  0  0  0
   43.8540   68.3760   61.7860 H   0  0  0  0  0  0  0  0  0  0  0  0
  2  1  1  0  0  0  0
  3 12  1  0  0  0  0
  3  2  2  0  0  0  0
  4  3  1  0  0  0  0
  5  4  2  0  0  0  0
  5  6  1  0  0  0  0
  6  8  2  0  0  0  0
  7  6  1  0  0  0  0
  8  2  1  0  0  0  0
  8 26  1  0  0  0  0
  9  4  1  0  0  0  0
 10  5  1  0  0  0  0
 11 16  2  0  0  0  0
 11 12  1  0  0  0  0
 12 13  2  0  0  0  0
 13 14  1  0  0  0  0
 13 18  1  0  0  0  0
 15 19  1  0  0  0  0
 15 14  2  0  0  0  0
 16 15  1  0  0  0  0
 17 11  1  0  0  0  0
 19 22  1  0  0  0  0
 20 19  1  0  0  0  0
 21 19  1  0  0  0  0
 24 25  2  0  0  0  0
 24 23  1  0  0  0  0
 26 27  1  0  0  0  0
 26 24  1  0  0  0  0
M  END
>  <minimizedAffinity>
-5.42448235

$$$$

 OpenBabel03212520143D

 27 28  0  0  0  0  0  0  0  0999 V2000
   38.9220   72.7970   56.8750 Cl  0  0  0  0  0  0  0  0  0  0  0  0
   38.7450   74.5370   57.1190 C   0  0  0  0  0  0  0  0  0  0  0  0
   39.1380   75.1700   58.2880 C   0  0  0  0  0  0  0  0  0  0  0  0
   38.9340   76.5360   58.3240 C   0  0  0  0  0  0  0  0  0  0  0  0
   38.3780   77.2900   57.3030 C   0  0  0  0  0  0  0  0  0  0  0  0
   38.0060   76.6320   56.1760 C   0  0  0  0  0  0  0  0  0  0  0  0
   37.2960   77.5120   54.8360 Cl  0  0  0  0  0  0  0  0  0  0  0  0
   38.1880   75.2710   56.0850 C   0  0  0  0  0  0  0  0  0  0  0  0
   39.2300   77.0670   59.2240 H   0  0  0  0  0  0  0  0  0  0  0  0
   38.2640   78.3690   57.4430 H   0  0  0  0  0  0  0  0  0  0  0  0
   39.0420   73.7890   60.4080 C   0  0  0  0  0  0  0  0  0  0  0  0
   39.7090   74.4010   59.3410 C   0  0  0  0  0  0  0  0  0  0  0  0
   41.0950   74.2490   59.2900 C   0  0  0  0  0  0  0  0  0  0  0  0
   41.7090   73.5300   60.2580 N   0  0  0  0  0  0  0  0  0  0  0  0
   41.0340   72.9530   61.2740 C   0  0  0  0  0  0  0  0  0  0  0  0
   39.6930   73.0900   61.3400 N   0  0  0  0  0  0  0  0  0  0  0  0
   37.9700   73.9320   60.4090 H   0  0  0  0  0  0  0  0  0  0  0  0
   41.6940   74.6870   58.5020 H   0  0  0  0  0  0  0  0  0  0  0  0
   41.8550   72.1990   62.2560 C   0  0  0  0  0  0  0  0  0  0  0  0
   42.6590   73.0300   63.0000 F   0  0  0  0  0  0  0  0  0  0  0  0
   41.0250   71.5150   63.1310 F   0  0  0  0  0  0  0  0  0  0  0  0
   42.7220   71.3230   61.6170 F   0  0  0  0  0  0  0  0  0  0  0  0
   38.2790   73.9340   52.8540 H   0  0  0  0  0  0  0  0  0  0  0  0
   38.6240   74.4390   53.7460 C   0  0  0  0  0  0  0  0  0  0  0  0
   39.8310   74.8300   53.6250 O   0  0  0  0  0  0  0  0  0  0  0  0
   37.7850   74.6160   54.8870 N   0  0  0  0  0  0  0  0  0  0  0  0
   36.8220   74.2240   54.7950 H   0  0  0  0  0  0  0  0  0  0  0  0
  1  2  1  0  0  0  0
  2  3  1  0  0  0  0
  3  4  2  0  0  0  0
  3 12  1  0  0  0  0
  4  9  1  0  0  0  0
  5 10  1  0  0  0  0
  5  4  1  0  0  0  0
  6  5  2  0  0  0  0
  7  6  1  0  0  0  0
  8  6  1  0  0  0  0
  8  2  2  0  0  0  0
 11 17  1  0  0  0  0
 11 16  1  0  0  0  0
 12 11  2  0  0  0  0
 13 12  1  0  0  0  0
 13 14  2  0  0  0  0
 14 15  1  0  0  0  0
 15 16  2  0  0  0  0
 15 19  1  0  0  0  0
 18 13  1  0  0  0  0
 19 20  1  0  0  0  0
 19 21  1  0  0  0  0
 22 19  1  0  0  0  0
 23 24  1  0  0  0  0
 24 26  1  0  0  0  0
 25 24  2  0  0  0  0
 26  8  1  0  0  0  0
 27 26  1  0  0  0  0
M  END
>  <minimizedAffinity>
-5.29624176

$$$$

 OpenBabel03212520143D

 27 28  0  0  0  0  0  0  0  0999 V2000
   40.0020   71.1950   57.4110 Cl  0  0  0  0  0  0  0  0  0  0  0  0
   40.9750   70.4660   58.6910 C   0  0  0  0  0  0  0  0  0  0  0  0
   41.4550   71.1940   59.7690 C   0  0  0  0  0  0  0  0  0  0  0  0
   42.2010   70.4780   60.6860 C   0  0  0  0  0  0  0  0  0  0  0  0
   42.4930   69.1260   60.6010 C   0  0  0  0  0  0  0  0  0  0  0  0
   42.0050   68.4510   59.5300 C   0  0  0  0  0  0  0  0  0  0  0  0
   42.3280   66.7370   59.3470 Cl  0  0  0  0  0  0  0  0  0  0  0  0
   41.2550   69.1140   58.5860 C   0  0  0  0  0  0  0  0  0  0  0  0
   42.5940   71.0140   61.5450 H   0  0  0  0  0  0  0  0  0  0  0  0
   43.0960   68.6640   61.3890 H   0  0  0  0  0  0  0  0  0  0  0  0
   41.7910   73.6350   59.1910 C   0  0  0  0  0  0  0  0  0  0  0  0
   41.1590   72.5830   59.8620 C   0  0  0  0  0  0  0  0  0  0  0  0
   40.1160   72.9170   60.7260 C   0  0  0  0  0  0  0  0  0  0  0  0
   39.7770   74.2200   60.8670 N   0  0  0  0  0  0  0  0  0  0  0  0
   40.4090   75.2110   60.2030 C   0  0  0  0  0  0  0  0  0  0  0  0
   41.4200   74.9060   59.3640 N   0  0  0  0  0  0  0  0  0  0  0  0
   42.5930   73.3320   58.5320 H   0  0  0  0  0  0  0  0  0  0  0  0
   39.5700   72.1700   61.2870 H   0  0  0  0  0  0  0  0  0  0  0  0
   39.9170   76.5880   60.4690 C   0  0  0  0  0  0  0  0  0  0  0  0
   39.1300   77.0590   59.4440 F   0  0  0  0  0  0  0  0  0  0  0  0
   39.1560   76.5950   61.6270 F   0  0  0  0  0  0  0  0  0  0  0  0
   40.9700   77.4870   60.5680 F   0  0  0  0  0  0  0  0  0  0  0  0
   41.0220   67.6800   55.4040 H   0  0  0  0  0  0  0  0  0  0  0  0
   41.4320   68.2540   56.2230 C   0  0  0  0  0  0  0  0  0  0  0  0
   42.5500   68.7810   55.9110 O   0  0  0  0  0  0  0  0  0  0  0  0
   40.7600   68.3720   57.4760 N   0  0  0  0  0  0  0  0  0  0  0  0
   39.8490   67.8650   57.5400 H   0  0  0  0  0  0  0  0  0  0  0  0
  1  2  1  0  0  0  0
  2  3  1  0  0  0  0
  3 12  1  0  0  0  0
  3  4  2  0  0  0  0
  4  9  1  0  0  0  0
  5  4  1  0  0  0  0
  5 10  1  0  0  0  0
  6  5  2  0  0  0  0
  7  6  1  0  0  0  0
  8  2  2  0  0  0  0
  8  6  1  0  0  0  0
 11 16  2  0  0  0  0
 11 12  1  0  0  0  0
 12 13  2  0  0  0  0
 13 14  1  0  0  0  0
 13 18  1  0  0  0  0
 15 19  1  0  0  0  0
 15 14  2  0  0  0  0
 16 15  1  0  0  0  0
 17 11  1  0  0  0  0
 19 22  1  0  0  0  0
 19 21  1  0  0  0  0
 20 19  1  0  0  0  0
 23 24  1  0  0  0  0
 24 26  1  0  0  0  0
 25 24  2  0  0  0  0
 26 27  1  0  0  0  0
 26  8  1  0  0  0  0
M  END
>  <minimizedAffinity>
-5.2161479

$$$$

 OpenBabel03212520143D

 27 28  0  0  0  0  0  0  0  0999 V2000
   43.4070   73.9020   60.1880 Cl  0  0  0  0  0  0  0  0  0  0  0  0
   41.6480   74.0430   60.2410 C   0  0  0  0  0  0  0  0  0  0  0  0
   40.8400   73.0850   60.8330 C   0  0  0  0  0  0  0  0  0  0  0  0
   39.4830   73.3420   60.7930 C   0  0  0  0  0  0  0  0  0  0  0  0
   38.8950   74.4570   60.2170 C   0  0  0  0  0  0  0  0  0  0  0  0
   39.7210   75.3700   59.6470 C   0  0  0  0  0  0  0  0  0  0  0  0
   39.0580   76.8100   58.8970 Cl  0  0  0  0  0  0  0  0  0  0  0  0
   41.0820   75.1660   59.6600 C   0  0  0  0  0  0  0  0  0  0  0  0
   38.8180   72.6140   61.2470 H   0  0  0  0  0  0  0  0  0  0  0  0
   37.8060   74.5540   60.2440 H   0  0  0  0  0  0  0  0  0  0  0  0
   41.7570   71.7460   62.7760 C   0  0  0  0  0  0  0  0  0  0  0  0
   41.4380   71.9380   61.4270 C   0  0  0  0  0  0  0  0  0  0  0  0
   41.7340   70.8940   60.5500 C   0  0  0  0  0  0  0  0  0  0  0  0
   42.3050   69.7700   61.0430 N   0  0  0  0  0  0  0  0  0  0  0  0
   42.6000   69.6180   62.3520 C   0  0  0  0  0  0  0  0  0  0  0  0
   42.3210   70.6170   63.2130 N   0  0  0  0  0  0  0  0  0  0  0  0
   41.5110   72.5790   63.4190 H   0  0  0  0  0  0  0  0  0  0  0  0
   41.5230   70.9540   59.4910 H   0  0  0  0  0  0  0  0  0  0  0  0
   43.2250   68.3240   62.7310 C   0  0  0  0  0  0  0  0  0  0  0  0
   43.5930   67.5890   61.6290 F   0  0  0  0  0  0  0  0  0  0  0  0
   44.3640   68.5600   63.4850 F   0  0  0  0  0  0  0  0  0  0  0  0
   42.3330   67.5210   63.4280 F   0  0  0  0  0  0  0  0  0  0  0  0
   42.9620   76.8840   57.2620 H   0  0  0  0  0  0  0  0  0  0  0  0
   42.3260   76.1190   57.6850 C   0  0  0  0  0  0  0  0  0  0  0  0
   42.0180   75.2360   56.8200 O   0  0  0  0  0  0  0  0  0  0  0  0
   41.9170   76.1470   59.0520 N   0  0  0  0  0  0  0  0  0  0  0  0
   42.2750   76.9560   59.6060 H   0  0  0  0  0  0  0  0  0  0  0  0
  1  2  1  0  0  0  0
  2  3  1  0  0  0  0
  3 12  1  0  0  0  0
  4  3  2  0  0  0  0
  4  9  1  0  0  0  0
  5 10  1  0  0  0  0
  5  4  1  0  0  0  0
  6  8  1  0  0  0  0
  6  5  2  0  0  0  0
  7  6  1  0  0  0  0
  8  2  2  0  0  0  0
 11 16  1  0  0  0  0
 11 17  1  0  0  0  0
 12 11  2  0  0  0  0
 13 14  2  0  0  0  0
 13 12  1  0  0  0  0
 14 15  1  0  0  0  0
 15 19  1  0  0  0  0
 15 16  2  0  0  0  0
 18 13  1  0  0  0  0
 19 22  1  0  0  0  0
 19 21  1  0  0  0  0
 20 19  1  0  0  0  0
 23 24  1  0  0  0  0
 24 26  1  0  0  0  0
 25 24  2  0  0  0  0
 26 27  1  0  0  0  0
 26  8  1  0  0  0  0
M  END
>  <minimizedAffinity>
-5.2087779

$$$$

 OpenBabel03212520143D

 27 28  0  0  0  0  0  0  0  0999 V2000
   39.4800   72.9970   60.9310 Cl  0  0  0  0  0  0  0  0  0  0  0  0
   41.0890   73.5560   60.4680 C   0  0  0  0  0  0  0  0  0  0  0  0
   42.2340   72.8100   60.7000 C   0  0  0  0  0  0  0  0  0  0  0  0
   43.4180   73.3860   60.2780 C   0  0  0  0  0  0  0  0  0  0  0  0
   43.5320   74.6230   59.6620 C   0  0  0  0  0  0  0  0  0  0  0  0
   42.3870   75.3220   59.4550 C   0  0  0  0  0  0  0  0  0  0  0  0
   42.4430   76.8940   58.6800 Cl  0  0  0  0  0  0  0  0  0  0  0  0
   41.1800   74.7940   59.8530 C   0  0  0  0  0  0  0  0  0  0  0  0
   44.3350   72.8310   60.4420 H   0  0  0  0  0  0  0  0  0  0  0  0
   44.5240   74.9790   59.3710 H   0  0  0  0  0  0  0  0  0  0  0  0
   42.0580   71.2740   62.7040 C   0  0  0  0  0  0  0  0  0  0  0  0
   42.1240   71.5390   61.3320 C   0  0  0  0  0  0  0  0  0  0  0  0
   42.0780   70.4420   60.4720 C   0  0  0  0  0  0  0  0  0  0  0  0
   41.9740   69.2020   61.0010 N   0  0  0  0  0  0  0  0  0  0  0  0
   41.9130   68.9810   62.3320 C   0  0  0  0  0  0  0  0  0  0  0  0
   41.9560   70.0310   63.1780 N   0  0  0  0  0  0  0  0  0  0  0  0
   42.0970   72.1520   63.3350 H   0  0  0  0  0  0  0  0  0  0  0  0
   42.1230   70.5520   59.3960 H   0  0  0  0  0  0  0  0  0  0  0  0
   41.8010   67.5610   62.7510 C   0  0  0  0  0  0  0  0  0  0  0  0
   41.7160   66.7120   61.6730 F   0  0  0  0  0  0  0  0  0  0  0  0
   42.9200   67.2020   63.4870 F   0  0  0  0  0  0  0  0  0  0  0  0
   40.6420   67.3430   63.4830 F   0  0  0  0  0  0  0  0  0  0  0  0
   38.3200   76.0710   58.2960 H   0  0  0  0  0  0  0  0  0  0  0  0
   39.2100   75.4740   58.4350 C   0  0  0  0  0  0  0  0  0  0  0  0
   39.4310   74.7230   57.4280 O   0  0  0  0  0  0  0  0  0  0  0  0
   40.0010   75.5580   59.6200 N   0  0  0  0  0  0  0  0  0  0  0  0
   39.6560   76.2350   60.3360 H   0  0  0  0  0  0  0  0  0  0  0  0
  2  3  1  0  0  0  0
  2  1  1  0  0  0  0
  3 12  1  0  0  0  0
  4  9  1  0  0  0  0
  4  3  2  0  0  0  0
  5  4  1  0  0  0  0
  6  5  2  0  0  0  0
  6  8  1  0  0  0  0
  7  6  1  0  0  0  0
  8  2  2  0  0  0  0
 10  5  1  0  0  0  0
 11 16  1  0  0  0  0
 11 17  1  0  0  0  0
 12 11  2  0  0  0  0
 13 14  2  0  0  0  0
 13 12  1  0  0  0  0
 14 15  1  0  0  0  0
 15 19  1  0  0  0  0
 15 16  2  0  0  0  0
 18 13  1  0  0  0  0
 19 22  1  0  0  0  0
 19 21  1  0  0  0  0
 20 19  1  0  0  0  0
 23 24  1  0  0  0  0
 24 26  1  0  0  0  0
 25 24  2  0  0  0  0
 26  8  1  0  0  0  0
 26 27  1  0  0  0  0
M  END
>  <minimizedAffinity>
-5.19381285

$$$$

 OpenBabel03212520143D

 27 28  0  0  0  0  0  0  0  0999 V2000
   41.1500   70.2910   58.9660 Cl  0  0  0  0  0  0  0  0  0  0  0  0
   41.7950   70.0690   60.5940 C   0  0  0  0  0  0  0  0  0  0  0  0
   41.9080   71.1120   61.5010 C   0  0  0  0  0  0  0  0  0  0  0  0
   42.4310   70.7750   62.7350 C   0  0  0  0  0  0  0  0  0  0  0  0
   42.8390   69.5050   63.1130 C   0  0  0  0  0  0  0  0  0  0  0  0
   42.7120   68.5130   62.1960 C   0  0  0  0  0  0  0  0  0  0  0  0
   43.2020   66.8770   62.5940 Cl  0  0  0  0  0  0  0  0  0  0  0  0
   42.1950   68.7920   60.9510 C   0  0  0  0  0  0  0  0  0  0  0  0
   42.5350   71.5650   63.4710 H   0  0  0  0  0  0  0  0  0  0  0  0
   43.2390   69.3560   64.1200 H   0  0  0  0  0  0  0  0  0  0  0  0
   42.2050   73.3510   60.3580 C   0  0  0  0  0  0  0  0  0  0  0  0
   41.4920   72.4180   61.1190 C   0  0  0  0  0  0  0  0  0  0  0  0
   40.2250   72.7980   61.5620 C   0  0  0  0  0  0  0  0  0  0  0  0
   39.7610   74.0270   61.2370 N   0  0  0  0  0  0  0  0  0  0  0  0
   40.4770   74.9030   60.5010 C   0  0  0  0  0  0  0  0  0  0  0  0
   41.7040   74.5530   60.0640 N   0  0  0  0  0  0  0  0  0  0  0  0
   43.1820   73.0160   60.0360 H   0  0  0  0  0  0  0  0  0  0  0  0
   39.6020   72.1420   62.1550 H   0  0  0  0  0  0  0  0  0  0  0  0
   39.8260   76.2110   60.2330 C   0  0  0  0  0  0  0  0  0  0  0  0
   40.6730   77.0850   59.5920 F   0  0  0  0  0  0  0  0  0  0  0  0
   38.7170   76.0230   59.4220 F   0  0  0  0  0  0  0  0  0  0  0  0
   39.4670   76.8460   61.4140 F   0  0  0  0  0  0  0  0  0  0  0  0
   42.9830   66.5040   58.4250 H   0  0  0  0  0  0  0  0  0  0  0  0
   43.1130   67.3210   59.1220 C   0  0  0  0  0  0  0  0  0  0  0  0
   44.2740   67.8380   59.0240 O   0  0  0  0  0  0  0  0  0  0  0  0
   42.0770   67.7250   60.0160 N   0  0  0  0  0  0  0  0  0  0  0  0
   41.1920   67.1760   59.9460 H   0  0  0  0  0  0  0  0  0  0  0  0
  1  2  1  0  0  0  0
  2  8  2  0  0  0  0
  2  3  1  0  0  0  0
  3  4  2  0  0  0  0
  4  5  1  0  0  0  0
  4  9  1  0  0  0  0
  5 10  1  0  0  0  0
  6  7  1  0  0  0  0
  6  5  2  0  0  0  0
  8  6  1  0  0  0  0
 11 12  1  0  0  0  0
 12  3  1  0  0  0  0
 12 13  2  0  0  0  0
 13 18  1  0  0  0  0
 14 13  1  0  0  0  0
 15 14  2  0  0  0  0
 16 11  2  0  0  0  0
 16 15  1  0  0  0  0
 17 11  1  0  0  0  0
 19 15  1  0  0  0  0
 19 22  1  0  0  0  0
 20 19  1  0  0  0  0
 21 19  1  0  0  0  0
 23 24  1  0  0  0  0
 24 26  1  0  0  0  0
 25 24  2  0  0  0  0
 26  8  1  0  0  0  0
 27 26  1  0  0  0  0
M  END
>  <minimizedAffinity>
-5.1897459

$$$$

 OpenBabel03212520143D

 27 28  0  0  0  0  0  0  0  0999 V2000
   39.5200   72.7250   60.0770 Cl  0  0  0  0  0  0  0  0  0  0  0  0
   41.1600   73.3710   59.9800 C   0  0  0  0  0  0  0  0  0  0  0  0
   42.2760   72.6330   60.3460 C   0  0  0  0  0  0  0  0  0  0  0  0
   43.4890   73.2810   60.2120 C   0  0  0  0  0  0  0  0  0  0  0  0
   43.6590   74.5780   59.7540 C   0  0  0  0  0  0  0  0  0  0  0  0
   42.5420   75.2660   59.4080 C   0  0  0  0  0  0  0  0  0  0  0  0
   42.6690   76.9120   58.8180 Cl  0  0  0  0  0  0  0  0  0  0  0  0
   41.3070   74.6690   59.5200 C   0  0  0  0  0  0  0  0  0  0  0  0
   44.3850   72.7340   60.4880 H   0  0  0  0  0  0  0  0  0  0  0  0
   44.6710   74.9880   59.6910 H   0  0  0  0  0  0  0  0  0  0  0  0
   42.0730   70.1260   60.0560 C   0  0  0  0  0  0  0  0  0  0  0  0
   42.1080   71.3000   60.8170 C   0  0  0  0  0  0  0  0  0  0  0  0
   41.9620   71.1660   62.1980 C   0  0  0  0  0  0  0  0  0  0  0  0
   41.7970   69.9280   62.7180 N   0  0  0  0  0  0  0  0  0  0  0  0
   41.7680   68.8150   61.9550 C   0  0  0  0  0  0  0  0  0  0  0  0
   41.9070   68.9270   60.6180 N   0  0  0  0  0  0  0  0  0  0  0  0
   42.1890   70.2770   58.9920 H   0  0  0  0  0  0  0  0  0  0  0  0
   41.9760   72.0180   62.8640 H   0  0  0  0  0  0  0  0  0  0  0  0
   41.5790   67.5330   62.6810 C   0  0  0  0  0  0  0  0  0  0  0  0
   42.6530   67.2350   63.4860 F   0  0  0  0  0  0  0  0  0  0  0  0
   40.4530   67.6150   63.4860 F   0  0  0  0  0  0  0  0  0  0  0  0
   41.4740   66.4660   61.7990 F   0  0  0  0  0  0  0  0  0  0  0  0
   38.5310   76.7880   59.7230 H   0  0  0  0  0  0  0  0  0  0  0  0
   39.3990   76.2310   60.0460 C   0  0  0  0  0  0  0  0  0  0  0  0
   39.6260   76.3980   61.2890 O   0  0  0  0  0  0  0  0  0  0  0  0
   40.1580   75.4230   59.1470 N   0  0  0  0  0  0  0  0  0  0  0  0
   39.8130   75.4130   58.1620 H   0  0  0  0  0  0  0  0  0  0  0  0
  2  1  1  0  0  0  0
  2  3  1  0  0  0  0
  3 12  1  0  0  0  0
  4  3  2  0  0  0  0
  4  9  1  0  0  0  0
  5  4  1  0  0  0  0
  6  8  1  0  0  0  0
  6  5  2  0  0  0  0
  7  6  1  0  0  0  0
  8  2  2  0  0  0  0
 10  5  1  0  0  0  0
 11 16  2  0  0  0  0
 11 12  1  0  0  0  0
 12 13  2  0  0  0  0
 13 14  1  0  0  0  0
 13 18  1  0  0  0  0
 15 19  1  0  0  0  0
 15 14  2  0  0  0  0
 16 15  1  0  0  0  0
 17 11  1  0  0  0  0
 19 20  1  0  0  0  0
 19 21  1  0  0  0  0
 22 19  1  0  0  0  0
 23 24  1  0  0  0  0
 24 25  2  0  0  0  0
 26  8  1  0  0  0  0
 26 24  1  0  0  0  0
 27 26  1  0  0  0  0
M  END
>  <minimizedAffinity>
-5.17035198

$$$$

 OpenBabel03212520143D

 27 28  0  0  0  0  0  0  0  0999 V2000
   42.0620   70.9930   58.5600 Cl  0  0  0  0  0  0  0  0  0  0  0  0
   41.9370   71.1490   60.3140 C   0  0  0  0  0  0  0  0  0  0  0  0
   41.3460   72.2440   60.9250 C   0  0  0  0  0  0  0  0  0  0  0  0
   41.3260   72.2170   62.3070 C   0  0  0  0  0  0  0  0  0  0  0  0
   41.8430   71.2010   63.0960 C   0  0  0  0  0  0  0  0  0  0  0  0
   42.4140   70.1480   62.4580 C   0  0  0  0  0  0  0  0  0  0  0  0
   43.0920   68.8210   63.3820 Cl  0  0  0  0  0  0  0  0  0  0  0  0
   42.4600   70.1230   61.0830 C   0  0  0  0  0  0  0  0  0  0  0  0
   40.8700   73.0570   62.8210 H   0  0  0  0  0  0  0  0  0  0  0  0
   41.7710   71.2880   64.1840 H   0  0  0  0  0  0  0  0  0  0  0  0
   41.4960   74.3890   59.5900 C   0  0  0  0  0  0  0  0  0  0  0  0
   40.8120   73.2900   60.1210 C   0  0  0  0  0  0  0  0  0  0  0  0
   39.4490   73.1940   59.8380 C   0  0  0  0  0  0  0  0  0  0  0  0
   38.8720   74.1530   59.0780 N   0  0  0  0  0  0  0  0  0  0  0  0
   39.5620   75.2020   58.5820 C   0  0  0  0  0  0  0  0  0  0  0  0
   40.8810   75.3110   58.8460 N   0  0  0  0  0  0  0  0  0  0  0  0
   42.5490   74.4240   59.8340 H   0  0  0  0  0  0  0  0  0  0  0  0
   38.8410   72.3790   60.2060 H   0  0  0  0  0  0  0  0  0  0  0  0
   38.7810   76.1680   57.7670 C   0  0  0  0  0  0  0  0  0  0  0  0
   38.7200   77.4080   58.3590 F   0  0  0  0  0  0  0  0  0  0  0  0
   39.3770   76.3190   56.5240 F   0  0  0  0  0  0  0  0  0  0  0  0
   37.4610   75.7590   57.6320 F   0  0  0  0  0  0  0  0  0  0  0  0
   42.8740   66.9750   59.6140 H   0  0  0  0  0  0  0  0  0  0  0  0
   42.3750   67.8050   60.0950 C   0  0  0  0  0  0  0  0  0  0  0  0
   41.1390   67.5610   60.2850 O   0  0  0  0  0  0  0  0  0  0  0  0
   43.0680   69.0010   60.4500 N   0  0  0  0  0  0  0  0  0  0  0  0
   44.0840   69.0130   60.2110 H   0  0  0  0  0  0  0  0  0  0  0  0
  1  2  1  0  0  0  0
  2  3  2  0  0  0  0
  2  8  1  0  0  0  0
  3  4  1  0  0  0  0
  4  9  1  0  0  0  0
  4  5  2  0  0  0  0
  5 10  1  0  0  0  0
  6  5  1  0  0  0  0
  6  7  1  0  0  0  0
  8  6  2  0  0  0  0
 11 17  1  0  0  0  0
 11 12  1  0  0  0  0
 12  3  1  0  0  0  0
 13 12  2  0  0  0  0
 13 18  1  0  0  0  0
 14 13  1  0  0  0  0
 15 16  1  0  0  0  0
 15 14  2  0  0  0  0
 16 11  2  0  0  0  0
 19 20  1  0  0  0  0
 19 15  1  0  0  0  0
 21 19  1  0  0  0  0
 22 19  1  0  0  0  0
 23 24  1  0  0  0  0
 24 25  2  0  0  0  0
 24 26  1  0  0  0  0
 26  8  1  0  0  0  0
 27 26  1  0  0  0  0
M  END
>  <minimizedAffinity>
-5.08256054

$$$$

 OpenBabel03212520143D

 27 28  0  0  0  0  0  0  0  0999 V2000
   41.9240   70.3840   58.8880 Cl  0  0  0  0  0  0  0  0  0  0  0  0
   41.9860   70.3540   60.6520 C   0  0  0  0  0  0  0  0  0  0  0  0
   41.9710   71.5080   61.4200 C   0  0  0  0  0  0  0  0  0  0  0  0
   42.0250   71.3160   62.7880 C   0  0  0  0  0  0  0  0  0  0  0  0
   42.0930   70.0850   63.4220 C   0  0  0  0  0  0  0  0  0  0  0  0
   42.1070   68.9800   62.6340 C   0  0  0  0  0  0  0  0  0  0  0  0
   42.1910   67.3840   63.3560 Cl  0  0  0  0  0  0  0  0  0  0  0  0
   42.0540   69.1130   61.2650 C   0  0  0  0  0  0  0  0  0  0  0  0
   42.0140   72.1960   63.4220 H   0  0  0  0  0  0  0  0  0  0  0  0
   42.1320   70.0540   64.5140 H   0  0  0  0  0  0  0  0  0  0  0  0
   40.7510   73.5080   60.4610 C   0  0  0  0  0  0  0  0  0  0  0  0
   41.9010   72.7750   60.7750 C   0  0  0  0  0  0  0  0  0  0  0  0
   43.1280   73.3360   60.4200 C   0  0  0  0  0  0  0  0  0  0  0  0
   43.1400   74.5400   59.8020 N   0  0  0  0  0  0  0  0  0  0  0  0
   42.0100   75.2210   59.5140 C   0  0  0  0  0  0  0  0  0  0  0  0
   40.8160   74.6930   59.8500 N   0  0  0  0  0  0  0  0  0  0  0  0
   39.8230   73.0370   60.7530 H   0  0  0  0  0  0  0  0  0  0  0  0
   44.0680   72.8410   60.6230 H   0  0  0  0  0  0  0  0  0  0  0  0
   42.1960   76.5290   58.8330 C   0  0  0  0  0  0  0  0  0  0  0  0
   41.0100   77.0270   58.3470 F   0  0  0  0  0  0  0  0  0  0  0  0
   42.7090   77.4530   59.7300 F   0  0  0  0  0  0  0  0  0  0  0  0
   43.0250   76.4060   57.7270 F   0  0  0  0  0  0  0  0  0  0  0  0
   43.2270   66.4050   59.3870 H   0  0  0  0  0  0  0  0  0  0  0  0
   43.2580   67.3040   59.9880 C   0  0  0  0  0  0  0  0  0  0  0  0
   44.4550   67.6940   60.1850 O   0  0  0  0  0  0  0  0  0  0  0  0
   42.0710   67.9310   60.4720 N   0  0  0  0  0  0  0  0  0  0  0  0
   41.1790   67.4590   60.2030 H   0  0  0  0  0  0  0  0  0  0  0  0
  1  2  1  0  0  0  0
  2  8  2  0  0  0  0
  2  3  1  0  0  0  0
  3  4  2  0  0  0  0
  4  9  1  0  0  0  0
  4  5  1  0  0  0  0
  5 10  1  0  0  0  0
  6  7  1  0  0  0  0
  6  5  2  0  0  0  0
  8  6  1  0  0  0  0
 11 17  1  0  0  0  0
 11 12  1  0  0  0  0
 12  3  1  0  0  0  0
 13 18  1  0  0  0  0
 13 12  2  0  0  0  0
 14 13  1  0  0  0  0
 15 14  2  0  0  0  0
 15 16  1  0  0  0  0
 16 11  2  0  0  0  0
 19 15  1  0  0  0  0
 19 21  1  0  0  0  0
 20 19  1  0  0  0  0
 22 19  1  0  0  0  0
 23 24  1  0  0  0  0
 24 25  2  0  0  0  0
 24 26  1  0  0  0  0
 26  8  1  0  0  0  0
 27 26  1  0  0  0  0
M  END
>  <minimizedAffinity>
-5.0547204

$$$$
