
 OpenBabel03212521053D

 32 34  0  0  0  0  0  0  0  0999 V2000
   41.8150   84.2440   61.5890 C   0  0  0  0  0  0  0  0  0  0  0  0
   41.4480   83.9280   62.8890 C   0  0  0  0  0  0  0  0  0  0  0  0
   40.1730   83.5140   63.2000 C   0  0  0  0  0  0  0  0  0  0  0  0
   39.2230   83.4070   62.1790 C   0  0  0  0  0  0  0  0  0  0  0  0
   39.5950   83.7240   60.8780 C   0  0  0  0  0  0  0  0  0  0  0  0
   40.8740   84.1390   60.5710 C   0  0  0  0  0  0  0  0  0  0  0  0
   42.1140   83.9830   63.7270 H   0  0  0  0  0  0  0  0  0  0  0  0
   39.8710   83.2640   64.2100 H   0  0  0  0  0  0  0  0  0  0  0  0
   38.2260   83.0900   62.3790 H   0  0  0  0  0  0  0  0  0  0  0  0
   38.8290   83.6290   60.1140 H   0  0  0  0  0  0  0  0  0  0  0  0
   41.2080   84.4570   59.2020 C   0  0  0  0  0  0  0  0  0  0  0  0
   40.6290   85.6720   58.8060 C   0  0  0  0  0  0  0  0  0  0  0  0
   40.8210   86.1710   57.5210 C   0  0  0  0  0  0  0  0  0  0  0  0
   41.5810   85.4390   56.6940 N   0  0  0  0  0  0  0  0  0  0  0  0
   42.1390   84.2650   57.0830 C   0  0  0  0  0  0  0  0  0  0  0  0
   41.9560   83.7750   58.3300 N   0  0  0  0  0  0  0  0  0  0  0  0
   39.9990   86.3180   59.4290 H   0  0  0  0  0  0  0  0  0  0  0  0
   40.3900   87.1020   57.1810 H   0  0  0  0  0  0  0  0  0  0  0  0
   44.5390   83.1830   54.8640 H   0  0  0  0  0  0  0  0  0  0  0  0
   44.1340   83.9550   55.5180 C   0  0  0  0  0  0  0  0  0  0  0  0
   44.4470   85.1410   55.8590 O   0  0  0  0  0  0  0  0  0  0  0  0
   42.9380   83.5260   56.1650 N   0  0  0  0  0  0  0  0  0  0  0  0
   42.4940   82.5700   56.0260 H   0  0  0  0  0  0  0  0  0  0  0  0
   45.3750   84.1520   60.7850 C   0  0  0  0  0  0  0  0  0  0  0  0
   45.7460   85.4890   60.8030 C   0  0  0  0  0  0  0  0  0  0  0  0
   44.7450   86.4490   61.0990 C   0  0  0  0  0  0  0  0  0  0  0  0
   43.5010   85.9970   61.3440 N   0  0  0  0  0  0  0  0  0  0  0  0
   43.1720   84.6750   61.3180 C   0  0  0  0  0  0  0  0  0  0  0  0
   44.1100   83.7780   61.0400 N   0  0  0  0  0  0  0  0  0  0  0  0
   46.1540   83.4440   60.5570 H   0  0  0  0  0  0  0  0  0  0  0  0
   46.7160   85.9000   60.6170 H   0  0  0  0  0  0  0  0  0  0  0  0
   44.8640   87.5210   61.1540 H   0  0  0  0  0  0  0  0  0  0  0  0
  1  2  1  0  0  0  0
  2  3  2  0  0  0  0
  2  7  1  0  0  0  0
  3  8  1  0  0  0  0
  4  9  1  0  0  0  0
  4  3  1  0  0  0  0
  5  4  2  0  0  0  0
  6  5  1  0  0  0  0
  6  1  2  0  0  0  0
 10  5  1  0  0  0  0
 11  6  1  0  0  0  0
 12 11  1  0  0  0  0
 12 17  1  0  0  0  0
 13 12  2  0  0  0  0
 14 15  2  0  0  0  0
 14 13  1  0  0  0  0
 15 16  1  0  0  0  0
 16 11  2  0  0  0  0
 18 13  1  0  0  0  0
 19 20  1  0  0  0  0
 20 21  2  0  0  0  0
 20 22  1  0  0  0  0
 22 15  1  0  0  0  0
 23 22  1  0  0  0  0
 24 25  2  0  0  0  0
 24 29  1  0  0  0  0
 25 26  1  0  0  0  0
 26 32  1  0  0  0  0
 26 27  2  0  0  0  0
 28 27  1  0  0  0  0
 28  1  1  0  0  0  0
 29 28  2  0  0  0  0
 30 24  1  0  0  0  0
 31 25  1  0  0  0  0
M  END
>  <minimizedAffinity>
-5.64262772

>  <minimizedRMSD>
0.196960628

$$$$
