
 OpenBabel03212521083D

 32 34  0  0  0  0  0  0  0  0999 V2000
   41.3840   72.5900   61.1070 C   0  0  0  0  0  0  0  0  0  0  0  0
   41.9280   72.3690   62.3640 C   0  0  0  0  0  0  0  0  0  0  0  0
   42.4760   71.1550   62.7110 C   0  0  0  0  0  0  0  0  0  0  0  0
   42.4850   70.1180   61.7720 C   0  0  0  0  0  0  0  0  0  0  0  0
   41.9400   70.3450   60.5140 C   0  0  0  0  0  0  0  0  0  0  0  0
   41.3920   71.5630   60.1700 C   0  0  0  0  0  0  0  0  0  0  0  0
   41.9600   73.1090   63.1390 H   0  0  0  0  0  0  0  0  0  0  0  0
   42.9040   70.9670   63.6870 H   0  0  0  0  0  0  0  0  0  0  0  0
   42.9000   69.1650   62.0010 H   0  0  0  0  0  0  0  0  0  0  0  0
   41.9670   69.5150   59.8130 H   0  0  0  0  0  0  0  0  0  0  0  0
   40.8370   71.7450   58.8490 C   0  0  0  0  0  0  0  0  0  0  0  0
   41.8120   71.5560   57.8580 C   0  0  0  0  0  0  0  0  0  0  0  0
   41.4950   71.6850   56.5090 C   0  0  0  0  0  0  0  0  0  0  0  0
   40.2250   71.9930   56.2110 N   0  0  0  0  0  0  0  0  0  0  0  0
   39.2870   72.1740   57.1750 C   0  0  0  0  0  0  0  0  0  0  0  0
   39.5880   72.0510   58.4860 N   0  0  0  0  0  0  0  0  0  0  0  0
   42.8660   71.3040   58.0310 H   0  0  0  0  0  0  0  0  0  0  0  0
   42.2200   71.5470   55.7190 H   0  0  0  0  0  0  0  0  0  0  0  0
   36.2820   73.7340   56.5480 H   0  0  0  0  0  0  0  0  0  0  0  0
   37.3100   73.7700   56.9050 C   0  0  0  0  0  0  0  0  0  0  0  0
   38.0950   74.6490   57.3890 O   0  0  0  0  0  0  0  0  0  0  0  0
   37.9510   72.5000   56.8040 N   0  0  0  0  0  0  0  0  0  0  0  0
   37.4810   71.6240   56.4270 H   0  0  0  0  0  0  0  0  0  0  0  0
   39.0860   75.4260   61.0030 C   0  0  0  0  0  0  0  0  0  0  0  0
   39.7480   76.3500   60.2070 C   0  0  0  0  0  0  0  0  0  0  0  0
   41.0190   75.9900   59.6930 C   0  0  0  0  0  0  0  0  0  0  0  0
   41.4980   74.7730   60.0110 N   0  0  0  0  0  0  0  0  0  0  0  0
   40.8200   73.8890   60.7950 C   0  0  0  0  0  0  0  0  0  0  0  0
   39.6300   74.2280   61.2760 N   0  0  0  0  0  0  0  0  0  0  0  0
   38.1230   75.7250   61.3810 H   0  0  0  0  0  0  0  0  0  0  0  0
   39.4130   77.3260   59.9250 H   0  0  0  0  0  0  0  0  0  0  0  0
   41.6620   76.5860   59.0620 H   0  0  0  0  0  0  0  0  0  0  0  0
  1  2  1  0  0  0  0
  2  3  2  0  0  0  0
  2  7  1  0  0  0  0
  3  8  1  0  0  0  0
  4  9  1  0  0  0  0
  4  3  1  0  0  0  0
  5  4  2  0  0  0  0
  6  5  1  0  0  0  0
  6  1  2  0  0  0  0
 10  5  1  0  0  0  0
 11  6  1  0  0  0  0
 12 17  1  0  0  0  0
 12 11  2  0  0  0  0
 13 12  1  0  0  0  0
 14 13  2  0  0  0  0
 14 15  1  0  0  0  0
 15 16  2  0  0  0  0
 16 11  1  0  0  0  0
 18 13  1  0  0  0  0
 19 20  1  0  0  0  0
 20 21  2  0  0  0  0
 22 20  1  0  0  0  0
 22 15  1  0  0  0  0
 23 22  1  0  0  0  0
 24 29  1  0  0  0  0
 24 30  1  0  0  0  0
 25 24  2  0  0  0  0
 26 27  2  0  0  0  0
 26 25  1  0  0  0  0
 27 28  1  0  0  0  0
 28  1  1  0  0  0  0
 28 29  2  0  0  0  0
 31 25  1  0  0  0  0
 32 26  1  0  0  0  0
M  END
>  <minimizedAffinity>
-5.57062197

$$$$

 OpenBabel03212521083D

 32 34  0  0  0  0  0  0  0  0999 V2000
   39.1850   74.2040   58.6020 C   0  0  0  0  0  0  0  0  0  0  0  0
   38.0850   74.3280   57.7660 C   0  0  0  0  0  0  0  0  0  0  0  0
   37.6260   73.2700   57.0140 C   0  0  0  0  0  0  0  0  0  0  0  0
   38.2840   72.0390   57.0960 C   0  0  0  0  0  0  0  0  0  0  0  0
   39.3850   71.9200   57.9360 C   0  0  0  0  0  0  0  0  0  0  0  0
   39.8420   72.9830   58.6870 C   0  0  0  0  0  0  0  0  0  0  0  0
   37.5250   75.2350   57.6450 H   0  0  0  0  0  0  0  0  0  0  0  0
   36.7690   73.3510   56.3570 H   0  0  0  0  0  0  0  0  0  0  0  0
   37.9600   71.1970   56.5320 H   0  0  0  0  0  0  0  0  0  0  0  0
   39.8690   70.9480   57.9730 H   0  0  0  0  0  0  0  0  0  0  0  0
   40.9920   72.8060   59.5440 C   0  0  0  0  0  0  0  0  0  0  0  0
   42.1760   73.1760   58.8890 C   0  0  0  0  0  0  0  0  0  0  0  0
   43.4070   73.0840   59.5300 C   0  0  0  0  0  0  0  0  0  0  0  0
   43.4010   72.6310   60.7920 N   0  0  0  0  0  0  0  0  0  0  0  0
   42.2520   72.2750   61.4200 C   0  0  0  0  0  0  0  0  0  0  0  0
   41.0530   72.3610   60.8030 N   0  0  0  0  0  0  0  0  0  0  0  0
   42.2530   73.5520   57.8610 H   0  0  0  0  0  0  0  0  0  0  0  0
   44.3400   73.3600   59.0570 H   0  0  0  0  0  0  0  0  0  0  0  0
   42.2370   70.3740   64.2910 H   0  0  0  0  0  0  0  0  0  0  0  0
   42.1550   70.4520   63.2080 C   0  0  0  0  0  0  0  0  0  0  0  0
   41.9640   69.6570   62.2310 O   0  0  0  0  0  0  0  0  0  0  0  0
   42.3010   71.7990   62.7620 N   0  0  0  0  0  0  0  0  0  0  0  0
   42.4690   72.6260   63.4080 H   0  0  0  0  0  0  0  0  0  0  0  0
   39.5960   76.5700   61.3530 C   0  0  0  0  0  0  0  0  0  0  0  0
   40.4590   77.5250   60.8330 C   0  0  0  0  0  0  0  0  0  0  0  0
   40.9120   77.3500   59.5010 C   0  0  0  0  0  0  0  0  0  0  0  0
   40.4740   76.2690   58.8290 N   0  0  0  0  0  0  0  0  0  0  0  0
   39.6250   75.3520   59.3710 C   0  0  0  0  0  0  0  0  0  0  0  0
   39.2020   75.5160   60.6180 N   0  0  0  0  0  0  0  0  0  0  0  0
   39.2670   76.7260   62.3660 H   0  0  0  0  0  0  0  0  0  0  0  0
   40.8360   78.3980   61.3200 H   0  0  0  0  0  0  0  0  0  0  0  0
   41.5800   77.9940   58.9480 H   0  0  0  0  0  0  0  0  0  0  0  0
  1  6  1  0  0  0  0
  1 28  1  0  0  0  0
  2  1  2  0  0  0  0
  3  4  2  0  0  0  0
  3  2  1  0  0  0  0
  4  5  1  0  0  0  0
  5 10  1  0  0  0  0
  5  6  2  0  0  0  0
  6 11  1  0  0  0  0
  7  2  1  0  0  0  0
  8  3  1  0  0  0  0
  9  4  1  0  0  0  0
 11 16  1  0  0  0  0
 12 13  1  0  0  0  0
 12 11  2  0  0  0  0
 13 14  2  0  0  0  0
 14 15  1  0  0  0  0
 15 22  1  0  0  0  0
 16 15  2  0  0  0  0
 17 12  1  0  0  0  0
 18 13  1  0  0  0  0
 20 19  1  0  0  0  0
 21 20  2  0  0  0  0
 22 20  1  0  0  0  0
 22 23  1  0  0  0  0
 24 30  1  0  0  0  0
 25 31  1  0  0  0  0
 25 24  1  0  0  0  0
 26 25  2  0  0  0  0
 27 28  2  0  0  0  0
 27 26  1  0  0  0  0
 28 29  1  0  0  0  0
 29 24  2  0  0  0  0
 32 26  1  0  0  0  0
M  END
>  <minimizedAffinity>
-5.54894829

$$$$

 OpenBabel03212521083D

 32 34  0  0  0  0  0  0  0  0999 V2000
   37.9840   75.3040   55.5400 C   0  0  0  0  0  0  0  0  0  0  0  0
   37.3400   75.3260   54.3110 C   0  0  0  0  0  0  0  0  0  0  0  0
   36.7370   76.4670   53.8320 C   0  0  0  0  0  0  0  0  0  0  0  0
   36.7740   77.6330   54.6030 C   0  0  0  0  0  0  0  0  0  0  0  0
   37.4210   77.6060   55.8330 C   0  0  0  0  0  0  0  0  0  0  0  0
   38.0240   76.4610   56.3090 C   0  0  0  0  0  0  0  0  0  0  0  0
   37.2660   74.4770   53.6610 H   0  0  0  0  0  0  0  0  0  0  0  0
   36.2300   76.5000   52.8760 H   0  0  0  0  0  0  0  0  0  0  0  0
   36.3200   78.5360   54.2670 H   0  0  0  0  0  0  0  0  0  0  0  0
   37.4290   78.5320   56.4010 H   0  0  0  0  0  0  0  0  0  0  0  0
   38.6830   76.4870   57.5950 C   0  0  0  0  0  0  0  0  0  0  0  0
   39.7820   77.3580   57.5850 C   0  0  0  0  0  0  0  0  0  0  0  0
   40.5630   77.5370   58.7230 C   0  0  0  0  0  0  0  0  0  0  0  0
   40.2120   76.8430   59.8150 N   0  0  0  0  0  0  0  0  0  0  0  0
   39.1470   76.0020   59.8180 C   0  0  0  0  0  0  0  0  0  0  0  0
   38.3850   75.8240   58.7160 N   0  0  0  0  0  0  0  0  0  0  0  0
   40.1250   77.9540   56.7310 H   0  0  0  0  0  0  0  0  0  0  0  0
   41.4180   78.1990   58.7530 H   0  0  0  0  0  0  0  0  0  0  0  0
   38.6860   73.6220   62.2630 H   0  0  0  0  0  0  0  0  0  0  0  0
   39.0380   73.9040   61.2720 C   0  0  0  0  0  0  0  0  0  0  0  0
   39.5970   73.3240   60.2850 O   0  0  0  0  0  0  0  0  0  0  0  0
   38.8160   75.2870   61.0050 N   0  0  0  0  0  0  0  0  0  0  0  0
   38.3630   75.9610   61.6890 H   0  0  0  0  0  0  0  0  0  0  0  0
   40.4700   72.6910   56.1130 C   0  0  0  0  0  0  0  0  0  0  0  0
   39.7800   71.7460   56.8600 C   0  0  0  0  0  0  0  0  0  0  0  0
   38.4240   72.0150   57.1760 C   0  0  0  0  0  0  0  0  0  0  0  0
   37.8960   73.1690   56.7290 N   0  0  0  0  0  0  0  0  0  0  0  0
   38.6030   74.0750   55.9960 C   0  0  0  0  0  0  0  0  0  0  0  0
   39.8720   73.8220   55.7010 N   0  0  0  0  0  0  0  0  0  0  0  0
   41.4970   72.4630   55.8870 H   0  0  0  0  0  0  0  0  0  0  0  0
   40.1500   70.8170   57.2380 H   0  0  0  0  0  0  0  0  0  0  0  0
   37.7490   71.3910   57.7430 H   0  0  0  0  0  0  0  0  0  0  0  0
  1 28  1  0  0  0  0
  1  6  1  0  0  0  0
  2  1  2  0  0  0  0
  3  2  1  0  0  0  0
  3  4  2  0  0  0  0
  4  5  1  0  0  0  0
  5  6  2  0  0  0  0
  5 10  1  0  0  0  0
  6 11  1  0  0  0  0
  7  2  1  0  0  0  0
  8  3  1  0  0  0  0
  9  4  1  0  0  0  0
 11 16  1  0  0  0  0
 12 11  2  0  0  0  0
 12 13  1  0  0  0  0
 13 18  1  0  0  0  0
 13 14  2  0  0  0  0
 14 15  1  0  0  0  0
 15 22  1  0  0  0  0
 16 15  2  0  0  0  0
 17 12  1  0  0  0  0
 20 19  1  0  0  0  0
 21 20  2  0  0  0  0
 22 20  1  0  0  0  0
 22 23  1  0  0  0  0
 24 25  1  0  0  0  0
 25 26  2  0  0  0  0
 25 31  1  0  0  0  0
 26 32  1  0  0  0  0
 27 26  1  0  0  0  0
 28 27  2  0  0  0  0
 29 28  1  0  0  0  0
 29 24  2  0  0  0  0
 30 24  1  0  0  0  0
M  END
>  <minimizedAffinity>
-5.47403908

$$$$

 OpenBabel03212521083D

 32 34  0  0  0  0  0  0  0  0999 V2000
   41.4840   73.4840   59.9310 C   0  0  0  0  0  0  0  0  0  0  0  0
   42.0590   72.9360   61.0680 C   0  0  0  0  0  0  0  0  0  0  0  0
   42.2850   71.5830   61.1830 C   0  0  0  0  0  0  0  0  0  0  0  0
   41.9260   70.7390   60.1270 C   0  0  0  0  0  0  0  0  0  0  0  0
   41.3510   71.2940   58.9890 C   0  0  0  0  0  0  0  0  0  0  0  0
   41.1260   72.6500   58.8790 C   0  0  0  0  0  0  0  0  0  0  0  0
   42.3620   73.5110   61.9210 H   0  0  0  0  0  0  0  0  0  0  0  0
   42.7330   71.1400   62.0640 H   0  0  0  0  0  0  0  0  0  0  0  0
   42.0850   69.6880   60.1770 H   0  0  0  0  0  0  0  0  0  0  0  0
   41.0860   70.6060   58.1910 H   0  0  0  0  0  0  0  0  0  0  0  0
   40.5230   73.1740   57.6750 C   0  0  0  0  0  0  0  0  0  0  0  0
   41.4860   73.3930   56.6780 C   0  0  0  0  0  0  0  0  0  0  0  0
   41.1250   73.8970   55.4330 C   0  0  0  0  0  0  0  0  0  0  0  0
   39.8240   74.1580   55.2380 N   0  0  0  0  0  0  0  0  0  0  0  0
   38.8980   73.9440   56.2060 C   0  0  0  0  0  0  0  0  0  0  0  0
   39.2420   73.4540   57.4180 N   0  0  0  0  0  0  0  0  0  0  0  0
   42.5630   73.2030   56.7700 H   0  0  0  0  0  0  0  0  0  0  0  0
   41.8390   74.0790   54.6410 H   0  0  0  0  0  0  0  0  0  0  0  0
   35.7470   75.3250   56.0770 H   0  0  0  0  0  0  0  0  0  0  0  0
   36.7760   75.3480   56.4320 C   0  0  0  0  0  0  0  0  0  0  0  0
   37.4880   76.1070   57.1660 O   0  0  0  0  0  0  0  0  0  0  0  0
   37.5280   74.2380   55.9480 N   0  0  0  0  0  0  0  0  0  0  0  0
   37.1330   73.4790   55.3180 H   0  0  0  0  0  0  0  0  0  0  0  0
   42.0540   77.0410   59.3330 C   0  0  0  0  0  0  0  0  0  0  0  0
   40.8630   77.6310   59.7340 C   0  0  0  0  0  0  0  0  0  0  0  0
   39.8370   76.7840   60.2220 C   0  0  0  0  0  0  0  0  0  0  0  0
   40.0860   75.4620   60.2650 N   0  0  0  0  0  0  0  0  0  0  0  0
   41.2680   74.9170   59.8640 C   0  0  0  0  0  0  0  0  0  0  0  0
   42.2280   75.7100   59.4060 N   0  0  0  0  0  0  0  0  0  0  0  0
   42.8160   77.7060   58.9660 H   0  0  0  0  0  0  0  0  0  0  0  0
   40.6140   78.6710   59.7210 H   0  0  0  0  0  0  0  0  0  0  0  0
   38.8580   77.0780   60.5720 H   0  0  0  0  0  0  0  0  0  0  0  0
  1  2  1  0  0  0  0
  2  3  2  0  0  0  0
  2  7  1  0  0  0  0
  3  8  1  0  0  0  0
  4  9  1  0  0  0  0
  4  3  1  0  0  0  0
  5  4  2  0  0  0  0
  6  5  1  0  0  0  0
  6  1  2  0  0  0  0
 10  5  1  0  0  0  0
 11  6  1  0  0  0  0
 12 17  1  0  0  0  0
 12 11  2  0  0  0  0
 13 12  1  0  0  0  0
 14 13  2  0  0  0  0
 14 15  1  0  0  0  0
 15 16  2  0  0  0  0
 16 11  1  0  0  0  0
 18 13  1  0  0  0  0
 19 20  1  0  0  0  0
 20 21  2  0  0  0  0
 22 15  1  0  0  0  0
 22 20  1  0  0  0  0
 23 22  1  0  0  0  0
 24 29  2  0  0  0  0
 24 25  1  0  0  0  0
 25 26  2  0  0  0  0
 26 27  1  0  0  0  0
 26 32  1  0  0  0  0
 28  1  1  0  0  0  0
 28 27  2  0  0  0  0
 29 28  1  0  0  0  0
 30 24  1  0  0  0  0
 31 25  1  0  0  0  0
M  END
>  <minimizedAffinity>
-5.38453388

$$$$

 OpenBabel03212521083D

 32 34  0  0  0  0  0  0  0  0999 V2000
   41.2920   71.8250   59.8700 C   0  0  0  0  0  0  0  0  0  0  0  0
   41.7750   70.6060   60.3210 C   0  0  0  0  0  0  0  0  0  0  0  0
   42.3800   70.4780   61.5500 C   0  0  0  0  0  0  0  0  0  0  0  0
   42.5110   71.6070   62.3660 C   0  0  0  0  0  0  0  0  0  0  0  0
   42.0240   72.8260   61.9100 C   0  0  0  0  0  0  0  0  0  0  0  0
   41.4180   72.9490   60.6770 C   0  0  0  0  0  0  0  0  0  0  0  0
   41.7160   69.6950   59.7580 H   0  0  0  0  0  0  0  0  0  0  0  0
   42.7630   69.5340   61.9170 H   0  0  0  0  0  0  0  0  0  0  0  0
   42.9720   71.5500   63.3240 H   0  0  0  0  0  0  0  0  0  0  0  0
   42.1440   73.6790   62.5730 H   0  0  0  0  0  0  0  0  0  0  0  0
   40.9310   74.2400   60.2510 C   0  0  0  0  0  0  0  0  0  0  0  0
   39.8850   74.6850   61.0730 C   0  0  0  0  0  0  0  0  0  0  0  0
   39.2650   75.9100   60.8420 C   0  0  0  0  0  0  0  0  0  0  0  0
   39.7160   76.6320   59.8070 N   0  0  0  0  0  0  0  0  0  0  0  0
   40.7280   76.1960   59.0150 C   0  0  0  0  0  0  0  0  0  0  0  0
   41.3350   75.0080   59.2340 N   0  0  0  0  0  0  0  0  0  0  0  0
   39.4670   74.1470   61.9330 H   0  0  0  0  0  0  0  0  0  0  0  0
   38.4560   76.2850   61.4540 H   0  0  0  0  0  0  0  0  0  0  0  0
   41.3740   77.5720   55.9260 H   0  0  0  0  0  0  0  0  0  0  0  0
   40.9140   76.7990   56.5400 C   0  0  0  0  0  0  0  0  0  0  0  0
   40.2050   75.7590   56.3460 O   0  0  0  0  0  0  0  0  0  0  0  0
   41.1700   77.0030   57.9280 N   0  0  0  0  0  0  0  0  0  0  0  0
   41.7410   77.8110   58.3160 H   0  0  0  0  0  0  0  0  0  0  0  0
   40.8540   72.0490   56.2510 C   0  0  0  0  0  0  0  0  0  0  0  0
   39.4750   72.0460   56.0920 C   0  0  0  0  0  0  0  0  0  0  0  0
   38.6740   71.9640   57.2590 C   0  0  0  0  0  0  0  0  0  0  0  0
   39.3060   71.8950   58.4450 N   0  0  0  0  0  0  0  0  0  0  0  0
   40.6630   71.9020   58.5650 C   0  0  0  0  0  0  0  0  0  0  0  0
   41.4110   71.9780   57.4720 N   0  0  0  0  0  0  0  0  0  0  0  0
   41.4380   72.1120   55.3490 H   0  0  0  0  0  0  0  0  0  0  0  0
   38.9240   72.0980   55.1760 H   0  0  0  0  0  0  0  0  0  0  0  0
   37.5950   71.9500   57.3110 H   0  0  0  0  0  0  0  0  0  0  0  0
  1  2  2  0  0  0  0
  1  6  1  0  0  0  0
  2  3  1  0  0  0  0
  3  8  1  0  0  0  0
  3  4  2  0  0  0  0
  4  9  1  0  0  0  0
  5  4  1  0  0  0  0
  5 10  1  0  0  0  0
  6  5  2  0  0  0  0
  7  2  1  0  0  0  0
 11  6  1  0  0  0  0
 11 12  1  0  0  0  0
 12 17  1  0  0  0  0
 13 12  2  0  0  0  0
 13 18  1  0  0  0  0
 14 13  1  0  0  0  0
 15 16  1  0  0  0  0
 15 14  2  0  0  0  0
 16 11  2  0  0  0  0
 19 20  1  0  0  0  0
 20 22  1  0  0  0  0
 21 20  2  0  0  0  0
 22 23  1  0  0  0  0
 22 15  1  0  0  0  0
 24 29  1  0  0  0  0
 25 24  2  0  0  0  0
 25 26  1  0  0  0  0
 26 32  1  0  0  0  0
 26 27  2  0  0  0  0
 27 28  1  0  0  0  0
 28  1  1  0  0  0  0
 29 28  2  0  0  0  0
 30 24  1  0  0  0  0
 31 25  1  0  0  0  0
M  END
>  <minimizedAffinity>
-5.37235641

$$$$

 OpenBabel03212521083D

 32 34  0  0  0  0  0  0  0  0999 V2000
   41.1490   74.5260   59.8920 C   0  0  0  0  0  0  0  0  0  0  0  0
   40.5230   75.7580   60.0100 C   0  0  0  0  0  0  0  0  0  0  0  0
   39.3150   75.8960   60.6540 C   0  0  0  0  0  0  0  0  0  0  0  0
   38.7030   74.7650   61.2050 C   0  0  0  0  0  0  0  0  0  0  0  0
   39.3340   73.5330   61.0850 C   0  0  0  0  0  0  0  0  0  0  0  0
   40.5450   73.3990   60.4370 C   0  0  0  0  0  0  0  0  0  0  0  0
   40.9240   76.6720   59.6170 H   0  0  0  0  0  0  0  0  0  0  0  0
   38.8130   76.8510   60.7550 H   0  0  0  0  0  0  0  0  0  0  0  0
   37.7690   74.8300   61.7120 H   0  0  0  0  0  0  0  0  0  0  0  0
   38.8280   72.6790   61.5250 H   0  0  0  0  0  0  0  0  0  0  0  0
   41.1580   72.0960   60.3400 C   0  0  0  0  0  0  0  0  0  0  0  0
   40.8040   71.4550   59.1430 C   0  0  0  0  0  0  0  0  0  0  0  0
   41.2830   70.1840   58.8420 C   0  0  0  0  0  0  0  0  0  0  0  0
   42.0930   69.6120   59.7440 N   0  0  0  0  0  0  0  0  0  0  0  0
   42.4330   70.2370   60.9000 C   0  0  0  0  0  0  0  0  0  0  0  0
   41.9700   71.4710   61.1980 N   0  0  0  0  0  0  0  0  0  0  0  0
   40.1480   71.8630   58.3640 H   0  0  0  0  0  0  0  0  0  0  0  0
   41.0310   69.6600   57.9310 H   0  0  0  0  0  0  0  0  0  0  0  0
   43.8010   68.5500   63.5720 H   0  0  0  0  0  0  0  0  0  0  0  0
   42.9370   68.9760   63.0640 C   0  0  0  0  0  0  0  0  0  0  0  0
   41.6860   69.0730   63.2830 O   0  0  0  0  0  0  0  0  0  0  0  0
   43.2970   69.5850   61.8260 N   0  0  0  0  0  0  0  0  0  0  0  0
   44.2880   69.6200   61.4450 H   0  0  0  0  0  0  0  0  0  0  0  0
   44.7400   74.2580   59.2830 C   0  0  0  0  0  0  0  0  0  0  0  0
   44.8350   74.2720   57.8990 C   0  0  0  0  0  0  0  0  0  0  0  0
   43.6330   74.3750   57.1540 C   0  0  0  0  0  0  0  0  0  0  0  0
   42.4780   74.4540   57.8410 N   0  0  0  0  0  0  0  0  0  0  0  0
   42.4220   74.4390   59.2020 C   0  0  0  0  0  0  0  0  0  0  0  0
   43.5480   74.3420   59.8980 N   0  0  0  0  0  0  0  0  0  0  0  0
   45.6670   74.1790   59.8240 H   0  0  0  0  0  0  0  0  0  0  0  0
   45.7230   74.2120   57.3050 H   0  0  0  0  0  0  0  0  0  0  0  0
   43.5300   74.3990   56.0790 H   0  0  0  0  0  0  0  0  0  0  0  0
  1  2  2  0  0  0  0
  1  6  1  0  0  0  0
  2  3  1  0  0  0  0
  3  8  1  0  0  0  0
  3  4  2  0  0  0  0
  4  9  1  0  0  0  0
  5  4  1  0  0  0  0
  5 10  1  0  0  0  0
  6  5  2  0  0  0  0
  7  2  1  0  0  0  0
 11  6  1  0  0  0  0
 11 16  1  0  0  0  0
 12 11  2  0  0  0  0
 13 12  1  0  0  0  0
 13 14  2  0  0  0  0
 14 15  1  0  0  0  0
 15 16  2  0  0  0  0
 15 22  1  0  0  0  0
 17 12  1  0  0  0  0
 18 13  1  0  0  0  0
 20 21  2  0  0  0  0
 20 19  1  0  0  0  0
 22 20  1  0  0  0  0
 23 22  1  0  0  0  0
 24 30  1  0  0  0  0
 24 29  1  0  0  0  0
 25 24  2  0  0  0  0
 26 27  2  0  0  0  0
 26 25  1  0  0  0  0
 27 28  1  0  0  0  0
 28  1  1  0  0  0  0
 28 29  2  0  0  0  0
 31 25  1  0  0  0  0
 32 26  1  0  0  0  0
M  END
>  <minimizedAffinity>
-5.29914236

$$$$

 OpenBabel03212521083D

 32 34  0  0  0  0  0  0  0  0999 V2000
   40.0790   75.0000   59.0890 C   0  0  0  0  0  0  0  0  0  0  0  0
   40.1950   75.3070   60.4370 C   0  0  0  0  0  0  0  0  0  0  0  0
   40.0870   76.6010   60.8950 C   0  0  0  0  0  0  0  0  0  0  0  0
   39.8520   77.6310   59.9790 C   0  0  0  0  0  0  0  0  0  0  0  0
   39.7360   77.3180   58.6290 C   0  0  0  0  0  0  0  0  0  0  0  0
   39.8460   76.0200   58.1750 C   0  0  0  0  0  0  0  0  0  0  0  0
   40.3750   74.5790   61.2020 H   0  0  0  0  0  0  0  0  0  0  0  0
   40.1750   76.8570   61.9430 H   0  0  0  0  0  0  0  0  0  0  0  0
   39.7620   78.6440   60.2930 H   0  0  0  0  0  0  0  0  0  0  0  0
   39.5540   78.1450   57.9500 H   0  0  0  0  0  0  0  0  0  0  0  0
   39.7180   75.7500   56.7620 C   0  0  0  0  0  0  0  0  0  0  0  0
   40.9220   75.9950   56.0860 C   0  0  0  0  0  0  0  0  0  0  0  0
   41.0240   75.7990   54.7110 C   0  0  0  0  0  0  0  0  0  0  0  0
   39.9250   75.3680   54.0770 N   0  0  0  0  0  0  0  0  0  0  0  0
   38.7620   75.1320   54.7370 C   0  0  0  0  0  0  0  0  0  0  0  0
   38.6570   75.3200   56.0710 N   0  0  0  0  0  0  0  0  0  0  0  0
   41.8560   76.3480   56.5400 H   0  0  0  0  0  0  0  0  0  0  0  0
   41.9350   75.9780   54.1570 H   0  0  0  0  0  0  0  0  0  0  0  0
   35.7470   74.8260   53.1040 H   0  0  0  0  0  0  0  0  0  0  0  0
   36.4670   75.4280   53.6550 C   0  0  0  0  0  0  0  0  0  0  0  0
   36.5510   76.6320   54.0650 O   0  0  0  0  0  0  0  0  0  0  0  0
   37.6230   74.6750   54.0160 N   0  0  0  0  0  0  0  0  0  0  0  0
   37.7650   73.6490   53.7750 H   0  0  0  0  0  0  0  0  0  0  0  0
   39.2020   71.5920   58.1130 C   0  0  0  0  0  0  0  0  0  0  0  0
   40.4310   71.0040   57.8510 C   0  0  0  0  0  0  0  0  0  0  0  0
   41.5930   71.8000   58.0140 C   0  0  0  0  0  0  0  0  0  0  0  0
   41.4260   73.0740   58.4130 N   0  0  0  0  0  0  0  0  0  0  0  0
   40.2020   73.6200   58.6620 C   0  0  0  0  0  0  0  0  0  0  0  0
   39.1150   72.8740   58.5090 N   0  0  0  0  0  0  0  0  0  0  0  0
   38.3360   70.9660   57.9810 H   0  0  0  0  0  0  0  0  0  0  0  0
   40.6200   70.0000   57.5340 H   0  0  0  0  0  0  0  0  0  0  0  0
   42.6190   71.5000   57.8540 H   0  0  0  0  0  0  0  0  0  0  0  0
  1  2  1  0  0  0  0
  2  3  2  0  0  0  0
  2  7  1  0  0  0  0
  3  8  1  0  0  0  0
  4  9  1  0  0  0  0
  4  3  1  0  0  0  0
  5  4  2  0  0  0  0
  6  5  1  0  0  0  0
  6  1  2  0  0  0  0
 10  5  1  0  0  0  0
 11  6  1  0  0  0  0
 12 17  1  0  0  0  0
 12 11  1  0  0  0  0
 13 12  2  0  0  0  0
 14 13  1  0  0  0  0
 14 15  2  0  0  0  0
 15 16  1  0  0  0  0
 16 11  2  0  0  0  0
 18 13  1  0  0  0  0
 19 20  1  0  0  0  0
 20 22  1  0  0  0  0
 20 21  2  0  0  0  0
 22 15  1  0  0  0  0
 23 22  1  0  0  0  0
 24 29  1  0  0  0  0
 25 26  1  0  0  0  0
 25 24  2  0  0  0  0
 26 27  2  0  0  0  0
 27 28  1  0  0  0  0
 28  1  1  0  0  0  0
 29 28  2  0  0  0  0
 30 24  1  0  0  0  0
 31 25  1  0  0  0  0
 32 26  1  0  0  0  0
M  END
>  <minimizedAffinity>
-5.24673843

$$$$

 OpenBabel03212521083D

 32 34  0  0  0  0  0  0  0  0999 V2000
   42.5930   74.4620   56.4220 C   0  0  0  0  0  0  0  0  0  0  0  0
   43.5990   73.8760   55.6670 C   0  0  0  0  0  0  0  0  0  0  0  0
   44.8810   73.7430   56.1510 C   0  0  0  0  0  0  0  0  0  0  0  0
   45.1770   74.2090   57.4360 C   0  0  0  0  0  0  0  0  0  0  0  0
   44.1650   74.7940   58.1880 C   0  0  0  0  0  0  0  0  0  0  0  0
   42.8820   74.9260   57.7000 C   0  0  0  0  0  0  0  0  0  0  0  0
   43.4560   73.4940   54.6760 H   0  0  0  0  0  0  0  0  0  0  0  0
   45.6760   73.2880   55.5740 H   0  0  0  0  0  0  0  0  0  0  0  0
   46.1550   74.1240   57.8460 H   0  0  0  0  0  0  0  0  0  0  0  0
   44.4340   75.1430   59.1810 H   0  0  0  0  0  0  0  0  0  0  0  0
   41.8680   75.5430   58.5230 C   0  0  0  0  0  0  0  0  0  0  0  0
   42.2900   76.7950   58.9950 C   0  0  0  0  0  0  0  0  0  0  0  0
   41.4670   77.5660   59.8110 C   0  0  0  0  0  0  0  0  0  0  0  0
   40.2650   77.0570   60.1150 N   0  0  0  0  0  0  0  0  0  0  0  0
   39.8630   75.8450   59.6540 C   0  0  0  0  0  0  0  0  0  0  0  0
   40.6570   75.0910   58.8620 N   0  0  0  0  0  0  0  0  0  0  0  0
   43.2560   77.2710   58.7870 H   0  0  0  0  0  0  0  0  0  0  0  0
   41.7580   78.5350   60.1940 H   0  0  0  0  0  0  0  0  0  0  0  0
   37.2000   74.1460   61.0240 H   0  0  0  0  0  0  0  0  0  0  0  0
   38.2720   74.3250   60.9520 C   0  0  0  0  0  0  0  0  0  0  0  0
   39.3290   73.8610   61.4900 O   0  0  0  0  0  0  0  0  0  0  0  0
   38.5750   75.3490   60.0070 N   0  0  0  0  0  0  0  0  0  0  0  0
   37.8450   75.8740   59.4420 H   0  0  0  0  0  0  0  0  0  0  0  0
   39.6300   75.8580   54.8080 C   0  0  0  0  0  0  0  0  0  0  0  0
   38.7350   74.7970   54.8010 C   0  0  0  0  0  0  0  0  0  0  0  0
   39.1620   73.5690   55.3650 C   0  0  0  0  0  0  0  0  0  0  0  0
   40.4070   73.5140   55.8710 N   0  0  0  0  0  0  0  0  0  0  0  0
   41.2600   74.5760   55.8630 C   0  0  0  0  0  0  0  0  0  0  0  0
   40.8600   75.7260   55.3340 N   0  0  0  0  0  0  0  0  0  0  0  0
   39.2810   76.7800   54.3730 H   0  0  0  0  0  0  0  0  0  0  0  0
   37.7380   74.7870   54.4130 H   0  0  0  0  0  0  0  0  0  0  0  0
   38.5950   72.6520   55.4390 H   0  0  0  0  0  0  0  0  0  0  0  0
  1  6  1  0  0  0  0
  2  3  1  0  0  0  0
  2  1  2  0  0  0  0
  3  4  2  0  0  0  0
  4  9  1  0  0  0  0
  4  5  1  0  0  0  0
  5 10  1  0  0  0  0
  6  5  2  0  0  0  0
  6 11  1  0  0  0  0
  7  2  1  0  0  0  0
  8  3  1  0  0  0  0
 11 16  2  0  0  0  0
 11 12  1  0  0  0  0
 12 13  2  0  0  0  0
 13 14  1  0  0  0  0
 13 18  1  0  0  0  0
 15 22  1  0  0  0  0
 15 14  2  0  0  0  0
 16 15  1  0  0  0  0
 17 12  1  0  0  0  0
 20 19  1  0  0  0  0
 20 21  2  0  0  0  0
 22 20  1  0  0  0  0
 23 22  1  0  0  0  0
 24 29  1  0  0  0  0
 25 24  2  0  0  0  0
 25 26  1  0  0  0  0
 26 32  1  0  0  0  0
 26 27  2  0  0  0  0
 28 27  1  0  0  0  0
 28  1  1  0  0  0  0
 29 28  2  0  0  0  0
 30 24  1  0  0  0  0
 31 25  1  0  0  0  0
M  END
>  <minimizedAffinity>
-5.17595196

$$$$

 OpenBabel03212521083D

 32 34  0  0  0  0  0  0  0  0999 V2000
   40.9610   74.5970   59.7260 C   0  0  0  0  0  0  0  0  0  0  0  0
   40.4710   75.8440   60.0850 C   0  0  0  0  0  0  0  0  0  0  0  0
   39.3360   75.9820   60.8500 C   0  0  0  0  0  0  0  0  0  0  0  0
   38.6590   74.8350   61.2790 C   0  0  0  0  0  0  0  0  0  0  0  0
   39.1540   73.5880   60.9180 C   0  0  0  0  0  0  0  0  0  0  0  0
   40.2920   73.4550   60.1500 C   0  0  0  0  0  0  0  0  0  0  0  0
   40.9290   76.7710   59.7980 H   0  0  0  0  0  0  0  0  0  0  0  0
   38.9410   76.9480   61.1380 H   0  0  0  0  0  0  0  0  0  0  0  0
   37.7780   74.8990   61.8730 H   0  0  0  0  0  0  0  0  0  0  0  0
   38.6010   72.7220   61.2700 H   0  0  0  0  0  0  0  0  0  0  0  0
   40.7640   72.1350   59.8020 C   0  0  0  0  0  0  0  0  0  0  0  0
   41.5630   71.5950   60.8210 C   0  0  0  0  0  0  0  0  0  0  0  0
   42.1250   70.3280   60.6940 C   0  0  0  0  0  0  0  0  0  0  0  0
   41.8630   69.6590   59.5630 N   0  0  0  0  0  0  0  0  0  0  0  0
   41.0890   70.1860   58.5810 C   0  0  0  0  0  0  0  0  0  0  0  0
   40.5410   71.4160   58.6970 N   0  0  0  0  0  0  0  0  0  0  0  0
   41.8170   72.0860   61.7680 H   0  0  0  0  0  0  0  0  0  0  0  0
   42.7460   69.8810   61.4580 H   0  0  0  0  0  0  0  0  0  0  0  0
   41.0470   68.9100   55.3840 H   0  0  0  0  0  0  0  0  0  0  0  0
   41.4160   69.6340   56.1080 C   0  0  0  0  0  0  0  0  0  0  0  0
   42.2270   70.6170   56.1090 O   0  0  0  0  0  0  0  0  0  0  0  0
   40.8410   69.4330   57.3980 N   0  0  0  0  0  0  0  0  0  0  0  0
   40.1390   68.6680   57.6250 H   0  0  0  0  0  0  0  0  0  0  0  0
   44.4830   74.4530   58.7710 C   0  0  0  0  0  0  0  0  0  0  0  0
   44.4390   74.3460   57.3880 C   0  0  0  0  0  0  0  0  0  0  0  0
   43.1650   74.3210   56.7670 C   0  0  0  0  0  0  0  0  0  0  0  0
   42.0820   74.4050   57.5610 N   0  0  0  0  0  0  0  0  0  0  0  0
   42.1620   74.5110   58.9170 C   0  0  0  0  0  0  0  0  0  0  0  0
   43.3550   74.5330   59.4980 N   0  0  0  0  0  0  0  0  0  0  0  0
   45.4620   74.4690   59.2180 H   0  0  0  0  0  0  0  0  0  0  0  0
   45.2650   74.2770   56.7130 H   0  0  0  0  0  0  0  0  0  0  0  0
   42.9540   74.2430   55.7110 H   0  0  0  0  0  0  0  0  0  0  0  0
  1  2  2  0  0  0  0
  1  6  1  0  0  0  0
  2  3  1  0  0  0  0
  3  8  1  0  0  0  0
  3  4  2  0  0  0  0
  4  9  1  0  0  0  0
  5 10  1  0  0  0  0
  5  4  1  0  0  0  0
  6  5  2  0  0  0  0
  7  2  1  0  0  0  0
 11  6  1  0  0  0  0
 11 12  1  0  0  0  0
 12 17  1  0  0  0  0
 13 12  2  0  0  0  0
 13 18  1  0  0  0  0
 14 13  1  0  0  0  0
 15 16  1  0  0  0  0
 15 14  2  0  0  0  0
 16 11  2  0  0  0  0
 19 20  1  0  0  0  0
 20 21  2  0  0  0  0
 20 22  1  0  0  0  0
 22 23  1  0  0  0  0
 22 15  1  0  0  0  0
 24 30  1  0  0  0  0
 24 29  1  0  0  0  0
 25 24  2  0  0  0  0
 26 25  1  0  0  0  0
 26 27  2  0  0  0  0
 27 28  1  0  0  0  0
 28 29  2  0  0  0  0
 28  1  1  0  0  0  0
 31 25  1  0  0  0  0
 32 26  1  0  0  0  0
M  END
>  <minimizedAffinity>
-5.17244339

$$$$
