
 OpenBabel03212520503D

 31 33  0  0  1  0  0  0  0  0999 V2000
   43.5730   84.5440   60.2260 C   0  0  0  0  0  0  0  0  0  0  0  0
   43.9540   85.6800   60.8630 C   0  0  0  0  0  0  0  0  0  0  0  0
   43.5590   85.9390   62.1810 C   0  0  0  0  0  0  0  0  0  0  0  0
   42.7930   85.0590   62.8390 N   0  0  0  0  0  0  0  0  0  0  0  0
   42.4250   83.9310   62.1850 C   0  0  0  0  0  0  0  0  0  0  0  0
   42.7940   83.6660   60.9190 N   0  0  0  0  0  0  0  0  0  0  0  0
   44.5660   86.3960   60.3540 H   0  0  0  0  0  0  0  0  0  0  0  0
   43.8510   86.8340   62.7060 H   0  0  0  0  0  0  0  0  0  0  0  0
   44.1210   82.7580   57.0740 C   0  0  0  0  0  0  0  0  0  0  0  0
   44.6880   83.7690   56.2780 C   0  0  0  0  0  0  0  0  0  0  0  0
   44.8860   85.0350   56.7940 C   0  0  0  0  0  0  0  0  0  0  0  0
   44.4980   85.2190   58.0920 N   0  0  0  0  0  0  0  0  0  0  0  0
   43.9560   84.2470   58.8460 C   0  0  0  0  0  0  0  0  0  0  0  0
   43.7660   83.0280   58.3510 N   0  0  0  0  0  0  0  0  0  0  0  0
   43.9760   81.5210   56.4170 N   0  0  0  0  0  0  0  0  0  0  0  0
   44.9890   83.6110   55.2570 H   0  0  0  0  0  0  0  0  0  0  0  0
   45.3200   85.8400   56.2150 H   0  0  0  0  0  0  0  0  0  0  0  0
   44.2620   80.7630   57.1060 H   0  0  0  0  0  0  0  0  0  0  0  0
   43.6420   81.4380   55.4310 H   0  0  0  0  0  0  0  0  0  0  0  0
   41.5490   82.9780   62.9580 C   0  0  1  0  0  0  0  0  0  0  0  0
   40.7300   83.4400   64.0560 C   0  0  0  0  0  0  0  0  0  0  0  0
   40.0520   83.2950   62.7360 C   0  0  1  0  0  0  0  0  0  0  0  0
   41.7530   81.8790   62.7850 H   0  0  0  0  0  0  0  0  0  0  0  0
   40.4810   82.6870   64.8520 H   0  0  0  0  0  0  0  0  0  0  0  0
   40.8490   84.4540   64.4820 H   0  0  0  0  0  0  0  0  0  0  0  0
   39.3430   82.4710   62.6510 H   0  0  0  0  0  0  0  0  0  0  0  0
   39.1890   85.3520   60.1550 H   0  0  0  0  0  0  0  0  0  0  0  0
   39.4460   84.3630   60.5620 C   0  0  0  0  0  0  0  0  0  0  0  0
   39.5330   83.2630   59.9750 O   0  0  0  0  0  0  0  0  0  0  0  0
   39.6960   84.4520   61.9610 N   0  0  0  0  0  0  0  0  0  0  0  0
   39.6510   85.3260   62.5640 H   0  0  0  0  0  0  0  0  0  0  0  0
  1  2  2  0  0  0  0
  1  6  1  0  0  0  0
  2  3  1  0  0  0  0
  3  8  1  0  0  0  0
  3  4  2  0  0  0  0
  5  4  1  0  0  0  0
  5 20  1  0  0  0  0
  6  5  2  0  0  0  0
  7  2  1  0  0  0  0
  9 14  1  0  0  0  0
 10 11  1  0  0  0  0
 10  9  2  0  0  0  0
 11 12  2  0  0  0  0
 12 13  1  0  0  0  0
 13  1  1  0  0  0  0
 14 13  2  0  0  0  0
 15  9  1  0  0  0  0
 15 18  1  0  0  0  0
 16 10  1  0  0  0  0
 17 11  1  0  0  0  0
 19 15  1  0  0  0  0
 20 23  1  1  0  0  0
 20 21  1  0  0  0  0
 21 25  1  0  0  0  0
 21 24  1  0  0  0  0
 22 26  1  6  0  0  0
 22 20  1  0  0  0  0
 22 21  1  0  0  0  0
 27 28  1  0  0  0  0
 28 30  1  0  0  0  0
 29 28  2  0  0  0  0
 30 31  1  0  0  0  0
 30 22  1  0  0  0  0
M  END
>  <minimizedAffinity>
-4.22934675

>  <minimizedRMSD>
3.75414348

$$$$
