
 OpenBabel03212520513D

 31 33  0  0  1  0  0  0  0  0999 V2000
   41.6890   83.9390   61.4040 C   0  0  0  0  0  0  0  0  0  0  0  0
   40.9190   84.3100   62.4580 C   0  0  0  0  0  0  0  0  0  0  0  0
   40.4430   83.3660   63.3760 C   0  0  0  0  0  0  0  0  0  0  0  0
   40.7460   82.0700   63.2250 N   0  0  0  0  0  0  0  0  0  0  0  0
   41.5170   81.7210   62.1670 C   0  0  0  0  0  0  0  0  0  0  0  0
   41.9820   82.6140   61.2750 N   0  0  0  0  0  0  0  0  0  0  0  0
   40.6660   85.3420   62.5950 H   0  0  0  0  0  0  0  0  0  0  0  0
   39.8310   83.6390   64.2200 H   0  0  0  0  0  0  0  0  0  0  0  0
   43.7150   86.5290   59.7870 C   0  0  0  0  0  0  0  0  0  0  0  0
   43.0720   86.6460   58.5410 C   0  0  0  0  0  0  0  0  0  0  0  0
   41.9710   85.8650   58.2490 C   0  0  0  0  0  0  0  0  0  0  0  0
   41.5730   85.0010   59.2300 N   0  0  0  0  0  0  0  0  0  0  0  0
   42.1930   84.8960   60.4190 C   0  0  0  0  0  0  0  0  0  0  0  0
   43.2520   85.6470   60.7020 N   0  0  0  0  0  0  0  0  0  0  0  0
   44.8230   87.3840   59.9460 N   0  0  0  0  0  0  0  0  0  0  0  0
   43.3980   87.3300   57.7770 H   0  0  0  0  0  0  0  0  0  0  0  0
   41.4490   85.9250   57.3030 H   0  0  0  0  0  0  0  0  0  0  0  0
   44.7760   87.7800   60.9320 H   0  0  0  0  0  0  0  0  0  0  0  0
   45.5230   87.5500   59.1900 H   0  0  0  0  0  0  0  0  0  0  0  0
   41.8180   80.2500   62.0290 C   0  0  1  0  0  0  0  0  0  0  0  0
   40.8180   79.2520   62.3310 C   0  0  0  0  0  0  0  0  0  0  0  0
   40.9800   79.6170   60.8940 C   0  0  1  0  0  0  0  0  0  0  0  0
   42.9110   79.9860   61.9110 H   0  0  0  0  0  0  0  0  0  0  0  0
   41.1930   78.2440   62.6550 H   0  0  0  0  0  0  0  0  0  0  0  0
   39.8720   79.5140   62.8410 H   0  0  0  0  0  0  0  0  0  0  0  0
   41.4370   78.8590   60.2570 H   0  0  0  0  0  0  0  0  0  0  0  0
   39.2540   81.3510   58.5170 H   0  0  0  0  0  0  0  0  0  0  0  0
   40.1000   80.7250   58.8380 C   0  0  0  0  0  0  0  0  0  0  0  0
   41.0600   80.2870   58.1650 O   0  0  0  0  0  0  0  0  0  0  0  0
   39.9960   80.4230   60.2250 N   0  0  0  0  0  0  0  0  0  0  0  0
   39.2310   80.7370   60.8910 H   0  0  0  0  0  0  0  0  0  0  0  0
  1  2  1  0  0  0  0
  2  7  1  0  0  0  0
  2  3  2  0  0  0  0
  3  8  1  0  0  0  0
  4  3  1  0  0  0  0
  5  4  2  0  0  0  0
  6  1  2  0  0  0  0
  6  5  1  0  0  0  0
  9 15  1  0  0  0  0
  9 14  1  0  0  0  0
 10  9  2  0  0  0  0
 11 10  1  0  0  0  0
 11 12  2  0  0  0  0
 12 13  1  0  0  0  0
 13 14  2  0  0  0  0
 13  1  1  0  0  0  0
 15 18  1  0  0  0  0
 16 10  1  0  0  0  0
 17 11  1  0  0  0  0
 19 15  1  0  0  0  0
 20 23  1  1  0  0  0
 20  5  1  0  0  0  0
 20 21  1  0  0  0  0
 21 24  1  0  0  0  0
 21 25  1  0  0  0  0
 22 26  1  6  0  0  0
 22 20  1  0  0  0  0
 22 21  1  0  0  0  0
 27 28  1  0  0  0  0
 28 30  1  0  0  0  0
 29 28  2  0  0  0  0
 30 31  1  0  0  0  0
 30 22  1  0  0  0  0
M  END
>  <minimizedAffinity>
-4.82087374

>  <minimizedRMSD>
0.920897424

$$$$
