
 OpenBabel03212520373D

 22 23  0  0  1  0  0  0  0  0999 V2000
   42.5900   85.4930   59.9920 C   0  0  1  0  0  0  0  0  0  0  0  0
   43.7170   86.4590   59.6860 C   0  0  0  0  0  0  0  0  0  0  0  0
   43.2590   85.4080   58.6770 C   0  0  2  0  0  0  0  0  0  0  0  0
   41.5820   85.9480   60.1200 H   0  0  0  0  0  0  0  0  0  0  0  0
   43.4190   87.4960   59.5430 H   0  0  0  0  0  0  0  0  0  0  0  0
   44.7110   86.2300   60.0930 H   0  0  0  0  0  0  0  0  0  0  0  0
   43.9040   84.5680   58.4320 H   0  0  0  0  0  0  0  0  0  0  0  0
   41.0370   85.2770   55.9400 H   0  0  0  0  0  0  0  0  0  0  0  0
   41.6740   85.0410   56.7810 C   0  0  0  0  0  0  0  0  0  0  0  0
   41.7160   83.8060   57.0890 O   0  0  0  0  0  0  0  0  0  0  0  0
   42.4500   85.9160   57.5650 N   0  0  0  0  0  0  0  0  0  0  0  0
   42.4120   86.9220   57.3090 H   0  0  0  0  0  0  0  0  0  0  0  0
   42.9310   84.5380   60.9840 O   0  0  0  0  0  0  0  0  0  0  0  0
   40.0550   83.5200   62.9310 C   0  0  0  0  0  0  0  0  0  0  0  0
   40.4760   83.7720   64.2360 C   0  0  0  0  0  0  0  0  0  0  0  0
   41.7720   84.3000   64.4120 C   0  0  0  0  0  0  0  0  0  0  0  0
   42.4890   84.5110   63.2780 N   0  0  0  0  0  0  0  0  0  0  0  0
   42.0740   84.2650   62.0400 C   0  0  0  0  0  0  0  0  0  0  0  0
   40.8280   83.7570   61.8520 N   0  0  0  0  0  0  0  0  0  0  0  0
   39.0610   83.1150   62.7860 H   0  0  0  0  0  0  0  0  0  0  0  0
   39.8920   83.5980   65.1150 H   0  0  0  0  0  0  0  0  0  0  0  0
   42.2160   84.5390   65.3680 H   0  0  0  0  0  0  0  0  0  0  0  0
  1  4  1  1  0  0  0
  1 13  1  0  0  0  0
  2  1  1  0  0  0  0
  2  6  1  0  0  0  0
  3  7  1  6  0  0  0
  3  2  1  0  0  0  0
  3  1  1  0  0  0  0
  5  2  1  0  0  0  0
  8  9  1  0  0  0  0
  9 10  2  0  0  0  0
  9 11  1  0  0  0  0
 11  3  1  0  0  0  0
 12 11  1  0  0  0  0
 13 18  1  0  0  0  0
 14 15  1  0  0  0  0
 15 16  2  0  0  0  0
 15 21  1  0  0  0  0
 16 22  1  0  0  0  0
 17 16  1  0  0  0  0
 18 17  2  0  0  0  0
 19 18  1  0  0  0  0
 19 14  2  0  0  0  0
 20 14  1  0  0  0  0
M  END
>  <minimizedAffinity>
-3.82514095

>  <minimizedRMSD>
0.462146878

$$$$
