
 OpenBabel03212520513D

 31 33  0  0  1  0  0  0  0  0999 V2000
   44.2510   84.8910   61.6540 C   0  0  0  0  0  0  0  0  0  0  0  0
   43.1030   84.3210   62.0980 C   0  0  0  0  0  0  0  0  0  0  0  0
   43.1260   83.1570   62.8760 C   0  0  0  0  0  0  0  0  0  0  0  0
   44.2950   82.5860   63.1970 N   0  0  0  0  0  0  0  0  0  0  0  0
   45.4280   83.1730   62.7450 C   0  0  0  0  0  0  0  0  0  0  0  0
   45.4260   84.2900   61.9960 N   0  0  0  0  0  0  0  0  0  0  0  0
   42.1590   84.7620   61.8510 H   0  0  0  0  0  0  0  0  0  0  0  0
   42.2270   82.6870   63.2390 H   0  0  0  0  0  0  0  0  0  0  0  0
   44.2140   88.4120   60.6350 C   0  0  0  0  0  0  0  0  0  0  0  0
   44.2960   88.2960   59.2360 C   0  0  0  0  0  0  0  0  0  0  0  0
   44.3610   87.0500   58.6420 C   0  0  0  0  0  0  0  0  0  0  0  0
   44.3420   85.9800   59.4920 N   0  0  0  0  0  0  0  0  0  0  0  0
   44.2640   86.1000   60.8290 C   0  0  0  0  0  0  0  0  0  0  0  0
   44.2000   87.2980   61.4030 N   0  0  0  0  0  0  0  0  0  0  0  0
   44.1570   89.7390   61.1010 N   0  0  0  0  0  0  0  0  0  0  0  0
   44.3110   89.1470   58.5780 H   0  0  0  0  0  0  0  0  0  0  0  0
   44.4250   86.9180   57.5700 H   0  0  0  0  0  0  0  0  0  0  0  0
   43.4330   89.7690   61.8790 H   0  0  0  0  0  0  0  0  0  0  0  0
   44.7480   90.5040   60.7060 H   0  0  0  0  0  0  0  0  0  0  0  0
   46.7180   82.4860   63.1160 C   0  0  1  0  0  0  0  0  0  0  0  0
   46.7600   81.0640   63.3710 C   0  0  0  0  0  0  0  0  0  0  0  0
   47.1660   81.5070   62.0060 C   0  0  1  0  0  0  0  0  0  0  0  0
   47.5690   83.1720   63.4080 H   0  0  0  0  0  0  0  0  0  0  0  0
   47.5700   80.6980   64.0590 H   0  0  0  0  0  0  0  0  0  0  0  0
   45.8360   80.4670   63.4810 H   0  0  0  0  0  0  0  0  0  0  0  0
   48.2270   81.4210   61.7710 H   0  0  0  0  0  0  0  0  0  0  0  0
   45.8510   81.5160   58.8580 H   0  0  0  0  0  0  0  0  0  0  0  0
   46.6380   81.7780   59.5810 C   0  0  0  0  0  0  0  0  0  0  0  0
   47.7060   82.4020   59.3970 O   0  0  0  0  0  0  0  0  0  0  0  0
   46.3010   81.2960   60.8780 N   0  0  0  0  0  0  0  0  0  0  0  0
   45.4270   80.7570   61.1510 H   0  0  0  0  0  0  0  0  0  0  0  0
  1  6  2  0  0  0  0
  1  2  1  0  0  0  0
  2  3  2  0  0  0  0
  3  4  1  0  0  0  0
  3  8  1  0  0  0  0
  5 20  1  0  0  0  0
  5  4  2  0  0  0  0
  6  5  1  0  0  0  0
  7  2  1  0  0  0  0
  9 15  1  0  0  0  0
  9 14  1  0  0  0  0
 10  9  2  0  0  0  0
 11 10  1  0  0  0  0
 11 12  2  0  0  0  0
 12 13  1  0  0  0  0
 13 14  2  0  0  0  0
 13  1  1  0  0  0  0
 15 18  1  0  0  0  0
 16 10  1  0  0  0  0
 17 11  1  0  0  0  0
 19 15  1  0  0  0  0
 20 21  1  0  0  0  0
 20 23  1  1  0  0  0
 21 25  1  0  0  0  0
 21 24  1  0  0  0  0
 22 26  1  6  0  0  0
 22 20  1  0  0  0  0
 22 21  1  0  0  0  0
 27 28  1  0  0  0  0
 28 30  1  0  0  0  0
 29 28  2  0  0  0  0
 30 31  1  0  0  0  0
 30 22  1  0  0  0  0
M  END
>  <minimizedAffinity>
-4.15371084

>  <minimizedRMSD>
4.86646986

$$$$
