
 OpenBabel03212520503D

 31 33  0  0  1  0  0  0  0  0999 V2000
   41.7560   83.9470   61.4420 C   0  0  0  0  0  0  0  0  0  0  0  0
   40.9800   84.3190   62.4910 C   0  0  0  0  0  0  0  0  0  0  0  0
   40.4780   83.3710   63.3920 C   0  0  0  0  0  0  0  0  0  0  0  0
   40.7620   82.0720   63.2280 N   0  0  0  0  0  0  0  0  0  0  0  0
   41.5390   81.7240   62.1750 C   0  0  0  0  0  0  0  0  0  0  0  0
   42.0300   82.6190   61.3000 N   0  0  0  0  0  0  0  0  0  0  0  0
   40.7430   85.3520   62.6380 H   0  0  0  0  0  0  0  0  0  0  0  0
   39.8610   83.6440   64.2320 H   0  0  0  0  0  0  0  0  0  0  0  0
   43.7690   86.6060   59.9220 C   0  0  0  0  0  0  0  0  0  0  0  0
   43.2230   86.6610   58.6270 C   0  0  0  0  0  0  0  0  0  0  0  0
   42.1900   85.8160   58.2690 C   0  0  0  0  0  0  0  0  0  0  0  0
   41.7600   84.9540   59.2380 N   0  0  0  0  0  0  0  0  0  0  0  0
   42.2880   84.9080   60.4740 C   0  0  0  0  0  0  0  0  0  0  0  0
   43.2810   85.7210   60.8210 N   0  0  0  0  0  0  0  0  0  0  0  0
   44.8160   87.5210   60.1450 N   0  0  0  0  0  0  0  0  0  0  0  0
   43.5730   87.3440   57.8730 H   0  0  0  0  0  0  0  0  0  0  0  0
   41.7430   85.8270   57.2840 H   0  0  0  0  0  0  0  0  0  0  0  0
   44.6710   87.9360   61.1130 H   0  0  0  0  0  0  0  0  0  0  0  0
   45.5650   87.7080   59.4420 H   0  0  0  0  0  0  0  0  0  0  0  0
   41.8180   80.2500   62.0220 C   0  0  1  0  0  0  0  0  0  0  0  0
   40.8040   79.2640   62.3190 C   0  0  0  0  0  0  0  0  0  0  0  0
   40.9660   79.6390   60.8850 C   0  0  1  0  0  0  0  0  0  0  0  0
   42.9060   79.9700   61.8970 H   0  0  0  0  0  0  0  0  0  0  0  0
   41.1650   78.2470   62.6320 H   0  0  0  0  0  0  0  0  0  0  0  0
   39.8640   79.5350   62.8340 H   0  0  0  0  0  0  0  0  0  0  0  0
   41.4100   78.8810   60.2390 H   0  0  0  0  0  0  0  0  0  0  0  0
   39.2630   81.4290   58.5320 H   0  0  0  0  0  0  0  0  0  0  0  0
   40.1010   80.7880   58.8450 C   0  0  0  0  0  0  0  0  0  0  0  0
   41.0580   80.3510   58.1680 O   0  0  0  0  0  0  0  0  0  0  0  0
   39.9920   80.4670   60.2270 N   0  0  0  0  0  0  0  0  0  0  0  0
   39.2280   80.7780   60.8970 H   0  0  0  0  0  0  0  0  0  0  0  0
  1  2  1  0  0  0  0
  2  7  1  0  0  0  0
  2  3  2  0  0  0  0
  3  8  1  0  0  0  0
  4  3  1  0  0  0  0
  5  4  2  0  0  0  0
  6  1  2  0  0  0  0
  6  5  1  0  0  0  0
  9 15  1  0  0  0  0
  9 14  1  0  0  0  0
 10  9  2  0  0  0  0
 11 10  1  0  0  0  0
 11 12  2  0  0  0  0
 12 13  1  0  0  0  0
 13 14  2  0  0  0  0
 13  1  1  0  0  0  0
 15 18  1  0  0  0  0
 16 10  1  0  0  0  0
 17 11  1  0  0  0  0
 19 15  1  0  0  0  0
 20 23  1  1  0  0  0
 20  5  1  0  0  0  0
 20 21  1  0  0  0  0
 21 24  1  0  0  0  0
 21 25  1  0  0  0  0
 22 26  1  6  0  0  0
 22 20  1  0  0  0  0
 22 21  1  0  0  0  0
 27 28  1  0  0  0  0
 28 30  1  0  0  0  0
 29 28  2  0  0  0  0
 30 22  1  0  0  0  0
 30 31  1  0  0  0  0
M  END
>  <minimizedAffinity>
-4.81009054

>  <minimizedRMSD>
0.720202267

$$$$
