
 OpenBabel03212520373D

 22 23  0  0  1  0  0  0  0  0999 V2000
   42.4910   85.4180   59.8860 C   0  0  1  0  0  0  0  0  0  0  0  0
   43.5360   86.4790   59.6060 C   0  0  0  0  0  0  0  0  0  0  0  0
   43.2160   85.3770   58.5990 C   0  0  2  0  0  0  0  0  0  0  0  0
   41.4420   85.7790   59.9690 H   0  0  0  0  0  0  0  0  0  0  0  0
   43.1500   87.4820   59.4340 H   0  0  0  0  0  0  0  0  0  0  0  0
   44.5310   86.3480   60.0530 H   0  0  0  0  0  0  0  0  0  0  0  0
   43.9440   84.5970   58.3920 H   0  0  0  0  0  0  0  0  0  0  0  0
   41.1670   85.0030   55.7490 H   0  0  0  0  0  0  0  0  0  0  0  0
   41.7860   84.8380   56.6220 C   0  0  0  0  0  0  0  0  0  0  0  0
   41.9660   83.6150   56.9260 O   0  0  0  0  0  0  0  0  0  0  0  0
   42.4070   85.7930   57.4490 N   0  0  0  0  0  0  0  0  0  0  0  0
   42.2570   86.7890   57.1960 H   0  0  0  0  0  0  0  0  0  0  0  0
   42.8810   84.5110   60.9060 O   0  0  0  0  0  0  0  0  0  0  0  0
   40.0470   83.5370   62.9360 C   0  0  0  0  0  0  0  0  0  0  0  0
   40.5100   83.7790   64.2280 C   0  0  0  0  0  0  0  0  0  0  0  0
   41.8200   84.2840   64.3660 C   0  0  0  0  0  0  0  0  0  0  0  0
   42.5070   84.4860   63.2120 N   0  0  0  0  0  0  0  0  0  0  0  0
   42.0510   84.2500   61.9860 C   0  0  0  0  0  0  0  0  0  0  0  0
   40.7920   83.7630   61.8350 N   0  0  0  0  0  0  0  0  0  0  0  0
   39.0420   83.1490   62.8190 H   0  0  0  0  0  0  0  0  0  0  0  0
   39.9500   83.6120   65.1240 H   0  0  0  0  0  0  0  0  0  0  0  0
   42.2960   84.5130   65.3090 H   0  0  0  0  0  0  0  0  0  0  0  0
  1  4  1  6  0  0  0
  1 13  1  0  0  0  0
  2  1  1  0  0  0  0
  2  6  1  0  0  0  0
  3  7  1  6  0  0  0
  3  2  1  0  0  0  0
  3  1  1  0  0  0  0
  5  2  1  0  0  0  0
  8  9  1  0  0  0  0
  9 10  2  0  0  0  0
  9 11  1  0  0  0  0
 11  3  1  0  0  0  0
 12 11  1  0  0  0  0
 13 18  1  0  0  0  0
 14 15  1  0  0  0  0
 15 16  2  0  0  0  0
 15 21  1  0  0  0  0
 16 22  1  0  0  0  0
 17 16  1  0  0  0  0
 18 17  2  0  0  0  0
 19 18  1  0  0  0  0
 19 14  2  0  0  0  0
 20 14  1  0  0  0  0
M  END
>  <minimizedAffinity>
-3.80357862

>  <minimizedRMSD>
0.2264314

$$$$
