
 OpenBabel03212520373D

 22 23  0  0  1  0  0  0  0  0999 V2000
   42.4750   85.4020   59.8820 C   0  0  1  0  0  0  0  0  0  0  0  0
   43.5160   86.4700   59.6140 C   0  0  0  0  0  0  0  0  0  0  0  0
   43.2070   85.3720   58.5980 C   0  0  2  0  0  0  0  0  0  0  0  0
   41.4230   85.7580   59.9610 H   0  0  0  0  0  0  0  0  0  0  0  0
   43.1270   87.4720   59.4460 H   0  0  0  0  0  0  0  0  0  0  0  0
   44.5090   86.3410   60.0660 H   0  0  0  0  0  0  0  0  0  0  0  0
   43.9390   84.5970   58.3910 H   0  0  0  0  0  0  0  0  0  0  0  0
   41.1730   85.0050   55.7390 H   0  0  0  0  0  0  0  0  0  0  0  0
   41.7870   84.8380   56.6130 C   0  0  0  0  0  0  0  0  0  0  0  0
   41.9670   83.6140   56.9130 O   0  0  0  0  0  0  0  0  0  0  0  0
   42.4030   85.7920   57.4460 N   0  0  0  0  0  0  0  0  0  0  0  0
   42.2520   86.7890   57.1960 H   0  0  0  0  0  0  0  0  0  0  0  0
   42.8620   84.4920   60.8980 O   0  0  0  0  0  0  0  0  0  0  0  0
   40.0440   83.5470   62.9630 C   0  0  0  0  0  0  0  0  0  0  0  0
   40.5190   83.8010   64.2480 C   0  0  0  0  0  0  0  0  0  0  0  0
   41.8320   84.3040   64.3700 C   0  0  0  0  0  0  0  0  0  0  0  0
   42.5080   84.4930   63.2070 N   0  0  0  0  0  0  0  0  0  0  0  0
   42.0420   84.2440   61.9890 C   0  0  0  0  0  0  0  0  0  0  0  0
   40.7800   83.7590   61.8540 N   0  0  0  0  0  0  0  0  0  0  0  0
   39.0370   83.1600   62.8600 H   0  0  0  0  0  0  0  0  0  0  0  0
   39.9660   83.6450   65.1510 H   0  0  0  0  0  0  0  0  0  0  0  0
   42.3160   84.5430   65.3060 H   0  0  0  0  0  0  0  0  0  0  0  0
  1  4  1  6  0  0  0
  1 13  1  0  0  0  0
  2  1  1  0  0  0  0
  2  6  1  0  0  0  0
  3  7  1  6  0  0  0
  3  2  1  0  0  0  0
  3  1  1  0  0  0  0
  5  2  1  0  0  0  0
  8  9  1  0  0  0  0
  9 10  2  0  0  0  0
  9 11  1  0  0  0  0
 11  3  1  0  0  0  0
 12 11  1  0  0  0  0
 13 18  1  0  0  0  0
 14 15  1  0  0  0  0
 15 16  2  0  0  0  0
 15 21  1  0  0  0  0
 16 22  1  0  0  0  0
 17 16  1  0  0  0  0
 18 17  2  0  0  0  0
 19 18  1  0  0  0  0
 19 14  2  0  0  0  0
 20 14  1  0  0  0  0
M  END
>  <minimizedAffinity>
-3.81015515

>  <minimizedRMSD>
0.211999729

$$$$
