
 OpenBabel03212520373D

 22 23  0  0  1  0  0  0  0  0999 V2000
   42.8110   85.6920   60.1480 C   0  0  1  0  0  0  0  0  0  0  0  0
   43.9610   86.5790   59.7130 C   0  0  0  0  0  0  0  0  0  0  0  0
   43.2940   85.5930   58.7550 C   0  0  2  0  0  0  0  0  0  0  0  0
   41.8670   86.2180   60.4170 H   0  0  0  0  0  0  0  0  0  0  0  0
   43.7290   87.6380   59.6290 H   0  0  0  0  0  0  0  0  0  0  0  0
   44.9790   86.2640   59.9800 H   0  0  0  0  0  0  0  0  0  0  0  0
   43.8330   84.7140   58.4120 H   0  0  0  0  0  0  0  0  0  0  0  0
   40.7410   85.7020   56.3220 H   0  0  0  0  0  0  0  0  0  0  0  0
   41.4610   85.3960   57.0700 C   0  0  0  0  0  0  0  0  0  0  0  0
   41.4550   84.1520   57.3380 O   0  0  0  0  0  0  0  0  0  0  0  0
   42.3890   86.1910   57.7700 N   0  0  0  0  0  0  0  0  0  0  0  0
   42.3890   87.2050   57.5460 H   0  0  0  0  0  0  0  0  0  0  0  0
   43.2040   84.6870   61.0700 O   0  0  0  0  0  0  0  0  0  0  0  0
   40.5980   82.8510   62.7850 C   0  0  0  0  0  0  0  0  0  0  0  0
   40.6440   83.3990   64.0660 C   0  0  0  0  0  0  0  0  0  0  0  0
   41.5960   84.4110   64.3080 C   0  0  0  0  0  0  0  0  0  0  0  0
   42.3820   84.7550   63.2550 N   0  0  0  0  0  0  0  0  0  0  0  0
   42.3280   84.2230   62.0390 C   0  0  0  0  0  0  0  0  0  0  0  0
   41.4170   83.2460   61.7890 N   0  0  0  0  0  0  0  0  0  0  0  0
   39.8710   82.0730   62.5900 H   0  0  0  0  0  0  0  0  0  0  0  0
   40.0130   83.1110   64.8810 H   0  0  0  0  0  0  0  0  0  0  0  0
   41.7320   84.9160   65.2540 H   0  0  0  0  0  0  0  0  0  0  0  0
  1  4  1  1  0  0  0
  1 13  1  0  0  0  0
  2  6  1  0  0  0  0
  2  1  1  0  0  0  0
  3  7  1  6  0  0  0
  3  2  1  0  0  0  0
  3  1  1  0  0  0  0
  5  2  1  0  0  0  0
  8  9  1  0  0  0  0
  9 10  2  0  0  0  0
  9 11  1  0  0  0  0
 11  3  1  0  0  0  0
 12 11  1  0  0  0  0
 13 18  1  0  0  0  0
 14 15  1  0  0  0  0
 15 16  2  0  0  0  0
 15 21  1  0  0  0  0
 16 22  1  0  0  0  0
 17 16  1  0  0  0  0
 18 17  2  0  0  0  0
 19 18  1  0  0  0  0
 19 14  2  0  0  0  0
 20 14  1  0  0  0  0
M  END
>  <minimizedAffinity>
-3.76995444

>  <minimizedRMSD>
0.666380107

$$$$
