
 OpenBabel03212520373D

 22 23  0  0  1  0  0  0  0  0999 V2000
   42.2040   85.0510   59.8650 C   0  0  1  0  0  0  0  0  0  0  0  0
   42.9630   86.1210   59.1060 C   0  0  0  0  0  0  0  0  0  0  0  0
   42.9570   84.6630   58.6530 C   0  0  2  0  0  0  0  0  0  0  0  0
   41.0960   85.1530   59.8720 H   0  0  0  0  0  0  0  0  0  0  0  0
   42.3470   86.8440   58.5740 H   0  0  0  0  0  0  0  0  0  0  0  0
   43.9440   86.4250   59.4950 H   0  0  0  0  0  0  0  0  0  0  0  0
   43.8620   84.0640   58.7260 H   0  0  0  0  0  0  0  0  0  0  0  0
   40.7960   85.3320   55.9450 H   0  0  0  0  0  0  0  0  0  0  0  0
   41.4470   85.4050   56.8070 C   0  0  0  0  0  0  0  0  0  0  0  0
   41.6280   86.5880   57.2410 O   0  0  0  0  0  0  0  0  0  0  0  0
   42.1080   84.3690   57.4950 N   0  0  0  0  0  0  0  0  0  0  0  0
   41.9560   83.4070   57.1370 H   0  0  0  0  0  0  0  0  0  0  0  0
   42.7730   84.7600   61.1320 O   0  0  0  0  0  0  0  0  0  0  0  0
   40.0470   83.5040   63.1550 C   0  0  0  0  0  0  0  0  0  0  0  0
   40.4940   83.7640   64.4490 C   0  0  0  0  0  0  0  0  0  0  0  0
   41.7550   84.3800   64.5910 C   0  0  0  0  0  0  0  0  0  0  0  0
   42.4150   84.6620   63.4380 N   0  0  0  0  0  0  0  0  0  0  0  0
   41.9760   84.4080   62.2100 C   0  0  0  0  0  0  0  0  0  0  0  0
   40.7630   83.8140   62.0550 N   0  0  0  0  0  0  0  0  0  0  0  0
   39.0800   83.0300   63.0350 H   0  0  0  0  0  0  0  0  0  0  0  0
   39.9550   83.5320   65.3440 H   0  0  0  0  0  0  0  0  0  0  0  0
   42.2130   84.6340   65.5360 H   0  0  0  0  0  0  0  0  0  0  0  0
  1  4  1  6  0  0  0
  1 13  1  0  0  0  0
  2  6  1  0  0  0  0
  2  1  1  0  0  0  0
  3  7  1  1  0  0  0
  3  2  1  0  0  0  0
  3  1  1  0  0  0  0
  5  2  1  0  0  0  0
  8  9  1  0  0  0  0
  9 10  2  0  0  0  0
  9 11  1  0  0  0  0
 11  3  1  0  0  0  0
 12 11  1  0  0  0  0
 13 18  1  0  0  0  0
 14 15  1  0  0  0  0
 15 16  2  0  0  0  0
 15 21  1  0  0  0  0
 16 22  1  0  0  0  0
 17 16  1  0  0  0  0
 18 17  2  0  0  0  0
 19 18  1  0  0  0  0
 19 14  2  0  0  0  0
 20 14  1  0  0  0  0
M  END
>  <minimizedAffinity>
-3.97948718

>  <minimizedRMSD>
0.842217326

$$$$
