
 OpenBabel03212520373D

 22 23  0  0  1  0  0  0  0  0999 V2000
   42.2050   85.0500   59.8650 C   0  0  1  0  0  0  0  0  0  0  0  0
   42.9610   86.1220   59.1070 C   0  0  0  0  0  0  0  0  0  0  0  0
   42.9600   84.6630   58.6550 C   0  0  2  0  0  0  0  0  0  0  0  0
   41.0960   85.1490   59.8710 H   0  0  0  0  0  0  0  0  0  0  0  0
   42.3440   86.8420   58.5740 H   0  0  0  0  0  0  0  0  0  0  0  0
   43.9410   86.4280   59.4960 H   0  0  0  0  0  0  0  0  0  0  0  0
   43.8650   84.0670   58.7280 H   0  0  0  0  0  0  0  0  0  0  0  0
   40.8010   85.3270   55.9440 H   0  0  0  0  0  0  0  0  0  0  0  0
   41.4500   85.4010   56.8050 C   0  0  0  0  0  0  0  0  0  0  0  0
   41.6290   86.5840   57.2390 O   0  0  0  0  0  0  0  0  0  0  0  0
   42.1120   84.3670   57.4960 N   0  0  0  0  0  0  0  0  0  0  0  0
   41.9630   83.4040   57.1380 H   0  0  0  0  0  0  0  0  0  0  0  0
   42.7730   84.7600   61.1330 O   0  0  0  0  0  0  0  0  0  0  0  0
   40.0470   83.5040   63.1550 C   0  0  0  0  0  0  0  0  0  0  0  0
   40.4940   83.7630   64.4490 C   0  0  0  0  0  0  0  0  0  0  0  0
   41.7540   84.3800   64.5920 C   0  0  0  0  0  0  0  0  0  0  0  0
   42.4140   84.6620   63.4390 N   0  0  0  0  0  0  0  0  0  0  0  0
   41.9760   84.4080   62.2110 C   0  0  0  0  0  0  0  0  0  0  0  0
   40.7630   83.8140   62.0560 N   0  0  0  0  0  0  0  0  0  0  0  0
   39.0800   83.0300   63.0350 H   0  0  0  0  0  0  0  0  0  0  0  0
   39.9550   83.5320   65.3440 H   0  0  0  0  0  0  0  0  0  0  0  0
   42.2130   84.6340   65.5370 H   0  0  0  0  0  0  0  0  0  0  0  0
  1  4  1  6  0  0  0
  1 13  1  0  0  0  0
  2  6  1  0  0  0  0
  2  1  1  0  0  0  0
  3  7  1  1  0  0  0
  3  2  1  0  0  0  0
  3  1  1  0  0  0  0
  5  2  1  0  0  0  0
  8  9  1  0  0  0  0
  9 10  2  0  0  0  0
  9 11  1  0  0  0  0
 11  3  1  0  0  0  0
 12 11  1  0  0  0  0
 13 18  1  0  0  0  0
 14 15  1  0  0  0  0
 15 16  2  0  0  0  0
 15 21  1  0  0  0  0
 16 22  1  0  0  0  0
 17 16  1  0  0  0  0
 18 17  2  0  0  0  0
 19 18  1  0  0  0  0
 19 14  2  0  0  0  0
 20 14  1  0  0  0  0
M  END
>  <minimizedAffinity>
-3.9785459

>  <minimizedRMSD>
0.907382429

$$$$
