
 OpenBabel03212520513D

 31 33  0  0  1  0  0  0  0  0999 V2000
   41.7570   83.9460   61.4410 C   0  0  0  0  0  0  0  0  0  0  0  0
   40.9800   84.3170   62.4910 C   0  0  0  0  0  0  0  0  0  0  0  0
   40.4780   83.3700   63.3920 C   0  0  0  0  0  0  0  0  0  0  0  0
   40.7620   82.0710   63.2280 N   0  0  0  0  0  0  0  0  0  0  0  0
   41.5390   81.7230   62.1760 C   0  0  0  0  0  0  0  0  0  0  0  0
   42.0300   82.6180   61.3000 N   0  0  0  0  0  0  0  0  0  0  0  0
   40.7430   85.3510   62.6370 H   0  0  0  0  0  0  0  0  0  0  0  0
   39.8610   83.6430   64.2310 H   0  0  0  0  0  0  0  0  0  0  0  0
   43.7690   86.6060   59.9220 C   0  0  0  0  0  0  0  0  0  0  0  0
   43.2240   86.6590   58.6260 C   0  0  0  0  0  0  0  0  0  0  0  0
   42.1920   85.8130   58.2680 C   0  0  0  0  0  0  0  0  0  0  0  0
   41.7620   84.9510   59.2370 N   0  0  0  0  0  0  0  0  0  0  0  0
   42.2880   84.9060   60.4740 C   0  0  0  0  0  0  0  0  0  0  0  0
   43.2800   85.7200   60.8210 N   0  0  0  0  0  0  0  0  0  0  0  0
   44.8150   87.5220   60.1450 N   0  0  0  0  0  0  0  0  0  0  0  0
   43.5740   87.3420   57.8720 H   0  0  0  0  0  0  0  0  0  0  0  0
   41.7460   85.8230   57.2820 H   0  0  0  0  0  0  0  0  0  0  0  0
   44.6670   87.9370   61.1130 H   0  0  0  0  0  0  0  0  0  0  0  0
   45.5640   87.7090   59.4430 H   0  0  0  0  0  0  0  0  0  0  0  0
   41.8180   80.2490   62.0220 C   0  0  1  0  0  0  0  0  0  0  0  0
   40.8040   79.2630   62.3200 C   0  0  0  0  0  0  0  0  0  0  0  0
   40.9650   79.6380   60.8860 C   0  0  1  0  0  0  0  0  0  0  0  0
   42.9060   79.9690   61.8970 H   0  0  0  0  0  0  0  0  0  0  0  0
   41.1650   78.2460   62.6330 H   0  0  0  0  0  0  0  0  0  0  0  0
   39.8650   79.5340   62.8360 H   0  0  0  0  0  0  0  0  0  0  0  0
   41.4090   78.8790   60.2400 H   0  0  0  0  0  0  0  0  0  0  0  0
   39.2620   81.4280   58.5330 H   0  0  0  0  0  0  0  0  0  0  0  0
   40.1000   80.7880   58.8450 C   0  0  0  0  0  0  0  0  0  0  0  0
   41.0590   80.3510   58.1690 O   0  0  0  0  0  0  0  0  0  0  0  0
   39.9910   80.4650   60.2280 N   0  0  0  0  0  0  0  0  0  0  0  0
   39.2280   80.7750   60.8980 H   0  0  0  0  0  0  0  0  0  0  0  0
  1  2  1  0  0  0  0
  2  7  1  0  0  0  0
  2  3  2  0  0  0  0
  3  8  1  0  0  0  0
  4  3  1  0  0  0  0
  5  4  2  0  0  0  0
  6  1  2  0  0  0  0
  6  5  1  0  0  0  0
  9 15  1  0  0  0  0
  9 14  1  0  0  0  0
 10  9  2  0  0  0  0
 11 10  1  0  0  0  0
 11 12  2  0  0  0  0
 12 13  1  0  0  0  0
 13 14  2  0  0  0  0
 13  1  1  0  0  0  0
 15 18  1  0  0  0  0
 16 10  1  0  0  0  0
 17 11  1  0  0  0  0
 19 15  1  0  0  0  0
 20 23  1  1  0  0  0
 20  5  1  0  0  0  0
 20 21  1  0  0  0  0
 21 24  1  0  0  0  0
 21 25  1  0  0  0  0
 22 26  1  6  0  0  0
 22 20  1  0  0  0  0
 22 21  1  0  0  0  0
 27 28  1  0  0  0  0
 28 30  1  0  0  0  0
 29 28  2  0  0  0  0
 30 22  1  0  0  0  0
 30 31  1  0  0  0  0
M  END
>  <minimizedAffinity>
-4.80961704

>  <minimizedRMSD>
0.598944008

$$$$
