
 OpenBabel03212520363D

 33 36  0  0  0  0  0  0  0  0999 V2000
   42.2540   73.3510   59.8860 C   0  0  0  0  0  0  0  0  0  0  0  0
   43.4010   73.8100   59.1950 C   0  0  0  0  0  0  0  0  0  0  0  0
   43.5750   75.1040   58.7930 C   0  0  0  0  0  0  0  0  0  0  0  0
   42.5890   76.0340   59.0660 C   0  0  0  0  0  0  0  0  0  0  0  0
   41.4590   75.6080   59.7400 C   0  0  0  0  0  0  0  0  0  0  0  0
   40.4240   76.4500   60.0770 C   0  0  0  0  0  0  0  0  0  0  0  0
   39.3050   75.9920   60.7630 C   0  0  0  0  0  0  0  0  0  0  0  0
   39.1730   74.6650   61.1410 C   0  0  0  0  0  0  0  0  0  0  0  0
   40.2140   73.8160   60.8030 C   0  0  0  0  0  0  0  0  0  0  0  0
   41.2920   74.2950   60.1400 C   0  0  0  0  0  0  0  0  0  0  0  0
   44.2680   73.2330   58.9100 H   0  0  0  0  0  0  0  0  0  0  0  0
   44.4190   75.5090   58.2690 H   0  0  0  0  0  0  0  0  0  0  0  0
   42.6400   77.0880   58.7860 H   0  0  0  0  0  0  0  0  0  0  0  0
   40.5380   77.4970   59.7710 H   0  0  0  0  0  0  0  0  0  0  0  0
   38.5700   76.7770   60.9610 H   0  0  0  0  0  0  0  0  0  0  0  0
   38.2720   74.4190   61.6640 H   0  0  0  0  0  0  0  0  0  0  0  0
   39.9490   72.8290   61.0940 H   0  0  0  0  0  0  0  0  0  0  0  0
   42.8840   71.3550   61.3870 C   0  0  0  0  0  0  0  0  0  0  0  0
   42.3140   71.9500   60.2620 C   0  0  0  0  0  0  0  0  0  0  0  0
   41.6840   71.1080   59.2650 C   0  0  0  0  0  0  0  0  0  0  0  0
   41.6810   69.7610   59.4810 N   0  0  0  0  0  0  0  0  0  0  0  0
   42.2670   69.2360   60.6280 C   0  0  0  0  0  0  0  0  0  0  0  0
   42.8560   70.0350   61.5600 N   0  0  0  0  0  0  0  0  0  0  0  0
   43.4200   71.9070   62.1080 H   0  0  0  0  0  0  0  0  0  0  0  0
   41.1880   71.3440   58.3540 H   0  0  0  0  0  0  0  0  0  0  0  0
   42.2890   67.7870   60.8750 C   0  0  0  0  0  0  0  0  0  0  0  0
   42.7790   66.9970   60.0450 O   0  0  0  0  0  0  0  0  0  0  0  0
   41.7370   67.2940   62.0930 N   0  0  0  0  0  0  0  0  0  0  0  0
   42.1670   66.0990   62.8000 C   0  0  0  0  0  2  0  0  0  0  0  0
   40.8150   65.5050   63.1450 C   0  0  0  0  0  2  0  0  0  0  0  0
   39.8140   66.6420   63.1350 C   0  0  0  0  0  2  0  0  0  0  0  0
   40.6500   67.8740   62.8620 C   0  0  0  0  0  3  0  0  0  0  0  0
   41.1030   68.2220   63.8120 H   0  0  0  0  0  0  0  0  0  0  0  0
  1 10  1  0  0  0  0
  1 19  1  0  0  0  0
  2  1  2  0  0  0  0
  3  4  2  0  0  0  0
  3  2  1  0  0  0  0
  4  5  1  0  0  0  0
  5  6  2  0  0  0  0
  5 10  1  0  0  0  0
  6  7  1  0  0  0  0
  7 15  1  0  0  0  0
  7  8  2  0  0  0  0
  8 16  1  0  0  0  0
  9 17  1  0  0  0  0
  9  8  1  0  0  0  0
 10  9  2  0  0  0  0
 11  2  1  0  0  0  0
 12  3  1  0  0  0  0
 13  4  1  0  0  0  0
 14  6  1  0  0  0  0
 18 23  1  0  0  0  0
 18 24  1  0  0  0  0
 19 18  2  0  0  0  0
 20 21  2  0  0  0  0
 20 19  1  0  0  0  0
 21 22  1  0  0  0  0
 22 26  1  0  0  0  0
 22 23  2  0  0  0  0
 25 20  1  0  0  0  0
 26 28  1  0  0  0  0
 27 26  2  0  0  0  0
 28 29  1  0  0  0  0
 28 32  1  0  0  0  0
 29 30  1  0  0  0  0
 31 30  1  0  0  0  0
 32 31  1  0  0  0  0
 32 33  1  0  0  0  0
M  END
>  <minimizedAffinity>
-6.62259579

$$$$

 OpenBabel03212520363D

 33 36  0  0  0  0  0  0  0  0999 V2000
   40.7930   73.5750   60.6300 C   0  0  0  0  0  0  0  0  0  0  0  0
   39.4970   73.5110   61.1930 C   0  0  0  0  0  0  0  0  0  0  0  0
   38.6380   74.5730   61.2370 C   0  0  0  0  0  0  0  0  0  0  0  0
   39.0350   75.7850   60.7050 C   0  0  0  0  0  0  0  0  0  0  0  0
   40.2990   75.8710   60.1480 C   0  0  0  0  0  0  0  0  0  0  0  0
   40.7910   77.0220   59.5770 C   0  0  0  0  0  0  0  0  0  0  0  0
   42.0630   77.0730   59.0180 C   0  0  0  0  0  0  0  0  0  0  0  0
   42.9000   75.9690   59.0080 C   0  0  0  0  0  0  0  0  0  0  0  0
   42.4060   74.8080   59.5820 C   0  0  0  0  0  0  0  0  0  0  0  0
   41.1610   74.7910   60.1120 C   0  0  0  0  0  0  0  0  0  0  0  0
   39.0190   72.6530   61.6400 H   0  0  0  0  0  0  0  0  0  0  0  0
   37.6480   74.5850   61.6490 H   0  0  0  0  0  0  0  0  0  0  0  0
   38.4190   76.6860   60.6930 H   0  0  0  0  0  0  0  0  0  0  0  0
   40.1210   77.8900   59.5930 H   0  0  0  0  0  0  0  0  0  0  0  0
   42.3110   78.0530   58.6030 H   0  0  0  0  0  0  0  0  0  0  0  0
   43.8580   76.1160   58.5520 H   0  0  0  0  0  0  0  0  0  0  0  0
   43.1720   74.0720   59.5610 H   0  0  0  0  0  0  0  0  0  0  0  0
   41.6890   71.3800   59.6210 C   0  0  0  0  0  0  0  0  0  0  0  0
   41.5050   72.3100   60.6450 C   0  0  0  0  0  0  0  0  0  0  0  0
   42.0630   72.0330   61.9530 C   0  0  0  0  0  0  0  0  0  0  0  0
   42.7470   70.8640   62.1180 N   0  0  0  0  0  0  0  0  0  0  0  0
   42.8950   69.9840   61.0510 C   0  0  0  0  0  0  0  0  0  0  0  0
   42.3680   70.2530   59.8250 N   0  0  0  0  0  0  0  0  0  0  0  0
   41.2450   71.4910   58.6710 H   0  0  0  0  0  0  0  0  0  0  0  0
   42.0540   72.5940   62.8570 H   0  0  0  0  0  0  0  0  0  0  0  0
   43.6150   68.7130   61.2090 C   0  0  0  0  0  0  0  0  0  0  0  0
   44.7940   68.5850   60.8270 O   0  0  0  0  0  0  0  0  0  0  0  0
   42.9350   67.6150   61.8140 N   0  0  0  0  0  0  0  0  0  0  0  0
   43.5540   66.5560   62.5940 C   0  0  0  0  0  2  0  0  0  0  0  0
   42.8310   65.3560   62.0170 C   0  0  0  0  0  2  0  0  0  0  0  0
   41.5260   65.8600   61.4340 C   0  0  0  0  0  2  0  0  0  0  0  0
   41.5110   67.3350   61.7740 C   0  0  0  0  0  3  0  0  0  0  0  0
   41.1480   67.4630   62.8140 H   0  0  0  0  0  0  0  0  0  0  0  0
  1 19  1  0  0  0  0
  1  2  1  0  0  0  0
  2  3  2  0  0  0  0
  2 11  1  0  0  0  0
  3 12  1  0  0  0  0
  4  3  1  0  0  0  0
  5  4  2  0  0  0  0
  6 14  1  0  0  0  0
  6  5  1  0  0  0  0
  7  6  2  0  0  0  0
  8  7  1  0  0  0  0
  8  9  2  0  0  0  0
  9 10  1  0  0  0  0
 10  5  1  0  0  0  0
 10  1  2  0  0  0  0
 13  4  1  0  0  0  0
 15  7  1  0  0  0  0
 16  8  1  0  0  0  0
 17  9  1  0  0  0  0
 18 23  2  0  0  0  0
 18 19  1  0  0  0  0
 19 20  2  0  0  0  0
 20 21  1  0  0  0  0
 20 25  1  0  0  0  0
 22 26  1  0  0  0  0
 22 21  2  0  0  0  0
 23 22  1  0  0  0  0
 24 18  1  0  0  0  0
 26 28  1  0  0  0  0
 27 26  2  0  0  0  0
 28 29  1  0  0  0  0
 30 29  1  0  0  0  0
 31 32  1  0  0  0  0
 31 30  1  0  0  0  0
 32 28  1  0  0  0  0
 32 33  1  0  0  0  0
M  END
>  <minimizedAffinity>
-6.59094095

$$$$

 OpenBabel03212520363D

 33 36  0  0  0  0  0  0  0  0999 V2000
   40.3180   73.7140   60.0140 C   0  0  0  0  0  0  0  0  0  0  0  0
   40.6580   74.9130   60.6840 C   0  0  0  0  0  0  0  0  0  0  0  0
   40.1180   76.1300   60.3780 C   0  0  0  0  0  0  0  0  0  0  0  0
   39.1850   76.2180   59.3610 C   0  0  0  0  0  0  0  0  0  0  0  0
   38.8370   75.0570   58.6920 C   0  0  0  0  0  0  0  0  0  0  0  0
   37.9100   75.0260   57.6760 C   0  0  0  0  0  0  0  0  0  0  0  0
   37.5770   73.8420   57.0290 C   0  0  0  0  0  0  0  0  0  0  0  0
   38.1620   72.6330   57.3730 C   0  0  0  0  0  0  0  0  0  0  0  0
   39.0960   72.6630   58.3960 C   0  0  0  0  0  0  0  0  0  0  0  0
   39.3930   73.8320   59.0090 C   0  0  0  0  0  0  0  0  0  0  0  0
   41.3510   75.0320   61.5030 H   0  0  0  0  0  0  0  0  0  0  0  0
   40.3350   77.0690   60.8480 H   0  0  0  0  0  0  0  0  0  0  0  0
   38.6990   77.1430   59.0470 H   0  0  0  0  0  0  0  0  0  0  0  0
   37.4560   75.9890   57.4110 H   0  0  0  0  0  0  0  0  0  0  0  0
   36.8250   73.9750   56.2460 H   0  0  0  0  0  0  0  0  0  0  0  0
   37.8330   71.7820   56.8110 H   0  0  0  0  0  0  0  0  0  0  0  0
   39.5030   71.6880   58.5050 H   0  0  0  0  0  0  0  0  0  0  0  0
   41.8240   71.6260   59.9160 C   0  0  0  0  0  0  0  0  0  0  0  0
   40.9760   72.5340   60.5480 C   0  0  0  0  0  0  0  0  0  0  0  0
   40.6390   72.3280   61.9430 C   0  0  0  0  0  0  0  0  0  0  0  0
   41.1750   71.2430   62.5720 N   0  0  0  0  0  0  0  0  0  0  0  0
   42.0170   70.3790   61.8800 C   0  0  0  0  0  0  0  0  0  0  0  0
   42.3280   70.5810   60.5700 N   0  0  0  0  0  0  0  0  0  0  0  0
   42.0450   71.6820   58.8870 H   0  0  0  0  0  0  0  0  0  0  0  0
   40.0330   72.8900   62.6130 H   0  0  0  0  0  0  0  0  0  0  0  0
   42.5940   69.1950   62.5320 C   0  0  0  0  0  0  0  0  0  0  0  0
   43.6310   69.2750   63.2180 O   0  0  0  0  0  0  0  0  0  0  0  0
   41.9400   67.9390   62.3680 N   0  0  0  0  0  0  0  0  0  0  0  0
   41.9350   66.8490   63.3300 C   0  0  0  0  0  2  0  0  0  0  0  0
   42.1810   65.6820   62.3960 C   0  0  0  0  0  2  0  0  0  0  0  0
   41.7310   66.1130   61.0150 C   0  0  0  0  0  2  0  0  0  0  0  0
   41.1600   67.4990   61.2250 C   0  0  0  0  0  3  0  0  0  0  0  0
   40.1150   67.4100   61.5870 H   0  0  0  0  0  0  0  0  0  0  0  0
  1 19  1  0  0  0  0
  1  2  1  0  0  0  0
  2 11  1  0  0  0  0
  3  2  2  0  0  0  0
  3 12  1  0  0  0  0
  4  3  1  0  0  0  0
  5 10  1  0  0  0  0
  5  4  2  0  0  0  0
  6  5  1  0  0  0  0
  7  8  1  0  0  0  0
  7  6  2  0  0  0  0
  8  9  2  0  0  0  0
  9 17  1  0  0  0  0
  9 10  1  0  0  0  0
 10  1  2  0  0  0  0
 13  4  1  0  0  0  0
 14  6  1  0  0  0  0
 15  7  1  0  0  0  0
 16  8  1  0  0  0  0
 18 19  2  0  0  0  0
 18 23  1  0  0  0  0
 19 20  1  0  0  0  0
 20 21  2  0  0  0  0
 20 25  1  0  0  0  0
 22 26  1  0  0  0  0
 22 21  1  0  0  0  0
 23 22  2  0  0  0  0
 24 18  1  0  0  0  0
 26 27  2  0  0  0  0
 28 26  1  0  0  0  0
 28 29  1  0  0  0  0
 30 29  1  0  0  0  0
 31 32  1  0  0  0  0
 31 30  1  0  0  0  0
 32 33  1  0  0  0  0
 32 28  1  0  0  0  0
M  END
>  <minimizedAffinity>
-6.40845442

$$$$

 OpenBabel03212520363D

 33 36  0  0  0  0  0  0  0  0999 V2000
   41.8290   73.8950   59.9330 C   0  0  0  0  0  0  0  0  0  0  0  0
   43.0300   74.6110   59.7140 C   0  0  0  0  0  0  0  0  0  0  0  0
   43.0910   75.7990   59.0420 C   0  0  0  0  0  0  0  0  0  0  0  0
   41.9270   76.3530   58.5420 C   0  0  0  0  0  0  0  0  0  0  0  0
   40.7400   75.6700   58.7450 C   0  0  0  0  0  0  0  0  0  0  0  0
   39.5230   76.1360   58.3050 C   0  0  0  0  0  0  0  0  0  0  0  0
   38.3470   75.4300   58.5320 C   0  0  0  0  0  0  0  0  0  0  0  0
   38.3410   74.2230   59.2120 C   0  0  0  0  0  0  0  0  0  0  0  0
   39.5660   73.7520   59.6560 C   0  0  0  0  0  0  0  0  0  0  0  0
   40.6910   74.4670   59.4240 C   0  0  0  0  0  0  0  0  0  0  0  0
   44.0230   74.3390   60.0390 H   0  0  0  0  0  0  0  0  0  0  0  0
   43.9680   76.3850   58.8460 H   0  0  0  0  0  0  0  0  0  0  0  0
   41.8770   77.2960   57.9960 H   0  0  0  0  0  0  0  0  0  0  0  0
   39.5400   77.0910   57.7660 H   0  0  0  0  0  0  0  0  0  0  0  0
   37.4610   75.9260   58.1250 H   0  0  0  0  0  0  0  0  0  0  0  0
   37.3810   73.7620   59.3320 H   0  0  0  0  0  0  0  0  0  0  0  0
   39.4180   72.7970   60.0970 H   0  0  0  0  0  0  0  0  0  0  0  0
   41.4380   72.3390   61.9480 C   0  0  0  0  0  0  0  0  0  0  0  0
   41.9990   72.6870   60.7200 C   0  0  0  0  0  0  0  0  0  0  0  0
   42.9120   71.7620   60.0770 C   0  0  0  0  0  0  0  0  0  0  0  0
   43.1780   70.5870   60.7150 N   0  0  0  0  0  0  0  0  0  0  0  0
   42.5800   70.3030   61.9390 C   0  0  0  0  0  0  0  0  0  0  0  0
   41.7230   71.1780   62.5340 N   0  0  0  0  0  0  0  0  0  0  0  0
   40.8270   72.9990   62.4970 H   0  0  0  0  0  0  0  0  0  0  0  0
   43.4360   71.8160   59.1530 H   0  0  0  0  0  0  0  0  0  0  0  0
   42.8640   69.0500   62.6510 C   0  0  0  0  0  0  0  0  0  0  0  0
   43.7860   68.9750   63.4860 O   0  0  0  0  0  0  0  0  0  0  0  0
   42.0580   67.9080   62.3700 N   0  0  0  0  0  0  0  0  0  0  0  0
   41.7420   66.8390   63.3040 C   0  0  0  0  0  2  0  0  0  0  0  0
   41.9450   65.6410   62.3980 C   0  0  0  0  0  2  0  0  0  0  0  0
   41.7780   66.1260   60.9720 C   0  0  0  0  0  2  0  0  0  0  0  0
   41.4010   67.5850   61.1170 C   0  0  0  0  0  3  0  0  0  0  0  0
   40.3130   67.6590   61.3170 H   0  0  0  0  0  0  0  0  0  0  0  0
  1 19  1  0  0  0  0
  2  1  1  0  0  0  0
  2 11  1  0  0  0  0
  3  2  2  0  0  0  0
  4  5  2  0  0  0  0
  4  3  1  0  0  0  0
  5 10  1  0  0  0  0
  6  7  2  0  0  0  0
  6  5  1  0  0  0  0
  7  8  1  0  0  0  0
  8 16  1  0  0  0  0
  8  9  2  0  0  0  0
  9 17  1  0  0  0  0
 10  9  1  0  0  0  0
 10  1  2  0  0  0  0
 12  3  1  0  0  0  0
 13  4  1  0  0  0  0
 14  6  1  0  0  0  0
 15  7  1  0  0  0  0
 18 24  1  0  0  0  0
 18 23  1  0  0  0  0
 19 18  2  0  0  0  0
 20 21  2  0  0  0  0
 20 19  1  0  0  0  0
 21 22  1  0  0  0  0
 22 23  2  0  0  0  0
 22 26  1  0  0  0  0
 25 20  1  0  0  0  0
 26 27  2  0  0  0  0
 28 26  1  0  0  0  0
 28 29  1  0  0  0  0
 30 29  1  0  0  0  0
 31 32  1  0  0  0  0
 31 30  1  0  0  0  0
 32 33  1  0  0  0  0
 32 28  1  0  0  0  0
M  END
>  <minimizedAffinity>
-6.30976534

$$$$

 OpenBabel03212520363D

 33 36  0  0  0  0  0  0  0  0999 V2000
   42.1860   73.2230   60.4890 C   0  0  0  0  0  0  0  0  0  0  0  0
   43.3840   73.6200   59.8500 C   0  0  0  0  0  0  0  0  0  0  0  0
   43.5630   74.8430   59.2690 C   0  0  0  0  0  0  0  0  0  0  0  0
   42.5300   75.7620   59.2970 C   0  0  0  0  0  0  0  0  0  0  0  0
   41.3480   75.3960   59.9170 C   0  0  0  0  0  0  0  0  0  0  0  0
   40.2620   76.2340   60.0170 C   0  0  0  0  0  0  0  0  0  0  0  0
   39.0910   75.8390   60.6540 C   0  0  0  0  0  0  0  0  0  0  0  0
   38.9580   74.5820   61.2200 C   0  0  0  0  0  0  0  0  0  0  0  0
   40.0510   73.7360   61.1210 C   0  0  0  0  0  0  0  0  0  0  0  0
   41.1780   74.1530   60.4990 C   0  0  0  0  0  0  0  0  0  0  0  0
   44.2910   73.0440   59.7440 H   0  0  0  0  0  0  0  0  0  0  0  0
   44.4450   75.1990   58.7720 H   0  0  0  0  0  0  0  0  0  0  0  0
   42.5800   76.7610   58.8620 H   0  0  0  0  0  0  0  0  0  0  0  0
   40.3780   77.2260   59.5630 H   0  0  0  0  0  0  0  0  0  0  0  0
   38.3190   76.6140   60.6540 H   0  0  0  0  0  0  0  0  0  0  0  0
   38.0150   74.3800   61.6860 H   0  0  0  0  0  0  0  0  0  0  0  0
   39.7840   72.7950   61.5360 H   0  0  0  0  0  0  0  0  0  0  0  0
   42.4690   71.5300   62.4100 C   0  0  0  0  0  0  0  0  0  0  0  0
   42.2450   71.9000   61.0840 C   0  0  0  0  0  0  0  0  0  0  0  0
   42.0510   70.8650   60.0890 C   0  0  0  0  0  0  0  0  0  0  0  0
   42.0980   69.5670   60.5050 N   0  0  0  0  0  0  0  0  0  0  0  0
   42.3230   69.2700   61.8460 C   0  0  0  0  0  0  0  0  0  0  0  0
   42.5040   70.2500   62.7730 N   0  0  0  0  0  0  0  0  0  0  0  0
   42.6900   72.2340   63.1630 H   0  0  0  0  0  0  0  0  0  0  0  0
   41.8580   70.9180   59.0440 H   0  0  0  0  0  0  0  0  0  0  0  0
   42.3930   67.8790   62.3140 C   0  0  0  0  0  0  0  0  0  0  0  0
   41.5200   67.4040   63.0660 O   0  0  0  0  0  0  0  0  0  0  0  0
   43.4890   67.0720   61.8910 N   0  0  0  0  0  0  0  0  0  0  0  0
   43.4610   65.6300   61.7030 C   0  0  0  0  0  2  0  0  0  0  0  0
   44.7760   65.2610   62.3610 C   0  0  0  0  0  2  0  0  0  0  0  0
   45.6540   66.4950   62.3250 C   0  0  0  0  0  2  0  0  0  0  0  0
   44.8330   67.5150   61.5660 C   0  0  0  0  0  3  0  0  0  0  0  0
   44.9550   67.3410   60.4780 H   0  0  0  0  0  0  0  0  0  0  0  0
  1 10  1  0  0  0  0
  1 19  1  0  0  0  0
  2  1  2  0  0  0  0
  3  4  2  0  0  0  0
  3  2  1  0  0  0  0
  4  5  1  0  0  0  0
  5  6  2  0  0  0  0
  5 10  1  0  0  0  0
  6  7  1  0  0  0  0
  7  8  2  0  0  0  0
  8 16  1  0  0  0  0
  9  8  1  0  0  0  0
  9 17  1  0  0  0  0
 10  9  2  0  0  0  0
 11  2  1  0  0  0  0
 12  3  1  0  0  0  0
 13  4  1  0  0  0  0
 14  6  1  0  0  0  0
 15  7  1  0  0  0  0
 18 23  1  0  0  0  0
 18 24  1  0  0  0  0
 19 18  2  0  0  0  0
 20 21  2  0  0  0  0
 20 19  1  0  0  0  0
 21 22  1  0  0  0  0
 22 26  1  0  0  0  0
 22 23  2  0  0  0  0
 25 20  1  0  0  0  0
 26 27  2  0  0  0  0
 28 26  1  0  0  0  0
 29 28  1  0  0  0  0
 29 30  1  0  0  0  0
 31 30  1  0  0  0  0
 32 28  1  0  0  0  0
 32 31  1  0  0  0  0
 33 32  1  0  0  0  0
M  END
>  <minimizedAffinity>
-6.24384689

$$$$

 OpenBabel03212520363D

 33 36  0  0  0  0  0  0  0  0999 V2000
   42.2920   68.4330   60.6800 C   0  0  0  0  0  0  0  0  0  0  0  0
   42.9870   67.7500   59.6530 C   0  0  0  0  0  0  0  0  0  0  0  0
   43.0010   66.3900   59.5240 C   0  0  0  0  0  0  0  0  0  0  0  0
   42.3020   65.6180   60.4330 C   0  0  0  0  0  0  0  0  0  0  0  0
   41.6150   66.2650   61.4460 C   0  0  0  0  0  0  0  0  0  0  0  0
   40.8750   65.5980   62.3950 C   0  0  0  0  0  0  0  0  0  0  0  0
   40.1890   66.2770   63.3950 C   0  0  0  0  0  0  0  0  0  0  0  0
   40.2150   67.6590   63.4870 C   0  0  0  0  0  0  0  0  0  0  0  0
   40.9590   68.3330   62.5320 C   0  0  0  0  0  0  0  0  0  0  0  0
   41.6110   67.6420   61.5690 C   0  0  0  0  0  0  0  0  0  0  0  0
   43.5710   68.1850   58.8560 H   0  0  0  0  0  0  0  0  0  0  0  0
   43.5070   65.8190   58.7700 H   0  0  0  0  0  0  0  0  0  0  0  0
   42.2530   64.5280   60.4100 H   0  0  0  0  0  0  0  0  0  0  0  0
   40.8630   64.5040   62.3130 H   0  0  0  0  0  0  0  0  0  0  0  0
   39.6450   65.6120   64.0720 H   0  0  0  0  0  0  0  0  0  0  0  0
   39.6520   68.0820   64.2950 H   0  0  0  0  0  0  0  0  0  0  0  0
   40.9420   69.3700   62.7640 H   0  0  0  0  0  0  0  0  0  0  0  0
   43.0030   70.7930   61.4310 C   0  0  0  0  0  0  0  0  0  0  0  0
   42.3740   69.8790   60.5850 C   0  0  0  0  0  0  0  0  0  0  0  0
   41.6590   70.3730   59.4250 C   0  0  0  0  0  0  0  0  0  0  0  0
   41.6380   71.7210   59.2190 N   0  0  0  0  0  0  0  0  0  0  0  0
   42.2900   72.5750   60.1030 C   0  0  0  0  0  0  0  0  0  0  0  0
   42.9600   72.1010   61.1890 N   0  0  0  0  0  0  0  0  0  0  0  0
   43.4740   70.5000   62.3270 H   0  0  0  0  0  0  0  0  0  0  0  0
   41.1270   69.8670   58.6550 H   0  0  0  0  0  0  0  0  0  0  0  0
   42.2680   74.0310   59.9090 C   0  0  0  0  0  0  0  0  0  0  0  0
   43.3210   74.6800   59.7560 O   0  0  0  0  0  0  0  0  0  0  0  0
   41.0080   74.6980   59.8990 N   0  0  0  0  0  0  0  0  0  0  0  0
   40.6930   75.9100   59.1610 C   0  0  0  0  0  2  0  0  0  0  0  0
   39.9270   76.6680   60.2270 C   0  0  0  0  0  2  0  0  0  0  0  0
   39.3910   75.6420   61.2050 C   0  0  0  0  0  2  0  0  0  0  0  0
   39.8040   74.3110   60.6130 C   0  0  0  0  0  3  0  0  0  0  0  0
   39.0710   74.0180   59.8340 H   0  0  0  0  0  0  0  0  0  0  0  0
  1 10  1  0  0  0  0
  2  1  2  0  0  0  0
  3  2  1  0  0  0  0
  3  4  2  0  0  0  0
  4  5  1  0  0  0  0
  5 10  2  0  0  0  0
  5  6  1  0  0  0  0
  6  7  2  0  0  0  0
  7  8  1  0  0  0  0
  7 15  1  0  0  0  0
  8 16  1  0  0  0  0
  9 17  1  0  0  0  0
  9  8  2  0  0  0  0
 10  9  1  0  0  0  0
 11  2  1  0  0  0  0
 12  3  1  0  0  0  0
 13  4  1  0  0  0  0
 14  6  1  0  0  0  0
 18 24  1  0  0  0  0
 19  1  1  0  0  0  0
 19 18  2  0  0  0  0
 20 19  1  0  0  0  0
 21 20  2  0  0  0  0
 21 22  1  0  0  0  0
 22 23  2  0  0  0  0
 23 18  1  0  0  0  0
 25 20  1  0  0  0  0
 26 22  1  0  0  0  0
 27 26  2  0  0  0  0
 28 26  1  0  0  0  0
 28 32  1  0  0  0  0
 29 28  1  0  0  0  0
 29 30  1  0  0  0  0
 30 31  1  0  0  0  0
 32 31  1  0  0  0  0
 33 32  1  0  0  0  0
M  END
>  <minimizedAffinity>
-6.22452402

$$$$

 OpenBabel03212520363D

 33 36  0  0  0  0  0  0  0  0999 V2000
   40.8130   73.4260   60.7910 C   0  0  0  0  0  0  0  0  0  0  0  0
   39.4790   73.4900   61.2590 C   0  0  0  0  0  0  0  0  0  0  0  0
   38.6760   74.5860   61.1110 C   0  0  0  0  0  0  0  0  0  0  0  0
   39.1730   75.7040   60.4680 C   0  0  0  0  0  0  0  0  0  0  0  0
   40.4760   75.6640   60.0020 C   0  0  0  0  0  0  0  0  0  0  0  0
   41.0670   76.7130   59.3360 C   0  0  0  0  0  0  0  0  0  0  0  0
   42.3750   76.6380   58.8720 C   0  0  0  0  0  0  0  0  0  0  0  0
   43.1510   75.5050   59.0570 C   0  0  0  0  0  0  0  0  0  0  0  0
   42.5570   74.4470   59.7280 C   0  0  0  0  0  0  0  0  0  0  0  0
   41.2800   74.5510   60.1610 C   0  0  0  0  0  0  0  0  0  0  0  0
   38.9260   72.7150   61.7690 H   0  0  0  0  0  0  0  0  0  0  0  0
   37.6620   74.6930   61.4430 H   0  0  0  0  0  0  0  0  0  0  0  0
   38.6080   76.6230   60.3010 H   0  0  0  0  0  0  0  0  0  0  0  0
   40.4440   77.6050   59.1970 H   0  0  0  0  0  0  0  0  0  0  0  0
   42.7040   77.5480   58.3610 H   0  0  0  0  0  0  0  0  0  0  0  0
   44.1450   75.5530   58.6610 H   0  0  0  0  0  0  0  0  0  0  0  0
   43.2820   73.6810   59.8530 H   0  0  0  0  0  0  0  0  0  0  0  0
   41.6120   71.0660   60.1390 C   0  0  0  0  0  0  0  0  0  0  0  0
   41.4530   72.1420   61.0120 C   0  0  0  0  0  0  0  0  0  0  0  0
   41.9610   72.0300   62.3640 C   0  0  0  0  0  0  0  0  0  0  0  0
   42.5760   70.8650   62.7180 N   0  0  0  0  0  0  0  0  0  0  0  0
   42.7030   69.8330   61.7940 C   0  0  0  0  0  0  0  0  0  0  0  0
   42.2220   69.9470   60.5250 N   0  0  0  0  0  0  0  0  0  0  0  0
   41.1990   71.0600   59.1690 H   0  0  0  0  0  0  0  0  0  0  0  0
   41.9600   72.7170   63.1770 H   0  0  0  0  0  0  0  0  0  0  0  0
   43.3470   68.5630   62.1570 C   0  0  0  0  0  0  0  0  0  0  0  0
   43.1420   68.0260   63.2630 O   0  0  0  0  0  0  0  0  0  0  0  0
   44.2200   67.9470   61.2130 N   0  0  0  0  0  0  0  0  0  0  0  0
   44.4550   66.5190   61.0770 C   0  0  0  0  0  2  0  0  0  0  0  0
   45.9630   66.5210   60.9240 C   0  0  0  0  0  2  0  0  0  0  0  0
   46.3570   67.8920   60.4150 C   0  0  0  0  0  2  0  0  0  0  0  0
   45.0400   68.6090   60.2140 C   0  0  0  0  0  3  0  0  0  0  0  0
   44.6150   68.3170   59.2320 H   0  0  0  0  0  0  0  0  0  0  0  0
  1 19  1  0  0  0  0
  1  2  1  0  0  0  0
  2 11  1  0  0  0  0
  3  2  2  0  0  0  0
  3 12  1  0  0  0  0
  4  3  1  0  0  0  0
  5 10  1  0  0  0  0
  5  4  2  0  0  0  0
  6  5  1  0  0  0  0
  7  8  1  0  0  0  0
  7  6  2  0  0  0  0
  8  9  2  0  0  0  0
  9 17  1  0  0  0  0
  9 10  1  0  0  0  0
 10  1  2  0  0  0  0
 13  4  1  0  0  0  0
 14  6  1  0  0  0  0
 15  7  1  0  0  0  0
 16  8  1  0  0  0  0
 18 23  2  0  0  0  0
 18 19  1  0  0  0  0
 19 20  2  0  0  0  0
 20 21  1  0  0  0  0
 20 25  1  0  0  0  0
 22 26  1  0  0  0  0
 22 21  2  0  0  0  0
 23 22  1  0  0  0  0
 24 18  1  0  0  0  0
 26 27  2  0  0  0  0
 28 26  1  0  0  0  0
 29 28  1  0  0  0  0
 30 29  1  0  0  0  0
 31 30  1  0  0  0  0
 32 31  1  0  0  0  0
 32 28  1  0  0  0  0
 33 32  1  0  0  0  0
M  END
>  <minimizedAffinity>
-6.18516302

$$$$

 OpenBabel03212520363D

 33 36  0  0  0  0  0  0  0  0999 V2000
   42.8940   69.3510   61.1640 C   0  0  0  0  0  0  0  0  0  0  0  0
   44.1270   69.5160   60.4910 C   0  0  0  0  0  0  0  0  0  0  0  0
   45.0100   68.4980   60.2670 C   0  0  0  0  0  0  0  0  0  0  0  0
   44.7010   67.2260   60.7130 C   0  0  0  0  0  0  0  0  0  0  0  0
   43.4990   67.0410   61.3730 C   0  0  0  0  0  0  0  0  0  0  0  0
   43.0840   65.8170   61.8450 C   0  0  0  0  0  0  0  0  0  0  0  0
   41.8660   65.6620   62.4990 C   0  0  0  0  0  0  0  0  0  0  0  0
   41.0100   66.7310   62.7080 C   0  0  0  0  0  0  0  0  0  0  0  0
   41.4270   67.9640   62.2330 C   0  0  0  0  0  0  0  0  0  0  0  0
   42.6150   68.0800   61.5970 C   0  0  0  0  0  0  0  0  0  0  0  0
   44.5250   70.4260   60.0680 H   0  0  0  0  0  0  0  0  0  0  0  0
   45.9560   68.5620   59.7650 H   0  0  0  0  0  0  0  0  0  0  0  0
   45.3410   66.3520   60.5790 H   0  0  0  0  0  0  0  0  0  0  0  0
   43.7710   64.9780   61.6760 H   0  0  0  0  0  0  0  0  0  0  0  0
   41.6750   64.6320   62.8130 H   0  0  0  0  0  0  0  0  0  0  0  0
   40.0980   66.5010   63.2220 H   0  0  0  0  0  0  0  0  0  0  0  0
   40.7090   68.6930   62.5200 H   0  0  0  0  0  0  0  0  0  0  0  0
   41.7860   71.3600   62.3360 C   0  0  0  0  0  0  0  0  0  0  0  0
   42.0950   70.5600   61.2350 C   0  0  0  0  0  0  0  0  0  0  0  0
   41.5590   70.9170   59.9370 C   0  0  0  0  0  0  0  0  0  0  0  0
   40.7720   72.0280   59.8570 N   0  0  0  0  0  0  0  0  0  0  0  0
   40.5080   72.7810   60.9970 C   0  0  0  0  0  0  0  0  0  0  0  0
   41.0160   72.4380   62.2130 N   0  0  0  0  0  0  0  0  0  0  0  0
   42.0840   71.1100   63.3160 H   0  0  0  0  0  0  0  0  0  0  0  0
   41.6720   70.4670   58.9790 H   0  0  0  0  0  0  0  0  0  0  0  0
   39.6510   73.9730   60.9380 C   0  0  0  0  0  0  0  0  0  0  0  0
   38.4450   73.9190   61.2490 O   0  0  0  0  0  0  0  0  0  0  0  0
   40.2260   75.2070   60.5160 N   0  0  0  0  0  0  0  0  0  0  0  0
   39.8060   76.5320   60.9420 C   0  0  0  0  0  2  0  0  0  0  0  0
   39.8270   77.2490   59.6060 C   0  0  0  0  0  2  0  0  0  0  0  0
   40.7730   76.4820   58.7040 C   0  0  0  0  0  2  0  0  0  0  0  0
   41.3310   75.3900   59.5910 C   0  0  0  0  0  3  0  0  0  0  0  0
   42.1660   75.8020   60.1930 H   0  0  0  0  0  0  0  0  0  0  0  0
  1 19  1  0  0  0  0
  1 10  1  0  0  0  0
  2  1  2  0  0  0  0
  3  2  1  0  0  0  0
  3  4  2  0  0  0  0
  4  5  1  0  0  0  0
  5 10  2  0  0  0  0
  5  6  1  0  0  0  0
  6  7  2  0  0  0  0
  7  8  1  0  0  0  0
  7 15  1  0  0  0  0
  8 16  1  0  0  0  0
  9 17  1  0  0  0  0
  9  8  2  0  0  0  0
 10  9  1  0  0  0  0
 11  2  1  0  0  0  0
 12  3  1  0  0  0  0
 13  4  1  0  0  0  0
 14  6  1  0  0  0  0
 18 24  1  0  0  0  0
 19 18  2  0  0  0  0
 20 19  1  0  0  0  0
 21 20  2  0  0  0  0
 21 22  1  0  0  0  0
 22 23  2  0  0  0  0
 23 18  1  0  0  0  0
 25 20  1  0  0  0  0
 26 22  1  0  0  0  0
 26 27  2  0  0  0  0
 28 26  1  0  0  0  0
 28 29  1  0  0  0  0
 30 29  1  0  0  0  0
 31 32  1  0  0  0  0
 31 30  1  0  0  0  0
 32 33  1  0  0  0  0
 32 28  1  0  0  0  0
M  END
>  <minimizedAffinity>
-6.1484127

$$$$

 OpenBabel03212520363D

 33 36  0  0  0  0  0  0  0  0999 V2000
   40.2910   73.7460   59.9410 C   0  0  0  0  0  0  0  0  0  0  0  0
   39.1020   73.7330   60.7090 C   0  0  0  0  0  0  0  0  0  0  0  0
   38.5630   74.8460   61.2890 C   0  0  0  0  0  0  0  0  0  0  0  0
   39.1960   76.0650   61.1270 C   0  0  0  0  0  0  0  0  0  0  0  0
   40.3590   76.1020   60.3800 C   0  0  0  0  0  0  0  0  0  0  0  0
   41.0620   77.2610   60.1420 C   0  0  0  0  0  0  0  0  0  0  0  0
   42.2240   77.2660   59.3800 C   0  0  0  0  0  0  0  0  0  0  0  0
   42.7350   76.1060   58.8210 C   0  0  0  0  0  0  0  0  0  0  0  0
   42.0290   74.9380   59.0590 C   0  0  0  0  0  0  0  0  0  0  0  0
   40.8980   74.9680   59.8010 C   0  0  0  0  0  0  0  0  0  0  0  0
   38.4740   72.8830   60.9290 H   0  0  0  0  0  0  0  0  0  0  0  0
   37.6690   74.8980   61.8790 H   0  0  0  0  0  0  0  0  0  0  0  0
   38.8400   77.0070   61.5500 H   0  0  0  0  0  0  0  0  0  0  0  0
   40.6500   78.1730   60.5910 H   0  0  0  0  0  0  0  0  0  0  0  0
   42.6680   78.2610   59.2780 H   0  0  0  0  0  0  0  0  0  0  0  0
   43.6350   76.2210   58.2520 H   0  0  0  0  0  0  0  0  0  0  0  0
   42.5660   74.1280   58.6290 H   0  0  0  0  0  0  0  0  0  0  0  0
   41.6300   71.5520   59.7700 C   0  0  0  0  0  0  0  0  0  0  0  0
   40.6420   72.4560   59.3780 C   0  0  0  0  0  0  0  0  0  0  0  0
   39.8130   72.1360   58.2320 C   0  0  0  0  0  0  0  0  0  0  0  0
   40.0450   70.9550   57.5900 N   0  0  0  0  0  0  0  0  0  0  0  0
   41.0460   70.1000   58.0390 C   0  0  0  0  0  0  0  0  0  0  0  0
   41.8190   70.4080   59.1160 N   0  0  0  0  0  0  0  0  0  0  0  0
   42.3100   71.7630   60.5470 H   0  0  0  0  0  0  0  0  0  0  0  0
   39.0100   72.6620   57.7740 H   0  0  0  0  0  0  0  0  0  0  0  0
   41.3230   68.8300   57.3540 C   0  0  0  0  0  0  0  0  0  0  0  0
   41.0940   67.7340   57.9030 O   0  0  0  0  0  0  0  0  0  0  0  0
   41.8640   68.8700   56.0360 N   0  0  0  0  0  0  0  0  0  0  0  0
   41.6500   67.8750   54.9970 C   0  0  0  0  0  2  0  0  0  0  0  0
   43.0640   67.7510   54.4670 C   0  0  0  0  0  2  0  0  0  0  0  0
   43.7870   69.0360   54.8170 C   0  0  0  0  0  2  0  0  0  0  0  0
   42.7250   69.8940   55.4710 C   0  0  0  0  0  3  0  0  0  0  0  0
   42.1260   70.3930   54.6830 H   0  0  0  0  0  0  0  0  0  0  0  0
  1  2  1  0  0  0  0
  2 11  1  0  0  0  0
  2  3  2  0  0  0  0
  3 12  1  0  0  0  0
  4  3  1  0  0  0  0
  4 13  1  0  0  0  0
  5  4  2  0  0  0  0
  6  5  1  0  0  0  0
  6 14  1  0  0  0  0
  7  6  2  0  0  0  0
  8  9  2  0  0  0  0
  8  7  1  0  0  0  0
  9 10  1  0  0  0  0
 10  1  2  0  0  0  0
 10  5  1  0  0  0  0
 15  7  1  0  0  0  0
 16  8  1  0  0  0  0
 17  9  1  0  0  0  0
 18 24  1  0  0  0  0
 19 18  1  0  0  0  0
 19  1  1  0  0  0  0
 20 19  2  0  0  0  0
 21 22  2  0  0  0  0
 21 20  1  0  0  0  0
 22 23  1  0  0  0  0
 23 18  2  0  0  0  0
 25 20  1  0  0  0  0
 26 27  2  0  0  0  0
 26 22  1  0  0  0  0
 28 26  1  0  0  0  0
 29 28  1  0  0  0  0
 30 31  1  0  0  0  0
 30 29  1  0  0  0  0
 31 32  1  0  0  0  0
 32 28  1  0  0  0  0
 33 32  1  0  0  0  0
M  END
>  <minimizedAffinity>
-5.95498657

$$$$
