
 OpenBabel03212521093D

 17 18  0  0  0  0  0  0  0  0999 V2000
   39.9290   81.8660   60.8560 C   0  0  0  0  0  0  0  0  0  0  0  0
   40.1140   82.8440   59.8750 C   0  0  0  0  0  0  0  0  0  0  0  0
   39.6030   84.1270   60.1120 C   0  0  0  0  0  0  0  0  0  0  0  0
   38.9570   84.3340   61.2960 N   0  0  0  0  0  0  0  0  0  0  0  0
   38.8000   83.3600   62.2180 C   0  0  0  0  0  0  0  0  0  0  0  0
   39.2860   82.1280   61.9970 N   0  0  0  0  0  0  0  0  0  0  0  0
   40.3020   80.8740   60.7160 H   0  0  0  0  0  0  0  0  0  0  0  0
   40.6450   82.5670   58.9700 H   0  0  0  0  0  0  0  0  0  0  0  0
   38.2550   83.7560   63.0770 H   0  0  0  0  0  0  0  0  0  0  0  0
   39.7760   85.1480   59.1290 C   0  0  0  0  0  0  0  0  0  0  0  0
   38.8610   85.9580   58.7800 O   0  0  0  0  0  0  0  0  0  0  0  0
   40.9630   85.4230   58.3970 N   0  0  0  0  0  0  0  0  0  0  0  0
   42.1200   85.4160   59.2900 C   0  0  0  0  0  2  0  0  0  0  0  0
   43.3110   85.7410   58.3840 C   0  0  0  0  0  2  0  0  0  0  0  0
   42.8240   85.1140   57.0950 C   0  0  0  0  0  2  0  0  0  0  0  0
   41.4170   85.7150   57.0330 C   0  0  0  0  0  3  0  0  0  0  0  0
   40.8480   85.1680   56.2600 H   0  0  0  0  0  0  0  0  0  0  0  0
  1  6  1  0  0  0  0
  2  3  1  0  0  0  0
  2  1  2  0  0  0  0
  3  4  2  0  0  0  0
  4  5  1  0  0  0  0
  5  9  1  0  0  0  0
  6  5  2  0  0  0  0
  7  1  1  0  0  0  0
  8  2  1  0  0  0  0
 10  3  1  0  0  0  0
 11 10  2  0  0  0  0
 12 10  1  0  0  0  0
 12 13  1  0  0  0  0
 14 13  1  0  0  0  0
 15 14  1  0  0  0  0
 16 15  1  0  0  0  0
 16 12  1  0  0  0  0
 17 16  1  0  0  0  0
M  END
>  <minimizedAffinity>
-4.50262451

>  <minimizedRMSD>
0.473328084

$$$$
