
 OpenBabel03212521093D

 17 18  0  0  0  0  0  0  0  0999 V2000
   39.9870   81.9070   60.8960 C   0  0  0  0  0  0  0  0  0  0  0  0
   40.2510   82.8380   59.8880 C   0  0  0  0  0  0  0  0  0  0  0  0
   39.7280   84.1310   60.0260 C   0  0  0  0  0  0  0  0  0  0  0  0
   38.9920   84.3920   61.1450 N   0  0  0  0  0  0  0  0  0  0  0  0
   38.7610   83.4610   62.0960 C   0  0  0  0  0  0  0  0  0  0  0  0
   39.2590   82.2210   61.9700 N   0  0  0  0  0  0  0  0  0  0  0  0
   40.3670   80.9100   60.8300 H   0  0  0  0  0  0  0  0  0  0  0  0
   40.8500   82.5210   59.0400 H   0  0  0  0  0  0  0  0  0  0  0  0
   38.1530   83.8970   62.8910 H   0  0  0  0  0  0  0  0  0  0  0  0
   39.9790   85.1060   59.0130 C   0  0  0  0  0  0  0  0  0  0  0  0
   39.1440   85.9970   58.6640 O   0  0  0  0  0  0  0  0  0  0  0  0
   41.1700   85.2400   58.2480 N   0  0  0  0  0  0  0  0  0  0  0  0
   42.2290   85.8340   59.0620 C   0  0  0  0  0  2  0  0  0  0  0  0
   43.4320   85.9360   58.1180 C   0  0  0  0  0  2  0  0  0  0  0  0
   43.1640   84.7300   57.2410 C   0  0  0  0  0  2  0  0  0  0  0  0
   41.6940   84.9800   56.9030 C   0  0  0  0  0  3  0  0  0  0  0  0
   41.2880   84.0560   56.4510 H   0  0  0  0  0  0  0  0  0  0  0  0
  1  6  1  0  0  0  0
  2  3  1  0  0  0  0
  2  1  2  0  0  0  0
  3  4  2  0  0  0  0
  4  5  1  0  0  0  0
  5  9  1  0  0  0  0
  6  5  2  0  0  0  0
  7  1  1  0  0  0  0
  8  2  1  0  0  0  0
 10  3  1  0  0  0  0
 11 10  2  0  0  0  0
 12 10  1  0  0  0  0
 12 13  1  0  0  0  0
 14 13  1  0  0  0  0
 15 14  1  0  0  0  0
 16 15  1  0  0  0  0
 16 12  1  0  0  0  0
 17 16  1  0  0  0  0
M  END
>  <minimizedAffinity>
-4.55823994

>  <minimizedRMSD>
0.597832501

$$$$
