
 OpenBabel03212520353D

 33 36  0  0  0  0  0  0  0  0999 V2000
   40.6140   80.9980   56.7810 C   0  0  0  0  0  0  0  0  0  0  0  0
   41.9940   80.9090   56.4810 C   0  0  0  0  0  0  0  0  0  0  0  0
   42.4850   80.3600   55.3310 C   0  0  0  0  0  0  0  0  0  0  0  0
   41.6020   79.8580   54.3920 C   0  0  0  0  0  0  0  0  0  0  0  0
   40.2470   79.9340   54.6640 C   0  0  0  0  0  0  0  0  0  0  0  0
   39.2810   79.4810   53.7960 C   0  0  0  0  0  0  0  0  0  0  0  0
   37.9270   79.5790   54.0950 C   0  0  0  0  0  0  0  0  0  0  0  0
   37.4820   80.1380   55.2820 C   0  0  0  0  0  0  0  0  0  0  0  0
   38.4530   80.5950   56.1580 C   0  0  0  0  0  0  0  0  0  0  0  0
   39.7620   80.4890   55.8330 C   0  0  0  0  0  0  0  0  0  0  0  0
   42.8180   81.2560   57.0850 H   0  0  0  0  0  0  0  0  0  0  0  0
   43.5150   80.2650   55.0490 H   0  0  0  0  0  0  0  0  0  0  0  0
   41.9000   79.4030   53.4450 H   0  0  0  0  0  0  0  0  0  0  0  0
   39.6460   79.0380   52.8600 H   0  0  0  0  0  0  0  0  0  0  0  0
   37.2820   79.1780   53.3080 H   0  0  0  0  0  0  0  0  0  0  0  0
   36.4180   80.1650   55.4120 H   0  0  0  0  0  0  0  0  0  0  0  0
   37.9730   80.9340   57.0430 H   0  0  0  0  0  0  0  0  0  0  0  0
   40.1850   83.0330   58.3010 C   0  0  0  0  0  0  0  0  0  0  0  0
   40.3250   81.6710   58.0340 C   0  0  0  0  0  0  0  0  0  0  0  0
   40.1940   80.7250   59.1240 C   0  0  0  0  0  0  0  0  0  0  0  0
   39.9380   81.2210   60.3690 N   0  0  0  0  0  0  0  0  0  0  0  0
   39.8070   82.5920   60.5610 C   0  0  0  0  0  0  0  0  0  0  0  0
   39.9310   83.4730   59.5310 N   0  0  0  0  0  0  0  0  0  0  0  0
   40.3420   83.7710   57.5650 H   0  0  0  0  0  0  0  0  0  0  0  0
   40.2510   79.6630   59.1470 H   0  0  0  0  0  0  0  0  0  0  0  0
   39.5460   83.1500   61.8960 C   0  0  0  0  0  0  0  0  0  0  0  0
   38.3900   83.4340   62.2640 O   0  0  0  0  0  0  0  0  0  0  0  0
   40.6490   83.3630   62.7730 N   0  0  0  0  0  0  0  0  0  0  0  0
   40.6050   83.3040   64.2250 C   0  0  0  0  0  0  0  0  0  0  0  0
   41.4280   84.5330   64.5570 C   0  0  0  0  0  0  0  0  0  0  0  0
   42.3090   84.8170   63.3570 C   0  0  0  0  0  0  0  0  0  0  0  0
   42.0170   83.6790   62.4030 C   0  0  0  0  0  0  0  0  0  0  0  0
   42.6220   82.7970   62.6950 H   0  0  0  0  0  0  0  0  0  0  0  0
  1 19  1  0  0  0  0
  2  1  1  0  0  0  0
  2 11  1  0  0  0  0
  3  2  2  0  0  0  0
  4  5  2  0  0  0  0
  4  3  1  0  0  0  0
  5 10  1  0  0  0  0
  6  7  2  0  0  0  0
  6  5  1  0  0  0  0
  7  8  1  0  0  0  0
  8 16  1  0  0  0  0
  8  9  2  0  0  0  0
  9 17  1  0  0  0  0
 10  9  1  0  0  0  0
 10  1  2  0  0  0  0
 12  3  1  0  0  0  0
 13  4  1  0  0  0  0
 14  6  1  0  0  0  0
 15  7  1  0  0  0  0
 18 23  1  0  0  0  0
 19 18  2  0  0  0  0
 19 20  1  0  0  0  0
 20 25  1  0  0  0  0
 20 21  2  0  0  0  0
 21 22  1  0  0  0  0
 22 26  1  0  0  0  0
 23 22  2  0  0  0  0
 24 18  1  0  0  0  0
 26 27  2  0  0  0  0
 26 28  1  0  0  0  0
 28 29  1  0  0  0  0
 29 30  1  0  0  0  0
 31 30  1  0  0  0  0
 32 33  1  0  0  0  0
 32 28  1  0  0  0  0
 32 31  1  0  0  0  0
M  END
>  <minimizedAffinity>
-6.27936697

>  <minimizedRMSD>
3.12008929

$$$$
