
 OpenBabel03212521093D

 17 18  0  0  0  0  0  0  0  0999 V2000
   39.9420   81.8100   60.8240 C   0  0  0  0  0  0  0  0  0  0  0  0
   40.2350   82.8080   59.8900 C   0  0  0  0  0  0  0  0  0  0  0  0
   39.7530   84.1020   60.1290 C   0  0  0  0  0  0  0  0  0  0  0  0
   39.0250   84.2980   61.2660 N   0  0  0  0  0  0  0  0  0  0  0  0
   38.7640   83.3040   62.1430 C   0  0  0  0  0  0  0  0  0  0  0  0
   39.2230   82.0630   61.9200 N   0  0  0  0  0  0  0  0  0  0  0  0
   40.2910   80.8100   60.6810 H   0  0  0  0  0  0  0  0  0  0  0  0
   40.8250   82.5390   59.0200 H   0  0  0  0  0  0  0  0  0  0  0  0
   38.1680   83.6960   62.9690 H   0  0  0  0  0  0  0  0  0  0  0  0
   40.0350   85.1440   59.1940 C   0  0  0  0  0  0  0  0  0  0  0  0
   39.1430   85.8280   58.6040 O   0  0  0  0  0  0  0  0  0  0  0  0
   41.3240   85.5790   58.7790 N   0  0  0  0  0  0  0  0  0  0  0  0
   42.2940   85.3810   59.8540 C   0  0  0  0  0  2  0  0  0  0  0  0
   43.6170   85.9040   59.2830 C   0  0  0  0  0  2  0  0  0  0  0  0
   43.4060   85.5730   57.8210 C   0  0  0  0  0  2  0  0  0  0  0  0
   42.0090   86.1660   57.6230 C   0  0  0  0  0  3  0  0  0  0  0  0
   41.6190   85.7990   56.6560 H   0  0  0  0  0  0  0  0  0  0  0  0
  1  6  1  0  0  0  0
  2  3  1  0  0  0  0
  2  1  2  0  0  0  0
  3  4  2  0  0  0  0
  4  5  1  0  0  0  0
  5  9  1  0  0  0  0
  6  5  2  0  0  0  0
  7  1  1  0  0  0  0
  8  2  1  0  0  0  0
 10  3  1  0  0  0  0
 11 10  2  0  0  0  0
 12 10  1  0  0  0  0
 12 13  1  0  0  0  0
 14 13  1  0  0  0  0
 15 14  1  0  0  0  0
 16 15  1  0  0  0  0
 16 12  1  0  0  0  0
 17 16  1  0  0  0  0
M  END
>  <minimizedAffinity>
-4.2425971

>  <minimizedRMSD>
0.959646046

$$$$
