
 OpenBabel03212521093D

 17 18  0  0  0  0  0  0  0  0999 V2000
   40.1360   81.7040   61.1660 C   0  0  0  0  0  0  0  0  0  0  0  0
   40.9100   82.5020   60.3190 C   0  0  0  0  0  0  0  0  0  0  0  0
   40.7030   83.8880   60.3410 C   0  0  0  0  0  0  0  0  0  0  0  0
   39.7520   84.3640   61.1960 N   0  0  0  0  0  0  0  0  0  0  0  0
   39.0250   83.5570   61.9980 C   0  0  0  0  0  0  0  0  0  0  0  0
   39.2180   82.2280   61.9810 N   0  0  0  0  0  0  0  0  0  0  0  0
   40.2620   80.6420   61.1800 H   0  0  0  0  0  0  0  0  0  0  0  0
   41.6400   82.0150   59.6800 H   0  0  0  0  0  0  0  0  0  0  0  0
   38.3310   84.1580   62.5880 H   0  0  0  0  0  0  0  0  0  0  0  0
   41.4780   84.7310   59.4890 C   0  0  0  0  0  0  0  0  0  0  0  0
   41.2460   84.8920   58.2500 O   0  0  0  0  0  0  0  0  0  0  0  0
   42.6050   85.5100   59.8690 N   0  0  0  0  0  0  0  0  0  0  0  0
   43.1010   85.0780   61.1740 C   0  0  0  0  0  2  0  0  0  0  0  0
   44.2870   86.0020   61.4630 C   0  0  0  0  0  2  0  0  0  0  0  0
   44.7700   86.2410   60.0480 C   0  0  0  0  0  2  0  0  0  0  0  0
   43.4420   86.6130   59.3840 C   0  0  0  0  0  3  0  0  0  0  0  0
   43.5930   86.5940   58.2890 H   0  0  0  0  0  0  0  0  0  0  0  0
  1  7  1  0  0  0  0
  1  6  1  0  0  0  0
  2  3  1  0  0  0  0
  2  1  2  0  0  0  0
  3  4  2  0  0  0  0
  4  5  1  0  0  0  0
  5  9  1  0  0  0  0
  6  5  2  0  0  0  0
  8  2  1  0  0  0  0
 10 12  1  0  0  0  0
 10  3  1  0  0  0  0
 11 10  2  0  0  0  0
 12 13  1  0  0  0  0
 13 14  1  0  0  0  0
 15 14  1  0  0  0  0
 16 12  1  0  0  0  0
 16 15  1  0  0  0  0
 17 16  1  0  0  0  0
M  END
>  <minimizedAffinity>
-4.15854645

>  <minimizedRMSD>
2.66301107

$$$$
