
 OpenBabel03212521093D

 17 18  0  0  0  0  0  0  0  0999 V2000
   40.1240   81.9010   61.0930 C   0  0  0  0  0  0  0  0  0  0  0  0
   40.6940   82.8090   60.1960 C   0  0  0  0  0  0  0  0  0  0  0  0
   40.2780   84.1470   60.2510 C   0  0  0  0  0  0  0  0  0  0  0  0
   39.3370   84.4710   61.1850 N   0  0  0  0  0  0  0  0  0  0  0  0
   38.8110   83.5610   62.0330 C   0  0  0  0  0  0  0  0  0  0  0  0
   39.2050   82.2780   61.9860 N   0  0  0  0  0  0  0  0  0  0  0  0
   40.4130   80.8720   61.0850 H   0  0  0  0  0  0  0  0  0  0  0  0
   41.4360   82.4400   59.4950 H   0  0  0  0  0  0  0  0  0  0  0  0
   38.0830   84.0480   62.6840 H   0  0  0  0  0  0  0  0  0  0  0  0
   40.8410   85.0980   59.3480 C   0  0  0  0  0  0  0  0  0  0  0  0
   40.1770   85.7060   58.4520 O   0  0  0  0  0  0  0  0  0  0  0  0
   42.2000   85.5160   59.3010 N   0  0  0  0  0  0  0  0  0  0  0  0
   42.6700   85.5460   57.9180 C   0  0  0  0  0  2  0  0  0  0  0  0
   44.1340   85.9880   58.0170 C   0  0  0  0  0  2  0  0  0  0  0  0
   44.0460   86.8730   59.2430 C   0  0  0  0  0  2  0  0  0  0  0  0
   43.2940   85.9300   60.1860 C   0  0  0  0  0  3  0  0  0  0  0  0
   42.9500   86.5210   61.0530 H   0  0  0  0  0  0  0  0  0  0  0  0
  1  6  1  0  0  0  0
  2  3  1  0  0  0  0
  2  1  2  0  0  0  0
  3  4  2  0  0  0  0
  4  5  1  0  0  0  0
  5  9  1  0  0  0  0
  6  5  2  0  0  0  0
  7  1  1  0  0  0  0
  8  2  1  0  0  0  0
 10  3  1  0  0  0  0
 11 10  2  0  0  0  0
 12 10  1  0  0  0  0
 12 16  1  0  0  0  0
 13 14  1  0  0  0  0
 13 12  1  0  0  0  0
 14 15  1  0  0  0  0
 15 16  1  0  0  0  0
 16 17  1  0  0  0  0
M  END
>  <minimizedAffinity>
-4.14866066

>  <minimizedRMSD>
1.825194

$$$$
