
 OpenBabel03212521093D

 17 18  0  0  0  0  0  0  0  0999 V2000
   40.4400   81.9370   61.8160 C   0  0  0  0  0  0  0  0  0  0  0  0
   41.4720   82.4790   61.0450 C   0  0  0  0  0  0  0  0  0  0  0  0
   41.2990   83.7640   60.5120 C   0  0  0  0  0  0  0  0  0  0  0  0
   40.1240   84.4010   60.7870 N   0  0  0  0  0  0  0  0  0  0  0  0
   39.1510   83.8410   61.5380 C   0  0  0  0  0  0  0  0  0  0  0  0
   39.3110   82.6110   62.0510 N   0  0  0  0  0  0  0  0  0  0  0  0
   40.5310   80.9610   62.2410 H   0  0  0  0  0  0  0  0  0  0  0  0
   42.3640   81.8810   60.8910 H   0  0  0  0  0  0  0  0  0  0  0  0
   38.3120   84.5330   61.6210 H   0  0  0  0  0  0  0  0  0  0  0  0
   42.3350   84.3450   59.7200 C   0  0  0  0  0  0  0  0  0  0  0  0
   42.7310   83.8690   58.6110 O   0  0  0  0  0  0  0  0  0  0  0  0
   43.0760   85.5190   60.0290 N   0  0  0  0  0  0  0  0  0  0  0  0
   43.4960   85.4970   61.4280 C   0  0  0  0  0  2  0  0  0  0  0  0
   44.2570   86.8120   61.6240 C   0  0  0  0  0  2  0  0  0  0  0  0
   44.8300   86.9800   60.2320 C   0  0  0  0  0  2  0  0  0  0  0  0
   43.5630   86.7530   59.4050 C   0  0  0  0  0  3  0  0  0  0  0  0
   43.8650   86.6170   58.3500 H   0  0  0  0  0  0  0  0  0  0  0  0
  1  6  1  0  0  0  0
  1  7  1  0  0  0  0
  2  1  2  0  0  0  0
  3  4  2  0  0  0  0
  3  2  1  0  0  0  0
  4  5  1  0  0  0  0
  5  9  1  0  0  0  0
  5  6  2  0  0  0  0
  8  2  1  0  0  0  0
 10 12  1  0  0  0  0
 10  3  1  0  0  0  0
 11 10  2  0  0  0  0
 12 13  1  0  0  0  0
 13 14  1  0  0  0  0
 15 14  1  0  0  0  0
 16 12  1  0  0  0  0
 16 15  1  0  0  0  0
 17 16  1  0  0  0  0
M  END
>  <minimizedAffinity>
-4.06031322

>  <minimizedRMSD>
3.28650522

$$$$
