
 OpenBabel03212521093D

 17 18  0  0  0  0  0  0  0  0999 V2000
   39.9560   81.7540   60.7430 C   0  0  0  0  0  0  0  0  0  0  0  0
   40.4600   82.6950   59.8410 C   0  0  0  0  0  0  0  0  0  0  0  0
   40.2830   84.0550   60.1330 C   0  0  0  0  0  0  0  0  0  0  0  0
   39.6270   84.3660   61.2880 N   0  0  0  0  0  0  0  0  0  0  0  0
   39.1550   83.4240   62.1330 C   0  0  0  0  0  0  0  0  0  0  0  0
   39.3210   82.1210   61.8600 N   0  0  0  0  0  0  0  0  0  0  0  0
   40.0680   80.7070   60.5600 H   0  0  0  0  0  0  0  0  0  0  0  0
   40.9660   82.3330   58.9530 H   0  0  0  0  0  0  0  0  0  0  0  0
   38.6700   83.9080   62.9820 H   0  0  0  0  0  0  0  0  0  0  0  0
   40.7860   85.0410   59.2310 C   0  0  0  0  0  0  0  0  0  0  0  0
   40.0520   85.7510   58.4760 O   0  0  0  0  0  0  0  0  0  0  0  0
   42.1520   85.3850   59.0320 N   0  0  0  0  0  0  0  0  0  0  0  0
   42.7310   84.5570   57.9760 C   0  0  0  0  0  2  0  0  0  0  0  0
   44.1900   85.0160   57.8820 C   0  0  0  0  0  2  0  0  0  0  0  0
   44.0220   86.4700   58.2700 C   0  0  0  0  0  2  0  0  0  0  0  0
   43.1800   86.3000   59.5370 C   0  0  0  0  0  3  0  0  0  0  0  0
   42.7780   87.2930   59.8140 H   0  0  0  0  0  0  0  0  0  0  0  0
  1  6  1  0  0  0  0
  2  3  1  0  0  0  0
  2  1  2  0  0  0  0
  3  4  2  0  0  0  0
  4  5  1  0  0  0  0
  5  9  1  0  0  0  0
  6  5  2  0  0  0  0
  7  1  1  0  0  0  0
  8  2  1  0  0  0  0
 10  3  1  0  0  0  0
 11 10  2  0  0  0  0
 12 10  1  0  0  0  0
 12 16  1  0  0  0  0
 13 12  1  0  0  0  0
 14 13  1  0  0  0  0
 14 15  1  0  0  0  0
 15 16  1  0  0  0  0
 16 17  1  0  0  0  0
M  END
>  <minimizedAffinity>
-3.97776699

>  <minimizedRMSD>
1.65553582

$$$$
