
 OpenBabel03212521093D

 17 18  0  0  0  0  0  0  0  0999 V2000
   40.0970   81.7630   61.1430 C   0  0  0  0  0  0  0  0  0  0  0  0
   40.7610   82.5620   60.2090 C   0  0  0  0  0  0  0  0  0  0  0  0
   40.4790   83.9350   60.1900 C   0  0  0  0  0  0  0  0  0  0  0  0
   39.5680   84.3990   61.0930 N   0  0  0  0  0  0  0  0  0  0  0  0
   38.9480   83.5910   61.9810 C   0  0  0  0  0  0  0  0  0  0  0  0
   39.2140   82.2750   62.0040 N   0  0  0  0  0  0  0  0  0  0  0  0
   40.2830   80.7120   61.1920 H   0  0  0  0  0  0  0  0  0  0  0  0
   41.4680   82.0860   59.5370 H   0  0  0  0  0  0  0  0  0  0  0  0
   38.2680   84.1810   62.5960 H   0  0  0  0  0  0  0  0  0  0  0  0
   41.1410   84.7780   59.2470 C   0  0  0  0  0  0  0  0  0  0  0  0
   40.6850   85.0450   58.0910 O   0  0  0  0  0  0  0  0  0  0  0  0
   42.3840   85.4430   59.4350 N   0  0  0  0  0  0  0  0  0  0  0  0
   42.5630   86.4760   58.4170 C   0  0  0  0  0  2  0  0  0  0  0  0
   43.9330   87.0900   58.7250 C   0  0  0  0  0  2  0  0  0  0  0  0
   43.9550   86.9110   60.2280 C   0  0  0  0  0  2  0  0  0  0  0  0
   43.5560   85.4370   60.3170 C   0  0  0  0  0  3  0  0  0  0  0  0
   43.3050   85.2150   61.3700 H   0  0  0  0  0  0  0  0  0  0  0  0
  1  7  1  0  0  0  0
  1  6  1  0  0  0  0
  2  1  2  0  0  0  0
  3  2  1  0  0  0  0
  3  4  2  0  0  0  0
  4  5  1  0  0  0  0
  5  6  2  0  0  0  0
  5  9  1  0  0  0  0
  8  2  1  0  0  0  0
 10 12  1  0  0  0  0
 10  3  1  0  0  0  0
 11 10  2  0  0  0  0
 12 16  1  0  0  0  0
 13 14  1  0  0  0  0
 13 12  1  0  0  0  0
 14 15  1  0  0  0  0
 15 16  1  0  0  0  0
 16 17  1  0  0  0  0
M  END
>  <minimizedAffinity>
-4.12294054

>  <minimizedRMSD>
1.98786521

$$$$
