
 OpenBabel03212521083D

 17 18  0  0  0  0  0  0  0  0999 V2000
   40.1310   81.7530   60.9550 C   0  0  0  0  0  0  0  0  0  0  0  0
   40.8380   82.6690   60.1720 C   0  0  0  0  0  0  0  0  0  0  0  0
   40.6020   84.0360   60.3730 C   0  0  0  0  0  0  0  0  0  0  0  0
   39.6920   84.3790   61.3300 N   0  0  0  0  0  0  0  0  0  0  0  0
   39.0300   83.4600   62.0660 C   0  0  0  0  0  0  0  0  0  0  0  0
   39.2510   82.1500   61.8780 N   0  0  0  0  0  0  0  0  0  0  0  0
   40.2810   80.7020   60.8340 H   0  0  0  0  0  0  0  0  0  0  0  0
   41.5400   82.2830   59.4390 H   0  0  0  0  0  0  0  0  0  0  0  0
   38.3590   83.9670   62.7620 H   0  0  0  0  0  0  0  0  0  0  0  0
   41.3080   84.9970   59.5880 C   0  0  0  0  0  0  0  0  0  0  0  0
   40.8840   85.4600   58.4840 O   0  0  0  0  0  0  0  0  0  0  0  0
   42.5670   85.5820   59.9000 N   0  0  0  0  0  0  0  0  0  0  0  0
   43.0660   85.0580   61.1690 C   0  0  0  0  0  2  0  0  0  0  0  0
   44.4010   85.7780   61.3870 C   0  0  0  0  0  2  0  0  0  0  0  0
   44.8270   85.9560   59.9450 C   0  0  0  0  0  2  0  0  0  0  0  0
   43.5380   86.5430   59.3670 C   0  0  0  0  0  3  0  0  0  0  0  0
   43.6160   86.5150   58.2650 H   0  0  0  0  0  0  0  0  0  0  0  0
  1  6  1  0  0  0  0
  2  3  1  0  0  0  0
  2  1  2  0  0  0  0
  3  4  2  0  0  0  0
  4  5  1  0  0  0  0
  5  9  1  0  0  0  0
  6  5  2  0  0  0  0
  7  1  1  0  0  0  0
  8  2  1  0  0  0  0
 10 12  1  0  0  0  0
 10  3  1  0  0  0  0
 11 10  2  0  0  0  0
 12 13  1  0  0  0  0
 13 14  1  0  0  0  0
 15 14  1  0  0  0  0
 16 12  1  0  0  0  0
 16 15  1  0  0  0  0
 17 16  1  0  0  0  0
M  END
>  <minimizedAffinity>
-4.20718622

>  <minimizedRMSD>
2.50855613

$$$$
