
 OpenBabel03212521093D

 17 18  0  0  0  0  0  0  0  0999 V2000
   40.3430   81.6980   61.3060 C   0  0  0  0  0  0  0  0  0  0  0  0
   41.2610   82.5700   60.7150 C   0  0  0  0  0  0  0  0  0  0  0  0
   41.0100   83.9470   60.7850 C   0  0  0  0  0  0  0  0  0  0  0  0
   39.8750   84.3430   61.4310 N   0  0  0  0  0  0  0  0  0  0  0  0
   39.0130   83.4670   61.9900 C   0  0  0  0  0  0  0  0  0  0  0  0
   39.2480   82.1460   61.9260 N   0  0  0  0  0  0  0  0  0  0  0  0
   40.4960   80.6410   61.2760 H   0  0  0  0  0  0  0  0  0  0  0  0
   42.1310   82.1430   60.2260 H   0  0  0  0  0  0  0  0  0  0  0  0
   38.1850   84.0110   62.4470 H   0  0  0  0  0  0  0  0  0  0  0  0
   41.9290   84.8630   60.1900 C   0  0  0  0  0  0  0  0  0  0  0  0
   41.6920   85.5170   59.1270 O   0  0  0  0  0  0  0  0  0  0  0  0
   43.2260   85.1910   60.6730 N   0  0  0  0  0  0  0  0  0  0  0  0
   44.2480   84.5450   59.8510 C   0  0  0  0  0  2  0  0  0  0  0  0
   45.5770   84.9630   60.4870 C   0  0  0  0  0  2  0  0  0  0  0  0
   45.1860   86.3300   61.0090 C   0  0  0  0  0  2  0  0  0  0  0  0
   43.8850   85.9660   61.7280 C   0  0  0  0  0  3  0  0  0  0  0  0
   43.3560   86.9070   61.9700 H   0  0  0  0  0  0  0  0  0  0  0  0
  1  6  1  0  0  0  0
  2  3  1  0  0  0  0
  2  1  2  0  0  0  0
  3  4  2  0  0  0  0
  4  5  1  0  0  0  0
  5  9  1  0  0  0  0
  6  5  2  0  0  0  0
  7  1  1  0  0  0  0
  8  2  1  0  0  0  0
 10 12  1  0  0  0  0
 10  3  1  0  0  0  0
 11 10  2  0  0  0  0
 12 16  1  0  0  0  0
 13 14  1  0  0  0  0
 13 12  1  0  0  0  0
 14 15  1  0  0  0  0
 15 16  1  0  0  0  0
 16 17  1  0  0  0  0
M  END
>  <minimizedAffinity>
-4.11877298

>  <minimizedRMSD>
3.34564424

$$$$
