
 OpenBabel03212521093D

 17 18  0  0  0  0  0  0  0  0999 V2000
   40.4430   81.7370   61.2720 C   0  0  0  0  0  0  0  0  0  0  0  0
   41.2590   82.6580   60.6090 C   0  0  0  0  0  0  0  0  0  0  0  0
   40.9030   84.0130   60.6540 C   0  0  0  0  0  0  0  0  0  0  0  0
   39.7760   84.3410   61.3480 N   0  0  0  0  0  0  0  0  0  0  0  0
   39.0140   83.4180   61.9760 C   0  0  0  0  0  0  0  0  0  0  0  0
   39.3490   82.1190   61.9370 N   0  0  0  0  0  0  0  0  0  0  0  0
   40.6770   80.6950   61.2630 H   0  0  0  0  0  0  0  0  0  0  0  0
   42.1340   82.2850   60.0870 H   0  0  0  0  0  0  0  0  0  0  0  0
   38.1710   83.9120   62.4610 H   0  0  0  0  0  0  0  0  0  0  0  0
   41.7160   84.9780   59.9860 C   0  0  0  0  0  0  0  0  0  0  0  0
   41.4370   85.4790   58.8530 O   0  0  0  0  0  0  0  0  0  0  0  0
   42.9390   85.5260   60.4620 N   0  0  0  0  0  0  0  0  0  0  0  0
   43.6490   86.1960   59.3740 C   0  0  0  0  0  2  0  0  0  0  0  0
   44.9390   86.7160   60.0160 C   0  0  0  0  0  2  0  0  0  0  0  0
   44.4330   86.9760   61.4190 C   0  0  0  0  0  2  0  0  0  0  0  0
   43.7310   85.6440   61.6900 C   0  0  0  0  0  3  0  0  0  0  0  0
   43.1110   85.7660   62.5970 H   0  0  0  0  0  0  0  0  0  0  0  0
  1  6  1  0  0  0  0
  2  3  1  0  0  0  0
  2  1  2  0  0  0  0
  3  4  2  0  0  0  0
  4  5  1  0  0  0  0
  5  9  1  0  0  0  0
  6  5  2  0  0  0  0
  7  1  1  0  0  0  0
  8  2  1  0  0  0  0
 10 12  1  0  0  0  0
 10  3  1  0  0  0  0
 11 10  2  0  0  0  0
 12 16  1  0  0  0  0
 13 14  1  0  0  0  0
 13 12  1  0  0  0  0
 14 15  1  0  0  0  0
 15 16  1  0  0  0  0
 16 17  1  0  0  0  0
M  END
>  <minimizedAffinity>
-4.28836775

>  <minimizedRMSD>
2.94537783

$$$$
