
 OpenBabel03212520573D

 32 35  0  0  0  0  0  0  0  0999 V2000
   39.2850   76.5330   57.1670 C   0  0  0  0  0  0  0  0  0  0  0  0
   38.9800   76.6840   58.5070 C   0  0  0  0  0  0  0  0  0  0  0  0
   39.7950   76.1040   59.4060 C   0  0  0  0  0  0  0  0  0  0  0  0
   40.8990   75.3830   58.9740 C   0  0  0  0  0  0  0  0  0  0  0  0
   40.7930   75.5250   57.1250 S   0  0  0  0  0  0  0  0  0  0  0  0
   38.1160   77.2500   58.8450 H   0  0  0  0  0  0  0  0  0  0  0  0
   39.7320   76.1050   60.4850 H   0  0  0  0  0  0  0  0  0  0  0  0
   36.3990   77.7730   55.2770 C   0  0  0  0  0  0  0  0  0  0  0  0
   36.9630   78.1770   54.0460 C   0  0  0  0  0  0  0  0  0  0  0  0
   38.3230   78.0200   53.8790 C   0  0  0  0  0  0  0  0  0  0  0  0
   39.0470   77.4910   54.8950 N   0  0  0  0  0  0  0  0  0  0  0  0
   38.4810   77.1160   56.0550 C   0  0  0  0  0  0  0  0  0  0  0  0
   37.1770   77.2580   56.2360 N   0  0  0  0  0  0  0  0  0  0  0  0
   35.3330   77.8860   55.4330 H   0  0  0  0  0  0  0  0  0  0  0  0
   36.3530   78.5970   53.2550 H   0  0  0  0  0  0  0  0  0  0  0  0
   38.8230   78.3130   52.9470 H   0  0  0  0  0  0  0  0  0  0  0  0
   41.9700   74.6410   59.5860 C   0  0  0  0  0  0  0  0  0  0  0  0
   43.2580   74.9770   59.2870 C   0  0  0  0  0  0  0  0  0  0  0  0
   44.1920   74.1700   59.9560 C   0  0  0  0  0  0  0  0  0  0  0  0
   43.8640   73.1700   60.8030 N   0  0  0  0  0  0  0  0  0  0  0  0
   42.5540   72.9160   61.0340 C   0  0  0  0  0  0  0  0  0  0  0  0
   41.5990   73.6610   60.4170 N   0  0  0  0  0  0  0  0  0  0  0  0
   43.5780   75.7600   58.6230 H   0  0  0  0  0  0  0  0  0  0  0  0
   45.2690   74.3240   59.8130 H   0  0  0  0  0  0  0  0  0  0  0  0
   42.2140   71.8440   61.9430 C   0  0  0  0  0  0  0  0  0  0  0  0
   41.6030   72.1450   62.9970 O   0  0  0  0  0  0  0  0  0  0  0  0
   42.5660   70.5000   61.6380 N   0  0  0  0  0  0  0  0  0  0  0  0
   42.4280   69.7920   60.3910 C   0  0  0  0  0  2  0  0  0  0  0  0
   41.9220   68.4050   60.8070 C   0  0  0  0  0  2  0  0  0  0  0  0
   42.7430   68.1730   62.0670 C   0  0  0  0  0  2  0  0  0  0  0  0
   43.1500   69.5510   62.5480 C   0  0  0  0  0  3  0  0  0  0  0  0
   44.2650   69.6020   62.5250 H   0  0  0  0  0  0  0  0  0  0  0  0
  1  2  2  0  0  0  0
  2  6  1  0  0  0  0
  2  3  1  0  0  0  0
  3  7  1  0  0  0  0
  4  3  2  0  0  0  0
  4 17  1  0  0  0  0
  5  1  1  0  0  0  0
  5  4  1  0  0  0  0
  8 14  1  0  0  0  0
  8 13  1  0  0  0  0
  9  8  2  0  0  0  0
 10  9  1  0  0  0  0
 10 11  2  0  0  0  0
 11 12  1  0  0  0  0
 12 13  2  0  0  0  0
 12  1  1  0  0  0  0
 15  9  1  0  0  0  0
 16 10  1  0  0  0  0
 17 22  1  0  0  0  0
 18 17  2  0  0  0  0
 18 19  1  0  0  0  0
 19 20  2  0  0  0  0
 20 21  1  0  0  0  0
 21 25  1  0  0  0  0
 22 21  2  0  0  0  0
 23 18  1  0  0  0  0
 24 19  1  0  0  0  0
 25 26  2  0  0  0  0
 27 25  1  0  0  0  0
 27 31  1  0  0  0  0
 28 29  1  0  0  0  0
 28 27  1  0  0  0  0
 29 30  1  0  0  0  0
 30 31  1  0  0  0  0
 32 31  1  0  0  0  0
M  END
>  <minimizedAffinity>
-6.26249743

$$$$

 OpenBabel03212520573D

 32 35  0  0  0  0  0  0  0  0999 V2000
   41.9400   69.8200   62.0190 C   0  0  0  0  0  0  0  0  0  0  0  0
   42.0400   70.7950   62.9930 C   0  0  0  0  0  0  0  0  0  0  0  0
   42.2460   72.0630   62.5930 C   0  0  0  0  0  0  0  0  0  0  0  0
   42.3510   72.3530   61.2410 C   0  0  0  0  0  0  0  0  0  0  0  0
   42.1430   70.6910   60.4400 S   0  0  0  0  0  0  0  0  0  0  0  0
   41.9560   70.5680   64.0520 H   0  0  0  0  0  0  0  0  0  0  0  0
   42.3510   72.9590   63.1900 H   0  0  0  0  0  0  0  0  0  0  0  0
   40.7420   66.7760   63.6740 C   0  0  0  0  0  0  0  0  0  0  0  0
   41.2620   65.7390   62.8680 C   0  0  0  0  0  0  0  0  0  0  0  0
   42.0160   66.0950   61.7680 C   0  0  0  0  0  0  0  0  0  0  0  0
   42.2190   67.4110   61.5160 N   0  0  0  0  0  0  0  0  0  0  0  0
   41.7100   68.3740   62.3020 C   0  0  0  0  0  0  0  0  0  0  0  0
   40.9840   68.0540   63.3630 N   0  0  0  0  0  0  0  0  0  0  0  0
   40.1470   66.5220   64.5430 H   0  0  0  0  0  0  0  0  0  0  0  0
   41.0790   64.6960   63.0990 H   0  0  0  0  0  0  0  0  0  0  0  0
   42.4490   65.3380   61.1020 H   0  0  0  0  0  0  0  0  0  0  0  0
   42.5650   73.5270   60.4350 C   0  0  0  0  0  0  0  0  0  0  0  0
   43.8300   73.8130   60.0110 C   0  0  0  0  0  0  0  0  0  0  0  0
   43.8840   74.9820   59.2360 C   0  0  0  0  0  0  0  0  0  0  0  0
   42.8120   75.7460   58.9370 N   0  0  0  0  0  0  0  0  0  0  0  0
   41.5960   75.3750   59.4060 C   0  0  0  0  0  0  0  0  0  0  0  0
   41.4760   74.2530   60.1630 N   0  0  0  0  0  0  0  0  0  0  0  0
   44.7190   73.2430   60.2170 H   0  0  0  0  0  0  0  0  0  0  0  0
   44.8380   75.3370   58.8260 H   0  0  0  0  0  0  0  0  0  0  0  0
   40.4550   76.2000   59.0790 C   0  0  0  0  0  0  0  0  0  0  0  0
   40.2240   77.1920   59.8120 O   0  0  0  0  0  0  0  0  0  0  0  0
   39.6320   75.8850   57.9630 N   0  0  0  0  0  0  0  0  0  0  0  0
   40.0270   75.5080   56.6290 C   0  0  0  0  0  2  0  0  0  0  0  0
   39.0650   76.2850   55.7230 C   0  0  0  0  0  2  0  0  0  0  0  0
   37.7710   76.1610   56.5160 C   0  0  0  0  0  2  0  0  0  0  0  0
   38.1940   75.8830   57.9440 C   0  0  0  0  0  3  0  0  0  0  0  0
   37.7870   74.8830   58.2290 H   0  0  0  0  0  0  0  0  0  0  0  0
  1 12  1  0  0  0  0
  1  2  2  0  0  0  0
  2  6  1  0  0  0  0
  3  2  1  0  0  0  0
  3  7  1  0  0  0  0
  4  3  2  0  0  0  0
  5  4  1  0  0  0  0
  5  1  1  0  0  0  0
  8 14  1  0  0  0  0
  9 15  1  0  0  0  0
  9  8  2  0  0  0  0
 10  9  1  0  0  0  0
 11 10  2  0  0  0  0
 11 12  1  0  0  0  0
 12 13  2  0  0  0  0
 13  8  1  0  0  0  0
 16 10  1  0  0  0  0
 17  4  1  0  0  0  0
 18 23  1  0  0  0  0
 18 17  2  0  0  0  0
 19 18  1  0  0  0  0
 20 19  2  0  0  0  0
 20 21  1  0  0  0  0
 21 22  2  0  0  0  0
 22 17  1  0  0  0  0
 24 19  1  0  0  0  0
 25 21  1  0  0  0  0
 25 26  2  0  0  0  0
 27 25  1  0  0  0  0
 28 27  1  0  0  0  0
 29 30  1  0  0  0  0
 29 28  1  0  0  0  0
 30 31  1  0  0  0  0
 31 27  1  0  0  0  0
 31 32  1  0  0  0  0
M  END
>  <minimizedAffinity>
-6.18811846

$$$$

 OpenBabel03212520573D

 32 35  0  0  0  0  0  0  0  0999 V2000
   40.9610   72.5990   60.9320 C   0  0  0  0  0  0  0  0  0  0  0  0
   39.8170   73.0610   61.5540 C   0  0  0  0  0  0  0  0  0  0  0  0
   39.2300   74.1630   61.0520 C   0  0  0  0  0  0  0  0  0  0  0  0
   39.7770   74.7930   59.9440 C   0  0  0  0  0  0  0  0  0  0  0  0
   41.2640   73.7480   59.5600 S   0  0  0  0  0  0  0  0  0  0  0  0
   39.3880   72.5660   62.4210 H   0  0  0  0  0  0  0  0  0  0  0  0
   38.3400   74.6760   61.3890 H   0  0  0  0  0  0  0  0  0  0  0  0
   42.8160   69.4410   60.7620 C   0  0  0  0  0  0  0  0  0  0  0  0
   43.1210   69.1680   62.1140 C   0  0  0  0  0  0  0  0  0  0  0  0
   42.6890   70.0680   63.0660 C   0  0  0  0  0  0  0  0  0  0  0  0
   41.9980   71.1610   62.6620 N   0  0  0  0  0  0  0  0  0  0  0  0
   41.7230   71.3940   61.3680 C   0  0  0  0  0  0  0  0  0  0  0  0
   42.1280   70.5420   60.4370 N   0  0  0  0  0  0  0  0  0  0  0  0
   43.1440   68.7500   59.9950 H   0  0  0  0  0  0  0  0  0  0  0  0
   43.6770   68.2820   62.4010 H   0  0  0  0  0  0  0  0  0  0  0  0
   42.8930   69.9130   64.1330 H   0  0  0  0  0  0  0  0  0  0  0  0
   39.4710   75.9450   59.1370 C   0  0  0  0  0  0  0  0  0  0  0  0
   39.9110   77.1710   59.5450 C   0  0  0  0  0  0  0  0  0  0  0  0
   39.5400   78.1960   58.6610 C   0  0  0  0  0  0  0  0  0  0  0  0
   38.8270   78.0040   57.5310 N   0  0  0  0  0  0  0  0  0  0  0  0
   38.4360   76.7460   57.2130 C   0  0  0  0  0  0  0  0  0  0  0  0
   38.7640   75.7080   58.0280 N   0  0  0  0  0  0  0  0  0  0  0  0
   40.4820   77.3840   60.4320 H   0  0  0  0  0  0  0  0  0  0  0  0
   39.8250   79.2370   58.8600 H   0  0  0  0  0  0  0  0  0  0  0  0
   37.6740   76.5510   56.0010 C   0  0  0  0  0  0  0  0  0  0  0  0
   36.4380   76.7650   56.0480 O   0  0  0  0  0  0  0  0  0  0  0  0
   38.3160   76.1310   54.8030 N   0  0  0  0  0  0  0  0  0  0  0  0
   39.5440   76.6100   54.2220 C   0  0  0  0  0  2  0  0  0  0  0  0
   39.2360   76.7010   52.7230 C   0  0  0  0  0  2  0  0  0  0  0  0
   38.3970   75.4440   52.5320 C   0  0  0  0  0  2  0  0  0  0  0  0
   37.8480   75.1100   53.9040 C   0  0  0  0  0  3  0  0  0  0  0  0
   38.2420   74.1060   54.1910 H   0  0  0  0  0  0  0  0  0  0  0  0
  1 12  1  0  0  0  0
  1  2  2  0  0  0  0
  2  6  1  0  0  0  0
  3  7  1  0  0  0  0
  3  2  1  0  0  0  0
  4  3  2  0  0  0  0
  5  4  1  0  0  0  0
  5  1  1  0  0  0  0
  8  9  1  0  0  0  0
  9 15  1  0  0  0  0
  9 10  2  0  0  0  0
 10 16  1  0  0  0  0
 11 10  1  0  0  0  0
 12 11  2  0  0  0  0
 13  8  2  0  0  0  0
 13 12  1  0  0  0  0
 14  8  1  0  0  0  0
 17 18  1  0  0  0  0
 17  4  1  0  0  0  0
 18 23  1  0  0  0  0
 19 24  1  0  0  0  0
 19 18  2  0  0  0  0
 20 19  1  0  0  0  0
 21 20  2  0  0  0  0
 21 22  1  0  0  0  0
 22 17  2  0  0  0  0
 25 26  2  0  0  0  0
 25 21  1  0  0  0  0
 27 25  1  0  0  0  0
 28 27  1  0  0  0  0
 29 28  1  0  0  0  0
 30 29  1  0  0  0  0
 30 31  1  0  0  0  0
 31 32  1  0  0  0  0
 31 27  1  0  0  0  0
M  END
>  <minimizedAffinity>
-6.129282

$$$$

 OpenBabel03212520573D

 32 35  0  0  0  0  0  0  0  0999 V2000
   42.1560   70.5030   61.1130 C   0  0  0  0  0  0  0  0  0  0  0  0
   41.9050   70.5710   59.7560 C   0  0  0  0  0  0  0  0  0  0  0  0
   41.3260   71.6890   59.2800 C   0  0  0  0  0  0  0  0  0  0  0  0
   41.0030   72.7230   60.1460 C   0  0  0  0  0  0  0  0  0  0  0  0
   41.5600   72.0750   61.7960 S   0  0  0  0  0  0  0  0  0  0  0  0
   42.1590   69.7620   59.0770 H   0  0  0  0  0  0  0  0  0  0  0  0
   41.0510   71.9350   58.2640 H   0  0  0  0  0  0  0  0  0  0  0  0
   43.4630   67.1210   61.6550 C   0  0  0  0  0  0  0  0  0  0  0  0
   43.9460   67.1650   62.9820 C   0  0  0  0  0  0  0  0  0  0  0  0
   43.8180   68.3520   63.6750 C   0  0  0  0  0  0  0  0  0  0  0  0
   43.2410   69.4090   63.0530 N   0  0  0  0  0  0  0  0  0  0  0  0
   42.7910   69.3350   61.7890 C   0  0  0  0  0  0  0  0  0  0  0  0
   42.9040   68.2050   61.1070 N   0  0  0  0  0  0  0  0  0  0  0  0
   43.5520   66.2010   61.0910 H   0  0  0  0  0  0  0  0  0  0  0  0
   44.4030   66.3000   63.4480 H   0  0  0  0  0  0  0  0  0  0  0  0
   44.1720   68.4530   64.7080 H   0  0  0  0  0  0  0  0  0  0  0  0
   40.3990   74.0260   60.0440 C   0  0  0  0  0  0  0  0  0  0  0  0
   40.0340   74.6740   61.1870 C   0  0  0  0  0  0  0  0  0  0  0  0
   39.4630   75.9300   60.9330 C   0  0  0  0  0  0  0  0  0  0  0  0
   39.2860   76.4490   59.6990 N   0  0  0  0  0  0  0  0  0  0  0  0
   39.6830   75.7250   58.6250 C   0  0  0  0  0  0  0  0  0  0  0  0
   40.2450   74.5000   58.8040 N   0  0  0  0  0  0  0  0  0  0  0  0
   40.1500   74.3120   62.1940 H   0  0  0  0  0  0  0  0  0  0  0  0
   39.1200   76.5670   61.7590 H   0  0  0  0  0  0  0  0  0  0  0  0
   39.4910   76.2900   57.3090 C   0  0  0  0  0  0  0  0  0  0  0  0
   40.5020   76.7330   56.7100 O   0  0  0  0  0  0  0  0  0  0  0  0
   38.1950   76.3360   56.7240 N   0  0  0  0  0  0  0  0  0  0  0  0
   37.1910   75.3040   56.6750 C   0  0  0  0  0  2  0  0  0  0  0  0
   36.6340   75.3950   55.2500 C   0  0  0  0  0  2  0  0  0  0  0  0
   36.6070   76.9050   55.0550 C   0  0  0  0  0  2  0  0  0  0  0  0
   37.6130   77.4610   56.0420 C   0  0  0  0  0  3  0  0  0  0  0  0
   37.0610   78.1220   56.7520 H   0  0  0  0  0  0  0  0  0  0  0  0
  1 12  1  0  0  0  0
  1  5  1  0  0  0  0
  2  1  2  0  0  0  0
  3  2  1  0  0  0  0
  3  4  2  0  0  0  0
  4  5  1  0  0  0  0
  6  2  1  0  0  0  0
  7  3  1  0  0  0  0
  8  9  1  0  0  0  0
  9 15  1  0  0  0  0
  9 10  2  0  0  0  0
 10 16  1  0  0  0  0
 11 10  1  0  0  0  0
 12 11  2  0  0  0  0
 13  8  2  0  0  0  0
 13 12  1  0  0  0  0
 14  8  1  0  0  0  0
 17  4  1  0  0  0  0
 17 18  1  0  0  0  0
 18 23  1  0  0  0  0
 19 18  2  0  0  0  0
 19 24  1  0  0  0  0
 20 19  1  0  0  0  0
 21 22  1  0  0  0  0
 21 20  2  0  0  0  0
 22 17  2  0  0  0  0
 25 21  1  0  0  0  0
 26 25  2  0  0  0  0
 27 25  1  0  0  0  0
 28 27  1  0  0  0  0
 29 28  1  0  0  0  0
 30 29  1  0  0  0  0
 30 31  1  0  0  0  0
 31 27  1  0  0  0  0
 31 32  1  0  0  0  0
M  END
>  <minimizedAffinity>
-5.99680662

$$$$

 OpenBabel03212520573D

 32 35  0  0  0  0  0  0  0  0999 V2000
   38.6430   74.5100   57.7980 C   0  0  0  0  0  0  0  0  0  0  0  0
   38.1340   74.7050   59.0680 C   0  0  0  0  0  0  0  0  0  0  0  0
   38.7690   74.1140   60.0960 C   0  0  0  0  0  0  0  0  0  0  0  0
   39.8960   73.3410   59.8600 C   0  0  0  0  0  0  0  0  0  0  0  0
   40.0940   73.4430   58.0160 S   0  0  0  0  0  0  0  0  0  0  0  0
   37.2520   75.3120   59.2530 H   0  0  0  0  0  0  0  0  0  0  0  0
   38.5340   74.1430   61.1510 H   0  0  0  0  0  0  0  0  0  0  0  0
   37.9580   75.0960   54.2440 C   0  0  0  0  0  0  0  0  0  0  0  0
   37.0070   76.1400   54.2620 C   0  0  0  0  0  0  0  0  0  0  0  0
   36.6110   76.6310   55.4900 C   0  0  0  0  0  0  0  0  0  0  0  0
   37.1500   76.0910   56.6100 N   0  0  0  0  0  0  0  0  0  0  0  0
   38.0540   75.0980   56.5610 C   0  0  0  0  0  0  0  0  0  0  0  0
   38.4470   74.6130   55.3920 N   0  0  0  0  0  0  0  0  0  0  0  0
   38.2840   74.6940   53.2930 H   0  0  0  0  0  0  0  0  0  0  0  0
   36.5960   76.5480   53.3450 H   0  0  0  0  0  0  0  0  0  0  0  0
   35.8770   77.4410   55.5730 H   0  0  0  0  0  0  0  0  0  0  0  0
   40.8230   72.5710   60.6490 C   0  0  0  0  0  0  0  0  0  0  0  0
   41.1240   72.9960   61.9100 C   0  0  0  0  0  0  0  0  0  0  0  0
   42.0360   72.1480   62.5580 C   0  0  0  0  0  0  0  0  0  0  0  0
   42.5650   71.0350   62.0050 N   0  0  0  0  0  0  0  0  0  0  0  0
   42.2000   70.6980   60.7440 C   0  0  0  0  0  0  0  0  0  0  0  0
   41.3190   71.4780   60.0620 N   0  0  0  0  0  0  0  0  0  0  0  0
   40.7360   73.8700   62.4020 H   0  0  0  0  0  0  0  0  0  0  0  0
   42.3730   72.3640   63.5800 H   0  0  0  0  0  0  0  0  0  0  0  0
   42.7700   69.5050   60.1620 C   0  0  0  0  0  0  0  0  0  0  0  0
   43.8390   69.6250   59.5140 O   0  0  0  0  0  0  0  0  0  0  0  0
   42.1320   68.2450   60.3250 N   0  0  0  0  0  0  0  0  0  0  0  0
   41.5690   67.6670   61.5190 C   0  0  0  0  0  2  0  0  0  0  0  0
   42.0100   66.1990   61.4640 C   0  0  0  0  0  2  0  0  0  0  0  0
   41.8500   65.9140   59.9770 C   0  0  0  0  0  2  0  0  0  0  0  0
   41.9140   67.2650   59.2950 C   0  0  0  0  0  3  0  0  0  0  0  0
   40.9380   67.4300   58.7790 H   0  0  0  0  0  0  0  0  0  0  0  0
  1  5  1  0  0  0  0
  1  2  2  0  0  0  0
  2  6  1  0  0  0  0
  2  3  1  0  0  0  0
  3  7  1  0  0  0  0
  4  3  2  0  0  0  0
  4 17  1  0  0  0  0
  5  4  1  0  0  0  0
  8  9  2  0  0  0  0
  8 13  1  0  0  0  0
  9 10  1  0  0  0  0
 10 16  1  0  0  0  0
 10 11  2  0  0  0  0
 12 11  1  0  0  0  0
 12  1  1  0  0  0  0
 13 12  2  0  0  0  0
 14  8  1  0  0  0  0
 15  9  1  0  0  0  0
 17 18  1  0  0  0  0
 18 23  1  0  0  0  0
 18 19  2  0  0  0  0
 19 24  1  0  0  0  0
 20 19  1  0  0  0  0
 21 20  2  0  0  0  0
 22 17  2  0  0  0  0
 22 21  1  0  0  0  0
 25 27  1  0  0  0  0
 25 21  1  0  0  0  0
 26 25  2  0  0  0  0
 27 28  1  0  0  0  0
 29 28  1  0  0  0  0
 30 29  1  0  0  0  0
 31 30  1  0  0  0  0
 31 27  1  0  0  0  0
 32 31  1  0  0  0  0
M  END
>  <minimizedAffinity>
-5.98192549

$$$$

 OpenBabel03212520573D

 32 35  0  0  0  0  0  0  0  0999 V2000
   41.8190   70.6640   61.1040 C   0  0  0  0  0  0  0  0  0  0  0  0
   41.6760   70.7190   59.7310 C   0  0  0  0  0  0  0  0  0  0  0  0
   41.1540   71.8390   59.1980 C   0  0  0  0  0  0  0  0  0  0  0  0
   40.7800   72.8890   60.0240 C   0  0  0  0  0  0  0  0  0  0  0  0
   41.1960   72.2540   61.7190 S   0  0  0  0  0  0  0  0  0  0  0  0
   41.9700   69.8970   59.0830 H   0  0  0  0  0  0  0  0  0  0  0  0
   40.9630   72.0770   58.1600 H   0  0  0  0  0  0  0  0  0  0  0  0
   42.5660   67.1920   62.0120 C   0  0  0  0  0  0  0  0  0  0  0  0
   43.3840   67.3220   63.1570 C   0  0  0  0  0  0  0  0  0  0  0  0
   43.6690   68.5970   63.6030 C   0  0  0  0  0  0  0  0  0  0  0  0
   43.1560   69.6530   62.9280 N   0  0  0  0  0  0  0  0  0  0  0  0
   42.3810   69.4970   61.8410 C   0  0  0  0  0  0  0  0  0  0  0  0
   42.0950   68.2820   61.3960 N   0  0  0  0  0  0  0  0  0  0  0  0
   42.3280   66.2030   61.6430 H   0  0  0  0  0  0  0  0  0  0  0  0
   43.7780   66.4540   63.6730 H   0  0  0  0  0  0  0  0  0  0  0  0
   44.2980   68.7660   64.4870 H   0  0  0  0  0  0  0  0  0  0  0  0
   40.2070   74.1990   59.8590 C   0  0  0  0  0  0  0  0  0  0  0  0
   40.1950   75.0510   60.9240 C   0  0  0  0  0  0  0  0  0  0  0  0
   39.6090   76.2880   60.6150 C   0  0  0  0  0  0  0  0  0  0  0  0
   39.1070   76.6100   59.4040 N   0  0  0  0  0  0  0  0  0  0  0  0
   39.1680   75.6920   58.4090 C   0  0  0  0  0  0  0  0  0  0  0  0
   39.7240   74.4740   58.6430 N   0  0  0  0  0  0  0  0  0  0  0  0
   40.5780   74.8500   61.9100 H   0  0  0  0  0  0  0  0  0  0  0  0
   39.5280   77.0750   61.3760 H   0  0  0  0  0  0  0  0  0  0  0  0
   38.6290   76.0480   57.1160 C   0  0  0  0  0  0  0  0  0  0  0  0
   37.3860   76.1910   57.0210 O   0  0  0  0  0  0  0  0  0  0  0  0
   39.4910   76.2260   55.9980 N   0  0  0  0  0  0  0  0  0  0  0  0
   40.7390   76.9420   55.9280 C   0  0  0  0  0  2  0  0  0  0  0  0
   40.6620   77.6920   54.5920 C   0  0  0  0  0  2  0  0  0  0  0  0
   39.9990   76.6380   53.7170 C   0  0  0  0  0  2  0  0  0  0  0  0
   39.2780   75.7100   54.6730 C   0  0  0  0  0  3  0  0  0  0  0  0
   39.7240   74.6930   54.5590 H   0  0  0  0  0  0  0  0  0  0  0  0
  1  5  1  0  0  0  0
  1 12  1  0  0  0  0
  2  1  2  0  0  0  0
  3  2  1  0  0  0  0
  3  4  2  0  0  0  0
  4  5  1  0  0  0  0
  6  2  1  0  0  0  0
  7  3  1  0  0  0  0
  8  9  1  0  0  0  0
  9 10  2  0  0  0  0
  9 15  1  0  0  0  0
 10 16  1  0  0  0  0
 11 10  1  0  0  0  0
 12 11  2  0  0  0  0
 13 12  1  0  0  0  0
 13  8  2  0  0  0  0
 14  8  1  0  0  0  0
 17  4  1  0  0  0  0
 17 18  1  0  0  0  0
 18 23  1  0  0  0  0
 19 18  2  0  0  0  0
 19 24  1  0  0  0  0
 20 19  1  0  0  0  0
 21 22  1  0  0  0  0
 21 20  2  0  0  0  0
 22 17  2  0  0  0  0
 25 21  1  0  0  0  0
 26 25  2  0  0  0  0
 27 25  1  0  0  0  0
 28 27  1  0  0  0  0
 29 28  1  0  0  0  0
 30 29  1  0  0  0  0
 30 31  1  0  0  0  0
 31 27  1  0  0  0  0
 32 31  1  0  0  0  0
M  END
>  <minimizedAffinity>
-5.72627544

$$$$

 OpenBabel03212520573D

 32 35  0  0  0  0  0  0  0  0999 V2000
   42.0100   70.6710   61.3470 C   0  0  0  0  0  0  0  0  0  0  0  0
   41.7040   71.4540   62.4430 C   0  0  0  0  0  0  0  0  0  0  0  0
   41.1510   72.6600   62.2190 C   0  0  0  0  0  0  0  0  0  0  0  0
   40.9070   73.0780   60.9190 C   0  0  0  0  0  0  0  0  0  0  0  0
   41.5090   71.6460   59.9000 S   0  0  0  0  0  0  0  0  0  0  0  0
   41.8950   71.1270   63.4620 H   0  0  0  0  0  0  0  0  0  0  0  0
   40.8420   73.4130   62.9310 H   0  0  0  0  0  0  0  0  0  0  0  0
   44.4990   67.9890   61.1190 C   0  0  0  0  0  0  0  0  0  0  0  0
   43.7940   66.8490   61.5660 C   0  0  0  0  0  0  0  0  0  0  0  0
   42.4760   67.0130   61.9400 C   0  0  0  0  0  0  0  0  0  0  0  0
   41.9260   68.2490   61.8620 N   0  0  0  0  0  0  0  0  0  0  0  0
   42.6230   69.3140   61.4320 C   0  0  0  0  0  0  0  0  0  0  0  0
   43.8890   69.1790   61.0670 N   0  0  0  0  0  0  0  0  0  0  0  0
   45.5340   67.8860   60.8190 H   0  0  0  0  0  0  0  0  0  0  0  0
   44.2660   65.8750   61.6160 H   0  0  0  0  0  0  0  0  0  0  0  0
   41.8730   66.1680   62.2960 H   0  0  0  0  0  0  0  0  0  0  0  0
   40.3560   74.2440   60.2790 C   0  0  0  0  0  0  0  0  0  0  0  0
   39.9250   75.2790   61.0560 C   0  0  0  0  0  0  0  0  0  0  0  0
   39.4170   76.3440   60.2970 C   0  0  0  0  0  0  0  0  0  0  0  0
   39.3540   76.3550   58.9480 N   0  0  0  0  0  0  0  0  0  0  0  0
   39.8090   75.2750   58.2660 C   0  0  0  0  0  0  0  0  0  0  0  0
   40.3140   74.2100   58.9440 N   0  0  0  0  0  0  0  0  0  0  0  0
   39.9500   75.3270   62.1310 H   0  0  0  0  0  0  0  0  0  0  0  0
   39.0320   77.2480   60.7870 H   0  0  0  0  0  0  0  0  0  0  0  0
   39.7380   75.2970   56.8230 C   0  0  0  0  0  0  0  0  0  0  0  0
   40.7250   74.8600   56.1840 O   0  0  0  0  0  0  0  0  0  0  0  0
   38.5820   75.7990   56.1640 N   0  0  0  0  0  0  0  0  0  0  0  0
   37.1940   75.5400   56.4550 C   0  0  0  0  0  2  0  0  0  0  0  0
   36.5540   75.3580   55.0740 C   0  0  0  0  0  2  0  0  0  0  0  0
   37.2840   76.4340   54.2810 C   0  0  0  0  0  2  0  0  0  0  0  0
   38.5700   76.6940   55.0380 C   0  0  0  0  0  3  0  0  0  0  0  0
   38.5580   77.7600   55.3690 H   0  0  0  0  0  0  0  0  0  0  0  0
  1 12  1  0  0  0  0
  1  2  2  0  0  0  0
  2  6  1  0  0  0  0
  3  2  1  0  0  0  0
  3  7  1  0  0  0  0
  4  3  2  0  0  0  0
  5  4  1  0  0  0  0
  5  1  1  0  0  0  0
  8  9  1  0  0  0  0
  9 15  1  0  0  0  0
  9 10  2  0  0  0  0
 10 16  1  0  0  0  0
 11 10  1  0  0  0  0
 12 11  2  0  0  0  0
 13  8  2  0  0  0  0
 13 12  1  0  0  0  0
 14  8  1  0  0  0  0
 17  4  1  0  0  0  0
 17 18  1  0  0  0  0
 18 23  1  0  0  0  0
 19 24  1  0  0  0  0
 19 18  2  0  0  0  0
 20 19  1  0  0  0  0
 21 22  1  0  0  0  0
 21 20  2  0  0  0  0
 22 17  2  0  0  0  0
 25 21  1  0  0  0  0
 26 25  2  0  0  0  0
 27 28  1  0  0  0  0
 27 25  1  0  0  0  0
 29 28  1  0  0  0  0
 30 31  1  0  0  0  0
 30 29  1  0  0  0  0
 31 32  1  0  0  0  0
 31 27  1  0  0  0  0
M  END
>  <minimizedAffinity>
-5.70919943

$$$$

 OpenBabel03212520573D

 32 35  0  0  0  0  0  0  0  0999 V2000
   41.5160   68.8550   56.5530 C   0  0  0  0  0  0  0  0  0  0  0  0
   41.5730   68.0700   57.6890 C   0  0  0  0  0  0  0  0  0  0  0  0
   41.5880   68.6910   58.8820 C   0  0  0  0  0  0  0  0  0  0  0  0
   41.5460   70.0760   58.9410 C   0  0  0  0  0  0  0  0  0  0  0  0
   41.4800   70.5680   57.1510 S   0  0  0  0  0  0  0  0  0  0  0  0
   41.6050   66.9840   57.6430 H   0  0  0  0  0  0  0  0  0  0  0  0
   41.6300   68.2620   59.8740 H   0  0  0  0  0  0  0  0  0  0  0  0
   42.5850   67.1230   53.5050 C   0  0  0  0  0  0  0  0  0  0  0  0
   41.4970   67.3100   52.6230 C   0  0  0  0  0  0  0  0  0  0  0  0
   40.4110   68.0260   53.0830 C   0  0  0  0  0  0  0  0  0  0  0  0
   40.4400   68.5110   54.3480 N   0  0  0  0  0  0  0  0  0  0  0  0
   41.4910   68.3170   55.1630 C   0  0  0  0  0  0  0  0  0  0  0  0
   42.5440   67.6320   54.7410 N   0  0  0  0  0  0  0  0  0  0  0  0
   43.4500   66.5650   53.1670 H   0  0  0  0  0  0  0  0  0  0  0  0
   41.5080   66.9070   51.6170 H   0  0  0  0  0  0  0  0  0  0  0  0
   39.5350   68.2070   52.4490 H   0  0  0  0  0  0  0  0  0  0  0  0
   41.5470   71.0810   59.9710 C   0  0  0  0  0  0  0  0  0  0  0  0
   42.4370   70.9700   61.0000 C   0  0  0  0  0  0  0  0  0  0  0  0
   42.3220   72.0190   61.9250 C   0  0  0  0  0  0  0  0  0  0  0  0
   41.4340   73.0300   61.8210 N   0  0  0  0  0  0  0  0  0  0  0  0
   40.5910   73.0510   60.7590 C   0  0  0  0  0  0  0  0  0  0  0  0
   40.6520   72.0630   59.8270 N   0  0  0  0  0  0  0  0  0  0  0  0
   43.1650   70.1890   61.1350 H   0  0  0  0  0  0  0  0  0  0  0  0
   42.9740   72.0610   62.8070 H   0  0  0  0  0  0  0  0  0  0  0  0
   39.6450   74.1390   60.6570 C   0  0  0  0  0  0  0  0  0  0  0  0
   38.6050   74.0750   61.3570 O   0  0  0  0  0  0  0  0  0  0  0  0
   39.8980   75.2370   59.7890 N   0  0  0  0  0  0  0  0  0  0  0  0
   41.1180   75.9810   59.6080 C   0  0  0  0  0  2  0  0  0  0  0  0
   40.6540   77.4400   59.5220 C   0  0  0  0  0  2  0  0  0  0  0  0
   39.3820   77.2810   58.7000 C   0  0  0  0  0  2  0  0  0  0  0  0
   38.9510   75.8410   58.8910 C   0  0  0  0  0  3  0  0  0  0  0  0
   38.9710   75.3470   57.8900 H   0  0  0  0  0  0  0  0  0  0  0  0
  1  5  1  0  0  0  0
  1  2  2  0  0  0  0
  2  3  1  0  0  0  0
  3  4  2  0  0  0  0
  3  7  1  0  0  0  0
  4 17  1  0  0  0  0
  5  4  1  0  0  0  0
  6  2  1  0  0  0  0
  8 13  1  0  0  0  0
  9 10  1  0  0  0  0
  9  8  2  0  0  0  0
 10 11  2  0  0  0  0
 11 12  1  0  0  0  0
 12  1  1  0  0  0  0
 13 12  2  0  0  0  0
 14  8  1  0  0  0  0
 15  9  1  0  0  0  0
 16 10  1  0  0  0  0
 17 18  1  0  0  0  0
 18 23  1  0  0  0  0
 18 19  2  0  0  0  0
 19 24  1  0  0  0  0
 20 19  1  0  0  0  0
 21 20  2  0  0  0  0
 22 17  2  0  0  0  0
 22 21  1  0  0  0  0
 25 21  1  0  0  0  0
 25 26  2  0  0  0  0
 27 25  1  0  0  0  0
 28 27  1  0  0  0  0
 29 28  1  0  0  0  0
 30 31  1  0  0  0  0
 30 29  1  0  0  0  0
 31 27  1  0  0  0  0
 32 31  1  0  0  0  0
M  END
>  <minimizedAffinity>
-5.68722963

$$$$

 OpenBabel03212520573D

 32 35  0  0  0  0  0  0  0  0999 V2000
   40.8570   74.5970   59.7150 C   0  0  0  0  0  0  0  0  0  0  0  0
   42.2220   74.4550   59.8780 C   0  0  0  0  0  0  0  0  0  0  0  0
   42.6690   73.3490   60.4990 C   0  0  0  0  0  0  0  0  0  0  0  0
   41.7670   72.3970   60.9500 C   0  0  0  0  0  0  0  0  0  0  0  0
   40.1240   73.1140   60.4620 S   0  0  0  0  0  0  0  0  0  0  0  0
   42.9290   75.2010   59.5240 H   0  0  0  0  0  0  0  0  0  0  0  0
   43.6850   73.0540   60.7210 H   0  0  0  0  0  0  0  0  0  0  0  0
   40.1730   78.0560   58.7110 C   0  0  0  0  0  0  0  0  0  0  0  0
   39.0590   77.9330   57.8520 C   0  0  0  0  0  0  0  0  0  0  0  0
   38.5550   76.6680   57.6270 C   0  0  0  0  0  0  0  0  0  0  0  0
   39.1500   75.6130   58.2350 N   0  0  0  0  0  0  0  0  0  0  0  0
   40.2090   75.7620   59.0480 C   0  0  0  0  0  0  0  0  0  0  0  0
   40.7080   76.9680   59.2780 N   0  0  0  0  0  0  0  0  0  0  0  0
   40.5860   79.0380   58.9040 H   0  0  0  0  0  0  0  0  0  0  0  0
   38.6080   78.7990   57.3810 H   0  0  0  0  0  0  0  0  0  0  0  0
   37.6910   76.5040   56.9700 H   0  0  0  0  0  0  0  0  0  0  0  0
   41.8330   71.1320   61.6340 C   0  0  0  0  0  0  0  0  0  0  0  0
   41.8160   71.1190   62.9980 C   0  0  0  0  0  0  0  0  0  0  0  0
   41.8850   69.8190   63.5230 C   0  0  0  0  0  0  0  0  0  0  0  0
   41.9610   68.6990   62.7730 N   0  0  0  0  0  0  0  0  0  0  0  0
   41.9710   68.8180   61.4230 C   0  0  0  0  0  0  0  0  0  0  0  0
   41.9060   70.0500   60.8510 N   0  0  0  0  0  0  0  0  0  0  0  0
   41.7570   71.9760   63.6460 H   0  0  0  0  0  0  0  0  0  0  0  0
   41.8810   69.6530   64.6080 H   0  0  0  0  0  0  0  0  0  0  0  0
   42.0510   67.6130   60.6300 C   0  0  0  0  0  0  0  0  0  0  0  0
   41.1420   67.4060   59.7900 O   0  0  0  0  0  0  0  0  0  0  0  0
   43.1300   66.7030   60.8060 N   0  0  0  0  0  0  0  0  0  0  0  0
   44.5370   66.9860   60.9300 C   0  0  0  0  0  2  0  0  0  0  0  0
   45.2100   65.9050   60.0760 C   0  0  0  0  0  2  0  0  0  0  0  0
   44.3420   64.7010   60.4120 C   0  0  0  0  0  2  0  0  0  0  0  0
   43.0240   65.2720   60.8960 C   0  0  0  0  0  3  0  0  0  0  0  0
   42.8810   64.9420   61.9530 H   0  0  0  0  0  0  0  0  0  0  0  0
  1  2  2  0  0  0  0
  1  5  1  0  0  0  0
  2  3  1  0  0  0  0
  3  7  1  0  0  0  0
  3  4  2  0  0  0  0
  4 17  1  0  0  0  0
  5  4  1  0  0  0  0
  6  2  1  0  0  0  0
  8 14  1  0  0  0  0
  8 13  1  0  0  0  0
  9  8  2  0  0  0  0
 10  9  1  0  0  0  0
 10 11  2  0  0  0  0
 11 12  1  0  0  0  0
 12 13  2  0  0  0  0
 12  1  1  0  0  0  0
 15  9  1  0  0  0  0
 16 10  1  0  0  0  0
 17 18  1  0  0  0  0
 18 19  2  0  0  0  0
 18 23  1  0  0  0  0
 19 24  1  0  0  0  0
 20 19  1  0  0  0  0
 21 20  2  0  0  0  0
 22 21  1  0  0  0  0
 22 17  2  0  0  0  0
 25 27  1  0  0  0  0
 25 21  1  0  0  0  0
 26 25  2  0  0  0  0
 27 31  1  0  0  0  0
 27 28  1  0  0  0  0
 29 30  1  0  0  0  0
 29 28  1  0  0  0  0
 30 31  1  0  0  0  0
 31 32  1  0  0  0  0
M  END
>  <minimizedAffinity>
-5.64122915

$$$$
