
 OpenBabel03212521093D

 17 18  0  0  0  0  0  0  0  0999 V2000
   39.6760   82.5450   61.2300 C   0  0  0  0  0  0  0  0  0  0  0  0
   41.0050   82.6390   60.8090 C   0  0  0  0  0  0  0  0  0  0  0  0
   41.9260   83.2740   61.6550 C   0  0  0  0  0  0  0  0  0  0  0  0
   41.4550   83.7590   62.8400 N   0  0  0  0  0  0  0  0  0  0  0  0
   40.1600   83.6470   63.2090 C   0  0  0  0  0  0  0  0  0  0  0  0
   39.2740   83.0400   62.4040 N   0  0  0  0  0  0  0  0  0  0  0  0
   38.9410   82.0690   60.6170 H   0  0  0  0  0  0  0  0  0  0  0  0
   41.2690   82.2170   59.8450 H   0  0  0  0  0  0  0  0  0  0  0  0
   40.0200   84.1060   64.1890 H   0  0  0  0  0  0  0  0  0  0  0  0
   43.2910   83.3860   61.2530 C   0  0  0  0  0  0  0  0  0  0  0  0
   43.6880   84.1000   60.2800 O   0  0  0  0  0  0  0  0  0  0  0  0
   44.4050   82.7400   61.8560 N   0  0  0  0  0  0  0  0  0  0  0  0
   45.5070   83.6860   62.0260 C   0  0  0  0  0  2  0  0  0  0  0  0
   46.6300   82.8600   62.6610 C   0  0  0  0  0  2  0  0  0  0  0  0
   45.7990   81.8750   63.4560 C   0  0  0  0  0  2  0  0  0  0  0  0
   44.8190   81.4300   62.3690 C   0  0  0  0  0  3  0  0  0  0  0  0
   43.9970   80.8760   62.8580 H   0  0  0  0  0  0  0  0  0  0  0  0
  1  6  1  0  0  0  0
  2  1  2  0  0  0  0
  2  3  1  0  0  0  0
  3  4  2  0  0  0  0
  4  5  1  0  0  0  0
  5  9  1  0  0  0  0
  6  5  2  0  0  0  0
  7  1  1  0  0  0  0
  8  2  1  0  0  0  0
 10  3  1  0  0  0  0
 10 12  1  0  0  0  0
 11 10  2  0  0  0  0
 12 13  1  0  0  0  0
 12 16  1  0  0  0  0
 13 14  1  0  0  0  0
 14 15  1  0  0  0  0
 16 17  1  0  0  0  0
 16 15  1  0  0  0  0
M  END
>  <minimizedAffinity>
-3.75277948

>  <minimizedRMSD>
5.18873644

$$$$
