
 OpenBabel03212521093D

 17 18  0  0  0  0  0  0  0  0999 V2000
   39.9640   81.7240   60.9580 C   0  0  0  0  0  0  0  0  0  0  0  0
   40.5590   82.5620   60.0110 C   0  0  0  0  0  0  0  0  0  0  0  0
   40.3470   83.9440   60.1220 C   0  0  0  0  0  0  0  0  0  0  0  0
   39.5690   84.3760   61.1560 N   0  0  0  0  0  0  0  0  0  0  0  0
   39.0120   83.5300   62.0500 C   0  0  0  0  0  0  0  0  0  0  0  0
   39.2110   82.2060   61.9490 N   0  0  0  0  0  0  0  0  0  0  0  0
   40.1000   80.6640   60.9100 H   0  0  0  0  0  0  0  0  0  0  0  0
   41.1600   82.1090   59.2300 H   0  0  0  0  0  0  0  0  0  0  0  0
   38.4360   84.1000   62.7810 H   0  0  0  0  0  0  0  0  0  0  0  0
   40.9410   84.8270   59.1710 C   0  0  0  0  0  0  0  0  0  0  0  0
   40.2820   85.4970   58.3170 O   0  0  0  0  0  0  0  0  0  0  0  0
   42.3290   85.1000   59.0240 N   0  0  0  0  0  0  0  0  0  0  0  0
   42.5270   86.4600   58.5260 C   0  0  0  0  0  2  0  0  0  0  0  0
   44.0460   86.6080   58.3980 C   0  0  0  0  0  2  0  0  0  0  0  0
   44.4830   85.7010   59.5290 C   0  0  0  0  0  2  0  0  0  0  0  0
   43.6390   84.4660   59.2060 C   0  0  0  0  0  3  0  0  0  0  0  0
   43.6760   83.7910   60.0800 H   0  0  0  0  0  0  0  0  0  0  0  0
  1  6  1  0  0  0  0
  2  3  1  0  0  0  0
  2  1  2  0  0  0  0
  3  4  2  0  0  0  0
  4  5  1  0  0  0  0
  5  9  1  0  0  0  0
  6  5  2  0  0  0  0
  7  1  1  0  0  0  0
  8  2  1  0  0  0  0
 10  3  1  0  0  0  0
 11 10  2  0  0  0  0
 12 10  1  0  0  0  0
 12 16  1  0  0  0  0
 13 12  1  0  0  0  0
 14 13  1  0  0  0  0
 14 15  1  0  0  0  0
 16 15  1  0  0  0  0
 16 17  1  0  0  0  0
M  END
>  <minimizedAffinity>
-3.89179778

>  <minimizedRMSD>
1.70842099

$$$$
