
 OpenBabel03212521093D

 17 18  0  0  0  0  0  0  0  0999 V2000
   40.0370   81.7110   61.0880 C   0  0  0  0  0  0  0  0  0  0  0  0
   40.8540   82.4800   60.2540 C   0  0  0  0  0  0  0  0  0  0  0  0
   40.8220   83.8740   60.3960 C   0  0  0  0  0  0  0  0  0  0  0  0
   39.9880   84.3870   61.3460 N   0  0  0  0  0  0  0  0  0  0  0  0
   39.2150   83.6070   62.1320 C   0  0  0  0  0  0  0  0  0  0  0  0
   39.2410   82.2710   62.0020 N   0  0  0  0  0  0  0  0  0  0  0  0
   40.0310   80.6450   61.0140 H   0  0  0  0  0  0  0  0  0  0  0  0
   41.4790   81.9650   59.5320 H   0  0  0  0  0  0  0  0  0  0  0  0
   38.6370   84.2350   62.8120 H   0  0  0  0  0  0  0  0  0  0  0  0
   41.6440   84.6870   59.5580 C   0  0  0  0  0  0  0  0  0  0  0  0
   41.4550   84.8400   58.3120 O   0  0  0  0  0  0  0  0  0  0  0  0
   42.7780   85.4420   59.9660 N   0  0  0  0  0  0  0  0  0  0  0  0
   43.4350   84.7940   61.1000 C   0  0  0  0  0  2  0  0  0  0  0  0
   44.6130   85.7120   61.4410 C   0  0  0  0  0  2  0  0  0  0  0  0
   44.9220   86.2470   60.0580 C   0  0  0  0  0  2  0  0  0  0  0  0
   43.5150   86.6630   59.6240 C   0  0  0  0  0  3  0  0  0  0  0  0
   43.5410   86.8640   58.5370 H   0  0  0  0  0  0  0  0  0  0  0  0
  1  6  1  0  0  0  0
  2  3  1  0  0  0  0
  2  1  2  0  0  0  0
  3  4  2  0  0  0  0
  4  5  1  0  0  0  0
  5  9  1  0  0  0  0
  6  5  2  0  0  0  0
  7  1  1  0  0  0  0
  8  2  1  0  0  0  0
 10 12  1  0  0  0  0
 10  3  1  0  0  0  0
 11 10  2  0  0  0  0
 12 13  1  0  0  0  0
 13 14  1  0  0  0  0
 15 14  1  0  0  0  0
 16 12  1  0  0  0  0
 16 15  1  0  0  0  0
 17 16  1  0  0  0  0
M  END
>  <minimizedAffinity>
-4.04396582

>  <minimizedRMSD>
2.8234272

$$$$
