
 OpenBabel03212520473D

 25 27  0  0  0  0  0  0  0  0999 V2000
   41.6120   83.9030   61.4190 C   0  0  0  0  0  0  0  0  0  0  0  0
   40.9660   84.3010   62.5590 C   0  0  0  0  0  0  0  0  0  0  0  0
   40.5030   83.4150   63.5270 C   0  0  0  0  0  0  0  0  0  0  0  0
   40.6990   82.0850   63.3370 N   0  0  0  0  0  0  0  0  0  0  0  0
   41.3290   81.6980   62.2230 C   0  0  0  0  0  0  0  0  0  0  0  0
   41.7750   82.5730   61.2860 N   0  0  0  0  0  0  0  0  0  0  0  0
   40.7970   85.3500   62.7380 H   0  0  0  0  0  0  0  0  0  0  0  0
   39.9910   83.7550   64.4270 H   0  0  0  0  0  0  0  0  0  0  0  0
   41.5310   80.3010   62.0290 N   0  0  0  0  0  0  0  0  0  0  0  0
   40.5220   79.2820   62.2480 C   0  0  0  0  0  2  0  0  0  0  0  0
   40.6050   78.5400   60.9210 C   0  0  0  0  0  2  0  0  0  0  0  0
   42.1080   78.5490   60.6540 C   0  0  0  0  0  2  0  0  0  0  0  0
   42.7080   79.5730   61.5930 C   0  0  0  0  0  3  0  0  0  0  0  0
   43.4330   80.1730   61.0350 H   0  0  0  0  0  0  0  0  0  0  0  0
   43.6400   86.4030   59.7040 C   0  0  0  0  0  0  0  0  0  0  0  0
   42.9280   86.5610   58.4930 C   0  0  0  0  0  0  0  0  0  0  0  0
   41.7680   85.8150   58.2750 C   0  0  0  0  0  0  0  0  0  0  0  0
   41.4080   84.9700   59.2810 N   0  0  0  0  0  0  0  0  0  0  0  0
   42.0900   84.8360   60.4140 C   0  0  0  0  0  0  0  0  0  0  0  0
   43.1970   85.5400   60.6340 N   0  0  0  0  0  0  0  0  0  0  0  0
   44.7850   87.2250   59.7700 N   0  0  0  0  0  0  0  0  0  0  0  0
   43.2060   87.2290   57.6860 H   0  0  0  0  0  0  0  0  0  0  0  0
   41.1960   85.9110   57.3550 H   0  0  0  0  0  0  0  0  0  0  0  0
   45.8190   86.9820   59.7020 H   0  0  0  0  0  0  0  0  0  0  0  0
   44.7700   88.2570   59.9060 H   0  0  0  0  0  0  0  0  0  0  0  0
  1  2  1  0  0  0  0
  2  7  1  0  0  0  0
  2  3  2  0  0  0  0
  3  8  1  0  0  0  0
  4  3  1  0  0  0  0
  5  4  2  0  0  0  0
  6  1  2  0  0  0  0
  6  5  1  0  0  0  0
  9  5  1  0  0  0  0
  9 10  1  0  0  0  0
 11 10  1  0  0  0  0
 12 11  1  0  0  0  0
 12 13  1  0  0  0  0
 13  9  1  0  0  0  0
 14 13  1  0  0  0  0
 15 21  1  0  0  0  0
 15 20  1  0  0  0  0
 16 15  2  0  0  0  0
 17 16  1  0  0  0  0
 17 18  2  0  0  0  0
 18 19  1  0  0  0  0
 19 20  2  0  0  0  0
 19  1  1  0  0  0  0
 21 25  1  0  0  0  0
 22 16  1  0  0  0  0
 23 17  1  0  0  0  0
 24 21  1  0  0  0  0
M  END
>  <minimizedAffinity>
-5.23606348

>  <minimizedRMSD>
0.326141208

$$$$
