
 OpenBabel03212520473D

 25 27  0  0  0  0  0  0  0  0999 V2000
   41.6810   83.9030   61.3830 C   0  0  0  0  0  0  0  0  0  0  0  0
   41.1330   84.2600   62.5860 C   0  0  0  0  0  0  0  0  0  0  0  0
   40.6670   83.3390   63.5190 C   0  0  0  0  0  0  0  0  0  0  0  0
   40.7570   82.0160   63.2270 N   0  0  0  0  0  0  0  0  0  0  0  0
   41.2910   81.6690   62.0520 C   0  0  0  0  0  0  0  0  0  0  0  0
   41.7430   82.5790   61.1500 N   0  0  0  0  0  0  0  0  0  0  0  0
   41.0490   85.3020   62.8460 H   0  0  0  0  0  0  0  0  0  0  0  0
   40.2340   83.6460   64.4710 H   0  0  0  0  0  0  0  0  0  0  0  0
   41.3830   80.2800   61.7500 N   0  0  0  0  0  0  0  0  0  0  0  0
   42.1970   79.7170   60.6890 C   0  0  0  0  0  2  0  0  0  0  0  0
   42.9520   78.6530   61.4740 C   0  0  0  0  0  2  0  0  0  0  0  0
   41.8650   78.1300   62.4110 C   0  0  0  0  0  2  0  0  0  0  0  0
   40.7380   79.1390   62.3710 C   0  0  0  0  0  3  0  0  0  0  0  0
   40.3910   79.3130   63.3930 H   0  0  0  0  0  0  0  0  0  0  0  0
   43.6690   86.5250   59.8060 C   0  0  0  0  0  0  0  0  0  0  0  0
   43.0150   86.6630   58.5620 C   0  0  0  0  0  0  0  0  0  0  0  0
   41.9070   85.8640   58.2730 C   0  0  0  0  0  0  0  0  0  0  0  0
   41.5360   84.9890   59.2490 N   0  0  0  0  0  0  0  0  0  0  0  0
   42.1650   84.8730   60.4150 C   0  0  0  0  0  0  0  0  0  0  0  0
   43.2210   85.6280   60.7010 N   0  0  0  0  0  0  0  0  0  0  0  0
   44.7660   87.4010   59.9430 N   0  0  0  0  0  0  0  0  0  0  0  0
   43.3010   87.3560   57.7770 H   0  0  0  0  0  0  0  0  0  0  0  0
   41.3790   85.9440   57.3260 H   0  0  0  0  0  0  0  0  0  0  0  0
   45.8130   87.2110   59.9260 H   0  0  0  0  0  0  0  0  0  0  0  0
   44.6930   88.4290   60.0890 H   0  0  0  0  0  0  0  0  0  0  0  0
  1  2  1  0  0  0  0
  2  7  1  0  0  0  0
  2  3  2  0  0  0  0
  3  8  1  0  0  0  0
  4  3  1  0  0  0  0
  5  4  2  0  0  0  0
  6  1  2  0  0  0  0
  6  5  1  0  0  0  0
  9  5  1  0  0  0  0
  9 13  1  0  0  0  0
 10 11  1  0  0  0  0
 10  9  1  0  0  0  0
 11 12  1  0  0  0  0
 13 12  1  0  0  0  0
 13 14  1  0  0  0  0
 15 21  1  0  0  0  0
 15 20  1  0  0  0  0
 16 15  2  0  0  0  0
 17 16  1  0  0  0  0
 17 18  2  0  0  0  0
 18 19  1  0  0  0  0
 19 20  2  0  0  0  0
 19  1  1  0  0  0  0
 21 25  1  0  0  0  0
 22 16  1  0  0  0  0
 23 17  1  0  0  0  0
 24 21  1  0  0  0  0
M  END
>  <minimizedAffinity>
-5.23603821

>  <minimizedRMSD>
0.310883164

$$$$
