
 OpenBabel03212520503D

 25 27  0  0  0  0  0  0  0  0999 V2000
   42.4100   73.3940   59.9400 C   0  0  0  0  0  0  0  0  0  0  0  0
   43.3940   73.3040   58.9920 C   0  0  0  0  0  0  0  0  0  0  0  0
   44.2680   72.2270   58.8930 C   0  0  0  0  0  0  0  0  0  0  0  0
   44.1450   71.2070   59.7810 N   0  0  0  0  0  0  0  0  0  0  0  0
   43.1850   71.2960   60.7070 C   0  0  0  0  0  0  0  0  0  0  0  0
   42.3380   72.3540   60.7920 N   0  0  0  0  0  0  0  0  0  0  0  0
   43.5150   74.0980   58.2720 H   0  0  0  0  0  0  0  0  0  0  0  0
   45.0440   72.1770   58.1290 H   0  0  0  0  0  0  0  0  0  0  0  0
   43.0610   70.2240   61.6360 N   0  0  0  0  0  0  0  0  0  0  0  0
   42.5790   70.3630   62.9980 C   0  0  0  0  0  2  0  0  0  0  0  0
   41.5140   69.2750   63.0130 C   0  0  0  0  0  2  0  0  0  0  0  0
   42.1850   68.1720   62.1990 C   0  0  0  0  0  2  0  0  0  0  0  0
   43.3590   68.8120   61.4880 C   0  0  0  0  0  3  0  0  0  0  0  0
   43.3760   68.4560   60.4550 H   0  0  0  0  0  0  0  0  0  0  0  0
   39.5770   75.4880   60.8850 C   0  0  0  0  0  0  0  0  0  0  0  0
   39.8510   76.6740   60.1670 C   0  0  0  0  0  0  0  0  0  0  0  0
   40.9960   76.7460   59.3700 C   0  0  0  0  0  0  0  0  0  0  0  0
   41.7780   75.6310   59.3520 N   0  0  0  0  0  0  0  0  0  0  0  0
   41.5030   74.5240   60.0350 C   0  0  0  0  0  0  0  0  0  0  0  0
   40.4170   74.4430   60.7970 N   0  0  0  0  0  0  0  0  0  0  0  0
   38.3880   75.5740   61.6400 N   0  0  0  0  0  0  0  0  0  0  0  0
   39.2370   77.5670   60.1750 H   0  0  0  0  0  0  0  0  0  0  0  0
   41.2380   77.6430   58.8040 H   0  0  0  0  0  0  0  0  0  0  0  0
   38.2360   75.6630   62.6890 H   0  0  0  0  0  0  0  0  0  0  0  0
   37.4270   75.5620   61.2400 H   0  0  0  0  0  0  0  0  0  0  0  0
  1 19  1  0  0  0  0
  1  6  1  0  0  0  0
  2  1  2  0  0  0  0
  3  2  1  0  0  0  0
  3  4  2  0  0  0  0
  4  5  1  0  0  0  0
  5  6  2  0  0  0  0
  5  9  1  0  0  0  0
  7  2  1  0  0  0  0
  8  3  1  0  0  0  0
  9 10  1  0  0  0  0
 10 11  1  0  0  0  0
 12 11  1  0  0  0  0
 13  9  1  0  0  0  0
 13 12  1  0  0  0  0
 14 13  1  0  0  0  0
 15 21  1  0  0  0  0
 16 22  1  0  0  0  0
 16 15  2  0  0  0  0
 17 16  1  0  0  0  0
 18 17  2  0  0  0  0
 18 19  1  0  0  0  0
 19 20  2  0  0  0  0
 20 15  1  0  0  0  0
 21 24  1  0  0  0  0
 23 17  1  0  0  0  0
 25 21  1  0  0  0  0
M  END
>  <minimizedAffinity>
-5.36071157

$$$$

 OpenBabel03212520503D

 25 27  0  0  0  0  0  0  0  0999 V2000
   41.5330   71.8200   61.4170 C   0  0  0  0  0  0  0  0  0  0  0  0
   41.7420   71.5210   62.7360 C   0  0  0  0  0  0  0  0  0  0  0  0
   42.1340   70.2640   63.1850 C   0  0  0  0  0  0  0  0  0  0  0  0
   42.3210   69.2770   62.2700 N   0  0  0  0  0  0  0  0  0  0  0  0
   42.1170   69.5700   60.9820 C   0  0  0  0  0  0  0  0  0  0  0  0
   41.7330   70.8020   60.5580 N   0  0  0  0  0  0  0  0  0  0  0  0
   41.6020   72.2840   63.4850 H   0  0  0  0  0  0  0  0  0  0  0  0
   42.2950   70.0480   64.2410 H   0  0  0  0  0  0  0  0  0  0  0  0
   42.3140   68.5320   60.0280 N   0  0  0  0  0  0  0  0  0  0  0  0
   41.6020   68.4220   58.7680 C   0  0  0  0  0  2  0  0  0  0  0  0
   42.7780   68.2590   57.8140 C   0  0  0  0  0  2  0  0  0  0  0  0
   43.7120   67.3620   58.6240 C   0  0  0  0  0  2  0  0  0  0  0  0
   43.2090   67.3910   60.0520 C   0  0  0  0  0  3  0  0  0  0  0  0
   44.0670   67.5000   60.7200 H   0  0  0  0  0  0  0  0  0  0  0  0
   39.6800   74.9440   61.0750 C   0  0  0  0  0  0  0  0  0  0  0  0
   40.4120   75.5950   60.0570 C   0  0  0  0  0  0  0  0  0  0  0  0
   41.5260   74.9650   59.5000 C   0  0  0  0  0  0  0  0  0  0  0  0
   41.8240   73.7330   60.0010 N   0  0  0  0  0  0  0  0  0  0  0  0
   41.1220   73.1360   60.9590 C   0  0  0  0  0  0  0  0  0  0  0  0
   40.0600   73.7260   61.4980 N   0  0  0  0  0  0  0  0  0  0  0  0
   38.5870   75.7100   61.5320 N   0  0  0  0  0  0  0  0  0  0  0  0
   40.1850   76.5750   59.6520 H   0  0  0  0  0  0  0  0  0  0  0  0
   42.1130   75.4370   58.7150 H   0  0  0  0  0  0  0  0  0  0  0  0
   38.4420   76.2380   62.4440 H   0  0  0  0  0  0  0  0  0  0  0  0
   37.7090   75.8730   60.9970 H   0  0  0  0  0  0  0  0  0  0  0  0
  1  2  1  0  0  0  0
  2  3  2  0  0  0  0
  2  7  1  0  0  0  0
  3  8  1  0  0  0  0
  4  3  1  0  0  0  0
  5  4  2  0  0  0  0
  6  5  1  0  0  0  0
  6  1  2  0  0  0  0
  9 13  1  0  0  0  0
  9  5  1  0  0  0  0
 10  9  1  0  0  0  0
 11 12  1  0  0  0  0
 11 10  1  0  0  0  0
 12 13  1  0  0  0  0
 13 14  1  0  0  0  0
 15 20  1  0  0  0  0
 15 21  1  0  0  0  0
 16 15  2  0  0  0  0
 17 18  2  0  0  0  0
 17 16  1  0  0  0  0
 18 19  1  0  0  0  0
 19  1  1  0  0  0  0
 19 20  2  0  0  0  0
 21 24  1  0  0  0  0
 22 16  1  0  0  0  0
 23 17  1  0  0  0  0
 25 21  1  0  0  0  0
M  END
>  <minimizedAffinity>
-5.22496653

$$$$

 OpenBabel03212520503D

 25 27  0  0  0  0  0  0  0  0999 V2000
   42.5170   70.3680   60.5940 C   0  0  0  0  0  0  0  0  0  0  0  0
   43.7960   70.0160   60.2560 C   0  0  0  0  0  0  0  0  0  0  0  0
   44.3920   68.8220   60.6500 C   0  0  0  0  0  0  0  0  0  0  0  0
   43.6730   67.9570   61.4110 N   0  0  0  0  0  0  0  0  0  0  0  0
   42.4240   68.3030   61.7410 C   0  0  0  0  0  0  0  0  0  0  0  0
   41.8550   69.4710   61.3490 N   0  0  0  0  0  0  0  0  0  0  0  0
   44.3910   70.6820   59.6520 H   0  0  0  0  0  0  0  0  0  0  0  0
   45.4120   68.5620   60.3690 H   0  0  0  0  0  0  0  0  0  0  0  0
   41.6740   67.3920   62.5390 N   0  0  0  0  0  0  0  0  0  0  0  0
   40.6390   67.7780   63.4790 C   0  0  0  0  0  2  0  0  0  0  0  0
   39.5120   66.8630   63.0210 C   0  0  0  0  0  2  0  0  0  0  0  0
   40.2690   65.5770   62.6950 C   0  0  0  0  0  2  0  0  0  0  0  0
   41.7360   65.9450   62.6230 C   0  0  0  0  0  3  0  0  0  0  0  0
   42.1740   65.4570   61.7490 H   0  0  0  0  0  0  0  0  0  0  0  0
   40.6630   73.5090   60.6710 C   0  0  0  0  0  0  0  0  0  0  0  0
   40.7860   73.9410   59.3310 C   0  0  0  0  0  0  0  0  0  0  0  0
   41.4980   73.1600   58.4180 C   0  0  0  0  0  0  0  0  0  0  0  0
   42.0320   72.0080   58.9130 N   0  0  0  0  0  0  0  0  0  0  0  0
   41.9040   71.6180   60.1770 C   0  0  0  0  0  0  0  0  0  0  0  0
   41.2290   72.3530   61.0560 N   0  0  0  0  0  0  0  0  0  0  0  0
   39.9170   74.4060   61.4640 N   0  0  0  0  0  0  0  0  0  0  0  0
   40.3670   74.8560   58.9270 H   0  0  0  0  0  0  0  0  0  0  0  0
   41.6130   73.4620   57.3800 H   0  0  0  0  0  0  0  0  0  0  0  0
   40.2260   75.0820   62.2250 H   0  0  0  0  0  0  0  0  0  0  0  0
   38.8860   74.5370   61.4050 H   0  0  0  0  0  0  0  0  0  0  0  0
  1  6  1  0  0  0  0
  2  1  2  0  0  0  0
  2  3  1  0  0  0  0
  3  4  2  0  0  0  0
  4  5  1  0  0  0  0
  5  9  1  0  0  0  0
  6  5  2  0  0  0  0
  7  2  1  0  0  0  0
  8  3  1  0  0  0  0
  9 13  1  0  0  0  0
  9 10  1  0  0  0  0
 11 10  1  0  0  0  0
 12 11  1  0  0  0  0
 13 12  1  0  0  0  0
 14 13  1  0  0  0  0
 15 20  1  0  0  0  0
 15 21  1  0  0  0  0
 16 15  2  0  0  0  0
 17 18  2  0  0  0  0
 17 16  1  0  0  0  0
 18 19  1  0  0  0  0
 19  1  1  0  0  0  0
 19 20  2  0  0  0  0
 21 24  1  0  0  0  0
 22 16  1  0  0  0  0
 23 17  1  0  0  0  0
 25 21  1  0  0  0  0
M  END
>  <minimizedAffinity>
-5.20984316

$$$$

 OpenBabel03212520503D

 25 27  0  0  0  0  0  0  0  0999 V2000
   41.0480   72.6910   59.4680 C   0  0  0  0  0  0  0  0  0  0  0  0
   40.9920   72.1610   58.2060 C   0  0  0  0  0  0  0  0  0  0  0  0
   41.3050   70.8380   57.9160 C   0  0  0  0  0  0  0  0  0  0  0  0
   41.6900   70.0230   58.9320 N   0  0  0  0  0  0  0  0  0  0  0  0
   41.7450   70.5410   60.1630 C   0  0  0  0  0  0  0  0  0  0  0  0
   41.4360   71.8350   60.4330 N   0  0  0  0  0  0  0  0  0  0  0  0
   40.6890   72.7840   57.3800 H   0  0  0  0  0  0  0  0  0  0  0  0
   41.2530   70.4370   56.9040 H   0  0  0  0  0  0  0  0  0  0  0  0
   42.1490   69.6820   61.2250 N   0  0  0  0  0  0  0  0  0  0  0  0
   42.8460   70.1190   62.4200 C   0  0  0  0  0  2  0  0  0  0  0  0
   41.9590   69.4930   63.4870 C   0  0  0  0  0  2  0  0  0  0  0  0
   41.6130   68.1480   62.8530 C   0  0  0  0  0  2  0  0  0  0  0  0
   41.9860   68.2500   61.3890 C   0  0  0  0  0  3  0  0  0  0  0  0
   41.1800   67.8130   60.7940 H   0  0  0  0  0  0  0  0  0  0  0  0
   39.5460   75.6430   60.9960 C   0  0  0  0  0  0  0  0  0  0  0  0
   40.1510   76.6820   60.2550 C   0  0  0  0  0  0  0  0  0  0  0  0
   41.0620   76.3670   59.2440 C   0  0  0  0  0  0  0  0  0  0  0  0
   41.2990   75.0390   59.0520 N   0  0  0  0  0  0  0  0  0  0  0  0
   40.7190   74.0750   59.7610 C   0  0  0  0  0  0  0  0  0  0  0  0
   39.8510   74.3630   60.7250 N   0  0  0  0  0  0  0  0  0  0  0  0
   38.6540   76.1250   61.9770 N   0  0  0  0  0  0  0  0  0  0  0  0
   39.9710   77.7420   60.3990 H   0  0  0  0  0  0  0  0  0  0  0  0
   41.5460   77.1410   58.6540 H   0  0  0  0  0  0  0  0  0  0  0  0
   38.7420   76.1660   63.0360 H   0  0  0  0  0  0  0  0  0  0  0  0
   37.7180   76.5360   61.7790 H   0  0  0  0  0  0  0  0  0  0  0  0
  1 19  1  0  0  0  0
  1  6  1  0  0  0  0
  2  1  2  0  0  0  0
  3  2  1  0  0  0  0
  3  4  2  0  0  0  0
  4  5  1  0  0  0  0
  5  6  2  0  0  0  0
  5  9  1  0  0  0  0
  7  2  1  0  0  0  0
  8  3  1  0  0  0  0
  9 13  1  0  0  0  0
  9 10  1  0  0  0  0
 10 11  1  0  0  0  0
 12 11  1  0  0  0  0
 13 12  1  0  0  0  0
 14 13  1  0  0  0  0
 15 21  1  0  0  0  0
 16 22  1  0  0  0  0
 16 15  2  0  0  0  0
 17 16  1  0  0  0  0
 18 17  2  0  0  0  0
 18 19  1  0  0  0  0
 19 20  2  0  0  0  0
 20 15  1  0  0  0  0
 21 24  1  0  0  0  0
 23 17  1  0  0  0  0
 25 21  1  0  0  0  0
M  END
>  <minimizedAffinity>
-5.20935202

$$$$

 OpenBabel03212520503D

 25 27  0  0  0  0  0  0  0  0999 V2000
   39.0570   75.7080   57.9140 C   0  0  0  0  0  0  0  0  0  0  0  0
   39.0570   76.7370   58.8170 C   0  0  0  0  0  0  0  0  0  0  0  0
   39.7430   76.6950   60.0270 C   0  0  0  0  0  0  0  0  0  0  0  0
   40.4510   75.5780   60.3340 N   0  0  0  0  0  0  0  0  0  0  0  0
   40.4500   74.5740   59.4510 C   0  0  0  0  0  0  0  0  0  0  0  0
   39.7750   74.6270   58.2740 N   0  0  0  0  0  0  0  0  0  0  0  0
   38.5050   77.6370   58.6010 H   0  0  0  0  0  0  0  0  0  0  0  0
   39.7300   77.5270   60.7310 H   0  0  0  0  0  0  0  0  0  0  0  0
   41.1940   73.4040   59.7780 N   0  0  0  0  0  0  0  0  0  0  0  0
   40.8590   72.0630   59.3380 C   0  0  0  0  0  2  0  0  0  0  0  0
   42.2000   71.6320   58.7610 C   0  0  0  0  0  2  0  0  0  0  0  0
   43.1790   72.2420   59.7610 C   0  0  0  0  0  2  0  0  0  0  0  0
   42.3940   73.2460   60.5780 C   0  0  0  0  0  3  0  0  0  0  0  0
   42.9940   74.1540   60.6820 H   0  0  0  0  0  0  0  0  0  0  0  0
   38.0300   75.0200   54.4820 C   0  0  0  0  0  0  0  0  0  0  0  0
   36.9450   75.9120   54.3280 C   0  0  0  0  0  0  0  0  0  0  0  0
   36.5760   76.7360   55.3930 C   0  0  0  0  0  0  0  0  0  0  0  0
   37.3180   76.6070   56.5290 N   0  0  0  0  0  0  0  0  0  0  0  0
   38.3360   75.7610   56.6540 C   0  0  0  0  0  0  0  0  0  0  0  0
   38.6970   74.9710   55.6470 N   0  0  0  0  0  0  0  0  0  0  0  0
   38.2750   74.2600   53.3190 N   0  0  0  0  0  0  0  0  0  0  0  0
   36.3480   76.0240   53.4300 H   0  0  0  0  0  0  0  0  0  0  0  0
   35.7460   77.4350   55.3100 H   0  0  0  0  0  0  0  0  0  0  0  0
   38.0960   73.2320   53.1100 H   0  0  0  0  0  0  0  0  0  0  0  0
   38.6970   74.6320   52.4430 H   0  0  0  0  0  0  0  0  0  0  0  0
  1  6  2  0  0  0  0
  1  2  1  0  0  0  0
  2  3  2  0  0  0  0
  3  4  1  0  0  0  0
  3  8  1  0  0  0  0
  5  9  1  0  0  0  0
  5  4  2  0  0  0  0
  6  5  1  0  0  0  0
  7  2  1  0  0  0  0
  9 13  1  0  0  0  0
 10  9  1  0  0  0  0
 11 10  1  0  0  0  0
 11 12  1  0  0  0  0
 12 13  1  0  0  0  0
 13 14  1  0  0  0  0
 15 20  1  0  0  0  0
 16 15  2  0  0  0  0
 16 17  1  0  0  0  0
 17 18  2  0  0  0  0
 18 19  1  0  0  0  0
 19  1  1  0  0  0  0
 20 19  2  0  0  0  0
 21 15  1  0  0  0  0
 22 16  1  0  0  0  0
 23 17  1  0  0  0  0
 24 21  1  0  0  0  0
 25 21  1  0  0  0  0
M  END
>  <minimizedAffinity>
-5.20654488

$$$$

 OpenBabel03212520503D

 25 27  0  0  0  0  0  0  0  0999 V2000
   41.1050   72.8460   59.4920 C   0  0  0  0  0  0  0  0  0  0  0  0
   41.0230   72.3270   58.2280 C   0  0  0  0  0  0  0  0  0  0  0  0
   41.2880   70.9950   57.9270 C   0  0  0  0  0  0  0  0  0  0  0  0
   41.6490   70.1610   58.9370 N   0  0  0  0  0  0  0  0  0  0  0  0
   41.7290   70.6690   60.1700 C   0  0  0  0  0  0  0  0  0  0  0  0
   41.4670   71.9720   60.4500 N   0  0  0  0  0  0  0  0  0  0  0  0
   40.7390   72.9650   57.4060 H   0  0  0  0  0  0  0  0  0  0  0  0
   41.2170   70.6030   56.9130 H   0  0  0  0  0  0  0  0  0  0  0  0
   42.1070   69.7900   61.2250 N   0  0  0  0  0  0  0  0  0  0  0  0
   42.8260   70.1940   62.4190 C   0  0  0  0  0  2  0  0  0  0  0  0
   41.9220   69.5940   63.4870 C   0  0  0  0  0  2  0  0  0  0  0  0
   41.5250   68.2650   62.8470 C   0  0  0  0  0  2  0  0  0  0  0  0
   41.8940   68.3640   61.3820 C   0  0  0  0  0  3  0  0  0  0  0  0
   41.0710   67.9580   60.7880 H   0  0  0  0  0  0  0  0  0  0  0  0
   41.3510   76.4850   59.5820 C   0  0  0  0  0  0  0  0  0  0  0  0
   40.2480   76.8210   60.3990 C   0  0  0  0  0  0  0  0  0  0  0  0
   39.4350   75.8070   60.9090 C   0  0  0  0  0  0  0  0  0  0  0  0
   39.7840   74.5360   60.5650 N   0  0  0  0  0  0  0  0  0  0  0  0
   40.8270   74.2400   59.7950 C   0  0  0  0  0  0  0  0  0  0  0  0
   41.6080   75.1960   59.3030 N   0  0  0  0  0  0  0  0  0  0  0  0
   42.0700   77.6190   59.1480 N   0  0  0  0  0  0  0  0  0  0  0  0
   39.9600   77.8280   60.6790 H   0  0  0  0  0  0  0  0  0  0  0  0
   38.5780   76.0300   61.5410 H   0  0  0  0  0  0  0  0  0  0  0  0
   42.1280   78.0800   58.1920 H   0  0  0  0  0  0  0  0  0  0  0  0
   42.6870   78.1990   59.7530 H   0  0  0  0  0  0  0  0  0  0  0  0
  1 19  1  0  0  0  0
  1  6  1  0  0  0  0
  2  1  2  0  0  0  0
  3  2  1  0  0  0  0
  3  4  2  0  0  0  0
  4  5  1  0  0  0  0
  5  6  2  0  0  0  0
  5  9  1  0  0  0  0
  7  2  1  0  0  0  0
  8  3  1  0  0  0  0
  9 13  1  0  0  0  0
  9 10  1  0  0  0  0
 10 11  1  0  0  0  0
 12 11  1  0  0  0  0
 13 12  1  0  0  0  0
 14 13  1  0  0  0  0
 15 16  1  0  0  0  0
 16 22  1  0  0  0  0
 16 17  2  0  0  0  0
 17 23  1  0  0  0  0
 18 17  1  0  0  0  0
 19 18  2  0  0  0  0
 20 15  2  0  0  0  0
 20 19  1  0  0  0  0
 21 15  1  0  0  0  0
 21 25  1  0  0  0  0
 24 21  1  0  0  0  0
M  END
>  <minimizedAffinity>
-5.13533163

$$$$

 OpenBabel03212520503D

 25 27  0  0  0  0  0  0  0  0999 V2000
   41.5010   72.6280   59.5070 C   0  0  0  0  0  0  0  0  0  0  0  0
   42.6570   72.7280   58.7800 C   0  0  0  0  0  0  0  0  0  0  0  0
   43.8280   72.0500   59.1030 C   0  0  0  0  0  0  0  0  0  0  0  0
   43.8310   71.2450   60.1970 N   0  0  0  0  0  0  0  0  0  0  0  0
   42.7020   71.1480   60.9070 C   0  0  0  0  0  0  0  0  0  0  0  0
   41.5660   71.8160   60.5800 N   0  0  0  0  0  0  0  0  0  0  0  0
   42.6840   73.3590   57.9060 H   0  0  0  0  0  0  0  0  0  0  0  0
   44.7360   72.1450   58.5100 H   0  0  0  0  0  0  0  0  0  0  0  0
   42.7110   70.3030   62.0530 N   0  0  0  0  0  0  0  0  0  0  0  0
   41.9000   70.5100   63.2380 C   0  0  0  0  0  2  0  0  0  0  0  0
   41.2690   69.1310   63.3710 C   0  0  0  0  0  2  0  0  0  0  0  0
   42.4330   68.2200   62.9880 C   0  0  0  0  0  2  0  0  0  0  0  0
   43.4730   69.0990   62.3270 C   0  0  0  0  0  3  0  0  0  0  0  0
   43.8470   68.5860   61.4380 H   0  0  0  0  0  0  0  0  0  0  0  0
   38.3030   73.4740   57.9700 C   0  0  0  0  0  0  0  0  0  0  0  0
   38.0290   74.7280   58.5610 C   0  0  0  0  0  0  0  0  0  0  0  0
   38.9350   75.2700   59.4750 C   0  0  0  0  0  0  0  0  0  0  0  0
   40.0440   74.5200   59.7280 N   0  0  0  0  0  0  0  0  0  0  0  0
   40.2840   73.3420   59.1610 C   0  0  0  0  0  0  0  0  0  0  0  0
   39.4290   72.8150   58.2900 N   0  0  0  0  0  0  0  0  0  0  0  0
   37.2940   73.0660   57.0720 N   0  0  0  0  0  0  0  0  0  0  0  0
   37.1510   75.3330   58.3670 H   0  0  0  0  0  0  0  0  0  0  0  0
   38.7570   76.2330   59.9480 H   0  0  0  0  0  0  0  0  0  0  0  0
   36.5490   72.3110   57.1600 H   0  0  0  0  0  0  0  0  0  0  0  0
   37.1310   73.4810   56.1310 H   0  0  0  0  0  0  0  0  0  0  0  0
  1  6  1  0  0  0  0
  2  3  1  0  0  0  0
  2  1  2  0  0  0  0
  3  4  2  0  0  0  0
  4  5  1  0  0  0  0
  5  9  1  0  0  0  0
  6  5  2  0  0  0  0
  7  2  1  0  0  0  0
  8  3  1  0  0  0  0
  9 13  1  0  0  0  0
  9 10  1  0  0  0  0
 10 11  1  0  0  0  0
 12 11  1  0  0  0  0
 13 12  1  0  0  0  0
 14 13  1  0  0  0  0
 15 20  2  0  0  0  0
 15 16  1  0  0  0  0
 16 17  2  0  0  0  0
 17 18  1  0  0  0  0
 17 23  1  0  0  0  0
 19  1  1  0  0  0  0
 19 18  2  0  0  0  0
 20 19  1  0  0  0  0
 21 24  1  0  0  0  0
 21 15  1  0  0  0  0
 22 16  1  0  0  0  0
 25 21  1  0  0  0  0
M  END
>  <minimizedAffinity>
-5.03933144

$$$$

 OpenBabel03212520503D

 25 27  0  0  0  0  0  0  0  0999 V2000
   41.6070   71.2300   60.0730 C   0  0  0  0  0  0  0  0  0  0  0  0
   41.7940   70.8960   58.7580 C   0  0  0  0  0  0  0  0  0  0  0  0
   41.2640   71.6250   57.6990 C   0  0  0  0  0  0  0  0  0  0  0  0
   40.5200   72.7270   57.9760 N   0  0  0  0  0  0  0  0  0  0  0  0
   40.3380   73.0520   59.2600 C   0  0  0  0  0  0  0  0  0  0  0  0
   40.8620   72.3310   60.2850 N   0  0  0  0  0  0  0  0  0  0  0  0
   42.3800   70.0270   58.5070 H   0  0  0  0  0  0  0  0  0  0  0  0
   41.4260   71.3400   56.6590 H   0  0  0  0  0  0  0  0  0  0  0  0
   39.5580   74.2090   59.5460 N   0  0  0  0  0  0  0  0  0  0  0  0
   38.7510   74.3860   60.7380 C   0  0  0  0  0  2  0  0  0  0  0  0
   39.2540   75.7480   61.1970 C   0  0  0  0  0  2  0  0  0  0  0  0
   39.4170   76.4820   59.8680 C   0  0  0  0  0  2  0  0  0  0  0  0
   39.3700   75.4280   58.7820 C   0  0  0  0  0  3  0  0  0  0  0  0
   40.1620   75.6390   58.0590 H   0  0  0  0  0  0  0  0  0  0  0  0
   43.6910   68.9130   61.9690 C   0  0  0  0  0  0  0  0  0  0  0  0
   43.1600   69.0570   63.2700 C   0  0  0  0  0  0  0  0  0  0  0  0
   42.1000   69.9400   63.4870 C   0  0  0  0  0  0  0  0  0  0  0  0
   41.6520   70.6110   62.3890 N   0  0  0  0  0  0  0  0  0  0  0  0
   42.1650   70.4610   61.1720 C   0  0  0  0  0  0  0  0  0  0  0  0
   43.1740   69.6240   60.9530 N   0  0  0  0  0  0  0  0  0  0  0  0
   44.7540   67.9870   61.9170 N   0  0  0  0  0  0  0  0  0  0  0  0
   43.5080   68.5300   64.1510 H   0  0  0  0  0  0  0  0  0  0  0  0
   41.6660   70.0760   64.4750 H   0  0  0  0  0  0  0  0  0  0  0  0
   45.8000   68.1360   61.7980 H   0  0  0  0  0  0  0  0  0  0  0  0
   44.6470   66.9540   61.9950 H   0  0  0  0  0  0  0  0  0  0  0  0
  1  6  1  0  0  0  0
  1 19  1  0  0  0  0
  2  1  2  0  0  0  0
  3  4  2  0  0  0  0
  3  2  1  0  0  0  0
  4  5  1  0  0  0  0
  5  9  1  0  0  0  0
  5  6  2  0  0  0  0
  7  2  1  0  0  0  0
  8  3  1  0  0  0  0
  9 10  1  0  0  0  0
 10 11  1  0  0  0  0
 12 11  1  0  0  0  0
 13  9  1  0  0  0  0
 13 12  1  0  0  0  0
 14 13  1  0  0  0  0
 15 16  1  0  0  0  0
 16 17  2  0  0  0  0
 16 22  1  0  0  0  0
 17 23  1  0  0  0  0
 18 17  1  0  0  0  0
 19 18  2  0  0  0  0
 20 19  1  0  0  0  0
 20 15  2  0  0  0  0
 21 15  1  0  0  0  0
 21 25  1  0  0  0  0
 24 21  1  0  0  0  0
M  END
>  <minimizedAffinity>
-5.03838968

$$$$

 OpenBabel03212520503D

 25 27  0  0  0  0  0  0  0  0999 V2000
   42.5160   71.5840   61.3030 C   0  0  0  0  0  0  0  0  0  0  0  0
   42.1950   71.6570   62.6320 C   0  0  0  0  0  0  0  0  0  0  0  0
   41.7680   70.5640   63.3790 C   0  0  0  0  0  0  0  0  0  0  0  0
   41.6610   69.3580   62.7640 N   0  0  0  0  0  0  0  0  0  0  0  0
   41.9750   69.2880   61.4660 C   0  0  0  0  0  0  0  0  0  0  0  0
   42.3900   70.3630   60.7480 N   0  0  0  0  0  0  0  0  0  0  0  0
   42.2710   72.6010   63.1470 H   0  0  0  0  0  0  0  0  0  0  0  0
   41.5180   70.6460   64.4370 H   0  0  0  0  0  0  0  0  0  0  0  0
   41.8610   68.0210   60.8260 N   0  0  0  0  0  0  0  0  0  0  0  0
   41.5450   67.8310   59.4220 C   0  0  0  0  0  2  0  0  0  0  0  0
   42.6780   66.8950   59.0220 C   0  0  0  0  0  2  0  0  0  0  0  0
   42.7850   65.9950   60.2500 C   0  0  0  0  0  2  0  0  0  0  0  0
   42.0160   66.6810   61.3590 C   0  0  0  0  0  3  0  0  0  0  0  0
   42.6050   66.6220   62.2780 H   0  0  0  0  0  0  0  0  0  0  0  0
   44.6300   73.8650   59.3970 C   0  0  0  0  0  0  0  0  0  0  0  0
   43.7220   74.9040   59.0940 C   0  0  0  0  0  0  0  0  0  0  0  0
   42.4020   74.8160   59.5410 C   0  0  0  0  0  0  0  0  0  0  0  0
   42.0910   73.6990   60.2560 N   0  0  0  0  0  0  0  0  0  0  0  0
   42.9600   72.7320   60.5310 C   0  0  0  0  0  0  0  0  0  0  0  0
   44.2190   72.8030   60.1110 N   0  0  0  0  0  0  0  0  0  0  0  0
   45.9190   74.1030   58.8750 N   0  0  0  0  0  0  0  0  0  0  0  0
   43.9580   75.7970   58.5260 H   0  0  0  0  0  0  0  0  0  0  0  0
   41.6770   75.5970   59.3270 H   0  0  0  0  0  0  0  0  0  0  0  0
   46.4340   73.6510   58.0610 H   0  0  0  0  0  0  0  0  0  0  0  0
   46.5910   74.8060   59.2460 H   0  0  0  0  0  0  0  0  0  0  0  0
  1  2  1  0  0  0  0
  2  7  1  0  0  0  0
  2  3  2  0  0  0  0
  3  8  1  0  0  0  0
  4  3  1  0  0  0  0
  5  4  2  0  0  0  0
  6  1  2  0  0  0  0
  6  5  1  0  0  0  0
  9 13  1  0  0  0  0
  9  5  1  0  0  0  0
 10  9  1  0  0  0  0
 11 10  1  0  0  0  0
 11 12  1  0  0  0  0
 12 13  1  0  0  0  0
 13 14  1  0  0  0  0
 15 20  1  0  0  0  0
 16 15  2  0  0  0  0
 16 17  1  0  0  0  0
 17 18  2  0  0  0  0
 18 19  1  0  0  0  0
 19  1  1  0  0  0  0
 20 19  2  0  0  0  0
 21 25  1  0  0  0  0
 21 15  1  0  0  0  0
 22 16  1  0  0  0  0
 23 17  1  0  0  0  0
 24 21  1  0  0  0  0
M  END
>  <minimizedAffinity>
-5.0150485

$$$$
