
 OpenBabel03212520473D

 25 27  0  0  0  0  0  0  0  0999 V2000
   41.6420   83.9060   61.4280 C   0  0  0  0  0  0  0  0  0  0  0  0
   41.0510   84.3040   62.5980 C   0  0  0  0  0  0  0  0  0  0  0  0
   40.6000   83.4160   63.5690 C   0  0  0  0  0  0  0  0  0  0  0  0
   40.7500   82.0840   63.3510 N   0  0  0  0  0  0  0  0  0  0  0  0
   41.3260   81.6970   62.2090 C   0  0  0  0  0  0  0  0  0  0  0  0
   41.7620   82.5750   61.2690 N   0  0  0  0  0  0  0  0  0  0  0  0
   40.9190   85.3550   62.7980 H   0  0  0  0  0  0  0  0  0  0  0  0
   40.1330   83.7550   64.4930 H   0  0  0  0  0  0  0  0  0  0  0  0
   41.4810   80.2990   61.9860 N   0  0  0  0  0  0  0  0  0  0  0  0
   40.3880   79.3470   61.9260 C   0  0  0  0  0  2  0  0  0  0  0  0
   40.7140   78.6550   60.6090 C   0  0  0  0  0  2  0  0  0  0  0  0
   42.2370   78.5680   60.6730 C   0  0  0  0  0  2  0  0  0  0  0  0
   42.6790   79.5080   61.7740 C   0  0  0  0  0  3  0  0  0  0  0  0
   43.5430   80.0760   61.4200 H   0  0  0  0  0  0  0  0  0  0  0  0
   43.6400   86.4240   59.7020 C   0  0  0  0  0  0  0  0  0  0  0  0
   42.9240   86.5700   58.4930 C   0  0  0  0  0  0  0  0  0  0  0  0
   41.7720   85.8120   58.2780 C   0  0  0  0  0  0  0  0  0  0  0  0
   41.4220   84.9660   59.2880 N   0  0  0  0  0  0  0  0  0  0  0  0
   42.1090   84.8420   60.4190 C   0  0  0  0  0  0  0  0  0  0  0  0
   43.2080   85.5590   60.6350 N   0  0  0  0  0  0  0  0  0  0  0  0
   44.7760   87.2570   59.7640 N   0  0  0  0  0  0  0  0  0  0  0  0
   43.1930   87.2400   57.6830 H   0  0  0  0  0  0  0  0  0  0  0  0
   41.1970   85.8990   57.3600 H   0  0  0  0  0  0  0  0  0  0  0  0
   45.8120   87.0260   59.6940 H   0  0  0  0  0  0  0  0  0  0  0  0
   44.7510   88.2890   59.8970 H   0  0  0  0  0  0  0  0  0  0  0  0
  1  2  1  0  0  0  0
  2  7  1  0  0  0  0
  2  3  2  0  0  0  0
  3  8  1  0  0  0  0
  4  3  1  0  0  0  0
  5  4  2  0  0  0  0
  6  1  2  0  0  0  0
  6  5  1  0  0  0  0
  9  5  1  0  0  0  0
 10  9  1  0  0  0  0
 11 12  1  0  0  0  0
 11 10  1  0  0  0  0
 12 13  1  0  0  0  0
 13  9  1  0  0  0  0
 14 13  1  0  0  0  0
 15 21  1  0  0  0  0
 15 20  1  0  0  0  0
 16 15  2  0  0  0  0
 17 16  1  0  0  0  0
 17 18  2  0  0  0  0
 18 19  1  0  0  0  0
 19 20  2  0  0  0  0
 19  1  1  0  0  0  0
 21 25  1  0  0  0  0
 22 16  1  0  0  0  0
 23 17  1  0  0  0  0
 24 21  1  0  0  0  0
M  END
>  <minimizedAffinity>
-5.20562553

>  <minimizedRMSD>
0.2724334

$$$$
