
 OpenBabel03212520473D

 25 27  0  0  0  0  0  0  0  0999 V2000
   41.6970   83.8760   61.2580 C   0  0  0  0  0  0  0  0  0  0  0  0
   41.1840   84.1870   62.4880 C   0  0  0  0  0  0  0  0  0  0  0  0
   40.7300   83.2330   63.3930 C   0  0  0  0  0  0  0  0  0  0  0  0
   40.7970   81.9230   63.0440 N   0  0  0  0  0  0  0  0  0  0  0  0
   41.2990   81.6200   61.8420 C   0  0  0  0  0  0  0  0  0  0  0  0
   41.7380   82.5620   60.9680 N   0  0  0  0  0  0  0  0  0  0  0  0
   41.1190   85.2190   62.7930 H   0  0  0  0  0  0  0  0  0  0  0  0
   40.3250   83.5040   64.3680 H   0  0  0  0  0  0  0  0  0  0  0  0
   41.3670   80.2440   61.4810 N   0  0  0  0  0  0  0  0  0  0  0  0
   42.3380   79.3010   62.0010 C   0  0  0  0  0  2  0  0  0  0  0  0
   41.4070   78.1830   62.4490 C   0  0  0  0  0  2  0  0  0  0  0  0
   40.3680   78.1770   61.3310 C   0  0  0  0  0  2  0  0  0  0  0  0
   40.5480   79.4710   60.5660 C   0  0  0  0  0  3  0  0  0  0  0  0
   39.5610   79.8970   60.3680 H   0  0  0  0  0  0  0  0  0  0  0  0
   43.6540   86.5650   59.7570 C   0  0  0  0  0  0  0  0  0  0  0  0
   42.9930   86.7360   58.5200 C   0  0  0  0  0  0  0  0  0  0  0  0
   41.8910   85.9360   58.2110 C   0  0  0  0  0  0  0  0  0  0  0  0
   41.5340   85.0270   59.1600 N   0  0  0  0  0  0  0  0  0  0  0  0
   42.1680   84.8810   60.3190 C   0  0  0  0  0  0  0  0  0  0  0  0
   43.2180   85.6360   60.6250 N   0  0  0  0  0  0  0  0  0  0  0  0
   44.7440   87.4460   59.9170 N   0  0  0  0  0  0  0  0  0  0  0  0
   43.2690   87.4560   57.7570 H   0  0  0  0  0  0  0  0  0  0  0  0
   41.3590   86.0410   57.2680 H   0  0  0  0  0  0  0  0  0  0  0  0
   45.7920   87.2670   59.8900 H   0  0  0  0  0  0  0  0  0  0  0  0
   44.6610   88.4680   60.0960 H   0  0  0  0  0  0  0  0  0  0  0  0
  1  2  1  0  0  0  0
  2  7  1  0  0  0  0
  2  3  2  0  0  0  0
  3  8  1  0  0  0  0
  4  3  1  0  0  0  0
  5  4  2  0  0  0  0
  6  1  2  0  0  0  0
  6  5  1  0  0  0  0
  9  5  1  0  0  0  0
  9 10  1  0  0  0  0
 10 11  1  0  0  0  0
 12 11  1  0  0  0  0
 13 12  1  0  0  0  0
 13  9  1  0  0  0  0
 14 13  1  0  0  0  0
 15 21  1  0  0  0  0
 15 20  1  0  0  0  0
 16 15  2  0  0  0  0
 17 16  1  0  0  0  0
 17 18  2  0  0  0  0
 18 19  1  0  0  0  0
 19 20  2  0  0  0  0
 19  1  1  0  0  0  0
 21 25  1  0  0  0  0
 22 16  1  0  0  0  0
 23 17  1  0  0  0  0
 24 21  1  0  0  0  0
M  END
>  <minimizedAffinity>
-5.09734964

>  <minimizedRMSD>
0.493588507

$$$$
