
 OpenBabel03212520473D

 25 27  0  0  0  0  0  0  0  0999 V2000
   41.7670   83.9160   61.3380 C   0  0  0  0  0  0  0  0  0  0  0  0
   41.2170   84.2300   62.5520 C   0  0  0  0  0  0  0  0  0  0  0  0
   40.7170   83.2790   63.4360 C   0  0  0  0  0  0  0  0  0  0  0  0
   40.7740   81.9690   63.0810 N   0  0  0  0  0  0  0  0  0  0  0  0
   41.3110   81.6640   61.8960 C   0  0  0  0  0  0  0  0  0  0  0  0
   41.7950   82.6030   61.0420 N   0  0  0  0  0  0  0  0  0  0  0  0
   41.1580   85.2610   62.8600 H   0  0  0  0  0  0  0  0  0  0  0  0
   40.2830   83.5520   64.3970 H   0  0  0  0  0  0  0  0  0  0  0  0
   41.3680   80.2890   61.5290 N   0  0  0  0  0  0  0  0  0  0  0  0
   42.5730   79.4800   61.5420 C   0  0  0  0  0  2  0  0  0  0  0  0
   42.0820   78.2900   62.3540 C   0  0  0  0  0  2  0  0  0  0  0  0
   40.6590   78.1210   61.8280 C   0  0  0  0  0  2  0  0  0  0  0  0
   40.3210   79.3910   61.0790 C   0  0  0  0  0  3  0  0  0  0  0  0
   39.3090   79.6990   61.3540 H   0  0  0  0  0  0  0  0  0  0  0  0
   43.7520   86.6480   59.9580 C   0  0  0  0  0  0  0  0  0  0  0  0
   43.2080   86.7630   58.6590 C   0  0  0  0  0  0  0  0  0  0  0  0
   42.1730   85.9110   58.2690 C   0  0  0  0  0  0  0  0  0  0  0  0
   41.7610   85.0100   59.2040 N   0  0  0  0  0  0  0  0  0  0  0  0
   42.2860   84.9170   60.4220 C   0  0  0  0  0  0  0  0  0  0  0  0
   43.2720   85.7220   60.8050 N   0  0  0  0  0  0  0  0  0  0  0  0
   44.7870   87.5770   60.1970 N   0  0  0  0  0  0  0  0  0  0  0  0
   43.5280   87.4760   57.9070 H   0  0  0  0  0  0  0  0  0  0  0  0
   41.7300   85.9730   57.2770 H   0  0  0  0  0  0  0  0  0  0  0  0
   45.8390   87.4400   60.2750 H   0  0  0  0  0  0  0  0  0  0  0  0
   44.6480   88.5990   60.3400 H   0  0  0  0  0  0  0  0  0  0  0  0
  1  2  1  0  0  0  0
  2  7  1  0  0  0  0
  2  3  2  0  0  0  0
  3  8  1  0  0  0  0
  4  3  1  0  0  0  0
  5  4  2  0  0  0  0
  6  1  2  0  0  0  0
  6  5  1  0  0  0  0
  9 10  1  0  0  0  0
  9  5  1  0  0  0  0
 10 11  1  0  0  0  0
 12 11  1  0  0  0  0
 13 14  1  0  0  0  0
 13  9  1  0  0  0  0
 13 12  1  0  0  0  0
 15 21  1  0  0  0  0
 15 20  1  0  0  0  0
 16 15  2  0  0  0  0
 17 16  1  0  0  0  0
 17 18  2  0  0  0  0
 18 19  1  0  0  0  0
 19 20  2  0  0  0  0
 19  1  1  0  0  0  0
 21 24  1  0  0  0  0
 21 25  1  0  0  0  0
 22 16  1  0  0  0  0
 23 17  1  0  0  0  0
M  END
>  <minimizedAffinity>
-5.28818989

>  <minimizedRMSD>
0.500198364

$$$$
