
 OpenBabel03212520473D

 25 27  0  0  0  0  0  0  0  0999 V2000
   41.7010   83.9520   61.3600 C   0  0  0  0  0  0  0  0  0  0  0  0
   41.1560   84.3100   62.5640 C   0  0  0  0  0  0  0  0  0  0  0  0
   40.6930   83.3900   63.4990 C   0  0  0  0  0  0  0  0  0  0  0  0
   40.7830   82.0660   63.2090 N   0  0  0  0  0  0  0  0  0  0  0  0
   41.3150   81.7190   62.0330 C   0  0  0  0  0  0  0  0  0  0  0  0
   41.7630   82.6270   61.1280 N   0  0  0  0  0  0  0  0  0  0  0  0
   41.0720   85.3530   62.8230 H   0  0  0  0  0  0  0  0  0  0  0  0
   40.2620   83.6980   64.4520 H   0  0  0  0  0  0  0  0  0  0  0  0
   41.4070   80.3290   61.7330 N   0  0  0  0  0  0  0  0  0  0  0  0
   42.5760   79.6820   61.1670 C   0  0  0  0  0  2  0  0  0  0  0  0
   42.7450   78.5360   62.1560 C   0  0  0  0  0  2  0  0  0  0  0  0
   41.2960   78.1370   62.4190 C   0  0  0  0  0  2  0  0  0  0  0  0
   40.4340   79.2660   61.8970 C   0  0  0  0  0  3  0  0  0  0  0  0
   39.6520   79.4740   62.6310 H   0  0  0  0  0  0  0  0  0  0  0  0
   43.6890   86.5650   59.7700 C   0  0  0  0  0  0  0  0  0  0  0  0
   43.0250   86.7100   58.5310 C   0  0  0  0  0  0  0  0  0  0  0  0
   41.9100   85.9170   58.2520 C   0  0  0  0  0  0  0  0  0  0  0  0
   41.5440   85.0420   59.2300 N   0  0  0  0  0  0  0  0  0  0  0  0
   42.1810   84.9210   60.3890 C   0  0  0  0  0  0  0  0  0  0  0  0
   43.2450   85.6690   60.6670 N   0  0  0  0  0  0  0  0  0  0  0  0
   44.7930   87.4350   59.8980 N   0  0  0  0  0  0  0  0  0  0  0  0
   43.3080   87.4020   57.7460 H   0  0  0  0  0  0  0  0  0  0  0  0
   41.3750   86.0020   57.3090 H   0  0  0  0  0  0  0  0  0  0  0  0
   45.8380   87.2390   59.8720 H   0  0  0  0  0  0  0  0  0  0  0  0
   44.7260   88.4630   60.0470 H   0  0  0  0  0  0  0  0  0  0  0  0
  1  2  1  0  0  0  0
  2  7  1  0  0  0  0
  2  3  2  0  0  0  0
  3  8  1  0  0  0  0
  4  3  1  0  0  0  0
  5  4  2  0  0  0  0
  6  1  2  0  0  0  0
  6  5  1  0  0  0  0
  9 13  1  0  0  0  0
  9  5  1  0  0  0  0
 10  9  1  0  0  0  0
 10 11  1  0  0  0  0
 11 12  1  0  0  0  0
 13 12  1  0  0  0  0
 13 14  1  0  0  0  0
 15 21  1  0  0  0  0
 15 20  1  0  0  0  0
 16 15  2  0  0  0  0
 17 16  1  0  0  0  0
 17 18  2  0  0  0  0
 18 19  1  0  0  0  0
 19 20  2  0  0  0  0
 19  1  1  0  0  0  0
 21 25  1  0  0  0  0
 22 16  1  0  0  0  0
 23 17  1  0  0  0  0
 24 21  1  0  0  0  0
M  END
>  <minimizedAffinity>
-5.19928217

>  <minimizedRMSD>
0.336279571

$$$$
