
 OpenBabel03212520473D

 25 27  0  0  0  0  0  0  0  0999 V2000
   41.6610   83.8600   61.4520 C   0  0  0  0  0  0  0  0  0  0  0  0
   40.9760   84.2380   62.5750 C   0  0  0  0  0  0  0  0  0  0  0  0
   40.4880   83.3370   63.5160 C   0  0  0  0  0  0  0  0  0  0  0  0
   40.6990   82.0100   63.3140 N   0  0  0  0  0  0  0  0  0  0  0  0
   41.3670   81.6420   62.2170 C   0  0  0  0  0  0  0  0  0  0  0  0
   41.8380   82.5330   61.3060 N   0  0  0  0  0  0  0  0  0  0  0  0
   40.7950   85.2840   62.7620 H   0  0  0  0  0  0  0  0  0  0  0  0
   39.9460   83.6600   64.4030 H   0  0  0  0  0  0  0  0  0  0  0  0
   41.5850   80.2500   62.0100 N   0  0  0  0  0  0  0  0  0  0  0  0
   40.6960   79.1980   62.4680 C   0  0  0  0  0  2  0  0  0  0  0  0
   40.5170   78.4200   61.1720 C   0  0  0  0  0  2  0  0  0  0  0  0
   41.9220   78.4820   60.5770 C   0  0  0  0  0  2  0  0  0  0  0  0
   42.6680   79.5570   61.3370 C   0  0  0  0  0  3  0  0  0  0  0  0
   43.2230   80.1670   60.6210 H   0  0  0  0  0  0  0  0  0  0  0  0
   43.6780   86.4540   59.8690 C   0  0  0  0  0  0  0  0  0  0  0  0
   43.0570   86.5610   58.6040 C   0  0  0  0  0  0  0  0  0  0  0  0
   41.9610   85.7500   58.3050 C   0  0  0  0  0  0  0  0  0  0  0  0
   41.5690   84.8950   59.2910 N   0  0  0  0  0  0  0  0  0  0  0  0
   42.1660   84.8100   60.4750 C   0  0  0  0  0  0  0  0  0  0  0  0
   43.2110   85.5760   60.7710 N   0  0  0  0  0  0  0  0  0  0  0  0
   44.7680   87.3380   60.0140 N   0  0  0  0  0  0  0  0  0  0  0  0
   43.3610   87.2370   57.8120 H   0  0  0  0  0  0  0  0  0  0  0  0
   41.4580   85.8060   57.3420 H   0  0  0  0  0  0  0  0  0  0  0  0
   45.8160   87.1530   60.0300 H   0  0  0  0  0  0  0  0  0  0  0  0
   44.6860   88.3690   60.1350 H   0  0  0  0  0  0  0  0  0  0  0  0
  1  2  1  0  0  0  0
  2  7  1  0  0  0  0
  2  3  2  0  0  0  0
  3  8  1  0  0  0  0
  4  3  1  0  0  0  0
  5  4  2  0  0  0  0
  6  1  2  0  0  0  0
  6  5  1  0  0  0  0
  9  5  1  0  0  0  0
  9 10  1  0  0  0  0
 11 10  1  0  0  0  0
 12 11  1  0  0  0  0
 12 13  1  0  0  0  0
 13  9  1  0  0  0  0
 14 13  1  0  0  0  0
 15 21  1  0  0  0  0
 15 20  1  0  0  0  0
 16 15  2  0  0  0  0
 17 16  1  0  0  0  0
 17 18  2  0  0  0  0
 18 19  1  0  0  0  0
 19 20  2  0  0  0  0
 19  1  1  0  0  0  0
 21 24  1  0  0  0  0
 21 25  1  0  0  0  0
 22 16  1  0  0  0  0
 23 17  1  0  0  0  0
M  END
>  <minimizedAffinity>
-5.20969105

>  <minimizedRMSD>
0.391383499

$$$$
