
 OpenBabel03212520473D

 25 27  0  0  0  0  0  0  0  0999 V2000
   41.6640   83.8610   61.4510 C   0  0  0  0  0  0  0  0  0  0  0  0
   41.1390   84.2240   62.6620 C   0  0  0  0  0  0  0  0  0  0  0  0
   40.6630   83.3100   63.5970 C   0  0  0  0  0  0  0  0  0  0  0  0
   40.7190   81.9860   63.2970 N   0  0  0  0  0  0  0  0  0  0  0  0
   41.2320   81.6330   62.1150 C   0  0  0  0  0  0  0  0  0  0  0  0
   41.6920   82.5360   61.2110 N   0  0  0  0  0  0  0  0  0  0  0  0
   41.0820   85.2670   62.9280 H   0  0  0  0  0  0  0  0  0  0  0  0
   40.2490   83.6220   64.5550 H   0  0  0  0  0  0  0  0  0  0  0  0
   41.2880   80.2440   61.8060 N   0  0  0  0  0  0  0  0  0  0  0  0
   40.2350   79.5040   61.1370 C   0  0  0  0  0  2  0  0  0  0  0  0
   41.0420   78.8370   60.0310 C   0  0  0  0  0  2  0  0  0  0  0  0
   42.3340   78.4810   60.7620 C   0  0  0  0  0  2  0  0  0  0  0  0
   42.3310   79.2670   62.0550 C   0  0  0  0  0  3  0  0  0  0  0  0
   43.3270   79.6920   62.2060 H   0  0  0  0  0  0  0  0  0  0  0  0
   43.6680   86.4710   59.8770 C   0  0  0  0  0  0  0  0  0  0  0  0
   43.0270   86.6010   58.6240 C   0  0  0  0  0  0  0  0  0  0  0  0
   41.9220   85.8000   58.3300 C   0  0  0  0  0  0  0  0  0  0  0  0
   41.5410   84.9310   59.3080 N   0  0  0  0  0  0  0  0  0  0  0  0
   42.1580   84.8240   60.4810 C   0  0  0  0  0  0  0  0  0  0  0  0
   43.2110   85.5810   60.7730 N   0  0  0  0  0  0  0  0  0  0  0  0
   44.7640   87.3480   60.0180 N   0  0  0  0  0  0  0  0  0  0  0  0
   43.3210   87.2880   57.8380 H   0  0  0  0  0  0  0  0  0  0  0  0
   41.4040   85.8730   57.3760 H   0  0  0  0  0  0  0  0  0  0  0  0
   45.8110   87.1580   60.0140 H   0  0  0  0  0  0  0  0  0  0  0  0
   44.6890   88.3770   60.1570 H   0  0  0  0  0  0  0  0  0  0  0  0
  1  2  1  0  0  0  0
  2  7  1  0  0  0  0
  2  3  2  0  0  0  0
  3  8  1  0  0  0  0
  4  3  1  0  0  0  0
  5  4  2  0  0  0  0
  6  1  2  0  0  0  0
  6  5  1  0  0  0  0
  9 13  1  0  0  0  0
  9  5  1  0  0  0  0
 10  9  1  0  0  0  0
 11 12  1  0  0  0  0
 11 10  1  0  0  0  0
 12 13  1  0  0  0  0
 13 14  1  0  0  0  0
 15 21  1  0  0  0  0
 15 20  1  0  0  0  0
 16 15  2  0  0  0  0
 17 16  1  0  0  0  0
 17 18  2  0  0  0  0
 18 19  1  0  0  0  0
 19 20  2  0  0  0  0
 19  1  1  0  0  0  0
 21 25  1  0  0  0  0
 22 16  1  0  0  0  0
 23 17  1  0  0  0  0
 24 21  1  0  0  0  0
M  END
>  <minimizedAffinity>
-5.08567142

>  <minimizedRMSD>
0.256126046

$$$$
