
 OpenBabel03212520473D

 25 27  0  0  0  0  0  0  0  0999 V2000
   41.6480   83.8800   61.4780 C   0  0  0  0  0  0  0  0  0  0  0  0
   41.1810   84.2530   62.7100 C   0  0  0  0  0  0  0  0  0  0  0  0
   40.6940   83.3510   63.6510 C   0  0  0  0  0  0  0  0  0  0  0  0
   40.6780   82.0290   63.3360 N   0  0  0  0  0  0  0  0  0  0  0  0
   41.1340   81.6670   62.1320 C   0  0  0  0  0  0  0  0  0  0  0  0
   41.6060   82.5590   61.2240 N   0  0  0  0  0  0  0  0  0  0  0  0
   41.1820   85.2940   62.9890 H   0  0  0  0  0  0  0  0  0  0  0  0
   40.3280   83.6700   64.6260 H   0  0  0  0  0  0  0  0  0  0  0  0
   41.1140   80.2810   61.8070 N   0  0  0  0  0  0  0  0  0  0  0  0
   40.1640   79.6570   60.9050 C   0  0  0  0  0  2  0  0  0  0  0  0
   41.1230   78.9140   59.9860 C   0  0  0  0  0  2  0  0  0  0  0  0
   42.1790   78.4200   60.9710 C   0  0  0  0  0  2  0  0  0  0  0  0
   41.9710   79.1990   62.2540 C   0  0  0  0  0  3  0  0  0  0  0  0
   42.9470   79.5160   62.6290 H   0  0  0  0  0  0  0  0  0  0  0  0
   43.6810   86.4610   59.8910 C   0  0  0  0  0  0  0  0  0  0  0  0
   43.0470   86.5850   58.6350 C   0  0  0  0  0  0  0  0  0  0  0  0
   41.9360   85.7910   58.3420 C   0  0  0  0  0  0  0  0  0  0  0  0
   41.5440   84.9330   59.3260 N   0  0  0  0  0  0  0  0  0  0  0  0
   42.1540   84.8310   60.5030 C   0  0  0  0  0  0  0  0  0  0  0  0
   43.2120   85.5820   60.7930 N   0  0  0  0  0  0  0  0  0  0  0  0
   44.7830   87.3300   60.0310 N   0  0  0  0  0  0  0  0  0  0  0  0
   43.3500   87.2630   57.8440 H   0  0  0  0  0  0  0  0  0  0  0  0
   41.4240   85.8600   57.3860 H   0  0  0  0  0  0  0  0  0  0  0  0
   45.8280   87.1310   60.0330 H   0  0  0  0  0  0  0  0  0  0  0  0
   44.7160   88.3600   60.1600 H   0  0  0  0  0  0  0  0  0  0  0  0
  1  2  1  0  0  0  0
  2  7  1  0  0  0  0
  2  3  2  0  0  0  0
  3  8  1  0  0  0  0
  4  3  1  0  0  0  0
  5  4  2  0  0  0  0
  6  1  2  0  0  0  0
  6  5  1  0  0  0  0
  9  5  1  0  0  0  0
  9 13  1  0  0  0  0
 10  9  1  0  0  0  0
 11 10  1  0  0  0  0
 11 12  1  0  0  0  0
 12 13  1  0  0  0  0
 13 14  1  0  0  0  0
 15 21  1  0  0  0  0
 15 20  1  0  0  0  0
 16 15  2  0  0  0  0
 17 16  1  0  0  0  0
 17 18  2  0  0  0  0
 18 19  1  0  0  0  0
 19 20  2  0  0  0  0
 19  1  1  0  0  0  0
 21 24  1  0  0  0  0
 21 25  1  0  0  0  0
 22 16  1  0  0  0  0
 23 17  1  0  0  0  0
M  END
>  <minimizedAffinity>
-5.06724167

>  <minimizedRMSD>
0.241809323

$$$$
