
 OpenBabel03212520473D

 25 27  0  0  0  0  0  0  0  0999 V2000
   41.6270   83.8820   61.4310 C   0  0  0  0  0  0  0  0  0  0  0  0
   41.1070   84.2710   62.6360 C   0  0  0  0  0  0  0  0  0  0  0  0
   40.6550   83.3770   63.6010 C   0  0  0  0  0  0  0  0  0  0  0  0
   40.7300   82.0460   63.3390 N   0  0  0  0  0  0  0  0  0  0  0  0
   41.2370   81.6670   62.1620 C   0  0  0  0  0  0  0  0  0  0  0  0
   41.6750   82.5510   61.2290 N   0  0  0  0  0  0  0  0  0  0  0  0
   41.0360   85.3200   62.8730 H   0  0  0  0  0  0  0  0  0  0  0  0
   40.2450   83.7090   64.5550 H   0  0  0  0  0  0  0  0  0  0  0  0
   41.3130   80.2710   61.8930 N   0  0  0  0  0  0  0  0  0  0  0  0
   40.1790   79.4330   61.5480 C   0  0  0  0  0  2  0  0  0  0  0  0
   40.7170   78.7660   60.2900 C   0  0  0  0  0  2  0  0  0  0  0  0
   42.1780   78.5280   60.6650 C   0  0  0  0  0  2  0  0  0  0  0  0
   42.4550   79.3750   61.8880 C   0  0  0  0  0  3  0  0  0  0  0  0
   43.4200   79.8690   61.7570 H   0  0  0  0  0  0  0  0  0  0  0  0
   43.6220   86.4190   59.7310 C   0  0  0  0  0  0  0  0  0  0  0  0
   42.9160   86.5650   58.5160 C   0  0  0  0  0  0  0  0  0  0  0  0
   41.7700   85.8000   58.2900 C   0  0  0  0  0  0  0  0  0  0  0  0
   41.4180   84.9480   59.2930 N   0  0  0  0  0  0  0  0  0  0  0  0
   42.0960   84.8240   60.4300 C   0  0  0  0  0  0  0  0  0  0  0  0
   43.1880   85.5470   60.6570 N   0  0  0  0  0  0  0  0  0  0  0  0
   44.7530   87.2590   59.8050 N   0  0  0  0  0  0  0  0  0  0  0  0
   43.1870   87.2390   57.7110 H   0  0  0  0  0  0  0  0  0  0  0  0
   41.2020   85.8870   57.3670 H   0  0  0  0  0  0  0  0  0  0  0  0
   45.7910   87.0350   59.7430 H   0  0  0  0  0  0  0  0  0  0  0  0
   44.7200   88.2910   59.9420 H   0  0  0  0  0  0  0  0  0  0  0  0
  1  2  1  0  0  0  0
  2  7  1  0  0  0  0
  2  3  2  0  0  0  0
  3  8  1  0  0  0  0
  4  3  1  0  0  0  0
  5  4  2  0  0  0  0
  6  1  2  0  0  0  0
  6  5  1  0  0  0  0
  9  5  1  0  0  0  0
 10  9  1  0  0  0  0
 11 12  1  0  0  0  0
 11 10  1  0  0  0  0
 12 13  1  0  0  0  0
 13  9  1  0  0  0  0
 14 13  1  0  0  0  0
 15 21  1  0  0  0  0
 15 20  1  0  0  0  0
 16 15  2  0  0  0  0
 17 16  1  0  0  0  0
 17 18  2  0  0  0  0
 18 19  1  0  0  0  0
 19 20  2  0  0  0  0
 19  1  1  0  0  0  0
 21 25  1  0  0  0  0
 22 16  1  0  0  0  0
 23 17  1  0  0  0  0
 24 21  1  0  0  0  0
M  END
>  <minimizedAffinity>
-5.15575075

>  <minimizedRMSD>
0.188660517

$$$$
