
 OpenBabel03212520473D

 25 27  0  0  0  0  0  0  0  0999 V2000
   41.7620   83.8590   61.2320 C   0  0  0  0  0  0  0  0  0  0  0  0
   41.2290   84.1270   62.4640 C   0  0  0  0  0  0  0  0  0  0  0  0
   40.7290   83.1450   63.3140 C   0  0  0  0  0  0  0  0  0  0  0  0
   40.7690   81.8510   62.9050 N   0  0  0  0  0  0  0  0  0  0  0  0
   41.2900   81.5910   61.7010 C   0  0  0  0  0  0  0  0  0  0  0  0
   41.7740   82.5590   60.8820 N   0  0  0  0  0  0  0  0  0  0  0  0
   41.1840   85.1450   62.8160 H   0  0  0  0  0  0  0  0  0  0  0  0
   40.3090   83.3820   64.2910 H   0  0  0  0  0  0  0  0  0  0  0  0
   41.3290   80.2310   61.2770 N   0  0  0  0  0  0  0  0  0  0  0  0
   42.0330   79.1690   61.9710 C   0  0  0  0  0  2  0  0  0  0  0  0
   40.9170   78.1390   62.0780 C   0  0  0  0  0  2  0  0  0  0  0  0
   40.2270   78.2890   60.7240 C   0  0  0  0  0  2  0  0  0  0  0  0
   40.7240   79.5870   60.1260 C   0  0  0  0  0  3  0  0  0  0  0  0
   39.8710   80.1230   59.7020 H   0  0  0  0  0  0  0  0  0  0  0  0
   43.7360   86.6480   59.9560 C   0  0  0  0  0  0  0  0  0  0  0  0
   43.2020   86.8000   58.6570 C   0  0  0  0  0  0  0  0  0  0  0  0
   42.1770   85.9530   58.2310 C   0  0  0  0  0  0  0  0  0  0  0  0
   41.7650   85.0200   59.1340 N   0  0  0  0  0  0  0  0  0  0  0  0
   42.2800   84.8930   60.3520 C   0  0  0  0  0  0  0  0  0  0  0  0
   43.2570   85.6930   60.7690 N   0  0  0  0  0  0  0  0  0  0  0  0
   44.7610   87.5780   60.2320 N   0  0  0  0  0  0  0  0  0  0  0  0
   43.5220   87.5390   57.9300 H   0  0  0  0  0  0  0  0  0  0  0  0
   41.7420   86.0420   57.2380 H   0  0  0  0  0  0  0  0  0  0  0  0
   45.8140   87.4470   60.3150 H   0  0  0  0  0  0  0  0  0  0  0  0
   44.6130   88.5930   60.4060 H   0  0  0  0  0  0  0  0  0  0  0  0
  1  2  1  0  0  0  0
  2  7  1  0  0  0  0
  2  3  2  0  0  0  0
  3  8  1  0  0  0  0
  4  3  1  0  0  0  0
  5  4  2  0  0  0  0
  6  1  2  0  0  0  0
  6  5  1  0  0  0  0
  9  5  1  0  0  0  0
  9 10  1  0  0  0  0
 10 11  1  0  0  0  0
 12 11  1  0  0  0  0
 13 12  1  0  0  0  0
 13  9  1  0  0  0  0
 14 13  1  0  0  0  0
 15 21  1  0  0  0  0
 15 20  1  0  0  0  0
 16 15  2  0  0  0  0
 17 16  1  0  0  0  0
 17 18  2  0  0  0  0
 18 19  1  0  0  0  0
 19 20  2  0  0  0  0
 19  1  1  0  0  0  0
 21 24  1  0  0  0  0
 21 25  1  0  0  0  0
 22 16  1  0  0  0  0
 23 17  1  0  0  0  0
M  END
>  <minimizedAffinity>
-5.04594088

>  <minimizedRMSD>
0.66691798

$$$$
