
 OpenBabel03212520473D

 25 27  0  0  0  0  0  0  0  0999 V2000
   41.6390   83.8790   61.4890 C   0  0  0  0  0  0  0  0  0  0  0  0
   41.2920   84.2500   62.7600 C   0  0  0  0  0  0  0  0  0  0  0  0
   40.7960   83.3640   63.7100 C   0  0  0  0  0  0  0  0  0  0  0  0
   40.6430   82.0590   63.3640 N   0  0  0  0  0  0  0  0  0  0  0  0
   40.9810   81.6980   62.1220 C   0  0  0  0  0  0  0  0  0  0  0  0
   41.4660   82.5740   61.2050 N   0  0  0  0  0  0  0  0  0  0  0  0
   41.4030   85.2790   63.0640 H   0  0  0  0  0  0  0  0  0  0  0  0
   40.5260   83.6820   64.7170 H   0  0  0  0  0  0  0  0  0  0  0  0
   40.8200   80.3290   61.7640 N   0  0  0  0  0  0  0  0  0  0  0  0
   40.2310   79.8640   60.5210 C   0  0  0  0  0  2  0  0  0  0  0  0
   41.3140   78.8980   60.0620 C   0  0  0  0  0  2  0  0  0  0  0  0
   41.7340   78.2530   61.3810 C   0  0  0  0  0  2  0  0  0  0  0  0
   41.1700   79.1200   62.4860 C   0  0  0  0  0  3  0  0  0  0  0  0
   41.9410   79.2540   63.2490 H   0  0  0  0  0  0  0  0  0  0  0  0
   43.6860   86.4380   59.8870 C   0  0  0  0  0  0  0  0  0  0  0  0
   43.0720   86.5370   58.6190 C   0  0  0  0  0  0  0  0  0  0  0  0
   41.9700   85.7320   58.3230 C   0  0  0  0  0  0  0  0  0  0  0  0
   41.5660   84.8910   59.3170 N   0  0  0  0  0  0  0  0  0  0  0  0
   42.1570   84.8140   60.5050 C   0  0  0  0  0  0  0  0  0  0  0  0
   43.2070   85.5740   60.7980 N   0  0  0  0  0  0  0  0  0  0  0  0
   44.7830   87.3140   60.0280 N   0  0  0  0  0  0  0  0  0  0  0  0
   43.3850   87.2010   57.8210 H   0  0  0  0  0  0  0  0  0  0  0  0
   41.4730   85.7820   57.3570 H   0  0  0  0  0  0  0  0  0  0  0  0
   45.8290   87.1210   60.0510 H   0  0  0  0  0  0  0  0  0  0  0  0
   44.7100   88.3470   60.1370 H   0  0  0  0  0  0  0  0  0  0  0  0
  1  2  1  0  0  0  0
  2  7  1  0  0  0  0
  2  3  2  0  0  0  0
  3  8  1  0  0  0  0
  4  3  1  0  0  0  0
  5  4  2  0  0  0  0
  6  1  2  0  0  0  0
  6  5  1  0  0  0  0
  9  5  1  0  0  0  0
  9 13  1  0  0  0  0
 10  9  1  0  0  0  0
 11 10  1  0  0  0  0
 11 12  1  0  0  0  0
 12 13  1  0  0  0  0
 13 14  1  0  0  0  0
 15 21  1  0  0  0  0
 15 20  1  0  0  0  0
 16 15  2  0  0  0  0
 17 16  1  0  0  0  0
 17 18  2  0  0  0  0
 18 19  1  0  0  0  0
 19 20  2  0  0  0  0
 19  1  1  0  0  0  0
 21 24  1  0  0  0  0
 21 25  1  0  0  0  0
 22 16  1  0  0  0  0
 23 17  1  0  0  0  0
M  END
>  <minimizedAffinity>
-5.19432402

>  <minimizedRMSD>
0.397850722

$$$$
