
 OpenBabel03212520473D

 25 27  0  0  0  0  0  0  0  0999 V2000
   41.7000   83.8960   61.3030 C   0  0  0  0  0  0  0  0  0  0  0  0
   41.1880   84.2130   62.5320 C   0  0  0  0  0  0  0  0  0  0  0  0
   40.7220   83.2650   63.4370 C   0  0  0  0  0  0  0  0  0  0  0  0
   40.7740   81.9530   63.0870 N   0  0  0  0  0  0  0  0  0  0  0  0
   41.2740   81.6450   61.8870 C   0  0  0  0  0  0  0  0  0  0  0  0
   41.7260   82.5810   61.0130 N   0  0  0  0  0  0  0  0  0  0  0  0
   41.1340   85.2460   62.8380 H   0  0  0  0  0  0  0  0  0  0  0  0
   40.3180   83.5400   64.4110 H   0  0  0  0  0  0  0  0  0  0  0  0
   41.3270   80.2680   61.5250 N   0  0  0  0  0  0  0  0  0  0  0  0
   42.4480   79.3860   61.7910 C   0  0  0  0  0  2  0  0  0  0  0  0
   41.7200   78.2300   62.4620 C   0  0  0  0  0  2  0  0  0  0  0  0
   40.4380   78.1490   61.6360 C   0  0  0  0  0  2  0  0  0  0  0  0
   40.3510   79.4360   60.8460 C   0  0  0  0  0  3  0  0  0  0  0  0
   39.3230   79.8060   60.8980 H   0  0  0  0  0  0  0  0  0  0  0  0
   43.6780   86.5760   59.8150 C   0  0  0  0  0  0  0  0  0  0  0  0
   43.0360   86.7400   58.5670 C   0  0  0  0  0  0  0  0  0  0  0  0
   41.9380   85.9380   58.2470 C   0  0  0  0  0  0  0  0  0  0  0  0
   41.5670   85.0340   59.1970 N   0  0  0  0  0  0  0  0  0  0  0  0
   42.1840   84.8950   60.3650 C   0  0  0  0  0  0  0  0  0  0  0  0
   43.2300   85.6520   60.6820 N   0  0  0  0  0  0  0  0  0  0  0  0
   44.7660   87.4580   59.9850 N   0  0  0  0  0  0  0  0  0  0  0  0
   43.3230   87.4550   57.8040 H   0  0  0  0  0  0  0  0  0  0  0  0
   41.4200   86.0380   57.2960 H   0  0  0  0  0  0  0  0  0  0  0  0
   45.8140   87.2790   59.9750 H   0  0  0  0  0  0  0  0  0  0  0  0
   44.6810   88.4810   60.1570 H   0  0  0  0  0  0  0  0  0  0  0  0
  1  2  1  0  0  0  0
  2  7  1  0  0  0  0
  2  3  2  0  0  0  0
  3  8  1  0  0  0  0
  4  3  1  0  0  0  0
  5  4  2  0  0  0  0
  6  1  2  0  0  0  0
  6  5  1  0  0  0  0
  9 10  1  0  0  0  0
  9  5  1  0  0  0  0
 10 11  1  0  0  0  0
 12 11  1  0  0  0  0
 13 14  1  0  0  0  0
 13  9  1  0  0  0  0
 13 12  1  0  0  0  0
 15 21  1  0  0  0  0
 15 20  1  0  0  0  0
 16 15  2  0  0  0  0
 17 16  1  0  0  0  0
 17 18  2  0  0  0  0
 18 19  1  0  0  0  0
 19 20  2  0  0  0  0
 19  1  1  0  0  0  0
 21 25  1  0  0  0  0
 22 16  1  0  0  0  0
 23 17  1  0  0  0  0
 24 21  1  0  0  0  0
M  END
>  <minimizedAffinity>
-5.26674557

>  <minimizedRMSD>
0.456748664

$$$$
