
 OpenBabel03212520073D

 15 16  0  0  0  0  0  0  0  0999 V2000
   40.0060   81.9630   60.7200 C   0  0  0  0  0  0  0  0  0  0  0  0
   40.0640   82.8400   59.6280 C   0  0  0  0  0  0  0  0  0  0  0  0
   39.5200   84.1280   59.7930 C   0  0  0  0  0  0  0  0  0  0  0  0
   38.9710   84.4460   61.0050 N   0  0  0  0  0  0  0  0  0  0  0  0
   38.9330   83.5720   62.0390 C   0  0  0  0  0  0  0  0  0  0  0  0
   39.4540   82.3390   61.8770 N   0  0  0  0  0  0  0  0  0  0  0  0
   40.4460   80.9860   60.5150 H   0  0  0  0  0  0  0  0  0  0  0  0
   39.4680   84.9260   59.0960 H   0  0  0  0  0  0  0  0  0  0  0  0
   38.4920   83.8440   62.9900 H   0  0  0  0  0  0  0  0  0  0  0  0
   40.6050   82.5990   58.3570 N   0  0  0  0  0  0  0  0  0  0  0  0
   41.5700   83.3270   57.5510 C   0  0  0  0  0  2  0  0  0  0  0  0
   42.6410   82.2540   57.3630 C   0  0  0  0  0  2  0  0  0  0  0  0
   41.7690   81.0280   57.1430 C   0  0  0  0  0  2  0  0  0  0  0  0
   40.3470   81.4940   57.4220 C   0  0  0  0  0  3  0  0  0  0  0  0
   39.7220   80.7090   57.8490 H   0  0  0  0  0  0  0  0  0  0  0  0
  1  6  1  0  0  0  0
  2  3  1  0  0  0  0
  2  1  2  0  0  0  0
  3  4  2  0  0  0  0
  4  5  1  0  0  0  0
  5  9  1  0  0  0  0
  6  5  2  0  0  0  0
  7  1  1  0  0  0  0
  8  3  1  0  0  0  0
 10  2  1  0  0  0  0
 11 10  1  0  0  0  0
 12 11  1  0  0  0  0
 13 12  1  0  0  0  0
 13 14  1  0  0  0  0
 14 15  1  0  0  0  0
 14 10  1  0  0  0  0
M  END
>  <minimizedAffinity>
-3.80596972

>  <minimizedRMSD>
0.632613063

$$$$
