
 OpenBabel03212520033D

 38 42  0  0  0  0  0  0  0  0999 V2000
   40.6240   81.8190   57.1110 C   0  0  0  0  0  0  0  0  0  0  0  0
   41.6850   82.4020   56.4010 C   0  0  0  0  0  0  0  0  0  0  0  0
   42.4750   83.3030   57.0690 C   0  0  0  0  0  0  0  0  0  0  0  0
   42.2200   83.6040   58.3800 N   0  0  0  0  0  0  0  0  0  0  0  0
   41.1850   83.0180   59.0360 C   0  0  0  0  0  0  0  0  0  0  0  0
   40.3780   82.1210   58.4050 N   0  0  0  0  0  0  0  0  0  0  0  0
   39.9240   81.1030   56.7190 H   0  0  0  0  0  0  0  0  0  0  0  0
   41.7140   81.9940   55.4210 H   0  0  0  0  0  0  0  0  0  0  0  0
   39.6480   83.1080   60.9390 C   0  0  0  0  0  0  0  0  0  0  0  0
   40.9410   83.3130   60.4400 C   0  0  0  0  0  0  0  0  0  0  0  0
   41.9720   83.7710   61.2630 C   0  0  0  0  0  0  0  0  0  0  0  0
   41.7520   84.0380   62.5990 C   0  0  0  0  0  0  0  0  0  0  0  0
   42.4680   84.4680   63.6530 N   0  0  0  0  0  0  0  0  0  0  0  0
   41.6920   84.5370   64.7600 C   0  0  0  0  0  0  0  0  0  0  0  0
   40.4810   84.1350   64.3500 N   0  0  0  0  0  0  0  0  0  0  0  0
   40.4790   83.8240   63.0460 C   0  0  0  0  0  0  0  0  0  0  0  0
   39.4210   83.3770   62.2920 C   0  0  0  0  0  0  0  0  0  0  0  0
   38.8440   82.7560   60.3120 H   0  0  0  0  0  0  0  0  0  0  0  0
   42.9690   83.9280   60.8690 H   0  0  0  0  0  0  0  0  0  0  0  0
   43.4840   84.7100   63.5970 H   0  0  0  0  0  0  0  0  0  0  0  0
   42.0150   84.8550   65.7540 H   0  0  0  0  0  0  0  0  0  0  0  0
   38.4300   83.2290   62.7090 H   0  0  0  0  0  0  0  0  0  0  0  0
   42.4430   83.2060   54.0930 Cl  0  0  0  0  0  0  0  0  0  0  0  0
   43.6930   83.9900   55.0390 C   0  0  0  0  0  0  0  0  0  0  0  0
   43.5770   83.9620   56.4070 C   0  0  0  0  0  0  0  0  0  0  0  0
   44.6030   84.6260   57.0740 C   0  0  0  0  0  0  0  0  0  0  0  0
   45.6510   85.2640   56.4490 C   0  0  0  0  0  0  0  0  0  0  0  0
   45.7080   85.2530   55.0580 C   0  0  0  0  0  0  0  0  0  0  0  0
   47.0170   86.0610   54.2470 Cl  0  0  0  0  0  0  0  0  0  0  0  0
   44.7160   84.6080   54.3500 C   0  0  0  0  0  0  0  0  0  0  0  0
   44.5870   84.6520   58.1530 H   0  0  0  0  0  0  0  0  0  0  0  0
   46.4060   85.7560   57.0430 H   0  0  0  0  0  0  0  0  0  0  0  0
   44.7430   84.5770   52.9300 N   0  0  0  0  0  0  0  0  0  0  0  0
   45.2120   83.6740   51.8990 C   0  0  0  0  0  0  0  0  0  0  0  0
   45.5280   84.6510   50.7710 C   0  0  0  0  0  0  0  0  0  0  0  0
   44.3110   85.5780   50.8550 C   0  0  0  0  0  0  0  0  0  0  0  0
   44.1420   85.7580   52.3450 C   0  0  0  0  0  0  0  0  0  0  0  0
   43.0830   85.8930   52.5580 H   0  0  0  0  0  0  0  0  0  0  0  0
  1  6  1  0  0  0  0
  2  3  1  0  0  0  0
  2  1  2  0  0  0  0
  3  4  2  0  0  0  0
  4  5  1  0  0  0  0
  5 10  1  0  0  0  0
  6  5  2  0  0  0  0
  7  1  1  0  0  0  0
  8  2  1  0  0  0  0
  9 17  1  0  0  0  0
 10  9  2  0  0  0  0
 10 11  1  0  0  0  0
 11 12  2  0  0  0  0
 12 16  1  0  0  0  0
 12 13  1  0  0  0  0
 13 14  1  0  0  0  0
 14 21  1  0  0  0  0
 15 14  2  0  0  0  0
 16 15  1  0  0  0  0
 17 22  1  0  0  0  0
 17 16  2  0  0  0  0
 18  9  1  0  0  0  0
 19 11  1  0  0  0  0
 20 13  1  0  0  0  0
 23 24  1  0  0  0  0
 24 25  1  0  0  0  0
 25  3  1  0  0  0  0
 25 26  2  0  0  0  0
 26 31  1  0  0  0  0
 27 32  1  0  0  0  0
 27 26  1  0  0  0  0
 28 27  2  0  0  0  0
 29 28  1  0  0  0  0
 30 24  2  0  0  0  0
 30 28  1  0  0  0  0
 33 30  1  0  0  0  0
 34 33  1  0  0  0  0
 35 36  1  0  0  0  0
 35 34  1  0  0  0  0
 36 37  1  0  0  0  0
 37 38  1  0  0  0  0
 37 33  1  0  0  0  0
M  END
>  <minimizedAffinity>
-5.05404234

>  <minimizedRMSD>
0.542814195

$$$$
