
 OpenBabel03212520063D

 38 42  0  0  0  0  0  0  0  0999 V2000
   45.1530   73.5470   58.5360 C   0  0  0  0  0  0  0  0  0  0  0  0
   44.3120   74.6550   58.3550 C   0  0  0  0  0  0  0  0  0  0  0  0
   43.0950   74.6370   58.9900 C   0  0  0  0  0  0  0  0  0  0  0  0
   42.7390   73.5670   59.7670 N   0  0  0  0  0  0  0  0  0  0  0  0
   43.5810   72.5120   59.9200 C   0  0  0  0  0  0  0  0  0  0  0  0
   44.7950   72.4940   59.3050 N   0  0  0  0  0  0  0  0  0  0  0  0
   46.1290   73.4210   58.1020 H   0  0  0  0  0  0  0  0  0  0  0  0
   44.8070   75.3730   57.7510 H   0  0  0  0  0  0  0  0  0  0  0  0
   43.6650   70.1180   60.4210 C   0  0  0  0  0  0  0  0  0  0  0  0
   43.2130   71.3950   60.7770 C   0  0  0  0  0  0  0  0  0  0  0  0
   42.4470   71.5990   61.9260 C   0  0  0  0  0  0  0  0  0  0  0  0
   42.1070   70.5470   62.7520 C   0  0  0  0  0  0  0  0  0  0  0  0
   41.4180   70.3670   63.8930 N   0  0  0  0  0  0  0  0  0  0  0  0
   41.4240   69.0610   64.2530 C   0  0  0  0  0  0  0  0  0  0  0  0
   42.1370   68.4500   63.2970 N   0  0  0  0  0  0  0  0  0  0  0  0
   42.5680   69.3190   62.3710 C   0  0  0  0  0  0  0  0  0  0  0  0
   43.3230   69.0490   61.2550 C   0  0  0  0  0  0  0  0  0  0  0  0
   44.2570   69.9490   59.5340 H   0  0  0  0  0  0  0  0  0  0  0  0
   42.1000   72.5900   62.1950 H   0  0  0  0  0  0  0  0  0  0  0  0
   40.9520   71.1460   64.4120 H   0  0  0  0  0  0  0  0  0  0  0  0
   40.9420   68.6340   65.1350 H   0  0  0  0  0  0  0  0  0  0  0  0
   43.6580   68.0470   61.0060 H   0  0  0  0  0  0  0  0  0  0  0  0
   40.9040   74.2130   57.0190 Cl  0  0  0  0  0  0  0  0  0  0  0  0
   41.1060   75.6740   57.9650 C   0  0  0  0  0  0  0  0  0  0  0  0
   42.1620   75.7300   58.8420 C   0  0  0  0  0  0  0  0  0  0  0  0
   42.2320   76.9180   59.5650 C   0  0  0  0  0  0  0  0  0  0  0  0
   41.3410   77.9600   59.4360 C   0  0  0  0  0  0  0  0  0  0  0  0
   40.2940   77.8370   58.5270 C   0  0  0  0  0  0  0  0  0  0  0  0
   39.1510   79.1350   58.3550 Cl  0  0  0  0  0  0  0  0  0  0  0  0
   40.1800   76.6790   57.7860 C   0  0  0  0  0  0  0  0  0  0  0  0
   43.0330   77.0430   60.2780 H   0  0  0  0  0  0  0  0  0  0  0  0
   41.4690   78.8480   60.0370 H   0  0  0  0  0  0  0  0  0  0  0  0
   39.1250   76.5210   56.8480 N   0  0  0  0  0  0  0  0  0  0  0  0
   38.8780   76.8630   55.4630 C   0  0  0  0  0  2  0  0  0  0  0  0
   37.3610   77.0150   55.4610 C   0  0  0  0  0  2  0  0  0  0  0  0
   36.9580   75.8060   56.3120 C   0  0  0  0  0  2  0  0  0  0  0  0
   37.9850   75.8320   57.4190 C   0  0  0  0  0  3  0  0  0  0  0  0
   38.1750   74.8080   57.7370 H   0  0  0  0  0  0  0  0  0  0  0  0
  1  6  1  0  0  0  0
  2  1  2  0  0  0  0
  2  3  1  0  0  0  0
  3  4  2  0  0  0  0
  4  5  1  0  0  0  0
  5 10  1  0  0  0  0
  6  5  2  0  0  0  0
  7  1  1  0  0  0  0
  8  2  1  0  0  0  0
  9 10  2  0  0  0  0
  9 17  1  0  0  0  0
 10 11  1  0  0  0  0
 11 19  1  0  0  0  0
 11 12  2  0  0  0  0
 12 13  1  0  0  0  0
 13 14  1  0  0  0  0
 13 20  1  0  0  0  0
 14 21  1  0  0  0  0
 15 14  2  0  0  0  0
 16 12  1  0  0  0  0
 16 15  1  0  0  0  0
 17 16  2  0  0  0  0
 18  9  1  0  0  0  0
 22 17  1  0  0  0  0
 23 24  1  0  0  0  0
 24 25  1  0  0  0  0
 25  3  1  0  0  0  0
 25 26  2  0  0  0  0
 26 31  1  0  0  0  0
 27 26  1  0  0  0  0
 27 32  1  0  0  0  0
 28 27  2  0  0  0  0
 29 28  1  0  0  0  0
 30 24  2  0  0  0  0
 30 28  1  0  0  0  0
 33 37  1  0  0  0  0
 33 30  1  0  0  0  0
 34 33  1  0  0  0  0
 35 34  1  0  0  0  0
 35 36  1  0  0  0  0
 36 37  1  0  0  0  0
 37 38  1  0  0  0  0
M  END
>  <minimizedAffinity>
-7.2078557

$$$$

 OpenBabel03212520063D

 38 42  0  0  0  0  0  0  0  0999 V2000
   43.2320   72.6620   56.7480 C   0  0  0  0  0  0  0  0  0  0  0  0
   42.9870   71.3720   57.2430 C   0  0  0  0  0  0  0  0  0  0  0  0
   42.2590   71.2660   58.4030 C   0  0  0  0  0  0  0  0  0  0  0  0
   41.7990   72.3910   59.0320 N   0  0  0  0  0  0  0  0  0  0  0  0
   42.0540   73.6240   58.5220 C   0  0  0  0  0  0  0  0  0  0  0  0
   42.7740   73.7690   57.3760 N   0  0  0  0  0  0  0  0  0  0  0  0
   43.7860   72.8990   55.8580 H   0  0  0  0  0  0  0  0  0  0  0  0
   43.4020   70.6580   56.5760 H   0  0  0  0  0  0  0  0  0  0  0  0
   40.3560   74.6880   59.9270 C   0  0  0  0  0  0  0  0  0  0  0  0
   41.5310   74.8140   59.1760 C   0  0  0  0  0  0  0  0  0  0  0  0
   42.1950   76.0380   59.0670 C   0  0  0  0  0  0  0  0  0  0  0  0
   41.7150   77.1680   59.6970 C   0  0  0  0  0  0  0  0  0  0  0  0
   42.0680   78.4600   59.8180 N   0  0  0  0  0  0  0  0  0  0  0  0
   41.1830   79.1260   60.5960 C   0  0  0  0  0  0  0  0  0  0  0  0
   40.2780   78.2020   60.9460 N   0  0  0  0  0  0  0  0  0  0  0  0
   40.5670   77.0030   60.4200 C   0  0  0  0  0  0  0  0  0  0  0  0
   39.8650   75.8300   60.5670 C   0  0  0  0  0  0  0  0  0  0  0  0
   39.8350   73.7480   60.0170 H   0  0  0  0  0  0  0  0  0  0  0  0
   43.1040   76.1280   58.4830 H   0  0  0  0  0  0  0  0  0  0  0  0
   42.9170   78.8690   59.3630 H   0  0  0  0  0  0  0  0  0  0  0  0
   41.2260   80.1850   60.8600 H   0  0  0  0  0  0  0  0  0  0  0  0
   38.9570   75.7650   61.1570 H   0  0  0  0  0  0  0  0  0  0  0  0
   42.8610   71.0050   61.3070 Cl  0  0  0  0  0  0  0  0  0  0  0  0
   42.2120   69.7130   60.3170 C   0  0  0  0  0  0  0  0  0  0  0  0
   41.9770   69.9760   58.9890 C   0  0  0  0  0  0  0  0  0  0  0  0
   41.4440   68.9000   58.2860 C   0  0  0  0  0  0  0  0  0  0  0  0
   41.1630   67.6710   58.8410 C   0  0  0  0  0  0  0  0  0  0  0  0
   41.4260   67.4710   60.1930 C   0  0  0  0  0  0  0  0  0  0  0  0
   41.0710   65.9320   60.9170 Cl  0  0  0  0  0  0  0  0  0  0  0  0
   41.9560   68.5070   60.9350 C   0  0  0  0  0  0  0  0  0  0  0  0
   41.2290   69.0240   57.2360 H   0  0  0  0  0  0  0  0  0  0  0  0
   40.7490   66.8890   58.2230 H   0  0  0  0  0  0  0  0  0  0  0  0
   42.2380   68.3370   62.3170 N   0  0  0  0  0  0  0  0  0  0  0  0
   41.5150   68.4480   63.5670 C   0  0  0  0  0  2  0  0  0  0  0  0
   42.6380   68.8250   64.5260 C   0  0  0  0  0  2  0  0  0  0  0  0
   43.7410   67.8730   64.0540 C   0  0  0  0  0  2  0  0  0  0  0  0
   43.6140   67.9490   62.5500 C   0  0  0  0  0  3  0  0  0  0  0  0
   43.9010   66.9860   62.1310 H   0  0  0  0  0  0  0  0  0  0  0  0
  1  2  2  0  0  0  0
  1  6  1  0  0  0  0
  2  3  1  0  0  0  0
  3 25  1  0  0  0  0
  3  4  2  0  0  0  0
  5  4  1  0  0  0  0
  5 10  1  0  0  0  0
  6  5  2  0  0  0  0
  7  1  1  0  0  0  0
  8  2  1  0  0  0  0
  9 18  1  0  0  0  0
  9 17  1  0  0  0  0
 10  9  2  0  0  0  0
 11 10  1  0  0  0  0
 11 12  2  0  0  0  0
 12 13  1  0  0  0  0
 12 16  1  0  0  0  0
 13 14  1  0  0  0  0
 14 21  1  0  0  0  0
 14 15  2  0  0  0  0
 16 17  2  0  0  0  0
 16 15  1  0  0  0  0
 17 22  1  0  0  0  0
 19 11  1  0  0  0  0
 20 13  1  0  0  0  0
 24 30  1  0  0  0  0
 24 23  1  0  0  0  0
 25 24  2  0  0  0  0
 26 27  2  0  0  0  0
 26 25  1  0  0  0  0
 27 28  1  0  0  0  0
 28 29  1  0  0  0  0
 28 30  2  0  0  0  0
 30 33  1  0  0  0  0
 31 26  1  0  0  0  0
 32 27  1  0  0  0  0
 33 37  1  0  0  0  0
 33 34  1  0  0  0  0
 34 35  1  0  0  0  0
 36 35  1  0  0  0  0
 37 36  1  0  0  0  0
 38 37  1  0  0  0  0
M  END
>  <minimizedAffinity>
-7.17339659

$$$$

 OpenBabel03212520063D

 38 42  0  0  0  0  0  0  0  0999 V2000
   43.6740   74.6050   59.7180 C   0  0  0  0  0  0  0  0  0  0  0  0
   43.6350   73.4040   60.4430 C   0  0  0  0  0  0  0  0  0  0  0  0
   42.4300   72.7500   60.5220 C   0  0  0  0  0  0  0  0  0  0  0  0
   41.3230   73.2700   59.9060 N   0  0  0  0  0  0  0  0  0  0  0  0
   41.4000   74.4350   59.2110 C   0  0  0  0  0  0  0  0  0  0  0  0
   42.5770   75.1110   59.1120 N   0  0  0  0  0  0  0  0  0  0  0  0
   44.5420   75.2230   59.5730 H   0  0  0  0  0  0  0  0  0  0  0  0
   44.6100   73.1770   60.7960 H   0  0  0  0  0  0  0  0  0  0  0  0
   39.9240   76.3200   58.7010 C   0  0  0  0  0  0  0  0  0  0  0  0
   40.2290   74.9630   58.5280 C   0  0  0  0  0  0  0  0  0  0  0  0
   39.4470   74.1420   57.7120 C   0  0  0  0  0  0  0  0  0  0  0  0
   38.3450   74.6400   57.0480 C   0  0  0  0  0  0  0  0  0  0  0  0
   37.3990   74.1740   56.2120 N   0  0  0  0  0  0  0  0  0  0  0  0
   36.5400   75.1620   55.8660 C   0  0  0  0  0  0  0  0  0  0  0  0
   36.9890   76.2440   56.5160 N   0  0  0  0  0  0  0  0  0  0  0  0
   38.0820   75.9660   57.2420 C   0  0  0  0  0  0  0  0  0  0  0  0
   38.8080   76.8280   58.0300 C   0  0  0  0  0  0  0  0  0  0  0  0
   40.5210   76.9620   59.3290 H   0  0  0  0  0  0  0  0  0  0  0  0
   39.6890   73.0940   57.5840 H   0  0  0  0  0  0  0  0  0  0  0  0
   37.3560   73.1800   55.8890 H   0  0  0  0  0  0  0  0  0  0  0  0
   35.6800   75.0630   55.2010 H   0  0  0  0  0  0  0  0  0  0  0  0
   38.5450   77.8740   58.1430 H   0  0  0  0  0  0  0  0  0  0  0  0
   42.6760   70.2480   58.9280 Cl  0  0  0  0  0  0  0  0  0  0  0  0
   42.3840   70.2890   60.6550 C   0  0  0  0  0  0  0  0  0  0  0  0
   42.2980   71.5170   61.2640 C   0  0  0  0  0  0  0  0  0  0  0  0
   42.0850   71.4530   62.6380 C   0  0  0  0  0  0  0  0  0  0  0  0
   41.9680   70.2810   63.3520 C   0  0  0  0  0  0  0  0  0  0  0  0
   42.0640   69.0710   62.6720 C   0  0  0  0  0  0  0  0  0  0  0  0
   41.9300   67.5790   63.5550 Cl  0  0  0  0  0  0  0  0  0  0  0  0
   42.2750   69.0800   61.3090 C   0  0  0  0  0  0  0  0  0  0  0  0
   42.0070   72.3750   63.1930 H   0  0  0  0  0  0  0  0  0  0  0  0
   41.8040   70.3210   64.4180 H   0  0  0  0  0  0  0  0  0  0  0  0
   42.3760   67.8630   60.5830 N   0  0  0  0  0  0  0  0  0  0  0  0
   41.4810   66.9770   59.8690 C   0  0  0  0  0  2  0  0  0  0  0  0
   42.1900   65.6380   60.0390 C   0  0  0  0  0  2  0  0  0  0  0  0
   43.6420   66.0570   59.7890 C   0  0  0  0  0  2  0  0  0  0  0  0
   43.7360   67.3650   60.5390 C   0  0  0  0  0  3  0  0  0  0  0  0
   44.4480   68.0070   60.0230 H   0  0  0  0  0  0  0  0  0  0  0  0
  1  2  1  0  0  0  0
  2  3  2  0  0  0  0
  2  8  1  0  0  0  0
  3 25  1  0  0  0  0
  4  3  1  0  0  0  0
  5  4  2  0  0  0  0
  6  5  1  0  0  0  0
  6  1  2  0  0  0  0
  7  1  1  0  0  0  0
  9 18  1  0  0  0  0
 10  9  1  0  0  0  0
 10  5  1  0  0  0  0
 11 10  2  0  0  0  0
 12 16  2  0  0  0  0
 12 11  1  0  0  0  0
 13 12  1  0  0  0  0
 14 13  1  0  0  0  0
 14 15  2  0  0  0  0
 15 16  1  0  0  0  0
 16 17  1  0  0  0  0
 17 22  1  0  0  0  0
 17  9  2  0  0  0  0
 19 11  1  0  0  0  0
 20 13  1  0  0  0  0
 21 14  1  0  0  0  0
 23 24  1  0  0  0  0
 24 25  2  0  0  0  0
 24 30  1  0  0  0  0
 25 26  1  0  0  0  0
 26 31  1  0  0  0  0
 26 27  2  0  0  0  0
 27 32  1  0  0  0  0
 28 27  1  0  0  0  0
 28 29  1  0  0  0  0
 30 28  2  0  0  0  0
 33 30  1  0  0  0  0
 34 35  1  0  0  0  0
 34 33  1  0  0  0  0
 36 35  1  0  0  0  0
 36 37  1  0  0  0  0
 37 33  1  0  0  0  0
 38 37  1  0  0  0  0
M  END
>  <minimizedAffinity>
-7.15769005

$$$$

 OpenBabel03212520063D

 38 42  0  0  0  0  0  0  0  0999 V2000
   44.7690   73.6150   58.8880 C   0  0  0  0  0  0  0  0  0  0  0  0
   43.9400   74.7070   58.5870 C   0  0  0  0  0  0  0  0  0  0  0  0
   42.6710   74.7030   59.1110 C   0  0  0  0  0  0  0  0  0  0  0  0
   42.2540   73.6620   59.8970 N   0  0  0  0  0  0  0  0  0  0  0  0
   43.0860   72.6230   60.1690 C   0  0  0  0  0  0  0  0  0  0  0  0
   44.3500   72.5920   59.6650 N   0  0  0  0  0  0  0  0  0  0  0  0
   45.7800   73.4810   58.5470 H   0  0  0  0  0  0  0  0  0  0  0  0
   44.4820   75.4050   57.9990 H   0  0  0  0  0  0  0  0  0  0  0  0
   42.3060   71.8510   62.3570 C   0  0  0  0  0  0  0  0  0  0  0  0
   42.6500   71.5380   61.0350 C   0  0  0  0  0  0  0  0  0  0  0  0
   42.5640   70.2300   60.5530 C   0  0  0  0  0  0  0  0  0  0  0  0
   42.1360   69.1990   61.3630 C   0  0  0  0  0  0  0  0  0  0  0  0
   41.9300   67.8740   61.2540 N   0  0  0  0  0  0  0  0  0  0  0  0
   41.4820   67.3630   62.4250 C   0  0  0  0  0  0  0  0  0  0  0  0
   41.4210   68.4150   63.2520 N   0  0  0  0  0  0  0  0  0  0  0  0
   41.8090   69.5450   62.6440 C   0  0  0  0  0  0  0  0  0  0  0  0
   41.8720   70.8080   63.1820 C   0  0  0  0  0  0  0  0  0  0  0  0
   42.3700   72.8570   62.7400 H   0  0  0  0  0  0  0  0  0  0  0  0
   42.8320   69.9970   59.5300 H   0  0  0  0  0  0  0  0  0  0  0  0
   42.1000   67.3370   60.3730 H   0  0  0  0  0  0  0  0  0  0  0  0
   41.2350   66.3170   62.6180 H   0  0  0  0  0  0  0  0  0  0  0  0
   41.5990   71.0180   64.2110 H   0  0  0  0  0  0  0  0  0  0  0  0
   40.7280   74.2120   56.9080 Cl  0  0  0  0  0  0  0  0  0  0  0  0
   40.8020   75.6920   57.8440 C   0  0  0  0  0  0  0  0  0  0  0  0
   41.7470   75.7790   58.8360 C   0  0  0  0  0  0  0  0  0  0  0  0
   41.7190   76.9800   59.5380 C   0  0  0  0  0  0  0  0  0  0  0  0
   40.8360   78.0070   59.2880 C   0  0  0  0  0  0  0  0  0  0  0  0
   39.9030   77.8530   58.2660 C   0  0  0  0  0  0  0  0  0  0  0  0
   38.7720   79.1310   57.9380 Cl  0  0  0  0  0  0  0  0  0  0  0  0
   39.8900   76.6810   57.5400 C   0  0  0  0  0  0  0  0  0  0  0  0
   42.4300   77.1300   60.3370 H   0  0  0  0  0  0  0  0  0  0  0  0
   40.8830   78.9070   59.8820 H   0  0  0  0  0  0  0  0  0  0  0  0
   38.9520   76.4900   56.4890 N   0  0  0  0  0  0  0  0  0  0  0  0
   38.9060   76.7070   55.0580 C   0  0  0  0  0  2  0  0  0  0  0  0
   37.4150   76.9440   54.8430 C   0  0  0  0  0  2  0  0  0  0  0  0
   36.8260   75.8500   55.7390 C   0  0  0  0  0  2  0  0  0  0  0  0
   37.7050   75.9270   56.9650 C   0  0  0  0  0  3  0  0  0  0  0  0
   37.7820   74.9310   57.3970 H   0  0  0  0  0  0  0  0  0  0  0  0
  1  6  1  0  0  0  0
  2  1  2  0  0  0  0
  2  3  1  0  0  0  0
  3  4  2  0  0  0  0
  4  5  1  0  0  0  0
  5 10  1  0  0  0  0
  6  5  2  0  0  0  0
  7  1  1  0  0  0  0
  8  2  1  0  0  0  0
  9 18  1  0  0  0  0
  9 17  1  0  0  0  0
 10  9  2  0  0  0  0
 11 10  1  0  0  0  0
 11 12  2  0  0  0  0
 12 16  1  0  0  0  0
 13 12  1  0  0  0  0
 13 14  1  0  0  0  0
 14 21  1  0  0  0  0
 14 15  2  0  0  0  0
 16 17  2  0  0  0  0
 16 15  1  0  0  0  0
 17 22  1  0  0  0  0
 19 11  1  0  0  0  0
 20 13  1  0  0  0  0
 23 24  1  0  0  0  0
 24 25  1  0  0  0  0
 25  3  1  0  0  0  0
 25 26  2  0  0  0  0
 26 31  1  0  0  0  0
 27 26  1  0  0  0  0
 27 32  1  0  0  0  0
 28 27  2  0  0  0  0
 29 28  1  0  0  0  0
 30 24  2  0  0  0  0
 30 28  1  0  0  0  0
 33 37  1  0  0  0  0
 33 30  1  0  0  0  0
 34 33  1  0  0  0  0
 35 34  1  0  0  0  0
 35 36  1  0  0  0  0
 36 37  1  0  0  0  0
 37 38  1  0  0  0  0
M  END
>  <minimizedAffinity>
-7.00118303

$$$$

 OpenBabel03212520063D

 38 42  0  0  0  0  0  0  0  0999 V2000
   44.4470   74.2330   60.0370 C   0  0  0  0  0  0  0  0  0  0  0  0
   43.4920   75.0250   59.3820 C   0  0  0  0  0  0  0  0  0  0  0  0
   42.1990   74.5650   59.3540 C   0  0  0  0  0  0  0  0  0  0  0  0
   41.8780   73.3770   59.9520 N   0  0  0  0  0  0  0  0  0  0  0  0
   42.8290   72.6370   60.5800 C   0  0  0  0  0  0  0  0  0  0  0  0
   44.1230   73.0600   60.6260 N   0  0  0  0  0  0  0  0  0  0  0  0
   45.4930   74.4630   60.1360 H   0  0  0  0  0  0  0  0  0  0  0  0
   43.9570   75.9130   59.0320 H   0  0  0  0  0  0  0  0  0  0  0  0
   42.5790   70.2030   60.5120 C   0  0  0  0  0  0  0  0  0  0  0  0
   42.4750   71.3930   61.2450 C   0  0  0  0  0  0  0  0  0  0  0  0
   42.0610   71.3890   62.5790 C   0  0  0  0  0  0  0  0  0  0  0  0
   41.7400   70.2120   63.2220 C   0  0  0  0  0  0  0  0  0  0  0  0
   41.3250   69.8320   64.4440 N   0  0  0  0  0  0  0  0  0  0  0  0
   41.1720   68.4880   64.5000 C   0  0  0  0  0  0  0  0  0  0  0  0
   41.5040   68.0590   63.2760 N   0  0  0  0  0  0  0  0  0  0  0  0
   41.8550   69.0750   62.4740 C   0  0  0  0  0  0  0  0  0  0  0  0
   42.2540   69.0080   61.1600 C   0  0  0  0  0  0  0  0  0  0  0  0
   42.8970   70.1950   59.4810 H   0  0  0  0  0  0  0  0  0  0  0  0
   41.9830   72.3130   63.1390 H   0  0  0  0  0  0  0  0  0  0  0  0
   41.1530   70.5050   65.2270 H   0  0  0  0  0  0  0  0  0  0  0  0
   40.8450   67.9130   65.3690 H   0  0  0  0  0  0  0  0  0  0  0  0
   42.3240   68.0690   60.6190 H   0  0  0  0  0  0  0  0  0  0  0  0
   41.8840   74.0250   56.4430 Cl  0  0  0  0  0  0  0  0  0  0  0  0
   40.9050   75.1660   57.3440 C   0  0  0  0  0  0  0  0  0  0  0  0
   41.1570   75.3110   58.6860 C   0  0  0  0  0  0  0  0  0  0  0  0
   40.3200   76.2220   59.3230 C   0  0  0  0  0  0  0  0  0  0  0  0
   39.3190   76.9290   58.6940 C   0  0  0  0  0  0  0  0  0  0  0  0
   39.1180   76.7350   57.3310 C   0  0  0  0  0  0  0  0  0  0  0  0
   37.8540   77.6090   56.5180 Cl  0  0  0  0  0  0  0  0  0  0  0  0
   39.9220   75.8430   56.6530 C   0  0  0  0  0  0  0  0  0  0  0  0
   40.4510   76.3940   60.3800 H   0  0  0  0  0  0  0  0  0  0  0  0
   38.7140   77.6180   59.2640 H   0  0  0  0  0  0  0  0  0  0  0  0
   39.7450   75.6210   55.2600 N   0  0  0  0  0  0  0  0  0  0  0  0
   40.2690   76.1670   54.0250 C   0  0  0  0  0  2  0  0  0  0  0  0
   39.0980   75.9330   53.0780 C   0  0  0  0  0  2  0  0  0  0  0  0
   38.6870   74.5140   53.4860 C   0  0  0  0  0  2  0  0  0  0  0  0
   38.7870   74.5680   54.9920 C   0  0  0  0  0  3  0  0  0  0  0  0
   39.0700   73.5820   55.3540 H   0  0  0  0  0  0  0  0  0  0  0  0
  1  7  1  0  0  0  0
  1  6  1  0  0  0  0
  2  1  2  0  0  0  0
  3  2  1  0  0  0  0
  3  4  2  0  0  0  0
  4  5  1  0  0  0  0
  5  6  2  0  0  0  0
  5 10  1  0  0  0  0
  8  2  1  0  0  0  0
  9 17  2  0  0  0  0
  9 10  1  0  0  0  0
 10 11  2  0  0  0  0
 11 19  1  0  0  0  0
 11 12  1  0  0  0  0
 12 13  1  0  0  0  0
 13 14  1  0  0  0  0
 13 20  1  0  0  0  0
 14 21  1  0  0  0  0
 15 14  2  0  0  0  0
 16 12  2  0  0  0  0
 16 15  1  0  0  0  0
 17 16  1  0  0  0  0
 18  9  1  0  0  0  0
 22 17  1  0  0  0  0
 23 24  1  0  0  0  0
 24 25  1  0  0  0  0
 25 26  2  0  0  0  0
 25  3  1  0  0  0  0
 26 31  1  0  0  0  0
 27 32  1  0  0  0  0
 27 26  1  0  0  0  0
 28 27  2  0  0  0  0
 29 28  1  0  0  0  0
 30 28  1  0  0  0  0
 30 24  2  0  0  0  0
 33 30  1  0  0  0  0
 34 33  1  0  0  0  0
 35 36  1  0  0  0  0
 35 34  1  0  0  0  0
 36 37  1  0  0  0  0
 37 33  1  0  0  0  0
 37 38  1  0  0  0  0
M  END
>  <minimizedAffinity>
-6.9985528

$$$$

 OpenBabel03212520063D

 38 42  0  0  0  0  0  0  0  0999 V2000
   43.5230   69.9830   58.1060 C   0  0  0  0  0  0  0  0  0  0  0  0
   42.7860   71.1410   57.8160 C   0  0  0  0  0  0  0  0  0  0  0  0
   41.7550   71.4650   58.6620 C   0  0  0  0  0  0  0  0  0  0  0  0
   41.4780   70.6720   59.7440 N   0  0  0  0  0  0  0  0  0  0  0  0
   42.2150   69.5590   59.9950 C   0  0  0  0  0  0  0  0  0  0  0  0
   43.2440   69.2060   59.1760 N   0  0  0  0  0  0  0  0  0  0  0  0
   44.3520   69.6060   57.5340 H   0  0  0  0  0  0  0  0  0  0  0  0
   43.2010   71.6130   56.9600 H   0  0  0  0  0  0  0  0  0  0  0  0
   42.3550   69.2220   62.4150 C   0  0  0  0  0  0  0  0  0  0  0  0
   41.9400   68.7420   61.1660 C   0  0  0  0  0  0  0  0  0  0  0  0
   41.2660   67.5240   61.0450 C   0  0  0  0  0  0  0  0  0  0  0  0
   40.9860   66.7510   62.1530 C   0  0  0  0  0  0  0  0  0  0  0  0
   40.3820   65.5780   62.4150 N   0  0  0  0  0  0  0  0  0  0  0  0
   40.4020   65.3170   63.7430 C   0  0  0  0  0  0  0  0  0  0  0  0
   41.0390   66.3650   64.2840 N   0  0  0  0  0  0  0  0  0  0  0  0
   41.4070   67.2540   63.3510 C   0  0  0  0  0  0  0  0  0  0  0  0
   42.0740   68.4420   63.5400 C   0  0  0  0  0  0  0  0  0  0  0  0
   42.8760   70.1610   62.5200 H   0  0  0  0  0  0  0  0  0  0  0  0
   40.9490   67.1590   60.0750 H   0  0  0  0  0  0  0  0  0  0  0  0
   39.9600   64.9710   61.6740 H   0  0  0  0  0  0  0  0  0  0  0  0
   39.9840   64.4350   64.2320 H   0  0  0  0  0  0  0  0  0  0  0  0
   42.3830   68.7860   64.5220 H   0  0  0  0  0  0  0  0  0  0  0  0
   42.4560   73.8850   60.2470 Cl  0  0  0  0  0  0  0  0  0  0  0  0
   41.1410   73.8130   59.0910 C   0  0  0  0  0  0  0  0  0  0  0  0
   40.9340   72.6300   58.4260 C   0  0  0  0  0  0  0  0  0  0  0  0
   39.8830   72.6710   57.5140 C   0  0  0  0  0  0  0  0  0  0  0  0
   39.1030   73.7820   57.2770 C   0  0  0  0  0  0  0  0  0  0  0  0
   39.3670   74.9490   57.9870 C   0  0  0  0  0  0  0  0  0  0  0  0
   38.4020   76.3660   57.6970 Cl  0  0  0  0  0  0  0  0  0  0  0  0
   40.3980   74.9600   58.9030 C   0  0  0  0  0  0  0  0  0  0  0  0
   39.6540   71.7820   56.9480 H   0  0  0  0  0  0  0  0  0  0  0  0
   38.3060   73.7280   56.5510 H   0  0  0  0  0  0  0  0  0  0  0  0
   40.6940   76.1340   59.6470 N   0  0  0  0  0  0  0  0  0  0  0  0
   40.1760   76.8030   60.8220 C   0  0  0  0  0  2  0  0  0  0  0  0
   40.5230   78.2550   60.5150 C   0  0  0  0  0  2  0  0  0  0  0  0
   41.9430   78.0920   59.9630 C   0  0  0  0  0  2  0  0  0  0  0  0
   41.8140   76.8650   59.0900 C   0  0  0  0  0  3  0  0  0  0  0  0
   42.7640   76.3350   59.0990 H   0  0  0  0  0  0  0  0  0  0  0  0
  1  6  1  0  0  0  0
  2  1  2  0  0  0  0
  2  3  1  0  0  0  0
  3  4  2  0  0  0  0
  4  5  1  0  0  0  0
  5 10  1  0  0  0  0
  6  5  2  0  0  0  0
  7  1  1  0  0  0  0
  8  2  1  0  0  0  0
  9 18  1  0  0  0  0
  9 17  1  0  0  0  0
 10  9  2  0  0  0  0
 11 10  1  0  0  0  0
 11 12  2  0  0  0  0
 12 13  1  0  0  0  0
 12 16  1  0  0  0  0
 13 14  1  0  0  0  0
 14 21  1  0  0  0  0
 14 15  2  0  0  0  0
 16 17  2  0  0  0  0
 16 15  1  0  0  0  0
 17 22  1  0  0  0  0
 19 11  1  0  0  0  0
 20 13  1  0  0  0  0
 24 23  1  0  0  0  0
 25  3  1  0  0  0  0
 25 24  2  0  0  0  0
 26 25  1  0  0  0  0
 27 26  2  0  0  0  0
 27 28  1  0  0  0  0
 28 30  2  0  0  0  0
 29 28  1  0  0  0  0
 30 24  1  0  0  0  0
 30 33  1  0  0  0  0
 31 26  1  0  0  0  0
 32 27  1  0  0  0  0
 33 34  1  0  0  0  0
 35 34  1  0  0  0  0
 36 35  1  0  0  0  0
 37 38  1  0  0  0  0
 37 33  1  0  0  0  0
 37 36  1  0  0  0  0
M  END
>  <minimizedAffinity>
-6.87509155

$$$$

 OpenBabel03212520063D

 38 42  0  0  0  0  0  0  0  0999 V2000
   39.8700   76.3790   60.7850 C   0  0  0  0  0  0  0  0  0  0  0  0
   39.2640   76.5120   59.5260 C   0  0  0  0  0  0  0  0  0  0  0  0
   39.2450   75.4070   58.7120 C   0  0  0  0  0  0  0  0  0  0  0  0
   39.8010   74.2300   59.1360 N   0  0  0  0  0  0  0  0  0  0  0  0
   40.3770   74.1380   60.3630 C   0  0  0  0  0  0  0  0  0  0  0  0
   40.4160   75.2130   61.1970 N   0  0  0  0  0  0  0  0  0  0  0  0
   39.9610   77.1550   61.5240 H   0  0  0  0  0  0  0  0  0  0  0  0
   38.8710   77.4930   59.4310 H   0  0  0  0  0  0  0  0  0  0  0  0
   41.6510   72.0990   59.9020 C   0  0  0  0  0  0  0  0  0  0  0  0
   40.9330   72.8740   60.8220 C   0  0  0  0  0  0  0  0  0  0  0  0
   40.7670   72.4600   62.1460 C   0  0  0  0  0  0  0  0  0  0  0  0
   41.3050   71.2710   62.5930 C   0  0  0  0  0  0  0  0  0  0  0  0
   41.3540   70.5780   63.7450 N   0  0  0  0  0  0  0  0  0  0  0  0
   42.0560   69.4320   63.5830 C   0  0  0  0  0  0  0  0  0  0  0  0
   42.4340   69.4460   62.2970 N   0  0  0  0  0  0  0  0  0  0  0  0
   41.9980   70.5460   61.6660 C   0  0  0  0  0  0  0  0  0  0  0  0
   42.1970   70.8930   60.3510 C   0  0  0  0  0  0  0  0  0  0  0  0
   41.7840   72.4080   58.8770 H   0  0  0  0  0  0  0  0  0  0  0  0
   40.2100   73.0650   62.8510 H   0  0  0  0  0  0  0  0  0  0  0  0
   40.9020   70.9030   64.6310 H   0  0  0  0  0  0  0  0  0  0  0  0
   42.2510   68.6820   64.3520 H   0  0  0  0  0  0  0  0  0  0  0  0
   42.7580   70.2700   59.6630 H   0  0  0  0  0  0  0  0  0  0  0  0
   41.0090   76.4490   56.5500 Cl  0  0  0  0  0  0  0  0  0  0  0  0
   39.3530   75.9280   56.3050 C   0  0  0  0  0  0  0  0  0  0  0  0
   38.6570   75.4630   57.3930 C   0  0  0  0  0  0  0  0  0  0  0  0
   37.3590   75.0540   57.1010 C   0  0  0  0  0  0  0  0  0  0  0  0
   36.7960   75.0960   55.8450 C   0  0  0  0  0  0  0  0  0  0  0  0
   37.5570   75.5790   54.7850 C   0  0  0  0  0  0  0  0  0  0  0  0
   36.8700   75.6320   53.1890 Cl  0  0  0  0  0  0  0  0  0  0  0  0
   38.8500   75.9980   55.0230 C   0  0  0  0  0  0  0  0  0  0  0  0
   36.7440   74.6740   57.9020 H   0  0  0  0  0  0  0  0  0  0  0  0
   35.7800   74.7570   55.7050 H   0  0  0  0  0  0  0  0  0  0  0  0
   39.6550   76.4990   53.9640 N   0  0  0  0  0  0  0  0  0  0  0  0
   40.5930   75.9600   53.0010 C   0  0  0  0  0  2  0  0  0  0  0  0
   41.5020   77.1620   52.7690 C   0  0  0  0  0  2  0  0  0  0  0  0
   40.4630   78.2850   52.6800 C   0  0  0  0  0  2  0  0  0  0  0  0
   39.5050   77.9290   53.7930 C   0  0  0  0  0  3  0  0  0  0  0  0
   38.5080   78.2590   53.5070 H   0  0  0  0  0  0  0  0  0  0  0  0
  1  6  1  0  0  0  0
  1  7  1  0  0  0  0
  2  1  2  0  0  0  0
  3  4  2  0  0  0  0
  3  2  1  0  0  0  0
  4  5  1  0  0  0  0
  5 10  1  0  0  0  0
  5  6  2  0  0  0  0
  8  2  1  0  0  0  0
  9 17  2  0  0  0  0
  9 10  1  0  0  0  0
 10 11  2  0  0  0  0
 11 12  1  0  0  0  0
 11 19  1  0  0  0  0
 12 13  1  0  0  0  0
 13 20  1  0  0  0  0
 14 13  1  0  0  0  0
 14 21  1  0  0  0  0
 15 14  2  0  0  0  0
 16 15  1  0  0  0  0
 16 12  2  0  0  0  0
 17 16  1  0  0  0  0
 18  9  1  0  0  0  0
 22 17  1  0  0  0  0
 24 23  1  0  0  0  0
 24 25  1  0  0  0  0
 25  3  1  0  0  0  0
 26 25  2  0  0  0  0
 26 31  1  0  0  0  0
 27 26  1  0  0  0  0
 28 30  1  0  0  0  0
 28 27  2  0  0  0  0
 29 28  1  0  0  0  0
 30 24  2  0  0  0  0
 32 27  1  0  0  0  0
 33 30  1  0  0  0  0
 34 33  1  0  0  0  0
 35 34  1  0  0  0  0
 36 35  1  0  0  0  0
 36 37  1  0  0  0  0
 37 33  1  0  0  0  0
 38 37  1  0  0  0  0
M  END
>  <minimizedAffinity>
-6.59921455

$$$$

 OpenBabel03212520063D

 38 42  0  0  0  0  0  0  0  0999 V2000
   43.4490   70.0450   57.1390 C   0  0  0  0  0  0  0  0  0  0  0  0
   42.9340   71.3380   57.3170 C   0  0  0  0  0  0  0  0  0  0  0  0
   42.0780   71.5390   58.3710 C   0  0  0  0  0  0  0  0  0  0  0  0
   41.7550   70.5020   59.2030 N   0  0  0  0  0  0  0  0  0  0  0  0
   42.2740   69.2630   59.0010 C   0  0  0  0  0  0  0  0  0  0  0  0
   43.1260   69.0250   57.9650 N   0  0  0  0  0  0  0  0  0  0  0  0
   44.1250   69.7390   56.3600 H   0  0  0  0  0  0  0  0  0  0  0  0
   43.3500   71.9830   56.5840 H   0  0  0  0  0  0  0  0  0  0  0  0
   41.9480   66.8690   59.3960 C   0  0  0  0  0  0  0  0  0  0  0  0
   41.9570   68.1730   59.9100 C   0  0  0  0  0  0  0  0  0  0  0  0
   41.6860   68.4230   61.2570 C   0  0  0  0  0  0  0  0  0  0  0  0
   41.4000   67.3930   62.1300 C   0  0  0  0  0  0  0  0  0  0  0  0
   41.1050   67.2540   63.4350 N   0  0  0  0  0  0  0  0  0  0  0  0
   40.9200   65.9500   63.7460 C   0  0  0  0  0  0  0  0  0  0  0  0
   41.1090   65.2970   62.5920 N   0  0  0  0  0  0  0  0  0  0  0  0
   41.4020   66.1380   61.5900 C   0  0  0  0  0  0  0  0  0  0  0  0
   41.6580   65.8230   60.2770 C   0  0  0  0  0  0  0  0  0  0  0  0
   42.1550   66.6650   58.3570 H   0  0  0  0  0  0  0  0  0  0  0  0
   41.6940   69.4340   61.6470 H   0  0  0  0  0  0  0  0  0  0  0  0
   41.0360   68.0610   64.0980 H   0  0  0  0  0  0  0  0  0  0  0  0
   40.6700   65.5520   64.7320 H   0  0  0  0  0  0  0  0  0  0  0  0
   41.6440   64.8020   59.9090 H   0  0  0  0  0  0  0  0  0  0  0  0
   39.9690   72.3890   56.4470 Cl  0  0  0  0  0  0  0  0  0  0  0  0
   40.5110   73.3560   57.8050 C   0  0  0  0  0  0  0  0  0  0  0  0
   41.4890   72.8360   58.6160 C   0  0  0  0  0  0  0  0  0  0  0  0
   41.8420   73.6630   59.6780 C   0  0  0  0  0  0  0  0  0  0  0  0
   41.2780   74.8960   59.9220 C   0  0  0  0  0  0  0  0  0  0  0  0
   40.2910   75.3640   59.0600 C   0  0  0  0  0  0  0  0  0  0  0  0
   39.5590   76.9130   59.3550 Cl  0  0  0  0  0  0  0  0  0  0  0  0
   39.9070   74.5820   57.9910 C   0  0  0  0  0  0  0  0  0  0  0  0
   42.6040   73.3280   60.3640 H   0  0  0  0  0  0  0  0  0  0  0  0
   41.6100   75.4750   60.7710 H   0  0  0  0  0  0  0  0  0  0  0  0
   38.9030   75.0290   57.0900 N   0  0  0  0  0  0  0  0  0  0  0  0
   38.8350   75.8630   55.9080 C   0  0  0  0  0  2  0  0  0  0  0  0
   37.4140   76.4040   56.0080 C   0  0  0  0  0  2  0  0  0  0  0  0
   36.6600   75.1360   56.4200 C   0  0  0  0  0  2  0  0  0  0  0  0
   37.5920   74.5200   57.4360 C   0  0  0  0  0  3  0  0  0  0  0  0
   37.4880   73.4370   57.3870 H   0  0  0  0  0  0  0  0  0  0  0  0
  1  2  2  0  0  0  0
  1  6  1  0  0  0  0
  2  3  1  0  0  0  0
  3 25  1  0  0  0  0
  3  4  2  0  0  0  0
  5  4  1  0  0  0  0
  5 10  1  0  0  0  0
  6  5  2  0  0  0  0
  7  1  1  0  0  0  0
  8  2  1  0  0  0  0
  9 10  2  0  0  0  0
  9 17  1  0  0  0  0
 10 11  1  0  0  0  0
 11 19  1  0  0  0  0
 11 12  2  0  0  0  0
 12 13  1  0  0  0  0
 13 14  1  0  0  0  0
 13 20  1  0  0  0  0
 14 21  1  0  0  0  0
 15 14  2  0  0  0  0
 16 12  1  0  0  0  0
 16 15  1  0  0  0  0
 17 16  2  0  0  0  0
 18  9  1  0  0  0  0
 22 17  1  0  0  0  0
 23 24  1  0  0  0  0
 24 30  2  0  0  0  0
 24 25  1  0  0  0  0
 25 26  2  0  0  0  0
 26 27  1  0  0  0  0
 26 31  1  0  0  0  0
 27 32  1  0  0  0  0
 28 29  1  0  0  0  0
 28 27  2  0  0  0  0
 30 28  1  0  0  0  0
 33 37  1  0  0  0  0
 33 30  1  0  0  0  0
 34 35  1  0  0  0  0
 34 33  1  0  0  0  0
 35 36  1  0  0  0  0
 36 37  1  0  0  0  0
 38 37  1  0  0  0  0
M  END
>  <minimizedAffinity>
-6.59365034

$$$$

 OpenBabel03212520063D

 38 42  0  0  0  0  0  0  0  0999 V2000
   39.5480   75.9910   60.8090 C   0  0  0  0  0  0  0  0  0  0  0  0
   39.5380   76.2610   59.4320 C   0  0  0  0  0  0  0  0  0  0  0  0
   40.1820   75.3730   58.6070 C   0  0  0  0  0  0  0  0  0  0  0  0
   40.8020   74.2710   59.1310 N   0  0  0  0  0  0  0  0  0  0  0  0
   40.7890   74.0410   60.4700 C   0  0  0  0  0  0  0  0  0  0  0  0
   40.1620   74.9000   61.3190 N   0  0  0  0  0  0  0  0  0  0  0  0
   39.0900   76.5950   61.5710 H   0  0  0  0  0  0  0  0  0  0  0  0
   38.9700   77.1400   59.2530 H   0  0  0  0  0  0  0  0  0  0  0  0
   42.4980   72.2950   60.3200 C   0  0  0  0  0  0  0  0  0  0  0  0
   41.4170   72.8480   61.0180 C   0  0  0  0  0  0  0  0  0  0  0  0
   40.9630   72.2870   62.2140 C   0  0  0  0  0  0  0  0  0  0  0  0
   41.5640   71.1670   62.7490 C   0  0  0  0  0  0  0  0  0  0  0  0
   41.4120   70.3830   63.8320 N   0  0  0  0  0  0  0  0  0  0  0  0
   42.3330   69.3910   63.8350 C   0  0  0  0  0  0  0  0  0  0  0  0
   43.0510   69.5910   62.7220 N   0  0  0  0  0  0  0  0  0  0  0  0
   42.6140   70.6580   62.0380 C   0  0  0  0  0  0  0  0  0  0  0  0
   43.1100   71.1590   60.8580 C   0  0  0  0  0  0  0  0  0  0  0  0
   42.8560   72.7200   59.3950 H   0  0  0  0  0  0  0  0  0  0  0  0
   40.1260   72.7210   62.7490 H   0  0  0  0  0  0  0  0  0  0  0  0
   40.6760   70.5420   64.5580 H   0  0  0  0  0  0  0  0  0  0  0  0
   42.4380   68.6130   64.5950 H   0  0  0  0  0  0  0  0  0  0  0  0
   43.9490   70.7070   60.3400 H   0  0  0  0  0  0  0  0  0  0  0  0
   37.5950   76.0630   57.3050 Cl  0  0  0  0  0  0  0  0  0  0  0  0
   39.1150   75.9040   56.4480 C   0  0  0  0  0  0  0  0  0  0  0  0
   40.2340   75.5860   57.1780 C   0  0  0  0  0  0  0  0  0  0  0  0
   41.3980   75.5010   56.4200 C   0  0  0  0  0  0  0  0  0  0  0  0
   41.4570   75.7110   55.0600 C   0  0  0  0  0  0  0  0  0  0  0  0
   40.2840   76.0300   54.3810 C   0  0  0  0  0  0  0  0  0  0  0  0
   40.3360   76.3110   52.6660 Cl  0  0  0  0  0  0  0  0  0  0  0  0
   39.1040   76.1270   55.0870 C   0  0  0  0  0  0  0  0  0  0  0  0
   42.3240   75.2550   56.9180 H   0  0  0  0  0  0  0  0  0  0  0  0
   42.4030   75.6250   54.5480 H   0  0  0  0  0  0  0  0  0  0  0  0
   37.8880   76.4490   54.4260 N   0  0  0  0  0  0  0  0  0  0  0  0
   36.8300   75.7320   53.7450 C   0  0  0  0  0  2  0  0  0  0  0  0
   36.3500   76.7840   52.7520 C   0  0  0  0  0  2  0  0  0  0  0  0
   36.3440   78.0290   53.6440 C   0  0  0  0  0  2  0  0  0  0  0  0
   37.6260   77.8730   54.4280 C   0  0  0  0  0  3  0  0  0  0  0  0
   37.4840   78.3170   55.4110 H   0  0  0  0  0  0  0  0  0  0  0  0
  1  6  1  0  0  0  0
  1  7  1  0  0  0  0
  2  1  2  0  0  0  0
  3  4  2  0  0  0  0
  3  2  1  0  0  0  0
  4  5  1  0  0  0  0
  5 10  1  0  0  0  0
  5  6  2  0  0  0  0
  8  2  1  0  0  0  0
  9 17  2  0  0  0  0
  9 10  1  0  0  0  0
 10 11  2  0  0  0  0
 11 19  1  0  0  0  0
 11 12  1  0  0  0  0
 12 13  1  0  0  0  0
 13 14  1  0  0  0  0
 13 20  1  0  0  0  0
 14 21  1  0  0  0  0
 15 14  2  0  0  0  0
 16 15  1  0  0  0  0
 16 12  2  0  0  0  0
 17 16  1  0  0  0  0
 18  9  1  0  0  0  0
 22 17  1  0  0  0  0
 24 25  1  0  0  0  0
 24 23  1  0  0  0  0
 25  3  1  0  0  0  0
 26 31  1  0  0  0  0
 26 25  2  0  0  0  0
 27 26  1  0  0  0  0
 28 27  2  0  0  0  0
 28 30  1  0  0  0  0
 29 28  1  0  0  0  0
 30 24  2  0  0  0  0
 32 27  1  0  0  0  0
 33 37  1  0  0  0  0
 33 30  1  0  0  0  0
 34 33  1  0  0  0  0
 35 36  1  0  0  0  0
 35 34  1  0  0  0  0
 36 37  1  0  0  0  0
 37 38  1  0  0  0  0
M  END
>  <minimizedAffinity>
-6.58839273

$$$$
