
 OpenBabel03212520073D

 15 16  0  0  0  0  0  0  0  0999 V2000
   40.0560   82.0080   60.6370 C   0  0  0  0  0  0  0  0  0  0  0  0
   40.1080   82.9370   59.5880 C   0  0  0  0  0  0  0  0  0  0  0  0
   39.5290   84.2020   59.8040 C   0  0  0  0  0  0  0  0  0  0  0  0
   38.9520   84.4490   61.0200 N   0  0  0  0  0  0  0  0  0  0  0  0
   38.9200   83.5260   62.0110 C   0  0  0  0  0  0  0  0  0  0  0  0
   39.4750   82.3150   61.8000 N   0  0  0  0  0  0  0  0  0  0  0  0
   40.5230   81.0520   60.3940 H   0  0  0  0  0  0  0  0  0  0  0  0
   39.4670   85.0300   59.1440 H   0  0  0  0  0  0  0  0  0  0  0  0
   38.4580   83.7410   62.9660 H   0  0  0  0  0  0  0  0  0  0  0  0
   40.6750   82.7690   58.3170 N   0  0  0  0  0  0  0  0  0  0  0  0
   41.5370   83.6160   57.5100 C   0  0  0  0  0  0  0  0  0  0  0  0
   42.7400   82.6910   57.3210 C   0  0  0  0  0  0  0  0  0  0  0  0
   42.0320   81.3620   57.1000 C   0  0  0  0  0  0  0  0  0  0  0  0
   40.5630   81.6390   57.3810 C   0  0  0  0  0  0  0  0  0  0  0  0
   40.0460   80.7800   57.8080 H   0  0  0  0  0  0  0  0  0  0  0  0
  1  6  1  0  0  0  0
  2  3  1  0  0  0  0
  2  1  2  0  0  0  0
  3  4  2  0  0  0  0
  4  5  1  0  0  0  0
  5  9  1  0  0  0  0
  6  5  2  0  0  0  0
  7  1  1  0  0  0  0
  8  3  1  0  0  0  0
 10  2  1  0  0  0  0
 11 10  1  0  0  0  0
 12 11  1  0  0  0  0
 13 12  1  0  0  0  0
 13 14  1  0  0  0  0
 14 15  1  0  0  0  0
 14 10  1  0  0  0  0
M  END
>  <minimizedAffinity>
-3.83490276

>  <minimizedRMSD>
0.369103938

$$$$
