
 OpenBabel03212520073D

 15 16  0  0  0  0  0  0  0  0999 V2000
   40.1480   81.9440   61.1370 C   0  0  0  0  0  0  0  0  0  0  0  0
   40.3760   82.6940   59.9740 C   0  0  0  0  0  0  0  0  0  0  0  0
   39.7570   83.9550   59.8760 C   0  0  0  0  0  0  0  0  0  0  0  0
   38.9730   84.3720   60.9170 N   0  0  0  0  0  0  0  0  0  0  0  0
   38.7760   83.6200   62.0260 C   0  0  0  0  0  0  0  0  0  0  0  0
   39.3700   82.4120   62.1160 N   0  0  0  0  0  0  0  0  0  0  0  0
   40.6600   80.9810   61.1390 H   0  0  0  0  0  0  0  0  0  0  0  0
   39.8050   84.6630   59.0880 H   0  0  0  0  0  0  0  0  0  0  0  0
   38.1510   83.9690   62.8380 H   0  0  0  0  0  0  0  0  0  0  0  0
   41.1590   82.3460   58.8650 N   0  0  0  0  0  0  0  0  0  0  0  0
   40.8230   82.0460   57.4850 C   0  0  0  0  0  2  0  0  0  0  0  0
   41.6450   83.1110   56.7590 C   0  0  0  0  0  2  0  0  0  0  0  0
   42.9250   83.0790   57.5810 C   0  0  0  0  0  2  0  0  0  0  0  0
   42.6180   82.1730   58.7640 C   0  0  0  0  0  3  0  0  0  0  0  0
   43.1470   82.4680   59.6700 H   0  0  0  0  0  0  0  0  0  0  0  0
  1  7  1  0  0  0  0
  1  6  1  0  0  0  0
  2  1  2  0  0  0  0
  3  2  1  0  0  0  0
  3  4  2  0  0  0  0
  4  5  1  0  0  0  0
  5  6  2  0  0  0  0
  5  9  1  0  0  0  0
  8  3  1  0  0  0  0
 10  2  1  0  0  0  0
 11 10  1  0  0  0  0
 12 11  1  0  0  0  0
 12 13  1  0  0  0  0
 13 14  1  0  0  0  0
 14 10  1  0  0  0  0
 14 15  1  0  0  0  0
M  END
>  <minimizedAffinity>
-3.66118646

>  <minimizedRMSD>
0.511631131

$$$$
