
 OpenBabel03212520073D

 15 16  0  0  0  0  0  0  0  0999 V2000
   40.0050   81.9630   60.7190 C   0  0  0  0  0  0  0  0  0  0  0  0
   40.0630   82.8410   59.6270 C   0  0  0  0  0  0  0  0  0  0  0  0
   39.5210   84.1290   59.7930 C   0  0  0  0  0  0  0  0  0  0  0  0
   38.9710   84.4470   61.0050 N   0  0  0  0  0  0  0  0  0  0  0  0
   38.9330   83.5720   62.0380 C   0  0  0  0  0  0  0  0  0  0  0  0
   39.4530   82.3390   61.8750 N   0  0  0  0  0  0  0  0  0  0  0  0
   40.4440   80.9850   60.5130 H   0  0  0  0  0  0  0  0  0  0  0  0
   39.4680   84.9270   59.0960 H   0  0  0  0  0  0  0  0  0  0  0  0
   38.4920   83.8440   62.9890 H   0  0  0  0  0  0  0  0  0  0  0  0
   40.6040   82.6000   58.3560 N   0  0  0  0  0  0  0  0  0  0  0  0
   41.5700   83.3270   57.5500 C   0  0  0  0  0  2  0  0  0  0  0  0
   42.6400   82.2530   57.3610 C   0  0  0  0  0  2  0  0  0  0  0  0
   41.7670   81.0280   57.1410 C   0  0  0  0  0  2  0  0  0  0  0  0
   40.3460   81.4940   57.4210 C   0  0  0  0  0  3  0  0  0  0  0  0
   39.7210   80.7100   57.8470 H   0  0  0  0  0  0  0  0  0  0  0  0
  1  6  1  0  0  0  0
  2  3  1  0  0  0  0
  2  1  2  0  0  0  0
  3  4  2  0  0  0  0
  4  5  1  0  0  0  0
  5  9  1  0  0  0  0
  6  5  2  0  0  0  0
  7  1  1  0  0  0  0
  8  3  1  0  0  0  0
 10  2  1  0  0  0  0
 11 10  1  0  0  0  0
 12 11  1  0  0  0  0
 13 12  1  0  0  0  0
 13 14  1  0  0  0  0
 14 15  1  0  0  0  0
 14 10  1  0  0  0  0
M  END
>  <minimizedAffinity>
-3.80605173

>  <minimizedRMSD>
0.286441386

$$$$
