
 OpenBabel03212520083D

 15 16  0  0  0  0  0  0  0  0999 V2000
   41.2690   83.1710   62.1480 C   0  0  0  0  0  0  0  0  0  0  0  0
   42.2170   84.1920   62.3080 C   0  0  0  0  0  0  0  0  0  0  0  0
   42.2330   84.8830   63.5350 C   0  0  0  0  0  0  0  0  0  0  0  0
   41.3280   84.5190   64.4930 N   0  0  0  0  0  0  0  0  0  0  0  0
   40.4260   83.5270   64.3030 C   0  0  0  0  0  0  0  0  0  0  0  0
   40.4120   82.8670   63.1270 N   0  0  0  0  0  0  0  0  0  0  0  0
   41.3170   82.6830   61.1730 H   0  0  0  0  0  0  0  0  0  0  0  0
   42.8650   85.6760   63.8460 H   0  0  0  0  0  0  0  0  0  0  0  0
   39.7170   83.2550   65.0750 H   0  0  0  0  0  0  0  0  0  0  0  0
   43.1760   84.6290   61.3840 N   0  0  0  0  0  0  0  0  0  0  0  0
   43.0650   85.2220   60.0630 C   0  0  0  0  0  2  0  0  0  0  0  0
   43.8020   86.5420   60.2870 C   0  0  0  0  0  2  0  0  0  0  0  0
   44.9580   86.0690   61.1540 C   0  0  0  0  0  2  0  0  0  0  0  0
   44.6450   84.6160   61.4810 C   0  0  0  0  0  3  0  0  0  0  0  0
   45.0070   84.3180   62.4650 H   0  0  0  0  0  0  0  0  0  0  0  0
  1  2  2  0  0  0  0
  1  6  1  0  0  0  0
  2  3  1  0  0  0  0
  3  8  1  0  0  0  0
  3  4  2  0  0  0  0
  5  4  1  0  0  0  0
  5  9  1  0  0  0  0
  6  5  2  0  0  0  0
  7  1  1  0  0  0  0
 10 14  1  0  0  0  0
 10  2  1  0  0  0  0
 11 12  1  0  0  0  0
 11 10  1  0  0  0  0
 12 13  1  0  0  0  0
 13 14  1  0  0  0  0
 14 15  1  0  0  0  0
M  END
>  <minimizedAffinity>
-3.76736808

>  <minimizedRMSD>
4.26746035

$$$$
