
 OpenBabel03212520073D

 15 16  0  0  0  0  0  0  0  0999 V2000
   40.0500   82.0020   60.6370 C   0  0  0  0  0  0  0  0  0  0  0  0
   40.1040   82.9240   59.5820 C   0  0  0  0  0  0  0  0  0  0  0  0
   39.5320   84.1930   59.7920 C   0  0  0  0  0  0  0  0  0  0  0  0
   38.9600   84.4500   61.0080 N   0  0  0  0  0  0  0  0  0  0  0  0
   38.9260   83.5340   62.0040 C   0  0  0  0  0  0  0  0  0  0  0  0
   39.4740   82.3190   61.8000 N   0  0  0  0  0  0  0  0  0  0  0  0
   40.5130   81.0430   60.3990 H   0  0  0  0  0  0  0  0  0  0  0  0
   39.4730   85.0170   59.1270 H   0  0  0  0  0  0  0  0  0  0  0  0
   38.4670   83.7580   62.9590 H   0  0  0  0  0  0  0  0  0  0  0  0
   40.6670   82.7460   58.3110 N   0  0  0  0  0  0  0  0  0  0  0  0
   41.5540   83.5710   57.5090 C   0  0  0  0  0  2  0  0  0  0  0  0
   42.7300   82.6130   57.3170 C   0  0  0  0  0  2  0  0  0  0  0  0
   41.9860   81.3060   57.0900 C   0  0  0  0  0  2  0  0  0  0  0  0
   40.5240   81.6240   57.3700 C   0  0  0  0  0  3  0  0  0  0  0  0
   39.9820   80.7770   57.7920 H   0  0  0  0  0  0  0  0  0  0  0  0
  1  6  1  0  0  0  0
  2  3  1  0  0  0  0
  2  1  2  0  0  0  0
  3  4  2  0  0  0  0
  4  5  1  0  0  0  0
  5  9  1  0  0  0  0
  6  5  2  0  0  0  0
  7  1  1  0  0  0  0
  8  3  1  0  0  0  0
 10  2  1  0  0  0  0
 11 10  1  0  0  0  0
 12 11  1  0  0  0  0
 13 12  1  0  0  0  0
 13 14  1  0  0  0  0
 14 15  1  0  0  0  0
 14 10  1  0  0  0  0
M  END
>  <minimizedAffinity>
-3.83033466

>  <minimizedRMSD>
0.326399982

$$$$
