
 OpenBabel03212520073D

 15 16  0  0  0  0  0  0  0  0999 V2000
   40.0500   82.0020   60.6390 C   0  0  0  0  0  0  0  0  0  0  0  0
   40.1040   82.9240   59.5830 C   0  0  0  0  0  0  0  0  0  0  0  0
   39.5310   84.1920   59.7920 C   0  0  0  0  0  0  0  0  0  0  0  0
   38.9590   84.4510   61.0080 N   0  0  0  0  0  0  0  0  0  0  0  0
   38.9250   83.5350   62.0050 C   0  0  0  0  0  0  0  0  0  0  0  0
   39.4740   82.3200   61.8020 N   0  0  0  0  0  0  0  0  0  0  0  0
   40.5130   81.0430   60.4020 H   0  0  0  0  0  0  0  0  0  0  0  0
   39.4710   85.0160   59.1270 H   0  0  0  0  0  0  0  0  0  0  0  0
   38.4670   83.7590   62.9600 H   0  0  0  0  0  0  0  0  0  0  0  0
   40.6670   82.7450   58.3120 N   0  0  0  0  0  0  0  0  0  0  0  0
   41.5550   83.5700   57.5100 C   0  0  0  0  0  2  0  0  0  0  0  0
   42.7280   82.6090   57.3180 C   0  0  0  0  0  2  0  0  0  0  0  0
   41.9840   81.3040   57.0900 C   0  0  0  0  0  2  0  0  0  0  0  0
   40.5220   81.6230   57.3710 C   0  0  0  0  0  3  0  0  0  0  0  0
   39.9790   80.7780   57.7920 H   0  0  0  0  0  0  0  0  0  0  0  0
  1  6  1  0  0  0  0
  2  3  1  0  0  0  0
  2  1  2  0  0  0  0
  3  4  2  0  0  0  0
  4  5  1  0  0  0  0
  5  9  1  0  0  0  0
  6  5  2  0  0  0  0
  7  1  1  0  0  0  0
  8  3  1  0  0  0  0
 10  2  1  0  0  0  0
 11 10  1  0  0  0  0
 12 11  1  0  0  0  0
 13 12  1  0  0  0  0
 13 14  1  0  0  0  0
 14 15  1  0  0  0  0
 14 10  1  0  0  0  0
M  END
>  <minimizedAffinity>
-3.83016872

>  <minimizedRMSD>
0.612893701

$$$$
