
 OpenBabel03212520073D

 15 16  0  0  0  0  0  0  0  0999 V2000
   39.9740   81.8880   61.1690 C   0  0  0  0  0  0  0  0  0  0  0  0
   40.2260   82.5480   59.9580 C   0  0  0  0  0  0  0  0  0  0  0  0
   39.7240   83.8540   59.8070 C   0  0  0  0  0  0  0  0  0  0  0  0
   39.0220   84.4000   60.8470 N   0  0  0  0  0  0  0  0  0  0  0  0
   38.7970   83.7320   62.0030 C   0  0  0  0  0  0  0  0  0  0  0  0
   39.2790   82.4800   62.1440 N   0  0  0  0  0  0  0  0  0  0  0  0
   40.3930   80.8810   61.2100 H   0  0  0  0  0  0  0  0  0  0  0  0
   39.8080   84.5110   58.9790 H   0  0  0  0  0  0  0  0  0  0  0  0
   38.2380   84.1820   62.8140 H   0  0  0  0  0  0  0  0  0  0  0  0
   40.9320   82.0670   58.8460 N   0  0  0  0  0  0  0  0  0  0  0  0
   40.8400   80.8300   58.0890 C   0  0  0  0  0  2  0  0  0  0  0  0
   40.5440   81.3790   56.6940 C   0  0  0  0  0  2  0  0  0  0  0  0
   41.4700   82.5850   56.6680 C   0  0  0  0  0  2  0  0  0  0  0  0
   42.0200   82.6950   58.0820 C   0  0  0  0  0  3  0  0  0  0  0  0
   42.2130   83.7270   58.3800 H   0  0  0  0  0  0  0  0  0  0  0  0
  1  7  1  0  0  0  0
  1  6  1  0  0  0  0
  2  1  2  0  0  0  0
  3  2  1  0  0  0  0
  3  4  2  0  0  0  0
  4  5  1  0  0  0  0
  5  6  2  0  0  0  0
  5  9  1  0  0  0  0
  8  3  1  0  0  0  0
 10  2  1  0  0  0  0
 11 10  1  0  0  0  0
 12 11  1  0  0  0  0
 13 12  1  0  0  0  0
 13 14  1  0  0  0  0
 14 15  1  0  0  0  0
 14 10  1  0  0  0  0
M  END
>  <minimizedAffinity>
-3.78629088

>  <minimizedRMSD>
0.55147779

$$$$
