
 OpenBabel03212520073D

 15 16  0  0  0  0  0  0  0  0999 V2000
   40.0560   82.0080   60.6380 C   0  0  0  0  0  0  0  0  0  0  0  0
   40.1070   82.9370   59.5890 C   0  0  0  0  0  0  0  0  0  0  0  0
   39.5280   84.2010   59.8050 C   0  0  0  0  0  0  0  0  0  0  0  0
   38.9510   84.4480   61.0200 N   0  0  0  0  0  0  0  0  0  0  0  0
   38.9200   83.5260   62.0110 C   0  0  0  0  0  0  0  0  0  0  0  0
   39.4750   82.3150   61.8010 N   0  0  0  0  0  0  0  0  0  0  0  0
   40.5240   81.0530   60.3950 H   0  0  0  0  0  0  0  0  0  0  0  0
   39.4660   85.0290   59.1450 H   0  0  0  0  0  0  0  0  0  0  0  0
   38.4580   83.7410   62.9670 H   0  0  0  0  0  0  0  0  0  0  0  0
   40.6740   82.7690   58.3170 N   0  0  0  0  0  0  0  0  0  0  0  0
   41.5370   83.6150   57.5110 C   0  0  0  0  0  2  0  0  0  0  0  0
   42.7380   82.6890   57.3210 C   0  0  0  0  0  2  0  0  0  0  0  0
   42.0310   81.3610   57.1010 C   0  0  0  0  0  2  0  0  0  0  0  0
   40.5610   81.6390   57.3820 C   0  0  0  0  0  3  0  0  0  0  0  0
   40.0440   80.7800   57.8080 H   0  0  0  0  0  0  0  0  0  0  0  0
  1  6  1  0  0  0  0
  2  3  1  0  0  0  0
  2  1  2  0  0  0  0
  3  4  2  0  0  0  0
  4  5  1  0  0  0  0
  5  9  1  0  0  0  0
  6  5  2  0  0  0  0
  7  1  1  0  0  0  0
  8  3  1  0  0  0  0
 10  2  1  0  0  0  0
 11 10  1  0  0  0  0
 12 11  1  0  0  0  0
 13 12  1  0  0  0  0
 13 14  1  0  0  0  0
 14 15  1  0  0  0  0
 14 10  1  0  0  0  0
M  END
>  <minimizedAffinity>
-3.83482838

>  <minimizedRMSD>
0.760532439

$$$$
