
 OpenBabel03212520073D

 15 16  0  0  0  0  0  0  0  0999 V2000
   40.1120   81.9540   61.1440 C   0  0  0  0  0  0  0  0  0  0  0  0
   40.3470   82.6820   59.9680 C   0  0  0  0  0  0  0  0  0  0  0  0
   39.7470   83.9500   59.8520 C   0  0  0  0  0  0  0  0  0  0  0  0
   38.9740   84.3960   60.8890 N   0  0  0  0  0  0  0  0  0  0  0  0
   38.7690   83.6650   62.0100 C   0  0  0  0  0  0  0  0  0  0  0  0
   39.3450   82.4500   62.1180 N   0  0  0  0  0  0  0  0  0  0  0  0
   40.6090   80.9830   61.1600 H   0  0  0  0  0  0  0  0  0  0  0  0
   39.8030   84.6450   59.0520 H   0  0  0  0  0  0  0  0  0  0  0  0
   38.1520   84.0370   62.8190 H   0  0  0  0  0  0  0  0  0  0  0  0
   41.1210   82.3030   58.8620 N   0  0  0  0  0  0  0  0  0  0  0  0
   41.9570   81.1440   58.6040 C   0  0  0  0  0  2  0  0  0  0  0  0
   41.2840   80.5900   57.3480 C   0  0  0  0  0  2  0  0  0  0  0  0
   40.9840   81.8810   56.6030 C   0  0  0  0  0  2  0  0  0  0  0  0
   41.3270   82.9960   57.5800 C   0  0  0  0  0  3  0  0  0  0  0  0
   40.6900   83.8730   57.4600 H   0  0  0  0  0  0  0  0  0  0  0  0
  1  7  1  0  0  0  0
  1  6  1  0  0  0  0
  2  1  2  0  0  0  0
  3  2  1  0  0  0  0
  3  4  2  0  0  0  0
  4  5  1  0  0  0  0
  5  6  2  0  0  0  0
  5  9  1  0  0  0  0
  8  3  1  0  0  0  0
 10  2  1  0  0  0  0
 11 10  1  0  0  0  0
 12 11  1  0  0  0  0
 13 12  1  0  0  0  0
 13 14  1  0  0  0  0
 14 10  1  0  0  0  0
 15 14  1  0  0  0  0
M  END
>  <minimizedAffinity>
-3.68068886

>  <minimizedRMSD>
0.449263543

$$$$
