
 OpenBabel03212520073D

 15 16  0  0  0  0  0  0  0  0999 V2000
   39.9790   81.8790   61.1720 C   0  0  0  0  0  0  0  0  0  0  0  0
   40.2370   82.5310   59.9580 C   0  0  0  0  0  0  0  0  0  0  0  0
   39.7380   83.8370   59.7970 C   0  0  0  0  0  0  0  0  0  0  0  0
   39.0330   84.3900   60.8310 N   0  0  0  0  0  0  0  0  0  0  0  0
   38.8020   83.7300   61.9900 C   0  0  0  0  0  0  0  0  0  0  0  0
   39.2820   82.4780   62.1410 N   0  0  0  0  0  0  0  0  0  0  0  0
   40.3970   80.8720   61.2220 H   0  0  0  0  0  0  0  0  0  0  0  0
   39.8260   84.4880   58.9650 H   0  0  0  0  0  0  0  0  0  0  0  0
   38.2410   84.1860   62.7960 H   0  0  0  0  0  0  0  0  0  0  0  0
   40.9470   82.0420   58.8520 N   0  0  0  0  0  0  0  0  0  0  0  0
   41.6200   80.7790   58.6030 C   0  0  0  0  0  2  0  0  0  0  0  0
   40.8720   80.3040   57.3580 C   0  0  0  0  0  2  0  0  0  0  0  0
   40.7390   81.6160   56.5990 C   0  0  0  0  0  2  0  0  0  0  0  0
   41.2330   82.6860   57.5610 C   0  0  0  0  0  3  0  0  0  0  0  0
   40.7180   83.6380   57.4340 H   0  0  0  0  0  0  0  0  0  0  0  0
  1  7  1  0  0  0  0
  1  6  1  0  0  0  0
  2  1  2  0  0  0  0
  3  2  1  0  0  0  0
  3  4  2  0  0  0  0
  4  5  1  0  0  0  0
  5  6  2  0  0  0  0
  5  9  1  0  0  0  0
  8  3  1  0  0  0  0
 10  2  1  0  0  0  0
 11 10  1  0  0  0  0
 12 11  1  0  0  0  0
 13 12  1  0  0  0  0
 13 14  1  0  0  0  0
 14 10  1  0  0  0  0
 15 14  1  0  0  0  0
M  END
>  <minimizedAffinity>
-3.68976331

>  <minimizedRMSD>
0.646664679

$$$$
