
 OpenBabel03212519593D

 15 16  0  0  0  0  0  0  0  0999 V2000
   36.7610   75.8540   55.5280 C   0  0  0  0  0  0  0  0  0  0  0  0
   37.6370   75.2470   54.6140 C   0  0  0  0  0  0  0  0  0  0  0  0
   38.9330   74.9230   55.0470 C   0  0  0  0  0  0  0  0  0  0  0  0
   39.2680   75.2160   56.3410 N   0  0  0  0  0  0  0  0  0  0  0  0
   38.4000   75.8010   57.1920 C   0  0  0  0  0  0  0  0  0  0  0  0
   37.1600   76.1170   56.7950 N   0  0  0  0  0  0  0  0  0  0  0  0
   35.7690   76.0920   55.1620 H   0  0  0  0  0  0  0  0  0  0  0  0
   37.3830   75.0120   53.5910 H   0  0  0  0  0  0  0  0  0  0  0  0
   39.6380   74.4540   54.3740 H   0  0  0  0  0  0  0  0  0  0  0  0
   38.8490   76.0700   58.5340 N   0  0  0  0  0  0  0  0  0  0  0  0
   38.7010   75.1160   59.6200 C   0  0  0  0  0  2  0  0  0  0  0  0
   39.4010   75.7700   60.7650 C   0  0  0  0  0  2  0  0  0  0  0  0
   40.2080   76.9230   60.2040 C   0  0  0  0  0  2  0  0  0  0  0  0
   39.4920   77.3030   58.9500 C   0  0  0  0  0  3  0  0  0  0  0  0
   40.1590   77.6900   58.1550 H   0  0  0  0  0  0  0  0  0  0  0  0
  1  6  1  0  0  0  0
  2  3  1  0  0  0  0
  2  1  2  0  0  0  0
  3  4  2  0  0  0  0
  4  5  1  0  0  0  0
  5 10  1  0  0  0  0
  6  5  2  0  0  0  0
  7  1  1  0  0  0  0
  8  2  1  0  0  0  0
  9  3  1  0  0  0  0
 10 14  1  0  0  0  0
 10 11  1  0  0  0  0
 11 12  1  0  0  0  0
 13 12  1  0  0  0  0
 14 13  1  0  0  0  0
 15 14  1  0  0  0  0
M  END
>  <minimizedAffinity>
-3.94940042

$$$$

 OpenBabel03212519593D

 15 16  0  0  0  0  0  0  0  0999 V2000
   38.9580   74.8420   55.2280 C   0  0  0  0  0  0  0  0  0  0  0  0
   37.6900   75.2920   54.8290 C   0  0  0  0  0  0  0  0  0  0  0  0
   36.8090   75.7650   55.8140 C   0  0  0  0  0  0  0  0  0  0  0  0
   37.2390   75.7610   57.1130 N   0  0  0  0  0  0  0  0  0  0  0  0
   38.4660   75.3210   57.4610 C   0  0  0  0  0  0  0  0  0  0  0  0
   39.3180   74.8660   56.5330 N   0  0  0  0  0  0  0  0  0  0  0  0
   39.6130   74.4830   54.4420 H   0  0  0  0  0  0  0  0  0  0  0  0
   37.3400   75.2990   53.8070 H   0  0  0  0  0  0  0  0  0  0  0  0
   35.8230   76.1200   55.5480 H   0  0  0  0  0  0  0  0  0  0  0  0
   38.8250   75.3570   58.8550 N   0  0  0  0  0  0  0  0  0  0  0  0
   39.4660   76.5050   59.4740 C   0  0  0  0  0  2  0  0  0  0  0  0
   39.5360   76.1370   60.9190 C   0  0  0  0  0  2  0  0  0  0  0  0
   38.6350   74.9360   61.1240 C   0  0  0  0  0  2  0  0  0  0  0  0
   38.5920   74.2700   59.7890 C   0  0  0  0  0  3  0  0  0  0  0  0
   37.6310   73.7630   59.5740 H   0  0  0  0  0  0  0  0  0  0  0  0
  1  6  1  0  0  0  0
  2  1  2  0  0  0  0
  2  3  1  0  0  0  0
  3  4  2  0  0  0  0
  4  5  1  0  0  0  0
  5 10  1  0  0  0  0
  6  5  2  0  0  0  0
  7  1  1  0  0  0  0
  8  2  1  0  0  0  0
  9  3  1  0  0  0  0
 10 11  1  0  0  0  0
 10 14  1  0  0  0  0
 11 12  1  0  0  0  0
 12 13  1  0  0  0  0
 14 13  1  0  0  0  0
 15 14  1  0  0  0  0
M  END
>  <minimizedAffinity>
-3.94600773

$$$$

 OpenBabel03212519593D

 15 16  0  0  0  0  0  0  0  0999 V2000
   39.4930   76.4210   60.0620 C   0  0  0  0  0  0  0  0  0  0  0  0
   39.0620   75.3640   60.8810 C   0  0  0  0  0  0  0  0  0  0  0  0
   38.3060   74.3350   60.2990 C   0  0  0  0  0  0  0  0  0  0  0  0
   38.0310   74.4200   58.9600 N   0  0  0  0  0  0  0  0  0  0  0  0
   38.4620   75.4510   58.2040 C   0  0  0  0  0  0  0  0  0  0  0  0
   39.1840   76.4410   58.7440 N   0  0  0  0  0  0  0  0  0  0  0  0
   40.0740   77.1990   60.5440 H   0  0  0  0  0  0  0  0  0  0  0  0
   39.2730   75.2880   61.9370 H   0  0  0  0  0  0  0  0  0  0  0  0
   37.9550   73.5030   60.8940 H   0  0  0  0  0  0  0  0  0  0  0  0
   38.1200   75.4490   56.8050 N   0  0  0  0  0  0  0  0  0  0  0  0
   38.9590   74.8350   55.7900 C   0  0  0  0  0  2  0  0  0  0  0  0
   38.1610   74.9750   54.5360 C   0  0  0  0  0  2  0  0  0  0  0  0
   36.7540   75.3670   54.9370 C   0  0  0  0  0  2  0  0  0  0  0  0
   36.9170   76.0490   56.2550 C   0  0  0  0  0  3  0  0  0  0  0  0
   36.0580   75.9100   56.9390 H   0  0  0  0  0  0  0  0  0  0  0  0
  1  7  1  0  0  0  0
  1  2  1  0  0  0  0
  2  8  1  0  0  0  0
  3  2  2  0  0  0  0
  3  9  1  0  0  0  0
  4  3  1  0  0  0  0
  5  6  1  0  0  0  0
  5  4  2  0  0  0  0
  6  1  2  0  0  0  0
 10  5  1  0  0  0  0
 11 10  1  0  0  0  0
 12 13  1  0  0  0  0
 12 11  1  0  0  0  0
 13 14  1  0  0  0  0
 14 10  1  0  0  0  0
 14 15  1  0  0  0  0
M  END
>  <minimizedAffinity>
-3.78893614

$$$$

 OpenBabel03212519593D

 15 16  0  0  0  0  0  0  0  0999 V2000
   38.0680   77.1650   56.8560 C   0  0  0  0  0  0  0  0  0  0  0  0
   37.1290   76.5190   56.0370 C   0  0  0  0  0  0  0  0  0  0  0  0
   36.8290   75.1730   56.2990 C   0  0  0  0  0  0  0  0  0  0  0  0
   37.4710   74.5650   57.3450 N   0  0  0  0  0  0  0  0  0  0  0  0
   38.3690   75.2180   58.1110 C   0  0  0  0  0  0  0  0  0  0  0  0
   38.6660   76.5020   57.8740 N   0  0  0  0  0  0  0  0  0  0  0  0
   38.2770   78.2030   56.6260 H   0  0  0  0  0  0  0  0  0  0  0  0
   36.6170   76.9890   55.2100 H   0  0  0  0  0  0  0  0  0  0  0  0
   36.1110   74.6390   55.6920 H   0  0  0  0  0  0  0  0  0  0  0  0
   38.9910   74.4900   59.1870 N   0  0  0  0  0  0  0  0  0  0  0  0
   38.4350   74.4390   60.5290 C   0  0  0  0  0  2  0  0  0  0  0  0
   39.3370   73.4950   61.2520 C   0  0  0  0  0  2  0  0  0  0  0  0
   40.1790   72.7860   60.2110 C   0  0  0  0  0  2  0  0  0  0  0  0
   40.2240   73.7350   59.0590 C   0  0  0  0  0  3  0  0  0  0  0  0
   40.2820   73.2360   58.0720 H   0  0  0  0  0  0  0  0  0  0  0  0
  1  6  1  0  0  0  0
  2  3  1  0  0  0  0
  2  1  2  0  0  0  0
  3  4  2  0  0  0  0
  4  5  1  0  0  0  0
  5 10  1  0  0  0  0
  6  5  2  0  0  0  0
  7  1  1  0  0  0  0
  8  2  1  0  0  0  0
  9  3  1  0  0  0  0
 10 11  1  0  0  0  0
 11 12  1  0  0  0  0
 13 12  1  0  0  0  0
 14 10  1  0  0  0  0
 14 13  1  0  0  0  0
 15 14  1  0  0  0  0
M  END
>  <minimizedAffinity>
-3.77994776

$$$$

 OpenBabel03212519593D

 15 16  0  0  0  0  0  0  0  0999 V2000
   39.0070   75.0920   57.9330 C   0  0  0  0  0  0  0  0  0  0  0  0
   38.8900   76.4350   58.3250 C   0  0  0  0  0  0  0  0  0  0  0  0
   39.5580   76.8520   59.4870 C   0  0  0  0  0  0  0  0  0  0  0  0
   40.2910   75.9220   60.1730 N   0  0  0  0  0  0  0  0  0  0  0  0
   40.3810   74.6380   59.7670 C   0  0  0  0  0  0  0  0  0  0  0  0
   39.7490   74.2240   58.6610 N   0  0  0  0  0  0  0  0  0  0  0  0
   38.4780   74.8030   57.0320 H   0  0  0  0  0  0  0  0  0  0  0  0
   38.3140   77.1770   57.7910 H   0  0  0  0  0  0  0  0  0  0  0  0
   39.4940   77.8780   59.8220 H   0  0  0  0  0  0  0  0  0  0  0  0
   41.1770   73.7350   60.5590 N   0  0  0  0  0  0  0  0  0  0  0  0
   42.5950   73.5230   60.3240 C   0  0  0  0  0  2  0  0  0  0  0  0
   43.0070   72.6170   61.4360 C   0  0  0  0  0  2  0  0  0  0  0  0
   41.8850   72.6090   62.4540 C   0  0  0  0  0  2  0  0  0  0  0  0
   40.6630   72.9470   61.6640 C   0  0  0  0  0  3  0  0  0  0  0  0
   39.9050   73.5150   62.2370 H   0  0  0  0  0  0  0  0  0  0  0  0
  1  2  2  0  0  0  0
  1  6  1  0  0  0  0
  2  3  1  0  0  0  0
  3  9  1  0  0  0  0
  3  4  2  0  0  0  0
  5  4  1  0  0  0  0
  5 10  1  0  0  0  0
  6  5  2  0  0  0  0
  7  1  1  0  0  0  0
  8  2  1  0  0  0  0
 10 14  1  0  0  0  0
 11 10  1  0  0  0  0
 11 12  1  0  0  0  0
 12 13  1  0  0  0  0
 14 15  1  0  0  0  0
 14 13  1  0  0  0  0
M  END
>  <minimizedAffinity>
-3.7014544

$$$$

 OpenBabel03212519593D

 15 16  0  0  0  0  0  0  0  0999 V2000
   40.5700   75.3220   60.0670 C   0  0  0  0  0  0  0  0  0  0  0  0
   39.1950   75.3710   60.3490 C   0  0  0  0  0  0  0  0  0  0  0  0
   38.6000   74.2560   60.9610 C   0  0  0  0  0  0  0  0  0  0  0  0
   39.3980   73.1810   61.2490 N   0  0  0  0  0  0  0  0  0  0  0  0
   40.7160   73.1700   60.9620 C   0  0  0  0  0  0  0  0  0  0  0  0
   41.2990   74.2250   60.3790 N   0  0  0  0  0  0  0  0  0  0  0  0
   40.9970   76.1990   59.5940 H   0  0  0  0  0  0  0  0  0  0  0  0
   38.5570   76.2130   60.1260 H   0  0  0  0  0  0  0  0  0  0  0  0
   37.5450   74.2530   61.1960 H   0  0  0  0  0  0  0  0  0  0  0  0
   41.4700   71.9910   61.3030 N   0  0  0  0  0  0  0  0  0  0  0  0
   42.1240   71.8190   62.5900 C   0  0  0  0  0  2  0  0  0  0  0  0
   42.6670   70.4310   62.5300 C   0  0  0  0  0  2  0  0  0  0  0  0
   42.0200   69.7420   61.3450 C   0  0  0  0  0  2  0  0  0  0  0  0
   41.6590   70.8560   60.4190 C   0  0  0  0  0  3  0  0  0  0  0  0
   40.7460   70.6620   59.8230 H   0  0  0  0  0  0  0  0  0  0  0  0
  1  2  2  0  0  0  0
  1  6  1  0  0  0  0
  2  3  1  0  0  0  0
  3  9  1  0  0  0  0
  3  4  2  0  0  0  0
  5  4  1  0  0  0  0
  5 10  1  0  0  0  0
  6  5  2  0  0  0  0
  7  1  1  0  0  0  0
  8  2  1  0  0  0  0
 10 11  1  0  0  0  0
 12 11  1  0  0  0  0
 13 12  1  0  0  0  0
 14 10  1  0  0  0  0
 14 13  1  0  0  0  0
 15 14  1  0  0  0  0
M  END
>  <minimizedAffinity>
-3.61067224

$$$$

 OpenBabel03212519593D

 15 16  0  0  0  0  0  0  0  0999 V2000
   43.1100   71.3580   60.9650 C   0  0  0  0  0  0  0  0  0  0  0  0
   42.4380   72.0980   61.9510 C   0  0  0  0  0  0  0  0  0  0  0  0
   41.6620   71.4040   62.8930 C   0  0  0  0  0  0  0  0  0  0  0  0
   41.6060   70.0400   62.7970 N   0  0  0  0  0  0  0  0  0  0  0  0
   42.2650   69.3610   61.8350 C   0  0  0  0  0  0  0  0  0  0  0  0
   43.0090   70.0090   60.9290 N   0  0  0  0  0  0  0  0  0  0  0  0
   43.6990   71.9250   60.2530 H   0  0  0  0  0  0  0  0  0  0  0  0
   42.4760   73.1740   62.0360 H   0  0  0  0  0  0  0  0  0  0  0  0
   41.1300   71.9370   63.6690 H   0  0  0  0  0  0  0  0  0  0  0  0
   42.1420   67.9260   61.8180 N   0  0  0  0  0  0  0  0  0  0  0  0
   43.0470   67.0490   62.5410 C   0  0  0  0  0  2  0  0  0  0  0  0
   42.4700   65.6900   62.3270 C   0  0  0  0  0  2  0  0  0  0  0  0
   41.0750   65.8720   61.7670 C   0  0  0  0  0  2  0  0  0  0  0  0
   41.1160   67.2020   61.0890 C   0  0  0  0  0  3  0  0  0  0  0  0
   40.1520   67.7470   61.1160 H   0  0  0  0  0  0  0  0  0  0  0  0
  1  2  1  0  0  0  0
  2  8  1  0  0  0  0
  2  3  2  0  0  0  0
  3  9  1  0  0  0  0
  4  3  1  0  0  0  0
  5  4  2  0  0  0  0
  6  1  2  0  0  0  0
  6  5  1  0  0  0  0
  7  1  1  0  0  0  0
 10  5  1  0  0  0  0
 10 11  1  0  0  0  0
 12 11  1  0  0  0  0
 13 12  1  0  0  0  0
 14 15  1  0  0  0  0
 14 13  1  0  0  0  0
 14 10  1  0  0  0  0
M  END
>  <minimizedAffinity>
-3.53073788

$$$$

 OpenBabel03212519593D

 15 16  0  0  0  0  0  0  0  0999 V2000
   43.0070   71.1160   61.1560 C   0  0  0  0  0  0  0  0  0  0  0  0
   42.7270   70.5480   62.4090 C   0  0  0  0  0  0  0  0  0  0  0  0
   41.6000   71.0040   63.1100 C   0  0  0  0  0  0  0  0  0  0  0  0
   40.8340   71.9780   62.5290 N   0  0  0  0  0  0  0  0  0  0  0  0
   41.1340   72.5010   61.3220 C   0  0  0  0  0  0  0  0  0  0  0  0
   42.2060   72.0770   60.6400 N   0  0  0  0  0  0  0  0  0  0  0  0
   43.8860   70.7420   60.6410 H   0  0  0  0  0  0  0  0  0  0  0  0
   43.3250   69.7790   62.8760 H   0  0  0  0  0  0  0  0  0  0  0  0
   41.3490   70.5920   64.0780 H   0  0  0  0  0  0  0  0  0  0  0  0
   40.2660   73.5230   60.7960 N   0  0  0  0  0  0  0  0  0  0  0  0
   39.1090   73.2240   59.9690 C   0  0  0  0  0  2  0  0  0  0  0  0
   38.4650   74.5550   59.7650 C   0  0  0  0  0  2  0  0  0  0  0  0
   39.0900   75.5170   60.7550 C   0  0  0  0  0  2  0  0  0  0  0  0
   40.4420   74.9450   61.0280 C   0  0  0  0  0  3  0  0  0  0  0  0
   40.8080   75.1360   62.0560 H   0  0  0  0  0  0  0  0  0  0  0  0
  1  2  1  0  0  0  0
  2  8  1  0  0  0  0
  2  3  2  0  0  0  0
  3  9  1  0  0  0  0
  4  3  1  0  0  0  0
  5  4  2  0  0  0  0
  6  1  2  0  0  0  0
  6  5  1  0  0  0  0
  7  1  1  0  0  0  0
 10 14  1  0  0  0  0
 10  5  1  0  0  0  0
 11 10  1  0  0  0  0
 12 11  1  0  0  0  0
 12 13  1  0  0  0  0
 13 14  1  0  0  0  0
 14 15  1  0  0  0  0
M  END
>  <minimizedAffinity>
-3.50842667

$$$$

 OpenBabel03212519593D

 15 16  0  0  0  0  0  0  0  0999 V2000
   39.6650   71.6940   58.0180 C   0  0  0  0  0  0  0  0  0  0  0  0
   38.4930   71.7590   57.2480 C   0  0  0  0  0  0  0  0  0  0  0  0
   37.7250   72.9330   57.2990 C   0  0  0  0  0  0  0  0  0  0  0  0
   38.1660   73.9520   58.0990 N   0  0  0  0  0  0  0  0  0  0  0  0
   39.2970   73.8540   58.8270 C   0  0  0  0  0  0  0  0  0  0  0  0
   40.0410   72.7410   58.7900 N   0  0  0  0  0  0  0  0  0  0  0  0
   40.2340   70.7730   57.9560 H   0  0  0  0  0  0  0  0  0  0  0  0
   38.1370   70.9610   56.6130 H   0  0  0  0  0  0  0  0  0  0  0  0
   36.8170   73.0240   56.7200 H   0  0  0  0  0  0  0  0  0  0  0  0
   39.6750   74.9820   59.6400 N   0  0  0  0  0  0  0  0  0  0  0  0
   40.5210   76.0570   59.1500 C   0  0  0  0  0  2  0  0  0  0  0  0
   40.5420   77.0350   60.2780 C   0  0  0  0  0  2  0  0  0  0  0  0
   39.4420   76.6380   61.2410 C   0  0  0  0  0  2  0  0  0  0  0  0
   39.2620   75.1730   61.0180 C   0  0  0  0  0  3  0  0  0  0  0  0
   38.2220   74.8230   61.1720 H   0  0  0  0  0  0  0  0  0  0  0  0
  1  6  1  0  0  0  0
  2  3  1  0  0  0  0
  2  1  2  0  0  0  0
  3  4  2  0  0  0  0
  4  5  1  0  0  0  0
  5 10  1  0  0  0  0
  6  5  2  0  0  0  0
  7  1  1  0  0  0  0
  8  2  1  0  0  0  0
  9  3  1  0  0  0  0
 10 14  1  0  0  0  0
 11 10  1  0  0  0  0
 11 12  1  0  0  0  0
 12 13  1  0  0  0  0
 14 15  1  0  0  0  0
 14 13  1  0  0  0  0
M  END
>  <minimizedAffinity>
-3.50347161

$$$$
