
 OpenBabel03212521043D

 33 36  0  0  0  0  0  0  0  0999 V2000
   41.8090   84.2370   61.5690 C   0  0  0  0  0  0  0  0  0  0  0  0
   41.4610   83.9610   62.8860 C   0  0  0  0  0  0  0  0  0  0  0  0
   40.1900   83.5430   63.2260 C   0  0  0  0  0  0  0  0  0  0  0  0
   39.2310   83.3930   62.2260 C   0  0  0  0  0  0  0  0  0  0  0  0
   39.5850   83.6710   60.9050 C   0  0  0  0  0  0  0  0  0  0  0  0
   40.8490   84.0860   60.5800 C   0  0  0  0  0  0  0  0  0  0  0  0
   42.2230   84.0830   63.6580 H   0  0  0  0  0  0  0  0  0  0  0  0
   39.9570   83.3380   64.2650 H   0  0  0  0  0  0  0  0  0  0  0  0
   38.2390   83.0650   62.4920 H   0  0  0  0  0  0  0  0  0  0  0  0
   38.7810   83.5310   60.1820 H   0  0  0  0  0  0  0  0  0  0  0  0
   41.1680   84.3620   59.1970 C   0  0  0  0  0  0  0  0  0  0  0  0
   40.8120   85.6730   58.8390 C   0  0  0  0  0  0  0  0  0  0  0  0
   41.0320   86.1520   57.5460 C   0  0  0  0  0  0  0  0  0  0  0  0
   41.5970   85.3010   56.6670 N   0  0  0  0  0  0  0  0  0  0  0  0
   41.9340   84.0410   57.0290 C   0  0  0  0  0  0  0  0  0  0  0  0
   41.7300   83.5660   58.2630 N   0  0  0  0  0  0  0  0  0  0  0  0
   40.3570   86.4040   59.4920 H   0  0  0  0  0  0  0  0  0  0  0  0
   40.7670   87.1560   57.2470 H   0  0  0  0  0  0  0  0  0  0  0  0
   42.5300   83.1410   56.1030 N   0  0  0  0  0  0  0  0  0  0  0  0
   43.9170   82.8780   55.7720 C   0  0  0  0  0  2  0  0  0  0  0  0
   44.0070   81.3940   56.0560 C   0  0  0  0  0  2  0  0  0  0  0  0
   42.7360   80.8850   55.4080 C   0  0  0  0  0  2  0  0  0  0  0  0
   41.9830   82.1760   55.1710 C   0  0  0  0  0  3  0  0  0  0  0  0
   40.9200   81.9690   55.4930 H   0  0  0  0  0  0  0  0  0  0  0  0
   45.3300   84.1430   60.5910 C   0  0  0  0  0  0  0  0  0  0  0  0
   45.7160   85.4740   60.6940 C   0  0  0  0  0  0  0  0  0  0  0  0
   44.7550   86.4310   61.1060 C   0  0  0  0  0  0  0  0  0  0  0  0
   43.5040   85.9860   61.3780 N   0  0  0  0  0  0  0  0  0  0  0  0
   43.1580   84.6740   61.2680 C   0  0  0  0  0  0  0  0  0  0  0  0
   44.0740   83.8010   60.8810 N   0  0  0  0  0  0  0  0  0  0  0  0
   46.0270   83.3720   60.2810 H   0  0  0  0  0  0  0  0  0  0  0  0
   46.7140   85.7820   60.4690 H   0  0  0  0  0  0  0  0  0  0  0  0
   45.0130   87.4690   61.1970 H   0  0  0  0  0  0  0  0  0  0  0  0
  1  2  1  0  0  0  0
  2  3  2  0  0  0  0
  2  7  1  0  0  0  0
  3  8  1  0  0  0  0
  4  9  1  0  0  0  0
  4  3  1  0  0  0  0
  5  4  2  0  0  0  0
  6  5  1  0  0  0  0
  6  1  2  0  0  0  0
 10  5  1  0  0  0  0
 11  6  1  0  0  0  0
 12 11  1  0  0  0  0
 12 17  1  0  0  0  0
 13 12  2  0  0  0  0
 14 15  2  0  0  0  0
 14 13  1  0  0  0  0
 15 16  1  0  0  0  0
 16 11  2  0  0  0  0
 18 13  1  0  0  0  0
 19 15  1  0  0  0  0
 20 21  1  0  0  0  0
 20 19  1  0  0  0  0
 22 21  1  0  0  0  0
 23 22  1  0  0  0  0
 23 24  1  0  0  0  0
 23 19  1  0  0  0  0
 25 26  2  0  0  0  0
 25 30  1  0  0  0  0
 26 27  1  0  0  0  0
 27 33  1  0  0  0  0
 27 28  2  0  0  0  0
 29 28  1  0  0  0  0
 29  1  1  0  0  0  0
 30 29  2  0  0  0  0
 31 25  1  0  0  0  0
 32 26  1  0  0  0  0
M  END
>  <minimizedAffinity>
-5.59948444

>  <minimizedRMSD>
0.291306317

$$$$
