
 OpenBabel03212520223D

 15 16  0  0  0  0  0  0  0  0999 V2000
   39.9310   81.5710   61.1620 C   0  0  0  0  0  0  0  0  0  0  0  0
   40.4570   82.1850   60.0110 C   0  0  0  0  0  0  0  0  0  0  0  0
   40.2190   83.5670   59.8370 C   0  0  0  0  0  0  0  0  0  0  0  0
   39.4940   84.2090   60.7980 N   0  0  0  0  0  0  0  0  0  0  0  0
   39.0050   83.5920   61.8880 C   0  0  0  0  0  0  0  0  0  0  0  0
   39.2250   82.2720   62.0670 N   0  0  0  0  0  0  0  0  0  0  0  0
   40.1300   80.5000   61.2740 H   0  0  0  0  0  0  0  0  0  0  0  0
   41.0300   81.6810   59.2510 H   0  0  0  0  0  0  0  0  0  0  0  0
   38.4360   84.1590   62.6160 H   0  0  0  0  0  0  0  0  0  0  0  0
   40.6910   84.3140   58.7230 N   0  0  0  0  0  0  0  0  0  0  0  0
   41.6160   83.8530   57.6960 C   0  0  0  0  0  0  0  0  0  0  0  0
   41.7320   85.0060   56.7480 C   0  0  0  0  0  0  0  0  0  0  0  0
   41.5420   86.1880   57.7070 C   0  0  0  0  0  0  0  0  0  0  0  0
   40.3010   85.6910   58.4450 C   0  0  0  0  0  0  0  0  0  0  0  0
   39.4330   85.6790   57.7790 H   0  0  0  0  0  0  0  0  0  0  0  0
  1  7  1  0  0  0  0
  1  6  1  0  0  0  0
  2  1  2  0  0  0  0
  3  2  1  0  0  0  0
  3  4  2  0  0  0  0
  4  5  1  0  0  0  0
  5  6  2  0  0  0  0
  5  9  1  0  0  0  0
  8  2  1  0  0  0  0
 10  3  1  0  0  0  0
 11 10  1  0  0  0  0
 12 11  1  0  0  0  0
 12 13  1  0  0  0  0
 13 14  1  0  0  0  0
 14 10  1  0  0  0  0
 15 14  1  0  0  0  0
M  END
>  <minimizedAffinity>
-3.67189312

>  <minimizedRMSD>
1.24022424

$$$$
