
 OpenBabel03212521053D

 33 36  0  0  0  0  0  0  0  0999 V2000
   41.8130   84.2390   61.5730 C   0  0  0  0  0  0  0  0  0  0  0  0
   41.4580   83.9720   62.8910 C   0  0  0  0  0  0  0  0  0  0  0  0
   40.1860   83.5560   63.2260 C   0  0  0  0  0  0  0  0  0  0  0  0
   39.2330   83.3990   62.2220 C   0  0  0  0  0  0  0  0  0  0  0  0
   39.5940   83.6670   60.9010 C   0  0  0  0  0  0  0  0  0  0  0  0
   40.8600   84.0800   60.5800 C   0  0  0  0  0  0  0  0  0  0  0  0
   42.2160   84.1000   63.6660 H   0  0  0  0  0  0  0  0  0  0  0  0
   39.9470   83.3580   64.2650 H   0  0  0  0  0  0  0  0  0  0  0  0
   38.2390   83.0720   62.4850 H   0  0  0  0  0  0  0  0  0  0  0  0
   38.7930   83.5210   60.1750 H   0  0  0  0  0  0  0  0  0  0  0  0
   41.1860   84.3460   59.1970 C   0  0  0  0  0  0  0  0  0  0  0  0
   40.7980   85.6420   58.8180 C   0  0  0  0  0  0  0  0  0  0  0  0
   41.0190   86.1090   57.5200 C   0  0  0  0  0  0  0  0  0  0  0  0
   41.6180   85.2630   56.6590 N   0  0  0  0  0  0  0  0  0  0  0  0
   41.9840   84.0180   57.0420 C   0  0  0  0  0  0  0  0  0  0  0  0
   41.7800   83.5540   58.2810 N   0  0  0  0  0  0  0  0  0  0  0  0
   40.3160   86.3690   59.4550 H   0  0  0  0  0  0  0  0  0  0  0  0
   40.7290   87.1010   57.2050 H   0  0  0  0  0  0  0  0  0  0  0  0
   42.6160   83.1220   56.1350 N   0  0  0  0  0  0  0  0  0  0  0  0
   43.9090   82.4670   56.1710 C   0  0  0  0  0  2  0  0  0  0  0  0
   43.5000   81.0120   56.0800 C   0  0  0  0  0  2  0  0  0  0  0  0
   42.4610   81.0590   54.9800 C   0  0  0  0  0  2  0  0  0  0  0  0
   42.2090   82.5480   54.8680 C   0  0  0  0  0  3  0  0  0  0  0  0
   41.0870   82.6590   54.8000 H   0  0  0  0  0  0  0  0  0  0  0  0
   45.3430   84.1370   60.6280 C   0  0  0  0  0  0  0  0  0  0  0  0
   45.7260   85.4700   60.7120 C   0  0  0  0  0  0  0  0  0  0  0  0
   44.7580   86.4320   61.1000 C   0  0  0  0  0  0  0  0  0  0  0  0
   43.5060   85.9890   61.3680 N   0  0  0  0  0  0  0  0  0  0  0  0
   43.1640   84.6740   61.2770 C   0  0  0  0  0  0  0  0  0  0  0  0
   44.0860   83.7970   60.9130 N   0  0  0  0  0  0  0  0  0  0  0  0
   46.0450   83.3630   60.3360 H   0  0  0  0  0  0  0  0  0  0  0  0
   46.7250   85.7770   60.4910 H   0  0  0  0  0  0  0  0  0  0  0  0
   45.0130   87.4720   61.1760 H   0  0  0  0  0  0  0  0  0  0  0  0
  1  2  1  0  0  0  0
  2  3  2  0  0  0  0
  2  7  1  0  0  0  0
  3  8  1  0  0  0  0
  4  9  1  0  0  0  0
  4  3  1  0  0  0  0
  5  4  2  0  0  0  0
  6  5  1  0  0  0  0
  6  1  2  0  0  0  0
 10  5  1  0  0  0  0
 11  6  1  0  0  0  0
 12 11  1  0  0  0  0
 12 17  1  0  0  0  0
 13 12  2  0  0  0  0
 14 15  2  0  0  0  0
 14 13  1  0  0  0  0
 15 16  1  0  0  0  0
 16 11  2  0  0  0  0
 18 13  1  0  0  0  0
 19 20  1  0  0  0  0
 19 15  1  0  0  0  0
 21 20  1  0  0  0  0
 22 21  1  0  0  0  0
 23 22  1  0  0  0  0
 23 19  1  0  0  0  0
 24 23  1  0  0  0  0
 25 26  2  0  0  0  0
 25 30  1  0  0  0  0
 26 27  1  0  0  0  0
 27 33  1  0  0  0  0
 27 28  2  0  0  0  0
 29 28  1  0  0  0  0
 29  1  1  0  0  0  0
 30 29  2  0  0  0  0
 31 25  1  0  0  0  0
 32 26  1  0  0  0  0
M  END
>  <minimizedAffinity>
-5.60088921

>  <minimizedRMSD>
0.225742713

$$$$
