
 OpenBabel03212521083D

 33 36  0  0  0  0  0  0  0  0999 V2000
   41.0890   74.5120   59.9270 C   0  0  0  0  0  0  0  0  0  0  0  0
   40.5280   75.7650   60.1480 C   0  0  0  0  0  0  0  0  0  0  0  0
   39.3060   75.9100   60.7740 C   0  0  0  0  0  0  0  0  0  0  0  0
   38.6170   74.7750   61.1960 C   0  0  0  0  0  0  0  0  0  0  0  0
   39.1850   73.5190   60.9730 C   0  0  0  0  0  0  0  0  0  0  0  0
   40.3970   73.3880   60.3510 C   0  0  0  0  0  0  0  0  0  0  0  0
   41.0800   76.6440   59.8120 H   0  0  0  0  0  0  0  0  0  0  0  0
   38.9020   76.9040   60.9280 H   0  0  0  0  0  0  0  0  0  0  0  0
   37.6630   74.8890   61.6860 H   0  0  0  0  0  0  0  0  0  0  0  0
   38.5850   72.6820   61.3320 H   0  0  0  0  0  0  0  0  0  0  0  0
   40.9440   72.0660   60.1420 C   0  0  0  0  0  0  0  0  0  0  0  0
   40.5910   71.5580   58.8800 C   0  0  0  0  0  0  0  0  0  0  0  0
   41.0150   70.2910   58.4700 C   0  0  0  0  0  0  0  0  0  0  0  0
   41.7710   69.5890   59.3370 N   0  0  0  0  0  0  0  0  0  0  0  0
   42.1010   70.0940   60.5480 C   0  0  0  0  0  0  0  0  0  0  0  0
   41.7030   71.3050   60.9570 N   0  0  0  0  0  0  0  0  0  0  0  0
   39.9910   72.0650   58.1400 H   0  0  0  0  0  0  0  0  0  0  0  0
   40.7570   69.8790   57.5060 H   0  0  0  0  0  0  0  0  0  0  0  0
   42.8990   69.3550   61.4650 N   0  0  0  0  0  0  0  0  0  0  0  0
   43.1490   69.5290   62.8830 C   0  0  0  0  0  2  0  0  0  0  0  0
   42.6990   68.1890   63.4230 C   0  0  0  0  0  2  0  0  0  0  0  0
   43.3300   67.2350   62.4310 C   0  0  0  0  0  2  0  0  0  0  0  0
   43.7370   68.1820   61.3220 C   0  0  0  0  0  3  0  0  0  0  0  0
   43.4320   67.6710   60.3620 H   0  0  0  0  0  0  0  0  0  0  0  0
   44.6890   74.1410   59.4150 C   0  0  0  0  0  0  0  0  0  0  0  0
   44.8180   74.2360   58.0360 C   0  0  0  0  0  0  0  0  0  0  0  0
   43.6500   74.4320   57.2550 C   0  0  0  0  0  0  0  0  0  0  0  0
   42.4670   74.5140   57.9100 N   0  0  0  0  0  0  0  0  0  0  0  0
   42.3740   74.4180   59.2640 C   0  0  0  0  0  0  0  0  0  0  0  0
   43.4800   74.2350   59.9690 N   0  0  0  0  0  0  0  0  0  0  0  0
   45.5510   73.9910   60.0570 H   0  0  0  0  0  0  0  0  0  0  0  0
   45.7720   74.1640   57.5600 H   0  0  0  0  0  0  0  0  0  0  0  0
   43.7070   74.5090   56.1870 H   0  0  0  0  0  0  0  0  0  0  0  0
  1  2  2  0  0  0  0
  1  6  1  0  0  0  0
  2  3  1  0  0  0  0
  3  8  1  0  0  0  0
  3  4  2  0  0  0  0
  4  9  1  0  0  0  0
  5  4  1  0  0  0  0
  5 10  1  0  0  0  0
  6  5  2  0  0  0  0
  7  2  1  0  0  0  0
 11  6  1  0  0  0  0
 11 16  1  0  0  0  0
 12 11  2  0  0  0  0
 13 12  1  0  0  0  0
 13 14  2  0  0  0  0
 14 15  1  0  0  0  0
 15 16  2  0  0  0  0
 15 19  1  0  0  0  0
 17 12  1  0  0  0  0
 18 13  1  0  0  0  0
 19 20  1  0  0  0  0
 20 21  1  0  0  0  0
 22 21  1  0  0  0  0
 23 19  1  0  0  0  0
 23 22  1  0  0  0  0
 24 23  1  0  0  0  0
 25 30  1  0  0  0  0
 25 31  1  0  0  0  0
 26 25  2  0  0  0  0
 27 28  2  0  0  0  0
 27 26  1  0  0  0  0
 28 29  1  0  0  0  0
 29  1  1  0  0  0  0
 29 30  2  0  0  0  0
 32 26  1  0  0  0  0
 33 27  1  0  0  0  0
M  END
>  <minimizedAffinity>
-5.78884315

$$$$

 OpenBabel03212521083D

 33 36  0  0  0  0  0  0  0  0999 V2000
   42.1570   72.8880   60.0930 C   0  0  0  0  0  0  0  0  0  0  0  0
   42.7200   71.8300   60.7970 C   0  0  0  0  0  0  0  0  0  0  0  0
   42.1530   71.3550   61.9630 C   0  0  0  0  0  0  0  0  0  0  0  0
   40.9890   71.9480   62.4460 C   0  0  0  0  0  0  0  0  0  0  0  0
   40.4270   73.0100   61.7360 C   0  0  0  0  0  0  0  0  0  0  0  0
   40.9990   73.4730   60.5810 C   0  0  0  0  0  0  0  0  0  0  0  0
   43.6320   71.3760   60.4060 H   0  0  0  0  0  0  0  0  0  0  0  0
   42.6220   70.5280   62.4840 H   0  0  0  0  0  0  0  0  0  0  0  0
   40.5460   71.5760   63.3570 H   0  0  0  0  0  0  0  0  0  0  0  0
   39.5190   73.4200   62.1780 H   0  0  0  0  0  0  0  0  0  0  0  0
   40.3800   74.5770   59.8790 C   0  0  0  0  0  0  0  0  0  0  0  0
   40.5130   75.7790   60.5940 C   0  0  0  0  0  0  0  0  0  0  0  0
   39.9860   76.9730   60.0980 C   0  0  0  0  0  0  0  0  0  0  0  0
   39.3510   76.9150   58.9110 N   0  0  0  0  0  0  0  0  0  0  0  0
   39.2320   75.7480   58.2370 C   0  0  0  0  0  0  0  0  0  0  0  0
   39.7300   74.5940   58.6980 N   0  0  0  0  0  0  0  0  0  0  0  0
   41.0090   75.8960   61.5470 H   0  0  0  0  0  0  0  0  0  0  0  0
   40.0760   77.9100   60.6290 H   0  0  0  0  0  0  0  0  0  0  0  0
   38.5610   75.6830   56.9840 N   0  0  0  0  0  0  0  0  0  0  0  0
   38.0570   74.5600   56.2170 C   0  0  0  0  0  2  0  0  0  0  0  0
   36.5970   74.9350   56.0800 C   0  0  0  0  0  2  0  0  0  0  0  0
   36.6940   76.4010   55.7140 C   0  0  0  0  0  2  0  0  0  0  0  0
   38.1450   76.6940   56.0340 C   0  0  0  0  0  3  0  0  0  0  0  0
   38.1380   77.6820   56.5810 H   0  0  0  0  0  0  0  0  0  0  0  0
   43.0830   73.1420   56.5650 C   0  0  0  0  0  0  0  0  0  0  0  0
   43.9860   74.1980   56.5560 C   0  0  0  0  0  0  0  0  0  0  0  0
   44.2910   74.8430   57.7830 C   0  0  0  0  0  0  0  0  0  0  0  0
   43.6750   74.3860   58.9000 N   0  0  0  0  0  0  0  0  0  0  0  0
   42.7940   73.3480   58.8750 C   0  0  0  0  0  0  0  0  0  0  0  0
   42.5280   72.7640   57.7170 N   0  0  0  0  0  0  0  0  0  0  0  0
   42.8160   72.6160   55.6550 H   0  0  0  0  0  0  0  0  0  0  0  0
   44.4490   74.5260   55.6510 H   0  0  0  0  0  0  0  0  0  0  0  0
   44.9830   75.6620   57.8190 H   0  0  0  0  0  0  0  0  0  0  0  0
  1  6  2  0  0  0  0
  1  2  1  0  0  0  0
  2  3  2  0  0  0  0
  3  4  1  0  0  0  0
  3  8  1  0  0  0  0
  4  9  1  0  0  0  0
  5 10  1  0  0  0  0
  5  4  2  0  0  0  0
  6  5  1  0  0  0  0
  7  2  1  0  0  0  0
 11  6  1  0  0  0  0
 11 12  1  0  0  0  0
 12 17  1  0  0  0  0
 13 12  2  0  0  0  0
 13 18  1  0  0  0  0
 14 13  1  0  0  0  0
 15 16  1  0  0  0  0
 15 14  2  0  0  0  0
 16 11  2  0  0  0  0
 19 15  1  0  0  0  0
 20 19  1  0  0  0  0
 21 20  1  0  0  0  0
 22 23  1  0  0  0  0
 22 21  1  0  0  0  0
 23 24  1  0  0  0  0
 23 19  1  0  0  0  0
 25 30  1  0  0  0  0
 26 25  2  0  0  0  0
 26 27  1  0  0  0  0
 27 33  1  0  0  0  0
 27 28  2  0  0  0  0
 29 28  1  0  0  0  0
 29  1  1  0  0  0  0
 30 29  2  0  0  0  0
 31 25  1  0  0  0  0
 32 26  1  0  0  0  0
M  END
>  <minimizedAffinity>
-5.55564594

$$$$

 OpenBabel03212521083D

 33 36  0  0  0  0  0  0  0  0999 V2000
   41.4650   74.6840   59.7440 C   0  0  0  0  0  0  0  0  0  0  0  0
   40.9770   75.9590   59.4820 C   0  0  0  0  0  0  0  0  0  0  0  0
   39.8290   76.4320   60.0850 C   0  0  0  0  0  0  0  0  0  0  0  0
   39.1400   75.6120   60.9770 C   0  0  0  0  0  0  0  0  0  0  0  0
   39.6330   74.3320   61.2370 C   0  0  0  0  0  0  0  0  0  0  0  0
   40.7740   73.8750   60.6330 C   0  0  0  0  0  0  0  0  0  0  0  0
   41.5280   76.5890   58.7820 H   0  0  0  0  0  0  0  0  0  0  0  0
   39.4800   77.4320   59.8550 H   0  0  0  0  0  0  0  0  0  0  0  0
   38.2430   75.9820   61.4480 H   0  0  0  0  0  0  0  0  0  0  0  0
   39.0390   73.7540   61.9440 H   0  0  0  0  0  0  0  0  0  0  0  0
   41.2460   72.5410   60.9340 C   0  0  0  0  0  0  0  0  0  0  0  0
   41.7610   72.4610   62.2380 C   0  0  0  0  0  0  0  0  0  0  0  0
   42.2720   71.2600   62.7370 C   0  0  0  0  0  0  0  0  0  0  0  0
   42.2450   70.1950   61.9130 N   0  0  0  0  0  0  0  0  0  0  0  0
   41.7460   70.2910   60.6590 C   0  0  0  0  0  0  0  0  0  0  0  0
   41.2520   71.4330   60.1640 N   0  0  0  0  0  0  0  0  0  0  0  0
   41.8120   73.2730   62.9490 H   0  0  0  0  0  0  0  0  0  0  0  0
   42.6740   71.1730   63.7360 H   0  0  0  0  0  0  0  0  0  0  0  0
   41.7170   69.1680   59.7870 N   0  0  0  0  0  0  0  0  0  0  0  0
   41.5120   69.0650   58.3550 C   0  0  0  0  0  2  0  0  0  0  0  0
   42.7820   68.3580   57.9310 C   0  0  0  0  0  2  0  0  0  0  0  0
   42.8900   67.2730   58.9810 C   0  0  0  0  0  2  0  0  0  0  0  0
   41.8780   67.7440   60.0040 C   0  0  0  0  0  3  0  0  0  0  0  0
   42.3810   67.6160   61.0070 H   0  0  0  0  0  0  0  0  0  0  0  0
   43.7080   73.3440   57.1870 C   0  0  0  0  0  0  0  0  0  0  0  0
   44.9490   73.3870   57.8100 C   0  0  0  0  0  0  0  0  0  0  0  0
   45.0280   73.8850   59.1360 C   0  0  0  0  0  0  0  0  0  0  0  0
   43.8760   74.2940   59.7210 N   0  0  0  0  0  0  0  0  0  0  0  0
   42.6750   74.2380   59.0830 C   0  0  0  0  0  0  0  0  0  0  0  0
   42.6290   73.7680   57.8460 N   0  0  0  0  0  0  0  0  0  0  0  0
   43.5940   72.9720   56.1750 H   0  0  0  0  0  0  0  0  0  0  0  0
   45.8340   73.0550   57.3110 H   0  0  0  0  0  0  0  0  0  0  0  0
   45.9680   73.9360   59.6510 H   0  0  0  0  0  0  0  0  0  0  0  0
  1  6  1  0  0  0  0
  2  1  2  0  0  0  0
  2  3  1  0  0  0  0
  3  4  2  0  0  0  0
  4  5  1  0  0  0  0
  4  9  1  0  0  0  0
  5 10  1  0  0  0  0
  6 11  1  0  0  0  0
  6  5  2  0  0  0  0
  7  2  1  0  0  0  0
  8  3  1  0  0  0  0
 11 12  1  0  0  0  0
 12 13  2  0  0  0  0
 12 17  1  0  0  0  0
 13 18  1  0  0  0  0
 14 13  1  0  0  0  0
 15 14  2  0  0  0  0
 16 15  1  0  0  0  0
 16 11  2  0  0  0  0
 19 23  1  0  0  0  0
 19 15  1  0  0  0  0
 20 19  1  0  0  0  0
 21 20  1  0  0  0  0
 21 22  1  0  0  0  0
 22 23  1  0  0  0  0
 23 24  1  0  0  0  0
 25 26  2  0  0  0  0
 25 30  1  0  0  0  0
 26 27  1  0  0  0  0
 27 33  1  0  0  0  0
 27 28  2  0  0  0  0
 29 28  1  0  0  0  0
 29  1  1  0  0  0  0
 30 29  2  0  0  0  0
 31 25  1  0  0  0  0
 32 26  1  0  0  0  0
M  END
>  <minimizedAffinity>
-5.53779888

$$$$

 OpenBabel03212521083D

 33 36  0  0  0  0  0  0  0  0999 V2000
   41.3980   73.4830   59.9020 C   0  0  0  0  0  0  0  0  0  0  0  0
   41.7710   72.8880   61.1010 C   0  0  0  0  0  0  0  0  0  0  0  0
   41.9550   71.5240   61.2050 C   0  0  0  0  0  0  0  0  0  0  0  0
   41.7640   70.7220   60.0810 C   0  0  0  0  0  0  0  0  0  0  0  0
   41.3890   71.3240   58.8790 C   0  0  0  0  0  0  0  0  0  0  0  0
   41.2090   72.6790   58.7880 C   0  0  0  0  0  0  0  0  0  0  0  0
   41.9170   73.5290   61.9720 H   0  0  0  0  0  0  0  0  0  0  0  0
   42.2460   71.0970   62.1580 H   0  0  0  0  0  0  0  0  0  0  0  0
   41.9090   69.6560   60.1630 H   0  0  0  0  0  0  0  0  0  0  0  0
   41.2580   70.6310   58.0480 H   0  0  0  0  0  0  0  0  0  0  0  0
   40.8210   73.2560   57.5200 C   0  0  0  0  0  0  0  0  0  0  0  0
   41.8960   73.2820   56.6170 C   0  0  0  0  0  0  0  0  0  0  0  0
   41.7420   73.8000   55.3290 C   0  0  0  0  0  0  0  0  0  0  0  0
   40.5220   74.2680   55.0010 N   0  0  0  0  0  0  0  0  0  0  0  0
   39.4970   74.2360   55.8840 C   0  0  0  0  0  0  0  0  0  0  0  0
   39.6280   73.7440   57.1220 N   0  0  0  0  0  0  0  0  0  0  0  0
   42.8960   72.9240   56.8140 H   0  0  0  0  0  0  0  0  0  0  0  0
   42.5530   73.8310   54.6160 H   0  0  0  0  0  0  0  0  0  0  0  0
   38.2090   74.7300   55.5400 N   0  0  0  0  0  0  0  0  0  0  0  0
   37.0580   75.0690   56.3540 C   0  0  0  0  0  2  0  0  0  0  0  0
   36.8420   76.5150   55.9640 C   0  0  0  0  0  2  0  0  0  0  0  0
   36.9860   76.4470   54.4590 C   0  0  0  0  0  2  0  0  0  0  0  0
   37.5860   75.0690   54.2770 C   0  0  0  0  0  3  0  0  0  0  0  0
   38.4160   75.2000   53.5220 H   0  0  0  0  0  0  0  0  0  0  0  0
   39.8430   76.7790   60.1880 C   0  0  0  0  0  0  0  0  0  0  0  0
   40.8490   77.6350   59.7580 C   0  0  0  0  0  0  0  0  0  0  0  0
   42.0910   77.0790   59.3600 C   0  0  0  0  0  0  0  0  0  0  0  0
   42.2230   75.7320   59.4230 N   0  0  0  0  0  0  0  0  0  0  0  0
   41.2170   74.9200   59.8490 C   0  0  0  0  0  0  0  0  0  0  0  0
   40.0670   75.4650   60.2150 N   0  0  0  0  0  0  0  0  0  0  0  0
   38.8740   77.1530   60.5020 H   0  0  0  0  0  0  0  0  0  0  0  0
   40.7020   78.6930   59.7240 H   0  0  0  0  0  0  0  0  0  0  0  0
   42.8940   77.7060   59.0220 H   0  0  0  0  0  0  0  0  0  0  0  0
  1  2  1  0  0  0  0
  2  3  2  0  0  0  0
  2  7  1  0  0  0  0
  3  8  1  0  0  0  0
  4  9  1  0  0  0  0
  4  3  1  0  0  0  0
  5  4  2  0  0  0  0
  6  5  1  0  0  0  0
  6  1  2  0  0  0  0
 10  5  1  0  0  0  0
 11  6  1  0  0  0  0
 12 17  1  0  0  0  0
 12 11  2  0  0  0  0
 13 12  1  0  0  0  0
 14 13  2  0  0  0  0
 14 15  1  0  0  0  0
 15 16  2  0  0  0  0
 16 11  1  0  0  0  0
 18 13  1  0  0  0  0
 19 15  1  0  0  0  0
 19 20  1  0  0  0  0
 21 20  1  0  0  0  0
 22 21  1  0  0  0  0
 23 22  1  0  0  0  0
 23 19  1  0  0  0  0
 24 23  1  0  0  0  0
 25 30  1  0  0  0  0
 25 31  1  0  0  0  0
 26 25  2  0  0  0  0
 27 28  2  0  0  0  0
 27 26  1  0  0  0  0
 28 29  1  0  0  0  0
 29  1  1  0  0  0  0
 29 30  2  0  0  0  0
 32 26  1  0  0  0  0
 33 27  1  0  0  0  0
M  END
>  <minimizedAffinity>
-5.44500494

$$$$

 OpenBabel03212521083D

 33 36  0  0  0  0  0  0  0  0999 V2000
   38.2390   75.2070   57.0260 C   0  0  0  0  0  0  0  0  0  0  0  0
   37.0930   75.8210   56.5340 C   0  0  0  0  0  0  0  0  0  0  0  0
   36.7780   75.7940   55.1900 C   0  0  0  0  0  0  0  0  0  0  0  0
   37.6280   75.1370   54.3040 C   0  0  0  0  0  0  0  0  0  0  0  0
   38.7780   74.5210   54.8020 C   0  0  0  0  0  0  0  0  0  0  0  0
   39.0790   74.5550   56.1370 C   0  0  0  0  0  0  0  0  0  0  0  0
   36.4370   76.3320   57.2410 H   0  0  0  0  0  0  0  0  0  0  0  0
   35.8750   76.2850   54.8450 H   0  0  0  0  0  0  0  0  0  0  0  0
   37.3810   75.1150   53.2540 H   0  0  0  0  0  0  0  0  0  0  0  0
   39.3900   74.0290   54.0470 H   0  0  0  0  0  0  0  0  0  0  0  0
   40.2820   73.9030   56.6060 C   0  0  0  0  0  0  0  0  0  0  0  0
   41.4180   74.7010   56.3880 C   0  0  0  0  0  0  0  0  0  0  0  0
   42.6890   74.2630   56.7660 C   0  0  0  0  0  0  0  0  0  0  0  0
   42.7700   73.0490   57.3440 N   0  0  0  0  0  0  0  0  0  0  0  0
   41.6660   72.2930   57.5460 C   0  0  0  0  0  0  0  0  0  0  0  0
   40.4400   72.6970   57.1900 N   0  0  0  0  0  0  0  0  0  0  0  0
   41.4230   75.6800   55.9310 H   0  0  0  0  0  0  0  0  0  0  0  0
   43.5770   74.8580   56.6090 H   0  0  0  0  0  0  0  0  0  0  0  0
   41.7490   71.0110   58.1560 N   0  0  0  0  0  0  0  0  0  0  0  0
   40.8030   69.9140   58.2270 C   0  0  0  0  0  2  0  0  0  0  0  0
   41.6120   68.7940   57.6090 C   0  0  0  0  0  2  0  0  0  0  0  0
   42.9500   68.9730   58.2940 C   0  0  0  0  0  2  0  0  0  0  0  0
   42.7880   70.3440   58.9150 C   0  0  0  0  0  3  0  0  0  0  0  0
   43.7550   70.8870   58.7030 H   0  0  0  0  0  0  0  0  0  0  0  0
   39.5010   76.3870   60.2480 C   0  0  0  0  0  0  0  0  0  0  0  0
   39.0710   75.4030   61.1290 C   0  0  0  0  0  0  0  0  0  0  0  0
   38.3310   74.3070   60.6160 C   0  0  0  0  0  0  0  0  0  0  0  0
   38.0850   74.2860   59.2840 N   0  0  0  0  0  0  0  0  0  0  0  0
   38.5220   75.2670   58.4460 C   0  0  0  0  0  0  0  0  0  0  0  0
   39.2100   76.2790   58.9510 N   0  0  0  0  0  0  0  0  0  0  0  0
   40.0700   77.2450   60.5890 H   0  0  0  0  0  0  0  0  0  0  0  0
   39.2860   75.4590   62.1740 H   0  0  0  0  0  0  0  0  0  0  0  0
   37.9800   73.5270   61.2630 H   0  0  0  0  0  0  0  0  0  0  0  0
  1 29  1  0  0  0  0
  2  1  1  0  0  0  0
  2  7  1  0  0  0  0
  3  2  2  0  0  0  0
  4  5  2  0  0  0  0
  4  3  1  0  0  0  0
  5  6  1  0  0  0  0
  6 11  1  0  0  0  0
  6  1  2  0  0  0  0
  8  3  1  0  0  0  0
  9  4  1  0  0  0  0
 10  5  1  0  0  0  0
 11 16  1  0  0  0  0
 12 11  2  0  0  0  0
 12 13  1  0  0  0  0
 13 14  2  0  0  0  0
 14 15  1  0  0  0  0
 15 19  1  0  0  0  0
 16 15  2  0  0  0  0
 17 12  1  0  0  0  0
 18 13  1  0  0  0  0
 19 20  1  0  0  0  0
 19 23  1  0  0  0  0
 21 20  1  0  0  0  0
 21 22  1  0  0  0  0
 22 23  1  0  0  0  0
 24 23  1  0  0  0  0
 25 31  1  0  0  0  0
 25 26  1  0  0  0  0
 26 32  1  0  0  0  0
 27 26  2  0  0  0  0
 27 33  1  0  0  0  0
 28 27  1  0  0  0  0
 29 30  1  0  0  0  0
 29 28  2  0  0  0  0
 30 25  2  0  0  0  0
M  END
>  <minimizedAffinity>
-5.38379002

$$$$

 OpenBabel03212521083D

 33 36  0  0  0  0  0  0  0  0999 V2000
   38.0310   75.3520   56.6520 C   0  0  0  0  0  0  0  0  0  0  0  0
   36.9470   76.1080   56.2200 C   0  0  0  0  0  0  0  0  0  0  0  0
   36.5830   76.1550   54.8890 C   0  0  0  0  0  0  0  0  0  0  0  0
   37.3190   75.4300   53.9540 C   0  0  0  0  0  0  0  0  0  0  0  0
   38.4060   74.6720   54.3920 C   0  0  0  0  0  0  0  0  0  0  0  0
   38.7570   74.6320   55.7160 C   0  0  0  0  0  0  0  0  0  0  0  0
   36.3810   76.6700   56.9640 H   0  0  0  0  0  0  0  0  0  0  0  0
   35.7320   76.7560   54.5910 H   0  0  0  0  0  0  0  0  0  0  0  0
   37.0340   75.4670   52.9150 H   0  0  0  0  0  0  0  0  0  0  0  0
   38.9300   74.1340   53.6020 H   0  0  0  0  0  0  0  0  0  0  0  0
   39.8930   73.8330   56.1210 C   0  0  0  0  0  0  0  0  0  0  0  0
   39.6410   72.4610   55.9530 C   0  0  0  0  0  0  0  0  0  0  0  0
   40.6060   71.5070   56.2830 C   0  0  0  0  0  0  0  0  0  0  0  0
   41.7780   71.9640   56.7670 N   0  0  0  0  0  0  0  0  0  0  0  0
   42.0020   73.2890   56.9230 C   0  0  0  0  0  0  0  0  0  0  0  0
   41.0890   74.2180   56.6120 N   0  0  0  0  0  0  0  0  0  0  0  0
   38.7280   72.0280   55.5720 H   0  0  0  0  0  0  0  0  0  0  0  0
   40.4370   70.4470   56.1630 H   0  0  0  0  0  0  0  0  0  0  0  0
   43.2380   73.7750   57.4330 N   0  0  0  0  0  0  0  0  0  0  0  0
   43.6230   75.0730   57.9520 C   0  0  0  0  0  2  0  0  0  0  0  0
   44.1110   74.6980   59.3360 C   0  0  0  0  0  2  0  0  0  0  0  0
   44.9550   73.4770   59.0390 C   0  0  0  0  0  2  0  0  0  0  0  0
   44.5390   73.1630   57.6170 C   0  0  0  0  0  3  0  0  0  0  0  0
   44.3870   72.0450   57.5880 H   0  0  0  0  0  0  0  0  0  0  0  0
   38.2580   74.2700   60.1360 C   0  0  0  0  0  0  0  0  0  0  0  0
   38.9950   75.2870   60.7300 C   0  0  0  0  0  0  0  0  0  0  0  0
   39.4280   76.3720   59.9250 C   0  0  0  0  0  0  0  0  0  0  0  0
   39.0930   76.3510   58.6120 N   0  0  0  0  0  0  0  0  0  0  0  0
   38.3690   75.3380   58.0610 C   0  0  0  0  0  0  0  0  0  0  0  0
   37.9780   74.3370   58.8340 N   0  0  0  0  0  0  0  0  0  0  0  0
   37.9040   73.4180   60.7070 H   0  0  0  0  0  0  0  0  0  0  0  0
   39.2370   75.2640   61.7700 H   0  0  0  0  0  0  0  0  0  0  0  0
   39.9990   77.1780   60.3450 H   0  0  0  0  0  0  0  0  0  0  0  0
  1 29  1  0  0  0  0
  2  1  1  0  0  0  0
  2  7  1  0  0  0  0
  3  2  2  0  0  0  0
  4  5  2  0  0  0  0
  4  3  1  0  0  0  0
  5  6  1  0  0  0  0
  6 11  1  0  0  0  0
  6  1  2  0  0  0  0
  8  3  1  0  0  0  0
  9  4  1  0  0  0  0
 10  5  1  0  0  0  0
 11 16  1  0  0  0  0
 12 11  2  0  0  0  0
 12 13  1  0  0  0  0
 13 14  2  0  0  0  0
 14 15  1  0  0  0  0
 15 19  1  0  0  0  0
 16 15  2  0  0  0  0
 17 12  1  0  0  0  0
 18 13  1  0  0  0  0
 19 23  1  0  0  0  0
 19 20  1  0  0  0  0
 20 21  1  0  0  0  0
 22 21  1  0  0  0  0
 23 22  1  0  0  0  0
 24 23  1  0  0  0  0
 25 31  1  0  0  0  0
 25 26  1  0  0  0  0
 26 32  1  0  0  0  0
 27 33  1  0  0  0  0
 27 26  2  0  0  0  0
 28 27  1  0  0  0  0
 29 28  2  0  0  0  0
 29 30  1  0  0  0  0
 30 25  2  0  0  0  0
M  END
>  <minimizedAffinity>
-5.38338614

$$$$

 OpenBabel03212521083D

 33 36  0  0  0  0  0  0  0  0999 V2000
   42.2530   74.3710   59.0610 C   0  0  0  0  0  0  0  0  0  0  0  0
   43.4740   74.4260   59.7230 C   0  0  0  0  0  0  0  0  0  0  0  0
   44.6690   74.2610   59.0520 C   0  0  0  0  0  0  0  0  0  0  0  0
   44.6530   74.0320   57.6780 C   0  0  0  0  0  0  0  0  0  0  0  0
   43.4250   73.9780   57.0160 C   0  0  0  0  0  0  0  0  0  0  0  0
   42.2460   74.1440   57.6930 C   0  0  0  0  0  0  0  0  0  0  0  0
   43.4690   74.6060   60.7990 H   0  0  0  0  0  0  0  0  0  0  0  0
   45.6000   74.3100   59.6040 H   0  0  0  0  0  0  0  0  0  0  0  0
   45.5870   73.9030   57.1540 H   0  0  0  0  0  0  0  0  0  0  0  0
   43.4970   73.7960   55.9440 H   0  0  0  0  0  0  0  0  0  0  0  0
   40.9990   74.0790   56.9640 C   0  0  0  0  0  0  0  0  0  0  0  0
   40.6750   72.7560   56.6170 C   0  0  0  0  0  0  0  0  0  0  0  0
   39.5080   72.4640   55.9070 C   0  0  0  0  0  0  0  0  0  0  0  0
   38.7170   73.5030   55.5760 N   0  0  0  0  0  0  0  0  0  0  0  0
   39.0450   74.7710   55.9180 C   0  0  0  0  0  0  0  0  0  0  0  0
   40.1590   75.0690   56.5980 N   0  0  0  0  0  0  0  0  0  0  0  0
   41.2620   71.8800   56.8510 H   0  0  0  0  0  0  0  0  0  0  0  0
   39.2370   71.4560   55.6290 H   0  0  0  0  0  0  0  0  0  0  0  0
   38.2120   75.8690   55.5690 N   0  0  0  0  0  0  0  0  0  0  0  0
   38.4570   77.2990   55.5570 C   0  0  0  0  0  2  0  0  0  0  0  0
   38.1500   77.6330   54.1130 C   0  0  0  0  0  2  0  0  0  0  0  0
   36.8670   76.8620   53.8890 C   0  0  0  0  0  2  0  0  0  0  0  0
   36.8420   75.9630   55.1070 C   0  0  0  0  0  3  0  0  0  0  0  0
   36.5510   74.9420   54.7220 H   0  0  0  0  0  0  0  0  0  0  0  0
   39.4670   75.9960   60.7810 C   0  0  0  0  0  0  0  0  0  0  0  0
   38.7150   74.9210   61.2380 C   0  0  0  0  0  0  0  0  0  0  0  0
   39.1650   73.6060   60.9550 C   0  0  0  0  0  0  0  0  0  0  0  0
   40.3140   73.4770   60.2480 N   0  0  0  0  0  0  0  0  0  0  0  0
   41.0280   74.5520   59.8140 C   0  0  0  0  0  0  0  0  0  0  0  0
   40.5860   75.7680   60.0920 N   0  0  0  0  0  0  0  0  0  0  0  0
   39.1660   77.0210   60.9720 H   0  0  0  0  0  0  0  0  0  0  0  0
   37.8140   75.0680   61.7930 H   0  0  0  0  0  0  0  0  0  0  0  0
   38.6130   72.7490   61.2890 H   0  0  0  0  0  0  0  0  0  0  0  0
  1  2  1  0  0  0  0
  1 29  1  0  0  0  0
  2  7  1  0  0  0  0
  3  8  1  0  0  0  0
  3  2  2  0  0  0  0
  4  3  1  0  0  0  0
  5  4  2  0  0  0  0
  5  6  1  0  0  0  0
  6  1  2  0  0  0  0
  9  4  1  0  0  0  0
 10  5  1  0  0  0  0
 11  6  1  0  0  0  0
 12 17  1  0  0  0  0
 12 11  1  0  0  0  0
 13 12  2  0  0  0  0
 14 13  1  0  0  0  0
 14 15  2  0  0  0  0
 15 16  1  0  0  0  0
 16 11  2  0  0  0  0
 18 13  1  0  0  0  0
 19 15  1  0  0  0  0
 20 19  1  0  0  0  0
 21 20  1  0  0  0  0
 22 21  1  0  0  0  0
 22 23  1  0  0  0  0
 23 19  1  0  0  0  0
 24 23  1  0  0  0  0
 25 31  1  0  0  0  0
 25 26  1  0  0  0  0
 26 32  1  0  0  0  0
 27 26  2  0  0  0  0
 27 33  1  0  0  0  0
 28 27  1  0  0  0  0
 29 30  1  0  0  0  0
 29 28  2  0  0  0  0
 30 25  2  0  0  0  0
M  END
>  <minimizedAffinity>
-5.36287689

$$$$

 OpenBabel03212521083D

 33 36  0  0  0  0  0  0  0  0999 V2000
   41.2760   70.0300   58.6340 C   0  0  0  0  0  0  0  0  0  0  0  0
   41.0100   68.6670   58.6800 C   0  0  0  0  0  0  0  0  0  0  0  0
   41.3500   67.9010   59.7770 C   0  0  0  0  0  0  0  0  0  0  0  0
   41.9760   68.5060   60.8640 C   0  0  0  0  0  0  0  0  0  0  0  0
   42.2420   69.8760   60.8130 C   0  0  0  0  0  0  0  0  0  0  0  0
   41.8990   70.6260   59.7200 C   0  0  0  0  0  0  0  0  0  0  0  0
   40.5190   68.2070   57.8210 H   0  0  0  0  0  0  0  0  0  0  0  0
   41.1270   66.8400   59.7750 H   0  0  0  0  0  0  0  0  0  0  0  0
   42.2420   67.9070   61.7210 H   0  0  0  0  0  0  0  0  0  0  0  0
   42.7330   70.2740   61.7010 H   0  0  0  0  0  0  0  0  0  0  0  0
   42.1940   72.0410   59.7140 C   0  0  0  0  0  0  0  0  0  0  0  0
   43.5790   72.2770   59.6660 C   0  0  0  0  0  0  0  0  0  0  0  0
   44.0880   73.5770   59.6520 C   0  0  0  0  0  0  0  0  0  0  0  0
   43.1930   74.5840   59.6860 N   0  0  0  0  0  0  0  0  0  0  0  0
   41.8630   74.3390   59.7330 C   0  0  0  0  0  0  0  0  0  0  0  0
   41.3580   73.0990   59.7470 N   0  0  0  0  0  0  0  0  0  0  0  0
   44.3480   71.5190   59.6360 H   0  0  0  0  0  0  0  0  0  0  0  0
   45.1480   73.7840   59.6150 H   0  0  0  0  0  0  0  0  0  0  0  0
   40.9160   75.4000   59.7700 N   0  0  0  0  0  0  0  0  0  0  0  0
   39.5050   75.4210   60.1000 C   0  0  0  0  0  2  0  0  0  0  0  0
   39.4870   76.4280   61.2310 C   0  0  0  0  0  2  0  0  0  0  0  0
   40.3750   77.5220   60.6760 C   0  0  0  0  0  2  0  0  0  0  0  0
   41.0130   76.8190   59.4950 C   0  0  0  0  0  3  0  0  0  0  0  0
   42.1080   77.0920   59.5390 H   0  0  0  0  0  0  0  0  0  0  0  0
   39.2760   72.0040   56.2950 C   0  0  0  0  0  0  0  0  0  0  0  0
   40.1550   72.2230   55.2420 C   0  0  0  0  0  0  0  0  0  0  0  0
   41.4650   71.6850   55.3270 C   0  0  0  0  0  0  0  0  0  0  0  0
   41.7830   70.9840   56.4420 N   0  0  0  0  0  0  0  0  0  0  0  0
   40.8970   70.7870   57.4570 C   0  0  0  0  0  0  0  0  0  0  0  0
   39.6810   71.2990   57.3530 N   0  0  0  0  0  0  0  0  0  0  0  0
   38.2630   72.3930   56.2790 H   0  0  0  0  0  0  0  0  0  0  0  0
   39.8620   72.7820   54.3810 H   0  0  0  0  0  0  0  0  0  0  0  0
   42.1740   71.8320   54.5360 H   0  0  0  0  0  0  0  0  0  0  0  0
  1  2  2  0  0  0  0
  1  6  1  0  0  0  0
  2  3  1  0  0  0  0
  3  4  2  0  0  0  0
  4  9  1  0  0  0  0
  5  4  1  0  0  0  0
  5 10  1  0  0  0  0
  6  5  2  0  0  0  0
  7  2  1  0  0  0  0
  8  3  1  0  0  0  0
 11  6  1  0  0  0  0
 11 16  1  0  0  0  0
 12 11  2  0  0  0  0
 13 12  1  0  0  0  0
 13 14  2  0  0  0  0
 14 15  1  0  0  0  0
 15 16  2  0  0  0  0
 15 19  1  0  0  0  0
 17 12  1  0  0  0  0
 18 13  1  0  0  0  0
 19 20  1  0  0  0  0
 20 21  1  0  0  0  0
 22 21  1  0  0  0  0
 23 24  1  0  0  0  0
 23 19  1  0  0  0  0
 23 22  1  0  0  0  0
 25 30  1  0  0  0  0
 26 27  1  0  0  0  0
 26 25  2  0  0  0  0
 27 28  2  0  0  0  0
 28 29  1  0  0  0  0
 29  1  1  0  0  0  0
 30 29  2  0  0  0  0
 31 25  1  0  0  0  0
 32 26  1  0  0  0  0
 33 27  1  0  0  0  0
M  END
>  <minimizedAffinity>
-5.32128763

$$$$

 OpenBabel03212521083D

 33 36  0  0  0  0  0  0  0  0999 V2000
   40.6150   74.8530   57.4690 C   0  0  0  0  0  0  0  0  0  0  0  0
   40.0130   75.4040   56.3430 C   0  0  0  0  0  0  0  0  0  0  0  0
   40.5740   75.2750   55.0880 C   0  0  0  0  0  0  0  0  0  0  0  0
   41.7710   74.5770   54.9440 C   0  0  0  0  0  0  0  0  0  0  0  0
   42.3710   74.0250   56.0770 C   0  0  0  0  0  0  0  0  0  0  0  0
   41.8050   74.1600   57.3170 C   0  0  0  0  0  0  0  0  0  0  0  0
   39.0760   75.9480   56.4720 H   0  0  0  0  0  0  0  0  0  0  0  0
   40.0750   75.7190   54.2350 H   0  0  0  0  0  0  0  0  0  0  0  0
   42.2080   74.4760   53.9630 H   0  0  0  0  0  0  0  0  0  0  0  0
   43.3040   73.4960   55.8820 H   0  0  0  0  0  0  0  0  0  0  0  0
   42.4650   73.5700   58.4620 C   0  0  0  0  0  0  0  0  0  0  0  0
   43.4440   74.4290   58.9880 C   0  0  0  0  0  0  0  0  0  0  0  0
   44.2050   74.0580   60.0990 C   0  0  0  0  0  0  0  0  0  0  0  0
   43.9540   72.8470   60.6350 N   0  0  0  0  0  0  0  0  0  0  0  0
   43.0070   72.0330   60.1140 C   0  0  0  0  0  0  0  0  0  0  0  0
   42.2690   72.3720   59.0500 N   0  0  0  0  0  0  0  0  0  0  0  0
   43.6950   75.4090   58.6090 H   0  0  0  0  0  0  0  0  0  0  0  0
   44.9640   74.7000   60.5230 H   0  0  0  0  0  0  0  0  0  0  0  0
   42.7400   70.7540   60.6780 N   0  0  0  0  0  0  0  0  0  0  0  0
   42.0130   69.6090   60.1660 C   0  0  0  0  0  2  0  0  0  0  0  0
   43.0780   68.5350   60.2350 C   0  0  0  0  0  2  0  0  0  0  0  0
   43.6690   68.7820   61.6070 C   0  0  0  0  0  2  0  0  0  0  0  0
   43.0890   70.1400   61.9430 C   0  0  0  0  0  3  0  0  0  0  0  0
   43.9460   70.7350   62.3750 H   0  0  0  0  0  0  0  0  0  0  0  0
   38.4950   74.2260   60.3810 C   0  0  0  0  0  0  0  0  0  0  0  0
   38.7740   75.3080   61.2060 C   0  0  0  0  0  0  0  0  0  0  0  0
   39.7080   76.2800   60.7630 C   0  0  0  0  0  0  0  0  0  0  0  0
   40.2780   76.0910   59.5480 N   0  0  0  0  0  0  0  0  0  0  0  0
   39.9830   75.0190   58.7630 C   0  0  0  0  0  0  0  0  0  0  0  0
   39.1080   74.1270   59.2000 N   0  0  0  0  0  0  0  0  0  0  0  0
   37.7890   73.4570   60.6730 H   0  0  0  0  0  0  0  0  0  0  0  0
   38.3010   75.4180   62.1580 H   0  0  0  0  0  0  0  0  0  0  0  0
   39.9510   77.1300   61.3700 H   0  0  0  0  0  0  0  0  0  0  0  0
  1 29  1  0  0  0  0
  2  7  1  0  0  0  0
  2  1  2  0  0  0  0
  3  2  1  0  0  0  0
  4  3  2  0  0  0  0
  4  5  1  0  0  0  0
  5  6  2  0  0  0  0
  6  1  1  0  0  0  0
  6 11  1  0  0  0  0
  8  3  1  0  0  0  0
  9  4  1  0  0  0  0
 10  5  1  0  0  0  0
 11 12  2  0  0  0  0
 11 16  1  0  0  0  0
 12 13  1  0  0  0  0
 13 18  1  0  0  0  0
 13 14  2  0  0  0  0
 15 14  1  0  0  0  0
 15 19  1  0  0  0  0
 16 15  2  0  0  0  0
 17 12  1  0  0  0  0
 19 23  1  0  0  0  0
 20 21  1  0  0  0  0
 20 19  1  0  0  0  0
 21 22  1  0  0  0  0
 22 23  1  0  0  0  0
 23 24  1  0  0  0  0
 25 31  1  0  0  0  0
 25 26  1  0  0  0  0
 26 32  1  0  0  0  0
 27 26  2  0  0  0  0
 27 33  1  0  0  0  0
 28 27  1  0  0  0  0
 29 30  1  0  0  0  0
 29 28  2  0  0  0  0
 30 25  2  0  0  0  0
M  END
>  <minimizedAffinity>
-5.28496313

$$$$
