
 OpenBabel03212521043D

 33 36  0  0  0  0  0  0  0  0999 V2000
   41.7880   84.1660   61.5520 C   0  0  0  0  0  0  0  0  0  0  0  0
   41.4340   83.8770   62.8650 C   0  0  0  0  0  0  0  0  0  0  0  0
   40.1450   83.5210   63.2040 C   0  0  0  0  0  0  0  0  0  0  0  0
   39.1730   83.4480   62.2080 C   0  0  0  0  0  0  0  0  0  0  0  0
   39.5330   83.7390   60.8910 C   0  0  0  0  0  0  0  0  0  0  0  0
   40.8160   84.0910   60.5670 C   0  0  0  0  0  0  0  0  0  0  0  0
   42.2070   83.9380   63.6330 H   0  0  0  0  0  0  0  0  0  0  0  0
   39.9070   83.3030   64.2390 H   0  0  0  0  0  0  0  0  0  0  0  0
   38.1650   83.1690   62.4740 H   0  0  0  0  0  0  0  0  0  0  0  0
   38.7170   83.6600   60.1720 H   0  0  0  0  0  0  0  0  0  0  0  0
   41.1400   84.3830   59.1880 C   0  0  0  0  0  0  0  0  0  0  0  0
   40.8590   85.7220   58.8670 C   0  0  0  0  0  0  0  0  0  0  0  0
   41.0980   86.2190   57.5840 C   0  0  0  0  0  0  0  0  0  0  0  0
   41.6060   85.3600   56.6790 N   0  0  0  0  0  0  0  0  0  0  0  0
   41.8710   84.0730   57.0070 C   0  0  0  0  0  0  0  0  0  0  0  0
   41.6480   83.5800   58.2310 N   0  0  0  0  0  0  0  0  0  0  0  0
   40.4520   86.4610   59.5410 H   0  0  0  0  0  0  0  0  0  0  0  0
   40.8890   87.2440   57.3120 H   0  0  0  0  0  0  0  0  0  0  0  0
   42.4080   83.1640   56.0540 N   0  0  0  0  0  0  0  0  0  0  0  0
   42.7710   81.7640   56.1570 C   0  0  0  0  0  2  0  0  0  0  0  0
   41.9110   81.1600   55.0650 C   0  0  0  0  0  2  0  0  0  0  0  0
   42.1270   82.1440   53.9330 C   0  0  0  0  0  2  0  0  0  0  0  0
   42.7810   83.2990   54.6600 C   0  0  0  0  0  3  0  0  0  0  0  0
   42.2720   84.2290   54.2700 H   0  0  0  0  0  0  0  0  0  0  0  0
   45.2910   83.9040   60.5380 C   0  0  0  0  0  0  0  0  0  0  0  0
   45.7520   85.2070   60.6760 C   0  0  0  0  0  0  0  0  0  0  0  0
   44.8500   86.2040   61.1270 C   0  0  0  0  0  0  0  0  0  0  0  0
   43.5780   85.8220   61.3970 N   0  0  0  0  0  0  0  0  0  0  0  0
   43.1570   84.5350   61.2510 C   0  0  0  0  0  0  0  0  0  0  0  0
   44.0200   83.6240   60.8300 N   0  0  0  0  0  0  0  0  0  0  0  0
   45.9410   83.1050   60.1980 H   0  0  0  0  0  0  0  0  0  0  0  0
   46.7640   85.4660   60.4520 H   0  0  0  0  0  0  0  0  0  0  0  0
   45.1660   87.2230   61.2460 H   0  0  0  0  0  0  0  0  0  0  0  0
  1  2  1  0  0  0  0
  2  3  2  0  0  0  0
  2  7  1  0  0  0  0
  3  8  1  0  0  0  0
  4  9  1  0  0  0  0
  4  3  1  0  0  0  0
  5  4  2  0  0  0  0
  6  5  1  0  0  0  0
  6  1  2  0  0  0  0
 10  5  1  0  0  0  0
 11  6  1  0  0  0  0
 12 11  1  0  0  0  0
 12 17  1  0  0  0  0
 13 12  2  0  0  0  0
 14 15  2  0  0  0  0
 14 13  1  0  0  0  0
 15 16  1  0  0  0  0
 16 11  2  0  0  0  0
 18 13  1  0  0  0  0
 19 20  1  0  0  0  0
 19 15  1  0  0  0  0
 21 20  1  0  0  0  0
 22 23  1  0  0  0  0
 22 21  1  0  0  0  0
 23 19  1  0  0  0  0
 24 23  1  0  0  0  0
 25 26  2  0  0  0  0
 25 30  1  0  0  0  0
 26 27  1  0  0  0  0
 27 33  1  0  0  0  0
 27 28  2  0  0  0  0
 29 28  1  0  0  0  0
 29  1  1  0  0  0  0
 30 29  2  0  0  0  0
 31 25  1  0  0  0  0
 32 26  1  0  0  0  0
M  END
>  <minimizedAffinity>
-5.67559624

>  <minimizedRMSD>
0.399638563

$$$$
