
 OpenBabel03212521043D

 33 36  0  0  0  0  0  0  0  0999 V2000
   41.8210   84.2370   61.5620 C   0  0  0  0  0  0  0  0  0  0  0  0
   41.4810   83.9250   62.8740 C   0  0  0  0  0  0  0  0  0  0  0  0
   40.2120   83.4970   63.2090 C   0  0  0  0  0  0  0  0  0  0  0  0
   39.2480   83.3750   62.2110 C   0  0  0  0  0  0  0  0  0  0  0  0
   39.5940   83.6890   60.8950 C   0  0  0  0  0  0  0  0  0  0  0  0
   40.8560   84.1120   60.5750 C   0  0  0  0  0  0  0  0  0  0  0  0
   42.2470   84.0260   63.6440 H   0  0  0  0  0  0  0  0  0  0  0  0
   39.9850   83.2640   64.2430 H   0  0  0  0  0  0  0  0  0  0  0  0
   38.2560   83.0400   62.4730 H   0  0  0  0  0  0  0  0  0  0  0  0
   38.7860   83.5680   60.1740 H   0  0  0  0  0  0  0  0  0  0  0  0
   41.1670   84.4260   59.1980 C   0  0  0  0  0  0  0  0  0  0  0  0
   40.6870   85.6970   58.8400 C   0  0  0  0  0  0  0  0  0  0  0  0
   40.8780   86.2020   57.5510 C   0  0  0  0  0  0  0  0  0  0  0  0
   41.5400   85.4160   56.6790 N   0  0  0  0  0  0  0  0  0  0  0  0
   41.9950   84.1940   57.0410 C   0  0  0  0  0  0  0  0  0  0  0  0
   41.8210   83.6950   58.2710 N   0  0  0  0  0  0  0  0  0  0  0  0
   40.1510   86.3750   59.4870 H   0  0  0  0  0  0  0  0  0  0  0  0
   40.5190   87.1750   57.2520 H   0  0  0  0  0  0  0  0  0  0  0  0
   42.6940   83.3640   56.1230 N   0  0  0  0  0  0  0  0  0  0  0  0
   43.0650   83.5600   54.7350 C   0  0  0  0  0  2  0  0  0  0  0  0
   44.5660   83.3860   54.8080 C   0  0  0  0  0  2  0  0  0  0  0  0
   44.6860   82.1570   55.6840 C   0  0  0  0  0  2  0  0  0  0  0  0
   43.2790   82.0430   56.2340 C   0  0  0  0  0  3  0  0  0  0  0  0
   43.4020   81.8260   57.3350 H   0  0  0  0  0  0  0  0  0  0  0  0
   45.3520   84.1610   60.6180 C   0  0  0  0  0  0  0  0  0  0  0  0
   45.7240   85.4970   60.7010 C   0  0  0  0  0  0  0  0  0  0  0  0
   44.7500   86.4520   61.0880 C   0  0  0  0  0  0  0  0  0  0  0  0
   43.5010   85.9990   61.3560 N   0  0  0  0  0  0  0  0  0  0  0  0
   43.1690   84.6820   61.2660 C   0  0  0  0  0  0  0  0  0  0  0  0
   44.0970   83.8110   60.9030 N   0  0  0  0  0  0  0  0  0  0  0  0
   46.0590   83.3920   60.3270 H   0  0  0  0  0  0  0  0  0  0  0  0
   46.7210   85.8110   60.4800 H   0  0  0  0  0  0  0  0  0  0  0  0
   44.9960   87.4940   61.1630 H   0  0  0  0  0  0  0  0  0  0  0  0
  1  2  1  0  0  0  0
  2  3  2  0  0  0  0
  2  7  1  0  0  0  0
  3  8  1  0  0  0  0
  4  9  1  0  0  0  0
  4  3  1  0  0  0  0
  5  4  2  0  0  0  0
  6  5  1  0  0  0  0
  6  1  2  0  0  0  0
 10  5  1  0  0  0  0
 11  6  1  0  0  0  0
 12 11  1  0  0  0  0
 12 17  1  0  0  0  0
 13 12  2  0  0  0  0
 14 15  2  0  0  0  0
 14 13  1  0  0  0  0
 15 16  1  0  0  0  0
 16 11  2  0  0  0  0
 18 13  1  0  0  0  0
 19 23  1  0  0  0  0
 19 15  1  0  0  0  0
 20 21  1  0  0  0  0
 20 19  1  0  0  0  0
 21 22  1  0  0  0  0
 22 23  1  0  0  0  0
 23 24  1  0  0  0  0
 25 26  2  0  0  0  0
 25 30  1  0  0  0  0
 26 27  1  0  0  0  0
 27 33  1  0  0  0  0
 27 28  2  0  0  0  0
 29 28  1  0  0  0  0
 29  1  1  0  0  0  0
 30 29  2  0  0  0  0
 31 25  1  0  0  0  0
 32 26  1  0  0  0  0
M  END
>  <minimizedAffinity>
-5.52191448

>  <minimizedRMSD>
0.214722112

$$$$
