
 OpenBabel03212520343D

 31 34  0  0  0  0  0  0  0  0999 V2000
   42.2970   73.2510   60.4920 C   0  0  0  0  0  0  0  0  0  0  0  0
   43.5190   73.5640   59.8950 C   0  0  0  0  0  0  0  0  0  0  0  0
   43.7860   74.7680   59.2780 C   0  0  0  0  0  0  0  0  0  0  0  0
   42.7920   75.7360   59.2410 C   0  0  0  0  0  0  0  0  0  0  0  0
   41.5720   75.4440   59.8290 C   0  0  0  0  0  0  0  0  0  0  0  0
   40.5220   76.3470   59.8410 C   0  0  0  0  0  0  0  0  0  0  0  0
   39.3110   76.0330   60.4350 C   0  0  0  0  0  0  0  0  0  0  0  0
   39.1040   74.8100   61.0390 C   0  0  0  0  0  0  0  0  0  0  0  0
   40.1310   73.8950   61.0400 C   0  0  0  0  0  0  0  0  0  0  0  0
   41.3240   74.2390   60.4390 C   0  0  0  0  0  0  0  0  0  0  0  0
   44.3420   72.8610   59.8830 H   0  0  0  0  0  0  0  0  0  0  0  0
   44.7060   75.0280   58.8190 H   0  0  0  0  0  0  0  0  0  0  0  0
   42.8440   76.7260   58.7990 H   0  0  0  0  0  0  0  0  0  0  0  0
   40.6470   77.3160   59.3790 H   0  0  0  0  0  0  0  0  0  0  0  0
   38.4820   76.7280   60.4540 H   0  0  0  0  0  0  0  0  0  0  0  0
   38.1570   74.5610   61.5050 H   0  0  0  0  0  0  0  0  0  0  0  0
   39.9570   72.9410   61.5190 H   0  0  0  0  0  0  0  0  0  0  0  0
   42.3160   71.5160   62.4100 C   0  0  0  0  0  0  0  0  0  0  0  0
   42.2220   71.9310   61.0850 C   0  0  0  0  0  0  0  0  0  0  0  0
   42.0280   70.9140   60.1130 C   0  0  0  0  0  0  0  0  0  0  0  0
   41.9460   69.6190   60.5050 N   0  0  0  0  0  0  0  0  0  0  0  0
   42.0480   69.2810   61.8220 C   0  0  0  0  0  0  0  0  0  0  0  0
   42.2290   70.2270   62.7390 N   0  0  0  0  0  0  0  0  0  0  0  0
   42.4550   72.3420   63.0790 H   0  0  0  0  0  0  0  0  0  0  0  0
   41.9350   71.0690   59.0500 H   0  0  0  0  0  0  0  0  0  0  0  0
   41.9540   67.8990   62.1470 N   0  0  0  0  0  0  0  0  0  0  0  0
   42.6430   66.8430   61.4190 C   0  0  0  0  0  2  0  0  0  0  0  0
   42.4970   65.6080   62.2730 C   0  0  0  0  0  2  0  0  0  0  0  0
   41.1130   65.8510   62.8750 C   0  0  0  0  0  2  0  0  0  0  0  0
   41.1810   67.3020   63.2210 C   0  0  0  0  0  3  0  0  0  0  0  0
   41.7750   67.4370   64.1500 H   0  0  0  0  0  0  0  0  0  0  0  0
  1 19  1  0  0  0  0
  2  1  2  0  0  0  0
  3  2  1  0  0  0  0
  4  3  2  0  0  0  0
  4  5  1  0  0  0  0
  5  6  2  0  0  0  0
  5 10  1  0  0  0  0
  6  7  1  0  0  0  0
  7 15  1  0  0  0  0
  7  8  2  0  0  0  0
  8  9  1  0  0  0  0
  8 16  1  0  0  0  0
  9 17  1  0  0  0  0
 10  1  1  0  0  0  0
 10  9  2  0  0  0  0
 11  2  1  0  0  0  0
 12  3  1  0  0  0  0
 13  4  1  0  0  0  0
 14  6  1  0  0  0  0
 18 23  1  0  0  0  0
 18 24  1  0  0  0  0
 19 18  2  0  0  0  0
 20 21  2  0  0  0  0
 20 19  1  0  0  0  0
 21 22  1  0  0  0  0
 22 26  1  0  0  0  0
 22 23  2  0  0  0  0
 25 20  1  0  0  0  0
 26 30  1  0  0  0  0
 27 26  1  0  0  0  0
 27 28  1  0  0  0  0
 28 29  1  0  0  0  0
 29 30  1  0  0  0  0
 30 31  1  0  0  0  0
M  END
>  <minimizedAffinity>
-6.61385632

$$$$

 OpenBabel03212520343D

 31 34  0  0  0  0  0  0  0  0999 V2000
   40.7670   73.4760   60.7200 C   0  0  0  0  0  0  0  0  0  0  0  0
   39.4680   73.4860   61.2300 C   0  0  0  0  0  0  0  0  0  0  0  0
   38.6490   74.5950   61.2230 C   0  0  0  0  0  0  0  0  0  0  0  0
   39.1300   75.7780   60.6780 C   0  0  0  0  0  0  0  0  0  0  0  0
   40.4170   75.7870   60.1660 C   0  0  0  0  0  0  0  0  0  0  0  0
   40.9800   76.9210   59.6030 C   0  0  0  0  0  0  0  0  0  0  0  0
   42.2680   76.9060   59.0970 C   0  0  0  0  0  0  0  0  0  0  0  0
   43.0410   75.7640   59.1320 C   0  0  0  0  0  0  0  0  0  0  0  0
   42.5040   74.6240   59.6870 C   0  0  0  0  0  0  0  0  0  0  0  0
   41.2180   74.6730   60.1820 C   0  0  0  0  0  0  0  0  0  0  0  0
   39.0250   72.6030   61.6710 H   0  0  0  0  0  0  0  0  0  0  0  0
   37.6600   74.6260   61.6040 H   0  0  0  0  0  0  0  0  0  0  0  0
   38.6140   76.7300   60.5960 H   0  0  0  0  0  0  0  0  0  0  0  0
   40.4050   77.8350   59.5570 H   0  0  0  0  0  0  0  0  0  0  0  0
   42.7220   77.7830   58.6540 H   0  0  0  0  0  0  0  0  0  0  0  0
   44.0510   75.7490   58.7370 H   0  0  0  0  0  0  0  0  0  0  0  0
   43.1190   73.7350   59.7050 H   0  0  0  0  0  0  0  0  0  0  0  0
   41.6610   71.1940   59.8950 C   0  0  0  0  0  0  0  0  0  0  0  0
   41.4600   72.2080   60.8270 C   0  0  0  0  0  0  0  0  0  0  0  0
   42.0060   71.9980   62.1210 C   0  0  0  0  0  0  0  0  0  0  0  0
   42.6780   70.8520   62.3870 N   0  0  0  0  0  0  0  0  0  0  0  0
   42.8370   69.8970   61.4280 C   0  0  0  0  0  0  0  0  0  0  0  0
   42.3310   70.0850   60.2130 N   0  0  0  0  0  0  0  0  0  0  0  0
   41.2250   71.4310   58.9440 H   0  0  0  0  0  0  0  0  0  0  0  0
   41.9380   72.6840   62.9500 H   0  0  0  0  0  0  0  0  0  0  0  0
   43.5540   68.7230   61.7910 N   0  0  0  0  0  0  0  0  0  0  0  0
   43.3450   67.9950   63.0350 C   0  0  0  0  0  2  0  0  0  0  0  0
   44.0850   66.6920   62.8640 C   0  0  0  0  0  2  0  0  0  0  0  0
   45.2630   67.1530   62.0060 C   0  0  0  0  0  2  0  0  0  0  0  0
   44.5910   68.0570   61.0250 C   0  0  0  0  0  3  0  0  0  0  0  0
   44.0730   67.4490   60.2530 H   0  0  0  0  0  0  0  0  0  0  0  0
  1 19  1  0  0  0  0
  1  2  1  0  0  0  0
  2 11  1  0  0  0  0
  3  2  2  0  0  0  0
  3 12  1  0  0  0  0
  4  3  1  0  0  0  0
  5 10  1  0  0  0  0
  5  4  2  0  0  0  0
  6  5  1  0  0  0  0
  7  8  1  0  0  0  0
  7  6  2  0  0  0  0
  8  9  2  0  0  0  0
  9 17  1  0  0  0  0
  9 10  1  0  0  0  0
 10  1  2  0  0  0  0
 13  4  1  0  0  0  0
 14  6  1  0  0  0  0
 15  7  1  0  0  0  0
 16  8  1  0  0  0  0
 18 23  2  0  0  0  0
 18 19  1  0  0  0  0
 19 20  2  0  0  0  0
 20 21  1  0  0  0  0
 20 25  1  0  0  0  0
 22 26  1  0  0  0  0
 22 21  2  0  0  0  0
 23 22  1  0  0  0  0
 24 18  1  0  0  0  0
 26 27  1  0  0  0  0
 28 27  1  0  0  0  0
 29 28  1  0  0  0  0
 30 26  1  0  0  0  0
 30 29  1  0  0  0  0
 31 30  1  0  0  0  0
M  END
>  <minimizedAffinity>
-6.28726292

$$$$

 OpenBabel03212520343D

 31 34  0  0  0  0  0  0  0  0999 V2000
   40.4270   73.5400   60.2090 C   0  0  0  0  0  0  0  0  0  0  0  0
   39.2090   73.6120   60.8860 C   0  0  0  0  0  0  0  0  0  0  0  0
   38.6060   74.7950   61.2590 C   0  0  0  0  0  0  0  0  0  0  0  0
   39.2360   75.9930   60.9490 C   0  0  0  0  0  0  0  0  0  0  0  0
   40.4460   75.9410   60.2770 C   0  0  0  0  0  0  0  0  0  0  0  0
   41.1460   77.0840   59.9260 C   0  0  0  0  0  0  0  0  0  0  0  0
   42.3540   77.0090   59.2540 C   0  0  0  0  0  0  0  0  0  0  0  0
   42.9070   75.7940   58.9070 C   0  0  0  0  0  0  0  0  0  0  0  0
   42.2320   74.6430   59.2440 C   0  0  0  0  0  0  0  0  0  0  0  0
   41.0310   74.7540   59.9140 C   0  0  0  0  0  0  0  0  0  0  0  0
   38.6590   72.7220   61.1620 H   0  0  0  0  0  0  0  0  0  0  0  0
   37.6820   74.8740   61.7720 H   0  0  0  0  0  0  0  0  0  0  0  0
   38.8950   76.9990   61.1700 H   0  0  0  0  0  0  0  0  0  0  0  0
   40.7430   78.0550   60.1810 H   0  0  0  0  0  0  0  0  0  0  0  0
   42.9120   77.8920   58.9730 H   0  0  0  0  0  0  0  0  0  0  0  0
   43.8530   75.7300   58.3810 H   0  0  0  0  0  0  0  0  0  0  0  0
   42.6740   73.6980   58.9630 H   0  0  0  0  0  0  0  0  0  0  0  0
   40.7980   71.4370   58.7500 C   0  0  0  0  0  0  0  0  0  0  0  0
   40.8870   72.1980   59.9120 C   0  0  0  0  0  0  0  0  0  0  0  0
   41.5240   71.5870   61.0240 C   0  0  0  0  0  0  0  0  0  0  0  0
   42.0030   70.3250   60.9120 N   0  0  0  0  0  0  0  0  0  0  0  0
   41.8810   69.6330   59.7430 C   0  0  0  0  0  0  0  0  0  0  0  0
   41.2870   70.1980   58.6960 N   0  0  0  0  0  0  0  0  0  0  0  0
   40.3110   71.9710   57.9580 H   0  0  0  0  0  0  0  0  0  0  0  0
   41.6720   72.0410   61.9910 H   0  0  0  0  0  0  0  0  0  0  0  0
   42.4100   68.3130   59.7110 N   0  0  0  0  0  0  0  0  0  0  0  0
   42.2090   67.3310   60.7680 C   0  0  0  0  0  2  0  0  0  0  0  0
   42.6790   66.0190   60.1880 C   0  0  0  0  0  2  0  0  0  0  0  0
   43.8200   66.5050   59.2950 C   0  0  0  0  0  2  0  0  0  0  0  0
   43.2190   67.7180   58.6640 C   0  0  0  0  0  3  0  0  0  0  0  0
   42.5180   67.4110   57.8590 H   0  0  0  0  0  0  0  0  0  0  0  0
  1  2  1  0  0  0  0
  2 11  1  0  0  0  0
  2  3  2  0  0  0  0
  3 12  1  0  0  0  0
  4 13  1  0  0  0  0
  4  3  1  0  0  0  0
  5  4  2  0  0  0  0
  6 14  1  0  0  0  0
  6  5  1  0  0  0  0
  7  6  2  0  0  0  0
  8  9  2  0  0  0  0
  8  7  1  0  0  0  0
  9 10  1  0  0  0  0
 10  1  2  0  0  0  0
 10  5  1  0  0  0  0
 15  7  1  0  0  0  0
 16  8  1  0  0  0  0
 17  9  1  0  0  0  0
 18 19  1  0  0  0  0
 19  1  1  0  0  0  0
 19 20  2  0  0  0  0
 20 25  1  0  0  0  0
 21 20  1  0  0  0  0
 22 21  2  0  0  0  0
 23 18  2  0  0  0  0
 23 22  1  0  0  0  0
 24 18  1  0  0  0  0
 26 22  1  0  0  0  0
 26 27  1  0  0  0  0
 28 27  1  0  0  0  0
 29 28  1  0  0  0  0
 30 29  1  0  0  0  0
 30 26  1  0  0  0  0
 31 30  1  0  0  0  0
M  END
>  <minimizedAffinity>
-6.18723679

$$$$

 OpenBabel03212520343D

 31 34  0  0  0  0  0  0  0  0999 V2000
   42.2410   73.3220   59.7830 C   0  0  0  0  0  0  0  0  0  0  0  0
   43.4100   73.7390   59.1450 C   0  0  0  0  0  0  0  0  0  0  0  0
   43.6710   75.0490   58.8000 C   0  0  0  0  0  0  0  0  0  0  0  0
   42.7250   76.0210   59.0980 C   0  0  0  0  0  0  0  0  0  0  0  0
   41.5580   75.6250   59.7310 C   0  0  0  0  0  0  0  0  0  0  0  0
   40.5590   76.5240   60.0670 C   0  0  0  0  0  0  0  0  0  0  0  0
   39.4010   76.1060   60.7010 C   0  0  0  0  0  0  0  0  0  0  0  0
   39.1970   74.7800   61.0220 C   0  0  0  0  0  0  0  0  0  0  0  0
   40.1750   73.8670   60.6980 C   0  0  0  0  0  0  0  0  0  0  0  0
   41.3160   74.3160   60.0670 C   0  0  0  0  0  0  0  0  0  0  0  0
   44.1930   73.0410   58.8810 H   0  0  0  0  0  0  0  0  0  0  0  0
   44.5510   75.3880   58.3160 H   0  0  0  0  0  0  0  0  0  0  0  0
   42.7800   77.0850   58.8940 H   0  0  0  0  0  0  0  0  0  0  0  0
   40.6840   77.5720   59.8320 H   0  0  0  0  0  0  0  0  0  0  0  0
   38.6120   76.7950   60.9700 H   0  0  0  0  0  0  0  0  0  0  0  0
   38.2910   74.4490   61.5180 H   0  0  0  0  0  0  0  0  0  0  0  0
   40.0040   72.8320   60.9590 H   0  0  0  0  0  0  0  0  0  0  0  0
   41.6490   70.8510   59.3010 C   0  0  0  0  0  0  0  0  0  0  0  0
   42.1630   71.9010   60.0570 C   0  0  0  0  0  0  0  0  0  0  0  0
   42.7060   71.5660   61.3250 C   0  0  0  0  0  0  0  0  0  0  0  0
   42.7000   70.2740   61.7360 N   0  0  0  0  0  0  0  0  0  0  0  0
   42.1800   69.2930   60.9460 C   0  0  0  0  0  0  0  0  0  0  0  0
   41.6700   69.5980   59.7570 N   0  0  0  0  0  0  0  0  0  0  0  0
   41.2650   71.1860   58.3580 H   0  0  0  0  0  0  0  0  0  0  0  0
   43.1410   72.2600   62.0260 H   0  0  0  0  0  0  0  0  0  0  0  0
   42.2120   67.9640   61.4540 N   0  0  0  0  0  0  0  0  0  0  0  0
   41.8430   67.6050   62.8160 C   0  0  0  0  0  2  0  0  0  0  0  0
   41.7430   66.1000   62.8200 C   0  0  0  0  0  2  0  0  0  0  0  0
   42.8380   65.7480   61.8130 C   0  0  0  0  0  2  0  0  0  0  0  0
   42.6060   66.7630   60.7420 C   0  0  0  0  0  3  0  0  0  0  0  0
   41.7330   66.4600   60.1250 H   0  0  0  0  0  0  0  0  0  0  0  0
  1 19  1  0  0  0  0
  1 10  1  0  0  0  0
  2  1  2  0  0  0  0
  3  4  2  0  0  0  0
  3  2  1  0  0  0  0
  4  5  1  0  0  0  0
  5  6  2  0  0  0  0
  5 10  1  0  0  0  0
  6  7  1  0  0  0  0
  7 15  1  0  0  0  0
  7  8  2  0  0  0  0
  8 16  1  0  0  0  0
  9 17  1  0  0  0  0
  9  8  1  0  0  0  0
 10  9  2  0  0  0  0
 11  2  1  0  0  0  0
 12  3  1  0  0  0  0
 13  4  1  0  0  0  0
 14  6  1  0  0  0  0
 18 23  2  0  0  0  0
 18 19  1  0  0  0  0
 19 20  2  0  0  0  0
 20 21  1  0  0  0  0
 20 25  1  0  0  0  0
 22 26  1  0  0  0  0
 22 21  2  0  0  0  0
 23 22  1  0  0  0  0
 24 18  1  0  0  0  0
 26 27  1  0  0  0  0
 27 28  1  0  0  0  0
 29 28  1  0  0  0  0
 30 26  1  0  0  0  0
 30 29  1  0  0  0  0
 31 30  1  0  0  0  0
M  END
>  <minimizedAffinity>
-6.17974997

$$$$

 OpenBabel03212520343D

 31 34  0  0  0  0  0  0  0  0999 V2000
   40.6460   73.4070   60.5700 C   0  0  0  0  0  0  0  0  0  0  0  0
   39.3500   73.4890   61.0810 C   0  0  0  0  0  0  0  0  0  0  0  0
   38.6210   74.6580   61.1410 C   0  0  0  0  0  0  0  0  0  0  0  0
   39.1960   75.8300   60.6690 C   0  0  0  0  0  0  0  0  0  0  0  0
   40.4820   75.7680   60.1580 C   0  0  0  0  0  0  0  0  0  0  0  0
   41.1360   76.8850   59.6650 C   0  0  0  0  0  0  0  0  0  0  0  0
   42.4220   76.7990   59.1590 C   0  0  0  0  0  0  0  0  0  0  0  0
   43.1010   75.5990   59.1240 C   0  0  0  0  0  0  0  0  0  0  0  0
   42.4730   74.4740   59.6080 C   0  0  0  0  0  0  0  0  0  0  0  0
   41.1930   74.5940   60.1070 C   0  0  0  0  0  0  0  0  0  0  0  0
   38.8350   72.6190   61.4670 H   0  0  0  0  0  0  0  0  0  0  0  0
   37.6350   74.7440   61.5240 H   0  0  0  0  0  0  0  0  0  0  0  0
   38.7580   76.8230   60.6460 H   0  0  0  0  0  0  0  0  0  0  0  0
   40.6350   77.8430   59.6750 H   0  0  0  0  0  0  0  0  0  0  0  0
   42.9450   77.6620   58.7700 H   0  0  0  0  0  0  0  0  0  0  0  0
   44.1080   75.5280   58.7290 H   0  0  0  0  0  0  0  0  0  0  0  0
   43.0150   73.5390   59.5730 H   0  0  0  0  0  0  0  0  0  0  0  0
   41.9260   71.4110   61.6040 C   0  0  0  0  0  0  0  0  0  0  0  0
   41.2360   72.0830   60.5990 C   0  0  0  0  0  0  0  0  0  0  0  0
   41.0670   71.3900   59.3720 C   0  0  0  0  0  0  0  0  0  0  0  0
   41.5710   70.1400   59.2330 N   0  0  0  0  0  0  0  0  0  0  0  0
   42.2390   69.5390   60.2580 C   0  0  0  0  0  0  0  0  0  0  0  0
   42.4010   70.1800   61.4120 N   0  0  0  0  0  0  0  0  0  0  0  0
   42.0050   71.9980   62.4980 H   0  0  0  0  0  0  0  0  0  0  0  0
   40.5580   71.7700   58.5000 H   0  0  0  0  0  0  0  0  0  0  0  0
   42.7370   68.2260   60.0280 N   0  0  0  0  0  0  0  0  0  0  0  0
   43.4390   67.8230   58.8170 C   0  0  0  0  0  2  0  0  0  0  0  0
   44.0280   66.4710   59.1290 C   0  0  0  0  0  2  0  0  0  0  0  0
   42.9520   65.9060   60.0550 C   0  0  0  0  0  2  0  0  0  0  0  0
   42.6430   67.0850   60.9190 C   0  0  0  0  0  3  0  0  0  0  0  0
   43.4440   67.2090   61.6790 H   0  0  0  0  0  0  0  0  0  0  0  0
  1 19  1  0  0  0  0
  1  2  1  0  0  0  0
  2  3  2  0  0  0  0
  2 11  1  0  0  0  0
  3 12  1  0  0  0  0
  4  3  1  0  0  0  0
  5  4  2  0  0  0  0
  6 14  1  0  0  0  0
  6  5  1  0  0  0  0
  7  6  2  0  0  0  0
  8  7  1  0  0  0  0
  8  9  2  0  0  0  0
  9 10  1  0  0  0  0
 10  5  1  0  0  0  0
 10  1  2  0  0  0  0
 13  4  1  0  0  0  0
 15  7  1  0  0  0  0
 16  8  1  0  0  0  0
 17  9  1  0  0  0  0
 18 24  1  0  0  0  0
 19 18  2  0  0  0  0
 20 19  1  0  0  0  0
 21 20  2  0  0  0  0
 21 22  1  0  0  0  0
 22 23  2  0  0  0  0
 23 18  1  0  0  0  0
 25 20  1  0  0  0  0
 26 22  1  0  0  0  0
 26 30  1  0  0  0  0
 27 28  1  0  0  0  0
 27 26  1  0  0  0  0
 28 29  1  0  0  0  0
 29 30  1  0  0  0  0
 30 31  1  0  0  0  0
M  END
>  <minimizedAffinity>
-6.1481204

$$$$

 OpenBabel03212520343D

 31 34  0  0  0  0  0  0  0  0999 V2000
   41.7580   73.9600   59.8680 C   0  0  0  0  0  0  0  0  0  0  0  0
   43.0200   74.5010   59.6150 C   0  0  0  0  0  0  0  0  0  0  0  0
   43.2330   75.6210   58.8390 C   0  0  0  0  0  0  0  0  0  0  0  0
   42.1400   76.2590   58.2690 C   0  0  0  0  0  0  0  0  0  0  0  0
   40.8800   75.7370   58.5100 C   0  0  0  0  0  0  0  0  0  0  0  0
   39.7310   76.3050   57.9840 C   0  0  0  0  0  0  0  0  0  0  0  0
   38.4820   75.7660   58.2380 C   0  0  0  0  0  0  0  0  0  0  0  0
   38.3310   74.6430   59.0250 C   0  0  0  0  0  0  0  0  0  0  0  0
   39.4570   74.0580   59.5590 C   0  0  0  0  0  0  0  0  0  0  0  0
   40.6860   74.6200   59.2860 C   0  0  0  0  0  0  0  0  0  0  0  0
   43.9200   74.0600   60.0240 H   0  0  0  0  0  0  0  0  0  0  0  0
   44.1820   76.0490   58.6340 H   0  0  0  0  0  0  0  0  0  0  0  0
   42.1400   77.1430   57.6400 H   0  0  0  0  0  0  0  0  0  0  0  0
   39.8090   77.1870   57.3640 H   0  0  0  0  0  0  0  0  0  0  0  0
   37.5760   76.1990   57.8360 H   0  0  0  0  0  0  0  0  0  0  0  0
   37.3540   74.2180   59.2260 H   0  0  0  0  0  0  0  0  0  0  0  0
   39.3250   73.1810   60.1760 H   0  0  0  0  0  0  0  0  0  0  0  0
   41.4790   72.6220   62.0640 C   0  0  0  0  0  0  0  0  0  0  0  0
   41.7530   72.7790   60.7080 C   0  0  0  0  0  0  0  0  0  0  0  0
   42.1010   71.6050   59.9900 C   0  0  0  0  0  0  0  0  0  0  0  0
   42.1510   70.4150   60.6370 N   0  0  0  0  0  0  0  0  0  0  0  0
   41.8710   70.3310   61.9680 C   0  0  0  0  0  0  0  0  0  0  0  0
   41.5440   71.4260   62.6480 N   0  0  0  0  0  0  0  0  0  0  0  0
   41.2190   73.5520   62.5310 H   0  0  0  0  0  0  0  0  0  0  0  0
   42.3400   71.5580   58.9400 H   0  0  0  0  0  0  0  0  0  0  0  0
   41.9490   69.0430   62.5690 N   0  0  0  0  0  0  0  0  0  0  0  0
   43.0370   68.1030   62.3400 C   0  0  0  0  0  2  0  0  0  0  0  0
   42.8610   67.0270   63.3810 C   0  0  0  0  0  2  0  0  0  0  0  0
   41.3370   66.9910   63.4870 C   0  0  0  0  0  2  0  0  0  0  0  0
   40.9960   68.4450   63.4850 C   0  0  0  0  0  3  0  0  0  0  0  0
   41.2060   68.8780   64.4870 H   0  0  0  0  0  0  0  0  0  0  0  0
  1 19  1  0  0  0  0
  2  1  1  0  0  0  0
  2 11  1  0  0  0  0
  3  2  2  0  0  0  0
  4  5  2  0  0  0  0
  4  3  1  0  0  0  0
  5 10  1  0  0  0  0
  6  7  2  0  0  0  0
  6  5  1  0  0  0  0
  7  8  1  0  0  0  0
  8 16  1  0  0  0  0
  8  9  2  0  0  0  0
  9 17  1  0  0  0  0
 10  9  1  0  0  0  0
 10  1  2  0  0  0  0
 12  3  1  0  0  0  0
 13  4  1  0  0  0  0
 14  6  1  0  0  0  0
 15  7  1  0  0  0  0
 18 24  1  0  0  0  0
 18 23  1  0  0  0  0
 19 18  2  0  0  0  0
 20 21  2  0  0  0  0
 20 19  1  0  0  0  0
 21 22  1  0  0  0  0
 22 26  1  0  0  0  0
 22 23  2  0  0  0  0
 25 20  1  0  0  0  0
 26 30  1  0  0  0  0
 27 26  1  0  0  0  0
 27 28  1  0  0  0  0
 28 29  1  0  0  0  0
 30 29  1  0  0  0  0
 30 31  1  0  0  0  0
M  END
>  <minimizedAffinity>
-5.9163537

$$$$

 OpenBabel03212520343D

 31 34  0  0  0  0  0  0  0  0999 V2000
   42.0680   70.2450   61.4350 C   0  0  0  0  0  0  0  0  0  0  0  0
   42.5840   70.3470   62.7280 C   0  0  0  0  0  0  0  0  0  0  0  0
   42.9710   69.2630   63.4870 C   0  0  0  0  0  0  0  0  0  0  0  0
   42.8470   67.9900   62.9480 C   0  0  0  0  0  0  0  0  0  0  0  0
   42.3390   67.8700   61.6650 C   0  0  0  0  0  0  0  0  0  0  0  0
   42.1800   66.6410   61.0450 C   0  0  0  0  0  0  0  0  0  0  0  0
   41.6690   66.5450   59.7620 C   0  0  0  0  0  0  0  0  0  0  0  0
   41.2990   67.6670   59.0510 C   0  0  0  0  0  0  0  0  0  0  0  0
   41.4470   68.9000   59.6440 C   0  0  0  0  0  0  0  0  0  0  0  0
   41.9580   68.9610   60.9240 C   0  0  0  0  0  0  0  0  0  0  0  0
   42.7090   71.3050   63.2160 H   0  0  0  0  0  0  0  0  0  0  0  0
   43.3650   69.3160   64.4710 H   0  0  0  0  0  0  0  0  0  0  0  0
   43.1060   67.0440   63.4120 H   0  0  0  0  0  0  0  0  0  0  0  0
   42.4600   65.7390   61.5710 H   0  0  0  0  0  0  0  0  0  0  0  0
   41.5400   65.5930   59.2640 H   0  0  0  0  0  0  0  0  0  0  0  0
   40.8990   67.5960   58.0450 H   0  0  0  0  0  0  0  0  0  0  0  0
   41.1570   69.7720   59.0750 H   0  0  0  0  0  0  0  0  0  0  0  0
   42.2050   72.1210   59.6590 C   0  0  0  0  0  0  0  0  0  0  0  0
   41.7210   71.5070   60.8100 C   0  0  0  0  0  0  0  0  0  0  0  0
   40.7200   72.2080   61.5320 C   0  0  0  0  0  0  0  0  0  0  0  0
   40.2900   73.4130   61.0830 N   0  0  0  0  0  0  0  0  0  0  0  0
   40.8080   73.9590   59.9470 C   0  0  0  0  0  0  0  0  0  0  0  0
   41.7460   73.3090   59.2650 N   0  0  0  0  0  0  0  0  0  0  0  0
   42.9510   71.5260   59.1710 H   0  0  0  0  0  0  0  0  0  0  0  0
   40.2450   71.8690   62.4390 H   0  0  0  0  0  0  0  0  0  0  0  0
   40.3020   75.2280   59.5470 N   0  0  0  0  0  0  0  0  0  0  0  0
   40.0970   76.3450   60.4580 C   0  0  0  0  0  2  0  0  0  0  0  0
   39.8420   77.5400   59.5740 C   0  0  0  0  0  2  0  0  0  0  0  0
   39.1020   76.8730   58.4150 C   0  0  0  0  0  2  0  0  0  0  0  0
   39.9090   75.6330   58.2110 C   0  0  0  0  0  3  0  0  0  0  0  0
   40.8450   75.8830   57.6670 H   0  0  0  0  0  0  0  0  0  0  0  0
  1  2  1  0  0  0  0
  2 11  1  0  0  0  0
  2  3  2  0  0  0  0
  3 12  1  0  0  0  0
  4 13  1  0  0  0  0
  4  3  1  0  0  0  0
  5  4  2  0  0  0  0
  6 14  1  0  0  0  0
  6  5  1  0  0  0  0
  7  6  2  0  0  0  0
  8  9  2  0  0  0  0
  8  7  1  0  0  0  0
  9 10  1  0  0  0  0
 10  1  2  0  0  0  0
 10  5  1  0  0  0  0
 15  7  1  0  0  0  0
 16  8  1  0  0  0  0
 17  9  1  0  0  0  0
 18 19  1  0  0  0  0
 19  1  1  0  0  0  0
 19 20  2  0  0  0  0
 20 25  1  0  0  0  0
 21 20  1  0  0  0  0
 22 21  2  0  0  0  0
 23 18  2  0  0  0  0
 23 22  1  0  0  0  0
 24 18  1  0  0  0  0
 26 22  1  0  0  0  0
 26 27  1  0  0  0  0
 28 27  1  0  0  0  0
 29 28  1  0  0  0  0
 30 29  1  0  0  0  0
 30 26  1  0  0  0  0
 31 30  1  0  0  0  0
M  END
>  <minimizedAffinity>
-5.86833096

$$$$

 OpenBabel03212520343D

 31 34  0  0  0  0  0  0  0  0999 V2000
   40.1780   73.9470   59.5500 C   0  0  0  0  0  0  0  0  0  0  0  0
   39.0510   73.7070   60.3380 C   0  0  0  0  0  0  0  0  0  0  0  0
   38.4810   74.6490   61.1690 C   0  0  0  0  0  0  0  0  0  0  0  0
   39.0490   75.9140   61.2360 C   0  0  0  0  0  0  0  0  0  0  0  0
   40.1680   76.1700   60.4610 C   0  0  0  0  0  0  0  0  0  0  0  0
   40.8030   77.4010   60.4630 C   0  0  0  0  0  0  0  0  0  0  0  0
   41.9200   77.6350   59.6790 C   0  0  0  0  0  0  0  0  0  0  0  0
   42.4440   76.6520   58.8660 C   0  0  0  0  0  0  0  0  0  0  0  0
   41.8330   75.4190   58.8460 C   0  0  0  0  0  0  0  0  0  0  0  0
   40.7230   75.2200   59.6390 C   0  0  0  0  0  0  0  0  0  0  0  0
   38.5530   72.7470   60.3400 H   0  0  0  0  0  0  0  0  0  0  0  0
   37.6250   74.4900   61.7750 H   0  0  0  0  0  0  0  0  0  0  0  0
   38.7230   76.7580   61.8350 H   0  0  0  0  0  0  0  0  0  0  0  0
   40.4200   78.1970   61.0870 H   0  0  0  0  0  0  0  0  0  0  0  0
   42.4260   78.5910   59.6690 H   0  0  0  0  0  0  0  0  0  0  0  0
   43.3200   76.8310   58.2510 H   0  0  0  0  0  0  0  0  0  0  0  0
   42.2520   74.6590   58.2020 H   0  0  0  0  0  0  0  0  0  0  0  0
   41.5080   71.7900   59.0320 C   0  0  0  0  0  0  0  0  0  0  0  0
   40.6180   72.8220   58.7490 C   0  0  0  0  0  0  0  0  0  0  0  0
   40.0240   72.8130   57.4600 C   0  0  0  0  0  0  0  0  0  0  0  0
   40.3400   71.8290   56.5830 N   0  0  0  0  0  0  0  0  0  0  0  0
   41.2210   70.8480   56.9240 C   0  0  0  0  0  0  0  0  0  0  0  0
   41.7820   70.8470   58.1290 N   0  0  0  0  0  0  0  0  0  0  0  0
   41.9070   71.8650   60.0240 H   0  0  0  0  0  0  0  0  0  0  0  0
   39.3170   73.5380   57.0880 H   0  0  0  0  0  0  0  0  0  0  0  0
   41.4990   69.8540   55.9430 N   0  0  0  0  0  0  0  0  0  0  0  0
   41.7640   70.1460   54.5420 C   0  0  0  0  0  2  0  0  0  0  0  0
   42.2850   68.8570   53.9570 C   0  0  0  0  0  2  0  0  0  0  0  0
   41.4850   67.8410   54.7700 C   0  0  0  0  0  2  0  0  0  0  0  0
   41.5650   68.4180   56.1450 C   0  0  0  0  0  3  0  0  0  0  0  0
   42.5640   68.2060   56.5810 H   0  0  0  0  0  0  0  0  0  0  0  0
  1 10  2  0  0  0  0
  1  2  1  0  0  0  0
  2 11  1  0  0  0  0
  2  3  2  0  0  0  0
  3  4  1  0  0  0  0
  3 12  1  0  0  0  0
  4 13  1  0  0  0  0
  5  6  1  0  0  0  0
  5  4  2  0  0  0  0
  6 14  1  0  0  0  0
  7  6  2  0  0  0  0
  8  7  1  0  0  0  0
  9  8  2  0  0  0  0
  9 10  1  0  0  0  0
 10  5  1  0  0  0  0
 15  7  1  0  0  0  0
 16  8  1  0  0  0  0
 17  9  1  0  0  0  0
 18 24  1  0  0  0  0
 19 18  1  0  0  0  0
 19  1  1  0  0  0  0
 20 19  2  0  0  0  0
 21 22  2  0  0  0  0
 21 20  1  0  0  0  0
 22 23  1  0  0  0  0
 23 18  2  0  0  0  0
 25 20  1  0  0  0  0
 26 30  1  0  0  0  0
 26 22  1  0  0  0  0
 27 26  1  0  0  0  0
 28 27  1  0  0  0  0
 28 29  1  0  0  0  0
 29 30  1  0  0  0  0
 30 31  1  0  0  0  0
M  END
>  <minimizedAffinity>
-5.86133051

$$$$

 OpenBabel03212520343D

 31 34  0  0  0  0  0  0  0  0999 V2000
   42.1710   73.8240   59.6920 C   0  0  0  0  0  0  0  0  0  0  0  0
   43.0710   74.6680   59.0390 C   0  0  0  0  0  0  0  0  0  0  0  0
   42.8420   76.0100   58.8190 C   0  0  0  0  0  0  0  0  0  0  0  0
   41.6530   76.5690   59.2670 C   0  0  0  0  0  0  0  0  0  0  0  0
   40.7480   75.7460   59.9170 C   0  0  0  0  0  0  0  0  0  0  0  0
   39.5370   76.2150   60.3980 C   0  0  0  0  0  0  0  0  0  0  0  0
   38.6470   75.3740   61.0460 C   0  0  0  0  0  0  0  0  0  0  0  0
   38.9330   74.0390   61.2370 C   0  0  0  0  0  0  0  0  0  0  0  0
   40.1300   73.5480   60.7690 C   0  0  0  0  0  0  0  0  0  0  0  0
   40.9920   74.4120   60.1280 C   0  0  0  0  0  0  0  0  0  0  0  0
   44.0180   74.3060   58.6620 H   0  0  0  0  0  0  0  0  0  0  0  0
   43.5110   76.6700   58.3270 H   0  0  0  0  0  0  0  0  0  0  0  0
   41.3270   77.6000   59.1730 H   0  0  0  0  0  0  0  0  0  0  0  0
   39.2780   77.2570   60.2680 H   0  0  0  0  0  0  0  0  0  0  0  0
   37.6980   75.7260   61.4280 H   0  0  0  0  0  0  0  0  0  0  0  0
   38.2380   73.3770   61.7440 H   0  0  0  0  0  0  0  0  0  0  0  0
   40.3430   72.5000   60.9280 H   0  0  0  0  0  0  0  0  0  0  0  0
   43.2180   71.7740   60.8720 C   0  0  0  0  0  0  0  0  0  0  0  0
   42.6030   72.4460   59.8200 C   0  0  0  0  0  0  0  0  0  0  0  0
   42.3450   71.6890   58.6460 C   0  0  0  0  0  0  0  0  0  0  0  0
   42.6990   70.3820   58.6010 N   0  0  0  0  0  0  0  0  0  0  0  0
   43.3000   69.7840   59.6690 C   0  0  0  0  0  0  0  0  0  0  0  0
   43.5450   70.4850   60.7720 N   0  0  0  0  0  0  0  0  0  0  0  0
   43.3710   72.4120   61.7200 H   0  0  0  0  0  0  0  0  0  0  0  0
   41.8770   72.0610   57.7490 H   0  0  0  0  0  0  0  0  0  0  0  0
   43.6400   68.4090   59.5370 N   0  0  0  0  0  0  0  0  0  0  0  0
   44.2810   67.8390   58.3600 C   0  0  0  0  0  2  0  0  0  0  0  0
   44.7110   66.4530   58.7710 C   0  0  0  0  0  2  0  0  0  0  0  0
   43.5840   66.0880   59.7360 C   0  0  0  0  0  2  0  0  0  0  0  0
   43.4210   67.3550   60.5100 C   0  0  0  0  0  3  0  0  0  0  0  0
   44.2370   67.4410   61.2590 H   0  0  0  0  0  0  0  0  0  0  0  0
  1 19  1  0  0  0  0
  1 10  1  0  0  0  0
  2  1  2  0  0  0  0
  3  2  1  0  0  0  0
  3  4  2  0  0  0  0
  4  5  1  0  0  0  0
  5 10  2  0  0  0  0
  5  6  1  0  0  0  0
  6  7  2  0  0  0  0
  7  8  1  0  0  0  0
  7 15  1  0  0  0  0
  8 16  1  0  0  0  0
  9 17  1  0  0  0  0
  9  8  2  0  0  0  0
 10  9  1  0  0  0  0
 11  2  1  0  0  0  0
 12  3  1  0  0  0  0
 13  4  1  0  0  0  0
 14  6  1  0  0  0  0
 18 24  1  0  0  0  0
 19 18  2  0  0  0  0
 20 19  1  0  0  0  0
 21 20  2  0  0  0  0
 21 22  1  0  0  0  0
 22 23  2  0  0  0  0
 23 18  1  0  0  0  0
 25 20  1  0  0  0  0
 26 22  1  0  0  0  0
 26 30  1  0  0  0  0
 27 28  1  0  0  0  0
 27 26  1  0  0  0  0
 28 29  1  0  0  0  0
 29 30  1  0  0  0  0
 30 31  1  0  0  0  0
M  END
>  <minimizedAffinity>
-5.55881977

$$$$
