
 OpenBabel03212520463D

 17 18  0  0  0  0  0  0  0  0999 V2000
   37.2610   75.0460   56.7630 C   0  0  0  0  0  0  0  0  0  0  0  0
   36.8690   76.1330   55.9330 C   0  0  0  0  0  0  0  0  0  0  0  0
   37.5620   77.3370   56.0690 C   0  0  0  0  0  0  0  0  0  0  0  0
   38.5580   77.3930   56.9760 N   0  0  0  0  0  0  0  0  0  0  0  0
   38.9040   76.3520   57.7440 C   0  0  0  0  0  0  0  0  0  0  0  0
   38.2530   75.1760   57.6370 N   0  0  0  0  0  0  0  0  0  0  0  0
   36.4760   73.8870   56.5220 N   0  0  0  0  0  0  0  0  0  0  0  0
   36.0730   76.1010   55.2010 H   0  0  0  0  0  0  0  0  0  0  0  0
   37.3080   78.2010   55.4630 H   0  0  0  0  0  0  0  0  0  0  0  0
   36.6670   73.5070   55.5750 H   0  0  0  0  0  0  0  0  0  0  0  0
   35.7790   73.3930   57.1150 H   0  0  0  0  0  0  0  0  0  0  0  0
   39.9480   76.4800   58.6670 N   0  0  0  0  0  0  0  0  0  0  0  0
   40.0070   77.4120   59.7730 C   0  0  0  0  0  2  0  0  0  0  0  0
   41.4470   77.6250   60.1320 C   0  0  0  0  0  2  0  0  0  0  0  0
   42.1730   76.9050   58.9920 C   0  0  0  0  0  2  0  0  0  0  0  0
   41.1960   75.7520   58.7670 C   0  0  0  0  0  3  0  0  0  0  0  0
   41.1170   75.1410   59.6870 H   0  0  0  0  0  0  0  0  0  0  0  0
  1  6  1  0  0  0  0
  2  3  1  0  0  0  0
  2  1  2  0  0  0  0
  3  4  2  0  0  0  0
  4  5  1  0  0  0  0
  5 12  1  0  0  0  0
  6  5  2  0  0  0  0
  7  1  1  0  0  0  0
  7 11  1  0  0  0  0
  8  2  1  0  0  0  0
  9  3  1  0  0  0  0
 10  7  1  0  0  0  0
 12 16  1  0  0  0  0
 12 13  1  0  0  0  0
 13 14  1  0  0  0  0
 15 14  1  0  0  0  0
 16 15  1  0  0  0  0
 16 17  1  0  0  0  0
M  END
>  <minimizedAffinity>
-4.41444731

$$$$

 OpenBabel03212520463D

 17 18  0  0  0  0  0  0  0  0999 V2000
   41.3830   71.8880   62.2740 C   0  0  0  0  0  0  0  0  0  0  0  0
   42.7070   71.7550   61.7710 C   0  0  0  0  0  0  0  0  0  0  0  0
   43.1160   72.6430   60.7760 C   0  0  0  0  0  0  0  0  0  0  0  0
   42.2320   73.5700   60.3550 N   0  0  0  0  0  0  0  0  0  0  0  0
   40.9910   73.6710   60.8470 C   0  0  0  0  0  0  0  0  0  0  0  0
   40.5660   72.8270   61.8100 N   0  0  0  0  0  0  0  0  0  0  0  0
   41.1000   70.9250   63.2790 N   0  0  0  0  0  0  0  0  0  0  0  0
   43.4260   71.0170   62.1000 H   0  0  0  0  0  0  0  0  0  0  0  0
   44.1140   72.5910   60.3530 H   0  0  0  0  0  0  0  0  0  0  0  0
   41.6660   71.1070   64.1290 H   0  0  0  0  0  0  0  0  0  0  0  0
   40.4510   70.1120   63.2890 H   0  0  0  0  0  0  0  0  0  0  0  0
   40.1240   74.6570   60.3640 N   0  0  0  0  0  0  0  0  0  0  0  0
   39.6740   74.8090   58.9970 C   0  0  0  0  0  2  0  0  0  0  0  0
   39.2630   76.2370   58.7940 C   0  0  0  0  0  2  0  0  0  0  0  0
   39.7330   76.8950   60.0950 C   0  0  0  0  0  2  0  0  0  0  0  0
   39.4680   75.7440   61.0630 C   0  0  0  0  0  3  0  0  0  0  0  0
   38.3900   75.4950   61.0660 H   0  0  0  0  0  0  0  0  0  0  0  0
  1  7  1  0  0  0  0
  2  8  1  0  0  0  0
  2  1  2  0  0  0  0
  3  2  1  0  0  0  0
  4  3  2  0  0  0  0
  4  5  1  0  0  0  0
  5  6  2  0  0  0  0
  6  1  1  0  0  0  0
  7 11  1  0  0  0  0
  7 10  1  0  0  0  0
  9  3  1  0  0  0  0
 12  5  1  0  0  0  0
 12 16  1  0  0  0  0
 13 12  1  0  0  0  0
 14 13  1  0  0  0  0
 14 15  1  0  0  0  0
 15 16  1  0  0  0  0
 16 17  1  0  0  0  0
M  END
>  <minimizedAffinity>
-4.37980127

$$$$

 OpenBabel03212520463D

 17 18  0  0  0  0  0  0  0  0999 V2000
   37.4630   74.6030   57.2610 C   0  0  0  0  0  0  0  0  0  0  0  0
   37.7640   75.9930   57.2250 C   0  0  0  0  0  0  0  0  0  0  0  0
   38.7270   76.4720   58.1140 C   0  0  0  0  0  0  0  0  0  0  0  0
   39.3110   75.5880   58.9490 N   0  0  0  0  0  0  0  0  0  0  0  0
   39.0060   74.2840   58.9600 C   0  0  0  0  0  0  0  0  0  0  0  0
   38.0800   73.7910   58.1130 N   0  0  0  0  0  0  0  0  0  0  0  0
   36.4700   74.2520   56.3080 N   0  0  0  0  0  0  0  0  0  0  0  0
   37.3040   76.7120   56.5610 H   0  0  0  0  0  0  0  0  0  0  0  0
   38.9990   77.5220   58.1330 H   0  0  0  0  0  0  0  0  0  0  0  0
   36.8350   74.3630   55.3430 H   0  0  0  0  0  0  0  0  0  0  0  0
   35.4900   73.9230   56.4250 H   0  0  0  0  0  0  0  0  0  0  0  0
   39.6510   73.4220   59.8540 N   0  0  0  0  0  0  0  0  0  0  0  0
   39.6350   73.5150   61.2970 C   0  0  0  0  0  2  0  0  0  0  0  0
   40.8490   72.8110   61.8270 C   0  0  0  0  0  2  0  0  0  0  0  0
   41.6370   72.5210   60.5460 C   0  0  0  0  0  2  0  0  0  0  0  0
   40.4720   72.2570   59.5940 C   0  0  0  0  0  3  0  0  0  0  0  0
   39.8850   71.3880   59.9510 H   0  0  0  0  0  0  0  0  0  0  0  0
  1  6  1  0  0  0  0
  2  1  2  0  0  0  0
  2  3  1  0  0  0  0
  3  9  1  0  0  0  0
  3  4  2  0  0  0  0
  4  5  1  0  0  0  0
  5 12  1  0  0  0  0
  6  5  2  0  0  0  0
  7 11  1  0  0  0  0
  7  1  1  0  0  0  0
  8  2  1  0  0  0  0
 10  7  1  0  0  0  0
 12 13  1  0  0  0  0
 13 14  1  0  0  0  0
 15 14  1  0  0  0  0
 16 12  1  0  0  0  0
 16 17  1  0  0  0  0
 16 15  1  0  0  0  0
M  END
>  <minimizedAffinity>
-4.35354662

$$$$

 OpenBabel03212520463D

 17 18  0  0  0  0  0  0  0  0999 V2000
   36.8740   75.5220   54.3000 C   0  0  0  0  0  0  0  0  0  0  0  0
   36.4670   76.8790   54.4380 C   0  0  0  0  0  0  0  0  0  0  0  0
   36.8030   77.5420   55.6180 C   0  0  0  0  0  0  0  0  0  0  0  0
   37.4930   76.8560   56.5520 N   0  0  0  0  0  0  0  0  0  0  0  0
   37.8630   75.5790   56.3950 C   0  0  0  0  0  0  0  0  0  0  0  0
   37.5520   74.9110   55.2650 N   0  0  0  0  0  0  0  0  0  0  0  0
   36.4670   74.9720   53.0560 N   0  0  0  0  0  0  0  0  0  0  0  0
   35.9140   77.4400   53.6970 H   0  0  0  0  0  0  0  0  0  0  0  0
   36.5200   78.5760   55.7810 H   0  0  0  0  0  0  0  0  0  0  0  0
   36.9760   75.4240   52.2730 H   0  0  0  0  0  0  0  0  0  0  0  0
   35.7750   74.2290   52.8250 H   0  0  0  0  0  0  0  0  0  0  0  0
   38.5780   74.9270   57.4060 N   0  0  0  0  0  0  0  0  0  0  0  0
   38.1350   74.7090   58.7660 C   0  0  0  0  0  2  0  0  0  0  0  0
   39.3460   74.5200   59.6300 C   0  0  0  0  0  2  0  0  0  0  0  0
   40.4860   74.8710   58.6680 C   0  0  0  0  0  2  0  0  0  0  0  0
   39.8930   74.3200   57.3730 C   0  0  0  0  0  3  0  0  0  0  0  0
   39.7250   73.2300   57.4700 H   0  0  0  0  0  0  0  0  0  0  0  0
  1  2  2  0  0  0  0
  1  6  1  0  0  0  0
  2  3  1  0  0  0  0
  3  9  1  0  0  0  0
  3  4  2  0  0  0  0
  5  4  1  0  0  0  0
  5 12  1  0  0  0  0
  6  5  2  0  0  0  0
  7  1  1  0  0  0  0
  8  2  1  0  0  0  0
 10  7  1  0  0  0  0
 11  7  1  0  0  0  0
 12 13  1  0  0  0  0
 13 14  1  0  0  0  0
 15 14  1  0  0  0  0
 16 12  1  0  0  0  0
 16 17  1  0  0  0  0
 16 15  1  0  0  0  0
M  END
>  <minimizedAffinity>
-4.23573875

$$$$

 OpenBabel03212520463D

 17 18  0  0  0  0  0  0  0  0999 V2000
   38.1700   73.7720   58.0180 C   0  0  0  0  0  0  0  0  0  0  0  0
   38.1150   75.1910   58.1040 C   0  0  0  0  0  0  0  0  0  0  0  0
   38.9700   75.8210   59.0080 C   0  0  0  0  0  0  0  0  0  0  0  0
   39.7950   75.0470   59.7420 N   0  0  0  0  0  0  0  0  0  0  0  0
   39.8250   73.7120   59.6390 C   0  0  0  0  0  0  0  0  0  0  0  0
   39.0100   73.0740   58.7750 N   0  0  0  0  0  0  0  0  0  0  0  0
   37.2510   73.2640   57.0630 N   0  0  0  0  0  0  0  0  0  0  0  0
   37.4590   75.8240   57.5220 H   0  0  0  0  0  0  0  0  0  0  0  0
   38.9730   76.9010   59.1180 H   0  0  0  0  0  0  0  0  0  0  0  0
   37.5290   73.5430   56.1030 H   0  0  0  0  0  0  0  0  0  0  0  0
   36.3900   72.6900   57.1740 H   0  0  0  0  0  0  0  0  0  0  0  0
   40.7070   72.9680   60.4320 N   0  0  0  0  0  0  0  0  0  0  0  0
   40.7380   72.9330   61.8780 C   0  0  0  0  0  2  0  0  0  0  0  0
   42.1130   72.5160   62.3080 C   0  0  0  0  0  2  0  0  0  0  0  0
   42.8850   72.5420   60.9850 C   0  0  0  0  0  2  0  0  0  0  0  0
   41.7780   72.0730   60.0440 C   0  0  0  0  0  3  0  0  0  0  0  0
   41.4430   71.0580   60.3330 H   0  0  0  0  0  0  0  0  0  0  0  0
  1  2  2  0  0  0  0
  1  6  1  0  0  0  0
  2  3  1  0  0  0  0
  3  9  1  0  0  0  0
  3  4  2  0  0  0  0
  5  4  1  0  0  0  0
  5 12  1  0  0  0  0
  6  5  2  0  0  0  0
  7 11  1  0  0  0  0
  7  1  1  0  0  0  0
  8  2  1  0  0  0  0
 10  7  1  0  0  0  0
 12 13  1  0  0  0  0
 13 14  1  0  0  0  0
 15 14  1  0  0  0  0
 16 17  1  0  0  0  0
 16 12  1  0  0  0  0
 16 15  1  0  0  0  0
M  END
>  <minimizedAffinity>
-4.19170237

$$$$

 OpenBabel03212520463D

 17 18  0  0  0  0  0  0  0  0999 V2000
   39.2450   74.6250   61.0270 C   0  0  0  0  0  0  0  0  0  0  0  0
   38.7000   74.3630   59.7390 C   0  0  0  0  0  0  0  0  0  0  0  0
   39.1510   73.2310   59.0610 C   0  0  0  0  0  0  0  0  0  0  0  0
   40.0740   72.4570   59.6680 N   0  0  0  0  0  0  0  0  0  0  0  0
   40.5690   72.7290   60.8810 C   0  0  0  0  0  0  0  0  0  0  0  0
   40.1530   73.8160   61.5620 N   0  0  0  0  0  0  0  0  0  0  0  0
   38.7000   75.8030   61.6020 N   0  0  0  0  0  0  0  0  0  0  0  0
   37.9590   74.9750   59.2420 H   0  0  0  0  0  0  0  0  0  0  0  0
   38.7720   72.9800   58.0760 H   0  0  0  0  0  0  0  0  0  0  0  0
   37.6950   75.6710   61.8240 H   0  0  0  0  0  0  0  0  0  0  0  0
   39.1310   76.7250   61.8200 H   0  0  0  0  0  0  0  0  0  0  0  0
   41.5260   71.8820   61.4530 N   0  0  0  0  0  0  0  0  0  0  0  0
   42.8290   71.5690   60.9090 C   0  0  0  0  0  2  0  0  0  0  0  0
   43.2730   70.2550   61.4780 C   0  0  0  0  0  2  0  0  0  0  0  0
   42.0120   69.7760   62.2030 C   0  0  0  0  0  2  0  0  0  0  0  0
   41.4780   71.1230   62.6860 C   0  0  0  0  0  3  0  0  0  0  0  0
   42.2150   71.5980   63.3620 H   0  0  0  0  0  0  0  0  0  0  0  0
  1  6  1  0  0  0  0
  1  7  1  0  0  0  0
  2  1  2  0  0  0  0
  3  4  2  0  0  0  0
  3  2  1  0  0  0  0
  4  5  1  0  0  0  0
  5 12  1  0  0  0  0
  5  6  2  0  0  0  0
  7 11  1  0  0  0  0
  7 10  1  0  0  0  0
  8  2  1  0  0  0  0
  9  3  1  0  0  0  0
 12 16  1  0  0  0  0
 13 12  1  0  0  0  0
 13 14  1  0  0  0  0
 14 15  1  0  0  0  0
 15 16  1  0  0  0  0
 16 17  1  0  0  0  0
M  END
>  <minimizedAffinity>
-4.11744785

$$$$

 OpenBabel03212520463D

 17 18  0  0  0  0  0  0  0  0999 V2000
   39.5060   71.7590   57.9360 C   0  0  0  0  0  0  0  0  0  0  0  0
   38.3410   71.9870   57.1520 C   0  0  0  0  0  0  0  0  0  0  0  0
   37.6770   73.2040   57.3130 C   0  0  0  0  0  0  0  0  0  0  0  0
   38.1820   74.0850   58.2000 N   0  0  0  0  0  0  0  0  0  0  0  0
   39.2820   73.8420   58.9250 C   0  0  0  0  0  0  0  0  0  0  0  0
   39.9450   72.6760   58.7920 N   0  0  0  0  0  0  0  0  0  0  0  0
   40.0790   70.4870   57.6730 N   0  0  0  0  0  0  0  0  0  0  0  0
   37.9260   71.2890   56.4370 H   0  0  0  0  0  0  0  0  0  0  0  0
   36.7840   73.4350   56.7430 H   0  0  0  0  0  0  0  0  0  0  0  0
   40.4640   70.4520   56.7100 H   0  0  0  0  0  0  0  0  0  0  0  0
   40.1640   69.6350   58.2640 H   0  0  0  0  0  0  0  0  0  0  0  0
   39.7510   74.8020   59.8280 N   0  0  0  0  0  0  0  0  0  0  0  0
   39.0310   75.3370   60.9630 C   0  0  0  0  0  2  0  0  0  0  0  0
   39.6100   76.6790   61.2980 C   0  0  0  0  0  2  0  0  0  0  0  0
   40.5550   76.9250   60.1180 C   0  0  0  0  0  2  0  0  0  0  0  0
   41.0250   75.4920   59.8760 C   0  0  0  0  0  3  0  0  0  0  0  0
   41.5420   75.1090   60.7760 H   0  0  0  0  0  0  0  0  0  0  0  0
  1  6  1  0  0  0  0
  2  3  1  0  0  0  0
  2  1  2  0  0  0  0
  3  4  2  0  0  0  0
  4  5  1  0  0  0  0
  5 12  1  0  0  0  0
  6  5  2  0  0  0  0
  7  1  1  0  0  0  0
  7 11  1  0  0  0  0
  8  2  1  0  0  0  0
  9  3  1  0  0  0  0
 10  7  1  0  0  0  0
 12 16  1  0  0  0  0
 12 13  1  0  0  0  0
 13 14  1  0  0  0  0
 15 14  1  0  0  0  0
 16 15  1  0  0  0  0
 16 17  1  0  0  0  0
M  END
>  <minimizedAffinity>
-4.09339571

$$$$

 OpenBabel03212520463D

 17 18  0  0  0  0  0  0  0  0999 V2000
   39.1870   76.0690   60.1730 C   0  0  0  0  0  0  0  0  0  0  0  0
   40.1810   77.0830   60.0810 C   0  0  0  0  0  0  0  0  0  0  0  0
   40.5290   77.5380   58.8090 C   0  0  0  0  0  0  0  0  0  0  0  0
   39.9020   76.9890   57.7490 N   0  0  0  0  0  0  0  0  0  0  0  0
   38.9700   76.0350   57.8660 C   0  0  0  0  0  0  0  0  0  0  0  0
   38.6120   75.5740   59.0820 N   0  0  0  0  0  0  0  0  0  0  0  0
   38.9300   75.7010   61.5200 N   0  0  0  0  0  0  0  0  0  0  0  0
   40.6910   77.5320   60.9230 H   0  0  0  0  0  0  0  0  0  0  0  0
   41.2800   78.3090   58.6760 H   0  0  0  0  0  0  0  0  0  0  0  0
   38.4800   76.4830   62.0330 H   0  0  0  0  0  0  0  0  0  0  0  0
   39.1170   74.8190   62.0400 H   0  0  0  0  0  0  0  0  0  0  0  0
   38.3590   75.5090   56.7230 N   0  0  0  0  0  0  0  0  0  0  0  0
   39.0230   74.8310   55.6300 C   0  0  0  0  0  2  0  0  0  0  0  0
   38.1580   74.9450   54.4110 C   0  0  0  0  0  2  0  0  0  0  0  0
   37.0780   75.9270   54.8740 C   0  0  0  0  0  2  0  0  0  0  0  0
   36.9630   75.4970   56.3350 C   0  0  0  0  0  3  0  0  0  0  0  0
   36.6430   74.4390   56.3910 H   0  0  0  0  0  0  0  0  0  0  0  0
  1  7  1  0  0  0  0
  2  1  1  0  0  0  0
  2  8  1  0  0  0  0
  3  2  2  0  0  0  0
  4  5  2  0  0  0  0
  4  3  1  0  0  0  0
  5  6  1  0  0  0  0
  6  1  2  0  0  0  0
  7 10  1  0  0  0  0
  7 11  1  0  0  0  0
  9  3  1  0  0  0  0
 12  5  1  0  0  0  0
 13 12  1  0  0  0  0
 14 15  1  0  0  0  0
 14 13  1  0  0  0  0
 15 16  1  0  0  0  0
 16 17  1  0  0  0  0
 16 12  1  0  0  0  0
M  END
>  <minimizedAffinity>
-4.0465517

$$$$

 OpenBabel03212520463D

 17 18  0  0  0  0  0  0  0  0999 V2000
   39.6080   75.5130   61.0230 C   0  0  0  0  0  0  0  0  0  0  0  0
   40.1050   76.6500   60.3260 C   0  0  0  0  0  0  0  0  0  0  0  0
   41.2370   76.4790   59.5270 C   0  0  0  0  0  0  0  0  0  0  0  0
   41.7860   75.2490   59.4660 N   0  0  0  0  0  0  0  0  0  0  0  0
   41.2960   74.1970   60.1340 C   0  0  0  0  0  0  0  0  0  0  0  0
   40.2040   74.3310   60.9150 N   0  0  0  0  0  0  0  0  0  0  0  0
   38.4590   75.8270   61.7940 N   0  0  0  0  0  0  0  0  0  0  0  0
   39.6740   77.6410   60.3650 H   0  0  0  0  0  0  0  0  0  0  0  0
   41.6610   77.3080   58.9720 H   0  0  0  0  0  0  0  0  0  0  0  0
   37.6580   76.0610   61.1770 H   0  0  0  0  0  0  0  0  0  0  0  0
   38.3080   75.8590   62.8230 H   0  0  0  0  0  0  0  0  0  0  0  0
   41.9170   72.9480   60.0260 N   0  0  0  0  0  0  0  0  0  0  0  0
   43.2830   72.6340   60.3850 C   0  0  0  0  0  2  0  0  0  0  0  0
   43.7050   71.4200   59.6130 C   0  0  0  0  0  2  0  0  0  0  0  0
   42.5340   71.2320   58.6440 C   0  0  0  0  0  2  0  0  0  0  0  0
   41.3900   71.6850   59.5490 C   0  0  0  0  0  3  0  0  0  0  0  0
   41.3300   71.0270   60.4370 H   0  0  0  0  0  0  0  0  0  0  0  0
  1  7  1  0  0  0  0
  2  8  1  0  0  0  0
  2  1  2  0  0  0  0
  3  2  1  0  0  0  0
  4  3  2  0  0  0  0
  4  5  1  0  0  0  0
  5  6  2  0  0  0  0
  6  1  1  0  0  0  0
  7 11  1  0  0  0  0
  9  3  1  0  0  0  0
 10  7  1  0  0  0  0
 12  5  1  0  0  0  0
 12 13  1  0  0  0  0
 14 13  1  0  0  0  0
 15 16  1  0  0  0  0
 15 14  1  0  0  0  0
 16 12  1  0  0  0  0
 16 17  1  0  0  0  0
M  END
>  <minimizedAffinity>
-3.99136353

$$$$
