
 OpenBabel03212520343D

 31 34  0  0  0  0  0  0  0  0999 V2000
   40.6610   80.9480   56.6700 C   0  0  0  0  0  0  0  0  0  0  0  0
   41.6890   81.3240   55.8040 C   0  0  0  0  0  0  0  0  0  0  0  0
   41.6790   81.0760   54.4470 C   0  0  0  0  0  0  0  0  0  0  0  0
   40.5900   80.4150   53.8960 C   0  0  0  0  0  0  0  0  0  0  0  0
   39.5600   80.0340   54.7400 C   0  0  0  0  0  0  0  0  0  0  0  0
   38.4340   79.3700   54.2800 C   0  0  0  0  0  0  0  0  0  0  0  0
   37.4170   78.9990   55.1420 C   0  0  0  0  0  0  0  0  0  0  0  0
   37.4830   79.2760   56.4920 C   0  0  0  0  0  0  0  0  0  0  0  0
   38.5910   79.9350   56.9750 C   0  0  0  0  0  0  0  0  0  0  0  0
   39.5870   80.2890   56.0890 C   0  0  0  0  0  0  0  0  0  0  0  0
   42.5700   81.8430   56.1590 H   0  0  0  0  0  0  0  0  0  0  0  0
   42.4470   81.3530   53.7710 H   0  0  0  0  0  0  0  0  0  0  0  0
   40.4320   80.1480   52.8560 H   0  0  0  0  0  0  0  0  0  0  0  0
   38.3460   79.1370   53.2280 H   0  0  0  0  0  0  0  0  0  0  0  0
   36.5310   78.4810   54.7980 H   0  0  0  0  0  0  0  0  0  0  0  0
   36.6880   78.9870   57.1710 H   0  0  0  0  0  0  0  0  0  0  0  0
   38.6290   80.1490   58.0330 H   0  0  0  0  0  0  0  0  0  0  0  0
   41.4400   80.5900   59.1100 C   0  0  0  0  0  0  0  0  0  0  0  0
   40.8670   81.3020   58.0600 C   0  0  0  0  0  0  0  0  0  0  0  0
   40.3820   82.6010   58.3630 C   0  0  0  0  0  0  0  0  0  0  0  0
   40.4910   83.0790   59.6270 N   0  0  0  0  0  0  0  0  0  0  0  0
   41.0620   82.3280   60.6100 C   0  0  0  0  0  0  0  0  0  0  0  0
   41.5200   81.1110   60.3350 N   0  0  0  0  0  0  0  0  0  0  0  0
   41.7860   79.6250   58.7980 H   0  0  0  0  0  0  0  0  0  0  0  0
   39.9140   83.2760   57.6650 H   0  0  0  0  0  0  0  0  0  0  0  0
   41.1350   82.9050   61.9090 N   0  0  0  0  0  0  0  0  0  0  0  0
   40.0340   83.6120   62.5480 C   0  0  0  0  0  0  0  0  0  0  0  0
   40.4510   83.7820   63.9880 C   0  0  0  0  0  0  0  0  0  0  0  0
   41.9610   83.9520   63.8200 C   0  0  0  0  0  0  0  0  0  0  0  0
   42.2760   82.9020   62.8060 C   0  0  0  0  0  0  0  0  0  0  0  0
   42.2900   81.9040   63.2950 H   0  0  0  0  0  0  0  0  0  0  0  0
  1 19  1  0  0  0  0
  2 11  1  0  0  0  0
  2  1  2  0  0  0  0
  3  2  1  0  0  0  0
  4  3  2  0  0  0  0
  4  5  1  0  0  0  0
  5 10  1  0  0  0  0
  6  5  2  0  0  0  0
  6  7  1  0  0  0  0
  7  8  2  0  0  0  0
  8  9  1  0  0  0  0
  8 16  1  0  0  0  0
  9 17  1  0  0  0  0
 10  1  1  0  0  0  0
 10  9  2  0  0  0  0
 12  3  1  0  0  0  0
 13  4  1  0  0  0  0
 14  6  1  0  0  0  0
 15  7  1  0  0  0  0
 18 23  1  0  0  0  0
 19 20  1  0  0  0  0
 19 18  2  0  0  0  0
 20 21  2  0  0  0  0
 21 22  1  0  0  0  0
 22 26  1  0  0  0  0
 23 22  2  0  0  0  0
 24 18  1  0  0  0  0
 25 20  1  0  0  0  0
 26 27  1  0  0  0  0
 26 30  1  0  0  0  0
 27 28  1  0  0  0  0
 29 28  1  0  0  0  0
 30 31  1  0  0  0  0
 30 29  1  0  0  0  0
M  END
>  <minimizedAffinity>
-5.55036783

>  <minimizedRMSD>
3.00431275

$$$$
