
 OpenBabel03212521053D

 33 36  0  0  0  0  0  0  0  0999 V2000
   41.7850   84.1650   61.5580 C   0  0  0  0  0  0  0  0  0  0  0  0
   41.4180   83.8940   62.8710 C   0  0  0  0  0  0  0  0  0  0  0  0
   40.1250   83.5430   63.2030 C   0  0  0  0  0  0  0  0  0  0  0  0
   39.1630   83.4580   62.1990 C   0  0  0  0  0  0  0  0  0  0  0  0
   39.5350   83.7310   60.8820 C   0  0  0  0  0  0  0  0  0  0  0  0
   40.8220   84.0780   60.5650 C   0  0  0  0  0  0  0  0  0  0  0  0
   42.1840   83.9640   63.6460 H   0  0  0  0  0  0  0  0  0  0  0  0
   39.8780   83.3390   64.2390 H   0  0  0  0  0  0  0  0  0  0  0  0
   38.1530   83.1830   62.4590 H   0  0  0  0  0  0  0  0  0  0  0  0
   38.7270   83.6440   60.1560 H   0  0  0  0  0  0  0  0  0  0  0  0
   41.1590   84.3520   59.1860 C   0  0  0  0  0  0  0  0  0  0  0  0
   40.8820   85.6870   58.8440 C   0  0  0  0  0  0  0  0  0  0  0  0
   41.1330   86.1670   57.5570 C   0  0  0  0  0  0  0  0  0  0  0  0
   41.6500   85.2950   56.6690 N   0  0  0  0  0  0  0  0  0  0  0  0
   41.9100   84.0130   57.0150 C   0  0  0  0  0  0  0  0  0  0  0  0
   41.6750   83.5360   58.2440 N   0  0  0  0  0  0  0  0  0  0  0  0
   40.4700   86.4350   59.5050 H   0  0  0  0  0  0  0  0  0  0  0  0
   40.9280   87.1890   57.2700 H   0  0  0  0  0  0  0  0  0  0  0  0
   42.4550   83.0910   56.0800 N   0  0  0  0  0  0  0  0  0  0  0  0
   43.3170   81.9380   56.2530 C   0  0  0  0  0  2  0  0  0  0  0  0
   42.4710   80.8470   55.6320 C   0  0  0  0  0  2  0  0  0  0  0  0
   41.9890   81.5230   54.3650 C   0  0  0  0  0  2  0  0  0  0  0  0
   42.3510   82.9670   54.6390 C   0  0  0  0  0  3  0  0  0  0  0  0
   41.4510   83.5690   54.3190 H   0  0  0  0  0  0  0  0  0  0  0  0
   45.2960   83.8890   60.5800 C   0  0  0  0  0  0  0  0  0  0  0  0
   45.7580   85.1930   60.7060 C   0  0  0  0  0  0  0  0  0  0  0  0
   44.8520   86.1960   61.1360 C   0  0  0  0  0  0  0  0  0  0  0  0
   43.5780   85.8180   61.4000 N   0  0  0  0  0  0  0  0  0  0  0  0
   43.1570   84.5300   61.2660 C   0  0  0  0  0  0  0  0  0  0  0  0
   44.0230   83.6130   60.8630 N   0  0  0  0  0  0  0  0  0  0  0  0
   45.9490   83.0850   60.2550 H   0  0  0  0  0  0  0  0  0  0  0  0
   46.7720   85.4480   60.4880 H   0  0  0  0  0  0  0  0  0  0  0  0
   45.1680   87.2150   61.2460 H   0  0  0  0  0  0  0  0  0  0  0  0
  1  2  1  0  0  0  0
  2  3  2  0  0  0  0
  2  7  1  0  0  0  0
  3  8  1  0  0  0  0
  4  9  1  0  0  0  0
  4  3  1  0  0  0  0
  5  4  2  0  0  0  0
  6  5  1  0  0  0  0
  6  1  2  0  0  0  0
 10  5  1  0  0  0  0
 11  6  1  0  0  0  0
 12 11  1  0  0  0  0
 12 17  1  0  0  0  0
 13 12  2  0  0  0  0
 14 15  2  0  0  0  0
 14 13  1  0  0  0  0
 15 16  1  0  0  0  0
 16 11  2  0  0  0  0
 18 13  1  0  0  0  0
 19 20  1  0  0  0  0
 19 15  1  0  0  0  0
 21 20  1  0  0  0  0
 22 23  1  0  0  0  0
 22 21  1  0  0  0  0
 23 19  1  0  0  0  0
 24 23  1  0  0  0  0
 25 26  2  0  0  0  0
 25 30  1  0  0  0  0
 26 27  1  0  0  0  0
 27 33  1  0  0  0  0
 27 28  2  0  0  0  0
 29 28  1  0  0  0  0
 29  1  1  0  0  0  0
 30 29  2  0  0  0  0
 31 25  1  0  0  0  0
 32 26  1  0  0  0  0
M  END
>  <minimizedAffinity>
-5.64887333

>  <minimizedRMSD>
0.375836581

$$$$
