
 OpenBabel03212521053D

 33 36  0  0  0  0  0  0  0  0999 V2000
   41.8130   84.2420   61.5640 C   0  0  0  0  0  0  0  0  0  0  0  0
   41.4610   83.9480   62.8760 C   0  0  0  0  0  0  0  0  0  0  0  0
   40.1880   83.5280   63.2060 C   0  0  0  0  0  0  0  0  0  0  0  0
   39.2310   83.3960   62.2010 C   0  0  0  0  0  0  0  0  0  0  0  0
   39.5900   83.6930   60.8850 C   0  0  0  0  0  0  0  0  0  0  0  0
   40.8560   84.1080   60.5700 C   0  0  0  0  0  0  0  0  0  0  0  0
   42.2200   84.0550   63.6520 H   0  0  0  0  0  0  0  0  0  0  0  0
   39.9510   83.3080   64.2400 H   0  0  0  0  0  0  0  0  0  0  0  0
   38.2370   83.0670   62.4590 H   0  0  0  0  0  0  0  0  0  0  0  0
   38.7870   83.5650   60.1580 H   0  0  0  0  0  0  0  0  0  0  0  0
   41.1800   84.4040   59.1920 C   0  0  0  0  0  0  0  0  0  0  0  0
   40.7140   85.6760   58.8170 C   0  0  0  0  0  0  0  0  0  0  0  0
   40.9190   86.1650   57.5250 C   0  0  0  0  0  0  0  0  0  0  0  0
   41.5800   85.3640   56.6660 N   0  0  0  0  0  0  0  0  0  0  0  0
   42.0210   84.1420   57.0440 C   0  0  0  0  0  0  0  0  0  0  0  0
   41.8330   83.6580   58.2780 N   0  0  0  0  0  0  0  0  0  0  0  0
   40.1790   86.3660   59.4530 H   0  0  0  0  0  0  0  0  0  0  0  0
   40.5700   87.1380   57.2120 H   0  0  0  0  0  0  0  0  0  0  0  0
   42.7190   83.2950   56.1400 N   0  0  0  0  0  0  0  0  0  0  0  0
   42.3330   82.7190   54.8670 C   0  0  0  0  0  2  0  0  0  0  0  0
   43.4250   83.2520   53.9630 C   0  0  0  0  0  2  0  0  0  0  0  0
   44.6590   83.0130   54.8070 C   0  0  0  0  0  2  0  0  0  0  0  0
   44.0450   82.7100   56.1570 C   0  0  0  0  0  3  0  0  0  0  0  0
   44.6560   83.2940   56.9050 H   0  0  0  0  0  0  0  0  0  0  0  0
   45.3530   84.1440   60.6570 C   0  0  0  0  0  0  0  0  0  0  0  0
   45.7270   85.4800   60.7210 C   0  0  0  0  0  0  0  0  0  0  0  0
   44.7510   86.4440   61.0830 C   0  0  0  0  0  0  0  0  0  0  0  0
   43.4990   85.9970   61.3460 N   0  0  0  0  0  0  0  0  0  0  0  0
   43.1640   84.6800   61.2740 C   0  0  0  0  0  0  0  0  0  0  0  0
   44.0940   83.8010   60.9340 N   0  0  0  0  0  0  0  0  0  0  0  0
   46.0610   83.3680   60.3850 H   0  0  0  0  0  0  0  0  0  0  0  0
   46.7270   85.7890   60.5050 H   0  0  0  0  0  0  0  0  0  0  0  0
   44.9990   87.4860   61.1440 H   0  0  0  0  0  0  0  0  0  0  0  0
  1  2  1  0  0  0  0
  2  3  2  0  0  0  0
  2  7  1  0  0  0  0
  3  8  1  0  0  0  0
  4  9  1  0  0  0  0
  4  3  1  0  0  0  0
  5  4  2  0  0  0  0
  6  5  1  0  0  0  0
  6  1  2  0  0  0  0
 10  5  1  0  0  0  0
 11  6  1  0  0  0  0
 12 11  1  0  0  0  0
 12 17  1  0  0  0  0
 13 12  2  0  0  0  0
 14 15  2  0  0  0  0
 14 13  1  0  0  0  0
 15 16  1  0  0  0  0
 16 11  2  0  0  0  0
 18 13  1  0  0  0  0
 19 23  1  0  0  0  0
 19 15  1  0  0  0  0
 20 19  1  0  0  0  0
 21 22  1  0  0  0  0
 21 20  1  0  0  0  0
 22 23  1  0  0  0  0
 23 24  1  0  0  0  0
 25 26  2  0  0  0  0
 25 30  1  0  0  0  0
 26 27  1  0  0  0  0
 27 33  1  0  0  0  0
 27 28  2  0  0  0  0
 29 28  1  0  0  0  0
 29  1  1  0  0  0  0
 30 29  2  0  0  0  0
 31 25  1  0  0  0  0
 32 26  1  0  0  0  0
M  END
>  <minimizedAffinity>
-5.57691288

>  <minimizedRMSD>
0.171937093

$$$$
