
 OpenBabel03212521043D

 33 36  0  0  0  0  0  0  0  0999 V2000
   41.8020   84.2440   61.5590 C   0  0  0  0  0  0  0  0  0  0  0  0
   41.4500   83.9530   62.8720 C   0  0  0  0  0  0  0  0  0  0  0  0
   40.1770   83.5370   63.2040 C   0  0  0  0  0  0  0  0  0  0  0  0
   39.2190   83.4050   62.2000 C   0  0  0  0  0  0  0  0  0  0  0  0
   39.5770   83.6980   60.8830 C   0  0  0  0  0  0  0  0  0  0  0  0
   40.8440   84.1100   60.5660 C   0  0  0  0  0  0  0  0  0  0  0  0
   42.2120   84.0610   63.6460 H   0  0  0  0  0  0  0  0  0  0  0  0
   39.9410   83.3200   64.2390 H   0  0  0  0  0  0  0  0  0  0  0  0
   38.2240   83.0790   62.4610 H   0  0  0  0  0  0  0  0  0  0  0  0
   38.7730   83.5710   60.1580 H   0  0  0  0  0  0  0  0  0  0  0  0
   41.1670   84.4020   59.1870 C   0  0  0  0  0  0  0  0  0  0  0  0
   40.7460   85.6920   58.8230 C   0  0  0  0  0  0  0  0  0  0  0  0
   40.9580   86.1810   57.5320 C   0  0  0  0  0  0  0  0  0  0  0  0
   41.5810   85.3620   56.6630 N   0  0  0  0  0  0  0  0  0  0  0  0
   41.9780   84.1220   57.0300 C   0  0  0  0  0  0  0  0  0  0  0  0
   41.7830   83.6370   58.2630 N   0  0  0  0  0  0  0  0  0  0  0  0
   40.2430   86.3980   59.4680 H   0  0  0  0  0  0  0  0  0  0  0  0
   40.6430   87.1700   57.2290 H   0  0  0  0  0  0  0  0  0  0  0  0
   42.6360   83.2550   56.1140 N   0  0  0  0  0  0  0  0  0  0  0  0
   44.0240   82.8560   55.9910 C   0  0  0  0  0  2  0  0  0  0  0  0
   43.9050   81.3500   56.1010 C   0  0  0  0  0  2  0  0  0  0  0  0
   42.7260   81.0730   55.1910 C   0  0  0  0  0  2  0  0  0  0  0  0
   42.1680   82.4670   54.9910 C   0  0  0  0  0  3  0  0  0  0  0  0
   41.0500   82.3630   55.1020 H   0  0  0  0  0  0  0  0  0  0  0  0
   45.3340   84.1380   60.6230 C   0  0  0  0  0  0  0  0  0  0  0  0
   45.7180   85.4700   60.7070 C   0  0  0  0  0  0  0  0  0  0  0  0
   44.7510   86.4340   61.0930 C   0  0  0  0  0  0  0  0  0  0  0  0
   43.4980   85.9910   61.3580 N   0  0  0  0  0  0  0  0  0  0  0  0
   43.1540   84.6770   61.2660 C   0  0  0  0  0  0  0  0  0  0  0  0
   44.0760   83.7990   60.9050 N   0  0  0  0  0  0  0  0  0  0  0  0
   46.0360   83.3630   60.3340 H   0  0  0  0  0  0  0  0  0  0  0  0
   46.7180   85.7760   60.4890 H   0  0  0  0  0  0  0  0  0  0  0  0
   45.0060   87.4730   61.1690 H   0  0  0  0  0  0  0  0  0  0  0  0
  1  2  1  0  0  0  0
  2  3  2  0  0  0  0
  2  7  1  0  0  0  0
  3  8  1  0  0  0  0
  4  9  1  0  0  0  0
  4  3  1  0  0  0  0
  5  4  2  0  0  0  0
  6  5  1  0  0  0  0
  6  1  2  0  0  0  0
 10  5  1  0  0  0  0
 11  6  1  0  0  0  0
 12 11  1  0  0  0  0
 12 17  1  0  0  0  0
 13 12  2  0  0  0  0
 14 15  2  0  0  0  0
 14 13  1  0  0  0  0
 15 16  1  0  0  0  0
 16 11  2  0  0  0  0
 18 13  1  0  0  0  0
 19 15  1  0  0  0  0
 20 21  1  0  0  0  0
 20 19  1  0  0  0  0
 22 21  1  0  0  0  0
 23 24  1  0  0  0  0
 23 22  1  0  0  0  0
 23 19  1  0  0  0  0
 25 26  2  0  0  0  0
 25 30  1  0  0  0  0
 26 27  1  0  0  0  0
 27 33  1  0  0  0  0
 27 28  2  0  0  0  0
 29 28  1  0  0  0  0
 29  1  1  0  0  0  0
 30 29  2  0  0  0  0
 31 25  1  0  0  0  0
 32 26  1  0  0  0  0
M  END
>  <minimizedAffinity>
-5.57571554

>  <minimizedRMSD>
0.220797002

$$$$
