
 OpenBabel03212521053D

 33 36  0  0  0  0  0  0  0  0999 V2000
   41.7970   84.2440   61.5570 C   0  0  0  0  0  0  0  0  0  0  0  0
   41.4440   83.9600   62.8710 C   0  0  0  0  0  0  0  0  0  0  0  0
   40.1700   83.5450   63.2040 C   0  0  0  0  0  0  0  0  0  0  0  0
   39.2130   83.4080   62.2010 C   0  0  0  0  0  0  0  0  0  0  0  0
   39.5720   83.6940   60.8820 C   0  0  0  0  0  0  0  0  0  0  0  0
   40.8390   84.1040   60.5640 C   0  0  0  0  0  0  0  0  0  0  0  0
   42.2040   84.0710   63.6450 H   0  0  0  0  0  0  0  0  0  0  0  0
   39.9330   83.3340   64.2400 H   0  0  0  0  0  0  0  0  0  0  0  0
   38.2180   83.0840   62.4620 H   0  0  0  0  0  0  0  0  0  0  0  0
   38.7680   83.5640   60.1570 H   0  0  0  0  0  0  0  0  0  0  0  0
   41.1630   84.3900   59.1840 C   0  0  0  0  0  0  0  0  0  0  0  0
   40.7820   85.6940   58.8250 C   0  0  0  0  0  0  0  0  0  0  0  0
   41.0030   86.1790   57.5340 C   0  0  0  0  0  0  0  0  0  0  0  0
   41.5930   85.3410   56.6590 N   0  0  0  0  0  0  0  0  0  0  0  0
   41.9520   84.0880   57.0210 C   0  0  0  0  0  0  0  0  0  0  0  0
   41.7480   83.6070   58.2540 N   0  0  0  0  0  0  0  0  0  0  0  0
   40.3070   86.4140   59.4750 H   0  0  0  0  0  0  0  0  0  0  0  0
   40.7190   87.1780   57.2350 H   0  0  0  0  0  0  0  0  0  0  0  0
   42.5750   83.2020   56.0990 N   0  0  0  0  0  0  0  0  0  0  0  0
   42.1790   81.9030   55.5940 C   0  0  0  0  0  2  0  0  0  0  0  0
   42.1550   82.1650   54.1040 C   0  0  0  0  0  2  0  0  0  0  0  0
   43.4450   82.9330   53.9110 C   0  0  0  0  0  2  0  0  0  0  0  0
   43.8080   83.2720   55.3420 C   0  0  0  0  0  3  0  0  0  0  0  0
   44.1260   84.3550   55.3240 H   0  0  0  0  0  0  0  0  0  0  0  0
   45.3230   84.1360   60.6010 C   0  0  0  0  0  0  0  0  0  0  0  0
   45.7130   85.4650   60.7010 C   0  0  0  0  0  0  0  0  0  0  0  0
   44.7520   86.4270   61.1050 C   0  0  0  0  0  0  0  0  0  0  0  0
   43.4990   85.9870   61.3700 N   0  0  0  0  0  0  0  0  0  0  0  0
   43.1490   84.6750   61.2630 C   0  0  0  0  0  0  0  0  0  0  0  0
   44.0650   83.7980   60.8840 N   0  0  0  0  0  0  0  0  0  0  0  0
   46.0200   83.3620   60.2970 H   0  0  0  0  0  0  0  0  0  0  0  0
   46.7130   85.7700   60.4820 H   0  0  0  0  0  0  0  0  0  0  0  0
   45.0120   87.4640   61.1940 H   0  0  0  0  0  0  0  0  0  0  0  0
  1  2  1  0  0  0  0
  2  3  2  0  0  0  0
  2  7  1  0  0  0  0
  3  8  1  0  0  0  0
  4  9  1  0  0  0  0
  4  3  1  0  0  0  0
  5  4  2  0  0  0  0
  6  5  1  0  0  0  0
  6  1  2  0  0  0  0
 10  5  1  0  0  0  0
 11  6  1  0  0  0  0
 12 11  1  0  0  0  0
 12 17  1  0  0  0  0
 13 12  2  0  0  0  0
 14 15  2  0  0  0  0
 14 13  1  0  0  0  0
 15 16  1  0  0  0  0
 16 11  2  0  0  0  0
 18 13  1  0  0  0  0
 19 15  1  0  0  0  0
 20 19  1  0  0  0  0
 21 20  1  0  0  0  0
 22 21  1  0  0  0  0
 22 23  1  0  0  0  0
 23 19  1  0  0  0  0
 24 23  1  0  0  0  0
 25 26  2  0  0  0  0
 25 30  1  0  0  0  0
 26 27  1  0  0  0  0
 27 33  1  0  0  0  0
 27 28  2  0  0  0  0
 29 28  1  0  0  0  0
 29  1  1  0  0  0  0
 30 29  2  0  0  0  0
 31 25  1  0  0  0  0
 32 26  1  0  0  0  0
M  END
>  <minimizedAffinity>
-5.63170052

>  <minimizedRMSD>
0.249069214

$$$$
