
 OpenBabel03212521023D

 25 27  0  0  0  0  0  0  0  0999 V2000
   42.1460   84.2860   62.1500 C   0  0  0  0  0  0  0  0  0  0  0  0
   42.6000   84.4050   63.4700 C   0  0  0  0  0  0  0  0  0  0  0  0
   41.7370   84.1490   64.5230 C   0  0  0  0  0  0  0  0  0  0  0  0
   40.4190   83.7730   64.3040 C   0  0  0  0  0  0  0  0  0  0  0  0
   39.9880   83.6600   62.9880 C   0  0  0  0  0  0  0  0  0  0  0  0
   40.8340   83.9130   61.9270 C   0  0  0  0  0  0  0  0  0  0  0  0
   43.6320   84.7000   63.5990 H   0  0  0  0  0  0  0  0  0  0  0  0
   42.1530   84.2590   65.5190 H   0  0  0  0  0  0  0  0  0  0  0  0
   39.8220   83.5940   65.1830 H   0  0  0  0  0  0  0  0  0  0  0  0
   38.9510   83.3640   62.9060 H   0  0  0  0  0  0  0  0  0  0  0  0
   44.5830   83.8060   59.4550 C   0  0  0  0  0  0  0  0  0  0  0  0
   44.7670   85.1010   58.9810 C   0  0  0  0  0  0  0  0  0  0  0  0
   44.0470   86.1620   59.5880 C   0  0  0  0  0  0  0  0  0  0  0  0
   43.2150   85.8380   60.6070 N   0  0  0  0  0  0  0  0  0  0  0  0
   43.0520   84.5540   61.0560 C   0  0  0  0  0  0  0  0  0  0  0  0
   43.7370   83.5800   60.4700 N   0  0  0  0  0  0  0  0  0  0  0  0
   45.0910   82.9470   59.0480 H   0  0  0  0  0  0  0  0  0  0  0  0
   45.4520   85.2720   58.1620 H   0  0  0  0  0  0  0  0  0  0  0  0
   44.1770   87.1570   59.2380 H   0  0  0  0  0  0  0  0  0  0  0  0
   40.2790   83.7680   60.6380 N   0  0  0  0  0  0  0  0  0  0  0  0
   40.2490   82.8460   59.4930 C   0  0  0  0  0  0  0  0  0  0  0  0
   40.7940   83.8050   58.4220 C   0  0  0  0  0  0  0  0  0  0  0  0
   40.2160   85.1660   58.8160 C   0  0  0  0  0  0  0  0  0  0  0  0
   39.3980   84.7920   60.0560 C   0  0  0  0  0  0  0  0  0  0  0  0
   38.4890   84.2870   59.7300 H   0  0  0  0  0  0  0  0  0  0  0  0
  1  2  1  0  0  0  0
  2  7  1  0  0  0  0
  2  3  2  0  0  0  0
  3  8  1  0  0  0  0
  4  3  1  0  0  0  0
  4  9  1  0  0  0  0
  5  4  2  0  0  0  0
  6  1  2  0  0  0  0
  6  5  1  0  0  0  0
 10  5  1  0  0  0  0
 11 16  1  0  0  0  0
 12 11  2  0  0  0  0
 12 13  1  0  0  0  0
 13 14  2  0  0  0  0
 14 15  1  0  0  0  0
 15  1  1  0  0  0  0
 16 15  2  0  0  0  0
 17 11  1  0  0  0  0
 18 12  1  0  0  0  0
 19 13  1  0  0  0  0
 20  6  1  0  0  0  0
 21 20  1  0  0  0  0
 22 23  1  0  0  0  0
 22 21  1  0  0  0  0
 23 24  1  0  0  0  0
 24 20  1  0  0  0  0
 25 24  1  0  0  0  0
M  END
>  <minimizedAffinity>
-5.0786624

>  <minimizedRMSD>
1.46453345

$$$$
