
 OpenBabel03212521053D

 33 36  0  0  0  0  0  0  0  0999 V2000
   41.8120   84.2340   61.5770 C   0  0  0  0  0  0  0  0  0  0  0  0
   41.4710   83.9640   62.8970 C   0  0  0  0  0  0  0  0  0  0  0  0
   40.2020   83.5450   63.2440 C   0  0  0  0  0  0  0  0  0  0  0  0
   39.2380   83.3910   62.2500 C   0  0  0  0  0  0  0  0  0  0  0  0
   39.5850   83.6630   60.9250 C   0  0  0  0  0  0  0  0  0  0  0  0
   40.8480   84.0770   60.5930 C   0  0  0  0  0  0  0  0  0  0  0  0
   42.2360   84.0890   63.6640 H   0  0  0  0  0  0  0  0  0  0  0  0
   39.9740   83.3450   64.2850 H   0  0  0  0  0  0  0  0  0  0  0  0
   38.2470   83.0630   62.5220 H   0  0  0  0  0  0  0  0  0  0  0  0
   38.7780   83.5190   60.2080 H   0  0  0  0  0  0  0  0  0  0  0  0
   41.1590   84.3480   59.2070 C   0  0  0  0  0  0  0  0  0  0  0  0
   40.8550   85.6760   58.8620 C   0  0  0  0  0  0  0  0  0  0  0  0
   41.0780   86.1520   57.5680 C   0  0  0  0  0  0  0  0  0  0  0  0
   41.5950   85.2830   56.6770 N   0  0  0  0  0  0  0  0  0  0  0  0
   41.8820   84.0080   57.0270 C   0  0  0  0  0  0  0  0  0  0  0  0
   41.6740   83.5350   58.2620 N   0  0  0  0  0  0  0  0  0  0  0  0
   40.4410   86.4220   59.5240 H   0  0  0  0  0  0  0  0  0  0  0  0
   40.8520   87.1680   57.2780 H   0  0  0  0  0  0  0  0  0  0  0  0
   42.4270   83.0890   56.0890 N   0  0  0  0  0  0  0  0  0  0  0  0
   42.3100   81.6490   55.9710 C   0  0  0  0  0  2  0  0  0  0  0  0
   41.7460   81.5160   54.5720 C   0  0  0  0  0  2  0  0  0  0  0  0
   42.6150   82.4900   53.8030 C   0  0  0  0  0  2  0  0  0  0  0  0
   43.2820   83.2510   54.9300 C   0  0  0  0  0  3  0  0  0  0  0  0
   43.2320   84.3390   54.6300 H   0  0  0  0  0  0  0  0  0  0  0  0
   45.3210   84.1430   60.5560 C   0  0  0  0  0  0  0  0  0  0  0  0
   45.7140   85.4700   60.6770 C   0  0  0  0  0  0  0  0  0  0  0  0
   44.7610   86.4240   61.1170 C   0  0  0  0  0  0  0  0  0  0  0  0
   43.5120   85.9790   61.3960 N   0  0  0  0  0  0  0  0  0  0  0  0
   43.1590   84.6710   61.2670 C   0  0  0  0  0  0  0  0  0  0  0  0
   44.0670   83.8010   60.8550 N   0  0  0  0  0  0  0  0  0  0  0  0
   46.0110   83.3750   60.2230 H   0  0  0  0  0  0  0  0  0  0  0  0
   46.7100   85.7780   60.4460 H   0  0  0  0  0  0  0  0  0  0  0  0
   45.0240   87.4590   61.2230 H   0  0  0  0  0  0  0  0  0  0  0  0
  1  2  1  0  0  0  0
  2  3  2  0  0  0  0
  2  7  1  0  0  0  0
  3  8  1  0  0  0  0
  4  9  1  0  0  0  0
  4  3  1  0  0  0  0
  5  4  2  0  0  0  0
  6  5  1  0  0  0  0
  6  1  2  0  0  0  0
 10  5  1  0  0  0  0
 11  6  1  0  0  0  0
 12 11  1  0  0  0  0
 12 17  1  0  0  0  0
 13 12  2  0  0  0  0
 14 15  2  0  0  0  0
 14 13  1  0  0  0  0
 15 16  1  0  0  0  0
 16 11  2  0  0  0  0
 18 13  1  0  0  0  0
 19 15  1  0  0  0  0
 20 19  1  0  0  0  0
 21 20  1  0  0  0  0
 22 21  1  0  0  0  0
 22 23  1  0  0  0  0
 23 19  1  0  0  0  0
 24 23  1  0  0  0  0
 25 26  2  0  0  0  0
 25 30  1  0  0  0  0
 26 27  1  0  0  0  0
 27 33  1  0  0  0  0
 27 28  2  0  0  0  0
 29 28  1  0  0  0  0
 29  1  1  0  0  0  0
 30 29  2  0  0  0  0
 31 25  1  0  0  0  0
 32 26  1  0  0  0  0
M  END
>  <minimizedAffinity>
-5.68479156

>  <minimizedRMSD>
0.353429168

$$$$
