
 OpenBabel03212521043D

 33 36  0  0  0  0  0  0  0  0999 V2000
   41.7920   84.1690   61.5550 C   0  0  0  0  0  0  0  0  0  0  0  0
   41.4390   83.8940   62.8710 C   0  0  0  0  0  0  0  0  0  0  0  0
   40.1500   83.5380   63.2150 C   0  0  0  0  0  0  0  0  0  0  0  0
   39.1780   83.4530   62.2200 C   0  0  0  0  0  0  0  0  0  0  0  0
   39.5370   83.7300   60.9000 C   0  0  0  0  0  0  0  0  0  0  0  0
   40.8190   84.0820   60.5720 C   0  0  0  0  0  0  0  0  0  0  0  0
   42.2110   83.9650   63.6390 H   0  0  0  0  0  0  0  0  0  0  0  0
   39.9130   83.3320   64.2520 H   0  0  0  0  0  0  0  0  0  0  0  0
   38.1710   83.1750   62.4890 H   0  0  0  0  0  0  0  0  0  0  0  0
   38.7220   83.6420   60.1820 H   0  0  0  0  0  0  0  0  0  0  0  0
   41.1430   84.3600   59.1900 C   0  0  0  0  0  0  0  0  0  0  0  0
   40.8940   85.7040   58.8640 C   0  0  0  0  0  0  0  0  0  0  0  0
   41.1380   86.1900   57.5770 C   0  0  0  0  0  0  0  0  0  0  0  0
   41.6190   85.3130   56.6740 N   0  0  0  0  0  0  0  0  0  0  0  0
   41.8520   84.0220   57.0050 C   0  0  0  0  0  0  0  0  0  0  0  0
   41.6240   83.5400   58.2330 N   0  0  0  0  0  0  0  0  0  0  0  0
   40.5100   86.4560   59.5370 H   0  0  0  0  0  0  0  0  0  0  0  0
   40.9540   87.2180   57.3030 H   0  0  0  0  0  0  0  0  0  0  0  0
   42.3600   83.0950   56.0530 N   0  0  0  0  0  0  0  0  0  0  0  0
   42.4260   81.6470   56.0590 C   0  0  0  0  0  2  0  0  0  0  0  0
   41.6660   81.3170   54.7920 C   0  0  0  0  0  2  0  0  0  0  0  0
   42.2540   82.3160   53.8180 C   0  0  0  0  0  2  0  0  0  0  0  0
   42.9840   83.2540   54.7550 C   0  0  0  0  0  3  0  0  0  0  0  0
   42.7360   84.2950   54.3930 H   0  0  0  0  0  0  0  0  0  0  0  0
   45.2900   83.9080   60.5260 C   0  0  0  0  0  0  0  0  0  0  0  0
   45.7530   85.2100   60.6680 C   0  0  0  0  0  0  0  0  0  0  0  0
   44.8530   86.2060   61.1250 C   0  0  0  0  0  0  0  0  0  0  0  0
   43.5830   85.8240   61.3990 N   0  0  0  0  0  0  0  0  0  0  0  0
   43.1600   84.5380   61.2500 C   0  0  0  0  0  0  0  0  0  0  0  0
   44.0200   83.6280   60.8220 N   0  0  0  0  0  0  0  0  0  0  0  0
   45.9380   83.1090   60.1800 H   0  0  0  0  0  0  0  0  0  0  0  0
   46.7650   85.4680   60.4400 H   0  0  0  0  0  0  0  0  0  0  0  0
   45.1720   87.2230   61.2470 H   0  0  0  0  0  0  0  0  0  0  0  0
  1  2  1  0  0  0  0
  2  3  2  0  0  0  0
  2  7  1  0  0  0  0
  3  8  1  0  0  0  0
  4  9  1  0  0  0  0
  4  3  1  0  0  0  0
  5  4  2  0  0  0  0
  6  5  1  0  0  0  0
  6  1  2  0  0  0  0
 10  5  1  0  0  0  0
 11  6  1  0  0  0  0
 12 11  1  0  0  0  0
 12 17  1  0  0  0  0
 13 12  2  0  0  0  0
 14 15  2  0  0  0  0
 14 13  1  0  0  0  0
 15 16  1  0  0  0  0
 16 11  2  0  0  0  0
 18 13  1  0  0  0  0
 19 20  1  0  0  0  0
 19 15  1  0  0  0  0
 21 20  1  0  0  0  0
 22 23  1  0  0  0  0
 22 21  1  0  0  0  0
 23 19  1  0  0  0  0
 24 23  1  0  0  0  0
 25 26  2  0  0  0  0
 25 30  1  0  0  0  0
 26 27  1  0  0  0  0
 27 33  1  0  0  0  0
 27 28  2  0  0  0  0
 29 28  1  0  0  0  0
 29  1  1  0  0  0  0
 30 29  2  0  0  0  0
 31 25  1  0  0  0  0
 32 26  1  0  0  0  0
M  END
>  <minimizedAffinity>
-5.7086134

>  <minimizedRMSD>
0.424577951

$$$$
