
 OpenBabel03212521053D

 33 36  0  0  0  0  0  0  0  0999 V2000
   41.8030   84.2320   61.5570 C   0  0  0  0  0  0  0  0  0  0  0  0
   41.4580   83.9510   62.8740 C   0  0  0  0  0  0  0  0  0  0  0  0
   40.1870   83.5330   63.2150 C   0  0  0  0  0  0  0  0  0  0  0  0
   39.2250   83.3900   62.2170 C   0  0  0  0  0  0  0  0  0  0  0  0
   39.5760   83.6740   60.8960 C   0  0  0  0  0  0  0  0  0  0  0  0
   40.8410   84.0870   60.5700 C   0  0  0  0  0  0  0  0  0  0  0  0
   42.2220   84.0680   63.6440 H   0  0  0  0  0  0  0  0  0  0  0  0
   39.9570   83.3240   64.2530 H   0  0  0  0  0  0  0  0  0  0  0  0
   38.2330   83.0630   62.4840 H   0  0  0  0  0  0  0  0  0  0  0  0
   38.7700   83.5380   60.1750 H   0  0  0  0  0  0  0  0  0  0  0  0
   41.1560   84.3690   59.1870 C   0  0  0  0  0  0  0  0  0  0  0  0
   40.8670   85.7040   58.8560 C   0  0  0  0  0  0  0  0  0  0  0  0
   41.0960   86.1910   57.5680 C   0  0  0  0  0  0  0  0  0  0  0  0
   41.6040   85.3260   56.6680 N   0  0  0  0  0  0  0  0  0  0  0  0
   41.8760   84.0440   57.0040 C   0  0  0  0  0  0  0  0  0  0  0  0
   41.6620   83.5600   58.2340 N   0  0  0  0  0  0  0  0  0  0  0  0
   40.4610   86.4470   59.5260 H   0  0  0  0  0  0  0  0  0  0  0  0
   40.8820   87.2130   57.2890 H   0  0  0  0  0  0  0  0  0  0  0  0
   42.4120   83.1290   56.0560 N   0  0  0  0  0  0  0  0  0  0  0  0
   43.7420   82.9880   55.4980 C   0  0  0  0  0  2  0  0  0  0  0  0
   44.0650   81.5590   55.8730 C   0  0  0  0  0  2  0  0  0  0  0  0
   42.7760   80.8520   55.5100 C   0  0  0  0  0  2  0  0  0  0  0  0
   41.8360   82.0240   55.3170 C   0  0  0  0  0  3  0  0  0  0  0  0
   40.8810   81.7340   55.8440 H   0  0  0  0  0  0  0  0  0  0  0  0
   45.3140   84.1410   60.5430 C   0  0  0  0  0  0  0  0  0  0  0  0
   45.7110   85.4650   60.6770 C   0  0  0  0  0  0  0  0  0  0  0  0
   44.7600   86.4180   61.1250 C   0  0  0  0  0  0  0  0  0  0  0  0
   43.5090   85.9740   61.3970 N   0  0  0  0  0  0  0  0  0  0  0  0
   43.1520   84.6680   61.2550 C   0  0  0  0  0  0  0  0  0  0  0  0
   44.0580   83.7990   60.8360 N   0  0  0  0  0  0  0  0  0  0  0  0
   46.0020   83.3730   60.2050 H   0  0  0  0  0  0  0  0  0  0  0  0
   46.7080   85.7720   60.4510 H   0  0  0  0  0  0  0  0  0  0  0  0
   45.0260   87.4510   61.2410 H   0  0  0  0  0  0  0  0  0  0  0  0
  1  2  1  0  0  0  0
  2  3  2  0  0  0  0
  2  7  1  0  0  0  0
  3  8  1  0  0  0  0
  4  9  1  0  0  0  0
  4  3  1  0  0  0  0
  5  4  2  0  0  0  0
  6  5  1  0  0  0  0
  6  1  2  0  0  0  0
 10  5  1  0  0  0  0
 11  6  1  0  0  0  0
 12 11  1  0  0  0  0
 12 17  1  0  0  0  0
 13 12  2  0  0  0  0
 14 15  2  0  0  0  0
 14 13  1  0  0  0  0
 15 16  1  0  0  0  0
 16 11  2  0  0  0  0
 18 13  1  0  0  0  0
 19 15  1  0  0  0  0
 20 21  1  0  0  0  0
 20 19  1  0  0  0  0
 22 21  1  0  0  0  0
 23 22  1  0  0  0  0
 23 24  1  0  0  0  0
 23 19  1  0  0  0  0
 25 26  2  0  0  0  0
 25 30  1  0  0  0  0
 26 27  1  0  0  0  0
 27 33  1  0  0  0  0
 27 28  2  0  0  0  0
 29 28  1  0  0  0  0
 29  1  1  0  0  0  0
 30 29  2  0  0  0  0
 31 25  1  0  0  0  0
 32 26  1  0  0  0  0
M  END
>  <minimizedAffinity>
-5.59849691

>  <minimizedRMSD>
0.389241934

$$$$
