
 OpenBabel03212520453D

 17 18  0  0  0  0  0  0  0  0999 V2000
   39.6340   83.3550   61.2400 C   0  0  0  0  0  0  0  0  0  0  0  0
   40.5210   84.4670   61.2690 C   0  0  0  0  0  0  0  0  0  0  0  0
   41.5080   84.5380   60.2860 C   0  0  0  0  0  0  0  0  0  0  0  0
   41.5580   83.5490   59.3700 N   0  0  0  0  0  0  0  0  0  0  0  0
   40.7090   82.5130   59.3680 C   0  0  0  0  0  0  0  0  0  0  0  0
   39.7450   82.4170   60.3060 N   0  0  0  0  0  0  0  0  0  0  0  0
   38.6830   83.4090   62.2930 N   0  0  0  0  0  0  0  0  0  0  0  0
   40.4910   85.2670   61.9970 H   0  0  0  0  0  0  0  0  0  0  0  0
   42.2130   85.3620   60.2570 H   0  0  0  0  0  0  0  0  0  0  0  0
   38.0290   84.2020   62.1540 H   0  0  0  0  0  0  0  0  0  0  0  0
   38.5530   82.8100   63.1340 H   0  0  0  0  0  0  0  0  0  0  0  0
   40.8190   81.5210   58.3880 N   0  0  0  0  0  0  0  0  0  0  0  0
   41.9680   80.6750   58.1470 C   0  0  0  0  0  0  0  0  0  0  0  0
   41.9080   80.1940   56.7280 C   0  0  0  0  0  0  0  0  0  0  0  0
   40.7530   81.0210   56.1560 C   0  0  0  0  0  0  0  0  0  0  0  0
   39.8590   81.0860   57.3920 C   0  0  0  0  0  0  0  0  0  0  0  0
   39.5560   80.0640   57.6910 H   0  0  0  0  0  0  0  0  0  0  0  0
  1  2  1  0  0  0  0
  1  7  1  0  0  0  0
  2  8  1  0  0  0  0
  3  2  2  0  0  0  0
  4  3  1  0  0  0  0
  5  4  2  0  0  0  0
  5  6  1  0  0  0  0
  6  1  2  0  0  0  0
  7 11  1  0  0  0  0
  9  3  1  0  0  0  0
 10  7  1  0  0  0  0
 12  5  1  0  0  0  0
 13 12  1  0  0  0  0
 14 13  1  0  0  0  0
 15 14  1  0  0  0  0
 15 16  1  0  0  0  0
 16 17  1  0  0  0  0
 16 12  1  0  0  0  0
M  END
>  <minimizedAffinity>
-3.39442825

>  <minimizedRMSD>
5.97686148

$$$$
