
 OpenBabel03212520453D

 15 16  0  0  0  0  0  0  0  0999 V2000
   38.3350   75.9950   57.7800 C   0  0  0  0  0  0  0  0  0  0  0  0
   37.5630   74.8700   57.3860 C   0  0  0  0  0  0  0  0  0  0  0  0
   36.7350   75.0180   56.2740 C   0  0  0  0  0  0  0  0  0  0  0  0
   36.7070   76.2160   55.6330 N   0  0  0  0  0  0  0  0  0  0  0  0
   37.4530   77.2630   56.0370 C   0  0  0  0  0  0  0  0  0  0  0  0
   38.2610   77.1480   57.1050 N   0  0  0  0  0  0  0  0  0  0  0  0
   37.6150   73.9280   57.9260 H   0  0  0  0  0  0  0  0  0  0  0  0
   36.1330   74.1730   55.9510 H   0  0  0  0  0  0  0  0  0  0  0  0
   37.3050   78.1340   55.4130 H   0  0  0  0  0  0  0  0  0  0  0  0
   39.1910   75.9050   58.8950 N   0  0  0  0  0  0  0  0  0  0  0  0
   38.9670   75.3350   60.2200 C   0  0  0  0  0  2  0  0  0  0  0  0
   39.5760   76.3660   61.1810 C   0  0  0  0  0  2  0  0  0  0  0  0
   40.4250   77.2440   60.2790 C   0  0  0  0  0  2  0  0  0  0  0  0
   40.5590   76.3580   59.0570 C   0  0  0  0  0  3  0  0  0  0  0  0
   41.1560   75.4390   59.2630 H   0  0  0  0  0  0  0  0  0  0  0  0
  1 10  1  0  0  0  0
  2  1  1  0  0  0  0
  2  7  1  0  0  0  0
  3  2  2  0  0  0  0
  4  5  2  0  0  0  0
  4  3  1  0  0  0  0
  5  6  1  0  0  0  0
  6  1  2  0  0  0  0
  8  3  1  0  0  0  0
  9  5  1  0  0  0  0
 10 14  1  0  0  0  0
 10 11  1  0  0  0  0
 11 12  1  0  0  0  0
 13 12  1  0  0  0  0
 14 15  1  0  0  0  0
 14 13  1  0  0  0  0
M  END
>  <minimizedAffinity>
-4.11091471

$$$$

 OpenBabel03212520453D

 15 16  0  0  0  0  0  0  0  0999 V2000
   38.4980   75.5070   58.6040 C   0  0  0  0  0  0  0  0  0  0  0  0
   38.8190   76.7610   58.0190 C   0  0  0  0  0  0  0  0  0  0  0  0
   38.2220   77.0690   56.7970 C   0  0  0  0  0  0  0  0  0  0  0  0
   37.3750   76.1670   56.2350 N   0  0  0  0  0  0  0  0  0  0  0  0
   37.0950   74.9860   56.8200 C   0  0  0  0  0  0  0  0  0  0  0  0
   37.6560   74.6630   57.9980 N   0  0  0  0  0  0  0  0  0  0  0  0
   39.5020   77.4550   58.5010 H   0  0  0  0  0  0  0  0  0  0  0  0
   38.4510   78.0220   56.3270 H   0  0  0  0  0  0  0  0  0  0  0  0
   36.4050   74.3940   56.2340 H   0  0  0  0  0  0  0  0  0  0  0  0
   39.0700   75.1400   59.8380 N   0  0  0  0  0  0  0  0  0  0  0  0
   40.4450   75.2440   60.3150 C   0  0  0  0  0  2  0  0  0  0  0  0
   40.7030   73.9000   61.0120 C   0  0  0  0  0  2  0  0  0  0  0  0
   39.3160   73.3110   61.1900 C   0  0  0  0  0  2  0  0  0  0  0  0
   38.4540   74.5450   61.0080 C   0  0  0  0  0  3  0  0  0  0  0  0
   38.5960   75.2850   61.8300 H   0  0  0  0  0  0  0  0  0  0  0  0
  1 10  1  0  0  0  0
  2  7  1  0  0  0  0
  2  1  1  0  0  0  0
  3  2  2  0  0  0  0
  4  3  1  0  0  0  0
  4  5  2  0  0  0  0
  5  6  1  0  0  0  0
  6  1  2  0  0  0  0
  8  3  1  0  0  0  0
  9  5  1  0  0  0  0
 10 11  1  0  0  0  0
 10 14  1  0  0  0  0
 11 12  1  0  0  0  0
 12 13  1  0  0  0  0
 14 13  1  0  0  0  0
 14 15  1  0  0  0  0
M  END
>  <minimizedAffinity>
-4.08608437

$$$$

 OpenBabel03212520453D

 15 16  0  0  0  0  0  0  0  0999 V2000
   38.5870   75.6490   58.5740 C   0  0  0  0  0  0  0  0  0  0  0  0
   39.4080   76.5450   59.3090 C   0  0  0  0  0  0  0  0  0  0  0  0
   39.6650   76.2300   60.6420 C   0  0  0  0  0  0  0  0  0  0  0  0
   39.1250   75.0990   61.1660 N   0  0  0  0  0  0  0  0  0  0  0  0
   38.3490   74.2720   60.4370 C   0  0  0  0  0  0  0  0  0  0  0  0
   38.0850   74.5500   59.1490 N   0  0  0  0  0  0  0  0  0  0  0  0
   39.8210   77.4410   58.8530 H   0  0  0  0  0  0  0  0  0  0  0  0
   40.2910   76.9000   61.2280 H   0  0  0  0  0  0  0  0  0  0  0  0
   38.0060   73.4230   61.0120 H   0  0  0  0  0  0  0  0  0  0  0  0
   38.2910   75.9140   57.2220 N   0  0  0  0  0  0  0  0  0  0  0  0
   37.8860   77.1510   56.5630 C   0  0  0  0  0  2  0  0  0  0  0  0
   36.7580   76.7200   55.6160 C   0  0  0  0  0  2  0  0  0  0  0  0
   36.8920   75.2100   55.5550 C   0  0  0  0  0  2  0  0  0  0  0  0
   38.3030   75.0250   56.0760 C   0  0  0  0  0  3  0  0  0  0  0  0
   39.0690   75.4420   55.3810 H   0  0  0  0  0  0  0  0  0  0  0  0
  1  6  2  0  0  0  0
  1  2  1  0  0  0  0
  2  3  2  0  0  0  0
  3  4  1  0  0  0  0
  3  8  1  0  0  0  0
  5  9  1  0  0  0  0
  5  4  2  0  0  0  0
  6  5  1  0  0  0  0
  7  2  1  0  0  0  0
 10  1  1  0  0  0  0
 11 10  1  0  0  0  0
 12 11  1  0  0  0  0
 13 12  1  0  0  0  0
 13 14  1  0  0  0  0
 14 10  1  0  0  0  0
 15 14  1  0  0  0  0
M  END
>  <minimizedAffinity>
-3.92563295

$$$$

 OpenBabel03212520453D

 15 16  0  0  0  0  0  0  0  0999 V2000
   41.1580   72.6600   61.2930 C   0  0  0  0  0  0  0  0  0  0  0  0
   42.2990   72.1950   60.5870 C   0  0  0  0  0  0  0  0  0  0  0  0
   43.0500   71.1810   61.1800 C   0  0  0  0  0  0  0  0  0  0  0  0
   42.6590   70.6960   62.3880 N   0  0  0  0  0  0  0  0  0  0  0  0
   41.5690   71.1630   63.0290 C   0  0  0  0  0  0  0  0  0  0  0  0
   40.8270   72.1400   62.4800 N   0  0  0  0  0  0  0  0  0  0  0  0
   42.5780   72.6090   59.6220 H   0  0  0  0  0  0  0  0  0  0  0  0
   43.9290   70.8060   60.6610 H   0  0  0  0  0  0  0  0  0  0  0  0
   41.4080   70.6650   63.9750 H   0  0  0  0  0  0  0  0  0  0  0  0
   40.3600   73.6830   60.7440 N   0  0  0  0  0  0  0  0  0  0  0  0
   40.7360   74.9410   60.1070 C   0  0  0  0  0  2  0  0  0  0  0  0
   39.7620   75.9690   60.7020 C   0  0  0  0  0  2  0  0  0  0  0  0
   38.6800   75.1160   61.3390 C   0  0  0  0  0  2  0  0  0  0  0  0
   38.9170   73.7880   60.6490 C   0  0  0  0  0  3  0  0  0  0  0  0
   38.6900   73.8300   59.5580 H   0  0  0  0  0  0  0  0  0  0  0  0
  1  6  1  0  0  0  0
  2  3  1  0  0  0  0
  2  1  2  0  0  0  0
  3  4  2  0  0  0  0
  4  5  1  0  0  0  0
  5  9  1  0  0  0  0
  6  5  2  0  0  0  0
  7  2  1  0  0  0  0
  8  3  1  0  0  0  0
 10  1  1  0  0  0  0
 11 12  1  0  0  0  0
 11 10  1  0  0  0  0
 12 13  1  0  0  0  0
 14 10  1  0  0  0  0
 14 13  1  0  0  0  0
 15 14  1  0  0  0  0
M  END
>  <minimizedAffinity>
-3.89872742

$$$$

 OpenBabel03212520453D

 15 16  0  0  0  0  0  0  0  0999 V2000
   38.9110   75.4220   57.5630 C   0  0  0  0  0  0  0  0  0  0  0  0
   39.5940   74.9630   56.4050 C   0  0  0  0  0  0  0  0  0  0  0  0
   38.8650   74.8890   55.2190 C   0  0  0  0  0  0  0  0  0  0  0  0
   37.5560   75.2530   55.2290 N   0  0  0  0  0  0  0  0  0  0  0  0
   36.9410   75.6830   56.3490 C   0  0  0  0  0  0  0  0  0  0  0  0
   37.6200   75.7650   57.5070 N   0  0  0  0  0  0  0  0  0  0  0  0
   40.6430   74.6810   56.4390 H   0  0  0  0  0  0  0  0  0  0  0  0
   39.3640   74.5400   54.3180 H   0  0  0  0  0  0  0  0  0  0  0  0
   35.9030   75.9290   56.1750 H   0  0  0  0  0  0  0  0  0  0  0  0
   39.5950   75.5180   58.7910 N   0  0  0  0  0  0  0  0  0  0  0  0
   40.5070   74.5860   59.4460 C   0  0  0  0  0  2  0  0  0  0  0  0
   40.0620   74.5950   60.9150 C   0  0  0  0  0  2  0  0  0  0  0  0
   39.1780   75.8250   61.0190 C   0  0  0  0  0  2  0  0  0  0  0  0
   39.5940   76.5840   59.7750 C   0  0  0  0  0  3  0  0  0  0  0  0
   40.6490   76.9420   59.8300 H   0  0  0  0  0  0  0  0  0  0  0  0
  1 10  1  0  0  0  0
  2  7  1  0  0  0  0
  2  1  2  0  0  0  0
  3  4  2  0  0  0  0
  3  2  1  0  0  0  0
  4  5  1  0  0  0  0
  5  6  2  0  0  0  0
  6  1  1  0  0  0  0
  8  3  1  0  0  0  0
  9  5  1  0  0  0  0
 10 11  1  0  0  0  0
 10 14  1  0  0  0  0
 11 12  1  0  0  0  0
 12 13  1  0  0  0  0
 14 15  1  0  0  0  0
 14 13  1  0  0  0  0
M  END
>  <minimizedAffinity>
-3.67892599

$$$$

 OpenBabel03212520453D

 15 16  0  0  0  0  0  0  0  0999 V2000
   41.8540   68.0770   62.2410 C   0  0  0  0  0  0  0  0  0  0  0  0
   41.8380   67.2190   63.3730 C   0  0  0  0  0  0  0  0  0  0  0  0
   41.5200   65.8800   63.1570 C   0  0  0  0  0  0  0  0  0  0  0  0
   41.2450   65.4660   61.8920 N   0  0  0  0  0  0  0  0  0  0  0  0
   41.2700   66.3100   60.8410 C   0  0  0  0  0  0  0  0  0  0  0  0
   41.5730   67.6080   61.0210 N   0  0  0  0  0  0  0  0  0  0  0  0
   42.0640   67.5900   64.3700 H   0  0  0  0  0  0  0  0  0  0  0  0
   41.5000   65.2010   64.0060 H   0  0  0  0  0  0  0  0  0  0  0  0
   41.0260   65.8130   59.9130 H   0  0  0  0  0  0  0  0  0  0  0  0
   42.1680   69.4420   62.3970 N   0  0  0  0  0  0  0  0  0  0  0  0
   41.7120   70.4140   63.3860 C   0  0  0  0  0  2  0  0  0  0  0  0
   41.4160   71.6760   62.5620 C   0  0  0  0  0  2  0  0  0  0  0  0
   42.0980   71.4090   61.2320 C   0  0  0  0  0  2  0  0  0  0  0  0
   43.0460   70.2900   61.6140 C   0  0  0  0  0  3  0  0  0  0  0  0
   43.8410   70.6300   62.3180 H   0  0  0  0  0  0  0  0  0  0  0  0
  1 10  1  0  0  0  0
  1  2  1  0  0  0  0
  2  7  1  0  0  0  0
  3  2  2  0  0  0  0
  3  8  1  0  0  0  0
  4  3  1  0  0  0  0
  5  6  1  0  0  0  0
  5  4  2  0  0  0  0
  6  1  2  0  0  0  0
  9  5  1  0  0  0  0
 10 11  1  0  0  0  0
 12 11  1  0  0  0  0
 13 14  1  0  0  0  0
 13 12  1  0  0  0  0
 14 15  1  0  0  0  0
 14 10  1  0  0  0  0
M  END
>  <minimizedAffinity>
-3.66849613

$$$$

 OpenBabel03212520453D

 15 16  0  0  0  0  0  0  0  0999 V2000
   41.4130   74.1710   60.2750 C   0  0  0  0  0  0  0  0  0  0  0  0
   41.6780   73.0960   61.1640 C   0  0  0  0  0  0  0  0  0  0  0  0
   43.0060   72.6970   61.3070 C   0  0  0  0  0  0  0  0  0  0  0  0
   43.9670   73.3460   60.5990 N   0  0  0  0  0  0  0  0  0  0  0  0
   43.6760   74.3630   59.7630 C   0  0  0  0  0  0  0  0  0  0  0  0
   42.4040   74.7690   59.6060 N   0  0  0  0  0  0  0  0  0  0  0  0
   40.8810   72.6020   61.7130 H   0  0  0  0  0  0  0  0  0  0  0  0
   43.2380   71.8760   61.9810 H   0  0  0  0  0  0  0  0  0  0  0  0
   44.5590   74.7610   59.2830 H   0  0  0  0  0  0  0  0  0  0  0  0
   40.0900   74.6200   60.0900 N   0  0  0  0  0  0  0  0  0  0  0  0
   38.8540   73.8710   59.8830 C   0  0  0  0  0  2  0  0  0  0  0  0
   38.1360   74.6350   58.7610 C   0  0  0  0  0  2  0  0  0  0  0  0
   38.8650   75.9650   58.7030 C   0  0  0  0  0  2  0  0  0  0  0  0
   39.5620   75.9700   60.0490 C   0  0  0  0  0  3  0  0  0  0  0  0
   38.8430   76.0370   60.8980 H   0  0  0  0  0  0  0  0  0  0  0  0
  1  2  1  0  0  0  0
  2  3  2  0  0  0  0
  2  7  1  0  0  0  0
  3  8  1  0  0  0  0
  4  3  1  0  0  0  0
  5  4  2  0  0  0  0
  6  5  1  0  0  0  0
  6  1  2  0  0  0  0
  9  5  1  0  0  0  0
 10  1  1  0  0  0  0
 11 10  1  0  0  0  0
 12 11  1  0  0  0  0
 13 12  1  0  0  0  0
 13 14  1  0  0  0  0
 14 10  1  0  0  0  0
 14 15  1  0  0  0  0
M  END
>  <minimizedAffinity>
-3.64962935

$$$$

 OpenBabel03212520453D

 15 16  0  0  0  0  0  0  0  0999 V2000
   40.7860   73.8760   60.7290 C   0  0  0  0  0  0  0  0  0  0  0  0
   39.5620   74.4500   61.1630 C   0  0  0  0  0  0  0  0  0  0  0  0
   39.2670   75.7400   60.7230 C   0  0  0  0  0  0  0  0  0  0  0  0
   40.1550   76.3750   59.9140 N   0  0  0  0  0  0  0  0  0  0  0  0
   41.3090   75.7980   59.5230 C   0  0  0  0  0  0  0  0  0  0  0  0
   41.6180   74.5550   59.9320 N   0  0  0  0  0  0  0  0  0  0  0  0
   38.8780   73.9080   61.8110 H   0  0  0  0  0  0  0  0  0  0  0  0
   38.3360   76.2030   61.0400 H   0  0  0  0  0  0  0  0  0  0  0  0
   41.8920   76.4460   58.8830 H   0  0  0  0  0  0  0  0  0  0  0  0
   41.1380   72.5750   61.1410 N   0  0  0  0  0  0  0  0  0  0  0  0
   41.0690   71.9440   62.4550 C   0  0  0  0  0  2  0  0  0  0  0  0
   42.4010   71.1900   62.5800 C   0  0  0  0  0  2  0  0  0  0  0  0
   42.9350   71.1610   61.1590 C   0  0  0  0  0  2  0  0  0  0  0  0
   41.6780   71.4710   60.3720 C   0  0  0  0  0  3  0  0  0  0  0  0
   40.9210   70.6560   60.4460 H   0  0  0  0  0  0  0  0  0  0  0  0
  1 10  1  0  0  0  0
  1  2  1  0  0  0  0
  2  7  1  0  0  0  0
  3  8  1  0  0  0  0
  3  2  2  0  0  0  0
  4  3  1  0  0  0  0
  5  4  2  0  0  0  0
  5  6  1  0  0  0  0
  6  1  2  0  0  0  0
  9  5  1  0  0  0  0
 10 11  1  0  0  0  0
 11 12  1  0  0  0  0
 13 12  1  0  0  0  0
 14 15  1  0  0  0  0
 14 10  1  0  0  0  0
 14 13  1  0  0  0  0
M  END
>  <minimizedAffinity>
-3.64686728

$$$$

 OpenBabel03212520453D

 15 16  0  0  0  0  0  0  0  0999 V2000
   40.8750   75.0190   59.8750 C   0  0  0  0  0  0  0  0  0  0  0  0
   39.5160   75.3710   59.6640 C   0  0  0  0  0  0  0  0  0  0  0  0
   39.2600   76.6030   59.0630 C   0  0  0  0  0  0  0  0  0  0  0  0
   40.3090   77.3940   58.7160 N   0  0  0  0  0  0  0  0  0  0  0  0
   41.5870   77.0260   58.9340 C   0  0  0  0  0  0  0  0  0  0  0  0
   41.8630   75.8430   59.5100 N   0  0  0  0  0  0  0  0  0  0  0  0
   38.7050   74.7100   59.9560 H   0  0  0  0  0  0  0  0  0  0  0  0
   38.2280   76.8990   58.8900 H   0  0  0  0  0  0  0  0  0  0  0  0
   42.2900   77.7750   58.5970 H   0  0  0  0  0  0  0  0  0  0  0  0
   41.1960   73.7860   60.4780 N   0  0  0  0  0  0  0  0  0  0  0  0
   40.6270   73.1240   61.6480 C   0  0  0  0  0  2  0  0  0  0  0  0
   41.8500   72.6000   62.4140 C   0  0  0  0  0  2  0  0  0  0  0  0
   42.9780   72.6890   61.4020 C   0  0  0  0  0  2  0  0  0  0  0  0
   42.1960   72.8030   60.1090 C   0  0  0  0  0  3  0  0  0  0  0  0
   41.6290   71.8720   59.8740 H   0  0  0  0  0  0  0  0  0  0  0  0
  1 10  1  0  0  0  0
  2  1  1  0  0  0  0
  2  7  1  0  0  0  0
  3  2  2  0  0  0  0
  4  5  2  0  0  0  0
  4  3  1  0  0  0  0
  5  6  1  0  0  0  0
  6  1  2  0  0  0  0
  8  3  1  0  0  0  0
  9  5  1  0  0  0  0
 10 11  1  0  0  0  0
 11 12  1  0  0  0  0
 13 12  1  0  0  0  0
 14 10  1  0  0  0  0
 14 13  1  0  0  0  0
 15 14  1  0  0  0  0
M  END
>  <minimizedAffinity>
-3.6068337

$$$$
