
 OpenBabel03212521053D

 33 36  0  0  0  0  0  0  0  0999 V2000
   41.8150   84.2380   61.5580 C   0  0  0  0  0  0  0  0  0  0  0  0
   41.4730   83.9340   62.8700 C   0  0  0  0  0  0  0  0  0  0  0  0
   40.2030   83.5090   63.2060 C   0  0  0  0  0  0  0  0  0  0  0  0
   39.2400   83.3810   62.2070 C   0  0  0  0  0  0  0  0  0  0  0  0
   39.5890   83.6880   60.8910 C   0  0  0  0  0  0  0  0  0  0  0  0
   40.8520   84.1090   60.5700 C   0  0  0  0  0  0  0  0  0  0  0  0
   42.2380   84.0380   63.6410 H   0  0  0  0  0  0  0  0  0  0  0  0
   39.9750   83.2810   64.2410 H   0  0  0  0  0  0  0  0  0  0  0  0
   38.2490   83.0480   62.4700 H   0  0  0  0  0  0  0  0  0  0  0  0
   38.7810   83.5640   60.1690 H   0  0  0  0  0  0  0  0  0  0  0  0
   41.1650   84.4150   59.1910 C   0  0  0  0  0  0  0  0  0  0  0  0
   40.7160   85.6980   58.8360 C   0  0  0  0  0  0  0  0  0  0  0  0
   40.9140   86.1980   57.5470 C   0  0  0  0  0  0  0  0  0  0  0  0
   41.5520   85.3970   56.6710 N   0  0  0  0  0  0  0  0  0  0  0  0
   41.9770   84.1630   57.0310 C   0  0  0  0  0  0  0  0  0  0  0  0
   41.7950   83.6680   58.2620 N   0  0  0  0  0  0  0  0  0  0  0  0
   40.2000   86.3900   59.4860 H   0  0  0  0  0  0  0  0  0  0  0  0
   40.5790   87.1810   57.2490 H   0  0  0  0  0  0  0  0  0  0  0  0
   42.6500   83.3150   56.1090 N   0  0  0  0  0  0  0  0  0  0  0  0
   42.5560   83.1920   54.6680 C   0  0  0  0  0  2  0  0  0  0  0  0
   43.9920   83.4450   54.2600 C   0  0  0  0  0  2  0  0  0  0  0  0
   44.7450   82.5980   55.2640 C   0  0  0  0  0  2  0  0  0  0  0  0
   43.6550   82.2840   56.2690 C   0  0  0  0  0  3  0  0  0  0  0  0
   44.1280   82.4360   57.2830 H   0  0  0  0  0  0  0  0  0  0  0  0
   45.3430   84.1570   60.6030 C   0  0  0  0  0  0  0  0  0  0  0  0
   45.7200   85.4910   60.6940 C   0  0  0  0  0  0  0  0  0  0  0  0
   44.7500   86.4470   61.0910 C   0  0  0  0  0  0  0  0  0  0  0  0
   43.5010   85.9960   61.3600 N   0  0  0  0  0  0  0  0  0  0  0  0
   43.1630   84.6810   61.2610 C   0  0  0  0  0  0  0  0  0  0  0  0
   44.0880   83.8100   60.8890 N   0  0  0  0  0  0  0  0  0  0  0  0
   46.0470   83.3880   60.3050 H   0  0  0  0  0  0  0  0  0  0  0  0
   46.7180   85.8040   60.4730 H   0  0  0  0  0  0  0  0  0  0  0  0
   45.0010   87.4870   61.1730 H   0  0  0  0  0  0  0  0  0  0  0  0
  1  2  1  0  0  0  0
  2  3  2  0  0  0  0
  2  7  1  0  0  0  0
  3  8  1  0  0  0  0
  4  9  1  0  0  0  0
  4  3  1  0  0  0  0
  5  4  2  0  0  0  0
  6  5  1  0  0  0  0
  6  1  2  0  0  0  0
 10  5  1  0  0  0  0
 11  6  1  0  0  0  0
 12 11  1  0  0  0  0
 12 17  1  0  0  0  0
 13 12  2  0  0  0  0
 14 15  2  0  0  0  0
 14 13  1  0  0  0  0
 15 16  1  0  0  0  0
 16 11  2  0  0  0  0
 18 13  1  0  0  0  0
 19 23  1  0  0  0  0
 19 15  1  0  0  0  0
 20 19  1  0  0  0  0
 21 20  1  0  0  0  0
 21 22  1  0  0  0  0
 22 23  1  0  0  0  0
 23 24  1  0  0  0  0
 25 26  2  0  0  0  0
 25 30  1  0  0  0  0
 26 27  1  0  0  0  0
 27 33  1  0  0  0  0
 27 28  2  0  0  0  0
 29 28  1  0  0  0  0
 29  1  1  0  0  0  0
 30 29  2  0  0  0  0
 31 25  1  0  0  0  0
 32 26  1  0  0  0  0
M  END
>  <minimizedAffinity>
-5.56134605

>  <minimizedRMSD>
0.220577329

$$$$
