
 OpenBabel03212521053D

 33 36  0  0  0  0  0  0  0  0999 V2000
   41.8090   84.2410   61.5550 C   0  0  0  0  0  0  0  0  0  0  0  0
   41.4650   83.9420   62.8680 C   0  0  0  0  0  0  0  0  0  0  0  0
   40.1940   83.5200   63.2040 C   0  0  0  0  0  0  0  0  0  0  0  0
   39.2320   83.3900   62.2040 C   0  0  0  0  0  0  0  0  0  0  0  0
   39.5830   83.6910   60.8870 C   0  0  0  0  0  0  0  0  0  0  0  0
   40.8470   84.1090   60.5660 C   0  0  0  0  0  0  0  0  0  0  0  0
   42.2290   84.0480   63.6390 H   0  0  0  0  0  0  0  0  0  0  0  0
   39.9640   83.2960   64.2390 H   0  0  0  0  0  0  0  0  0  0  0  0
   38.2400   83.0590   62.4670 H   0  0  0  0  0  0  0  0  0  0  0  0
   38.7760   83.5650   60.1650 H   0  0  0  0  0  0  0  0  0  0  0  0
   41.1620   84.4090   59.1870 C   0  0  0  0  0  0  0  0  0  0  0  0
   40.7390   85.7020   58.8340 C   0  0  0  0  0  0  0  0  0  0  0  0
   40.9450   86.1990   57.5440 C   0  0  0  0  0  0  0  0  0  0  0  0
   41.5620   85.3840   56.6660 N   0  0  0  0  0  0  0  0  0  0  0  0
   41.9620   84.1420   57.0240 C   0  0  0  0  0  0  0  0  0  0  0  0
   41.7730   83.6500   58.2550 N   0  0  0  0  0  0  0  0  0  0  0  0
   40.2410   86.4040   59.4860 H   0  0  0  0  0  0  0  0  0  0  0  0
   40.6290   87.1890   57.2480 H   0  0  0  0  0  0  0  0  0  0  0  0
   42.6140   83.2800   56.1000 N   0  0  0  0  0  0  0  0  0  0  0  0
   42.7370   83.3310   54.6560 C   0  0  0  0  0  2  0  0  0  0  0  0
   44.2420   83.3380   54.4930 C   0  0  0  0  0  2  0  0  0  0  0  0
   44.6550   82.2560   55.4680 C   0  0  0  0  0  2  0  0  0  0  0  0
   43.3780   82.0590   56.2580 C   0  0  0  0  0  3  0  0  0  0  0  0
   43.6970   82.0050   57.3390 H   0  0  0  0  0  0  0  0  0  0  0  0
   45.3350   84.1540   60.5950 C   0  0  0  0  0  0  0  0  0  0  0  0
   45.7170   85.4860   60.6920 C   0  0  0  0  0  0  0  0  0  0  0  0
   44.7500   86.4430   61.0950 C   0  0  0  0  0  0  0  0  0  0  0  0
   43.5000   85.9950   61.3630 N   0  0  0  0  0  0  0  0  0  0  0  0
   43.1580   84.6810   61.2580 C   0  0  0  0  0  0  0  0  0  0  0  0
   44.0790   83.8090   60.8800 N   0  0  0  0  0  0  0  0  0  0  0  0
   46.0360   83.3830   60.2910 H   0  0  0  0  0  0  0  0  0  0  0  0
   46.7150   85.7970   60.4700 H   0  0  0  0  0  0  0  0  0  0  0  0
   45.0040   87.4820   61.1810 H   0  0  0  0  0  0  0  0  0  0  0  0
  1  2  1  0  0  0  0
  2  3  2  0  0  0  0
  2  7  1  0  0  0  0
  3  8  1  0  0  0  0
  4  9  1  0  0  0  0
  4  3  1  0  0  0  0
  5  4  2  0  0  0  0
  6  5  1  0  0  0  0
  6  1  2  0  0  0  0
 10  5  1  0  0  0  0
 11  6  1  0  0  0  0
 12 11  1  0  0  0  0
 12 17  1  0  0  0  0
 13 12  2  0  0  0  0
 14 15  2  0  0  0  0
 14 13  1  0  0  0  0
 15 16  1  0  0  0  0
 16 11  2  0  0  0  0
 18 13  1  0  0  0  0
 19 23  1  0  0  0  0
 19 15  1  0  0  0  0
 20 19  1  0  0  0  0
 21 20  1  0  0  0  0
 21 22  1  0  0  0  0
 22 23  1  0  0  0  0
 23 24  1  0  0  0  0
 25 26  2  0  0  0  0
 25 30  1  0  0  0  0
 26 27  1  0  0  0  0
 27 33  1  0  0  0  0
 27 28  2  0  0  0  0
 29 28  1  0  0  0  0
 29  1  1  0  0  0  0
 30 29  2  0  0  0  0
 31 25  1  0  0  0  0
 32 26  1  0  0  0  0
M  END
>  <minimizedAffinity>
-5.54916143

>  <minimizedRMSD>
0.231104568

$$$$
