
 OpenBabel03212521053D

 33 36  0  0  0  0  0  0  0  0999 V2000
   41.7990   84.2400   61.5520 C   0  0  0  0  0  0  0  0  0  0  0  0
   41.4540   83.9390   62.8640 C   0  0  0  0  0  0  0  0  0  0  0  0
   40.1810   83.5210   63.1990 C   0  0  0  0  0  0  0  0  0  0  0  0
   39.2190   83.3980   62.1990 C   0  0  0  0  0  0  0  0  0  0  0  0
   39.5700   83.7010   60.8830 C   0  0  0  0  0  0  0  0  0  0  0  0
   40.8360   84.1140   60.5630 C   0  0  0  0  0  0  0  0  0  0  0  0
   42.2190   84.0400   63.6350 H   0  0  0  0  0  0  0  0  0  0  0  0
   39.9500   83.2960   64.2340 H   0  0  0  0  0  0  0  0  0  0  0  0
   38.2250   83.0710   62.4620 H   0  0  0  0  0  0  0  0  0  0  0  0
   38.7630   83.5800   60.1600 H   0  0  0  0  0  0  0  0  0  0  0  0
   41.1530   84.4170   59.1840 C   0  0  0  0  0  0  0  0  0  0  0  0
   40.7640   85.7230   58.8430 C   0  0  0  0  0  0  0  0  0  0  0  0
   40.9760   86.2250   57.5570 C   0  0  0  0  0  0  0  0  0  0  0  0
   41.5670   85.4000   56.6690 N   0  0  0  0  0  0  0  0  0  0  0  0
   41.9340   84.1450   57.0150 C   0  0  0  0  0  0  0  0  0  0  0  0
   41.7380   83.6480   58.2430 N   0  0  0  0  0  0  0  0  0  0  0  0
   40.2880   86.4340   59.5030 H   0  0  0  0  0  0  0  0  0  0  0  0
   40.6860   87.2250   57.2700 H   0  0  0  0  0  0  0  0  0  0  0  0
   42.5570   83.2730   56.0800 N   0  0  0  0  0  0  0  0  0  0  0  0
   42.0540   82.1260   55.3490 C   0  0  0  0  0  2  0  0  0  0  0  0
   42.3190   82.5540   53.9210 C   0  0  0  0  0  2  0  0  0  0  0  0
   43.7270   83.1040   54.0260 C   0  0  0  0  0  2  0  0  0  0  0  0
   43.8950   83.2110   55.5270 C   0  0  0  0  0  3  0  0  0  0  0  0
   44.3740   84.2170   55.7050 H   0  0  0  0  0  0  0  0  0  0  0  0
   45.3240   84.1400   60.5860 C   0  0  0  0  0  0  0  0  0  0  0  0
   45.7120   85.4690   60.6910 C   0  0  0  0  0  0  0  0  0  0  0  0
   44.7510   86.4290   61.1010 C   0  0  0  0  0  0  0  0  0  0  0  0
   43.4990   85.9850   61.3680 N   0  0  0  0  0  0  0  0  0  0  0  0
   43.1500   84.6740   61.2560 C   0  0  0  0  0  0  0  0  0  0  0  0
   44.0660   83.8000   60.8710 N   0  0  0  0  0  0  0  0  0  0  0  0
   46.0200   83.3680   60.2770 H   0  0  0  0  0  0  0  0  0  0  0  0
   46.7110   85.7760   60.4700 H   0  0  0  0  0  0  0  0  0  0  0  0
   45.0110   87.4660   61.1940 H   0  0  0  0  0  0  0  0  0  0  0  0
  1  2  1  0  0  0  0
  2  3  2  0  0  0  0
  2  7  1  0  0  0  0
  3  8  1  0  0  0  0
  4  9  1  0  0  0  0
  4  3  1  0  0  0  0
  5  4  2  0  0  0  0
  6  5  1  0  0  0  0
  6  1  2  0  0  0  0
 10  5  1  0  0  0  0
 11  6  1  0  0  0  0
 12 11  1  0  0  0  0
 12 17  1  0  0  0  0
 13 12  2  0  0  0  0
 14 15  2  0  0  0  0
 14 13  1  0  0  0  0
 15 16  1  0  0  0  0
 16 11  2  0  0  0  0
 18 13  1  0  0  0  0
 19 15  1  0  0  0  0
 20 19  1  0  0  0  0
 21 22  1  0  0  0  0
 21 20  1  0  0  0  0
 22 23  1  0  0  0  0
 23 24  1  0  0  0  0
 23 19  1  0  0  0  0
 25 26  2  0  0  0  0
 25 30  1  0  0  0  0
 26 27  1  0  0  0  0
 27 33  1  0  0  0  0
 27 28  2  0  0  0  0
 29 28  1  0  0  0  0
 29  1  1  0  0  0  0
 30 29  2  0  0  0  0
 31 25  1  0  0  0  0
 32 26  1  0  0  0  0
M  END
>  <minimizedAffinity>
-5.64697504

>  <minimizedRMSD>
0.273737282

$$$$
