
 OpenBabel03212520423D

 15 16  0  0  0  0  0  0  0  0999 V2000
   40.0590   82.0200   60.8940 C   0  0  0  0  0  0  0  0  0  0  0  0
   40.1790   82.8280   59.7320 C   0  0  0  0  0  0  0  0  0  0  0  0
   39.5940   84.0920   59.7690 C   0  0  0  0  0  0  0  0  0  0  0  0
   38.9460   84.4840   60.8980 N   0  0  0  0  0  0  0  0  0  0  0  0
   38.8530   83.6880   61.9820 C   0  0  0  0  0  0  0  0  0  0  0  0
   39.4080   82.4640   61.9740 N   0  0  0  0  0  0  0  0  0  0  0  0
   40.7060   82.4780   58.8480 H   0  0  0  0  0  0  0  0  0  0  0  0
   39.6700   84.7320   58.8920 H   0  0  0  0  0  0  0  0  0  0  0  0
   38.3040   84.1590   62.7860 H   0  0  0  0  0  0  0  0  0  0  0  0
   40.6310   80.7320   60.9170 N   0  0  0  0  0  0  0  0  0  0  0  0
   40.6080   79.6650   59.9210 C   0  0  0  0  0  0  0  0  0  0  0  0
   40.3370   78.3940   60.7390 C   0  0  0  0  0  0  0  0  0  0  0  0
   40.6100   78.8190   62.1700 C   0  0  0  0  0  0  0  0  0  0  0  0
   41.4170   80.0810   61.9470 C   0  0  0  0  0  0  0  0  0  0  0  0
   42.4090   79.8730   61.4810 H   0  0  0  0  0  0  0  0  0  0  0  0
  1 10  1  0  0  0  0
  1  6  1  0  0  0  0
  2  3  1  0  0  0  0
  2  1  2  0  0  0  0
  3  4  2  0  0  0  0
  4  5  1  0  0  0  0
  5  9  1  0  0  0  0
  6  5  2  0  0  0  0
  7  2  1  0  0  0  0
  8  3  1  0  0  0  0
 10 14  1  0  0  0  0
 11 12  1  0  0  0  0
 11 10  1  0  0  0  0
 12 13  1  0  0  0  0
 14 13  1  0  0  0  0
 15 14  1  0  0  0  0
M  END
>  <minimizedAffinity>
-4.58140516

>  <minimizedRMSD>
0.131971613

$$$$
