
 OpenBabel03212520203D

 33 35  0  0  1  0  0  0  0  0999 V2000
   43.1010   83.9860   58.5980 Cl  0  0  0  0  0  0  0  0  0  0  0  0
   41.8880   82.7900   58.2130 C   0  0  0  0  0  0  0  0  0  0  0  0
   41.0200   82.2460   59.1500 C   0  0  0  0  0  0  0  0  0  0  0  0
   40.1160   81.3100   58.6880 C   0  0  0  0  0  0  0  0  0  0  0  0
   39.9970   80.8660   57.3920 C   0  0  0  0  0  0  0  0  0  0  0  0
   40.8670   81.4200   56.4950 C   0  0  0  0  0  0  0  0  0  0  0  0
   40.8200   80.9400   54.8010 Cl  0  0  0  0  0  0  0  0  0  0  0  0
   41.8020   82.3720   56.9000 C   0  0  0  0  0  0  0  0  0  0  0  0
   39.4590   80.9140   59.4530 H   0  0  0  0  0  0  0  0  0  0  0  0
   39.2610   80.1270   57.1060 H   0  0  0  0  0  0  0  0  0  0  0  0
   41.9670   82.1740   61.5080 C   0  0  0  0  0  0  0  0  0  0  0  0
   41.1190   82.6870   60.5020 C   0  0  0  0  0  0  0  0  0  0  0  0
   40.2820   83.7370   60.8500 C   0  0  0  0  0  0  0  0  0  0  0  0
   40.3520   84.1830   62.1390 N   0  0  0  0  0  0  0  0  0  0  0  0
   41.1610   83.6850   63.0690 C   0  0  0  0  0  0  0  0  0  0  0  0
   41.9910   82.6530   62.7500 N   0  0  0  0  0  0  0  0  0  0  0  0
   42.6010   81.3580   61.1870 H   0  0  0  0  0  0  0  0  0  0  0  0
   39.5800   84.2220   60.1670 H   0  0  0  0  0  0  0  0  0  0  0  0
   41.0680   84.3260   64.4040 C   0  0  0  0  0  0  0  0  0  0  0  0
   40.7250   85.6460   64.3400 F   0  0  0  0  0  0  0  0  0  0  0  0
   40.1210   83.6600   65.1820 F   0  0  0  0  0  0  0  0  0  0  0  0
   42.3180   84.2690   65.0590 F   0  0  0  0  0  0  0  0  0  0  0  0
   42.6610   82.9020   55.9520 O   0  0  0  0  0  0  0  0  0  0  0  0
   42.3950   84.0790   55.2260 C   0  0  0  0  0  0  0  0  0  0  0  0
   41.9140   83.8960   54.2370 H   0  0  0  0  0  0  0  0  0  0  0  0
   41.7190   84.7210   55.8220 H   0  0  0  0  0  0  0  0  0  0  0  0
   43.6390   84.7370   55.0400 O   0  0  0  0  0  0  0  0  0  0  0  0
   45.0210   86.3930   53.7390 H   0  0  0  0  0  0  0  0  0  0  0  0
   44.4600   85.7850   53.1100 N   0  0  0  0  0  0  0  0  0  0  0  0
   45.3290   85.3760   52.0220 C   0  0  0  0  0  2  0  0  0  0  0  0
   46.0780   84.1630   52.5120 C   0  0  0  0  0  2  0  0  0  0  0  0
   45.4450   83.8330   53.8420 C   0  0  0  0  0  2  0  0  0  0  0  0
   44.1120   84.5440   53.7450 C   0  0  1  0  0  3  0  0  0  0  0  0
  2  1  1  0  0  0  0
  2  3  1  0  0  0  0
  3 12  1  0  0  0  0
  4  3  2  0  0  0  0
  4  9  1  0  0  0  0
  5  4  1  0  0  0  0
  6  8  1  0  0  0  0
  6  5  2  0  0  0  0
  7  6  1  0  0  0  0
  8  2  2  0  0  0  0
 10  5  1  0  0  0  0
 11 16  1  0  0  0  0
 12 13  1  0  0  0  0
 12 11  2  0  0  0  0
 13 14  2  0  0  0  0
 14 15  1  0  0  0  0
 15 19  1  0  0  0  0
 16 15  2  0  0  0  0
 17 11  1  0  0  0  0
 18 13  1  0  0  0  0
 19 22  1  0  0  0  0
 19 21  1  0  0  0  0
 20 19  1  0  0  0  0
 23  8  1  0  0  0  0
 24 26  1  0  0  0  0
 24 23  1  0  0  0  0
 25 24  1  0  0  0  0
 27 24  1  0  0  0  0
 29 28  1  0  0  0  0
 29 33  1  0  0  0  0
 30 31  1  0  0  0  0
 30 29  1  0  0  0  0
 31 32  1  0  0  0  0
 33 32  1  0  0  0  0
 33 27  1  1  0  0  0
M  END
>  <minimizedAffinity>
-4.98431158

>  <minimizedRMSD>
1.23783946

$$$$
