
 OpenBabel03212520193D

 33 35  0  0  1  0  0  0  0  0999 V2000
   43.6770   83.7770   58.6470 Cl  0  0  0  0  0  0  0  0  0  0  0  0
   42.3150   82.7170   58.3800 C   0  0  0  0  0  0  0  0  0  0  0  0
   41.8420   82.3760   57.1200 C   0  0  0  0  0  0  0  0  0  0  0  0
   40.7550   81.5270   57.0750 C   0  0  0  0  0  0  0  0  0  0  0  0
   40.0980   80.9890   58.1570 C   0  0  0  0  0  0  0  0  0  0  0  0
   40.5870   81.3450   59.3820 C   0  0  0  0  0  0  0  0  0  0  0  0
   39.8380   80.7260   60.8510 Cl  0  0  0  0  0  0  0  0  0  0  0  0
   41.6840   82.1990   59.4940 C   0  0  0  0  0  0  0  0  0  0  0  0
   40.4210   81.2880   56.0720 H   0  0  0  0  0  0  0  0  0  0  0  0
   39.2500   80.3280   58.0410 H   0  0  0  0  0  0  0  0  0  0  0  0
   42.3860   84.2280   55.4650 C   0  0  0  0  0  0  0  0  0  0  0  0
   42.5030   82.9180   55.9790 C   0  0  0  0  0  0  0  0  0  0  0  0
   43.3500   82.0450   55.3110 C   0  0  0  0  0  0  0  0  0  0  0  0
   43.9990   82.5330   54.2120 N   0  0  0  0  0  0  0  0  0  0  0  0
   43.8740   83.7730   53.7480 C   0  0  0  0  0  0  0  0  0  0  0  0
   43.0460   84.6470   54.3870 N   0  0  0  0  0  0  0  0  0  0  0  0
   41.7150   84.8690   56.0210 H   0  0  0  0  0  0  0  0  0  0  0  0
   43.5280   81.0080   55.6040 H   0  0  0  0  0  0  0  0  0  0  0  0
   44.6750   84.0840   52.5390 C   0  0  0  0  0  0  0  0  0  0  0  0
   45.9870   83.7270   52.6600 F   0  0  0  0  0  0  0  0  0  0  0  0
   44.1360   83.4230   51.4340 F   0  0  0  0  0  0  0  0  0  0  0  0
   44.6600   85.4740   52.2900 F   0  0  0  0  0  0  0  0  0  0  0  0
   42.1410   82.5290   60.7590 O   0  0  0  0  0  0  0  0  0  0  0  0
   43.1000   81.7790   61.4650 C   0  0  0  0  0  0  0  0  0  0  0  0
   42.9090   80.6800   61.4480 H   0  0  0  0  0  0  0  0  0  0  0  0
   44.0960   81.9600   61.0170 H   0  0  0  0  0  0  0  0  0  0  0  0
   43.0840   82.2480   62.8040 O   0  0  0  0  0  0  0  0  0  0  0  0
   41.0960   81.9790   64.3280 H   0  0  0  0  0  0  0  0  0  0  0  0
   40.8850   82.6120   63.5290 N   0  0  0  0  0  0  0  0  0  0  0  0
   40.1670   83.7530   64.0660 C   0  0  0  0  0  2  0  0  0  0  0  0
   41.2140   84.7250   64.5470 C   0  0  0  0  0  2  0  0  0  0  0  0
   42.5240   84.1350   64.0840 C   0  0  0  0  0  2  0  0  0  0  0  0
   42.0800   83.1950   62.9850 C   0  0  1  0  0  3  0  0  0  0  0  0
  2  1  1  0  0  0  0
  2  8  1  0  0  0  0
  3  2  2  0  0  0  0
  4  3  1  0  0  0  0
  4  5  2  0  0  0  0
  5  6  1  0  0  0  0
  6  8  2  0  0  0  0
  6  7  1  0  0  0  0
  8 23  1  0  0  0  0
  9  4  1  0  0  0  0
 10  5  1  0  0  0  0
 11 12  1  0  0  0  0
 11 17  1  0  0  0  0
 12  3  1  0  0  0  0
 13 18  1  0  0  0  0
 13 12  2  0  0  0  0
 14 13  1  0  0  0  0
 15 14  2  0  0  0  0
 15 16  1  0  0  0  0
 16 11  2  0  0  0  0
 19 20  1  0  0  0  0
 19 15  1  0  0  0  0
 21 19  1  0  0  0  0
 22 19  1  0  0  0  0
 23 24  1  0  0  0  0
 24 27  1  0  0  0  0
 25 24  1  0  0  0  0
 26 24  1  0  0  0  0
 29 30  1  0  0  0  0
 29 28  1  0  0  0  0
 30 31  1  0  0  0  0
 32 31  1  0  0  0  0
 33 27  1  1  0  0  0
 33 29  1  0  0  0  0
 33 32  1  0  0  0  0
M  END
>  <minimizedAffinity>
-4.17750549

>  <minimizedRMSD>
8.470788

$$$$
