
 OpenBabel03212520433D

 18 19  0  0  1  0  0  0  0  0999 V2000
   40.1560   82.0000   60.7970 C   0  0  0  0  0  0  0  0  0  0  0  0
   40.2190   82.8860   59.6900 C   0  0  0  0  0  0  0  0  0  0  0  0
   39.5740   84.1300   59.8000 C   0  0  0  0  0  0  0  0  0  0  0  0
   38.9280   84.4100   60.9590 N   0  0  0  0  0  0  0  0  0  0  0  0
   38.8870   83.5390   62.0020 C   0  0  0  0  0  0  0  0  0  0  0  0
   39.4970   82.3460   61.9170 N   0  0  0  0  0  0  0  0  0  0  0  0
   40.7380   82.6440   58.7780 H   0  0  0  0  0  0  0  0  0  0  0  0
   39.5890   84.8450   58.9880 H   0  0  0  0  0  0  0  0  0  0  0  0
   38.3680   83.7710   62.9230 H   0  0  0  0  0  0  0  0  0  0  0  0
   41.6320   80.4320   61.9180 C   0  0  1  0  0  3  0  0  0  0  0  0
   40.8390   80.6850   60.6790 C   0  0  1  0  0  3  0  0  0  0  0  0
   39.9470   79.6300   60.5300 O   0  0  0  0  0  0  0  0  0  0  0  0
   40.6980   78.5330   60.9520 C   0  0  0  0  0  2  0  0  0  0  0  0
   41.1970   79.0300   62.2950 C   0  0  2  0  0  3  0  0  0  0  0  0
   42.9830   80.3300   61.5670 O   0  0  0  0  0  0  0  0  0  0  0  0
   43.1260   80.5930   60.6140 H   0  0  0  0  0  0  0  0  0  0  0  0
   40.1280   79.0670   63.1600 O   0  0  0  0  0  0  0  0  0  0  0  0
   40.3240   79.5000   64.0270 H   0  0  0  0  0  0  0  0  0  0  0  0
  1  6  1  0  0  0  0
  2  3  1  0  0  0  0
  2  1  2  0  0  0  0
  3  4  2  0  0  0  0
  4  5  1  0  0  0  0
  5  9  1  0  0  0  0
  6  5  2  0  0  0  0
  7  2  1  0  0  0  0
  8  3  1  0  0  0  0
 10 15  1  6  0  0  0
 10 14  1  0  0  0  0
 11  1  1  1  0  0  0
 11 10  1  0  0  0  0
 12 11  1  0  0  0  0
 12 13  1  0  0  0  0
 13 14  1  0  0  0  0
 14 17  1  1  0  0  0
 16 15  1  0  0  0  0
 17 18  1  0  0  0  0
M  END
>  <minimizedAffinity>
-4.8131032

>  <minimizedRMSD>
0.197938785

$$$$
