
 OpenBabel03212520303D

 28 30  0  0  1  0  0  0  0  0999 V2000
   38.6360   73.7400   57.7640 C   0  0  0  0  0  0  0  0  0  0  0  0
   39.1810   74.5850   58.7450 C   0  0  0  0  0  0  0  0  0  0  0  0
   38.9630   75.9650   58.6350 C   0  0  0  0  0  0  0  0  0  0  0  0
   38.2300   76.4120   57.5760 N   0  0  0  0  0  0  0  0  0  0  0  0
   37.7260   75.5800   56.6600 C   0  0  0  0  0  0  0  0  0  0  0  0
   37.9260   74.2440   56.7490 N   0  0  0  0  0  0  0  0  0  0  0  0
   38.7730   72.6660   57.7990 H   0  0  0  0  0  0  0  0  0  0  0  0
   39.3790   76.6240   59.3880 H   0  0  0  0  0  0  0  0  0  0  0  0
   39.9390   74.0270   59.8250 N   0  0  0  0  0  0  0  0  0  0  0  0
   41.2170   73.7770   59.5090 C   0  0  0  0  0  0  0  0  0  0  0  0
   42.0330   73.2290   60.5050 C   0  0  0  0  0  0  0  0  0  0  0  0
   41.5040   72.9690   61.7590 C   0  0  0  0  0  0  0  0  0  0  0  0
   42.1780   72.4800   62.6960 O   0  0  0  0  0  0  0  0  0  0  0  0
   40.2090   73.2510   61.9890 N   0  0  0  0  0  0  0  0  0  0  0  0
   39.3960   73.7870   61.0250 C   0  0  0  0  0  0  0  0  0  0  0  0
   38.1880   74.0510   61.2390 O   0  0  0  0  0  0  0  0  0  0  0  0
   41.6600   73.9690   58.5410 H   0  0  0  0  0  0  0  0  0  0  0  0
   43.0770   73.0080   60.3000 H   0  0  0  0  0  0  0  0  0  0  0  0
   39.7720   73.0660   62.9300 H   0  0  0  0  0  0  0  0  0  0  0  0
   37.5150   75.8340   54.1810 C   0  0  2  0  0  3  0  0  0  0  0  0
   36.9490   76.1470   55.5530 C   0  0  2  0  0  3  0  0  0  0  0  0
   36.9290   77.5260   55.5330 O   0  0  0  0  0  0  0  0  0  0  0  0
   36.2820   77.8210   54.3380 C   0  0  0  0  0  2  0  0  0  0  0  0
   36.6290   76.7540   53.3390 C   0  0  1  0  0  3  0  0  0  0  0  0
   37.3260   74.5020   53.8250 O   0  0  0  0  0  0  0  0  0  0  0  0
   38.1150   73.9690   54.0930 H   0  0  0  0  0  0  0  0  0  0  0  0
   37.2760   77.2180   52.2090 O   0  0  0  0  0  0  0  0  0  0  0  0
   38.0730   77.7530   52.4060 H   0  0  0  0  0  0  0  0  0  0  0  0
  1  7  1  0  0  0  0
  1  2  1  0  0  0  0
  2  9  1  0  0  0  0
  3  2  2  0  0  0  0
  3  8  1  0  0  0  0
  4  3  1  0  0  0  0
  5  6  1  0  0  0  0
  5  4  2  0  0  0  0
  6  1  2  0  0  0  0
  9 15  1  0  0  0  0
 10  9  1  0  0  0  0
 10 11  2  0  0  0  0
 11 12  1  0  0  0  0
 12 14  1  0  0  0  0
 12 13  2  0  0  0  0
 14 19  1  0  0  0  0
 15 16  2  0  0  0  0
 15 14  1  0  0  0  0
 17 10  1  0  0  0  0
 18 11  1  0  0  0  0
 20 25  1  6  0  0  0
 20 21  1  0  0  0  0
 21  5  1  1  0  0  0
 22 21  1  0  0  0  0
 23 22  1  0  0  0  0
 24 27  1  6  0  0  0
 24 20  1  0  0  0  0
 24 23  1  0  0  0  0
 25 26  1  0  0  0  0
 27 28  1  0  0  0  0
M  END
>  <minimizedAffinity>
-6.17565536

$$$$

 OpenBabel03212520303D

 28 30  0  0  1  0  0  0  0  0999 V2000
   41.3660   71.8570   59.8620 C   0  0  0  0  0  0  0  0  0  0  0  0
   41.2210   72.9100   60.7810 C   0  0  0  0  0  0  0  0  0  0  0  0
   41.6340   72.7050   62.1040 C   0  0  0  0  0  0  0  0  0  0  0  0
   42.1570   71.4870   62.4260 N   0  0  0  0  0  0  0  0  0  0  0  0
   42.2810   70.5070   61.5280 C   0  0  0  0  0  0  0  0  0  0  0  0
   41.8880   70.6870   60.2450 N   0  0  0  0  0  0  0  0  0  0  0  0
   41.0650   71.9610   58.8270 H   0  0  0  0  0  0  0  0  0  0  0  0
   41.5260   73.5110   62.8200 H   0  0  0  0  0  0  0  0  0  0  0  0
   40.6610   74.1560   60.3540 N   0  0  0  0  0  0  0  0  0  0  0  0
   41.5300   74.9370   59.6960 C   0  0  0  0  0  0  0  0  0  0  0  0
   41.0680   76.1760   59.2410 C   0  0  0  0  0  0  0  0  0  0  0  0
   39.7540   76.5490   59.4800 C   0  0  0  0  0  0  0  0  0  0  0  0
   39.2760   77.6440   59.1000 O   0  0  0  0  0  0  0  0  0  0  0  0
   38.9500   75.7040   60.1480 N   0  0  0  0  0  0  0  0  0  0  0  0
   39.3870   74.4870   60.6020 C   0  0  0  0  0  0  0  0  0  0  0  0
   38.6370   73.6960   61.2260 O   0  0  0  0  0  0  0  0  0  0  0  0
   42.5600   74.6750   59.4920 H   0  0  0  0  0  0  0  0  0  0  0  0
   41.7320   76.8460   58.7020 H   0  0  0  0  0  0  0  0  0  0  0  0
   37.9460   75.9530   60.3490 H   0  0  0  0  0  0  0  0  0  0  0  0
   41.8540   68.0910   62.0100 C   0  0  2  0  0  3  0  0  0  0  0  0
   42.8550   69.2290   61.9610 C   0  0  2  0  0  3  0  0  0  0  0  0
   43.3240   69.2380   63.2580 O   0  0  0  0  0  0  0  0  0  0  0  0
   43.6660   67.9090   63.4850 C   0  0  0  0  0  2  0  0  0  0  0  0
   42.7180   67.0400   62.7100 C   0  0  1  0  0  3  0  0  0  0  0  0
   41.4830   67.6610   60.7390 O   0  0  0  0  0  0  0  0  0  0  0  0
   40.6720   68.1460   60.4460 H   0  0  0  0  0  0  0  0  0  0  0  0
   41.9690   66.1770   63.4870 O   0  0  0  0  0  0  0  0  0  0  0  0
   41.4840   66.6220   64.2120 H   0  0  0  0  0  0  0  0  0  0  0  0
  1  6  2  0  0  0  0
  1  2  1  0  0  0  0
  2  3  2  0  0  0  0
  3  4  1  0  0  0  0
  3  8  1  0  0  0  0
  5  4  2  0  0  0  0
  6  5  1  0  0  0  0
  7  1  1  0  0  0  0
  9 15  1  0  0  0  0
  9  2  1  0  0  0  0
 10  9  1  0  0  0  0
 11 12  1  0  0  0  0
 11 10  2  0  0  0  0
 12 14  1  0  0  0  0
 13 12  2  0  0  0  0
 14 19  1  0  0  0  0
 14 15  1  0  0  0  0
 15 16  2  0  0  0  0
 17 10  1  0  0  0  0
 18 11  1  0  0  0  0
 20 25  1  6  0  0  0
 20 24  1  0  0  0  0
 21  5  1  1  0  0  0
 21 20  1  0  0  0  0
 21 22  1  0  0  0  0
 22 23  1  0  0  0  0
 24 23  1  0  0  0  0
 24 27  1  1  0  0  0
 26 25  1  0  0  0  0
 27 28  1  0  0  0  0
M  END
>  <minimizedAffinity>
-5.98014545

$$$$

 OpenBabel03212520303D

 28 30  0  0  1  0  0  0  0  0999 V2000
   39.3320   72.6310   58.9860 C   0  0  0  0  0  0  0  0  0  0  0  0
   40.2720   73.1690   59.8810 C   0  0  0  0  0  0  0  0  0  0  0  0
   40.3940   74.5620   59.9670 C   0  0  0  0  0  0  0  0  0  0  0  0
   39.5880   75.3220   59.1730 N   0  0  0  0  0  0  0  0  0  0  0  0
   38.7030   74.7790   58.3320 C   0  0  0  0  0  0  0  0  0  0  0  0
   38.5720   73.4350   58.2350 N   0  0  0  0  0  0  0  0  0  0  0  0
   39.1950   71.5620   58.8790 H   0  0  0  0  0  0  0  0  0  0  0  0
   41.1160   74.9850   60.6550 H   0  0  0  0  0  0  0  0  0  0  0  0
   41.0780   72.2930   60.6780 N   0  0  0  0  0  0  0  0  0  0  0  0
   40.7080   72.2490   61.9650 C   0  0  0  0  0  0  0  0  0  0  0  0
   41.4420   71.4180   62.8200 C   0  0  0  0  0  0  0  0  0  0  0  0
   42.5040   70.6840   62.3170 C   0  0  0  0  0  0  0  0  0  0  0  0
   43.2020   69.9200   63.0260 O   0  0  0  0  0  0  0  0  0  0  0  0
   42.8060   70.7880   61.0110 N   0  0  0  0  0  0  0  0  0  0  0  0
   42.0990   71.5980   60.1610 C   0  0  0  0  0  0  0  0  0  0  0  0
   42.3800   71.6970   58.9410 O   0  0  0  0  0  0  0  0  0  0  0  0
   39.8850   72.8080   62.3890 H   0  0  0  0  0  0  0  0  0  0  0  0
   41.1820   71.3460   63.8720 H   0  0  0  0  0  0  0  0  0  0  0  0
   43.6070   70.2460   60.5930 H   0  0  0  0  0  0  0  0  0  0  0  0
   37.2970   75.0110   56.2780 C   0  0  2  0  0  3  0  0  0  0  0  0
   37.8760   75.6710   57.5140 C   0  0  2  0  0  3  0  0  0  0  0  0
   38.5710   76.7270   56.9620 O   0  0  0  0  0  0  0  0  0  0  0  0
   37.6340   77.3260   56.1260 C   0  0  0  0  0  2  0  0  0  0  0  0
   36.7330   76.2530   55.5830 C   0  0  1  0  0  3  0  0  0  0  0  0
   36.2790   74.1130   56.5870 O   0  0  0  0  0  0  0  0  0  0  0  0
   36.6570   73.2050   56.6960 H   0  0  0  0  0  0  0  0  0  0  0  0
   36.7480   76.1380   54.2060 O   0  0  0  0  0  0  0  0  0  0  0  0
   37.6470   76.0300   53.8310 H   0  0  0  0  0  0  0  0  0  0  0  0
  1  2  1  0  0  0  0
  2  3  2  0  0  0  0
  2  9  1  0  0  0  0
  3  8  1  0  0  0  0
  4  3  1  0  0  0  0
  5  4  2  0  0  0  0
  6  5  1  0  0  0  0
  6  1  2  0  0  0  0
  7  1  1  0  0  0  0
  9 10  1  0  0  0  0
 10 17  1  0  0  0  0
 10 11  2  0  0  0  0
 11 18  1  0  0  0  0
 12 11  1  0  0  0  0
 12 13  2  0  0  0  0
 14 12  1  0  0  0  0
 15  9  1  0  0  0  0
 15 14  1  0  0  0  0
 16 15  2  0  0  0  0
 19 14  1  0  0  0  0
 20 25  1  1  0  0  0
 20 21  1  0  0  0  0
 21  5  1  6  0  0  0
 22 21  1  0  0  0  0
 23 22  1  0  0  0  0
 24 27  1  6  0  0  0
 24 23  1  0  0  0  0
 24 20  1  0  0  0  0
 25 26  1  0  0  0  0
 28 27  1  0  0  0  0
M  END
>  <minimizedAffinity>
-5.86210585

$$$$

 OpenBabel03212520303D

 28 30  0  0  1  0  0  0  0  0999 V2000
   40.8160   73.2900   58.9250 C   0  0  0  0  0  0  0  0  0  0  0  0
   39.6330   73.8970   59.3780 C   0  0  0  0  0  0  0  0  0  0  0  0
   39.2400   73.6900   60.7060 C   0  0  0  0  0  0  0  0  0  0  0  0
   40.0340   72.9060   61.4900 N   0  0  0  0  0  0  0  0  0  0  0  0
   41.1540   72.3430   61.0290 C   0  0  0  0  0  0  0  0  0  0  0  0
   41.5490   72.5320   59.7480 N   0  0  0  0  0  0  0  0  0  0  0  0
   41.1680   73.4160   57.9090 H   0  0  0  0  0  0  0  0  0  0  0  0
   38.3290   74.1550   61.0640 H   0  0  0  0  0  0  0  0  0  0  0  0
   38.8600   74.7050   58.4830 N   0  0  0  0  0  0  0  0  0  0  0  0
   38.0320   73.9980   57.7010 C   0  0  0  0  0  0  0  0  0  0  0  0
   37.2380   74.7070   56.7940 C   0  0  0  0  0  0  0  0  0  0  0  0
   37.3320   76.0890   56.7330 C   0  0  0  0  0  0  0  0  0  0  0  0
   36.6500   76.7850   55.9450 O   0  0  0  0  0  0  0  0  0  0  0  0
   38.1900   76.7190   57.5550 N   0  0  0  0  0  0  0  0  0  0  0  0
   38.9750   76.0390   58.4490 C   0  0  0  0  0  0  0  0  0  0  0  0
   39.7770   76.6260   59.2170 O   0  0  0  0  0  0  0  0  0  0  0  0
   37.9350   72.9210   57.7240 H   0  0  0  0  0  0  0  0  0  0  0  0
   36.5500   74.1810   56.1380 H   0  0  0  0  0  0  0  0  0  0  0  0
   38.2890   77.7670   57.5380 H   0  0  0  0  0  0  0  0  0  0  0  0
   42.7220   70.4080   61.2520 C   0  0  2  0  0  3  0  0  0  0  0  0
   41.9480   71.5150   61.9420 C   0  0  2  0  0  3  0  0  0  0  0  0
   41.1920   70.7990   62.8470 O   0  0  0  0  0  0  0  0  0  0  0  0
   42.1310   69.9920   63.4810 C   0  0  0  0  0  2  0  0  0  0  0  0
   43.2020   69.6430   62.4870 C   0  0  1  0  0  3  0  0  0  0  0  0
   43.8010   70.8970   60.5220 O   0  0  0  0  0  0  0  0  0  0  0  0
   43.5240   71.0640   59.5870 H   0  0  0  0  0  0  0  0  0  0  0  0
   43.3380   68.2890   62.2470 O   0  0  0  0  0  0  0  0  0  0  0  0
   42.5000   67.8500   61.9930 H   0  0  0  0  0  0  0  0  0  0  0  0
  1  2  2  0  0  0  0
  1  6  1  0  0  0  0
  2  3  1  0  0  0  0
  3  8  1  0  0  0  0
  3  4  2  0  0  0  0
  5  4  1  0  0  0  0
  6  5  2  0  0  0  0
  7  1  1  0  0  0  0
  9  2  1  0  0  0  0
 10 17  1  0  0  0  0
 10  9  1  0  0  0  0
 11 10  2  0  0  0  0
 12 11  1  0  0  0  0
 12 14  1  0  0  0  0
 13 12  2  0  0  0  0
 14 15  1  0  0  0  0
 15  9  1  0  0  0  0
 15 16  2  0  0  0  0
 18 11  1  0  0  0  0
 19 14  1  0  0  0  0
 20 25  1  1  0  0  0
 20 21  1  0  0  0  0
 20 24  1  0  0  0  0
 21  5  1  6  0  0  0
 21 22  1  0  0  0  0
 22 23  1  0  0  0  0
 24 27  1  6  0  0  0
 24 23  1  0  0  0  0
 26 25  1  0  0  0  0
 28 27  1  0  0  0  0
M  END
>  <minimizedAffinity>
-5.79508877

$$$$

 OpenBabel03212520303D

 28 30  0  0  1  0  0  0  0  0999 V2000
   40.6060   73.0830   58.6360 C   0  0  0  0  0  0  0  0  0  0  0  0
   39.4100   73.7070   59.0280 C   0  0  0  0  0  0  0  0  0  0  0  0
   39.0240   73.6300   60.3720 C   0  0  0  0  0  0  0  0  0  0  0  0
   39.8360   72.9490   61.2300 N   0  0  0  0  0  0  0  0  0  0  0  0
   40.9680   72.3670   60.8250 C   0  0  0  0  0  0  0  0  0  0  0  0
   41.3570   72.4300   59.5300 N   0  0  0  0  0  0  0  0  0  0  0  0
   40.9540   73.1110   57.6110 H   0  0  0  0  0  0  0  0  0  0  0  0
   38.1040   74.1090   60.6830 H   0  0  0  0  0  0  0  0  0  0  0  0
   38.6190   74.4020   58.0570 N   0  0  0  0  0  0  0  0  0  0  0  0
   38.7770   75.7320   58.0900 C   0  0  0  0  0  0  0  0  0  0  0  0
   38.0400   76.4930   57.1750 C   0  0  0  0  0  0  0  0  0  0  0  0
   37.1890   75.8580   56.2840 C   0  0  0  0  0  0  0  0  0  0  0  0
   36.5010   76.4780   55.4390 O   0  0  0  0  0  0  0  0  0  0  0  0
   37.0910   74.5180   56.3200 N   0  0  0  0  0  0  0  0  0  0  0  0
   37.8050   73.7580   57.2100 C   0  0  0  0  0  0  0  0  0  0  0  0
   37.7150   72.5060   57.2460 O   0  0  0  0  0  0  0  0  0  0  0  0
   39.4320   76.2570   58.7720 H   0  0  0  0  0  0  0  0  0  0  0  0
   38.1320   77.5750   57.1600 H   0  0  0  0  0  0  0  0  0  0  0  0
   36.4550   74.0010   55.6590 H   0  0  0  0  0  0  0  0  0  0  0  0
   42.6620   70.5710   61.2230 C   0  0  2  0  0  3  0  0  0  0  0  0
   41.7820   71.6550   61.8160 C   0  0  2  0  0  3  0  0  0  0  0  0
   41.0440   70.9380   62.7340 O   0  0  0  0  0  0  0  0  0  0  0  0
   42.0120   70.2420   63.4510 C   0  0  0  0  0  2  0  0  0  0  0  0
   43.1450   69.9170   62.5200 C   0  0  1  0  0  3  0  0  0  0  0  0
   43.7330   71.0960   60.5050 O   0  0  0  0  0  0  0  0  0  0  0  0
   43.4840   71.1880   59.5520 H   0  0  0  0  0  0  0  0  0  0  0  0
   43.3900   68.5660   62.3680 O   0  0  0  0  0  0  0  0  0  0  0  0
   42.5980   68.0500   62.1100 H   0  0  0  0  0  0  0  0  0  0  0  0
  1  2  2  0  0  0  0
  1  6  1  0  0  0  0
  2  3  1  0  0  0  0
  3  8  1  0  0  0  0
  3  4  2  0  0  0  0
  5  4  1  0  0  0  0
  6  5  2  0  0  0  0
  7  1  1  0  0  0  0
  9 10  1  0  0  0  0
  9  2  1  0  0  0  0
 10 17  1  0  0  0  0
 11 10  2  0  0  0  0
 12 14  1  0  0  0  0
 12 11  1  0  0  0  0
 13 12  2  0  0  0  0
 14 15  1  0  0  0  0
 15 16  2  0  0  0  0
 15  9  1  0  0  0  0
 18 11  1  0  0  0  0
 19 14  1  0  0  0  0
 20 25  1  1  0  0  0
 20 21  1  0  0  0  0
 20 24  1  0  0  0  0
 21  5  1  6  0  0  0
 21 22  1  0  0  0  0
 22 23  1  0  0  0  0
 24 27  1  6  0  0  0
 24 23  1  0  0  0  0
 26 25  1  0  0  0  0
 28 27  1  0  0  0  0
M  END
>  <minimizedAffinity>
-5.66434956

$$$$

 OpenBabel03212520303D

 28 30  0  0  1  0  0  0  0  0999 V2000
   41.3730   71.3920   60.0590 C   0  0  0  0  0  0  0  0  0  0  0  0
   41.4440   72.4630   60.9650 C   0  0  0  0  0  0  0  0  0  0  0  0
   42.0010   72.2330   62.2300 C   0  0  0  0  0  0  0  0  0  0  0  0
   42.4450   70.9750   62.5110 N   0  0  0  0  0  0  0  0  0  0  0  0
   42.3630   69.9780   61.6260 C   0  0  0  0  0  0  0  0  0  0  0  0
   41.8270   70.1810   60.3990 N   0  0  0  0  0  0  0  0  0  0  0  0
   40.9530   71.5120   59.0680 H   0  0  0  0  0  0  0  0  0  0  0  0
   42.0610   73.0540   62.9350 H   0  0  0  0  0  0  0  0  0  0  0  0
   40.9520   73.7520   60.5830 N   0  0  0  0  0  0  0  0  0  0  0  0
   39.6560   73.9380   60.8700 C   0  0  0  0  0  0  0  0  0  0  0  0
   39.0900   75.1710   60.5300 C   0  0  0  0  0  0  0  0  0  0  0  0
   39.8710   76.1410   59.9210 C   0  0  0  0  0  0  0  0  0  0  0  0
   39.4280   77.2660   59.5910 O   0  0  0  0  0  0  0  0  0  0  0  0
   41.1640   75.8700   59.6700 N   0  0  0  0  0  0  0  0  0  0  0  0
   41.7340   74.6670   59.9950 C   0  0  0  0  0  0  0  0  0  0  0  0
   42.9410   74.4130   59.7610 O   0  0  0  0  0  0  0  0  0  0  0  0
   39.0200   73.2030   61.3440 H   0  0  0  0  0  0  0  0  0  0  0  0
   38.0430   75.3720   60.7410 H   0  0  0  0  0  0  0  0  0  0  0  0
   41.7890   76.5820   59.2080 H   0  0  0  0  0  0  0  0  0  0  0  0
   41.7960   67.5820   62.0600 C   0  0  2  0  0  3  0  0  0  0  0  0
   42.8650   68.6560   62.0130 C   0  0  2  0  0  3  0  0  0  0  0  0
   43.3660   68.6020   63.2970 O   0  0  0  0  0  0  0  0  0  0  0  0
   43.6290   67.2490   63.4830 C   0  0  0  0  0  2  0  0  0  0  0  0
   42.6090   66.4610   62.7110 C   0  0  1  0  0  3  0  0  0  0  0  0
   41.3680   67.2090   60.7890 O   0  0  0  0  0  0  0  0  0  0  0  0
   40.5820   67.7510   60.5290 H   0  0  0  0  0  0  0  0  0  0  0  0
   41.8270   65.6260   63.4860 O   0  0  0  0  0  0  0  0  0  0  0  0
   41.3890   66.0810   64.2340 H   0  0  0  0  0  0  0  0  0  0  0  0
  1  6  2  0  0  0  0
  1  2  1  0  0  0  0
  2  3  2  0  0  0  0
  3  4  1  0  0  0  0
  3  8  1  0  0  0  0
  5  4  2  0  0  0  0
  6  5  1  0  0  0  0
  7  1  1  0  0  0  0
  9 10  1  0  0  0  0
  9  2  1  0  0  0  0
 10 17  1  0  0  0  0
 11 18  1  0  0  0  0
 11 10  2  0  0  0  0
 12 11  1  0  0  0  0
 13 12  2  0  0  0  0
 14 12  1  0  0  0  0
 14 15  1  0  0  0  0
 15  9  1  0  0  0  0
 16 15  2  0  0  0  0
 19 14  1  0  0  0  0
 20 25  1  6  0  0  0
 20 24  1  0  0  0  0
 21  5  1  1  0  0  0
 21 20  1  0  0  0  0
 21 22  1  0  0  0  0
 22 23  1  0  0  0  0
 24 23  1  0  0  0  0
 24 27  1  1  0  0  0
 26 25  1  0  0  0  0
 27 28  1  0  0  0  0
M  END
>  <minimizedAffinity>
-5.61694574

$$$$

 OpenBabel03212520303D

 28 30  0  0  1  0  0  0  0  0999 V2000
   41.7840   71.1320   58.9330 C   0  0  0  0  0  0  0  0  0  0  0  0
   42.2700   71.9220   59.9870 C   0  0  0  0  0  0  0  0  0  0  0  0
   42.5660   71.3020   61.2080 C   0  0  0  0  0  0  0  0  0  0  0  0
   42.3650   69.9560   61.3030 N   0  0  0  0  0  0  0  0  0  0  0  0
   41.9020   69.2330   60.2800 C   0  0  0  0  0  0  0  0  0  0  0  0
   41.6100   69.8160   59.0930 N   0  0  0  0  0  0  0  0  0  0  0  0
   41.5390   71.5580   57.9680 H   0  0  0  0  0  0  0  0  0  0  0  0
   42.9420   71.9040   62.0260 H   0  0  0  0  0  0  0  0  0  0  0  0
   42.4500   73.3300   59.7970 N   0  0  0  0  0  0  0  0  0  0  0  0
   41.3040   74.0250   59.8180 C   0  0  0  0  0  0  0  0  0  0  0  0
   41.3850   75.4100   59.6390 C   0  0  0  0  0  0  0  0  0  0  0  0
   42.6210   76.0060   59.4490 C   0  0  0  0  0  0  0  0  0  0  0  0
   42.7650   77.2410   59.2830 O   0  0  0  0  0  0  0  0  0  0  0  0
   43.7210   75.2330   59.4420 N   0  0  0  0  0  0  0  0  0  0  0  0
   43.6600   73.8750   59.6150 C   0  0  0  0  0  0  0  0  0  0  0  0
   44.6860   73.1520   59.6080 O   0  0  0  0  0  0  0  0  0  0  0  0
   40.3240   73.5910   59.9650 H   0  0  0  0  0  0  0  0  0  0  0  0
   40.4850   76.0190   59.6480 H   0  0  0  0  0  0  0  0  0  0  0  0
   44.6780   75.6500   59.3000 H   0  0  0  0  0  0  0  0  0  0  0  0
   41.9090   67.3310   61.9030 C   0  0  2  0  0  3  0  0  0  0  0  0
   41.7160   67.7910   60.4710 C   0  0  2  0  0  3  0  0  0  0  0  0
   42.6420   67.0160   59.8050 O   0  0  0  0  0  0  0  0  0  0  0  0
   42.3650   65.7280   60.2530 C   0  0  0  0  0  2  0  0  0  0  0  0
   41.8850   65.8170   61.6740 C   0  0  1  0  0  3  0  0  0  0  0  0
   40.8600   67.7230   62.7290 O   0  0  0  0  0  0  0  0  0  0  0  0
   41.0740   68.5920   63.1510 H   0  0  0  0  0  0  0  0  0  0  0  0
   42.6700   65.1360   62.5850 O   0  0  0  0  0  0  0  0  0  0  0  0
   43.6180   65.3780   62.5440 H   0  0  0  0  0  0  0  0  0  0  0  0
  1  6  2  0  0  0  0
  1  2  1  0  0  0  0
  2  3  2  0  0  0  0
  3  4  1  0  0  0  0
  3  8  1  0  0  0  0
  5  4  2  0  0  0  0
  6  5  1  0  0  0  0
  7  1  1  0  0  0  0
  9 10  1  0  0  0  0
  9  2  1  0  0  0  0
 10 17  1  0  0  0  0
 11 18  1  0  0  0  0
 11 10  2  0  0  0  0
 12 11  1  0  0  0  0
 13 12  2  0  0  0  0
 14 12  1  0  0  0  0
 14 15  1  0  0  0  0
 15  9  1  0  0  0  0
 16 15  2  0  0  0  0
 19 14  1  0  0  0  0
 20 25  1  1  0  0  0
 21  5  1  1  0  0  0
 21 20  1  0  0  0  0
 22 23  1  0  0  0  0
 22 21  1  0  0  0  0
 23 24  1  0  0  0  0
 24 20  1  0  0  0  0
 24 27  1  1  0  0  0
 25 26  1  0  0  0  0
 28 27  1  0  0  0  0
M  END
>  <minimizedAffinity>
-5.52058029

$$$$

 OpenBabel03212520303D

 28 30  0  0  1  0  0  0  0  0999 V2000
   41.7520   72.4710   62.3530 C   0  0  0  0  0  0  0  0  0  0  0  0
   41.4480   72.6830   60.9980 C   0  0  0  0  0  0  0  0  0  0  0  0
   41.4680   71.5850   60.1280 C   0  0  0  0  0  0  0  0  0  0  0  0
   41.7830   70.3650   60.6500 N   0  0  0  0  0  0  0  0  0  0  0  0
   42.0670   70.1980   61.9440 C   0  0  0  0  0  0  0  0  0  0  0  0
   42.0540   71.2470   62.8000 N   0  0  0  0  0  0  0  0  0  0  0  0
   41.7520   73.2830   63.0700 H   0  0  0  0  0  0  0  0  0  0  0  0
   41.2330   71.7390   59.0820 H   0  0  0  0  0  0  0  0  0  0  0  0
   41.1270   74.0010   60.5380 N   0  0  0  0  0  0  0  0  0  0  0  0
   39.8950   74.4020   60.8780 C   0  0  0  0  0  0  0  0  0  0  0  0
   39.4950   75.6790   60.4690 C   0  0  0  0  0  0  0  0  0  0  0  0
   40.3690   76.4710   59.7410 C   0  0  0  0  0  0  0  0  0  0  0  0
   40.0760   77.6240   59.3440 O   0  0  0  0  0  0  0  0  0  0  0  0
   41.5890   75.9890   59.4440 N   0  0  0  0  0  0  0  0  0  0  0  0
   41.9950   74.7410   59.8360 C   0  0  0  0  0  0  0  0  0  0  0  0
   43.1330   74.2890   59.5580 O   0  0  0  0  0  0  0  0  0  0  0  0
   39.1890   73.8100   61.4460 H   0  0  0  0  0  0  0  0  0  0  0  0
   38.5060   76.0520   60.7190 H   0  0  0  0  0  0  0  0  0  0  0  0
   42.2800   76.5620   58.8920 H   0  0  0  0  0  0  0  0  0  0  0  0
   42.3930   67.7970   61.3290 C   0  0  2  0  0  3  0  0  0  0  0  0
   42.3960   68.8500   62.4190 C   0  0  2  0  0  3  0  0  0  0  0  0
   41.4760   68.3310   63.3060 O   0  0  0  0  0  0  0  0  0  0  0  0
   41.9080   67.0220   63.4870 C   0  0  0  0  0  2  0  0  0  0  0  0
   42.5240   66.5460   62.2020 C   0  0  1  0  0  3  0  0  0  0  0  0
   43.4850   67.9200   60.4750 O   0  0  0  0  0  0  0  0  0  0  0  0
   43.2420   68.4870   59.7010 H   0  0  0  0  0  0  0  0  0  0  0  0
   41.9000   65.4470   61.6430 O   0  0  0  0  0  0  0  0  0  0  0  0
   40.9360   65.5640   61.5190 H   0  0  0  0  0  0  0  0  0  0  0  0
  1  6  1  0  0  0  0
  1  7  1  0  0  0  0
  2  1  2  0  0  0  0
  3  4  2  0  0  0  0
  3  2  1  0  0  0  0
  4  5  1  0  0  0  0
  5  6  2  0  0  0  0
  8  3  1  0  0  0  0
  9 10  1  0  0  0  0
  9  2  1  0  0  0  0
 10 17  1  0  0  0  0
 11 18  1  0  0  0  0
 11 10  2  0  0  0  0
 12 11  1  0  0  0  0
 13 12  2  0  0  0  0
 14 12  1  0  0  0  0
 14 15  1  0  0  0  0
 15  9  1  0  0  0  0
 16 15  2  0  0  0  0
 19 14  1  0  0  0  0
 20 25  1  6  0  0  0
 20 24  1  0  0  0  0
 20 21  1  0  0  0  0
 21  5  1  6  0  0  0
 21 22  1  0  0  0  0
 22 23  1  0  0  0  0
 24 27  1  6  0  0  0
 24 23  1  0  0  0  0
 26 25  1  0  0  0  0
 28 27  1  0  0  0  0
M  END
>  <minimizedAffinity>
-5.51007795

$$$$

 OpenBabel03212520303D

 28 30  0  0  1  0  0  0  0  0999 V2000
   42.0860   72.9030   59.0660 C   0  0  0  0  0  0  0  0  0  0  0  0
   41.2700   72.3370   60.0590 C   0  0  0  0  0  0  0  0  0  0  0  0
   39.9240   72.7210   60.1200 C   0  0  0  0  0  0  0  0  0  0  0  0
   39.4800   73.6290   59.2040 N   0  0  0  0  0  0  0  0  0  0  0  0
   40.2830   74.1490   58.2720 C   0  0  0  0  0  0  0  0  0  0  0  0
   41.5860   73.7890   58.1990 N   0  0  0  0  0  0  0  0  0  0  0  0
   43.1330   72.6410   58.9730 H   0  0  0  0  0  0  0  0  0  0  0  0
   39.2870   72.2890   60.8820 H   0  0  0  0  0  0  0  0  0  0  0  0
   41.8220   71.3890   60.9800 N   0  0  0  0  0  0  0  0  0  0  0  0
   42.1410   70.2160   60.4150 C   0  0  0  0  0  0  0  0  0  0  0  0
   42.6870   69.2280   61.2410 C   0  0  0  0  0  0  0  0  0  0  0  0
   42.8780   69.4890   62.5890 C   0  0  0  0  0  0  0  0  0  0  0  0
   43.3630   68.6500   63.3850 O   0  0  0  0  0  0  0  0  0  0  0  0
   42.5300   70.6950   63.0730 N   0  0  0  0  0  0  0  0  0  0  0  0
   41.9930   71.6720   62.2780 C   0  0  0  0  0  0  0  0  0  0  0  0
   41.6670   72.7980   62.7280 O   0  0  0  0  0  0  0  0  0  0  0  0
   42.0050   69.9810   59.3680 H   0  0  0  0  0  0  0  0  0  0  0  0
   42.9630   68.2600   60.8320 H   0  0  0  0  0  0  0  0  0  0  0  0
   42.6600   70.9290   64.0920 H   0  0  0  0  0  0  0  0  0  0  0  0
   38.3970   75.7120   57.7690 C   0  0  2  0  0  3  0  0  0  0  0  0
   39.7210   75.1190   57.3270 C   0  0  2  0  0  3  0  0  0  0  0  0
   39.3860   74.5790   56.1040 O   0  0  0  0  0  0  0  0  0  0  0  0
   38.7460   75.6280   55.4530 C   0  0  0  0  0  2  0  0  0  0  0  0
   38.0210   76.4490   56.4820 C   0  0  1  0  0  3  0  0  0  0  0  0
   38.5470   76.6060   58.8250 O   0  0  0  0  0  0  0  0  0  0  0  0
   38.4350   76.1300   59.6850 H   0  0  0  0  0  0  0  0  0  0  0  0
   36.6530   76.5180   56.2960 O   0  0  0  0  0  0  0  0  0  0  0  0
   36.2240   75.6410   56.2150 H   0  0  0  0  0  0  0  0  0  0  0  0
  1  2  1  0  0  0  0
  2  3  2  0  0  0  0
  2  9  1  0  0  0  0
  3  8  1  0  0  0  0
  4  3  1  0  0  0  0
  5  4  2  0  0  0  0
  6  5  1  0  0  0  0
  6  1  2  0  0  0  0
  7  1  1  0  0  0  0
  9 15  1  0  0  0  0
 10  9  1  0  0  0  0
 10 11  2  0  0  0  0
 11 12  1  0  0  0  0
 12 14  1  0  0  0  0
 12 13  2  0  0  0  0
 14 19  1  0  0  0  0
 15 16  2  0  0  0  0
 15 14  1  0  0  0  0
 17 10  1  0  0  0  0
 18 11  1  0  0  0  0
 20 25  1  1  0  0  0
 21 20  1  0  0  0  0
 21  5  1  1  0  0  0
 22 21  1  0  0  0  0
 23 22  1  0  0  0  0
 23 24  1  0  0  0  0
 24 27  1  6  0  0  0
 24 20  1  0  0  0  0
 25 26  1  0  0  0  0
 28 27  1  0  0  0  0
M  END
>  <minimizedAffinity>
-5.48528957

$$$$
