
 OpenBabel03212520433D

 18 19  0  0  1  0  0  0  0  0999 V2000
   40.1570   82.0000   60.7970 C   0  0  0  0  0  0  0  0  0  0  0  0
   40.2190   82.8860   59.6900 C   0  0  0  0  0  0  0  0  0  0  0  0
   39.5740   84.1300   59.7990 C   0  0  0  0  0  0  0  0  0  0  0  0
   38.9280   84.4100   60.9590 N   0  0  0  0  0  0  0  0  0  0  0  0
   38.8880   83.5390   62.0020 C   0  0  0  0  0  0  0  0  0  0  0  0
   39.4980   82.3470   61.9170 N   0  0  0  0  0  0  0  0  0  0  0  0
   40.7370   82.6440   58.7770 H   0  0  0  0  0  0  0  0  0  0  0  0
   39.5880   84.8450   58.9880 H   0  0  0  0  0  0  0  0  0  0  0  0
   38.3700   83.7720   62.9240 H   0  0  0  0  0  0  0  0  0  0  0  0
   41.6310   80.4330   61.9190 C   0  0  1  0  0  3  0  0  0  0  0  0
   40.8400   80.6860   60.6800 C   0  0  1  0  0  3  0  0  0  0  0  0
   39.9490   79.6300   60.5290 O   0  0  0  0  0  0  0  0  0  0  0  0
   40.6990   78.5320   60.9520 C   0  0  0  0  0  2  0  0  0  0  0  0
   41.1980   79.0310   62.2950 C   0  0  2  0  0  3  0  0  0  0  0  0
   42.9840   80.3310   61.5700 O   0  0  0  0  0  0  0  0  0  0  0  0
   43.1280   80.5950   60.6160 H   0  0  0  0  0  0  0  0  0  0  0  0
   40.1280   79.0670   63.1590 O   0  0  0  0  0  0  0  0  0  0  0  0
   40.3220   79.4990   64.0270 H   0  0  0  0  0  0  0  0  0  0  0  0
  1  6  1  0  0  0  0
  2  3  1  0  0  0  0
  2  1  2  0  0  0  0
  3  4  2  0  0  0  0
  4  5  1  0  0  0  0
  5  9  1  0  0  0  0
  6  5  2  0  0  0  0
  7  2  1  0  0  0  0
  8  3  1  0  0  0  0
 10 15  1  6  0  0  0
 10 14  1  0  0  0  0
 11  1  1  1  0  0  0
 11 10  1  0  0  0  0
 12 11  1  0  0  0  0
 12 13  1  0  0  0  0
 13 14  1  0  0  0  0
 14 17  1  1  0  0  0
 16 15  1  0  0  0  0
 17 18  1  0  0  0  0
M  END
>  <minimizedAffinity>
-4.81302691

>  <minimizedRMSD>
0.250704408

$$$$
