
 OpenBabel03212520423D

 18 19  0  0  1  0  0  0  0  0999 V2000
   40.3220   82.1310   60.8190 C   0  0  0  0  0  0  0  0  0  0  0  0
   40.3310   83.0300   59.7210 C   0  0  0  0  0  0  0  0  0  0  0  0
   39.5690   84.2070   59.8220 C   0  0  0  0  0  0  0  0  0  0  0  0
   38.8690   84.4140   60.9650 N   0  0  0  0  0  0  0  0  0  0  0  0
   38.8820   83.5320   62.0000 C   0  0  0  0  0  0  0  0  0  0  0  0
   39.6030   82.4020   61.9230 N   0  0  0  0  0  0  0  0  0  0  0  0
   40.8950   82.8470   58.8210 H   0  0  0  0  0  0  0  0  0  0  0  0
   39.5380   84.9290   59.0170 H   0  0  0  0  0  0  0  0  0  0  0  0
   38.3190   83.7050   62.9090 H   0  0  0  0  0  0  0  0  0  0  0  0
   40.3940   79.9010   59.8650 C   0  0  1  0  0  3  0  0  0  0  0  0
   41.1280   80.8880   60.7100 C   0  0  1  0  0  3  0  0  0  0  0  0
   42.3690   81.1040   60.1200 O   0  0  0  0  0  0  0  0  0  0  0  0
   42.7120   79.8340   59.6540 C   0  0  0  0  0  2  0  0  0  0  0  0
   41.4600   79.4720   58.8760 C   0  0  2  0  0  3  0  0  0  0  0  0
   40.1180   78.7690   60.6400 O   0  0  0  0  0  0  0  0  0  0  0  0
   40.3340   78.9340   61.6020 H   0  0  0  0  0  0  0  0  0  0  0  0
   41.4200   80.2550   57.7460 O   0  0  0  0  0  0  0  0  0  0  0  0
   40.5760   80.1830   57.2340 H   0  0  0  0  0  0  0  0  0  0  0  0
  1  6  1  0  0  0  0
  2  3  1  0  0  0  0
  2  1  2  0  0  0  0
  3  4  2  0  0  0  0
  4  5  1  0  0  0  0
  5  9  1  0  0  0  0
  6  5  2  0  0  0  0
  7  2  1  0  0  0  0
  8  3  1  0  0  0  0
 10 15  1  1  0  0  0
 10 11  1  0  0  0  0
 11  1  1  6  0  0  0
 12 11  1  0  0  0  0
 13 12  1  0  0  0  0
 14 17  1  6  0  0  0
 14 13  1  0  0  0  0
 14 10  1  0  0  0  0
 15 16  1  0  0  0  0
 18 17  1  0  0  0  0
M  END
>  <minimizedAffinity>
-3.96844602

>  <minimizedRMSD>
0.454881281

$$$$
