
 OpenBabel03212520083D

 18 19  0  0  1  0  0  0  0  0999 V2000
   40.1140   82.1090   60.4920 C   0  0  0  0  0  0  0  0  0  0  0  0
   40.1080   83.1350   59.5280 C   0  0  0  0  0  0  0  0  0  0  0  0
   39.4790   84.3320   59.8610 C   0  0  0  0  0  0  0  0  0  0  0  0
   38.9080   84.4510   61.0870 N   0  0  0  0  0  0  0  0  0  0  0  0
   38.9310   83.4450   61.9940 C   0  0  0  0  0  0  0  0  0  0  0  0
   39.5340   82.2810   61.6880 N   0  0  0  0  0  0  0  0  0  0  0  0
   40.5800   81.1350   60.3270 H   0  0  0  0  0  0  0  0  0  0  0  0
   39.4850   85.1030   59.1130 H   0  0  0  0  0  0  0  0  0  0  0  0
   38.4550   83.6070   62.9550 H   0  0  0  0  0  0  0  0  0  0  0  0
   42.2000   82.3940   58.4310 C   0  0  1  0  0  3  0  0  0  0  0  0
   40.7740   82.8380   58.2470 C   0  0  1  0  0  3  0  0  0  0  0  0
   40.2130   81.7660   57.5810 O   0  0  0  0  0  0  0  0  0  0  0  0
   41.1310   81.2890   56.6860 C   0  0  0  0  0  2  0  0  0  0  0  0
   42.4620   81.9000   56.9990 C   0  0  2  0  0  3  0  0  0  0  0  0
   43.0520   83.4560   58.7340 O   0  0  0  0  0  0  0  0  0  0  0  0
   42.7530   84.2440   58.2100 H   0  0  0  0  0  0  0  0  0  0  0  0
   43.5170   81.0070   56.9590 O   0  0  0  0  0  0  0  0  0  0  0  0
   43.1850   80.1190   56.6290 H   0  0  0  0  0  0  0  0  0  0  0  0
  1  6  1  0  0  0  0
  2  3  1  0  0  0  0
  2  1  2  0  0  0  0
  3  4  2  0  0  0  0
  4  5  1  0  0  0  0
  5  9  1  0  0  0  0
  6  5  2  0  0  0  0
  7  1  1  0  0  0  0
  8  3  1  0  0  0  0
 10 15  1  6  0  0  0
 11 10  1  0  0  0  0
 11  2  1  1  0  0  0
 12 11  1  0  0  0  0
 13 14  1  0  0  0  0
 13 12  1  0  0  0  0
 14 17  1  1  0  0  0
 14 10  1  0  0  0  0
 16 15  1  0  0  0  0
 18 17  1  0  0  0  0
M  END
>  <minimizedAffinity>
-4.03442144

>  <minimizedRMSD>
1.10834014

$$$$
