
 OpenBabel03212520123D

 31 33  0  0  1  0  0  0  0  0999 V2000
   43.4670   81.7190   57.4290 Cl  0  0  0  0  0  0  0  0  0  0  0  0
   42.3260   81.0550   56.2610 C   0  0  0  0  0  0  0  0  0  0  0  0
   41.4120   80.0850   56.5920 C   0  0  0  0  0  0  0  0  0  0  0  0
   40.5820   79.6740   55.5550 C   0  0  0  0  0  0  0  0  0  0  0  0
   40.6070   80.1520   54.2580 C   0  0  0  0  0  0  0  0  0  0  0  0
   41.5370   81.1160   53.9880 C   0  0  0  0  0  0  0  0  0  0  0  0
   41.6340   81.7850   52.3620 Cl  0  0  0  0  0  0  0  0  0  0  0  0
   42.3940   81.5650   54.9880 C   0  0  0  0  0  0  0  0  0  0  0  0
   39.8520   78.9100   55.7880 H   0  0  0  0  0  0  0  0  0  0  0  0
   39.9120   79.7580   53.5310 H   0  0  0  0  0  0  0  0  0  0  0  0
   42.0980   78.5340   58.4590 C   0  0  0  0  0  0  0  0  0  0  0  0
   41.3670   79.5790   57.9160 C   0  0  0  0  0  0  0  0  0  0  0  0
   40.4550   80.2380   58.7740 C   0  0  0  0  0  0  0  0  0  0  0  0
   40.3650   79.7990   60.0580 N   0  0  0  0  0  0  0  0  0  0  0  0
   41.0970   78.7770   60.5460 C   0  0  0  0  0  0  0  0  0  0  0  0
   41.9660   78.1490   59.7300 N   0  0  0  0  0  0  0  0  0  0  0  0
   42.7800   78.0620   57.7710 H   0  0  0  0  0  0  0  0  0  0  0  0
   39.8320   81.0600   58.4730 H   0  0  0  0  0  0  0  0  0  0  0  0
   40.8650   78.4350   61.9740 C   0  0  0  0  0  0  0  0  0  0  0  0
   40.4140   79.5120   62.6950 F   0  0  0  0  0  0  0  0  0  0  0  0
   39.9150   77.4270   62.0520 F   0  0  0  0  0  0  0  0  0  0  0  0
   42.0390   78.0270   62.5790 F   0  0  0  0  0  0  0  0  0  0  0  0
   42.7370   83.8470   54.0450 C   0  0  2  0  0  3  0  0  0  0  0  0
   43.3690   82.6130   54.5940 C   0  0  2  0  0  3  0  0  0  0  0  0
   44.1730   82.1610   53.5530 O   0  0  0  0  0  0  0  0  0  0  0  0
   44.7620   83.2690   52.9800 C   0  0  0  0  0  2  0  0  0  0  0  0
   43.8460   84.4410   53.2230 C   0  0  2  0  0  3  0  0  0  0  0  0
   42.3620   84.7280   55.0840 O   0  0  0  0  0  0  0  0  0  0  0  0
   41.5550   85.2440   54.7740 H   0  0  0  0  0  0  0  0  0  0  0  0
   44.5250   85.4170   53.9560 O   0  0  0  0  0  0  0  0  0  0  0  0
   44.9490   86.0200   53.2860 H   0  0  0  0  0  0  0  0  0  0  0  0
  2  3  1  0  0  0  0
  2  1  1  0  0  0  0
  3 12  1  0  0  0  0
  4  9  1  0  0  0  0
  4  3  2  0  0  0  0
  5  4  1  0  0  0  0
  6  5  2  0  0  0  0
  6  8  1  0  0  0  0
  7  6  1  0  0  0  0
  8  2  2  0  0  0  0
 10  5  1  0  0  0  0
 11 16  1  0  0  0  0
 12 11  2  0  0  0  0
 12 13  1  0  0  0  0
 13 14  2  0  0  0  0
 14 15  1  0  0  0  0
 15 19  1  0  0  0  0
 16 15  2  0  0  0  0
 17 11  1  0  0  0  0
 18 13  1  0  0  0  0
 19 21  1  0  0  0  0
 19 22  1  0  0  0  0
 19 20  1  0  0  0  0
 23 24  1  0  0  0  0
 23 28  1  1  0  0  0
 24  8  1  6  0  0  0
 25 24  1  0  0  0  0
 26 27  1  0  0  0  0
 26 25  1  0  0  0  0
 27 30  1  1  0  0  0
 27 23  1  0  0  0  0
 29 28  1  0  0  0  0
 31 30  1  0  0  0  0
M  END
>  <minimizedAffinity>
-3.67329073

>  <minimizedRMSD>
4.22627687

$$$$
