
 OpenBabel03212520383D

 26 28  0  0  1  0  0  0  0  0999 V2000
   41.9130   83.8050   62.4380 C   0  0  1  0  0  0  0  0  0  0  0  0
   42.0410   84.8260   63.5550 C   0  0  0  0  0  0  0  0  0  0  0  0
   43.1500   84.6100   62.5520 C   0  0  2  0  0  0  0  0  0  0  0  0
   41.1590   84.0140   61.6490 H   0  0  0  0  0  0  0  0  0  0  0  0
   42.1650   84.4480   64.5870 H   0  0  0  0  0  0  0  0  0  0  0  0
   41.3630   85.6670   63.4760 H   0  0  0  0  0  0  0  0  0  0  0  0
   44.0450   84.1210   62.9950 H   0  0  0  0  0  0  0  0  0  0  0  0
   44.5660   85.2930   60.5670 C   0  0  1  0  0  3  0  0  0  0  0  0
   43.4670   85.6300   61.5260 C   0  0  2  0  0  3  0  0  0  0  0  0
   43.9190   86.8370   62.0540 O   0  0  0  0  0  0  0  0  0  0  0  0
   44.4200   87.5650   61.0090 C   0  0  0  0  0  2  0  0  0  0  0  0
   44.5860   86.6310   59.8090 C   0  0  1  0  0  3  0  0  0  0  0  0
   45.8320   85.2360   61.1560 O   0  0  0  0  0  0  0  0  0  0  0  0
   45.9430   86.0460   61.7000 H   0  0  0  0  0  0  0  0  0  0  0  0
   45.7550   86.8350   59.1200 O   0  0  0  0  0  0  0  0  0  0  0  0
   45.4880   87.2000   58.2180 H   0  0  0  0  0  0  0  0  0  0  0  0
   41.9290   82.4710   62.8970 O   0  0  0  0  0  0  0  0  0  0  0  0
   44.2790   80.1350   61.4320 C   0  0  0  0  0  0  0  0  0  0  0  0
   43.4560   79.3950   60.5860 C   0  0  0  0  0  0  0  0  0  0  0  0
   42.0860   79.7220   60.5380 C   0  0  0  0  0  0  0  0  0  0  0  0
   41.6920   80.7370   61.3280 N   0  0  0  0  0  0  0  0  0  0  0  0
   42.4900   81.4500   62.1440 C   0  0  0  0  0  0  0  0  0  0  0  0
   43.7900   81.1420   62.1920 N   0  0  0  0  0  0  0  0  0  0  0  0
   45.3310   79.8890   61.4740 H   0  0  0  0  0  0  0  0  0  0  0  0
   43.7980   78.5830   59.9590 H   0  0  0  0  0  0  0  0  0  0  0  0
   41.3650   79.2030   59.9090 H   0  0  0  0  0  0  0  0  0  0  0  0
  1  4  1  6  0  0  0
  1  3  1  0  0  0  0
  1 17  1  0  0  0  0
  1  2  1  0  0  0  0
  2  5  1  0  0  0  0
  3  7  1  1  0  0  0
  3  2  1  0  0  0  0
  6  2  1  0  0  0  0
  8 13  1  1  0  0  0
  8  9  1  0  0  0  0
  9 10  1  1  0  0  0
  9  3  1  0  0  0  0
 11 10  1  0  0  0  0
 12 15  1  1  0  0  0
 12  8  1  0  0  0  0
 12 11  1  0  0  0  0
 13 14  1  0  0  0  0
 16 15  1  0  0  0  0
 18 24  1  0  0  0  0
 18 23  1  0  0  0  0
 19 18  2  0  0  0  0
 20 19  1  0  0  0  0
 20 21  2  0  0  0  0
 21 22  1  0  0  0  0
 22 23  2  0  0  0  0
 22 17  1  0  0  0  0
 25 19  1  0  0  0  0
 26 20  1  0  0  0  0
M  END
>  <minimizedAffinity>
-3.79480672

>  <minimizedRMSD>
4.93449259

$$$$
