
 OpenBabel03212520123D

 31 33  0  0  1  0  0  0  0  0999 V2000
   43.3970   83.7960   58.7380 Cl  0  0  0  0  0  0  0  0  0  0  0  0
   42.0770   82.7230   58.2760 C   0  0  0  0  0  0  0  0  0  0  0  0
   41.1310   82.2900   59.1730 C   0  0  0  0  0  0  0  0  0  0  0  0
   40.1540   81.4530   58.6460 C   0  0  0  0  0  0  0  0  0  0  0  0
   40.0660   81.0370   57.3300 C   0  0  0  0  0  0  0  0  0  0  0  0
   41.0340   81.5000   56.4850 C   0  0  0  0  0  0  0  0  0  0  0  0
   40.9950   81.0250   54.7900 Cl  0  0  0  0  0  0  0  0  0  0  0  0
   42.0370   82.3410   56.9580 C   0  0  0  0  0  0  0  0  0  0  0  0
   39.3960   81.0960   59.3310 H   0  0  0  0  0  0  0  0  0  0  0  0
   39.2600   80.3830   57.0320 H   0  0  0  0  0  0  0  0  0  0  0  0
   41.9370   82.1400   61.5590 C   0  0  0  0  0  0  0  0  0  0  0  0
   41.2000   82.7040   60.5280 C   0  0  0  0  0  0  0  0  0  0  0  0
   40.4110   83.8340   60.8470 C   0  0  0  0  0  0  0  0  0  0  0  0
   40.4350   84.2800   62.1310 N   0  0  0  0  0  0  0  0  0  0  0  0
   41.1670   83.7020   63.1030 C   0  0  0  0  0  0  0  0  0  0  0  0
   41.9190   82.6250   62.8030 N   0  0  0  0  0  0  0  0  0  0  0  0
   42.5230   81.2830   61.2710 H   0  0  0  0  0  0  0  0  0  0  0  0
   39.7970   84.3580   60.1370 H   0  0  0  0  0  0  0  0  0  0  0  0
   41.0680   84.3260   64.4500 C   0  0  0  0  0  0  0  0  0  0  0  0
   40.6990   85.6450   64.3800 F   0  0  0  0  0  0  0  0  0  0  0  0
   40.1190   83.6450   65.1980 F   0  0  0  0  0  0  0  0  0  0  0  0
   42.2890   84.2980   65.0960 F   0  0  0  0  0  0  0  0  0  0  0  0
   42.4620   83.5700   54.8320 C   0  0  2  0  0  3  0  0  0  0  0  0
   43.0420   82.7900   55.9620 C   0  0  2  0  0  3  0  0  0  0  0  0
   43.6310   81.6940   55.3410 O   0  0  0  0  0  0  0  0  0  0  0  0
   44.2360   82.1520   54.1880 C   0  0  0  0  0  2  0  0  0  0  0  0
   43.4890   83.3870   53.7490 C   0  0  2  0  0  3  0  0  0  0  0  0
   42.3370   84.9350   55.1710 O   0  0  0  0  0  0  0  0  0  0  0  0
   41.5480   85.3080   54.6670 H   0  0  0  0  0  0  0  0  0  0  0  0
   44.3650   84.4740   53.7220 O   0  0  0  0  0  0  0  0  0  0  0  0
   44.7420   84.5000   52.8000 H   0  0  0  0  0  0  0  0  0  0  0  0
  2  1  1  0  0  0  0
  2  3  1  0  0  0  0
  3 12  1  0  0  0  0
  4  3  2  0  0  0  0
  4  9  1  0  0  0  0
  5  4  1  0  0  0  0
  6  8  1  0  0  0  0
  6  5  2  0  0  0  0
  7  6  1  0  0  0  0
  8  2  2  0  0  0  0
 10  5  1  0  0  0  0
 11 16  1  0  0  0  0
 12 13  1  0  0  0  0
 12 11  2  0  0  0  0
 13 14  2  0  0  0  0
 14 15  1  0  0  0  0
 15 19  1  0  0  0  0
 16 15  2  0  0  0  0
 17 11  1  0  0  0  0
 18 13  1  0  0  0  0
 19 22  1  0  0  0  0
 19 21  1  0  0  0  0
 20 19  1  0  0  0  0
 23 28  1  1  0  0  0
 23 24  1  0  0  0  0
 24  8  1  1  0  0  0
 25 24  1  0  0  0  0
 26 25  1  0  0  0  0
 27 30  1  1  0  0  0
 27 26  1  0  0  0  0
 27 23  1  0  0  0  0
 29 28  1  0  0  0  0
 31 30  1  0  0  0  0
M  END
>  <minimizedAffinity>
-5.5992918

>  <minimizedRMSD>
1.453004

$$$$
