
 OpenBabel03212520373D

 26 28  0  0  1  0  0  0  0  0999 V2000
   43.2490   85.0430   60.6750 C   0  0  1  0  0  0  0  0  0  0  0  0
   43.0030   84.5860   62.1020 C   0  0  0  0  0  0  0  0  0  0  0  0
   41.9260   84.4940   61.0470 C   0  0  2  0  0  0  0  0  0  0  0  0
   43.9720   84.4510   60.0730 H   0  0  0  0  0  0  0  0  0  0  0  0
   42.9260   85.3620   62.8860 H   0  0  0  0  0  0  0  0  0  0  0  0
   43.5770   83.7170   62.4010 H   0  0  0  0  0  0  0  0  0  0  0  0
   41.0950   85.2140   61.2120 H   0  0  0  0  0  0  0  0  0  0  0  0
   40.7710   83.2110   59.1920 C   0  0  1  0  0  3  0  0  0  0  0  0
   41.4890   83.1860   60.5070 C   0  0  2  0  0  3  0  0  0  0  0  0
   40.5670   82.5250   61.3140 O   0  0  0  0  0  0  0  0  0  0  0  0
   40.0610   81.4890   60.5740 C   0  0  0  0  0  2  0  0  0  0  0  0
   40.4510   81.7090   59.1110 C   0  0  1  0  0  3  0  0  0  0  0  0
   39.5110   83.8090   59.2490 O   0  0  0  0  0  0  0  0  0  0  0  0
   39.0330   83.4210   60.0140 H   0  0  0  0  0  0  0  0  0  0  0  0
   39.4370   81.4290   58.2300 O   0  0  0  0  0  0  0  0  0  0  0  0
   39.7350   80.6160   57.7100 H   0  0  0  0  0  0  0  0  0  0  0  0
   43.3920   86.4420   60.5530 O   0  0  0  0  0  0  0  0  0  0  0  0
   44.9470   88.8290   58.3170 C   0  0  0  0  0  0  0  0  0  0  0  0
   45.5630   87.9930   57.3890 C   0  0  0  0  0  0  0  0  0  0  0  0
   45.4280   86.6000   57.5580 C   0  0  0  0  0  0  0  0  0  0  0  0
   44.7030   86.2000   58.6180 N   0  0  0  0  0  0  0  0  0  0  0  0
   44.1080   87.0110   59.5120 C   0  0  0  0  0  0  0  0  0  0  0  0
   44.2350   88.3340   59.3550 N   0  0  0  0  0  0  0  0  0  0  0  0
   45.0470   89.8990   58.1940 H   0  0  0  0  0  0  0  0  0  0  0  0
   46.1410   88.3400   56.5440 H   0  0  0  0  0  0  0  0  0  0  0  0
   45.8710   85.8660   56.8870 H   0  0  0  0  0  0  0  0  0  0  0  0
  1  4  1  6  0  0  0
  1  3  1  0  0  0  0
  1  2  1  0  0  0  0
  2  6  1  0  0  0  0
  2  5  1  0  0  0  0
  3  7  1  1  0  0  0
  3  2  1  0  0  0  0
  8 13  1  1  0  0  0
  8  9  1  0  0  0  0
  9  3  1  0  0  0  0
  9 10  1  1  0  0  0
 11 10  1  0  0  0  0
 12 15  1  6  0  0  0
 12  8  1  0  0  0  0
 12 11  1  0  0  0  0
 13 14  1  0  0  0  0
 16 15  1  0  0  0  0
 17  1  1  0  0  0  0
 18 23  1  0  0  0  0
 19 20  1  0  0  0  0
 19 18  2  0  0  0  0
 20 21  2  0  0  0  0
 21 22  1  0  0  0  0
 22 17  1  0  0  0  0
 23 22  2  0  0  0  0
 24 18  1  0  0  0  0
 25 19  1  0  0  0  0
 26 20  1  0  0  0  0
M  END
>  <minimizedAffinity>
-4.23954058

>  <minimizedRMSD>
5.94208527

$$$$
