
 OpenBabel03212520133D

 31 33  0  0  1  0  0  0  0  0999 V2000
   40.7830   82.9650   58.2400 Cl  0  0  0  0  0  0  0  0  0  0  0  0
   40.6060   81.4690   59.1550 C   0  0  0  0  0  0  0  0  0  0  0  0
   40.2630   80.2790   58.5630 C   0  0  0  0  0  0  0  0  0  0  0  0
   40.1710   79.1920   59.4260 C   0  0  0  0  0  0  0  0  0  0  0  0
   40.3910   79.2200   60.7910 C   0  0  0  0  0  0  0  0  0  0  0  0
   40.7300   80.4320   61.3230 C   0  0  0  0  0  0  0  0  0  0  0  0
   41.0340   80.5560   63.0530 Cl  0  0  0  0  0  0  0  0  0  0  0  0
   40.8370   81.5530   60.5060 C   0  0  0  0  0  0  0  0  0  0  0  0
   39.9010   78.2410   58.9870 H   0  0  0  0  0  0  0  0  0  0  0  0
   40.2900   78.3110   61.3650 H   0  0  0  0  0  0  0  0  0  0  0  0
   38.8680   80.5310   56.4770 C   0  0  0  0  0  0  0  0  0  0  0  0
   40.0320   80.2250   57.1640 C   0  0  0  0  0  0  0  0  0  0  0  0
   41.1420   79.8040   56.3940 C   0  0  0  0  0  0  0  0  0  0  0  0
   40.9840   79.7330   55.0450 N   0  0  0  0  0  0  0  0  0  0  0  0
   39.8330   80.0410   54.4160 C   0  0  0  0  0  0  0  0  0  0  0  0
   38.7750   80.4420   55.1480 N   0  0  0  0  0  0  0  0  0  0  0  0
   38.0500   80.8470   57.1030 H   0  0  0  0  0  0  0  0  0  0  0  0
   42.0970   79.5400   56.8090 H   0  0  0  0  0  0  0  0  0  0  0  0
   39.8440   79.9030   52.9350 C   0  0  0  0  0  0  0  0  0  0  0  0
   40.6200   80.8620   52.3350 F   0  0  0  0  0  0  0  0  0  0  0  0
   40.3510   78.6560   52.5990 F   0  0  0  0  0  0  0  0  0  0  0  0
   38.5720   80.0520   52.4170 F   0  0  0  0  0  0  0  0  0  0  0  0
   42.4420   82.7220   62.0130 C   0  0  2  0  0  3  0  0  0  0  0  0
   41.2090   82.8230   61.1800 C   0  0  2  0  0  3  0  0  0  0  0  0
   40.2250   83.1970   62.0860 O   0  0  0  0  0  0  0  0  0  0  0  0
   40.7850   84.1250   62.9400 C   0  0  0  0  0  2  0  0  0  0  0  0
   42.2680   83.8540   62.9870 C   0  0  2  0  0  3  0  0  0  0  0  0
   43.6000   82.9150   61.2280 O   0  0  0  0  0  0  0  0  0  0  0  0
   44.3460   82.3800   61.6410 H   0  0  0  0  0  0  0  0  0  0  0  0
   42.9600   84.9850   62.5450 O   0  0  0  0  0  0  0  0  0  0  0  0
   43.1390   85.5320   63.3580 H   0  0  0  0  0  0  0  0  0  0  0  0
  1  2  1  0  0  0  0
  2  8  1  0  0  0  0
  3  2  2  0  0  0  0
  3  4  1  0  0  0  0
  4  5  2  0  0  0  0
  5  6  1  0  0  0  0
  5 10  1  0  0  0  0
  6  7  1  0  0  0  0
  8  6  2  0  0  0  0
  9  4  1  0  0  0  0
 11 17  1  0  0  0  0
 11 12  1  0  0  0  0
 12  3  1  0  0  0  0
 13 18  1  0  0  0  0
 13 12  2  0  0  0  0
 14 13  1  0  0  0  0
 15 14  2  0  0  0  0
 15 16  1  0  0  0  0
 16 11  2  0  0  0  0
 19 15  1  0  0  0  0
 20 19  1  0  0  0  0
 21 19  1  0  0  0  0
 22 19  1  0  0  0  0
 23 28  1  6  0  0  0
 23 27  1  0  0  0  0
 24  8  1  1  0  0  0
 24 23  1  0  0  0  0
 24 25  1  0  0  0  0
 25 26  1  0  0  0  0
 26 27  1  0  0  0  0
 27 30  1  6  0  0  0
 28 29  1  0  0  0  0
 30 31  1  0  0  0  0
M  END
>  <minimizedAffinity>
-4.79936838

>  <minimizedRMSD>
7.89132452

$$$$
