
 OpenBabel03212520133D

 31 33  0  0  1  0  0  0  0  0999 V2000
   42.6180   83.7300   58.3600 Cl  0  0  0  0  0  0  0  0  0  0  0  0
   41.4540   82.4210   58.1660 C   0  0  0  0  0  0  0  0  0  0  0  0
   40.7460   81.9010   59.2220 C   0  0  0  0  0  0  0  0  0  0  0  0
   39.8650   80.8760   58.8970 C   0  0  0  0  0  0  0  0  0  0  0  0
   39.6540   80.3570   57.6320 C   0  0  0  0  0  0  0  0  0  0  0  0
   40.3870   80.9140   56.6220 C   0  0  0  0  0  0  0  0  0  0  0  0
   40.1770   80.3180   54.9790 Cl  0  0  0  0  0  0  0  0  0  0  0  0
   41.2850   81.9440   56.8900 C   0  0  0  0  0  0  0  0  0  0  0  0
   39.2940   80.4470   59.7100 H   0  0  0  0  0  0  0  0  0  0  0  0
   38.9420   79.5570   57.4970 H   0  0  0  0  0  0  0  0  0  0  0  0
   41.9510   82.1040   61.4280 C   0  0  0  0  0  0  0  0  0  0  0  0
   40.9440   82.4160   60.5280 C   0  0  0  0  0  0  0  0  0  0  0  0
   39.9820   83.3670   60.9450 C   0  0  0  0  0  0  0  0  0  0  0  0
   40.1180   83.8990   62.1890 N   0  0  0  0  0  0  0  0  0  0  0  0
   41.1140   83.5670   63.0330 C   0  0  0  0  0  0  0  0  0  0  0  0
   42.0310   82.6630   62.6390 N   0  0  0  0  0  0  0  0  0  0  0  0
   42.6610   81.3770   61.0690 H   0  0  0  0  0  0  0  0  0  0  0  0
   39.1560   83.6920   60.3400 H   0  0  0  0  0  0  0  0  0  0  0  0
   41.1020   84.2510   64.3540 C   0  0  0  0  0  0  0  0  0  0  0  0
   40.7840   85.5810   64.2430 F   0  0  0  0  0  0  0  0  0  0  0  0
   40.1610   83.6420   65.1720 F   0  0  0  0  0  0  0  0  0  0  0  0
   42.3490   84.1980   64.9470 F   0  0  0  0  0  0  0  0  0  0  0  0
   43.4840   82.1420   55.7350 C   0  0  2  0  0  3  0  0  0  0  0  0
   42.0330   82.4810   55.7260 C   0  0  2  0  0  3  0  0  0  0  0  0
   42.0160   83.8710   55.7380 O   0  0  0  0  0  0  0  0  0  0  0  0
   43.0240   84.3000   54.8980 C   0  0  0  0  0  2  0  0  0  0  0  0
   44.0750   83.2200   54.8700 C   0  0  2  0  0  3  0  0  0  0  0  0
   43.7110   80.8690   55.1660 O   0  0  0  0  0  0  0  0  0  0  0  0
   44.5220   80.4710   55.6100 H   0  0  0  0  0  0  0  0  0  0  0  0
   44.2320   82.7600   53.5600 O   0  0  0  0  0  0  0  0  0  0  0  0
   44.9470   83.3230   53.1540 H   0  0  0  0  0  0  0  0  0  0  0  0
  2  1  1  0  0  0  0
  2  3  1  0  0  0  0
  3 12  1  0  0  0  0
  4  3  2  0  0  0  0
  4  9  1  0  0  0  0
  5  4  1  0  0  0  0
  6  8  1  0  0  0  0
  6  5  2  0  0  0  0
  7  6  1  0  0  0  0
  8  2  2  0  0  0  0
 10  5  1  0  0  0  0
 11 16  1  0  0  0  0
 12 13  1  0  0  0  0
 12 11  2  0  0  0  0
 13 14  2  0  0  0  0
 14 15  1  0  0  0  0
 15 19  1  0  0  0  0
 16 15  2  0  0  0  0
 17 11  1  0  0  0  0
 18 13  1  0  0  0  0
 19 22  1  0  0  0  0
 19 21  1  0  0  0  0
 20 19  1  0  0  0  0
 23 28  1  6  0  0  0
 24 23  1  0  0  0  0
 24 25  1  0  0  0  0
 24  8  1  1  0  0  0
 26 25  1  0  0  0  0
 27 30  1  6  0  0  0
 27 26  1  0  0  0  0
 27 23  1  0  0  0  0
 28 29  1  0  0  0  0
 31 30  1  0  0  0  0
M  END
>  <minimizedAffinity>
-5.3185277

>  <minimizedRMSD>
1.31347692

$$$$
