
 OpenBabel03212520133D

 31 33  0  0  1  0  0  0  0  0999 V2000
   42.6170   83.7300   58.3600 Cl  0  0  0  0  0  0  0  0  0  0  0  0
   41.4530   82.4200   58.1660 C   0  0  0  0  0  0  0  0  0  0  0  0
   40.7460   81.9000   59.2220 C   0  0  0  0  0  0  0  0  0  0  0  0
   39.8650   80.8750   58.8980 C   0  0  0  0  0  0  0  0  0  0  0  0
   39.6540   80.3560   57.6330 C   0  0  0  0  0  0  0  0  0  0  0  0
   40.3860   80.9130   56.6230 C   0  0  0  0  0  0  0  0  0  0  0  0
   40.1760   80.3170   54.9790 Cl  0  0  0  0  0  0  0  0  0  0  0  0
   41.2830   81.9430   56.8900 C   0  0  0  0  0  0  0  0  0  0  0  0
   39.2940   80.4460   59.7110 H   0  0  0  0  0  0  0  0  0  0  0  0
   38.9420   79.5550   57.4980 H   0  0  0  0  0  0  0  0  0  0  0  0
   41.9510   82.1050   61.4280 C   0  0  0  0  0  0  0  0  0  0  0  0
   40.9440   82.4160   60.5280 C   0  0  0  0  0  0  0  0  0  0  0  0
   39.9820   83.3660   60.9450 C   0  0  0  0  0  0  0  0  0  0  0  0
   40.1170   83.8980   62.1890 N   0  0  0  0  0  0  0  0  0  0  0  0
   41.1140   83.5670   63.0330 C   0  0  0  0  0  0  0  0  0  0  0  0
   42.0310   82.6630   62.6380 N   0  0  0  0  0  0  0  0  0  0  0  0
   42.6610   81.3780   61.0690 H   0  0  0  0  0  0  0  0  0  0  0  0
   39.1550   83.6900   60.3400 H   0  0  0  0  0  0  0  0  0  0  0  0
   41.1020   84.2510   64.3540 C   0  0  0  0  0  0  0  0  0  0  0  0
   40.7840   85.5810   64.2420 F   0  0  0  0  0  0  0  0  0  0  0  0
   40.1610   83.6430   65.1720 F   0  0  0  0  0  0  0  0  0  0  0  0
   42.3490   84.1980   64.9470 F   0  0  0  0  0  0  0  0  0  0  0  0
   43.4830   82.1410   55.7340 C   0  0  2  0  0  3  0  0  0  0  0  0
   42.0310   82.4810   55.7250 C   0  0  2  0  0  3  0  0  0  0  0  0
   42.0150   83.8700   55.7390 O   0  0  0  0  0  0  0  0  0  0  0  0
   43.0220   84.2990   54.8990 C   0  0  0  0  0  2  0  0  0  0  0  0
   44.0740   83.2190   54.8690 C   0  0  2  0  0  3  0  0  0  0  0  0
   43.7090   80.8680   55.1650 O   0  0  0  0  0  0  0  0  0  0  0  0
   44.5200   80.4700   55.6080 H   0  0  0  0  0  0  0  0  0  0  0  0
   44.2300   82.7590   53.5590 O   0  0  0  0  0  0  0  0  0  0  0  0
   44.9450   83.3220   53.1530 H   0  0  0  0  0  0  0  0  0  0  0  0
  2  1  1  0  0  0  0
  2  3  1  0  0  0  0
  3 12  1  0  0  0  0
  4  3  2  0  0  0  0
  4  9  1  0  0  0  0
  5  4  1  0  0  0  0
  6  8  1  0  0  0  0
  6  5  2  0  0  0  0
  7  6  1  0  0  0  0
  8  2  2  0  0  0  0
 10  5  1  0  0  0  0
 11 16  1  0  0  0  0
 12 13  1  0  0  0  0
 12 11  2  0  0  0  0
 13 14  2  0  0  0  0
 14 15  1  0  0  0  0
 15 19  1  0  0  0  0
 16 15  2  0  0  0  0
 17 11  1  0  0  0  0
 18 13  1  0  0  0  0
 19 22  1  0  0  0  0
 19 21  1  0  0  0  0
 20 19  1  0  0  0  0
 23 28  1  6  0  0  0
 24 23  1  0  0  0  0
 24 25  1  0  0  0  0
 24  8  1  1  0  0  0
 26 25  1  0  0  0  0
 27 30  1  6  0  0  0
 27 26  1  0  0  0  0
 27 23  1  0  0  0  0
 28 29  1  0  0  0  0
 31 30  1  0  0  0  0
M  END
>  <minimizedAffinity>
-5.31872654

>  <minimizedRMSD>
0.735392451

$$$$
