
 OpenBabel03212520033D

 31 34  0  0  1  0  0  0  0  0999 V2000
   39.8530   77.8280   57.3560 C   0  0  0  0  0  0  0  0  0  0  0  0
   38.6930   77.6940   56.5650 C   0  0  0  0  0  0  0  0  0  0  0  0
   37.8930   76.5960   56.8260 C   0  0  0  0  0  0  0  0  0  0  0  0
   38.2270   75.7170   57.7930 N   0  0  0  0  0  0  0  0  0  0  0  0
   39.3590   75.8750   58.5420 C   0  0  0  0  0  0  0  0  0  0  0  0
   40.1560   76.9330   58.3090 N   0  0  0  0  0  0  0  0  0  0  0  0
   40.5010   78.6830   57.1700 H   0  0  0  0  0  0  0  0  0  0  0  0
   38.4110   78.3790   55.7960 H   0  0  0  0  0  0  0  0  0  0  0  0
   38.7230   74.3950   60.3840 C   0  0  0  0  0  0  0  0  0  0  0  0
   39.7250   74.9260   59.5870 C   0  0  0  0  0  0  0  0  0  0  0  0
   41.0490   74.5670   59.7700 C   0  0  0  0  0  0  0  0  0  0  0  0
   41.4160   73.6710   60.7520 C   0  0  0  0  0  0  0  0  0  0  0  0
   42.5430   73.1050   61.2130 N   0  0  0  0  0  0  0  0  0  0  0  0
   42.2820   72.2640   62.2410 C   0  0  0  0  0  0  0  0  0  0  0  0
   40.9380   72.3270   62.4060 N   0  0  0  0  0  0  0  0  0  0  0  0
   40.3790   73.1720   61.5190 C   0  0  0  0  0  0  0  0  0  0  0  0
   39.0420   73.4900   61.3840 C   0  0  0  0  0  0  0  0  0  0  0  0
   37.6780   74.6480   60.2720 H   0  0  0  0  0  0  0  0  0  0  0  0
   41.8560   74.9670   59.1610 H   0  0  0  0  0  0  0  0  0  0  0  0
   43.4910   73.2980   60.8200 H   0  0  0  0  0  0  0  0  0  0  0  0
   42.9580   71.6580   62.8290 H   0  0  0  0  0  0  0  0  0  0  0  0
   38.2950   73.0490   62.0310 H   0  0  0  0  0  0  0  0  0  0  0  0
   36.6730   75.0450   55.3130 C   0  0  1  0  0  3  0  0  0  0  0  0
   36.6590   76.3630   56.0590 C   0  0  2  0  0  3  0  0  0  0  0  0
   36.5030   77.3030   55.0630 O   0  0  0  0  0  0  0  0  0  0  0  0
   37.1400   76.8730   53.9230 C   0  0  0  0  0  2  0  0  0  0  0  0
   37.0970   75.3670   53.8940 C   0  0  2  0  0  3  0  0  0  0  0  0
   37.4830   74.0850   55.9180 O   0  0  0  0  0  0  0  0  0  0  0  0
   36.8870   73.5070   56.4550 H   0  0  0  0  0  0  0  0  0  0  0  0
   36.0920   74.9990   52.9980 O   0  0  0  0  0  0  0  0  0  0  0  0
   36.3090   74.1210   52.6100 H   0  0  0  0  0  0  0  0  0  0  0  0
  1  6  1  0  0  0  0
  2  3  1  0  0  0  0
  2  1  2  0  0  0  0
  3  4  2  0  0  0  0
  4  5  1  0  0  0  0
  5 10  1  0  0  0  0
  6  5  2  0  0  0  0
  7  1  1  0  0  0  0
  8  2  1  0  0  0  0
  9 17  1  0  0  0  0
 10 11  1  0  0  0  0
 10  9  2  0  0  0  0
 11 12  2  0  0  0  0
 12 13  1  0  0  0  0
 12 16  1  0  0  0  0
 13 14  1  0  0  0  0
 14 15  2  0  0  0  0
 14 21  1  0  0  0  0
 16 15  1  0  0  0  0
 17 16  2  0  0  0  0
 17 22  1  0  0  0  0
 18  9  1  0  0  0  0
 19 11  1  0  0  0  0
 20 13  1  0  0  0  0
 23 28  1  1  0  0  0
 23 24  1  0  0  0  0
 24  3  1  6  0  0  0
 25 24  1  0  0  0  0
 26 25  1  0  0  0  0
 27 30  1  6  0  0  0
 27 26  1  0  0  0  0
 27 23  1  0  0  0  0
 28 29  1  0  0  0  0
 31 30  1  0  0  0  0
M  END
>  <minimizedAffinity>
-7.01195717

$$$$

 OpenBabel03212520033D

 31 34  0  0  1  0  0  0  0  0999 V2000
   39.9990   77.5950   57.6550 C   0  0  0  0  0  0  0  0  0  0  0  0
   38.7810   77.2850   57.0150 C   0  0  0  0  0  0  0  0  0  0  0  0
   38.2560   76.0290   57.2660 C   0  0  0  0  0  0  0  0  0  0  0  0
   38.8970   75.1670   58.0820 N   0  0  0  0  0  0  0  0  0  0  0  0
   40.0770   75.4980   58.6870 C   0  0  0  0  0  0  0  0  0  0  0  0
   40.6100   76.7130   58.4610 N   0  0  0  0  0  0  0  0  0  0  0  0
   40.4330   78.5770   57.4740 H   0  0  0  0  0  0  0  0  0  0  0  0
   38.2590   77.9520   56.3670 H   0  0  0  0  0  0  0  0  0  0  0  0
   42.1460   74.4310   59.4390 C   0  0  0  0  0  0  0  0  0  0  0  0
   40.7730   74.5700   59.5700 C   0  0  0  0  0  0  0  0  0  0  0  0
   40.0680   73.8470   60.5160 C   0  0  0  0  0  0  0  0  0  0  0  0
   40.7080   72.9630   61.3600 C   0  0  0  0  0  0  0  0  0  0  0  0
   40.3810   72.1240   62.3560 N   0  0  0  0  0  0  0  0  0  0  0  0
   41.4740   71.4860   62.8360 C   0  0  0  0  0  0  0  0  0  0  0  0
   42.5050   71.9630   62.0960 N   0  0  0  0  0  0  0  0  0  0  0  0
   42.0760   72.8620   61.1890 C   0  0  0  0  0  0  0  0  0  0  0  0
   42.8330   73.5560   60.2660 C   0  0  0  0  0  0  0  0  0  0  0  0
   42.7320   74.9780   58.7150 H   0  0  0  0  0  0  0  0  0  0  0  0
   38.9920   73.9340   60.6410 H   0  0  0  0  0  0  0  0  0  0  0  0
   39.4060   71.9900   62.7050 H   0  0  0  0  0  0  0  0  0  0  0  0
   41.5570   70.7540   63.6280 H   0  0  0  0  0  0  0  0  0  0  0  0
   43.9040   73.4140   60.2020 H   0  0  0  0  0  0  0  0  0  0  0  0
   37.1910   74.6280   55.5090 C   0  0  1  0  0  3  0  0  0  0  0  0
   36.9900   75.6040   56.6490 C   0  0  2  0  0  3  0  0  0  0  0  0
   36.3380   76.6670   56.0610 O   0  0  0  0  0  0  0  0  0  0  0  0
   36.7720   76.8100   54.7640 C   0  0  0  0  0  2  0  0  0  0  0  0
   37.1480   75.4500   54.2360 C   0  0  2  0  0  3  0  0  0  0  0  0
   38.3600   73.8780   55.6330 O   0  0  0  0  0  0  0  0  0  0  0  0
   38.1010   73.0080   56.0230 H   0  0  0  0  0  0  0  0  0  0  0  0
   36.0990   75.0180   53.4220 O   0  0  0  0  0  0  0  0  0  0  0  0
   36.4530   74.4090   52.7340 H   0  0  0  0  0  0  0  0  0  0  0  0
  1  6  1  0  0  0  0
  2  3  1  0  0  0  0
  2  1  2  0  0  0  0
  3  4  2  0  0  0  0
  4  5  1  0  0  0  0
  5 10  1  0  0  0  0
  6  5  2  0  0  0  0
  7  1  1  0  0  0  0
  8  2  1  0  0  0  0
  9 10  2  0  0  0  0
  9 17  1  0  0  0  0
 10 11  1  0  0  0  0
 11 19  1  0  0  0  0
 11 12  2  0  0  0  0
 12 13  1  0  0  0  0
 13 20  1  0  0  0  0
 13 14  1  0  0  0  0
 14 21  1  0  0  0  0
 15 14  2  0  0  0  0
 16 12  1  0  0  0  0
 16 15  1  0  0  0  0
 17 16  2  0  0  0  0
 18  9  1  0  0  0  0
 22 17  1  0  0  0  0
 23 28  1  1  0  0  0
 23 24  1  0  0  0  0
 24  3  1  6  0  0  0
 25 24  1  0  0  0  0
 26 25  1  0  0  0  0
 27 30  1  6  0  0  0
 27 26  1  0  0  0  0
 27 23  1  0  0  0  0
 28 29  1  0  0  0  0
 31 30  1  0  0  0  0
M  END
>  <minimizedAffinity>
-6.81238174

$$$$

 OpenBabel03212520033D

 31 34  0  0  1  0  0  0  0  0999 V2000
   44.1600   74.2720   59.9630 C   0  0  0  0  0  0  0  0  0  0  0  0
   43.0610   74.9720   59.4240 C   0  0  0  0  0  0  0  0  0  0  0  0
   41.8120   74.4160   59.6370 C   0  0  0  0  0  0  0  0  0  0  0  0
   41.6810   73.2640   60.3270 N   0  0  0  0  0  0  0  0  0  0  0  0
   42.7670   72.6090   60.8360 C   0  0  0  0  0  0  0  0  0  0  0  0
   43.9930   73.1270   60.6440 N   0  0  0  0  0  0  0  0  0  0  0  0
   45.1540   74.6880   59.8090 H   0  0  0  0  0  0  0  0  0  0  0  0
   43.1440   75.8840   58.8760 H   0  0  0  0  0  0  0  0  0  0  0  0
   41.8990   71.3700   62.7590 C   0  0  0  0  0  0  0  0  0  0  0  0
   42.6300   71.3640   61.5810 C   0  0  0  0  0  0  0  0  0  0  0  0
   43.2200   70.2030   61.1130 C   0  0  0  0  0  0  0  0  0  0  0  0
   43.1020   69.0140   61.8020 C   0  0  0  0  0  0  0  0  0  0  0  0
   43.5130   67.7420   61.6710 N   0  0  0  0  0  0  0  0  0  0  0  0
   43.0740   66.9790   62.7000 C   0  0  0  0  0  0  0  0  0  0  0  0
   42.3680   67.8300   63.4850 N   0  0  0  0  0  0  0  0  0  0  0  0
   42.3640   69.0750   62.9700 C   0  0  0  0  0  0  0  0  0  0  0  0
   41.7520   70.1990   63.4870 C   0  0  0  0  0  0  0  0  0  0  0  0
   41.4220   72.2540   63.1570 H   0  0  0  0  0  0  0  0  0  0  0  0
   43.7990   70.1670   60.1930 H   0  0  0  0  0  0  0  0  0  0  0  0
   44.0950   67.4000   60.8750 H   0  0  0  0  0  0  0  0  0  0  0  0
   43.2270   65.9270   62.8960 H   0  0  0  0  0  0  0  0  0  0  0  0
   41.1910   70.1550   64.4110 H   0  0  0  0  0  0  0  0  0  0  0  0
   39.4700   75.0920   60.1260 C   0  0  1  0  0  3  0  0  0  0  0  0
   40.5990   75.0670   59.1170 C   0  0  2  0  0  3  0  0  0  0  0  0
   40.0730   74.3690   58.0510 O   0  0  0  0  0  0  0  0  0  0  0  0
   39.2040   73.4100   58.5160 C   0  0  0  0  0  2  0  0  0  0  0  0
   38.5770   73.9140   59.7900 C   0  0  2  0  0  3  0  0  0  0  0  0
   39.9160   75.0760   61.4460 O   0  0  0  0  0  0  0  0  0  0  0  0
   39.9070   76.0130   61.7610 H   0  0  0  0  0  0  0  0  0  0  0  0
   37.2930   74.3610   59.4710 O   0  0  0  0  0  0  0  0  0  0  0  0
   36.7130   74.2700   60.2600 H   0  0  0  0  0  0  0  0  0  0  0  0
  1  6  1  0  0  0  0
  2  3  1  0  0  0  0
  2  1  2  0  0  0  0
  3  4  2  0  0  0  0
  4  5  1  0  0  0  0
  5 10  1  0  0  0  0
  6  5  2  0  0  0  0
  7  1  1  0  0  0  0
  8  2  1  0  0  0  0
  9 18  1  0  0  0  0
  9 17  1  0  0  0  0
 10  9  2  0  0  0  0
 11 10  1  0  0  0  0
 11 12  2  0  0  0  0
 12 16  1  0  0  0  0
 13 12  1  0  0  0  0
 13 14  1  0  0  0  0
 14 21  1  0  0  0  0
 14 15  2  0  0  0  0
 16 15  1  0  0  0  0
 16 17  2  0  0  0  0
 17 22  1  0  0  0  0
 19 11  1  0  0  0  0
 20 13  1  0  0  0  0
 23 28  1  1  0  0  0
 24  3  1  1  0  0  0
 24 23  1  0  0  0  0
 25 26  1  0  0  0  0
 25 24  1  0  0  0  0
 26 27  1  0  0  0  0
 27 30  1  6  0  0  0
 27 23  1  0  0  0  0
 28 29  1  0  0  0  0
 30 31  1  0  0  0  0
M  END
>  <minimizedAffinity>
-6.34253979

$$$$

 OpenBabel03212520033D

 31 34  0  0  1  0  0  0  0  0999 V2000
   42.8530   75.3880   59.3350 C   0  0  0  0  0  0  0  0  0  0  0  0
   41.5630   75.9330   59.1640 C   0  0  0  0  0  0  0  0  0  0  0  0
   40.5130   75.2110   59.7030 C   0  0  0  0  0  0  0  0  0  0  0  0
   40.7390   74.0510   60.3530 N   0  0  0  0  0  0  0  0  0  0  0  0
   42.0010   73.5490   60.5010 C   0  0  0  0  0  0  0  0  0  0  0  0
   43.0410   74.2290   59.9870 N   0  0  0  0  0  0  0  0  0  0  0  0
   43.6970   75.9360   58.9200 H   0  0  0  0  0  0  0  0  0  0  0  0
   41.3640   76.8490   58.6540 H   0  0  0  0  0  0  0  0  0  0  0  0
   41.6430   72.0870   62.4300 C   0  0  0  0  0  0  0  0  0  0  0  0
   42.2500   72.2940   61.2010 C   0  0  0  0  0  0  0  0  0  0  0  0
   43.0750   71.3350   60.6410 C   0  0  0  0  0  0  0  0  0  0  0  0
   43.3220   70.1410   61.2870 C   0  0  0  0  0  0  0  0  0  0  0  0
   44.0310   69.0210   61.0720 N   0  0  0  0  0  0  0  0  0  0  0  0
   43.8890   68.1490   62.0980 C   0  0  0  0  0  0  0  0  0  0  0  0
   43.0580   68.7730   62.9690 N   0  0  0  0  0  0  0  0  0  0  0  0
   42.6940   69.9860   62.5080 C   0  0  0  0  0  0  0  0  0  0  0  0
   41.8610   70.9030   63.1180 C   0  0  0  0  0  0  0  0  0  0  0  0
   40.9920   72.8100   62.9000 H   0  0  0  0  0  0  0  0  0  0  0  0
   43.5640   71.4690   59.6800 H   0  0  0  0  0  0  0  0  0  0  0  0
   44.6120   68.8580   60.2210 H   0  0  0  0  0  0  0  0  0  0  0  0
   44.3210   67.1680   62.2380 H   0  0  0  0  0  0  0  0  0  0  0  0
   41.4090   70.6960   64.0790 H   0  0  0  0  0  0  0  0  0  0  0  0
   38.3200   74.9000   58.5750 C   0  0  1  0  0  3  0  0  0  0  0  0
   39.1280   75.6910   59.5820 C   0  0  2  0  0  3  0  0  0  0  0  0
   39.0850   76.9810   59.0980 O   0  0  0  0  0  0  0  0  0  0  0  0
   39.0600   76.9550   57.7230 C   0  0  0  0  0  2  0  0  0  0  0  0
   38.3540   75.6970   57.2860 C   0  0  2  0  0  3  0  0  0  0  0  0
   38.7730   73.5920   58.4180 O   0  0  0  0  0  0  0  0  0  0  0  0
   38.1960   73.0200   58.9810 H   0  0  0  0  0  0  0  0  0  0  0  0
   37.0590   76.0590   56.9110 O   0  0  0  0  0  0  0  0  0  0  0  0
   36.7300   75.4260   56.2310 H   0  0  0  0  0  0  0  0  0  0  0  0
  1  6  1  0  0  0  0
  2  1  2  0  0  0  0
  2  3  1  0  0  0  0
  3  4  2  0  0  0  0
  4  5  1  0  0  0  0
  5 10  1  0  0  0  0
  6  5  2  0  0  0  0
  7  1  1  0  0  0  0
  8  2  1  0  0  0  0
  9 18  1  0  0  0  0
  9 17  1  0  0  0  0
 10  9  2  0  0  0  0
 11 10  1  0  0  0  0
 11 12  2  0  0  0  0
 12 16  1  0  0  0  0
 13 12  1  0  0  0  0
 13 14  1  0  0  0  0
 14 21  1  0  0  0  0
 14 15  2  0  0  0  0
 16 15  1  0  0  0  0
 16 17  2  0  0  0  0
 17 22  1  0  0  0  0
 19 11  1  0  0  0  0
 20 13  1  0  0  0  0
 23 28  1  6  0  0  0
 23 24  1  0  0  0  0
 24  3  1  6  0  0  0
 25 24  1  0  0  0  0
 26 25  1  0  0  0  0
 27 30  1  1  0  0  0
 27 26  1  0  0  0  0
 27 23  1  0  0  0  0
 28 29  1  0  0  0  0
 31 30  1  0  0  0  0
M  END
>  <minimizedAffinity>
-6.24340582

$$$$

 OpenBabel03212520033D

 31 34  0  0  1  0  0  0  0  0999 V2000
   41.5340   72.4160   62.3990 C   0  0  0  0  0  0  0  0  0  0  0  0
   42.2350   71.2990   61.8990 C   0  0  0  0  0  0  0  0  0  0  0  0
   42.0620   71.0140   60.5560 C   0  0  0  0  0  0  0  0  0  0  0  0
   41.2590   71.7800   59.7890 N   0  0  0  0  0  0  0  0  0  0  0  0
   40.5930   72.8570   60.3050 C   0  0  0  0  0  0  0  0  0  0  0  0
   40.7430   73.1570   61.6070 N   0  0  0  0  0  0  0  0  0  0  0  0
   41.6530   72.6620   63.4530 H   0  0  0  0  0  0  0  0  0  0  0  0
   42.8750   70.6810   62.4890 H   0  0  0  0  0  0  0  0  0  0  0  0
   39.7680   75.0620   59.6420 C   0  0  0  0  0  0  0  0  0  0  0  0
   39.7230   73.6870   59.4800 C   0  0  0  0  0  0  0  0  0  0  0  0
   38.8750   73.1030   58.5550 C   0  0  0  0  0  0  0  0  0  0  0  0
   38.0450   73.8710   57.7650 C   0  0  0  0  0  0  0  0  0  0  0  0
   37.1280   73.6770   56.8030 N   0  0  0  0  0  0  0  0  0  0  0  0
   36.6150   74.8550   56.3730 C   0  0  0  0  0  0  0  0  0  0  0  0
   37.2530   75.7980   57.1100 N   0  0  0  0  0  0  0  0  0  0  0  0
   38.1280   75.2350   57.9660 C   0  0  0  0  0  0  0  0  0  0  0  0
   38.9530   75.8760   58.8690 C   0  0  0  0  0  0  0  0  0  0  0  0
   40.4170   75.5560   60.3500 H   0  0  0  0  0  0  0  0  0  0  0  0
   38.8180   72.0280   58.4060 H   0  0  0  0  0  0  0  0  0  0  0  0
   36.8550   72.7360   56.4430 H   0  0  0  0  0  0  0  0  0  0  0  0
   35.8660   75.0500   55.6190 H   0  0  0  0  0  0  0  0  0  0  0  0
   38.9530   76.9540   58.9600 H   0  0  0  0  0  0  0  0  0  0  0  0
   41.8150   69.0010   59.1180 C   0  0  1  0  0  3  0  0  0  0  0  0
   42.7470   69.8710   59.9340 C   0  0  2  0  0  3  0  0  0  0  0  0
   43.2530   69.0110   60.8850 O   0  0  0  0  0  0  0  0  0  0  0  0
   42.2930   68.0860   61.2220 C   0  0  0  0  0  2  0  0  0  0  0  0
   41.4210   67.8450   60.0170 C   0  0  2  0  0  3  0  0  0  0  0  0
   40.7170   69.6980   58.6170 O   0  0  0  0  0  0  0  0  0  0  0  0
   40.9330   69.9370   57.6830 H   0  0  0  0  0  0  0  0  0  0  0  0
   41.8250   66.6360   59.4480 O   0  0  0  0  0  0  0  0  0  0  0  0
   41.0600   66.2240   58.9850 H   0  0  0  0  0  0  0  0  0  0  0  0
  1  7  1  0  0  0  0
  2  1  1  0  0  0  0
  2  8  1  0  0  0  0
  3  2  2  0  0  0  0
  4  5  2  0  0  0  0
  4  3  1  0  0  0  0
  5  6  1  0  0  0  0
  6  1  2  0  0  0  0
  9 18  1  0  0  0  0
 10  9  1  0  0  0  0
 10  5  1  0  0  0  0
 11 10  2  0  0  0  0
 12 16  2  0  0  0  0
 12 11  1  0  0  0  0
 13 12  1  0  0  0  0
 14 13  1  0  0  0  0
 14 15  2  0  0  0  0
 15 16  1  0  0  0  0
 16 17  1  0  0  0  0
 17 22  1  0  0  0  0
 17  9  2  0  0  0  0
 19 11  1  0  0  0  0
 20 13  1  0  0  0  0
 21 14  1  0  0  0  0
 23 28  1  1  0  0  0
 23 24  1  0  0  0  0
 23 27  1  0  0  0  0
 24  3  1  1  0  0  0
 24 25  1  0  0  0  0
 25 26  1  0  0  0  0
 27 30  1  6  0  0  0
 27 26  1  0  0  0  0
 29 28  1  0  0  0  0
 31 30  1  0  0  0  0
M  END
>  <minimizedAffinity>
-6.15472078

$$$$

 OpenBabel03212520033D

 31 34  0  0  1  0  0  0  0  0999 V2000
   44.3530   69.4840   59.9450 C   0  0  0  0  0  0  0  0  0  0  0  0
   43.5800   68.3420   60.2380 C   0  0  0  0  0  0  0  0  0  0  0  0
   42.2450   68.5600   60.5290 C   0  0  0  0  0  0  0  0  0  0  0  0
   41.7370   69.8100   60.5240 N   0  0  0  0  0  0  0  0  0  0  0  0
   42.5130   70.8960   60.2350 C   0  0  0  0  0  0  0  0  0  0  0  0
   43.8150   70.7130   59.9490 N   0  0  0  0  0  0  0  0  0  0  0  0
   45.4070   69.3390   59.7130 H   0  0  0  0  0  0  0  0  0  0  0  0
   43.9640   67.3460   60.2470 H   0  0  0  0  0  0  0  0  0  0  0  0
   42.6500   73.2380   59.5400 C   0  0  0  0  0  0  0  0  0  0  0  0
   41.9680   72.2480   60.2300 C   0  0  0  0  0  0  0  0  0  0  0  0
   40.7910   72.5280   60.9020 C   0  0  0  0  0  0  0  0  0  0  0  0
   40.2580   73.8000   60.9090 C   0  0  0  0  0  0  0  0  0  0  0  0
   39.1890   74.4290   61.4240 N   0  0  0  0  0  0  0  0  0  0  0  0
   39.1840   75.7400   61.0850 C   0  0  0  0  0  0  0  0  0  0  0  0
   40.3000   75.9070   60.3340 N   0  0  0  0  0  0  0  0  0  0  0  0
   40.9770   74.7490   60.2070 C   0  0  0  0  0  0  0  0  0  0  0  0
   42.1540   74.5320   59.5170 C   0  0  0  0  0  0  0  0  0  0  0  0
   43.5700   73.0600   59.0020 H   0  0  0  0  0  0  0  0  0  0  0  0
   40.2350   71.7730   61.4520 H   0  0  0  0  0  0  0  0  0  0  0  0
   38.4640   73.9560   62.0070 H   0  0  0  0  0  0  0  0  0  0  0  0
   38.4740   76.5170   61.3340 H   0  0  0  0  0  0  0  0  0  0  0  0
   42.6500   75.3370   58.9920 H   0  0  0  0  0  0  0  0  0  0  0  0
   41.0920   67.2990   62.3350 C   0  0  1  0  0  3  0  0  0  0  0  0
   41.3500   67.4370   60.8500 C   0  0  2  0  0  3  0  0  0  0  0  0
   41.9150   66.2300   60.4990 O   0  0  0  0  0  0  0  0  0  0  0  0
   42.6710   65.7570   61.5460 C   0  0  0  0  0  2  0  0  0  0  0  0
   42.0530   66.2370   62.8330 C   0  0  2  0  0  3  0  0  0  0  0  0
   41.2090   68.5040   63.0240 O   0  0  0  0  0  0  0  0  0  0  0  0
   40.2930   68.8600   63.1350 H   0  0  0  0  0  0  0  0  0  0  0  0
   41.3420   65.1650   63.3760 O   0  0  0  0  0  0  0  0  0  0  0  0
   41.3130   65.2580   64.3560 H   0  0  0  0  0  0  0  0  0  0  0  0
  1  6  2  0  0  0  0
  1  2  1  0  0  0  0
  2  8  1  0  0  0  0
  2  3  2  0  0  0  0
  4  3  1  0  0  0  0
  5  4  2  0  0  0  0
  6  5  1  0  0  0  0
  7  1  1  0  0  0  0
  9 10  1  0  0  0  0
 10  5  1  0  0  0  0
 10 11  2  0  0  0  0
 11 12  1  0  0  0  0
 11 19  1  0  0  0  0
 12 13  1  0  0  0  0
 13 20  1  0  0  0  0
 14 21  1  0  0  0  0
 14 13  1  0  0  0  0
 15 14  2  0  0  0  0
 16 15  1  0  0  0  0
 16 12  2  0  0  0  0
 17  9  2  0  0  0  0
 17 16  1  0  0  0  0
 18  9  1  0  0  0  0
 22 17  1  0  0  0  0
 23 27  1  0  0  0  0
 23 28  1  1  0  0  0
 24  3  1  1  0  0  0
 24 23  1  0  0  0  0
 25 24  1  0  0  0  0
 25 26  1  0  0  0  0
 26 27  1  0  0  0  0
 27 30  1  6  0  0  0
 28 29  1  0  0  0  0
 30 31  1  0  0  0  0
M  END
>  <minimizedAffinity>
-6.04028273

$$$$

 OpenBabel03212520033D

 31 34  0  0  1  0  0  0  0  0999 V2000
   42.0920   71.9250   57.4640 C   0  0  0  0  0  0  0  0  0  0  0  0
   41.8840   73.0800   58.2450 C   0  0  0  0  0  0  0  0  0  0  0  0
   41.6350   72.8780   59.5910 C   0  0  0  0  0  0  0  0  0  0  0  0
   41.6000   71.6300   60.1020 N   0  0  0  0  0  0  0  0  0  0  0  0
   41.8060   70.5300   59.3180 C   0  0  0  0  0  0  0  0  0  0  0  0
   42.0500   70.6970   58.0060 N   0  0  0  0  0  0  0  0  0  0  0  0
   42.2900   72.0570   56.4010 H   0  0  0  0  0  0  0  0  0  0  0  0
   41.9080   74.0750   57.8590 H   0  0  0  0  0  0  0  0  0  0  0  0
   41.5670   68.1160   59.0020 C   0  0  0  0  0  0  0  0  0  0  0  0
   41.7680   69.1800   59.8670 C   0  0  0  0  0  0  0  0  0  0  0  0
   41.9310   68.9750   61.2260 C   0  0  0  0  0  0  0  0  0  0  0  0
   41.8980   67.7050   61.7650 C   0  0  0  0  0  0  0  0  0  0  0  0
   42.0110   67.1350   62.9750 N   0  0  0  0  0  0  0  0  0  0  0  0
   41.8910   65.7880   62.8930 C   0  0  0  0  0  0  0  0  0  0  0  0
   41.6970   65.5390   61.5740 N   0  0  0  0  0  0  0  0  0  0  0  0
   41.6950   66.6810   60.8590 C   0  0  0  0  0  0  0  0  0  0  0  0
   41.5270   66.8210   59.4960 C   0  0  0  0  0  0  0  0  0  0  0  0
   41.4380   68.2330   57.9360 H   0  0  0  0  0  0  0  0  0  0  0  0
   42.0890   69.7890   61.9280 H   0  0  0  0  0  0  0  0  0  0  0  0
   42.1710   67.6710   63.8560 H   0  0  0  0  0  0  0  0  0  0  0  0
   41.9320   65.0400   63.6730 H   0  0  0  0  0  0  0  0  0  0  0  0
   41.3740   65.9590   58.8600 H   0  0  0  0  0  0  0  0  0  0  0  0
   40.2190   73.8040   61.4120 C   0  0  1  0  0  3  0  0  0  0  0  0
   41.4040   74.0150   60.4940 C   0  0  2  0  0  3  0  0  0  0  0  0
   41.0780   75.1550   59.7920 O   0  0  0  0  0  0  0  0  0  0  0  0
   39.7170   75.2000   59.5980 C   0  0  0  0  0  2  0  0  0  0  0  0
   39.0490   74.5150   60.7620 C   0  0  2  0  0  3  0  0  0  0  0  0
   39.9620   72.4580   61.6710 O   0  0  0  0  0  0  0  0  0  0  0  0
   40.3780   72.2510   62.5430 H   0  0  0  0  0  0  0  0  0  0  0  0
   38.5650   75.5140   61.6080 O   0  0  0  0  0  0  0  0  0  0  0  0
   37.7800   75.1750   62.0950 H   0  0  0  0  0  0  0  0  0  0  0  0
  1  6  2  0  0  0  0
  1  2  1  0  0  0  0
  2  3  2  0  0  0  0
  3  4  1  0  0  0  0
  5 10  1  0  0  0  0
  5  4  2  0  0  0  0
  6  5  1  0  0  0  0
  7  1  1  0  0  0  0
  8  2  1  0  0  0  0
  9 17  2  0  0  0  0
  9 10  1  0  0  0  0
 10 11  2  0  0  0  0
 11 12  1  0  0  0  0
 11 19  1  0  0  0  0
 12 13  1  0  0  0  0
 13 20  1  0  0  0  0
 14 13  1  0  0  0  0
 14 21  1  0  0  0  0
 15 14  2  0  0  0  0
 16 15  1  0  0  0  0
 16 12  2  0  0  0  0
 17 16  1  0  0  0  0
 18  9  1  0  0  0  0
 22 17  1  0  0  0  0
 23 28  1  6  0  0  0
 24  3  1  6  0  0  0
 24 23  1  0  0  0  0
 25 24  1  0  0  0  0
 26 25  1  0  0  0  0
 26 27  1  0  0  0  0
 27 23  1  0  0  0  0
 27 30  1  1  0  0  0
 28 29  1  0  0  0  0
 30 31  1  0  0  0  0
M  END
>  <minimizedAffinity>
-5.93765926

$$$$

 OpenBabel03212520033D

 31 34  0  0  1  0  0  0  0  0999 V2000
   41.8010   71.6960   57.4170 C   0  0  0  0  0  0  0  0  0  0  0  0
   41.3680   72.9780   57.8160 C   0  0  0  0  0  0  0  0  0  0  0  0
   41.2360   73.1870   59.1780 C   0  0  0  0  0  0  0  0  0  0  0  0
   41.5130   72.2000   60.0540 N   0  0  0  0  0  0  0  0  0  0  0  0
   41.9310   70.9680   59.6350 C   0  0  0  0  0  0  0  0  0  0  0  0
   42.0670   70.7360   58.3170 N   0  0  0  0  0  0  0  0  0  0  0  0
   41.9130   71.5050   56.3510 H   0  0  0  0  0  0  0  0  0  0  0  0
   41.1440   73.7710   57.1390 H   0  0  0  0  0  0  0  0  0  0  0  0
   42.8970   70.2140   61.7530 C   0  0  0  0  0  0  0  0  0  0  0  0
   42.2300   69.8980   60.5790 C   0  0  0  0  0  0  0  0  0  0  0  0
   41.8510   68.5970   60.3010 C   0  0  0  0  0  0  0  0  0  0  0  0
   42.1240   67.5700   61.1820 C   0  0  0  0  0  0  0  0  0  0  0  0
   41.9250   66.2440   61.2570 N   0  0  0  0  0  0  0  0  0  0  0  0
   42.4320   65.7400   62.4070 C   0  0  0  0  0  0  0  0  0  0  0  0
   42.9590   66.8100   63.0510 N   0  0  0  0  0  0  0  0  0  0  0  0
   42.7900   67.9390   62.3350 C   0  0  0  0  0  0  0  0  0  0  0  0
   43.1940   69.2160   62.6690 C   0  0  0  0  0  0  0  0  0  0  0  0
   43.2090   71.2160   62.0070 H   0  0  0  0  0  0  0  0  0  0  0  0
   41.3270   68.3190   59.3900 H   0  0  0  0  0  0  0  0  0  0  0  0
   41.4410   65.6880   60.5190 H   0  0  0  0  0  0  0  0  0  0  0  0
   42.4390   64.7220   62.7730 H   0  0  0  0  0  0  0  0  0  0  0  0
   43.7120   69.4140   63.5970 H   0  0  0  0  0  0  0  0  0  0  0  0
   40.2640   74.4010   61.1170 C   0  0  1  0  0  3  0  0  0  0  0  0
   40.7920   74.4880   59.7010 C   0  0  2  0  0  3  0  0  0  0  0  0
   39.7240   74.9790   58.9810 O   0  0  0  0  0  0  0  0  0  0  0  0
   38.5510   74.5070   59.5220 C   0  0  0  0  0  2  0  0  0  0  0  0
   38.7550   74.3100   61.0020 C   0  0  2  0  0  3  0  0  0  0  0  0
   40.8190   73.3480   61.8430 O   0  0  0  0  0  0  0  0  0  0  0  0
   41.5500   73.7300   62.3870 H   0  0  0  0  0  0  0  0  0  0  0  0
   38.1590   75.3930   61.6500 O   0  0  0  0  0  0  0  0  0  0  0  0
   37.8680   75.1130   62.5480 H   0  0  0  0  0  0  0  0  0  0  0  0
  1  2  2  0  0  0  0
  1  6  1  0  0  0  0
  2  3  1  0  0  0  0
  3  4  2  0  0  0  0
  5  4  1  0  0  0  0
  5 10  1  0  0  0  0
  6  5  2  0  0  0  0
  7  1  1  0  0  0  0
  8  2  1  0  0  0  0
  9 18  1  0  0  0  0
  9 17  1  0  0  0  0
 10  9  2  0  0  0  0
 11 10  1  0  0  0  0
 11 12  2  0  0  0  0
 12 13  1  0  0  0  0
 12 16  1  0  0  0  0
 13 14  1  0  0  0  0
 14 21  1  0  0  0  0
 14 15  2  0  0  0  0
 16 17  2  0  0  0  0
 16 15  1  0  0  0  0
 17 22  1  0  0  0  0
 19 11  1  0  0  0  0
 20 13  1  0  0  0  0
 23 28  1  6  0  0  0
 24  3  1  6  0  0  0
 24 23  1  0  0  0  0
 25 26  1  0  0  0  0
 25 24  1  0  0  0  0
 26 27  1  0  0  0  0
 27 23  1  0  0  0  0
 27 30  1  1  0  0  0
 28 29  1  0  0  0  0
 30 31  1  0  0  0  0
M  END
>  <minimizedAffinity>
-5.93093824

$$$$

 OpenBabel03212520033D

 31 34  0  0  1  0  0  0  0  0999 V2000
   39.1620   74.0490   60.8950 C   0  0  0  0  0  0  0  0  0  0  0  0
   40.5500   73.8480   61.0340 C   0  0  0  0  0  0  0  0  0  0  0  0
   41.3280   74.1400   59.9280 C   0  0  0  0  0  0  0  0  0  0  0  0
   40.7620   74.5910   58.7890 N   0  0  0  0  0  0  0  0  0  0  0  0
   39.4120   74.7750   58.6870 C   0  0  0  0  0  0  0  0  0  0  0  0
   38.6310   74.4980   59.7460 N   0  0  0  0  0  0  0  0  0  0  0  0
   38.5270   73.8260   61.7510 H   0  0  0  0  0  0  0  0  0  0  0  0
   41.0170   73.4930   61.9260 H   0  0  0  0  0  0  0  0  0  0  0  0
   38.2520   76.5350   57.4450 C   0  0  0  0  0  0  0  0  0  0  0  0
   38.7960   75.2600   57.4580 C   0  0  0  0  0  0  0  0  0  0  0  0
   38.7620   74.4580   56.3310 C   0  0  0  0  0  0  0  0  0  0  0  0
   38.1840   74.8990   55.1580 C   0  0  0  0  0  0  0  0  0  0  0  0
   37.9690   74.4320   53.9180 N   0  0  0  0  0  0  0  0  0  0  0  0
   37.3270   75.3500   53.1560 C   0  0  0  0  0  0  0  0  0  0  0  0
   37.1490   76.4150   53.9750 N   0  0  0  0  0  0  0  0  0  0  0  0
   37.6570   76.1760   55.2000 C   0  0  0  0  0  0  0  0  0  0  0  0
   37.6610   77.0230   56.2900 C   0  0  0  0  0  0  0  0  0  0  0  0
   38.2610   77.1930   58.3030 H   0  0  0  0  0  0  0  0  0  0  0  0
   39.1790   73.4550   56.3110 H   0  0  0  0  0  0  0  0  0  0  0  0
   38.2630   73.4840   53.5960 H   0  0  0  0  0  0  0  0  0  0  0  0
   37.0070   75.2920   52.1240 H   0  0  0  0  0  0  0  0  0  0  0  0
   37.2240   78.0110   56.2320 H   0  0  0  0  0  0  0  0  0  0  0  0
   43.5350   75.1410   59.3710 C   0  0  1  0  0  3  0  0  0  0  0  0
   42.7890   73.9660   59.9660 C   0  0  2  0  0  3  0  0  0  0  0  0
   43.1870   72.8970   59.1920 O   0  0  0  0  0  0  0  0  0  0  0  0
   43.4010   73.3210   57.9010 C   0  0  0  0  0  2  0  0  0  0  0  0
   43.8630   74.7540   57.9430 C   0  0  2  0  0  3  0  0  0  0  0  0
   42.8280   76.3390   59.4620 O   0  0  0  0  0  0  0  0  0  0  0  0
   43.1770   76.8170   60.2530 H   0  0  0  0  0  0  0  0  0  0  0  0
   45.2460   74.7490   57.7530 O   0  0  0  0  0  0  0  0  0  0  0  0
   45.5190   75.5970   57.3340 H   0  0  0  0  0  0  0  0  0  0  0  0
  1  2  1  0  0  0  0
  1  7  1  0  0  0  0
  2  8  1  0  0  0  0
  3  2  2  0  0  0  0
  4  3  1  0  0  0  0
  5  4  2  0  0  0  0
  5  6  1  0  0  0  0
  6  1  2  0  0  0  0
  9 10  1  0  0  0  0
  9 18  1  0  0  0  0
 10  5  1  0  0  0  0
 11 10  2  0  0  0  0
 12 16  2  0  0  0  0
 12 11  1  0  0  0  0
 13 12  1  0  0  0  0
 14 13  1  0  0  0  0
 14 15  2  0  0  0  0
 15 16  1  0  0  0  0
 16 17  1  0  0  0  0
 17  9  2  0  0  0  0
 19 11  1  0  0  0  0
 20 13  1  0  0  0  0
 21 14  1  0  0  0  0
 22 17  1  0  0  0  0
 23 28  1  6  0  0  0
 23 24  1  0  0  0  0
 24  3  1  6  0  0  0
 25 24  1  0  0  0  0
 26 27  1  0  0  0  0
 26 25  1  0  0  0  0
 27 30  1  1  0  0  0
 27 23  1  0  0  0  0
 28 29  1  0  0  0  0
 31 30  1  0  0  0  0
M  END
>  <minimizedAffinity>
-5.8674612

$$$$
