
 OpenBabel03212520293D

 28 30  0  0  1  0  0  0  0  0999 V2000
   39.9660   82.4750   59.0940 C   0  0  0  0  0  0  0  0  0  0  0  0
   40.8880   81.6930   58.3790 C   0  0  0  0  0  0  0  0  0  0  0  0
   42.1640   81.4980   58.9210 C   0  0  0  0  0  0  0  0  0  0  0  0
   42.4410   82.0830   60.1220 N   0  0  0  0  0  0  0  0  0  0  0  0
   41.5420   82.8210   60.7770 C   0  0  0  0  0  0  0  0  0  0  0  0
   40.3030   83.0210   60.2670 N   0  0  0  0  0  0  0  0  0  0  0  0
   38.9650   82.6580   58.7220 H   0  0  0  0  0  0  0  0  0  0  0  0
   42.8810   80.8960   58.3770 H   0  0  0  0  0  0  0  0  0  0  0  0
   40.5090   81.1170   57.1230 N   0  0  0  0  0  0  0  0  0  0  0  0
   39.6890   80.0630   57.2430 C   0  0  0  0  0  0  0  0  0  0  0  0
   39.2680   79.4360   56.0650 C   0  0  0  0  0  0  0  0  0  0  0  0
   39.7030   79.9140   54.8390 C   0  0  0  0  0  0  0  0  0  0  0  0
   39.3640   79.4000   53.7470 O   0  0  0  0  0  0  0  0  0  0  0  0
   40.5250   80.9780   54.8120 N   0  0  0  0  0  0  0  0  0  0  0  0
   40.9480   81.6030   55.9550 C   0  0  0  0  0  0  0  0  0  0  0  0
   41.7160   82.5960   55.9310 O   0  0  0  0  0  0  0  0  0  0  0  0
   39.3310   79.6660   58.1830 H   0  0  0  0  0  0  0  0  0  0  0  0
   38.6030   78.5770   56.1080 H   0  0  0  0  0  0  0  0  0  0  0  0
   40.8770   81.3690   53.8990 H   0  0  0  0  0  0  0  0  0  0  0  0
   40.7980   83.4620   63.0770 C   0  0  2  0  0  0  0  0  0  0  0  0
   41.9250   83.4130   62.0630 C   0  0  2  0  0  0  0  0  0  0  0  0
   42.2800   84.7430   61.9820 O   0  0  0  0  0  0  0  0  0  0  0  0
   42.4450   85.1130   63.3120 C   0  0  0  0  0  0  0  0  0  0  0  0
   41.4730   84.3270   64.1450 C   0  0  1  0  0  0  0  0  0  0  0  0
   40.4900   82.2020   63.5820 O   0  0  0  0  0  0  0  0  0  0  0  0
   39.7680   81.7930   63.0430 H   0  0  0  0  0  0  0  0  0  0  0  0
   40.5660   85.0990   64.8450 O   0  0  0  0  0  0  0  0  0  0  0  0
   40.0760   85.7350   64.2840 H   0  0  0  0  0  0  0  0  0  0  0  0
  1  6  1  0  0  0  0
  2  3  1  0  0  0  0
  2  1  2  0  0  0  0
  3  4  2  0  0  0  0
  4  5  1  0  0  0  0
  6  5  2  0  0  0  0
  7  1  1  0  0  0  0
  8  3  1  0  0  0  0
  9 10  1  0  0  0  0
  9  2  1  0  0  0  0
 10 17  1  0  0  0  0
 11 18  1  0  0  0  0
 11 10  2  0  0  0  0
 12 11  1  0  0  0  0
 13 12  2  0  0  0  0
 14 12  1  0  0  0  0
 14 15  1  0  0  0  0
 15  9  1  0  0  0  0
 16 15  2  0  0  0  0
 19 14  1  0  0  0  0
 20 25  1  1  0  0  0
 20 24  1  0  0  0  0
 21  5  1  6  0  0  0
 21 20  1  0  0  0  0
 22 21  1  0  0  0  0
 22 23  1  0  0  0  0
 23 24  1  0  0  0  0
 24 27  1  6  0  0  0
 26 25  1  0  0  0  0
 28 27  1  0  0  0  0
M  END
>  <minimizedAffinity>
-5.2699213

>  <minimizedRMSD>
4.65124512

$$$$
