
 OpenBabel03212520083D

 18 19  0  0  1  0  0  0  0  0999 V2000
   40.0640   81.9380   60.9980 C   0  0  0  0  0  0  0  0  0  0  0  0
   40.2120   82.7090   59.8300 C   0  0  0  0  0  0  0  0  0  0  0  0
   39.6410   83.9800   59.8170 C   0  0  0  0  0  0  0  0  0  0  0  0
   38.9750   84.4080   60.9200 N   0  0  0  0  0  0  0  0  0  0  0  0
   38.8500   83.6420   62.0300 C   0  0  0  0  0  0  0  0  0  0  0  0
   39.3950   82.4110   62.0600 N   0  0  0  0  0  0  0  0  0  0  0  0
   40.4730   80.9320   61.1070 H   0  0  0  0  0  0  0  0  0  0  0  0
   39.7640   84.5530   58.9170 H   0  0  0  0  0  0  0  0  0  0  0  0
   38.3040   84.0460   62.8760 H   0  0  0  0  0  0  0  0  0  0  0  0
   40.0760   81.6970   57.5750 C   0  0  1  0  0  3  0  0  0  0  0  0
   40.9640   82.0910   58.7240 C   0  0  1  0  0  3  0  0  0  0  0  0
   41.8540   82.9610   58.1250 O   0  0  0  0  0  0  0  0  0  0  0  0
   42.1510   82.4780   56.8790 C   0  0  0  0  0  2  0  0  0  0  0  0
   41.1720   81.3960   56.5430 C   0  0  2  0  0  3  0  0  0  0  0  0
   39.3430   80.5420   57.8440 O   0  0  0  0  0  0  0  0  0  0  0  0
   39.9230   79.9280   58.3660 H   0  0  0  0  0  0  0  0  0  0  0  0
   40.6810   81.4620   55.2500 O   0  0  0  0  0  0  0  0  0  0  0  0
   41.1610   82.1890   54.7530 H   0  0  0  0  0  0  0  0  0  0  0  0
  1  7  1  0  0  0  0
  1  6  1  0  0  0  0
  2  1  2  0  0  0  0
  3  2  1  0  0  0  0
  3  4  2  0  0  0  0
  4  5  1  0  0  0  0
  5  6  2  0  0  0  0
  5  9  1  0  0  0  0
  8  3  1  0  0  0  0
 10 15  1  1  0  0  0
 10 11  1  0  0  0  0
 11  2  1  1  0  0  0
 12 11  1  0  0  0  0
 13 12  1  0  0  0  0
 14 17  1  6  0  0  0
 14 13  1  0  0  0  0
 14 10  1  0  0  0  0
 15 16  1  0  0  0  0
 18 17  1  0  0  0  0
M  END
>  <minimizedAffinity>
-4.51436329

>  <minimizedRMSD>
0.52754283

$$$$
