
 OpenBabel03212520133D

 31 33  0  0  1  0  0  0  0  0999 V2000
   41.1340   82.6730   59.3960 Cl  0  0  0  0  0  0  0  0  0  0  0  0
   40.8450   80.9700   59.7470 C   0  0  0  0  0  0  0  0  0  0  0  0
   40.7520   80.0200   58.7600 C   0  0  0  0  0  0  0  0  0  0  0  0
   40.5270   78.7220   59.2060 C   0  0  0  0  0  0  0  0  0  0  0  0
   40.3950   78.3300   60.5260 C   0  0  0  0  0  0  0  0  0  0  0  0
   40.4970   79.3190   61.4620 C   0  0  0  0  0  0  0  0  0  0  0  0
   40.3470   78.9070   63.1680 Cl  0  0  0  0  0  0  0  0  0  0  0  0
   40.7210   80.6360   61.0720 C   0  0  0  0  0  0  0  0  0  0  0  0
   40.4490   77.9520   58.4500 H   0  0  0  0  0  0  0  0  0  0  0  0
   40.2210   77.2890   60.7570 H   0  0  0  0  0  0  0  0  0  0  0  0
   39.8820   80.7270   56.5000 C   0  0  0  0  0  0  0  0  0  0  0  0
   40.8850   80.3980   57.3990 C   0  0  0  0  0  0  0  0  0  0  0  0
   42.2160   80.4370   56.9200 C   0  0  0  0  0  0  0  0  0  0  0  0
   42.4090   80.7930   55.6220 N   0  0  0  0  0  0  0  0  0  0  0  0
   41.4040   81.1060   54.7810 C   0  0  0  0  0  0  0  0  0  0  0  0
   40.1360   81.0700   55.2350 N   0  0  0  0  0  0  0  0  0  0  0  0
   38.8860   80.6840   56.9080 H   0  0  0  0  0  0  0  0  0  0  0  0
   43.0780   80.2040   57.5180 H   0  0  0  0  0  0  0  0  0  0  0  0
   41.8050   81.4710   53.3960 C   0  0  0  0  0  0  0  0  0  0  0  0
   43.0410   80.9720   53.0690 F   0  0  0  0  0  0  0  0  0  0  0  0
   40.8750   80.9580   52.5040 F   0  0  0  0  0  0  0  0  0  0  0  0
   41.8910   82.8430   53.2530 F   0  0  0  0  0  0  0  0  0  0  0  0
   40.1180   82.9200   61.8670 C   0  0  2  0  0  3  0  0  0  0  0  0
   40.8160   81.6370   62.1650 C   0  0  2  0  0  3  0  0  0  0  0  0
   42.1390   82.0170   62.3610 O   0  0  0  0  0  0  0  0  0  0  0  0
   42.1240   83.1950   63.0780 C   0  0  0  0  0  2  0  0  0  0  0  0
   40.8210   83.8920   62.7730 C   0  0  2  0  0  3  0  0  0  0  0  0
   38.7460   82.8380   62.1960 O   0  0  0  0  0  0  0  0  0  0  0  0
   38.2420   83.4450   61.5720 H   0  0  0  0  0  0  0  0  0  0  0  0
   40.0990   84.0610   63.9570 O   0  0  0  0  0  0  0  0  0  0  0  0
   40.3680   84.9490   64.3190 H   0  0  0  0  0  0  0  0  0  0  0  0
  1  2  1  0  0  0  0
  2  8  1  0  0  0  0
  3  4  1  0  0  0  0
  3  2  2  0  0  0  0
  4  5  2  0  0  0  0
  5 10  1  0  0  0  0
  5  6  1  0  0  0  0
  6  7  1  0  0  0  0
  8  6  2  0  0  0  0
  9  4  1  0  0  0  0
 11 17  1  0  0  0  0
 11 12  1  0  0  0  0
 12  3  1  0  0  0  0
 13 12  2  0  0  0  0
 13 18  1  0  0  0  0
 14 13  1  0  0  0  0
 15 16  1  0  0  0  0
 15 14  2  0  0  0  0
 16 11  2  0  0  0  0
 19 15  1  0  0  0  0
 20 19  1  0  0  0  0
 21 19  1  0  0  0  0
 22 19  1  0  0  0  0
 23 24  1  0  0  0  0
 23 28  1  1  0  0  0
 23 27  1  0  0  0  0
 24  8  1  6  0  0  0
 24 25  1  0  0  0  0
 25 26  1  0  0  0  0
 27 26  1  0  0  0  0
 27 30  1  1  0  0  0
 29 28  1  0  0  0  0
 30 31  1  0  0  0  0
M  END
>  <minimizedAffinity>
-5.35942793

>  <minimizedRMSD>
7.69156837

$$$$
