
 OpenBabel03212520433D

 18 19  0  0  1  0  0  0  0  0999 V2000
   44.1150   82.7340   62.9720 C   0  0  0  0  0  0  0  0  0  0  0  0
   43.7620   81.5240   62.3190 C   0  0  0  0  0  0  0  0  0  0  0  0
   44.7030   80.4810   62.3000 C   0  0  0  0  0  0  0  0  0  0  0  0
   45.8980   80.6940   62.9080 N   0  0  0  0  0  0  0  0  0  0  0  0
   46.2060   81.8650   63.5250 C   0  0  0  0  0  0  0  0  0  0  0  0
   45.3200   82.8730   63.5540 N   0  0  0  0  0  0  0  0  0  0  0  0
   42.8070   81.3760   61.8420 H   0  0  0  0  0  0  0  0  0  0  0  0
   44.4890   79.5370   61.8180 H   0  0  0  0  0  0  0  0  0  0  0  0
   47.1620   82.0260   64.0080 H   0  0  0  0  0  0  0  0  0  0  0  0
   42.0150   83.5130   62.0380 C   0  0  1  0  0  3  0  0  0  0  0  0
   43.1180   83.8350   62.9900 C   0  0  1  0  0  3  0  0  0  0  0  0
   42.5490   84.0200   64.2450 O   0  0  0  0  0  0  0  0  0  0  0  0
   41.3520   84.6730   63.9450 C   0  0  0  0  0  2  0  0  0  0  0  0
   40.7820   83.7450   62.8890 C   0  0  2  0  0  3  0  0  0  0  0  0
   41.9830   84.5010   61.0460 O   0  0  0  0  0  0  0  0  0  0  0  0
   42.7800   85.0980   61.1100 H   0  0  0  0  0  0  0  0  0  0  0  0
   40.3920   82.5810   63.5090 O   0  0  0  0  0  0  0  0  0  0  0  0
   40.1230   81.8610   62.8860 H   0  0  0  0  0  0  0  0  0  0  0  0
  1  6  1  0  0  0  0
  2  1  2  0  0  0  0
  3  2  1  0  0  0  0
  3  4  2  0  0  0  0
  4  5  1  0  0  0  0
  5  6  2  0  0  0  0
  5  9  1  0  0  0  0
  7  2  1  0  0  0  0
  8  3  1  0  0  0  0
 10 15  1  6  0  0  0
 10 14  1  0  0  0  0
 10 11  1  0  0  0  0
 11  1  1  1  0  0  0
 11 12  1  0  0  0  0
 13 12  1  0  0  0  0
 14 17  1  1  0  0  0
 14 13  1  0  0  0  0
 15 16  1  0  0  0  0
 18 17  1  0  0  0  0
M  END
>  <minimizedAffinity>
-4.36185932

>  <minimizedRMSD>
5.96889019

$$$$
