
 OpenBabel03212520433D

 18 19  0  0  1  0  0  0  0  0999 V2000
   40.3210   82.1610   61.2050 C   0  0  0  0  0  0  0  0  0  0  0  0
   40.4240   82.8430   59.9650 C   0  0  0  0  0  0  0  0  0  0  0  0
   39.6840   84.0260   59.7950 C   0  0  0  0  0  0  0  0  0  0  0  0
   38.9120   84.4460   60.8290 N   0  0  0  0  0  0  0  0  0  0  0  0
   38.8350   83.7680   62.0050 C   0  0  0  0  0  0  0  0  0  0  0  0
   39.5350   82.6370   62.1870 N   0  0  0  0  0  0  0  0  0  0  0  0
   41.0430   82.4930   59.1560 H   0  0  0  0  0  0  0  0  0  0  0  0
   39.7240   84.5880   58.8720 H   0  0  0  0  0  0  0  0  0  0  0  0
   38.2160   84.1110   62.8250 H   0  0  0  0  0  0  0  0  0  0  0  0
   40.1650   79.7650   61.5610 C   0  0  1  0  0  3  0  0  0  0  0  0
   41.1040   80.9110   61.3820 C   0  0  1  0  0  3  0  0  0  0  0  0
   41.9100   80.6250   60.2850 O   0  0  0  0  0  0  0  0  0  0  0  0
   42.1240   79.2520   60.4130 C   0  0  0  0  0  2  0  0  0  0  0  0
   40.6980   78.7570   60.5620 C   0  0  2  0  0  3  0  0  0  0  0  0
   40.3870   79.2020   62.8240 O   0  0  0  0  0  0  0  0  0  0  0  0
   41.0000   79.7740   63.3670 H   0  0  0  0  0  0  0  0  0  0  0  0
   40.0680   78.8960   59.3470 O   0  0  0  0  0  0  0  0  0  0  0  0
   39.0960   78.7190   59.3730 H   0  0  0  0  0  0  0  0  0  0  0  0
  1  6  1  0  0  0  0
  2  1  2  0  0  0  0
  3  2  1  0  0  0  0
  3  4  2  0  0  0  0
  4  5  1  0  0  0  0
  5  6  2  0  0  0  0
  5  9  1  0  0  0  0
  7  2  1  0  0  0  0
  8  3  1  0  0  0  0
 10 15  1  1  0  0  0
 11  1  1  6  0  0  0
 11 10  1  0  0  0  0
 12 13  1  0  0  0  0
 12 11  1  0  0  0  0
 13 14  1  0  0  0  0
 14 17  1  6  0  0  0
 14 10  1  0  0  0  0
 15 16  1  0  0  0  0
 17 18  1  0  0  0  0
M  END
>  <minimizedAffinity>
-4.50017643

>  <minimizedRMSD>
0.780452609

$$$$
