
 OpenBabel03212520433D

 18 19  0  0  1  0  0  0  0  0999 V2000
   40.3210   82.1610   61.2060 C   0  0  0  0  0  0  0  0  0  0  0  0
   40.4240   82.8430   59.9660 C   0  0  0  0  0  0  0  0  0  0  0  0
   39.6830   84.0260   59.7960 C   0  0  0  0  0  0  0  0  0  0  0  0
   38.9120   84.4450   60.8300 N   0  0  0  0  0  0  0  0  0  0  0  0
   38.8350   83.7680   62.0060 C   0  0  0  0  0  0  0  0  0  0  0  0
   39.5350   82.6370   62.1880 N   0  0  0  0  0  0  0  0  0  0  0  0
   41.0430   82.4930   59.1560 H   0  0  0  0  0  0  0  0  0  0  0  0
   39.7220   84.5880   58.8720 H   0  0  0  0  0  0  0  0  0  0  0  0
   38.2170   84.1110   62.8260 H   0  0  0  0  0  0  0  0  0  0  0  0
   40.1660   79.7650   61.5600 C   0  0  1  0  0  3  0  0  0  0  0  0
   41.1050   80.9120   61.3830 C   0  0  1  0  0  3  0  0  0  0  0  0
   41.9120   80.6260   60.2870 O   0  0  0  0  0  0  0  0  0  0  0  0
   42.1240   79.2530   60.4130 C   0  0  0  0  0  2  0  0  0  0  0  0
   40.6980   78.7570   60.5620 C   0  0  2  0  0  3  0  0  0  0  0  0
   40.3850   79.2020   62.8230 O   0  0  0  0  0  0  0  0  0  0  0  0
   41.0000   79.7730   63.3670 H   0  0  0  0  0  0  0  0  0  0  0  0
   40.0710   78.8970   59.3460 O   0  0  0  0  0  0  0  0  0  0  0  0
   39.0970   78.7190   59.3710 H   0  0  0  0  0  0  0  0  0  0  0  0
  1  6  1  0  0  0  0
  2  1  2  0  0  0  0
  3  2  1  0  0  0  0
  3  4  2  0  0  0  0
  4  5  1  0  0  0  0
  5  6  2  0  0  0  0
  5  9  1  0  0  0  0
  7  2  1  0  0  0  0
  8  3  1  0  0  0  0
 10 15  1  1  0  0  0
 11  1  1  6  0  0  0
 11 10  1  0  0  0  0
 12 13  1  0  0  0  0
 12 11  1  0  0  0  0
 13 14  1  0  0  0  0
 14 17  1  6  0  0  0
 14 10  1  0  0  0  0
 15 16  1  0  0  0  0
 17 18  1  0  0  0  0
M  END
>  <minimizedAffinity>
-4.50021076

>  <minimizedRMSD>
1.00149977

$$$$
