
 OpenBabel03212520083D

 18 19  0  0  1  0  0  0  0  0999 V2000
   40.0630   81.9380   60.9970 C   0  0  0  0  0  0  0  0  0  0  0  0
   40.2120   82.7090   59.8290 C   0  0  0  0  0  0  0  0  0  0  0  0
   39.6410   83.9800   59.8160 C   0  0  0  0  0  0  0  0  0  0  0  0
   38.9750   84.4080   60.9190 N   0  0  0  0  0  0  0  0  0  0  0  0
   38.8500   83.6420   62.0290 C   0  0  0  0  0  0  0  0  0  0  0  0
   39.3950   82.4120   62.0590 N   0  0  0  0  0  0  0  0  0  0  0  0
   40.4730   80.9320   61.1060 H   0  0  0  0  0  0  0  0  0  0  0  0
   39.7650   84.5530   58.9170 H   0  0  0  0  0  0  0  0  0  0  0  0
   38.3050   84.0460   62.8750 H   0  0  0  0  0  0  0  0  0  0  0  0
   40.0750   81.6960   57.5750 C   0  0  1  0  0  3  0  0  0  0  0  0
   40.9640   82.0910   58.7230 C   0  0  1  0  0  3  0  0  0  0  0  0
   41.8550   82.9610   58.1230 O   0  0  0  0  0  0  0  0  0  0  0  0
   42.1510   82.4790   56.8780 C   0  0  0  0  0  2  0  0  0  0  0  0
   41.1730   81.3960   56.5410 C   0  0  2  0  0  3  0  0  0  0  0  0
   39.3420   80.5410   57.8440 O   0  0  0  0  0  0  0  0  0  0  0  0
   39.9240   79.9280   58.3660 H   0  0  0  0  0  0  0  0  0  0  0  0
   40.6800   81.4600   55.2500 O   0  0  0  0  0  0  0  0  0  0  0  0
   41.1590   82.1880   54.7520 H   0  0  0  0  0  0  0  0  0  0  0  0
  1  7  1  0  0  0  0
  1  6  1  0  0  0  0
  2  1  2  0  0  0  0
  3  2  1  0  0  0  0
  3  4  2  0  0  0  0
  4  5  1  0  0  0  0
  5  6  2  0  0  0  0
  5  9  1  0  0  0  0
  8  3  1  0  0  0  0
 10 15  1  1  0  0  0
 10 11  1  0  0  0  0
 11  2  1  1  0  0  0
 12 11  1  0  0  0  0
 13 12  1  0  0  0  0
 14 17  1  6  0  0  0
 14 13  1  0  0  0  0
 14 10  1  0  0  0  0
 15 16  1  0  0  0  0
 18 17  1  0  0  0  0
M  END
>  <minimizedAffinity>
-4.51802206

>  <minimizedRMSD>
0.782913983

$$$$
