
 OpenBabel03212520083D

 18 19  0  0  1  0  0  0  0  0999 V2000
   40.0360   81.9930   60.8510 C   0  0  0  0  0  0  0  0  0  0  0  0
   40.1530   82.7970   59.7010 C   0  0  0  0  0  0  0  0  0  0  0  0
   39.5990   84.0740   59.7450 C   0  0  0  0  0  0  0  0  0  0  0  0
   38.9780   84.4770   60.8840 N   0  0  0  0  0  0  0  0  0  0  0  0
   38.8820   83.6800   61.9750 C   0  0  0  0  0  0  0  0  0  0  0  0
   39.4110   82.4430   61.9490 N   0  0  0  0  0  0  0  0  0  0  0  0
   40.4360   80.9790   60.9160 H   0  0  0  0  0  0  0  0  0  0  0  0
   39.6970   84.6720   58.8590 H   0  0  0  0  0  0  0  0  0  0  0  0
   38.3720   84.0650   62.8510 H   0  0  0  0  0  0  0  0  0  0  0  0
   39.9140   81.5650   57.5670 C   0  0  1  0  0  3  0  0  0  0  0  0
   40.8570   82.2030   58.5510 C   0  0  1  0  0  3  0  0  0  0  0  0
   41.5080   83.1420   57.7730 O   0  0  0  0  0  0  0  0  0  0  0  0
   41.7270   82.5950   56.5380 C   0  0  0  0  0  2  0  0  0  0  0  0
   40.9120   81.3450   56.4200 C   0  0  2  0  0  3  0  0  0  0  0  0
   39.4260   80.3400   58.0180 O   0  0  0  0  0  0  0  0  0  0  0  0
   40.1610   79.8790   58.5000 H   0  0  0  0  0  0  0  0  0  0  0  0
   40.2630   81.2080   55.2060 O   0  0  0  0  0  0  0  0  0  0  0  0
   40.5480   81.9510   54.5940 H   0  0  0  0  0  0  0  0  0  0  0  0
  1  7  1  0  0  0  0
  1  6  1  0  0  0  0
  2  3  1  0  0  0  0
  2  1  2  0  0  0  0
  3  4  2  0  0  0  0
  4  5  1  0  0  0  0
  5  9  1  0  0  0  0
  6  5  2  0  0  0  0
  8  3  1  0  0  0  0
 10 15  1  1  0  0  0
 10 11  1  0  0  0  0
 11  2  1  1  0  0  0
 12 11  1  0  0  0  0
 13 12  1  0  0  0  0
 14 17  1  6  0  0  0
 14 13  1  0  0  0  0
 14 10  1  0  0  0  0
 15 16  1  0  0  0  0
 18 17  1  0  0  0  0
M  END
>  <minimizedAffinity>
-4.58023214

>  <minimizedRMSD>
0.171160072

$$$$
