
 OpenBabel03212520433D

 18 19  0  0  1  0  0  0  0  0999 V2000
   40.5800   83.2380   62.4070 C   0  0  0  0  0  0  0  0  0  0  0  0
   41.9930   83.3700   62.4140 C   0  0  0  0  0  0  0  0  0  0  0  0
   42.6090   83.8450   63.5840 C   0  0  0  0  0  0  0  0  0  0  0  0
   41.8150   84.1500   64.6400 N   0  0  0  0  0  0  0  0  0  0  0  0
   40.4630   84.0120   64.6020 C   0  0  0  0  0  0  0  0  0  0  0  0
   39.8560   83.5590   63.4940 N   0  0  0  0  0  0  0  0  0  0  0  0
   42.6060   83.1220   61.5630 H   0  0  0  0  0  0  0  0  0  0  0  0
   43.6820   83.9660   63.6460 H   0  0  0  0  0  0  0  0  0  0  0  0
   39.8370   84.2580   65.4500 H   0  0  0  0  0  0  0  0  0  0  0  0
   40.2370   83.6660   60.0430 C   0  0  1  0  0  3  0  0  0  0  0  0
   39.9310   82.7350   61.1690 C   0  0  1  0  0  3  0  0  0  0  0  0
   40.3820   81.4710   60.8030 O   0  0  0  0  0  0  0  0  0  0  0  0
   40.0820   81.4220   59.4410 C   0  0  0  0  0  2  0  0  0  0  0  0
   40.7170   82.7150   58.9650 C   0  0  2  0  0  3  0  0  0  0  0  0
   39.0320   84.2000   59.5680 O   0  0  0  0  0  0  0  0  0  0  0  0
   38.2730   83.9620   60.1730 H   0  0  0  0  0  0  0  0  0  0  0  0
   42.0840   82.5650   59.0220 O   0  0  0  0  0  0  0  0  0  0  0  0
   42.5900   83.3970   58.8520 H   0  0  0  0  0  0  0  0  0  0  0  0
  1  2  2  0  0  0  0
  1  6  1  0  0  0  0
  2  3  1  0  0  0  0
  3  8  1  0  0  0  0
  3  4  2  0  0  0  0
  5  4  1  0  0  0  0
  5  9  1  0  0  0  0
  6  5  2  0  0  0  0
  7  2  1  0  0  0  0
 10 15  1  6  0  0  0
 10 11  1  0  0  0  0
 11  1  1  1  0  0  0
 12 11  1  0  0  0  0
 13 12  1  0  0  0  0
 14 17  1  1  0  0  0
 14 13  1  0  0  0  0
 14 10  1  0  0  0  0
 15 16  1  0  0  0  0
 18 17  1  0  0  0  0
M  END
>  <minimizedAffinity>
-4.49760199

>  <minimizedRMSD>
3.88483834

$$$$
