
 OpenBabel03212520083D

 18 19  0  0  1  0  0  0  0  0999 V2000
   40.1050   81.9430   60.8000 C   0  0  0  0  0  0  0  0  0  0  0  0
   40.1990   82.7880   59.6780 C   0  0  0  0  0  0  0  0  0  0  0  0
   39.6080   84.0470   59.7650 C   0  0  0  0  0  0  0  0  0  0  0  0
   38.9770   84.3940   60.9160 N   0  0  0  0  0  0  0  0  0  0  0  0
   38.9040   83.5590   61.9790 C   0  0  0  0  0  0  0  0  0  0  0  0
   39.4690   82.3380   61.9130 N   0  0  0  0  0  0  0  0  0  0  0  0
   40.5340   80.9400   60.8310 H   0  0  0  0  0  0  0  0  0  0  0  0
   39.6900   84.6770   58.8990 H   0  0  0  0  0  0  0  0  0  0  0  0
   38.3840   83.9000   62.8680 H   0  0  0  0  0  0  0  0  0  0  0  0
   40.0130   81.5070   57.5680 C   0  0  1  0  0  3  0  0  0  0  0  0
   40.9190   82.2530   58.5090 C   0  0  1  0  0  3  0  0  0  0  0  0
   41.4420   83.2420   57.6980 O   0  0  0  0  0  0  0  0  0  0  0  0
   41.6720   82.7030   56.4620 C   0  0  0  0  0  2  0  0  0  0  0  0
   40.9850   81.3740   56.3860 C   0  0  2  0  0  3  0  0  0  0  0  0
   39.6680   80.2460   58.0500 O   0  0  0  0  0  0  0  0  0  0  0  0
   40.4640   79.8690   58.5090 H   0  0  0  0  0  0  0  0  0  0  0  0
   40.3110   81.1540   55.1990 O   0  0  0  0  0  0  0  0  0  0  0  0
   40.4960   81.9140   54.5690 H   0  0  0  0  0  0  0  0  0  0  0  0
  1  7  1  0  0  0  0
  1  6  1  0  0  0  0
  2  3  1  0  0  0  0
  2  1  2  0  0  0  0
  3  4  2  0  0  0  0
  4  5  1  0  0  0  0
  5  9  1  0  0  0  0
  6  5  2  0  0  0  0
  8  3  1  0  0  0  0
 10 15  1  1  0  0  0
 10 11  1  0  0  0  0
 11  2  1  1  0  0  0
 12 11  1  0  0  0  0
 13 12  1  0  0  0  0
 14 17  1  6  0  0  0
 14 13  1  0  0  0  0
 14 10  1  0  0  0  0
 15 16  1  0  0  0  0
 18 17  1  0  0  0  0
M  END
>  <minimizedAffinity>
-4.61197138

>  <minimizedRMSD>
0.467516631

$$$$
