
 OpenBabel03212520383D

 26 28  0  0  1  0  0  0  0  0999 V2000
   43.6380   86.2430   61.4160 C   0  0  1  0  0  0  0  0  0  0  0  0
   44.4460   87.5220   61.5460 C   0  0  0  0  0  0  0  0  0  0  0  0
   45.0440   86.2680   60.9540 C   0  0  2  0  0  0  0  0  0  0  0  0
   42.7930   86.2520   60.6940 H   0  0  0  0  0  0  0  0  0  0  0  0
   44.7490   87.8380   62.5620 H   0  0  0  0  0  0  0  0  0  0  0  0
   44.1030   88.3370   60.9190 H   0  0  0  0  0  0  0  0  0  0  0  0
   45.8120   85.8030   61.6100 H   0  0  0  0  0  0  0  0  0  0  0  0
   44.1970   85.8880   58.5980 C   0  0  1  0  0  3  0  0  0  0  0  0
   45.3500   86.1720   59.5080 C   0  0  2  0  0  3  0  0  0  0  0  0
   46.2200   85.1330   59.1870 O   0  0  0  0  0  0  0  0  0  0  0  0
   46.1940   85.0010   57.8230 C   0  0  0  0  0  2  0  0  0  0  0  0
   44.9950   85.7860   57.2890 C   0  0  1  0  0  3  0  0  0  0  0  0
   43.6590   84.6070   58.7500 O   0  0  0  0  0  0  0  0  0  0  0  0
   44.4060   83.9700   58.7410 H   0  0  0  0  0  0  0  0  0  0  0  0
   44.3120   85.1260   56.2980 O   0  0  0  0  0  0  0  0  0  0  0  0
   44.4580   85.6600   55.4540 H   0  0  0  0  0  0  0  0  0  0  0  0
   43.3440   85.6390   62.6570 O   0  0  0  0  0  0  0  0  0  0  0  0
   42.0380   82.2960   62.1690 C   0  0  0  0  0  0  0  0  0  0  0  0
   40.9320   82.2940   63.0160 C   0  0  0  0  0  0  0  0  0  0  0  0
   40.6560   83.4660   63.7490 C   0  0  0  0  0  0  0  0  0  0  0  0
   41.5000   84.4950   63.5610 N   0  0  0  0  0  0  0  0  0  0  0  0
   42.5690   84.4930   62.7420 C   0  0  0  0  0  0  0  0  0  0  0  0
   42.8330   83.3830   62.0440 N   0  0  0  0  0  0  0  0  0  0  0  0
   42.2560   81.4000   61.6030 H   0  0  0  0  0  0  0  0  0  0  0  0
   40.2660   81.4530   63.1490 H   0  0  0  0  0  0  0  0  0  0  0  0
   39.8160   83.5620   64.4350 H   0  0  0  0  0  0  0  0  0  0  0  0
  1  4  1  6  0  0  0
  1  2  1  0  0  0  0
  1 17  1  0  0  0  0
  2  5  1  0  0  0  0
  3  1  1  0  0  0  0
  3  2  1  0  0  0  0
  3  7  1  1  0  0  0
  6  2  1  0  0  0  0
  8 13  1  1  0  0  0
  8  9  1  0  0  0  0
  9 10  1  1  0  0  0
  9  3  1  0  0  0  0
 11 10  1  0  0  0  0
 12 15  1  6  0  0  0
 12 11  1  0  0  0  0
 12  8  1  0  0  0  0
 14 13  1  0  0  0  0
 16 15  1  0  0  0  0
 17 22  1  0  0  0  0
 18 19  1  0  0  0  0
 19 25  1  0  0  0  0
 19 20  2  0  0  0  0
 20 26  1  0  0  0  0
 21 20  1  0  0  0  0
 22 21  2  0  0  0  0
 23 18  2  0  0  0  0
 23 22  1  0  0  0  0
 24 18  1  0  0  0  0
M  END
>  <minimizedAffinity>
-3.88449454

>  <minimizedRMSD>
3.37097597

$$$$
