
 OpenBabel03212520113D

 28 30  0  0  1  0  0  0  0  0999 V2000
   42.4490   81.5510   59.2040 C   0  0  0  0  0  0  0  0  0  0  0  0
   41.6800   82.6870   59.5460 C   0  0  0  0  0  0  0  0  0  0  0  0
   41.1540   83.4680   58.4920 C   0  0  0  0  0  0  0  0  0  0  0  0
   41.4310   83.0680   57.2160 N   0  0  0  0  0  0  0  0  0  0  0  0
   42.1720   81.9730   56.9350 C   0  0  0  0  0  0  0  0  0  0  0  0
   42.6780   81.2180   57.9200 N   0  0  0  0  0  0  0  0  0  0  0  0
   42.7760   81.0610   60.0900 H   0  0  0  0  0  0  0  0  0  0  0  0
   40.5620   84.3440   58.5750 H   0  0  0  0  0  0  0  0  0  0  0  0
   43.8320   84.4320   60.8190 Cl  0  0  0  0  0  0  0  0  0  0  0  0
   42.2860   83.9600   61.5070 C   0  0  0  0  0  0  0  0  0  0  0  0
   41.3580   83.1550   60.8490 C   0  0  0  0  0  0  0  0  0  0  0  0
   40.1980   82.8830   61.5350 C   0  0  0  0  0  0  0  0  0  0  0  0
   39.8740   83.3300   62.7970 C   0  0  0  0  0  0  0  0  0  0  0  0
   40.8120   84.1230   63.4200 C   0  0  0  0  0  0  0  0  0  0  0  0
   40.5240   84.7650   65.0430 Cl  0  0  0  0  0  0  0  0  0  0  0  0
   41.9890   84.4250   62.7780 C   0  0  0  0  0  0  0  0  0  0  0  0
   39.4650   82.2540   61.0290 H   0  0  0  0  0  0  0  0  0  0  0  0
   38.9380   83.0750   63.2770 H   0  0  0  0  0  0  0  0  0  0  0  0
   42.7030   85.0560   63.3080 H   0  0  0  0  0  0  0  0  0  0  0  0
   41.3960   80.6430   54.9680 C   0  0  2  0  0  0  0  0  0  0  0  0
   42.4170   81.6170   55.5110 C   0  0  1  0  0  0  0  0  0  0  0  0
   42.1920   82.7260   54.7040 O   0  0  0  0  0  0  0  0  0  0  0  0
   42.0310   82.2510   53.4080 C   0  0  0  0  0  0  0  0  0  0  0  0
   41.7190   80.7840   53.4730 C   0  0  2  0  0  0  0  0  0  0  0  0
   40.0860   81.1330   55.0920 O   0  0  0  0  0  0  0  0  0  0  0  0
   39.7940   81.2350   56.0310 H   0  0  0  0  0  0  0  0  0  0  0  0
   40.6600   80.4170   52.6680 O   0  0  0  0  0  0  0  0  0  0  0  0
   40.5680   79.4510   52.6540 H   0  0  0  0  0  0  0  0  0  0  0  0
  1  2  1  0  0  0  0
  1  7  1  0  0  0  0
  2 11  1  0  0  0  0
  3  8  1  0  0  0  0
  3  2  2  0  0  0  0
  4  3  1  0  0  0  0
  5  4  2  0  0  0  0
  5  6  1  0  0  0  0
  6  1  2  0  0  0  0
  9 10  1  0  0  0  0
 10 16  1  0  0  0  0
 11 10  2  0  0  0  0
 11 12  1  0  0  0  0
 12 13  2  0  0  0  0
 13 18  1  0  0  0  0
 13 14  1  0  0  0  0
 14 15  1  0  0  0  0
 16 19  1  0  0  0  0
 16 14  2  0  0  0  0
 17 12  1  0  0  0  0
 20 25  1  6  0  0  0
 20 21  1  0  0  0  0
 21  5  1  1  0  0  0
 22 21  1  0  0  0  0
 23 24  1  0  0  0  0
 23 22  1  0  0  0  0
 24 27  1  6  0  0  0
 24 20  1  0  0  0  0
 25 26  1  0  0  0  0
 28 27  1  0  0  0  0
M  END
>  <minimizedAffinity>
-4.42489862

>  <minimizedRMSD>
8.17118263

$$$$
