
 OpenBabel03212520433D

 18 19  0  0  1  0  0  0  0  0999 V2000
   40.1570   82.0030   60.7970 C   0  0  0  0  0  0  0  0  0  0  0  0
   40.2180   82.8890   59.6900 C   0  0  0  0  0  0  0  0  0  0  0  0
   39.5730   84.1320   59.8000 C   0  0  0  0  0  0  0  0  0  0  0  0
   38.9270   84.4120   60.9600 N   0  0  0  0  0  0  0  0  0  0  0  0
   38.8870   83.5410   62.0020 C   0  0  0  0  0  0  0  0  0  0  0  0
   39.4980   82.3480   61.9170 N   0  0  0  0  0  0  0  0  0  0  0  0
   40.7370   82.6470   58.7770 H   0  0  0  0  0  0  0  0  0  0  0  0
   39.5860   84.8480   58.9890 H   0  0  0  0  0  0  0  0  0  0  0  0
   38.3690   83.7720   62.9240 H   0  0  0  0  0  0  0  0  0  0  0  0
   41.6330   80.4350   61.9180 C   0  0  1  0  0  3  0  0  0  0  0  0
   40.8410   80.6890   60.6790 C   0  0  1  0  0  3  0  0  0  0  0  0
   39.9500   79.6330   60.5280 O   0  0  0  0  0  0  0  0  0  0  0  0
   40.7010   78.5360   60.9500 C   0  0  0  0  0  2  0  0  0  0  0  0
   41.1990   79.0330   62.2940 C   0  0  2  0  0  3  0  0  0  0  0  0
   42.9840   80.3340   61.5680 O   0  0  0  0  0  0  0  0  0  0  0  0
   43.1280   80.5990   60.6150 H   0  0  0  0  0  0  0  0  0  0  0  0
   40.1280   79.0700   63.1570 O   0  0  0  0  0  0  0  0  0  0  0  0
   40.3240   79.5010   64.0250 H   0  0  0  0  0  0  0  0  0  0  0  0
  1  6  1  0  0  0  0
  2  3  1  0  0  0  0
  2  1  2  0  0  0  0
  3  4  2  0  0  0  0
  4  5  1  0  0  0  0
  5  9  1  0  0  0  0
  6  5  2  0  0  0  0
  7  2  1  0  0  0  0
  8  3  1  0  0  0  0
 10 15  1  6  0  0  0
 10 14  1  0  0  0  0
 11  1  1  1  0  0  0
 11 10  1  0  0  0  0
 12 11  1  0  0  0  0
 12 13  1  0  0  0  0
 13 14  1  0  0  0  0
 14 17  1  1  0  0  0
 16 15  1  0  0  0  0
 17 18  1  0  0  0  0
M  END
>  <minimizedAffinity>
-4.81270885

>  <minimizedRMSD>
0.471041203

$$$$
