
 OpenBabel03212520433D

 18 19  0  0  1  0  0  0  0  0999 V2000
   39.8270   81.8690   61.1490 C   0  0  0  0  0  0  0  0  0  0  0  0
   40.1020   82.5320   59.9250 C   0  0  0  0  0  0  0  0  0  0  0  0
   39.7000   83.8720   59.7910 C   0  0  0  0  0  0  0  0  0  0  0  0
   39.0710   84.4530   60.8430 N   0  0  0  0  0  0  0  0  0  0  0  0
   38.8220   83.7910   62.0030 C   0  0  0  0  0  0  0  0  0  0  0  0
   39.1990   82.5110   62.1500 N   0  0  0  0  0  0  0  0  0  0  0  0
   40.6040   82.0510   59.1010 H   0  0  0  0  0  0  0  0  0  0  0  0
   39.8830   84.4270   58.8810 H   0  0  0  0  0  0  0  0  0  0  0  0
   38.3190   84.2630   62.8380 H   0  0  0  0  0  0  0  0  0  0  0  0
   40.8740   80.0010   60.0070 C   0  0  1  0  0  3  0  0  0  0  0  0
   40.2540   80.4530   61.2880 C   0  0  1  0  0  3  0  0  0  0  0  0
   41.1950   80.2730   62.2950 O   0  0  0  0  0  0  0  0  0  0  0  0
   41.8140   79.0790   61.9260 C   0  0  0  0  0  2  0  0  0  0  0  0
   42.1710   79.3790   60.4830 C   0  0  2  0  0  3  0  0  0  0  0  0
   40.1130   78.9460   59.4940 O   0  0  0  0  0  0  0  0  0  0  0  0
   39.2620   78.8350   60.0060 H   0  0  0  0  0  0  0  0  0  0  0  0
   43.1860   80.3070   60.4810 O   0  0  0  0  0  0  0  0  0  0  0  0
   43.4060   80.6640   59.5850 H   0  0  0  0  0  0  0  0  0  0  0  0
  1  6  1  0  0  0  0
  2  1  2  0  0  0  0
  3  2  1  0  0  0  0
  3  4  2  0  0  0  0
  4  5  1  0  0  0  0
  5  6  2  0  0  0  0
  5  9  1  0  0  0  0
  7  2  1  0  0  0  0
  8  3  1  0  0  0  0
 10 15  1  1  0  0  0
 10 14  1  0  0  0  0
 10 11  1  0  0  0  0
 11  1  1  6  0  0  0
 11 12  1  0  0  0  0
 13 12  1  0  0  0  0
 14 17  1  1  0  0  0
 14 13  1  0  0  0  0
 15 16  1  0  0  0  0
 18 17  1  0  0  0  0
M  END
>  <minimizedAffinity>
-4.31451607

>  <minimizedRMSD>
0.944488466

$$$$
