
 OpenBabel03212520123D

 31 33  0  0  1  0  0  0  0  0999 V2000
   42.6160   83.7290   58.3600 Cl  0  0  0  0  0  0  0  0  0  0  0  0
   41.4530   82.4190   58.1670 C   0  0  0  0  0  0  0  0  0  0  0  0
   40.7450   81.9000   59.2220 C   0  0  0  0  0  0  0  0  0  0  0  0
   39.8640   80.8740   58.8980 C   0  0  0  0  0  0  0  0  0  0  0  0
   39.6530   80.3550   57.6340 C   0  0  0  0  0  0  0  0  0  0  0  0
   40.3850   80.9120   56.6240 C   0  0  0  0  0  0  0  0  0  0  0  0
   40.1750   80.3160   54.9800 Cl  0  0  0  0  0  0  0  0  0  0  0  0
   41.2830   81.9420   56.8910 C   0  0  0  0  0  0  0  0  0  0  0  0
   39.2930   80.4450   59.7120 H   0  0  0  0  0  0  0  0  0  0  0  0
   38.9410   79.5550   57.4990 H   0  0  0  0  0  0  0  0  0  0  0  0
   41.9500   82.1040   61.4290 C   0  0  0  0  0  0  0  0  0  0  0  0
   40.9430   82.4160   60.5290 C   0  0  0  0  0  0  0  0  0  0  0  0
   39.9810   83.3660   60.9460 C   0  0  0  0  0  0  0  0  0  0  0  0
   40.1170   83.8990   62.1890 N   0  0  0  0  0  0  0  0  0  0  0  0
   41.1130   83.5670   63.0340 C   0  0  0  0  0  0  0  0  0  0  0  0
   42.0310   82.6620   62.6390 N   0  0  0  0  0  0  0  0  0  0  0  0
   42.6600   81.3770   61.0700 H   0  0  0  0  0  0  0  0  0  0  0  0
   39.1550   83.6910   60.3400 H   0  0  0  0  0  0  0  0  0  0  0  0
   41.1020   84.2510   64.3540 C   0  0  0  0  0  0  0  0  0  0  0  0
   40.7840   85.5810   64.2430 F   0  0  0  0  0  0  0  0  0  0  0  0
   40.1610   83.6430   65.1720 F   0  0  0  0  0  0  0  0  0  0  0  0
   42.3490   84.1980   64.9470 F   0  0  0  0  0  0  0  0  0  0  0  0
   43.4820   82.1400   55.7350 C   0  0  2  0  0  3  0  0  0  0  0  0
   42.0300   82.4800   55.7260 C   0  0  2  0  0  3  0  0  0  0  0  0
   42.0140   83.8690   55.7390 O   0  0  0  0  0  0  0  0  0  0  0  0
   43.0210   84.2980   54.8990 C   0  0  0  0  0  2  0  0  0  0  0  0
   44.0730   83.2180   54.8690 C   0  0  2  0  0  3  0  0  0  0  0  0
   43.7080   80.8670   55.1660 O   0  0  0  0  0  0  0  0  0  0  0  0
   44.5190   80.4700   55.6090 H   0  0  0  0  0  0  0  0  0  0  0  0
   44.2290   82.7580   53.5600 O   0  0  0  0  0  0  0  0  0  0  0  0
   44.9440   83.3210   53.1540 H   0  0  0  0  0  0  0  0  0  0  0  0
  2  1  1  0  0  0  0
  2  3  1  0  0  0  0
  3 12  1  0  0  0  0
  4  3  2  0  0  0  0
  4  9  1  0  0  0  0
  5  4  1  0  0  0  0
  6  8  1  0  0  0  0
  6  5  2  0  0  0  0
  7  6  1  0  0  0  0
  8  2  2  0  0  0  0
 10  5  1  0  0  0  0
 11 16  1  0  0  0  0
 12 13  1  0  0  0  0
 12 11  2  0  0  0  0
 13 14  2  0  0  0  0
 14 15  1  0  0  0  0
 15 19  1  0  0  0  0
 16 15  2  0  0  0  0
 17 11  1  0  0  0  0
 18 13  1  0  0  0  0
 19 22  1  0  0  0  0
 19 21  1  0  0  0  0
 20 19  1  0  0  0  0
 23 28  1  6  0  0  0
 24 23  1  0  0  0  0
 24 25  1  0  0  0  0
 24  8  1  1  0  0  0
 26 25  1  0  0  0  0
 27 30  1  6  0  0  0
 27 26  1  0  0  0  0
 27 23  1  0  0  0  0
 28 29  1  0  0  0  0
 31 30  1  0  0  0  0
M  END
>  <minimizedAffinity>
-5.31826401

>  <minimizedRMSD>
1.01198471

$$$$
