
 OpenBabel03212520243D

 18 19  0  0  1  0  0  0  0  0999 V2000
   39.8460   76.6070   60.7620 C   0  0  0  0  0  0  0  0  0  0  0  0
   39.5530   75.2770   60.4280 C   0  0  0  0  0  0  0  0  0  0  0  0
   39.1580   75.0070   59.1060 C   0  0  0  0  0  0  0  0  0  0  0  0
   39.0810   76.0410   58.2280 N   0  0  0  0  0  0  0  0  0  0  0  0
   39.3700   77.3050   58.5790 C   0  0  0  0  0  0  0  0  0  0  0  0
   39.7500   77.5890   59.8420 N   0  0  0  0  0  0  0  0  0  0  0  0
   40.1540   76.8490   61.7750 H   0  0  0  0  0  0  0  0  0  0  0  0
   39.6270   74.4730   61.1660 H   0  0  0  0  0  0  0  0  0  0  0  0
   39.2670   78.0330   57.7790 H   0  0  0  0  0  0  0  0  0  0  0  0
   38.2290   73.4420   57.4150 C   0  0  1  0  0  3  0  0  0  0  0  0
   38.8550   73.6010   58.7820 C   0  0  1  0  0  3  0  0  0  0  0  0
   39.9990   72.8280   58.6280 O   0  0  0  0  0  0  0  0  0  0  0  0
   39.5290   71.6410   58.1330 C   0  0  0  0  0  2  0  0  0  0  0  0
   38.2940   71.9130   57.3030 C   0  0  2  0  0  3  0  0  0  0  0  0
   36.9220   73.8890   57.3600 O   0  0  0  0  0  0  0  0  0  0  0  0
   36.4690   73.5430   58.1780 H   0  0  0  0  0  0  0  0  0  0  0  0
   38.4070   71.4860   56.0040 O   0  0  0  0  0  0  0  0  0  0  0  0
   37.4840   71.2820   55.6710 H   0  0  0  0  0  0  0  0  0  0  0  0
  1  7  1  0  0  0  0
  2  1  1  0  0  0  0
  2  8  1  0  0  0  0
  3  2  2  0  0  0  0
  4  5  2  0  0  0  0
  4  3  1  0  0  0  0
  5  6  1  0  0  0  0
  6  1  2  0  0  0  0
  9  5  1  0  0  0  0
 10 15  1  1  0  0  0
 10 11  1  0  0  0  0
 11  3  1  6  0  0  0
 12 11  1  0  0  0  0
 13 12  1  0  0  0  0
 14 17  1  6  0  0  0
 14 10  1  0  0  0  0
 14 13  1  0  0  0  0
 15 16  1  0  0  0  0
 18 17  1  0  0  0  0
M  END
>  <minimizedAffinity>
-4.6931138

$$$$

 OpenBabel03212520243D

 18 19  0  0  1  0  0  0  0  0999 V2000
   37.9050   77.2150   56.5820 C   0  0  0  0  0  0  0  0  0  0  0  0
   38.6900   76.8910   57.6970 C   0  0  0  0  0  0  0  0  0  0  0  0
   38.4970   75.6300   58.2900 C   0  0  0  0  0  0  0  0  0  0  0  0
   37.5650   74.7980   57.7540 N   0  0  0  0  0  0  0  0  0  0  0  0
   36.8280   75.1390   56.6840 C   0  0  0  0  0  0  0  0  0  0  0  0
   36.9950   76.3430   56.0990 N   0  0  0  0  0  0  0  0  0  0  0  0
   38.0290   78.1800   56.1010 H   0  0  0  0  0  0  0  0  0  0  0  0
   39.4300   77.5900   58.0980 H   0  0  0  0  0  0  0  0  0  0  0  0
   36.1210   74.3790   56.3600 H   0  0  0  0  0  0  0  0  0  0  0  0
   38.7480   74.2170   60.3170 C   0  0  1  0  0  3  0  0  0  0  0  0
   39.3360   75.3160   59.4610 C   0  0  1  0  0  3  0  0  0  0  0  0
   40.5510   74.7420   59.1110 O   0  0  0  0  0  0  0  0  0  0  0  0
   41.0800   74.3370   60.3070 C   0  0  0  0  0  2  0  0  0  0  0  0
   39.9470   73.9740   61.2430 C   0  0  2  0  0  3  0  0  0  0  0  0
   37.6390   74.6220   61.0370 O   0  0  0  0  0  0  0  0  0  0  0  0
   37.8620   75.5130   61.4230 H   0  0  0  0  0  0  0  0  0  0  0  0
   40.0080   72.6800   61.6940 O   0  0  0  0  0  0  0  0  0  0  0  0
   39.5540   72.6490   62.5870 H   0  0  0  0  0  0  0  0  0  0  0  0
  1  2  1  0  0  0  0
  2  8  1  0  0  0  0
  2  3  2  0  0  0  0
  4  3  1  0  0  0  0
  5  4  2  0  0  0  0
  6  1  2  0  0  0  0
  6  5  1  0  0  0  0
  7  1  1  0  0  0  0
  9  5  1  0  0  0  0
 10 15  1  1  0  0  0
 10 14  1  0  0  0  0
 11  3  1  6  0  0  0
 11 10  1  0  0  0  0
 12 11  1  0  0  0  0
 12 13  1  0  0  0  0
 13 14  1  0  0  0  0
 14 17  1  6  0  0  0
 15 16  1  0  0  0  0
 17 18  1  0  0  0  0
M  END
>  <minimizedAffinity>
-4.60951233

$$$$

 OpenBabel03212520243D

 18 19  0  0  1  0  0  0  0  0999 V2000
   39.5320   76.2110   60.4820 C   0  0  0  0  0  0  0  0  0  0  0  0
   39.4520   76.1200   59.0840 C   0  0  0  0  0  0  0  0  0  0  0  0
   38.6970   75.0670   58.5390 C   0  0  0  0  0  0  0  0  0  0  0  0
   38.0870   74.1980   59.3880 N   0  0  0  0  0  0  0  0  0  0  0  0
   38.1820   74.3130   60.7230 C   0  0  0  0  0  0  0  0  0  0  0  0
   38.9020   75.3140   61.2700 N   0  0  0  0  0  0  0  0  0  0  0  0
   40.1070   77.0120   60.9340 H   0  0  0  0  0  0  0  0  0  0  0  0
   39.9590   76.8400   58.4350 H   0  0  0  0  0  0  0  0  0  0  0  0
   37.6450   73.5520   61.2830 H   0  0  0  0  0  0  0  0  0  0  0  0
   37.2100   74.9600   56.5510 C   0  0  1  0  0  3  0  0  0  0  0  0
   38.6310   74.9940   57.0680 C   0  0  1  0  0  3  0  0  0  0  0  0
   39.0960   76.1500   56.4530 O   0  0  0  0  0  0  0  0  0  0  0  0
   38.7630   75.9780   55.1360 C   0  0  0  0  0  2  0  0  0  0  0  0
   37.4990   75.1490   55.0570 C   0  0  2  0  0  3  0  0  0  0  0  0
   36.5760   73.7530   56.7850 O   0  0  0  0  0  0  0  0  0  0  0  0
   37.2290   73.0390   56.5470 H   0  0  0  0  0  0  0  0  0  0  0  0
   36.4740   75.7830   54.4000 O   0  0  0  0  0  0  0  0  0  0  0  0
   35.8860   75.0750   54.0030 H   0  0  0  0  0  0  0  0  0  0  0  0
  1  7  1  0  0  0  0
  1  6  1  0  0  0  0
  2  1  2  0  0  0  0
  3  2  1  0  0  0  0
  3  4  2  0  0  0  0
  4  5  1  0  0  0  0
  5  6  2  0  0  0  0
  5  9  1  0  0  0  0
  8  2  1  0  0  0  0
 10 15  1  6  0  0  0
 10 11  1  0  0  0  0
 11  3  1  1  0  0  0
 12 11  1  0  0  0  0
 13 12  1  0  0  0  0
 14 17  1  6  0  0  0
 14 13  1  0  0  0  0
 14 10  1  0  0  0  0
 16 15  1  0  0  0  0
 18 17  1  0  0  0  0
M  END
>  <minimizedAffinity>
-4.31938457

$$$$

 OpenBabel03212520243D

 18 19  0  0  1  0  0  0  0  0999 V2000
   44.5240   74.1220   59.2560 C   0  0  0  0  0  0  0  0  0  0  0  0
   43.2930   74.7920   59.3010 C   0  0  0  0  0  0  0  0  0  0  0  0
   42.1620   74.0570   59.6990 C   0  0  0  0  0  0  0  0  0  0  0  0
   42.3200   72.7450   60.0180 N   0  0  0  0  0  0  0  0  0  0  0  0
   43.5140   72.1320   59.9650 C   0  0  0  0  0  0  0  0  0  0  0  0
   44.6130   72.8160   59.5850 N   0  0  0  0  0  0  0  0  0  0  0  0
   45.4160   74.6610   58.9520 H   0  0  0  0  0  0  0  0  0  0  0  0
   43.2080   75.8500   59.0360 H   0  0  0  0  0  0  0  0  0  0  0  0
   43.4980   71.0820   60.2460 H   0  0  0  0  0  0  0  0  0  0  0  0
   40.0900   74.5030   60.9940 C   0  0  1  0  0  3  0  0  0  0  0  0
   40.8810   74.7850   59.7370 C   0  0  1  0  0  3  0  0  0  0  0  0
   41.0490   76.1600   59.8460 O   0  0  0  0  0  0  0  0  0  0  0  0
   39.7830   76.6280   60.0770 C   0  0  0  0  0  2  0  0  0  0  0  0
   39.0030   75.5750   60.8330 C   0  0  2  0  0  3  0  0  0  0  0  0
   39.5370   73.2360   61.0160 O   0  0  0  0  0  0  0  0  0  0  0  0
   39.1430   73.0820   60.1130 H   0  0  0  0  0  0  0  0  0  0  0  0
   38.5200   76.0170   62.0390 O   0  0  0  0  0  0  0  0  0  0  0  0
   37.6970   75.4850   62.2490 H   0  0  0  0  0  0  0  0  0  0  0  0
  1  2  2  0  0  0  0
  1  6  1  0  0  0  0
  2  3  1  0  0  0  0
  3  4  2  0  0  0  0
  5  4  1  0  0  0  0
  5  9  1  0  0  0  0
  6  5  2  0  0  0  0
  7  1  1  0  0  0  0
  8  2  1  0  0  0  0
 10 15  1  6  0  0  0
 11  3  1  1  0  0  0
 11 12  1  0  0  0  0
 11 10  1  0  0  0  0
 12 13  1  0  0  0  0
 13 14  1  0  0  0  0
 14 10  1  0  0  0  0
 14 17  1  1  0  0  0
 16 15  1  0  0  0  0
 17 18  1  0  0  0  0
M  END
>  <minimizedAffinity>
-4.2545867

$$$$

 OpenBabel03212520243D

 18 19  0  0  1  0  0  0  0  0999 V2000
   43.2120   73.1390   60.8420 C   0  0  0  0  0  0  0  0  0  0  0  0
   42.3070   73.7520   59.9630 C   0  0  0  0  0  0  0  0  0  0  0  0
   40.9490   73.7700   60.3270 C   0  0  0  0  0  0  0  0  0  0  0  0
   40.5870   73.1960   61.5050 N   0  0  0  0  0  0  0  0  0  0  0  0
   41.4780   72.6170   62.3260 C   0  0  0  0  0  0  0  0  0  0  0  0
   42.7860   72.5870   61.9980 N   0  0  0  0  0  0  0  0  0  0  0  0
   44.2670   73.1090   60.5900 H   0  0  0  0  0  0  0  0  0  0  0  0
   42.6400   74.2030   59.0230 H   0  0  0  0  0  0  0  0  0  0  0  0
   41.0520   72.1970   63.2340 H   0  0  0  0  0  0  0  0  0  0  0  0
   39.6360   75.8160   59.8180 C   0  0  1  0  0  3  0  0  0  0  0  0
   40.0210   74.4200   59.3840 C   0  0  1  0  0  3  0  0  0  0  0  0
   40.6080   74.6890   58.1540 O   0  0  0  0  0  0  0  0  0  0  0  0
   39.6800   75.4640   57.5110 C   0  0  0  0  0  2  0  0  0  0  0  0
   38.9180   76.2690   58.5410 C   0  0  2  0  0  3  0  0  0  0  0  0
   38.7760   75.8300   60.9020 O   0  0  0  0  0  0  0  0  0  0  0  0
   38.0840   75.1360   60.7250 H   0  0  0  0  0  0  0  0  0  0  0  0
   39.0040   77.6240   58.3430 O   0  0  0  0  0  0  0  0  0  0  0  0
   38.1760   78.0390   58.7280 H   0  0  0  0  0  0  0  0  0  0  0  0
  1  6  1  0  0  0  0
  2  3  1  0  0  0  0
  2  1  2  0  0  0  0
  3  4  2  0  0  0  0
  4  5  1  0  0  0  0
  5  9  1  0  0  0  0
  6  5  2  0  0  0  0
  7  1  1  0  0  0  0
  8  2  1  0  0  0  0
 10 15  1  1  0  0  0
 11 10  1  0  0  0  0
 11  3  1  1  0  0  0
 12 11  1  0  0  0  0
 13 12  1  0  0  0  0
 13 14  1  0  0  0  0
 14 17  1  6  0  0  0
 14 10  1  0  0  0  0
 16 15  1  0  0  0  0
 17 18  1  0  0  0  0
M  END
>  <minimizedAffinity>
-4.08208609

$$$$

 OpenBabel03212520243D

 18 19  0  0  1  0  0  0  0  0999 V2000
   39.0600   73.7450   61.0190 C   0  0  0  0  0  0  0  0  0  0  0  0
   38.7090   74.3390   59.7980 C   0  0  0  0  0  0  0  0  0  0  0  0
   39.4530   73.9850   58.6590 C   0  0  0  0  0  0  0  0  0  0  0  0
   40.4660   73.0900   58.8000 N   0  0  0  0  0  0  0  0  0  0  0  0
   40.7780   72.5370   59.9830 C   0  0  0  0  0  0  0  0  0  0  0  0
   40.0790   72.8630   61.0910 N   0  0  0  0  0  0  0  0  0  0  0  0
   38.5050   73.9970   61.9170 H   0  0  0  0  0  0  0  0  0  0  0  0
   37.8850   75.0560   59.7280 H   0  0  0  0  0  0  0  0  0  0  0  0
   41.6090   71.8380   59.9530 H   0  0  0  0  0  0  0  0  0  0  0  0
   37.5680   74.8160   57.2710 C   0  0  1  0  0  3  0  0  0  0  0  0
   39.0630   74.6250   57.3900 C   0  0  1  0  0  3  0  0  0  0  0  0
   39.4940   75.9420   57.2990 O   0  0  0  0  0  0  0  0  0  0  0  0
   38.8680   76.4170   56.1780 C   0  0  0  0  0  2  0  0  0  0  0  0
   37.5430   75.7040   56.0210 C   0  0  2  0  0  3  0  0  0  0  0  0
   36.8850   73.6330   57.0530 O   0  0  0  0  0  0  0  0  0  0  0  0
   37.3970   73.1320   56.3610 H   0  0  0  0  0  0  0  0  0  0  0  0
   36.4670   76.5560   56.0030 O   0  0  0  0  0  0  0  0  0  0  0  0
   35.7400   76.1140   55.4720 H   0  0  0  0  0  0  0  0  0  0  0  0
  1  6  1  0  0  0  0
  1  7  1  0  0  0  0
  2  1  2  0  0  0  0
  3  4  2  0  0  0  0
  3  2  1  0  0  0  0
  4  5  1  0  0  0  0
  5  6  2  0  0  0  0
  8  2  1  0  0  0  0
  9  5  1  0  0  0  0
 10 15  1  6  0  0  0
 10 11  1  0  0  0  0
 11  3  1  1  0  0  0
 12 11  1  0  0  0  0
 13 12  1  0  0  0  0
 14 17  1  1  0  0  0
 14 13  1  0  0  0  0
 14 10  1  0  0  0  0
 16 15  1  0  0  0  0
 18 17  1  0  0  0  0
M  END
>  <minimizedAffinity>
-4.08117867

$$$$

 OpenBabel03212520243D

 18 19  0  0  1  0  0  0  0  0999 V2000
   44.3700   74.4570   59.7320 C   0  0  0  0  0  0  0  0  0  0  0  0
   43.1720   74.8660   59.1300 C   0  0  0  0  0  0  0  0  0  0  0  0
   41.9800   74.2560   59.5610 C   0  0  0  0  0  0  0  0  0  0  0  0
   42.0520   73.3080   60.5310 N   0  0  0  0  0  0  0  0  0  0  0  0
   43.2170   72.9370   61.0890 C   0  0  0  0  0  0  0  0  0  0  0  0
   44.3730   73.5080   60.6920 N   0  0  0  0  0  0  0  0  0  0  0  0
   45.3070   74.9080   59.4220 H   0  0  0  0  0  0  0  0  0  0  0  0
   43.1570   75.6340   58.3500 H   0  0  0  0  0  0  0  0  0  0  0  0
   43.1300   72.1690   61.8530 H   0  0  0  0  0  0  0  0  0  0  0  0
   39.5830   73.7550   59.1450 C   0  0  1  0  0  3  0  0  0  0  0  0
   40.7360   74.7050   58.9110 C   0  0  1  0  0  3  0  0  0  0  0  0
   40.2250   75.8670   59.4750 O   0  0  0  0  0  0  0  0  0  0  0  0
   38.9920   76.0000   58.8950 C   0  0  0  0  0  2  0  0  0  0  0  0
   38.4470   74.6220   58.5870 C   0  0  2  0  0  3  0  0  0  0  0  0
   39.7000   72.5740   58.4350 O   0  0  0  0  0  0  0  0  0  0  0  0
   39.9830   72.8230   57.5130 H   0  0  0  0  0  0  0  0  0  0  0  0
   37.2440   74.3650   59.1950 O   0  0  0  0  0  0  0  0  0  0  0  0
   36.7560   73.6970   58.6290 H   0  0  0  0  0  0  0  0  0  0  0  0
  1  6  1  0  0  0  0
  2  3  1  0  0  0  0
  2  1  2  0  0  0  0
  3  4  2  0  0  0  0
  4  5  1  0  0  0  0
  5  9  1  0  0  0  0
  6  5  2  0  0  0  0
  7  1  1  0  0  0  0
  8  2  1  0  0  0  0
 10 15  1  6  0  0  0
 11 10  1  0  0  0  0
 11 12  1  0  0  0  0
 11  3  1  1  0  0  0
 13 12  1  0  0  0  0
 14 13  1  0  0  0  0
 14 10  1  0  0  0  0
 14 17  1  1  0  0  0
 16 15  1  0  0  0  0
 18 17  1  0  0  0  0
M  END
>  <minimizedAffinity>
-4.00434113

$$$$

 OpenBabel03212520243D

 18 19  0  0  1  0  0  0  0  0999 V2000
   42.7260   70.7320   61.6080 C   0  0  0  0  0  0  0  0  0  0  0  0
   41.7120   71.6860   61.7730 C   0  0  0  0  0  0  0  0  0  0  0  0
   41.6950   72.7830   60.8930 C   0  0  0  0  0  0  0  0  0  0  0  0
   42.6560   72.8600   59.9350 N   0  0  0  0  0  0  0  0  0  0  0  0
   43.6140   71.9290   59.8020 C   0  0  0  0  0  0  0  0  0  0  0  0
   43.6520   70.8680   60.6350 N   0  0  0  0  0  0  0  0  0  0  0  0
   42.7670   69.8740   62.2710 H   0  0  0  0  0  0  0  0  0  0  0  0
   40.9560   71.5880   62.5580 H   0  0  0  0  0  0  0  0  0  0  0  0
   44.3180   72.1140   58.9950 H   0  0  0  0  0  0  0  0  0  0  0  0
   40.4400   74.6800   59.8940 C   0  0  1  0  0  3  0  0  0  0  0  0
   40.6180   73.7710   61.0890 C   0  0  1  0  0  3  0  0  0  0  0  0
   39.3600   73.1870   61.1540 O   0  0  0  0  0  0  0  0  0  0  0  0
   38.5010   74.2530   61.1230 C   0  0  0  0  0  2  0  0  0  0  0  0
   39.1320   75.3650   60.3140 C   0  0  2  0  0  3  0  0  0  0  0  0
   41.4600   75.6030   59.7560 O   0  0  0  0  0  0  0  0  0  0  0  0
   41.6340   75.9730   60.6640 H   0  0  0  0  0  0  0  0  0  0  0  0
   38.3740   75.7510   59.2380 O   0  0  0  0  0  0  0  0  0  0  0  0
   38.5920   76.7100   59.0430 H   0  0  0  0  0  0  0  0  0  0  0  0
  1  2  1  0  0  0  0
  1  7  1  0  0  0  0
  2  8  1  0  0  0  0
  3  2  2  0  0  0  0
  4  3  1  0  0  0  0
  5  4  2  0  0  0  0
  5  6  1  0  0  0  0
  6  1  2  0  0  0  0
  9  5  1  0  0  0  0
 10 15  1  1  0  0  0
 10 14  1  0  0  0  0
 10 11  1  0  0  0  0
 11  3  1  6  0  0  0
 11 12  1  0  0  0  0
 13 12  1  0  0  0  0
 14 17  1  6  0  0  0
 14 13  1  0  0  0  0
 15 16  1  0  0  0  0
 18 17  1  0  0  0  0
M  END
>  <minimizedAffinity>
-3.93783808

$$$$

 OpenBabel03212520243D

 18 19  0  0  1  0  0  0  0  0999 V2000
   41.7940   71.3530   60.0970 C   0  0  0  0  0  0  0  0  0  0  0  0
   40.9050   71.8220   59.1190 C   0  0  0  0  0  0  0  0  0  0  0  0
   39.8960   72.7130   59.5260 C   0  0  0  0  0  0  0  0  0  0  0  0
   39.8350   73.0710   60.8350 N   0  0  0  0  0  0  0  0  0  0  0  0
   40.7030   72.6040   61.7480 C   0  0  0  0  0  0  0  0  0  0  0  0
   41.6790   71.7470   61.3820 N   0  0  0  0  0  0  0  0  0  0  0  0
   42.5840   70.6640   59.8160 H   0  0  0  0  0  0  0  0  0  0  0  0
   40.9870   71.5090   58.0740 H   0  0  0  0  0  0  0  0  0  0  0  0
   40.5400   72.9710   62.7580 H   0  0  0  0  0  0  0  0  0  0  0  0
   38.3090   74.4980   58.8410 C   0  0  1  0  0  3  0  0  0  0  0  0
   38.9750   73.1910   58.4780 C   0  0  1  0  0  3  0  0  0  0  0  0
   39.6340   73.5570   57.3110 O   0  0  0  0  0  0  0  0  0  0  0  0
   38.6600   74.1580   56.5580 C   0  0  0  0  0  2  0  0  0  0  0  0
   37.6640   74.8180   57.4870 C   0  0  2  0  0  3  0  0  0  0  0  0
   37.3500   74.3640   59.8280 O   0  0  0  0  0  0  0  0  0  0  0  0
   36.8110   73.5590   59.5930 H   0  0  0  0  0  0  0  0  0  0  0  0
   37.5350   76.1680   57.2730 O   0  0  0  0  0  0  0  0  0  0  0  0
   36.6120   76.4320   57.5610 H   0  0  0  0  0  0  0  0  0  0  0  0
  1  6  1  0  0  0  0
  2  3  1  0  0  0  0
  2  1  2  0  0  0  0
  3  4  2  0  0  0  0
  4  5  1  0  0  0  0
  5  9  1  0  0  0  0
  6  5  2  0  0  0  0
  7  1  1  0  0  0  0
  8  2  1  0  0  0  0
 10 15  1  1  0  0  0
 11 10  1  0  0  0  0
 11  3  1  1  0  0  0
 12 11  1  0  0  0  0
 13 12  1  0  0  0  0
 13 14  1  0  0  0  0
 14 17  1  6  0  0  0
 14 10  1  0  0  0  0
 16 15  1  0  0  0  0
 17 18  1  0  0  0  0
M  END
>  <minimizedAffinity>
-3.91321015

$$$$
