
 OpenBabel03212520123D

 31 33  0  0  1  0  0  0  0  0999 V2000
   42.6150   83.7280   58.3580 Cl  0  0  0  0  0  0  0  0  0  0  0  0
   41.4520   82.4180   58.1650 C   0  0  0  0  0  0  0  0  0  0  0  0
   40.7440   81.8990   59.2210 C   0  0  0  0  0  0  0  0  0  0  0  0
   39.8630   80.8730   58.8980 C   0  0  0  0  0  0  0  0  0  0  0  0
   39.6520   80.3540   57.6330 C   0  0  0  0  0  0  0  0  0  0  0  0
   40.3840   80.9110   56.6230 C   0  0  0  0  0  0  0  0  0  0  0  0
   40.1740   80.3140   54.9800 Cl  0  0  0  0  0  0  0  0  0  0  0  0
   41.2810   81.9410   56.8890 C   0  0  0  0  0  0  0  0  0  0  0  0
   39.2930   80.4440   59.7110 H   0  0  0  0  0  0  0  0  0  0  0  0
   38.9400   79.5530   57.4980 H   0  0  0  0  0  0  0  0  0  0  0  0
   41.9510   82.1040   61.4270 C   0  0  0  0  0  0  0  0  0  0  0  0
   40.9430   82.4150   60.5280 C   0  0  0  0  0  0  0  0  0  0  0  0
   39.9810   83.3640   60.9450 C   0  0  0  0  0  0  0  0  0  0  0  0
   40.1170   83.8970   62.1880 N   0  0  0  0  0  0  0  0  0  0  0  0
   41.1140   83.5660   63.0320 C   0  0  0  0  0  0  0  0  0  0  0  0
   42.0320   82.6620   62.6370 N   0  0  0  0  0  0  0  0  0  0  0  0
   42.6610   81.3780   61.0670 H   0  0  0  0  0  0  0  0  0  0  0  0
   39.1530   83.6880   60.3400 H   0  0  0  0  0  0  0  0  0  0  0  0
   41.1020   84.2500   64.3530 C   0  0  0  0  0  0  0  0  0  0  0  0
   40.7850   85.5800   64.2410 F   0  0  0  0  0  0  0  0  0  0  0  0
   40.1610   83.6430   65.1710 F   0  0  0  0  0  0  0  0  0  0  0  0
   42.3490   84.1970   64.9460 F   0  0  0  0  0  0  0  0  0  0  0  0
   43.4800   82.1380   55.7320 C   0  0  2  0  0  3  0  0  0  0  0  0
   42.0280   82.4780   55.7240 C   0  0  2  0  0  3  0  0  0  0  0  0
   42.0140   83.8680   55.7380 O   0  0  0  0  0  0  0  0  0  0  0  0
   43.0200   84.2960   54.8980 C   0  0  0  0  0  2  0  0  0  0  0  0
   44.0710   83.2160   54.8670 C   0  0  2  0  0  3  0  0  0  0  0  0
   43.7060   80.8650   55.1630 O   0  0  0  0  0  0  0  0  0  0  0  0
   44.5170   80.4680   55.6060 H   0  0  0  0  0  0  0  0  0  0  0  0
   44.2270   82.7560   53.5580 O   0  0  0  0  0  0  0  0  0  0  0  0
   44.9410   83.3190   53.1510 H   0  0  0  0  0  0  0  0  0  0  0  0
  2  1  1  0  0  0  0
  2  3  1  0  0  0  0
  3 12  1  0  0  0  0
  4  3  2  0  0  0  0
  4  9  1  0  0  0  0
  5  4  1  0  0  0  0
  6  8  1  0  0  0  0
  6  5  2  0  0  0  0
  7  6  1  0  0  0  0
  8  2  2  0  0  0  0
 10  5  1  0  0  0  0
 11 16  1  0  0  0  0
 12 13  1  0  0  0  0
 12 11  2  0  0  0  0
 13 14  2  0  0  0  0
 14 15  1  0  0  0  0
 15 19  1  0  0  0  0
 16 15  2  0  0  0  0
 17 11  1  0  0  0  0
 18 13  1  0  0  0  0
 19 22  1  0  0  0  0
 19 21  1  0  0  0  0
 20 19  1  0  0  0  0
 23 28  1  6  0  0  0
 24 23  1  0  0  0  0
 24 25  1  0  0  0  0
 24  8  1  1  0  0  0
 26 25  1  0  0  0  0
 27 30  1  6  0  0  0
 27 26  1  0  0  0  0
 27 23  1  0  0  0  0
 28 29  1  0  0  0  0
 31 30  1  0  0  0  0
M  END
>  <minimizedAffinity>
-5.31933022

>  <minimizedRMSD>
0.634243011

$$$$
