
 OpenBabel03212520083D

 18 19  0  0  1  0  0  0  0  0999 V2000
   40.1140   82.1090   60.4920 C   0  0  0  0  0  0  0  0  0  0  0  0
   40.1080   83.1350   59.5280 C   0  0  0  0  0  0  0  0  0  0  0  0
   39.4790   84.3320   59.8610 C   0  0  0  0  0  0  0  0  0  0  0  0
   38.9070   84.4510   61.0870 N   0  0  0  0  0  0  0  0  0  0  0  0
   38.9300   83.4450   61.9940 C   0  0  0  0  0  0  0  0  0  0  0  0
   39.5330   82.2810   61.6890 N   0  0  0  0  0  0  0  0  0  0  0  0
   40.5800   81.1360   60.3280 H   0  0  0  0  0  0  0  0  0  0  0  0
   39.4840   85.1030   59.1130 H   0  0  0  0  0  0  0  0  0  0  0  0
   38.4540   83.6070   62.9550 H   0  0  0  0  0  0  0  0  0  0  0  0
   42.2000   82.3920   58.4320 C   0  0  1  0  0  3  0  0  0  0  0  0
   40.7740   82.8390   58.2470 C   0  0  1  0  0  3  0  0  0  0  0  0
   40.2120   81.7660   57.5820 O   0  0  0  0  0  0  0  0  0  0  0  0
   41.1310   81.2900   56.6880 C   0  0  0  0  0  2  0  0  0  0  0  0
   42.4620   81.8990   57.0010 C   0  0  2  0  0  3  0  0  0  0  0  0
   43.0530   83.4520   58.7380 O   0  0  0  0  0  0  0  0  0  0  0  0
   42.7550   84.2420   58.2130 H   0  0  0  0  0  0  0  0  0  0  0  0
   43.5160   81.0040   56.9620 O   0  0  0  0  0  0  0  0  0  0  0  0
   43.1820   80.1170   56.6310 H   0  0  0  0  0  0  0  0  0  0  0  0
  1  6  1  0  0  0  0
  2  3  1  0  0  0  0
  2  1  2  0  0  0  0
  3  4  2  0  0  0  0
  4  5  1  0  0  0  0
  5  9  1  0  0  0  0
  6  5  2  0  0  0  0
  7  1  1  0  0  0  0
  8  3  1  0  0  0  0
 10 15  1  6  0  0  0
 11 10  1  0  0  0  0
 11  2  1  1  0  0  0
 12 11  1  0  0  0  0
 13 14  1  0  0  0  0
 13 12  1  0  0  0  0
 14 17  1  1  0  0  0
 14 10  1  0  0  0  0
 16 15  1  0  0  0  0
 18 17  1  0  0  0  0
M  END
>  <minimizedAffinity>
-4.03112221

>  <minimizedRMSD>
0.862702906

$$$$
