
 OpenBabel03212520133D

 31 33  0  0  1  0  0  0  0  0999 V2000
   42.6180   83.7310   58.3590 Cl  0  0  0  0  0  0  0  0  0  0  0  0
   41.4540   82.4210   58.1650 C   0  0  0  0  0  0  0  0  0  0  0  0
   40.7460   81.9010   59.2210 C   0  0  0  0  0  0  0  0  0  0  0  0
   39.8650   80.8760   58.8960 C   0  0  0  0  0  0  0  0  0  0  0  0
   39.6550   80.3570   57.6310 C   0  0  0  0  0  0  0  0  0  0  0  0
   40.3870   80.9140   56.6220 C   0  0  0  0  0  0  0  0  0  0  0  0
   40.1770   80.3190   54.9780 Cl  0  0  0  0  0  0  0  0  0  0  0  0
   41.2840   81.9440   56.8890 C   0  0  0  0  0  0  0  0  0  0  0  0
   39.2940   80.4460   59.7090 H   0  0  0  0  0  0  0  0  0  0  0  0
   38.9420   79.5570   57.4960 H   0  0  0  0  0  0  0  0  0  0  0  0
   41.9510   82.1040   61.4280 C   0  0  0  0  0  0  0  0  0  0  0  0
   40.9450   82.4160   60.5270 C   0  0  0  0  0  0  0  0  0  0  0  0
   39.9820   83.3670   60.9440 C   0  0  0  0  0  0  0  0  0  0  0  0
   40.1180   83.8990   62.1880 N   0  0  0  0  0  0  0  0  0  0  0  0
   41.1140   83.5670   63.0320 C   0  0  0  0  0  0  0  0  0  0  0  0
   42.0310   82.6620   62.6380 N   0  0  0  0  0  0  0  0  0  0  0  0
   42.6610   81.3770   61.0680 H   0  0  0  0  0  0  0  0  0  0  0  0
   39.1560   83.6920   60.3390 H   0  0  0  0  0  0  0  0  0  0  0  0
   41.1020   84.2510   64.3530 C   0  0  0  0  0  0  0  0  0  0  0  0
   40.7840   85.5810   64.2420 F   0  0  0  0  0  0  0  0  0  0  0  0
   40.1610   83.6420   65.1710 F   0  0  0  0  0  0  0  0  0  0  0  0
   42.3490   84.1980   64.9470 F   0  0  0  0  0  0  0  0  0  0  0  0
   43.4840   82.1420   55.7340 C   0  0  2  0  0  3  0  0  0  0  0  0
   42.0320   82.4820   55.7250 C   0  0  2  0  0  3  0  0  0  0  0  0
   42.0170   83.8710   55.7390 O   0  0  0  0  0  0  0  0  0  0  0  0
   43.0250   84.3000   54.8990 C   0  0  0  0  0  2  0  0  0  0  0  0
   44.0760   83.2200   54.8700 C   0  0  2  0  0  3  0  0  0  0  0  0
   43.7100   80.8680   55.1650 O   0  0  0  0  0  0  0  0  0  0  0  0
   44.5210   80.4710   55.6080 H   0  0  0  0  0  0  0  0  0  0  0  0
   44.2310   82.7610   53.5600 O   0  0  0  0  0  0  0  0  0  0  0  0
   44.9470   83.3230   53.1540 H   0  0  0  0  0  0  0  0  0  0  0  0
  2  1  1  0  0  0  0
  2  3  1  0  0  0  0
  3 12  1  0  0  0  0
  4  3  2  0  0  0  0
  4  9  1  0  0  0  0
  5  4  1  0  0  0  0
  6  8  1  0  0  0  0
  6  5  2  0  0  0  0
  7  6  1  0  0  0  0
  8  2  2  0  0  0  0
 10  5  1  0  0  0  0
 11 16  1  0  0  0  0
 12 13  1  0  0  0  0
 12 11  2  0  0  0  0
 13 14  2  0  0  0  0
 14 15  1  0  0  0  0
 15 19  1  0  0  0  0
 16 15  2  0  0  0  0
 17 11  1  0  0  0  0
 18 13  1  0  0  0  0
 19 22  1  0  0  0  0
 19 21  1  0  0  0  0
 20 19  1  0  0  0  0
 23 28  1  6  0  0  0
 24 23  1  0  0  0  0
 24 25  1  0  0  0  0
 24  8  1  1  0  0  0
 26 25  1  0  0  0  0
 27 30  1  6  0  0  0
 27 26  1  0  0  0  0
 27 23  1  0  0  0  0
 28 29  1  0  0  0  0
 31 30  1  0  0  0  0
M  END
>  <minimizedAffinity>
-5.31897974

>  <minimizedRMSD>
0.693639576

$$$$
