
 OpenBabel03212520303D

 41 44  0  0  1  0  0  0  0  0999 V2000
   43.0350   82.3120   62.6060 C   0  0  0  0  0  0  0  0  0  0  0  0
   43.3370   81.1510   61.9200 C   0  0  0  0  0  0  0  0  0  0  0  0
   44.6060   80.6190   61.9640 C   0  0  0  0  0  0  0  0  0  0  0  0
   45.6480   81.1960   62.6840 C   0  0  0  0  0  0  0  0  0  0  0  0
   45.3720   82.3500   63.3740 C   0  0  0  0  0  0  0  0  0  0  0  0
   44.1010   82.8850   63.3310 C   0  0  0  0  0  0  0  0  0  0  0  0
   44.8710   79.7130   61.4360 H   0  0  0  0  0  0  0  0  0  0  0  0
   46.6420   80.7880   62.7230 H   0  0  0  0  0  0  0  0  0  0  0  0
   46.1300   82.8560   63.9570 H   0  0  0  0  0  0  0  0  0  0  0  0
   43.8570   83.7930   63.8670 H   0  0  0  0  0  0  0  0  0  0  0  0
   40.3950   79.1300   60.9570 C   0  0  0  0  0  0  0  0  0  0  0  0
   40.4810   79.1410   59.5670 C   0  0  0  0  0  0  0  0  0  0  0  0
   41.5610   79.8470   58.9940 C   0  0  0  0  0  0  0  0  0  0  0  0
   42.4160   80.4490   59.8500 N   0  0  0  0  0  0  0  0  0  0  0  0
   42.3250   80.4320   61.1580 C   0  0  0  0  0  0  0  0  0  0  0  0
   41.3060   79.7670   61.6990 N   0  0  0  0  0  0  0  0  0  0  0  0
   39.5650   78.5880   61.3890 H   0  0  0  0  0  0  0  0  0  0  0  0
   41.6570   79.8750   57.9160 H   0  0  0  0  0  0  0  0  0  0  0  0
   39.5170   78.4700   58.7700 N   0  0  0  0  0  0  0  0  0  0  0  0
   39.1160   79.1700   57.7080 C   0  0  0  0  0  0  0  0  0  0  0  0
   38.1670   78.5970   56.8580 C   0  0  0  0  0  0  0  0  0  0  0  0
   37.6810   77.3280   57.1480 C   0  0  0  0  0  0  0  0  0  0  0  0
   36.8250   76.7170   56.4520 O   0  0  0  0  0  0  0  0  0  0  0  0
   38.1410   76.6720   58.2550 N   0  0  0  0  0  0  0  0  0  0  0  0
   39.0640   77.2330   59.0800 C   0  0  0  0  0  0  0  0  0  0  0  0
   39.4950   76.6530   60.0920 O   0  0  0  0  0  0  0  0  0  0  0  0
   39.4730   80.1570   57.4540 H   0  0  0  0  0  0  0  0  0  0  0  0
   37.7920   79.0940   55.9840 H   0  0  0  0  0  0  0  0  0  0  0  0
   37.8360   75.7150   58.5580 H   0  0  0  0  0  0  0  0  0  0  0  0
   41.4720   83.0250   62.5640 S   0  0  0  0  0  0  0  0  0  0  0  0
   41.3770   84.0980   63.6410 O   0  0  0  0  0  0  0  0  0  0  0  0
   40.4930   81.9940   63.1230 O   0  0  0  0  0  0  0  0  0  0  0  0
   42.0790   84.0270   60.1260 C   0  0  1  0  0  3  0  0  0  0  0  0
   40.9170   83.7910   61.1250 C   0  0  1  0  0  3  0  0  0  0  0  0
   40.2260   82.8640   60.2780 O   0  0  0  0  0  0  0  0  0  0  0  0
   39.8940   83.7760   59.2490 C   0  0  0  0  0  2  0  0  0  0  0  0
   41.2840   84.2910   58.8660 C   0  0  1  0  0  3  0  0  0  0  0  0
   42.8950   85.0550   60.5140 O   0  0  0  0  0  0  0  0  0  0  0  0
   43.8350   84.7990   60.2620 H   0  0  0  0  0  0  0  0  0  0  0  0
   41.2790   85.6360   58.5560 O   0  0  0  0  0  0  0  0  0  0  0  0
   42.0900   85.7950   57.9870 H   0  0  0  0  0  0  0  0  0  0  0  0
  1  6  1  0  0  0  0
  2  3  1  0  0  0  0
  2  1  2  0  0  0  0
  3  4  2  0  0  0  0
  4  8  1  0  0  0  0
  4  5  1  0  0  0  0
  5  9  1  0  0  0  0
  6  5  2  0  0  0  0
  6 10  1  0  0  0  0
  7  3  1  0  0  0  0
 11 17  1  0  0  0  0
 11 16  1  0  0  0  0
 12 11  2  0  0  0  0
 13 12  1  0  0  0  0
 13 14  2  0  0  0  0
 14 15  1  0  0  0  0
 15 16  2  0  0  0  0
 15  2  1  0  0  0  0
 18 13  1  0  0  0  0
 19 25  1  0  0  0  0
 19 12  1  0  0  0  0
 20 19  1  0  0  0  0
 21 22  1  0  0  0  0
 21 20  2  0  0  0  0
 22 24  1  0  0  0  0
 23 22  2  0  0  0  0
 24 29  1  0  0  0  0
 24 25  1  0  0  0  0
 25 26  2  0  0  0  0
 27 20  1  0  0  0  0
 28 21  1  0  0  0  0
 30  1  1  0  0  0  0
 30 32  2  0  0  0  0
 30 31  2  0  0  0  0
 33 38  1  1  0  0  0
 33 34  1  0  0  0  0
 34 30  1  1  0  0  0
 35 34  1  0  0  0  0
 36 35  1  0  0  0  0
 37 40  1  1  0  0  0
 37 36  1  0  0  0  0
 37 33  1  0  0  0  0
 39 38  1  0  0  0  0
 41 40  1  0  0  0  0
M  END
>  <minimizedAffinity>
-6.92102098

>  <minimizedRMSD>
2.67260671

$$$$
