
 OpenBabel03212520303D

 41 44  0  0  1  0  0  0  0  0999 V2000
   42.3990   82.7140   61.6860 C   0  0  0  0  0  0  0  0  0  0  0  0
   42.7050   81.5450   61.0150 C   0  0  0  0  0  0  0  0  0  0  0  0
   43.8160   80.8080   61.3590 C   0  0  0  0  0  0  0  0  0  0  0  0
   44.6880   81.1780   62.3800 C   0  0  0  0  0  0  0  0  0  0  0  0
   44.4030   82.3350   63.0610 C   0  0  0  0  0  0  0  0  0  0  0  0
   43.2900   83.0750   62.7170 C   0  0  0  0  0  0  0  0  0  0  0  0
   44.0810   79.8910   60.8510 H   0  0  0  0  0  0  0  0  0  0  0  0
   45.5570   80.6090   62.6550 H   0  0  0  0  0  0  0  0  0  0  0  0
   45.0340   82.6870   63.8670 H   0  0  0  0  0  0  0  0  0  0  0  0
   43.0440   83.9910   63.2380 H   0  0  0  0  0  0  0  0  0  0  0  0
   40.0730   79.7610   59.1300 C   0  0  0  0  0  0  0  0  0  0  0  0
   40.3240   80.1750   57.8230 C   0  0  0  0  0  0  0  0  0  0  0  0
   41.4050   81.0610   57.6260 C   0  0  0  0  0  0  0  0  0  0  0  0
   42.0990   81.4280   58.7250 N   0  0  0  0  0  0  0  0  0  0  0  0
   41.8530   81.0320   59.9510 C   0  0  0  0  0  0  0  0  0  0  0  0
   40.8340   80.1960   60.1380 N   0  0  0  0  0  0  0  0  0  0  0  0
   39.2440   79.0820   59.2740 H   0  0  0  0  0  0  0  0  0  0  0  0
   41.6260   81.4020   56.6220 H   0  0  0  0  0  0  0  0  0  0  0  0
   39.5200   79.7200   56.7450 N   0  0  0  0  0  0  0  0  0  0  0  0
   38.5180   80.5430   56.4380 C   0  0  0  0  0  0  0  0  0  0  0  0
   37.6660   80.1870   55.3890 C   0  0  0  0  0  0  0  0  0  0  0  0
   37.8950   78.9950   54.7110 C   0  0  0  0  0  0  0  0  0  0  0  0
   37.1920   78.5760   53.7520 O   0  0  0  0  0  0  0  0  0  0  0  0
   38.9430   78.2030   55.0850 N   0  0  0  0  0  0  0  0  0  0  0  0
   39.7690   78.5540   56.1050 C   0  0  0  0  0  0  0  0  0  0  0  0
   40.7290   77.8470   56.4610 O   0  0  0  0  0  0  0  0  0  0  0  0
   38.3120   81.4760   56.9430 H   0  0  0  0  0  0  0  0  0  0  0  0
   36.8380   80.7930   55.0790 H   0  0  0  0  0  0  0  0  0  0  0  0
   39.1980   77.2890   54.6370 H   0  0  0  0  0  0  0  0  0  0  0  0
   41.0360   83.6770   61.2780 S   0  0  0  0  0  0  0  0  0  0  0  0
   40.6330   84.5190   62.4820 O   0  0  0  0  0  0  0  0  0  0  0  0
   39.8320   82.7390   61.1920 O   0  0  0  0  0  0  0  0  0  0  0  0
   42.5800   84.8950   59.4210 C   0  0  1  0  0  3  0  0  0  0  0  0
   41.1330   84.7920   59.9690 C   0  0  1  0  0  3  0  0  0  0  0  0
   40.5950   84.2280   58.7670 O   0  0  0  0  0  0  0  0  0  0  0  0
   40.7930   85.3550   57.9370 C   0  0  0  0  0  2  0  0  0  0  0  0
   42.3020   85.5620   58.0920 C   0  0  1  0  0  3  0  0  0  0  0  0
   43.4020   85.6020   60.2560 O   0  0  0  0  0  0  0  0  0  0  0  0
   44.3070   85.1630   60.2210 H   0  0  0  0  0  0  0  0  0  0  0  0
   42.6500   86.8970   58.1240 O   0  0  0  0  0  0  0  0  0  0  0  0
   43.6170   86.9410   57.8600 H   0  0  0  0  0  0  0  0  0  0  0  0
  1  6  1  0  0  0  0
  2  3  1  0  0  0  0
  2  1  2  0  0  0  0
  3  4  2  0  0  0  0
  4  8  1  0  0  0  0
  4  5  1  0  0  0  0
  5  9  1  0  0  0  0
  6  5  2  0  0  0  0
  6 10  1  0  0  0  0
  7  3  1  0  0  0  0
 11 17  1  0  0  0  0
 11 16  1  0  0  0  0
 12 11  2  0  0  0  0
 13 12  1  0  0  0  0
 13 14  2  0  0  0  0
 14 15  1  0  0  0  0
 15 16  2  0  0  0  0
 15  2  1  0  0  0  0
 18 13  1  0  0  0  0
 19 12  1  0  0  0  0
 20 19  1  0  0  0  0
 20 27  1  0  0  0  0
 21 20  2  0  0  0  0
 22 24  1  0  0  0  0
 22 21  1  0  0  0  0
 23 22  2  0  0  0  0
 24 25  1  0  0  0  0
 25 26  2  0  0  0  0
 25 19  1  0  0  0  0
 28 21  1  0  0  0  0
 29 24  1  0  0  0  0
 30  1  1  0  0  0  0
 30 31  2  0  0  0  0
 32 30  2  0  0  0  0
 33 34  1  0  0  0  0
 33 38  1  1  0  0  0
 34 30  1  1  0  0  0
 35 34  1  0  0  0  0
 36 37  1  0  0  0  0
 36 35  1  0  0  0  0
 37 40  1  1  0  0  0
 37 33  1  0  0  0  0
 39 38  1  0  0  0  0
 41 40  1  0  0  0  0
M  END
>  <minimizedAffinity>
-5.94735193

>  <minimizedRMSD>
1.60437036

$$$$
