
 OpenBabel03212520303D

 41 44  0  0  1  0  0  0  0  0999 V2000
   42.8100   83.2220   60.7090 C   0  0  0  0  0  0  0  0  0  0  0  0
   42.8520   81.9460   61.2400 C   0  0  0  0  0  0  0  0  0  0  0  0
   43.5710   81.6850   62.3850 C   0  0  0  0  0  0  0  0  0  0  0  0
   44.2870   82.6610   63.0720 C   0  0  0  0  0  0  0  0  0  0  0  0
   44.2590   83.9360   62.5640 C   0  0  0  0  0  0  0  0  0  0  0  0
   43.5390   84.2000   61.4170 C   0  0  0  0  0  0  0  0  0  0  0  0
   43.6220   80.6970   62.8210 H   0  0  0  0  0  0  0  0  0  0  0  0
   44.8510   82.4660   63.9660 H   0  0  0  0  0  0  0  0  0  0  0  0
   44.7910   84.7480   63.0430 H   0  0  0  0  0  0  0  0  0  0  0  0
   43.5010   85.1960   60.9960 H   0  0  0  0  0  0  0  0  0  0  0  0
   40.2300   79.4930   60.3620 C   0  0  0  0  0  0  0  0  0  0  0  0
   40.8580   78.7430   59.3710 C   0  0  0  0  0  0  0  0  0  0  0  0
   42.1800   79.1030   59.0310 C   0  0  0  0  0  0  0  0  0  0  0  0
   42.7180   80.1450   59.7030 N   0  0  0  0  0  0  0  0  0  0  0  0
   42.1150   80.8450   60.6340 C   0  0  0  0  0  0  0  0  0  0  0  0
   40.8680   80.5060   60.9550 N   0  0  0  0  0  0  0  0  0  0  0  0
   39.2170   79.2110   60.6170 H   0  0  0  0  0  0  0  0  0  0  0  0
   42.6970   78.5400   58.2640 H   0  0  0  0  0  0  0  0  0  0  0  0
   40.1880   77.6650   58.7340 N   0  0  0  0  0  0  0  0  0  0  0  0
   39.4010   78.0430   57.7260 C   0  0  0  0  0  0  0  0  0  0  0  0
   38.6950   77.0570   57.0320 C   0  0  0  0  0  0  0  0  0  0  0  0
   38.8400   75.7280   57.4170 C   0  0  0  0  0  0  0  0  0  0  0  0
   38.2520   74.7600   56.8630 O   0  0  0  0  0  0  0  0  0  0  0  0
   39.6650   75.4200   58.4600 N   0  0  0  0  0  0  0  0  0  0  0  0
   40.3500   76.3820   59.1320 C   0  0  0  0  0  0  0  0  0  0  0  0
   41.1060   76.1220   60.0840 O   0  0  0  0  0  0  0  0  0  0  0  0
   39.2660   79.0650   57.4020 H   0  0  0  0  0  0  0  0  0  0  0  0
   38.0420   77.2760   56.2110 H   0  0  0  0  0  0  0  0  0  0  0  0
   39.8400   74.4510   58.8240 H   0  0  0  0  0  0  0  0  0  0  0  0
   41.9440   83.5910   59.2720 S   0  0  0  0  0  0  0  0  0  0  0  0
   42.0030   85.0920   59.0180 O   0  0  0  0  0  0  0  0  0  0  0  0
   40.4570   83.4300   59.5890 O   0  0  0  0  0  0  0  0  0  0  0  0
   41.1740   82.5270   56.9070 C   0  0  1  0  0  3  0  0  0  0  0  0
   42.4100   82.8690   57.7800 C   0  0  1  0  0  3  0  0  0  0  0  0
   42.9240   83.8480   56.8700 O   0  0  0  0  0  0  0  0  0  0  0  0
   43.2250   82.9640   55.8070 C   0  0  0  0  0  2  0  0  0  0  0  0
   41.8530   82.3270   55.5690 C   0  0  1  0  0  3  0  0  0  0  0  0
   40.4960   81.4340   57.3740 O   0  0  0  0  0  0  0  0  0  0  0  0
   39.5160   81.6070   57.2220 H   0  0  0  0  0  0  0  0  0  0  0  0
   41.9430   80.9860   55.2550 O   0  0  0  0  0  0  0  0  0  0  0  0
   41.0940   80.7540   54.7740 H   0  0  0  0  0  0  0  0  0  0  0  0
  1  2  2  0  0  0  0
  1  6  1  0  0  0  0
  2  3  1  0  0  0  0
  3  7  1  0  0  0  0
  3  4  2  0  0  0  0
  4  8  1  0  0  0  0
  5  9  1  0  0  0  0
  5  4  1  0  0  0  0
  6  5  2  0  0  0  0
 10  6  1  0  0  0  0
 11 17  1  0  0  0  0
 11 16  1  0  0  0  0
 12 11  2  0  0  0  0
 13 12  1  0  0  0  0
 13 14  2  0  0  0  0
 14 15  1  0  0  0  0
 15 16  2  0  0  0  0
 15  2  1  0  0  0  0
 18 13  1  0  0  0  0
 19 25  1  0  0  0  0
 19 12  1  0  0  0  0
 20 19  1  0  0  0  0
 21 22  1  0  0  0  0
 21 20  2  0  0  0  0
 22 24  1  0  0  0  0
 23 22  2  0  0  0  0
 24 29  1  0  0  0  0
 24 25  1  0  0  0  0
 25 26  2  0  0  0  0
 27 20  1  0  0  0  0
 28 21  1  0  0  0  0
 30 32  2  0  0  0  0
 30  1  1  0  0  0  0
 31 30  2  0  0  0  0
 33 38  1  1  0  0  0
 33 34  1  0  0  0  0
 34 30  1  1  0  0  0
 35 34  1  0  0  0  0
 36 35  1  0  0  0  0
 37 40  1  1  0  0  0
 37 36  1  0  0  0  0
 37 33  1  0  0  0  0
 39 38  1  0  0  0  0
 41 40  1  0  0  0  0
M  END
>  <minimizedAffinity>
-4.52599955

>  <minimizedRMSD>
4.16854143

$$$$
