
 OpenBabel03212520303D

 41 44  0  0  1  0  0  0  0  0999 V2000
   42.5510   81.7100   62.1950 C   0  0  0  0  0  0  0  0  0  0  0  0
   43.1470   80.6240   61.5820 C   0  0  0  0  0  0  0  0  0  0  0  0
   44.4880   80.3680   61.7560 C   0  0  0  0  0  0  0  0  0  0  0  0
   45.3180   81.1620   62.5420 C   0  0  0  0  0  0  0  0  0  0  0  0
   44.7480   82.2460   63.1610 C   0  0  0  0  0  0  0  0  0  0  0  0
   43.4040   82.5050   62.9880 C   0  0  0  0  0  0  0  0  0  0  0  0
   44.9800   79.5260   61.2870 H   0  0  0  0  0  0  0  0  0  0  0  0
   46.3660   80.9690   62.6820 H   0  0  0  0  0  0  0  0  0  0  0  0
   45.3300   82.9090   63.7880 H   0  0  0  0  0  0  0  0  0  0  0  0
   42.9310   83.3520   63.4660 H   0  0  0  0  0  0  0  0  0  0  0  0
   41.2210   77.7010   60.3940 C   0  0  0  0  0  0  0  0  0  0  0  0
   40.9160   78.0690   59.0860 C   0  0  0  0  0  0  0  0  0  0  0  0
   41.3890   79.3230   58.6440 C   0  0  0  0  0  0  0  0  0  0  0  0
   42.0980   80.0540   59.5320 N   0  0  0  0  0  0  0  0  0  0  0  0
   42.3780   79.6960   60.7630 C   0  0  0  0  0  0  0  0  0  0  0  0
   41.9310   78.5140   61.1810 N   0  0  0  0  0  0  0  0  0  0  0  0
   40.8540   76.7390   60.7270 H   0  0  0  0  0  0  0  0  0  0  0  0
   41.1700   79.6400   57.6320 H   0  0  0  0  0  0  0  0  0  0  0  0
   40.1590   77.2130   58.2430 N   0  0  0  0  0  0  0  0  0  0  0  0
   38.8400   77.3690   58.3640 C   0  0  0  0  0  0  0  0  0  0  0  0
   38.0050   76.5730   57.5760 C   0  0  0  0  0  0  0  0  0  0  0  0
   38.5770   75.6550   56.7030 C   0  0  0  0  0  0  0  0  0  0  0  0
   37.9200   74.8880   55.9480 O   0  0  0  0  0  0  0  0  0  0  0  0
   39.9370   75.5530   56.6360 N   0  0  0  0  0  0  0  0  0  0  0  0
   40.7460   76.3300   57.4030 C   0  0  0  0  0  0  0  0  0  0  0  0
   41.9860   76.2520   57.3560 O   0  0  0  0  0  0  0  0  0  0  0  0
   38.3640   78.0730   59.0310 H   0  0  0  0  0  0  0  0  0  0  0  0
   36.9350   76.6360   57.6130 H   0  0  0  0  0  0  0  0  0  0  0  0
   40.4620   74.8930   56.0100 H   0  0  0  0  0  0  0  0  0  0  0  0
   40.8860   82.0820   61.9910 S   0  0  0  0  0  0  0  0  0  0  0  0
   40.4060   82.9180   63.1710 O   0  0  0  0  0  0  0  0  0  0  0  0
   40.1040   80.7930   62.2390 O   0  0  0  0  0  0  0  0  0  0  0  0
   39.7700   84.3260   60.9730 C   0  0  1  0  0  0  0  0  0  0  0  0
   40.3640   82.9440   60.5950 C   0  0  1  0  0  0  0  0  0  0  0  0
   41.4770   83.4910   59.8780 O   0  0  0  0  0  0  0  0  0  0  0  0
   40.7390   84.0830   58.8260 C   0  0  0  0  0  0  0  0  0  0  0  0
   39.7990   84.9970   59.6180 C   0  0  1  0  0  0  0  0  0  0  0  0
   38.5260   84.2200   61.5330 O   0  0  0  0  0  0  0  0  0  0  0  0
   38.4620   84.9260   62.2480 H   0  0  0  0  0  0  0  0  0  0  0  0
   38.5350   85.0540   59.0660 O   0  0  0  0  0  0  0  0  0  0  0  0
   38.1250   85.9090   59.3970 H   0  0  0  0  0  0  0  0  0  0  0  0
  1  6  1  0  0  0  0
  2  3  1  0  0  0  0
  2  1  2  0  0  0  0
  3  4  2  0  0  0  0
  4  8  1  0  0  0  0
  4  5  1  0  0  0  0
  5  9  1  0  0  0  0
  6  5  2  0  0  0  0
  6 10  1  0  0  0  0
  7  3  1  0  0  0  0
 11 17  1  0  0  0  0
 11 16  1  0  0  0  0
 12 11  2  0  0  0  0
 13 12  1  0  0  0  0
 13 14  2  0  0  0  0
 14 15  1  0  0  0  0
 15 16  2  0  0  0  0
 15  2  1  0  0  0  0
 18 13  1  0  0  0  0
 19 20  1  0  0  0  0
 19 12  1  0  0  0  0
 20 27  1  0  0  0  0
 21 28  1  0  0  0  0
 21 20  2  0  0  0  0
 22 21  1  0  0  0  0
 23 22  2  0  0  0  0
 24 22  1  0  0  0  0
 24 25  1  0  0  0  0
 25 19  1  0  0  0  0
 26 25  2  0  0  0  0
 29 24  1  0  0  0  0
 30  1  1  0  0  0  0
 30 32  2  0  0  0  0
 30 31  2  0  0  0  0
 33 38  1  6  0  0  0
 34 33  1  0  0  0  0
 34 30  1  1  0  0  0
 35 34  1  0  0  0  0
 36 37  1  0  0  0  0
 36 35  1  0  0  0  0
 37 40  1  6  0  0  0
 37 33  1  0  0  0  0
 38 39  1  0  0  0  0
 40 41  1  0  0  0  0
M  END
>  <minimizedAffinity>
-7.0498991

>  <minimizedRMSD>
2.83618808

$$$$
