
 OpenBabel03212520303D

 41 44  0  0  1  0  0  0  0  0999 V2000
   42.9410   82.0650   62.5730 C   0  0  0  0  0  0  0  0  0  0  0  0
   43.5490   80.9470   62.0320 C   0  0  0  0  0  0  0  0  0  0  0  0
   44.8970   80.7300   62.2010 C   0  0  0  0  0  0  0  0  0  0  0  0
   45.7240   81.5960   62.9120 C   0  0  0  0  0  0  0  0  0  0  0  0
   45.1420   82.7130   63.4590 C   0  0  0  0  0  0  0  0  0  0  0  0
   43.7900   82.9330   63.2900 C   0  0  0  0  0  0  0  0  0  0  0  0
   45.3990   79.8660   61.7880 H   0  0  0  0  0  0  0  0  0  0  0  0
   46.7770   81.4350   63.0490 H   0  0  0  0  0  0  0  0  0  0  0  0
   45.7200   83.4320   64.0250 H   0  0  0  0  0  0  0  0  0  0  0  0
   43.3080   83.8040   63.7110 H   0  0  0  0  0  0  0  0  0  0  0  0
   41.5430   77.9760   61.1300 C   0  0  0  0  0  0  0  0  0  0  0  0
   41.3520   78.1620   59.7620 C   0  0  0  0  0  0  0  0  0  0  0  0
   41.9270   79.3140   59.1830 C   0  0  0  0  0  0  0  0  0  0  0  0
   42.6140   80.1320   60.0100 N   0  0  0  0  0  0  0  0  0  0  0  0
   42.7860   79.9470   61.2970 C   0  0  0  0  0  0  0  0  0  0  0  0
   42.2440   78.8610   61.8450 N   0  0  0  0  0  0  0  0  0  0  0  0
   41.1000   77.0920   61.5670 H   0  0  0  0  0  0  0  0  0  0  0  0
   41.7970   79.4880   58.1220 H   0  0  0  0  0  0  0  0  0  0  0  0
   40.6070   77.2280   58.9940 N   0  0  0  0  0  0  0  0  0  0  0  0
   39.3070   77.5120   58.9180 C   0  0  0  0  0  0  0  0  0  0  0  0
   38.4840   76.6530   58.1840 C   0  0  0  0  0  0  0  0  0  0  0  0
   39.0500   75.5440   57.5660 C   0  0  0  0  0  0  0  0  0  0  0  0
   38.4040   74.7050   56.8810 O   0  0  0  0  0  0  0  0  0  0  0  0
   40.3920   75.3200   57.6900 N   0  0  0  0  0  0  0  0  0  0  0  0
   41.1870   76.1580   58.4050 C   0  0  0  0  0  0  0  0  0  0  0  0
   42.4110   75.9720   58.5300 O   0  0  0  0  0  0  0  0  0  0  0  0
   38.8360   78.3650   59.3850 H   0  0  0  0  0  0  0  0  0  0  0  0
   37.4290   76.8100   58.0730 H   0  0  0  0  0  0  0  0  0  0  0  0
   40.9100   74.5140   57.2630 H   0  0  0  0  0  0  0  0  0  0  0  0
   41.2660   82.3890   62.3700 S   0  0  0  0  0  0  0  0  0  0  0  0
   40.6670   82.8110   63.7050 O   0  0  0  0  0  0  0  0  0  0  0  0
   40.5680   81.0430   62.1750 O   0  0  0  0  0  0  0  0  0  0  0  0
   40.7180   83.0460   59.8020 C   0  0  1  0  0  3  0  0  0  0  0  0
   40.7540   83.5960   61.2530 C   0  0  1  0  0  3  0  0  0  0  0  0
   39.3390   83.8060   61.3290 O   0  0  0  0  0  0  0  0  0  0  0  0
   39.2570   84.8260   60.3530 C   0  0  0  0  0  2  0  0  0  0  0  0
   39.8730   84.1140   59.1450 C   0  0  1  0  0  3  0  0  0  0  0  0
   41.9710   82.9010   59.2720 O   0  0  0  0  0  0  0  0  0  0  0  0
   41.9570   82.0710   58.7010 H   0  0  0  0  0  0  0  0  0  0  0  0
   40.6500   84.9580   58.3770 O   0  0  0  0  0  0  0  0  0  0  0  0
   40.6980   84.5400   57.4650 H   0  0  0  0  0  0  0  0  0  0  0  0
  1  6  1  0  0  0  0
  2  3  1  0  0  0  0
  2  1  2  0  0  0  0
  3  4  2  0  0  0  0
  4  8  1  0  0  0  0
  4  5  1  0  0  0  0
  5  9  1  0  0  0  0
  6  5  2  0  0  0  0
  6 10  1  0  0  0  0
  7  3  1  0  0  0  0
 11 17  1  0  0  0  0
 11 16  1  0  0  0  0
 12 11  2  0  0  0  0
 13 12  1  0  0  0  0
 13 14  2  0  0  0  0
 14 15  1  0  0  0  0
 15 16  2  0  0  0  0
 15  2  1  0  0  0  0
 18 13  1  0  0  0  0
 19 12  1  0  0  0  0
 20 19  1  0  0  0  0
 20 27  1  0  0  0  0
 21 20  2  0  0  0  0
 22 24  1  0  0  0  0
 22 21  1  0  0  0  0
 23 22  2  0  0  0  0
 24 25  1  0  0  0  0
 25 26  2  0  0  0  0
 25 19  1  0  0  0  0
 28 21  1  0  0  0  0
 29 24  1  0  0  0  0
 30  1  1  0  0  0  0
 30 31  2  0  0  0  0
 32 30  2  0  0  0  0
 33 38  1  6  0  0  0
 33 34  1  0  0  0  0
 34 35  1  0  0  0  0
 34 30  1  1  0  0  0
 36 35  1  0  0  0  0
 37 40  1  1  0  0  0
 37 33  1  0  0  0  0
 37 36  1  0  0  0  0
 39 38  1  0  0  0  0
 41 40  1  0  0  0  0
M  END
>  <minimizedAffinity>
-6.53738165

>  <minimizedRMSD>
3.28488517

$$$$
