
 OpenBabel03212520333D

 41 44  0  0  1  0  0  0  0  0999 V2000
   39.2800   75.3480   55.9950 C   0  0  0  0  0  0  0  0  0  0  0  0
   40.3800   74.5110   55.9730 C   0  0  0  0  0  0  0  0  0  0  0  0
   41.2070   74.4670   54.8740 C   0  0  0  0  0  0  0  0  0  0  0  0
   41.0020   75.2410   53.7350 C   0  0  0  0  0  0  0  0  0  0  0  0
   39.9150   76.0810   53.7340 C   0  0  0  0  0  0  0  0  0  0  0  0
   39.0850   76.1270   54.8350 C   0  0  0  0  0  0  0  0  0  0  0  0
   42.0740   73.8210   54.8290 H   0  0  0  0  0  0  0  0  0  0  0  0
   41.6420   75.2130   52.8730 H   0  0  0  0  0  0  0  0  0  0  0  0
   39.6900   76.7130   52.8850 H   0  0  0  0  0  0  0  0  0  0  0  0
   38.2220   76.7790   54.8590 H   0  0  0  0  0  0  0  0  0  0  0  0
   40.5150   71.7670   58.4460 C   0  0  0  0  0  0  0  0  0  0  0  0
   41.5100   72.2110   59.3150 C   0  0  0  0  0  0  0  0  0  0  0  0
   42.1080   73.4560   59.0250 C   0  0  0  0  0  0  0  0  0  0  0  0
   41.6600   74.1060   57.9280 N   0  0  0  0  0  0  0  0  0  0  0  0
   40.7240   73.6770   57.1170 C   0  0  0  0  0  0  0  0  0  0  0  0
   40.1580   72.5020   57.3890 N   0  0  0  0  0  0  0  0  0  0  0  0
   40.0610   70.8130   58.6740 H   0  0  0  0  0  0  0  0  0  0  0  0
   42.8850   73.8310   59.6800 H   0  0  0  0  0  0  0  0  0  0  0  0
   41.8970   71.4370   60.4400 N   0  0  0  0  0  0  0  0  0  0  0  0
   42.7640   70.4660   60.1500 C   0  0  0  0  0  0  0  0  0  0  0  0
   43.2090   69.6440   61.1890 C   0  0  0  0  0  0  0  0  0  0  0  0
   42.7350   69.8700   62.4760 C   0  0  0  0  0  0  0  0  0  0  0  0
   43.0680   69.1920   63.4850 O   0  0  0  0  0  0  0  0  0  0  0  0
   41.8470   70.8850   62.6940 N   0  0  0  0  0  0  0  0  0  0  0  0
   41.4170   71.6810   61.6800 C   0  0  0  0  0  0  0  0  0  0  0  0
   40.6090   72.6100   61.8580 O   0  0  0  0  0  0  0  0  0  0  0  0
   43.1520   70.2640   59.1620 H   0  0  0  0  0  0  0  0  0  0  0  0
   43.9050   68.8430   61.0400 H   0  0  0  0  0  0  0  0  0  0  0  0
   41.4330   71.1330   63.6260 H   0  0  0  0  0  0  0  0  0  0  0  0
   38.2080   75.4220   57.3350 S   0  0  0  0  0  0  0  0  0  0  0  0
   37.7990   74.0100   57.7340 O   0  0  0  0  0  0  0  0  0  0  0  0
   36.8720   75.9510   56.8140 O   0  0  0  0  0  0  0  0  0  0  0  0
   38.9930   75.1140   59.9060 C   0  0  1  0  0  3  0  0  0  0  0  0
   38.7170   76.1680   58.8020 C   0  0  1  0  0  3  0  0  0  0  0  0
   40.0790   76.6030   58.7160 O   0  0  0  0  0  0  0  0  0  0  0  0
   40.1680   77.1670   60.0090 C   0  0  0  0  0  2  0  0  0  0  0  0
   39.7900   75.9600   60.8730 C   0  0  1  0  0  3  0  0  0  0  0  0
   37.8400   74.5870   60.4210 O   0  0  0  0  0  0  0  0  0  0  0  0
   38.0170   73.6150   60.6110 H   0  0  0  0  0  0  0  0  0  0  0  0
   39.0270   76.3150   61.9670 O   0  0  0  0  0  0  0  0  0  0  0  0
   39.1390   75.5760   62.6370 H   0  0  0  0  0  0  0  0  0  0  0  0
  1 30  1  0  0  0  0
  2  1  1  0  0  0  0
  2 15  1  0  0  0  0
  3  2  2  0  0  0  0
  4  3  1  0  0  0  0
  5  4  2  0  0  0  0
  5  6  1  0  0  0  0
  6 10  1  0  0  0  0
  6  1  2  0  0  0  0
  7  3  1  0  0  0  0
  8  4  1  0  0  0  0
  9  5  1  0  0  0  0
 11 17  1  0  0  0  0
 11 12  1  0  0  0  0
 12 19  1  0  0  0  0
 13 12  2  0  0  0  0
 13 18  1  0  0  0  0
 14 13  1  0  0  0  0
 15 16  1  0  0  0  0
 15 14  2  0  0  0  0
 16 11  2  0  0  0  0
 19 25  1  0  0  0  0
 20 19  1  0  0  0  0
 20 21  2  0  0  0  0
 21 22  1  0  0  0  0
 22 24  1  0  0  0  0
 22 23  2  0  0  0  0
 24 29  1  0  0  0  0
 25 26  2  0  0  0  0
 25 24  1  0  0  0  0
 27 20  1  0  0  0  0
 28 21  1  0  0  0  0
 30 31  2  0  0  0  0
 32 30  2  0  0  0  0
 33 38  1  1  0  0  0
 33 37  1  0  0  0  0
 34 30  1  6  0  0  0
 34 33  1  0  0  0  0
 35 34  1  0  0  0  0
 35 36  1  0  0  0  0
 36 37  1  0  0  0  0
 37 40  1  1  0  0  0
 38 39  1  0  0  0  0
 40 41  1  0  0  0  0
M  END
>  <minimizedAffinity>
-6.8350153

$$$$

 OpenBabel03212520333D

 41 44  0  0  1  0  0  0  0  0999 V2000
   39.0270   75.9820   57.6670 C   0  0  0  0  0  0  0  0  0  0  0  0
   39.9030   74.9210   57.7980 C   0  0  0  0  0  0  0  0  0  0  0  0
   40.7820   74.8620   58.8560 C   0  0  0  0  0  0  0  0  0  0  0  0
   40.8490   75.8400   59.8450 C   0  0  0  0  0  0  0  0  0  0  0  0
   39.9870   76.9030   59.7360 C   0  0  0  0  0  0  0  0  0  0  0  0
   39.1060   76.9650   58.6760 C   0  0  0  0  0  0  0  0  0  0  0  0
   41.4790   74.0450   58.9820 H   0  0  0  0  0  0  0  0  0  0  0  0
   41.5320   75.8020   60.6730 H   0  0  0  0  0  0  0  0  0  0  0  0
   39.9800   77.7020   60.4660 H   0  0  0  0  0  0  0  0  0  0  0  0
   38.4170   77.7910   58.5680 H   0  0  0  0  0  0  0  0  0  0  0  0
   39.0290   71.8660   55.9090 C   0  0  0  0  0  0  0  0  0  0  0  0
   40.0540   71.8070   54.9670 C   0  0  0  0  0  0  0  0  0  0  0  0
   41.0280   72.8280   55.0110 C   0  0  0  0  0  0  0  0  0  0  0  0
   40.8780   73.7710   55.9670 N   0  0  0  0  0  0  0  0  0  0  0  0
   39.9080   73.8170   56.8480 C   0  0  0  0  0  0  0  0  0  0  0  0
   38.9880   72.8550   56.8070 N   0  0  0  0  0  0  0  0  0  0  0  0
   38.2860   71.0820   55.8690 H   0  0  0  0  0  0  0  0  0  0  0  0
   41.8380   72.8110   54.2930 H   0  0  0  0  0  0  0  0  0  0  0  0
   40.1060   70.7620   54.0070 N   0  0  0  0  0  0  0  0  0  0  0  0
   40.4770   69.5860   54.5140 C   0  0  0  0  0  0  0  0  0  0  0  0
   40.5590   68.4900   53.6510 C   0  0  0  0  0  0  0  0  0  0  0  0
   40.2530   68.6670   52.3060 C   0  0  0  0  0  0  0  0  0  0  0  0
   40.2940   67.7510   51.4410 O   0  0  0  0  0  0  0  0  0  0  0  0
   39.8810   69.9040   51.8620 N   0  0  0  0  0  0  0  0  0  0  0  0
   39.8020   70.9670   52.7050 C   0  0  0  0  0  0  0  0  0  0  0  0
   39.4650   72.1000   52.3200 O   0  0  0  0  0  0  0  0  0  0  0  0
   40.7200   69.4140   55.5520 H   0  0  0  0  0  0  0  0  0  0  0  0
   40.8480   67.5110   53.9780 H   0  0  0  0  0  0  0  0  0  0  0  0
   39.6320   70.1380   50.8700 H   0  0  0  0  0  0  0  0  0  0  0  0
   37.9280   76.1100   56.3530 S   0  0  0  0  0  0  0  0  0  0  0  0
   37.3600   77.5230   56.3050 O   0  0  0  0  0  0  0  0  0  0  0  0
   36.6730   75.3280   56.7390 O   0  0  0  0  0  0  0  0  0  0  0  0
   37.2980   75.8750   53.7320 C   0  0  1  0  0  3  0  0  0  0  0  0
   38.4670   75.7940   54.7480 C   0  0  1  0  0  3  0  0  0  0  0  0
   39.1680   76.9190   54.2060 O   0  0  0  0  0  0  0  0  0  0  0  0
   39.4840   76.3470   52.9530 C   0  0  0  0  0  2  0  0  0  0  0  0
   38.0860   75.9830   52.4450 C   0  0  1  0  0  3  0  0  0  0  0  0
   36.4690   74.7890   53.8070 O   0  0  0  0  0  0  0  0  0  0  0  0
   35.5320   75.1200   53.6490 H   0  0  0  0  0  0  0  0  0  0  0  0
   38.0720   74.7880   51.7530 O   0  0  0  0  0  0  0  0  0  0  0  0
   37.2550   74.8140   51.1690 H   0  0  0  0  0  0  0  0  0  0  0  0
  1  2  2  0  0  0  0
  1  6  1  0  0  0  0
  2  3  1  0  0  0  0
  3  7  1  0  0  0  0
  3  4  2  0  0  0  0
  4  8  1  0  0  0  0
  5  4  1  0  0  0  0
  5  9  1  0  0  0  0
  6  5  2  0  0  0  0
 10  6  1  0  0  0  0
 11 16  1  0  0  0  0
 12 13  1  0  0  0  0
 12 11  2  0  0  0  0
 13 14  2  0  0  0  0
 14 15  1  0  0  0  0
 15  2  1  0  0  0  0
 16 15  2  0  0  0  0
 17 11  1  0  0  0  0
 18 13  1  0  0  0  0
 19 20  1  0  0  0  0
 19 12  1  0  0  0  0
 20 27  1  0  0  0  0
 21 28  1  0  0  0  0
 21 20  2  0  0  0  0
 22 21  1  0  0  0  0
 23 22  2  0  0  0  0
 24 22  1  0  0  0  0
 24 25  1  0  0  0  0
 25 19  1  0  0  0  0
 26 25  2  0  0  0  0
 29 24  1  0  0  0  0
 30 32  2  0  0  0  0
 30  1  1  0  0  0  0
 31 30  2  0  0  0  0
 33 38  1  6  0  0  0
 33 34  1  0  0  0  0
 34 30  1  1  0  0  0
 35 34  1  0  0  0  0
 36 35  1  0  0  0  0
 37 40  1  1  0  0  0
 37 36  1  0  0  0  0
 37 33  1  0  0  0  0
 39 38  1  0  0  0  0
 41 40  1  0  0  0  0
M  END
>  <minimizedAffinity>
-6.56139278

$$$$

 OpenBabel03212520333D

 41 44  0  0  1  0  0  0  0  0999 V2000
   41.9920   71.0360   59.8880 C   0  0  0  0  0  0  0  0  0  0  0  0
   41.1840   70.6500   58.8360 C   0  0  0  0  0  0  0  0  0  0  0  0
   40.9600   69.3180   58.5740 C   0  0  0  0  0  0  0  0  0  0  0  0
   41.5160   68.2900   59.3310 C   0  0  0  0  0  0  0  0  0  0  0  0
   42.3220   68.6490   60.3830 C   0  0  0  0  0  0  0  0  0  0  0  0
   42.5480   69.9850   60.6470 C   0  0  0  0  0  0  0  0  0  0  0  0
   40.3340   68.9870   57.7570 H   0  0  0  0  0  0  0  0  0  0  0  0
   41.3470   67.2470   59.1340 H   0  0  0  0  0  0  0  0  0  0  0  0
   42.7890   67.9070   61.0170 H   0  0  0  0  0  0  0  0  0  0  0  0
   43.1790   70.2940   61.4690 H   0  0  0  0  0  0  0  0  0  0  0  0
   40.4470   73.1850   56.2480 C   0  0  0  0  0  0  0  0  0  0  0  0
   39.0950   73.4380   56.4700 C   0  0  0  0  0  0  0  0  0  0  0  0
   38.4700   72.7250   57.5160 C   0  0  0  0  0  0  0  0  0  0  0  0
   39.2430   71.8610   58.2090 N   0  0  0  0  0  0  0  0  0  0  0  0
   40.5160   71.6310   57.9900 C   0  0  0  0  0  0  0  0  0  0  0  0
   41.1060   72.3020   57.0040 N   0  0  0  0  0  0  0  0  0  0  0  0
   40.9200   73.7340   55.4450 H   0  0  0  0  0  0  0  0  0  0  0  0
   37.4200   72.8980   57.7140 H   0  0  0  0  0  0  0  0  0  0  0  0
   38.3860   74.3730   55.6710 N   0  0  0  0  0  0  0  0  0  0  0  0
   38.5990   74.2320   54.3620 C   0  0  0  0  0  0  0  0  0  0  0  0
   37.9460   75.1040   53.4870 C   0  0  0  0  0  0  0  0  0  0  0  0
   37.1060   76.0800   54.0120 C   0  0  0  0  0  0  0  0  0  0  0  0
   36.4690   76.9170   53.3170 O   0  0  0  0  0  0  0  0  0  0  0  0
   36.9380   76.1620   55.3650 N   0  0  0  0  0  0  0  0  0  0  0  0
   37.5750   75.3110   56.2120 C   0  0  0  0  0  0  0  0  0  0  0  0
   37.4350   75.3690   57.4460 O   0  0  0  0  0  0  0  0  0  0  0  0
   39.2440   73.4850   53.9220 H   0  0  0  0  0  0  0  0  0  0  0  0
   38.0630   75.0580   52.4230 H   0  0  0  0  0  0  0  0  0  0  0  0
   36.3270   76.8600   55.8550 H   0  0  0  0  0  0  0  0  0  0  0  0
   42.3180   72.6860   60.2400 S   0  0  0  0  0  0  0  0  0  0  0  0
   43.5640   73.1290   59.4840 O   0  0  0  0  0  0  0  0  0  0  0  0
   42.8390   72.7460   61.6750 O   0  0  0  0  0  0  0  0  0  0  0  0
   40.1780   74.1090   61.0890 C   0  0  1  0  0  3  0  0  0  0  0  0
   41.1350   73.8880   59.8880 C   0  0  1  0  0  3  0  0  0  0  0  0
   41.7000   75.2030   59.9500 O   0  0  0  0  0  0  0  0  0  0  0  0
   40.5300   75.9170   59.6010 C   0  0  0  0  0  2  0  0  0  0  0  0
   39.5660   75.4320   60.6880 C   0  0  1  0  0  3  0  0  0  0  0  0
   39.2830   73.0840   61.2340 O   0  0  0  0  0  0  0  0  0  0  0  0
   39.1490   72.9450   62.2210 H   0  0  0  0  0  0  0  0  0  0  0  0
   38.2810   75.2610   60.2130 O   0  0  0  0  0  0  0  0  0  0  0  0
   37.6790   75.3100   61.0150 H   0  0  0  0  0  0  0  0  0  0  0  0
  1 30  1  0  0  0  0
  1  6  1  0  0  0  0
  2  1  2  0  0  0  0
  3  2  1  0  0  0  0
  3  4  2  0  0  0  0
  4  5  1  0  0  0  0
  5  6  2  0  0  0  0
  5  9  1  0  0  0  0
  6 10  1  0  0  0  0
  7  3  1  0  0  0  0
  8  4  1  0  0  0  0
 11 12  2  0  0  0  0
 11 16  1  0  0  0  0
 12 13  1  0  0  0  0
 13 18  1  0  0  0  0
 13 14  2  0  0  0  0
 15 14  1  0  0  0  0
 15  2  1  0  0  0  0
 16 15  2  0  0  0  0
 17 11  1  0  0  0  0
 19 25  1  0  0  0  0
 19 12  1  0  0  0  0
 20 19  1  0  0  0  0
 21 22  1  0  0  0  0
 21 20  2  0  0  0  0
 22 24  1  0  0  0  0
 23 22  2  0  0  0  0
 24 29  1  0  0  0  0
 24 25  1  0  0  0  0
 25 26  2  0  0  0  0
 27 20  1  0  0  0  0
 28 21  1  0  0  0  0
 30 32  2  0  0  0  0
 31 30  2  0  0  0  0
 33 38  1  6  0  0  0
 34 35  1  0  0  0  0
 34 30  1  1  0  0  0
 34 33  1  0  0  0  0
 36 35  1  0  0  0  0
 36 37  1  0  0  0  0
 37 40  1  6  0  0  0
 37 33  1  0  0  0  0
 38 39  1  0  0  0  0
 40 41  1  0  0  0  0
M  END
>  <minimizedAffinity>
-6.54802322

$$$$

 OpenBabel03212520333D

 41 44  0  0  1  0  0  0  0  0999 V2000
   42.3870   70.7930   61.0420 C   0  0  0  0  0  0  0  0  0  0  0  0
   41.9780   70.1640   59.8810 C   0  0  0  0  0  0  0  0  0  0  0  0
   41.9880   68.7910   59.7850 C   0  0  0  0  0  0  0  0  0  0  0  0
   42.3990   67.9590   60.8230 C   0  0  0  0  0  0  0  0  0  0  0  0
   42.8090   68.5620   61.9860 C   0  0  0  0  0  0  0  0  0  0  0  0
   42.8000   69.9380   62.0840 C   0  0  0  0  0  0  0  0  0  0  0  0
   41.6750   68.2720   58.8890 H   0  0  0  0  0  0  0  0  0  0  0  0
   42.4110   66.8860   60.7570 H   0  0  0  0  0  0  0  0  0  0  0  0
   43.1430   67.9810   62.8370 H   0  0  0  0  0  0  0  0  0  0  0  0
   43.1180   70.4370   62.9900 H   0  0  0  0  0  0  0  0  0  0  0  0
   41.7800   72.1740   56.7850 C   0  0  0  0  0  0  0  0  0  0  0  0
   40.4040   72.3020   56.6120 C   0  0  0  0  0  0  0  0  0  0  0  0
   39.5740   71.6910   57.5780 C   0  0  0  0  0  0  0  0  0  0  0  0
   40.1940   71.0360   58.5840 N   0  0  0  0  0  0  0  0  0  0  0  0
   41.4910   70.9210   58.7350 C   0  0  0  0  0  0  0  0  0  0  0  0
   42.2740   71.4970   57.8250 N   0  0  0  0  0  0  0  0  0  0  0  0
   42.4100   72.6440   56.0410 H   0  0  0  0  0  0  0  0  0  0  0  0
   38.5000   71.7730   57.4730 H   0  0  0  0  0  0  0  0  0  0  0  0
   39.8690   73.0180   55.5090 N   0  0  0  0  0  0  0  0  0  0  0  0
   39.6770   74.3150   55.7520 C   0  0  0  0  0  0  0  0  0  0  0  0
   39.1530   75.1090   54.7290 C   0  0  0  0  0  0  0  0  0  0  0  0
   38.8540   74.5210   53.5060 C   0  0  0  0  0  0  0  0  0  0  0  0
   38.3780   75.1410   52.5160 O   0  0  0  0  0  0  0  0  0  0  0  0
   39.0780   73.1850   53.3330 N   0  0  0  0  0  0  0  0  0  0  0  0
   39.5870   72.4160   54.3310 C   0  0  0  0  0  0  0  0  0  0  0  0
   39.7990   71.1980   54.1930 O   0  0  0  0  0  0  0  0  0  0  0  0
   39.8990   74.8030   56.6900 H   0  0  0  0  0  0  0  0  0  0  0  0
   38.9700   76.1600   54.8430 H   0  0  0  0  0  0  0  0  0  0  0  0
   38.8850   72.6500   52.4500 H   0  0  0  0  0  0  0  0  0  0  0  0
   42.4110   72.5030   61.2000 S   0  0  0  0  0  0  0  0  0  0  0  0
   43.7830   73.0290   60.7980 O   0  0  0  0  0  0  0  0  0  0  0  0
   42.4300   72.8160   62.6960 O   0  0  0  0  0  0  0  0  0  0  0  0
   40.2050   74.0690   61.2390 C   0  0  1  0  0  3  0  0  0  0  0  0
   41.2910   73.4640   60.3120 C   0  0  1  0  0  3  0  0  0  0  0  0
   41.8600   74.7310   59.9600 O   0  0  0  0  0  0  0  0  0  0  0  0
   40.7450   75.2360   59.2510 C   0  0  0  0  0  2  0  0  0  0  0  0
   39.6580   75.1430   60.3250 C   0  0  1  0  0  3  0  0  0  0  0  0
   39.2870   73.1380   61.6410 O   0  0  0  0  0  0  0  0  0  0  0  0
   39.0390   73.3570   62.5920 H   0  0  0  0  0  0  0  0  0  0  0  0
   38.4340   74.7750   59.8030 O   0  0  0  0  0  0  0  0  0  0  0  0
   37.7440   75.0890   60.4620 H   0  0  0  0  0  0  0  0  0  0  0  0
  1 30  1  0  0  0  0
  1  6  1  0  0  0  0
  2  1  2  0  0  0  0
  3  2  1  0  0  0  0
  3  4  2  0  0  0  0
  4  5  1  0  0  0  0
  5  6  2  0  0  0  0
  5  9  1  0  0  0  0
  6 10  1  0  0  0  0
  7  3  1  0  0  0  0
  8  4  1  0  0  0  0
 11 16  1  0  0  0  0
 12 11  2  0  0  0  0
 12 13  1  0  0  0  0
 13 14  2  0  0  0  0
 14 15  1  0  0  0  0
 15  2  1  0  0  0  0
 16 15  2  0  0  0  0
 17 11  1  0  0  0  0
 18 13  1  0  0  0  0
 19 20  1  0  0  0  0
 19 12  1  0  0  0  0
 20 27  1  0  0  0  0
 21 28  1  0  0  0  0
 21 20  2  0  0  0  0
 22 21  1  0  0  0  0
 23 22  2  0  0  0  0
 24 22  1  0  0  0  0
 24 25  1  0  0  0  0
 25 19  1  0  0  0  0
 26 25  2  0  0  0  0
 29 24  1  0  0  0  0
 30 32  2  0  0  0  0
 31 30  2  0  0  0  0
 33 38  1  6  0  0  0
 34 30  1  1  0  0  0
 34 33  1  0  0  0  0
 35 34  1  0  0  0  0
 36 35  1  0  0  0  0
 36 37  1  0  0  0  0
 37 40  1  6  0  0  0
 37 33  1  0  0  0  0
 38 39  1  0  0  0  0
 40 41  1  0  0  0  0
M  END
>  <minimizedAffinity>
-6.48608208

$$$$

 OpenBabel03212520333D

 41 44  0  0  1  0  0  0  0  0999 V2000
   39.8350   75.1990   58.4700 C   0  0  0  0  0  0  0  0  0  0  0  0
   40.7680   75.0910   59.4830 C   0  0  0  0  0  0  0  0  0  0  0  0
   41.3690   76.2140   60.0070 C   0  0  0  0  0  0  0  0  0  0  0  0
   41.0860   77.5040   59.5650 C   0  0  0  0  0  0  0  0  0  0  0  0
   40.1620   77.6350   58.5590 C   0  0  0  0  0  0  0  0  0  0  0  0
   39.5590   76.5110   58.0330 C   0  0  0  0  0  0  0  0  0  0  0  0
   42.1030   76.1600   60.7990 H   0  0  0  0  0  0  0  0  0  0  0  0
   41.5510   78.3850   59.9680 H   0  0  0  0  0  0  0  0  0  0  0  0
   39.8900   78.6050   58.1640 H   0  0  0  0  0  0  0  0  0  0  0  0
   38.8270   76.5880   57.2400 H   0  0  0  0  0  0  0  0  0  0  0  0
   40.7630   71.9680   61.4600 C   0  0  0  0  0  0  0  0  0  0  0  0
   41.9320   71.3480   61.0220 C   0  0  0  0  0  0  0  0  0  0  0  0
   42.6980   72.0310   60.0520 C   0  0  0  0  0  0  0  0  0  0  0  0
   42.2270   73.2270   59.6380 N   0  0  0  0  0  0  0  0  0  0  0  0
   41.1240   73.8000   60.0570 C   0  0  0  0  0  0  0  0  0  0  0  0
   40.4000   73.1570   60.9710 N   0  0  0  0  0  0  0  0  0  0  0  0
   40.1810   71.4390   62.2020 H   0  0  0  0  0  0  0  0  0  0  0  0
   43.6120   71.5770   59.6910 H   0  0  0  0  0  0  0  0  0  0  0  0
   42.3250   70.0840   61.5340 N   0  0  0  0  0  0  0  0  0  0  0  0
   42.8960   70.1450   62.7370 C   0  0  0  0  0  0  0  0  0  0  0  0
   43.3200   68.9540   63.3310 C   0  0  0  0  0  0  0  0  0  0  0  0
   43.1320   67.7570   62.6480 C   0  0  0  0  0  0  0  0  0  0  0  0
   43.4750   66.6260   63.0880 O   0  0  0  0  0  0  0  0  0  0  0  0
   42.5390   67.7750   61.4180 N   0  0  0  0  0  0  0  0  0  0  0  0
   42.1280   68.9360   60.8450 C   0  0  0  0  0  0  0  0  0  0  0  0
   41.5860   68.9730   59.7260 O   0  0  0  0  0  0  0  0  0  0  0  0
   43.0570   71.0570   63.2940 H   0  0  0  0  0  0  0  0  0  0  0  0
   43.7870   68.9170   64.2950 H   0  0  0  0  0  0  0  0  0  0  0  0
   42.3530   66.9280   60.8260 H   0  0  0  0  0  0  0  0  0  0  0  0
   39.0750   73.8260   57.7710 S   0  0  0  0  0  0  0  0  0  0  0  0
   38.1950   74.2710   56.6090 O   0  0  0  0  0  0  0  0  0  0  0  0
   38.0040   73.3550   58.7540 O   0  0  0  0  0  0  0  0  0  0  0  0
   39.4510   72.0100   55.8000 C   0  0  1  0  0  3  0  0  0  0  0  0
   40.0340   72.5440   57.1340 C   0  0  1  0  0  3  0  0  0  0  0  0
   41.2380   73.0440   56.5410 O   0  0  0  0  0  0  0  0  0  0  0  0
   41.7820   71.7960   56.1600 C   0  0  0  0  0  2  0  0  0  0  0  0
   40.6510   71.2480   55.2840 C   0  0  1  0  0  3  0  0  0  0  0  0
   38.3290   71.2500   55.9920 O   0  0  0  0  0  0  0  0  0  0  0  0
   37.7060   71.4420   55.2250 H   0  0  0  0  0  0  0  0  0  0  0  0
   40.4790   69.8870   55.4380 O   0  0  0  0  0  0  0  0  0  0  0  0
   40.0130   69.5690   54.6070 H   0  0  0  0  0  0  0  0  0  0  0  0
  1  2  1  0  0  0  0
  2  3  2  0  0  0  0
  2 15  1  0  0  0  0
  3  7  1  0  0  0  0
  4  8  1  0  0  0  0
  4  3  1  0  0  0  0
  5  4  2  0  0  0  0
  6  1  2  0  0  0  0
  6  5  1  0  0  0  0
  9  5  1  0  0  0  0
 10  6  1  0  0  0  0
 11 17  1  0  0  0  0
 12 11  1  0  0  0  0
 12 19  1  0  0  0  0
 13 12  2  0  0  0  0
 14 13  1  0  0  0  0
 14 15  2  0  0  0  0
 15 16  1  0  0  0  0
 16 11  2  0  0  0  0
 18 13  1  0  0  0  0
 19 20  1  0  0  0  0
 20 27  1  0  0  0  0
 20 21  2  0  0  0  0
 21 28  1  0  0  0  0
 22 23  2  0  0  0  0
 22 21  1  0  0  0  0
 24 22  1  0  0  0  0
 25 24  1  0  0  0  0
 25 19  1  0  0  0  0
 26 25  2  0  0  0  0
 29 24  1  0  0  0  0
 30  1  1  0  0  0  0
 30 32  2  0  0  0  0
 31 30  2  0  0  0  0
 33 38  1  1  0  0  0
 33 34  1  0  0  0  0
 34 30  1  6  0  0  0
 35 34  1  0  0  0  0
 36 35  1  0  0  0  0
 37 40  1  1  0  0  0
 37 33  1  0  0  0  0
 37 36  1  0  0  0  0
 39 38  1  0  0  0  0
 41 40  1  0  0  0  0
M  END
>  <minimizedAffinity>
-6.29131269

$$$$

 OpenBabel03212520333D

 41 44  0  0  1  0  0  0  0  0999 V2000
   39.3390   75.3390   58.1640 C   0  0  0  0  0  0  0  0  0  0  0  0
   40.4230   74.9630   58.9350 C   0  0  0  0  0  0  0  0  0  0  0  0
   41.1020   75.8900   59.6920 C   0  0  0  0  0  0  0  0  0  0  0  0
   40.7550   77.2380   59.7350 C   0  0  0  0  0  0  0  0  0  0  0  0
   39.6810   77.6350   58.9780 C   0  0  0  0  0  0  0  0  0  0  0  0
   38.9990   76.7070   58.2180 C   0  0  0  0  0  0  0  0  0  0  0  0
   41.9530   75.6250   60.3030 H   0  0  0  0  0  0  0  0  0  0  0  0
   41.2800   77.9690   60.3230 H   0  0  0  0  0  0  0  0  0  0  0  0
   39.3520   78.6660   58.9600 H   0  0  0  0  0  0  0  0  0  0  0  0
   38.1500   76.9950   57.6120 H   0  0  0  0  0  0  0  0  0  0  0  0
   41.8960   71.6680   58.1370 C   0  0  0  0  0  0  0  0  0  0  0  0
   41.6470   70.9510   59.3050 C   0  0  0  0  0  0  0  0  0  0  0  0
   40.9680   71.6270   60.3430 C   0  0  0  0  0  0  0  0  0  0  0  0
   40.6210   72.9110   60.1070 N   0  0  0  0  0  0  0  0  0  0  0  0
   40.8630   73.5760   59.0030 C   0  0  0  0  0  0  0  0  0  0  0  0
   41.5030   72.9400   58.0240 N   0  0  0  0  0  0  0  0  0  0  0  0
   42.4170   71.1450   57.3470 H   0  0  0  0  0  0  0  0  0  0  0  0
   40.7590   71.0980   61.2640 H   0  0  0  0  0  0  0  0  0  0  0  0
   42.0630   69.6000   59.4370 N   0  0  0  0  0  0  0  0  0  0  0  0
   41.2030   68.7210   58.9200 C   0  0  0  0  0  0  0  0  0  0  0  0
   41.5200   67.3620   58.9970 C   0  0  0  0  0  0  0  0  0  0  0  0
   42.7100   66.9810   59.6060 C   0  0  0  0  0  0  0  0  0  0  0  0
   43.0940   65.7870   59.7310 O   0  0  0  0  0  0  0  0  0  0  0  0
   43.5390   67.9410   60.1130 N   0  0  0  0  0  0  0  0  0  0  0  0
   43.2280   69.2620   60.0350 C   0  0  0  0  0  0  0  0  0  0  0  0
   43.9690   70.1500   60.4900 O   0  0  0  0  0  0  0  0  0  0  0  0
   40.2720   68.9830   58.4400 H   0  0  0  0  0  0  0  0  0  0  0  0
   40.8840   66.5930   58.6070 H   0  0  0  0  0  0  0  0  0  0  0  0
   44.4560   67.7550   60.5890 H   0  0  0  0  0  0  0  0  0  0  0  0
   38.4740   74.2220   57.1870 S   0  0  0  0  0  0  0  0  0  0  0  0
   37.0370   74.7000   57.0230 O   0  0  0  0  0  0  0  0  0  0  0  0
   38.2460   72.9690   58.0310 O   0  0  0  0  0  0  0  0  0  0  0  0
   38.4130   74.8830   54.5630 C   0  0  1  0  0  3  0  0  0  0  0  0
   39.0140   73.8840   55.5860 C   0  0  1  0  0  3  0  0  0  0  0  0
   40.3640   74.3190   55.3920 O   0  0  0  0  0  0  0  0  0  0  0  0
   40.5000   73.8890   54.0520 C   0  0  0  0  0  2  0  0  0  0  0  0
   39.3390   74.6380   53.3930 C   0  0  1  0  0  3  0  0  0  0  0  0
   37.0910   74.6350   54.3100 O   0  0  0  0  0  0  0  0  0  0  0  0
   36.6400   75.5270   54.1920 H   0  0  0  0  0  0  0  0  0  0  0  0
   38.7150   73.8870   52.4160 O   0  0  0  0  0  0  0  0  0  0  0  0
   38.2490   74.5430   51.8150 H   0  0  0  0  0  0  0  0  0  0  0  0
  1  6  2  0  0  0  0
  1  2  1  0  0  0  0
  2 15  1  0  0  0  0
  2  3  2  0  0  0  0
  3  4  1  0  0  0  0
  3  7  1  0  0  0  0
  4  8  1  0  0  0  0
  5  4  2  0  0  0  0
  6  5  1  0  0  0  0
  9  5  1  0  0  0  0
 10  6  1  0  0  0  0
 11 12  1  0  0  0  0
 12 19  1  0  0  0  0
 12 13  2  0  0  0  0
 13 18  1  0  0  0  0
 14 13  1  0  0  0  0
 15 14  2  0  0  0  0
 16 11  2  0  0  0  0
 16 15  1  0  0  0  0
 17 11  1  0  0  0  0
 19 25  1  0  0  0  0
 20 21  2  0  0  0  0
 20 19  1  0  0  0  0
 21 22  1  0  0  0  0
 22 23  2  0  0  0  0
 22 24  1  0  0  0  0
 24 29  1  0  0  0  0
 25 24  1  0  0  0  0
 25 26  2  0  0  0  0
 27 20  1  0  0  0  0
 28 21  1  0  0  0  0
 30 32  2  0  0  0  0
 30  1  1  0  0  0  0
 31 30  2  0  0  0  0
 33 38  1  6  0  0  0
 33 34  1  0  0  0  0
 34 30  1  1  0  0  0
 35 34  1  0  0  0  0
 36 35  1  0  0  0  0
 37 40  1  6  0  0  0
 37 36  1  0  0  0  0
 37 33  1  0  0  0  0
 39 38  1  0  0  0  0
 41 40  1  0  0  0  0
M  END
>  <minimizedAffinity>
-6.28200197

$$$$

 OpenBabel03212520333D

 41 44  0  0  1  0  0  0  0  0999 V2000
   39.6850   73.2270   53.1430 C   0  0  0  0  0  0  0  0  0  0  0  0
   39.8910   72.0480   53.8330 C   0  0  0  0  0  0  0  0  0  0  0  0
   39.9310   70.8430   53.1680 C   0  0  0  0  0  0  0  0  0  0  0  0
   39.7720   70.7290   51.7900 C   0  0  0  0  0  0  0  0  0  0  0  0
   39.5660   71.8870   51.0830 C   0  0  0  0  0  0  0  0  0  0  0  0
   39.5250   73.0960   51.7470 C   0  0  0  0  0  0  0  0  0  0  0  0
   40.0900   69.9050   53.6830 H   0  0  0  0  0  0  0  0  0  0  0  0
   39.8010   69.7920   51.2630 H   0  0  0  0  0  0  0  0  0  0  0  0
   39.4340   71.8790   50.0090 H   0  0  0  0  0  0  0  0  0  0  0  0
   39.3650   74.0230   51.2130 H   0  0  0  0  0  0  0  0  0  0  0  0
   39.4220   71.7320   57.4860 C   0  0  0  0  0  0  0  0  0  0  0  0
   40.6920   72.0420   57.9670 C   0  0  0  0  0  0  0  0  0  0  0  0
   41.6820   72.3580   57.0120 C   0  0  0  0  0  0  0  0  0  0  0  0
   41.3070   72.3310   55.7150 N   0  0  0  0  0  0  0  0  0  0  0  0
   40.1070   72.0370   55.2730 C   0  0  0  0  0  0  0  0  0  0  0  0
   39.1720   71.7390   56.1730 N   0  0  0  0  0  0  0  0  0  0  0  0
   38.6680   71.4910   58.2230 H   0  0  0  0  0  0  0  0  0  0  0  0
   42.6800   72.6030   57.3530 H   0  0  0  0  0  0  0  0  0  0  0  0
   40.9680   72.0360   59.3600 N   0  0  0  0  0  0  0  0  0  0  0  0
   41.5920   70.9350   59.7790 C   0  0  0  0  0  0  0  0  0  0  0  0
   41.9090   70.8300   61.1360 C   0  0  0  0  0  0  0  0  0  0  0  0
   41.5640   71.8710   61.9910 C   0  0  0  0  0  0  0  0  0  0  0  0
   41.8010   71.8810   63.2290 O   0  0  0  0  0  0  0  0  0  0  0  0
   40.9250   72.9670   61.4860 N   0  0  0  0  0  0  0  0  0  0  0  0
   40.6180   73.0650   60.1660 C   0  0  0  0  0  0  0  0  0  0  0  0
   40.0370   74.0550   59.6870 O   0  0  0  0  0  0  0  0  0  0  0  0
   41.8740   70.1090   59.1420 H   0  0  0  0  0  0  0  0  0  0  0  0
   42.4100   69.9790   61.5530 H   0  0  0  0  0  0  0  0  0  0  0  0
   40.6240   73.8010   62.0480 H   0  0  0  0  0  0  0  0  0  0  0  0
   39.6060   74.7520   53.9310 S   0  0  0  0  0  0  0  0  0  0  0  0
   39.1600   75.8140   52.9340 O   0  0  0  0  0  0  0  0  0  0  0  0
   41.0440   75.2040   54.1810 O   0  0  0  0  0  0  0  0  0  0  0  0
   39.2110   75.9060   56.3460 C   0  0  1  0  0  3  0  0  0  0  0  0
   38.5730   74.9610   55.2940 C   0  0  1  0  0  3  0  0  0  0  0  0
   37.4880   75.8440   54.9900 O   0  0  0  0  0  0  0  0  0  0  0  0
   36.8480   75.7810   56.2490 C   0  0  0  0  0  2  0  0  0  0  0  0
   37.9850   76.2340   57.1690 C   0  0  1  0  0  3  0  0  0  0  0  0
   40.2230   75.3010   57.0410 O   0  0  0  0  0  0  0  0  0  0  0  0
   40.9270   76.0010   57.2060 H   0  0  0  0  0  0  0  0  0  0  0  0
   37.9950   75.5500   58.3690 O   0  0  0  0  0  0  0  0  0  0  0  0
   38.4950   76.1320   59.0170 H   0  0  0  0  0  0  0  0  0  0  0  0
  1  2  1  0  0  0  0
  1 30  1  0  0  0  0
  2 15  1  0  0  0  0
  3  7  1  0  0  0  0
  3  2  2  0  0  0  0
  4  3  1  0  0  0  0
  5  6  1  0  0  0  0
  5  4  2  0  0  0  0
  6  1  2  0  0  0  0
  8  4  1  0  0  0  0
  9  5  1  0  0  0  0
 10  6  1  0  0  0  0
 11 12  1  0  0  0  0
 11 17  1  0  0  0  0
 12 19  1  0  0  0  0
 13 18  1  0  0  0  0
 13 12  2  0  0  0  0
 14 13  1  0  0  0  0
 15 14  2  0  0  0  0
 15 16  1  0  0  0  0
 16 11  2  0  0  0  0
 19 20  1  0  0  0  0
 19 25  1  0  0  0  0
 20 21  2  0  0  0  0
 21 28  1  0  0  0  0
 21 22  1  0  0  0  0
 22 23  2  0  0  0  0
 24 22  1  0  0  0  0
 24 29  1  0  0  0  0
 25 24  1  0  0  0  0
 26 25  2  0  0  0  0
 27 20  1  0  0  0  0
 30 32  2  0  0  0  0
 31 30  2  0  0  0  0
 33 38  1  1  0  0  0
 33 37  1  0  0  0  0
 34 30  1  6  0  0  0
 34 33  1  0  0  0  0
 35 34  1  0  0  0  0
 35 36  1  0  0  0  0
 36 37  1  0  0  0  0
 37 40  1  1  0  0  0
 38 39  1  0  0  0  0
 40 41  1  0  0  0  0
M  END
>  <minimizedAffinity>
-6.11929035

$$$$

 OpenBabel03212520333D

 41 44  0  0  1  0  0  0  0  0999 V2000
   40.3680   73.2410   60.6570 C   0  0  0  0  0  0  0  0  0  0  0  0
   40.9040   72.3810   59.7160 C   0  0  0  0  0  0  0  0  0  0  0  0
   41.7710   71.3800   60.0930 C   0  0  0  0  0  0  0  0  0  0  0  0
   42.1590   71.1670   61.4130 C   0  0  0  0  0  0  0  0  0  0  0  0
   41.6390   72.0090   62.3650 C   0  0  0  0  0  0  0  0  0  0  0  0
   40.7700   73.0130   61.9890 C   0  0  0  0  0  0  0  0  0  0  0  0
   42.2060   70.6940   59.3790 H   0  0  0  0  0  0  0  0  0  0  0  0
   42.8360   70.3890   61.7160 H   0  0  0  0  0  0  0  0  0  0  0  0
   41.8940   71.9050   63.4110 H   0  0  0  0  0  0  0  0  0  0  0  0
   40.3470   73.6890   62.7200 H   0  0  0  0  0  0  0  0  0  0  0  0
   39.1750   72.0500   56.4660 C   0  0  0  0  0  0  0  0  0  0  0  0
   40.0120   72.7760   55.6200 C   0  0  0  0  0  0  0  0  0  0  0  0
   41.1600   73.3600   56.1970 C   0  0  0  0  0  0  0  0  0  0  0  0
   41.3440   73.1610   57.5200 N   0  0  0  0  0  0  0  0  0  0  0  0
   40.5480   72.4770   58.3070 C   0  0  0  0  0  0  0  0  0  0  0  0
   39.4650   71.9260   57.7640 N   0  0  0  0  0  0  0  0  0  0  0  0
   38.2970   71.6050   56.0180 H   0  0  0  0  0  0  0  0  0  0  0  0
   41.8310   73.9300   55.5670 H   0  0  0  0  0  0  0  0  0  0  0  0
   39.7120   72.9160   54.2390 N   0  0  0  0  0  0  0  0  0  0  0  0
   40.0990   71.8780   53.4970 C   0  0  0  0  0  0  0  0  0  0  0  0
   39.8500   71.9170   52.1230 C   0  0  0  0  0  0  0  0  0  0  0  0
   39.2120   73.0290   51.5860 C   0  0  0  0  0  0  0  0  0  0  0  0
   38.9390   73.1700   50.3630 O   0  0  0  0  0  0  0  0  0  0  0  0
   38.8460   74.0540   52.4110 N   0  0  0  0  0  0  0  0  0  0  0  0
   39.0900   74.0110   53.7470 C   0  0  0  0  0  0  0  0  0  0  0  0
   38.7640   74.9340   54.5140 O   0  0  0  0  0  0  0  0  0  0  0  0
   40.5960   70.9990   53.8830 H   0  0  0  0  0  0  0  0  0  0  0  0
   40.1290   71.1240   51.4580 H   0  0  0  0  0  0  0  0  0  0  0  0
   38.3610   74.9320   52.1020 H   0  0  0  0  0  0  0  0  0  0  0  0
   39.2990   74.5170   60.2310 S   0  0  0  0  0  0  0  0  0  0  0  0
   38.9690   75.3350   61.4730 O   0  0  0  0  0  0  0  0  0  0  0  0
   37.9350   73.8870   59.9540 O   0  0  0  0  0  0  0  0  0  0  0  0
   38.5610   76.1620   58.2140 C   0  0  1  0  0  3  0  0  0  0  0  0
   39.7740   75.6760   59.0500 C   0  0  1  0  0  3  0  0  0  0  0  0
   40.0200   76.9550   59.6480 O   0  0  0  0  0  0  0  0  0  0  0  0
   40.3980   77.6350   58.4670 C   0  0  0  0  0  2  0  0  0  0  0  0
   39.1570   77.4080   57.5980 C   0  0  1  0  0  3  0  0  0  0  0  0
   38.1420   75.2220   57.3120 O   0  0  0  0  0  0  0  0  0  0  0  0
   37.1380   75.2800   57.2680 H   0  0  0  0  0  0  0  0  0  0  0  0
   39.4760   77.2020   56.2710 O   0  0  0  0  0  0  0  0  0  0  0  0
   38.6490   77.4280   55.7470 H   0  0  0  0  0  0  0  0  0  0  0  0
  1  6  1  0  0  0  0
  2  3  1  0  0  0  0
  2  1  2  0  0  0  0
  3  4  2  0  0  0  0
  4  8  1  0  0  0  0
  4  5  1  0  0  0  0
  5  9  1  0  0  0  0
  6  5  2  0  0  0  0
  6 10  1  0  0  0  0
  7  3  1  0  0  0  0
 11 16  1  0  0  0  0
 12 13  1  0  0  0  0
 12 11  2  0  0  0  0
 13 14  2  0  0  0  0
 14 15  1  0  0  0  0
 15  2  1  0  0  0  0
 16 15  2  0  0  0  0
 17 11  1  0  0  0  0
 18 13  1  0  0  0  0
 19 12  1  0  0  0  0
 20 27  1  0  0  0  0
 20 19  1  0  0  0  0
 21 20  2  0  0  0  0
 22 21  1  0  0  0  0
 22 24  1  0  0  0  0
 23 22  2  0  0  0  0
 24 25  1  0  0  0  0
 25 19  1  0  0  0  0
 25 26  2  0  0  0  0
 28 21  1  0  0  0  0
 29 24  1  0  0  0  0
 30  1  1  0  0  0  0
 30 31  2  0  0  0  0
 32 30  2  0  0  0  0
 33 38  1  6  0  0  0
 33 34  1  0  0  0  0
 34 35  1  0  0  0  0
 34 30  1  1  0  0  0
 36 35  1  0  0  0  0
 37 40  1  6  0  0  0
 37 33  1  0  0  0  0
 37 36  1  0  0  0  0
 39 38  1  0  0  0  0
 41 40  1  0  0  0  0
M  END
>  <minimizedAffinity>
-6.09578085

$$$$

 OpenBabel03212520333D

 41 44  0  0  1  0  0  0  0  0999 V2000
   41.5900   70.7310   59.7710 C   0  0  0  0  0  0  0  0  0  0  0  0
   40.9700   70.5060   58.5560 C   0  0  0  0  0  0  0  0  0  0  0  0
   40.9020   69.2380   58.0270 C   0  0  0  0  0  0  0  0  0  0  0  0
   41.4370   68.1190   58.6600 C   0  0  0  0  0  0  0  0  0  0  0  0
   42.0570   68.3180   59.8680 C   0  0  0  0  0  0  0  0  0  0  0  0
   42.1270   69.5890   60.4010 C   0  0  0  0  0  0  0  0  0  0  0  0
   40.4240   69.0330   57.0780 H   0  0  0  0  0  0  0  0  0  0  0  0
   41.3880   67.1250   58.2530 H   0  0  0  0  0  0  0  0  0  0  0  0
   42.4970   67.4970   60.4200 H   0  0  0  0  0  0  0  0  0  0  0  0
   42.6100   69.7720   61.3510 H   0  0  0  0  0  0  0  0  0  0  0  0
   40.3550   73.3660   56.2960 C   0  0  0  0  0  0  0  0  0  0  0  0
   38.9880   73.5780   56.4650 C   0  0  0  0  0  0  0  0  0  0  0  0
   38.3110   72.7250   57.3640 C   0  0  0  0  0  0  0  0  0  0  0  0
   39.0530   71.7790   57.9800 N   0  0  0  0  0  0  0  0  0  0  0  0
   40.3400   71.5880   57.8120 C   0  0  0  0  0  0  0  0  0  0  0  0
   40.9790   72.3920   56.9640 N   0  0  0  0  0  0  0  0  0  0  0  0
   40.8670   74.0220   55.6060 H   0  0  0  0  0  0  0  0  0  0  0  0
   37.2490   72.8630   57.5180 H   0  0  0  0  0  0  0  0  0  0  0  0
   38.3150   74.6080   55.7580 N   0  0  0  0  0  0  0  0  0  0  0  0
   38.2840   74.4220   54.4380 C   0  0  0  0  0  0  0  0  0  0  0  0
   37.6430   75.3810   53.6490 C   0  0  0  0  0  0  0  0  0  0  0  0
   37.0680   76.4860   54.2670 C   0  0  0  0  0  0  0  0  0  0  0  0
   36.4670   77.4100   53.6540 O   0  0  0  0  0  0  0  0  0  0  0  0
   37.1420   76.6070   55.6250 N   0  0  0  0  0  0  0  0  0  0  0  0
   37.7650   75.6710   56.3880 C   0  0  0  0  0  0  0  0  0  0  0  0
   37.8430   75.7630   57.6260 O   0  0  0  0  0  0  0  0  0  0  0  0
   38.7200   73.5760   53.9270 H   0  0  0  0  0  0  0  0  0  0  0  0
   37.5740   75.3060   52.5820 H   0  0  0  0  0  0  0  0  0  0  0  0
   36.7400   77.4010   56.1820 H   0  0  0  0  0  0  0  0  0  0  0  0
   41.7180   72.2990   60.4610 S   0  0  0  0  0  0  0  0  0  0  0  0
   42.5500   72.2240   61.7350 O   0  0  0  0  0  0  0  0  0  0  0  0
   40.3520   72.6430   61.0520 O   0  0  0  0  0  0  0  0  0  0  0  0
   41.6680   74.9200   59.7920 C   0  0  1  0  0  3  0  0  0  0  0  0
   42.4170   73.5830   59.5500 C   0  0  1  0  0  3  0  0  0  0  0  0
   43.6420   74.0310   60.1420 O   0  0  0  0  0  0  0  0  0  0  0  0
   43.9540   75.0200   59.1810 C   0  0  0  0  0  2  0  0  0  0  0  0
   42.6940   75.8890   59.2490 C   0  0  1  0  0  3  0  0  0  0  0  0
   40.4550   74.9570   59.1590 O   0  0  0  0  0  0  0  0  0  0  0  0
   39.8210   75.4530   59.7640 H   0  0  0  0  0  0  0  0  0  0  0  0
   42.3180   76.3680   58.0100 O   0  0  0  0  0  0  0  0  0  0  0  0
   41.7530   77.1800   58.1840 H   0  0  0  0  0  0  0  0  0  0  0  0
  1  6  1  0  0  0  0
  1 30  1  0  0  0  0
  2  1  2  0  0  0  0
  3  2  1  0  0  0  0
  3  4  2  0  0  0  0
  4  5  1  0  0  0  0
  5  6  2  0  0  0  0
  5  9  1  0  0  0  0
  6 10  1  0  0  0  0
  7  3  1  0  0  0  0
  8  4  1  0  0  0  0
 11 12  2  0  0  0  0
 11 16  1  0  0  0  0
 12 13  1  0  0  0  0
 13 18  1  0  0  0  0
 13 14  2  0  0  0  0
 15 14  1  0  0  0  0
 15  2  1  0  0  0  0
 16 15  2  0  0  0  0
 17 11  1  0  0  0  0
 19 25  1  0  0  0  0
 19 12  1  0  0  0  0
 20 19  1  0  0  0  0
 21 22  1  0  0  0  0
 21 20  2  0  0  0  0
 22 24  1  0  0  0  0
 23 22  2  0  0  0  0
 24 29  1  0  0  0  0
 24 25  1  0  0  0  0
 25 26  2  0  0  0  0
 27 20  1  0  0  0  0
 28 21  1  0  0  0  0
 30 32  2  0  0  0  0
 30 31  2  0  0  0  0
 33 38  1  6  0  0  0
 34 33  1  0  0  0  0
 34 35  1  0  0  0  0
 34 30  1  1  0  0  0
 36 37  1  0  0  0  0
 36 35  1  0  0  0  0
 37 40  1  6  0  0  0
 37 33  1  0  0  0  0
 38 39  1  0  0  0  0
 40 41  1  0  0  0  0
M  END
>  <minimizedAffinity>
-6.03535509

$$$$
