
 OpenBabel03212520303D

 41 44  0  0  1  0  0  0  0  0999 V2000
   42.8690   82.4820   62.5750 C   0  0  0  0  0  0  0  0  0  0  0  0
   43.1970   81.3060   61.9270 C   0  0  0  0  0  0  0  0  0  0  0  0
   44.4630   80.7760   62.0320 C   0  0  0  0  0  0  0  0  0  0  0  0
   45.4770   81.3710   62.7780 C   0  0  0  0  0  0  0  0  0  0  0  0
   45.1740   82.5400   63.4310 C   0  0  0  0  0  0  0  0  0  0  0  0
   43.9050   83.0730   63.3270 C   0  0  0  0  0  0  0  0  0  0  0  0
   44.7480   79.8590   61.5350 H   0  0  0  0  0  0  0  0  0  0  0  0
   46.4680   80.9640   62.8650 H   0  0  0  0  0  0  0  0  0  0  0  0
   45.9100   83.0590   64.0310 H   0  0  0  0  0  0  0  0  0  0  0  0
   43.6410   83.9920   63.8320 H   0  0  0  0  0  0  0  0  0  0  0  0
   40.3260   79.2150   60.9010 C   0  0  0  0  0  0  0  0  0  0  0  0
   40.4270   79.2490   59.5120 C   0  0  0  0  0  0  0  0  0  0  0  0
   41.4930   79.9940   58.9620 C   0  0  0  0  0  0  0  0  0  0  0  0
   42.3200   80.6080   59.8370 N   0  0  0  0  0  0  0  0  0  0  0  0
   42.2140   80.5700   61.1430 C   0  0  0  0  0  0  0  0  0  0  0  0
   41.2100   79.8670   61.6630 N   0  0  0  0  0  0  0  0  0  0  0  0
   39.5080   78.6430   61.3160 H   0  0  0  0  0  0  0  0  0  0  0  0
   41.6000   80.0410   57.8860 H   0  0  0  0  0  0  0  0  0  0  0  0
   39.4920   78.5620   58.6940 N   0  0  0  0  0  0  0  0  0  0  0  0
   39.0780   79.2680   57.6420 C   0  0  0  0  0  0  0  0  0  0  0  0
   38.1560   78.6800   56.7720 C   0  0  0  0  0  0  0  0  0  0  0  0
   37.7080   77.3910   57.0360 C   0  0  0  0  0  0  0  0  0  0  0  0
   36.8790   76.7660   56.3210 O   0  0  0  0  0  0  0  0  0  0  0  0
   38.1790   76.7310   58.1350 N   0  0  0  0  0  0  0  0  0  0  0  0
   39.0760   77.3060   58.9780 C   0  0  0  0  0  0  0  0  0  0  0  0
   39.5170   76.7220   59.9840 O   0  0  0  0  0  0  0  0  0  0  0  0
   39.4060   80.2700   57.4080 H   0  0  0  0  0  0  0  0  0  0  0  0
   37.7730   79.1800   55.9040 H   0  0  0  0  0  0  0  0  0  0  0  0
   37.9030   75.7590   58.4190 H   0  0  0  0  0  0  0  0  0  0  0  0
   41.3090   83.1930   62.4560 S   0  0  0  0  0  0  0  0  0  0  0  0
   41.1630   84.2740   63.5200 O   0  0  0  0  0  0  0  0  0  0  0  0
   40.3060   82.1650   62.9780 O   0  0  0  0  0  0  0  0  0  0  0  0
   42.0210   84.1540   60.0290 C   0  0  1  0  0  3  0  0  0  0  0  0
   40.8180   83.9470   60.9870 C   0  0  1  0  0  3  0  0  0  0  0  0
   40.1470   83.0180   60.1270 O   0  0  0  0  0  0  0  0  0  0  0  0
   39.8660   83.9200   59.0750 C   0  0  0  0  0  2  0  0  0  0  0  0
   41.2760   84.4110   58.7380 C   0  0  1  0  0  3  0  0  0  0  0  0
   42.8350   85.1750   60.4340 O   0  0  0  0  0  0  0  0  0  0  0  0
   43.7810   84.9020   60.2210 H   0  0  0  0  0  0  0  0  0  0  0  0
   41.3010   85.7530   58.4100 O   0  0  0  0  0  0  0  0  0  0  0  0
   42.1360   85.8930   57.8700 H   0  0  0  0  0  0  0  0  0  0  0  0
  1  6  1  0  0  0  0
  2  3  1  0  0  0  0
  2  1  2  0  0  0  0
  3  4  2  0  0  0  0
  4  8  1  0  0  0  0
  4  5  1  0  0  0  0
  5  9  1  0  0  0  0
  6  5  2  0  0  0  0
  6 10  1  0  0  0  0
  7  3  1  0  0  0  0
 11 17  1  0  0  0  0
 11 16  1  0  0  0  0
 12 11  2  0  0  0  0
 13 12  1  0  0  0  0
 13 14  2  0  0  0  0
 14 15  1  0  0  0  0
 15 16  2  0  0  0  0
 15  2  1  0  0  0  0
 18 13  1  0  0  0  0
 19 25  1  0  0  0  0
 19 12  1  0  0  0  0
 20 19  1  0  0  0  0
 21 22  1  0  0  0  0
 21 20  2  0  0  0  0
 22 24  1  0  0  0  0
 23 22  2  0  0  0  0
 24 29  1  0  0  0  0
 24 25  1  0  0  0  0
 25 26  2  0  0  0  0
 27 20  1  0  0  0  0
 28 21  1  0  0  0  0
 30  1  1  0  0  0  0
 30 32  2  0  0  0  0
 30 31  2  0  0  0  0
 33 38  1  1  0  0  0
 33 34  1  0  0  0  0
 34 30  1  1  0  0  0
 35 34  1  0  0  0  0
 36 35  1  0  0  0  0
 37 40  1  1  0  0  0
 37 36  1  0  0  0  0
 37 33  1  0  0  0  0
 39 38  1  0  0  0  0
 41 40  1  0  0  0  0
M  END
>  <minimizedAffinity>
-6.9155488

>  <minimizedRMSD>
2.55366492

$$$$
