
 OpenBabel03212520313D

 41 44  0  0  1  0  0  0  0  0999 V2000
   44.0260   82.3910   62.4530 C   0  0  0  0  0  0  0  0  0  0  0  0
   44.0690   81.1760   61.7960 C   0  0  0  0  0  0  0  0  0  0  0  0
   45.0770   80.2750   62.0520 C   0  0  0  0  0  0  0  0  0  0  0  0
   46.0990   80.5150   62.9660 C   0  0  0  0  0  0  0  0  0  0  0  0
   46.0760   81.7150   63.6320 C   0  0  0  0  0  0  0  0  0  0  0  0
   45.0670   82.6210   63.3770 C   0  0  0  0  0  0  0  0  0  0  0  0
   45.1360   79.3170   61.5520 H   0  0  0  0  0  0  0  0  0  0  0  0
   46.8900   79.8170   63.1710 H   0  0  0  0  0  0  0  0  0  0  0  0
   46.8370   81.9740   64.3580 H   0  0  0  0  0  0  0  0  0  0  0  0
   45.0270   83.5730   63.8880 H   0  0  0  0  0  0  0  0  0  0  0  0
   42.1770   80.5450   58.6840 C   0  0  0  0  0  0  0  0  0  0  0  0
   40.9960   79.9890   59.1720 C   0  0  0  0  0  0  0  0  0  0  0  0
   40.8820   79.8490   60.5720 C   0  0  0  0  0  0  0  0  0  0  0  0
   41.9310   80.2700   61.3130 N   0  0  0  0  0  0  0  0  0  0  0  0
   43.0380   80.7910   60.8410 C   0  0  0  0  0  0  0  0  0  0  0  0
   43.1470   80.9230   59.5210 N   0  0  0  0  0  0  0  0  0  0  0  0
   42.2580   80.6490   57.6100 H   0  0  0  0  0  0  0  0  0  0  0  0
   39.9770   79.4210   60.9850 H   0  0  0  0  0  0  0  0  0  0  0  0
   39.9600   79.5820   58.2910 N   0  0  0  0  0  0  0  0  0  0  0  0
   39.6700   78.2830   58.3660 C   0  0  0  0  0  0  0  0  0  0  0  0
   38.6630   77.7800   57.5390 C   0  0  0  0  0  0  0  0  0  0  0  0
   38.0060   78.6490   56.6740 C   0  0  0  0  0  0  0  0  0  0  0  0
   37.0850   78.3040   55.8850 O   0  0  0  0  0  0  0  0  0  0  0  0
   38.3610   79.9680   56.6530 N   0  0  0  0  0  0  0  0  0  0  0  0
   39.3410   80.4520   57.4610 C   0  0  0  0  0  0  0  0  0  0  0  0
   39.6770   81.6490   57.4570 O   0  0  0  0  0  0  0  0  0  0  0  0
   40.1600   77.5820   59.0270 H   0  0  0  0  0  0  0  0  0  0  0  0
   38.3690   76.7490   57.5380 H   0  0  0  0  0  0  0  0  0  0  0  0
   37.9260   80.6990   56.0380 H   0  0  0  0  0  0  0  0  0  0  0  0
   42.8000   83.5570   62.1530 S   0  0  0  0  0  0  0  0  0  0  0  0
   43.0670   84.8000   62.9910 O   0  0  0  0  0  0  0  0  0  0  0  0
   41.5240   83.0500   62.8230 O   0  0  0  0  0  0  0  0  0  0  0  0
   41.0430   84.3990   60.2740 C   0  0  1  0  0  3  0  0  0  0  0  0
   42.5490   84.1450   60.5530 C   0  0  1  0  0  3  0  0  0  0  0  0
   42.9180   85.5250   60.4450 O   0  0  0  0  0  0  0  0  0  0  0  0
   42.6290   85.6810   59.0690 C   0  0  0  0  0  2  0  0  0  0  0  0
   41.1560   85.2650   59.0390 C   0  0  1  0  0  3  0  0  0  0  0  0
   40.3460   83.2350   60.0950 O   0  0  0  0  0  0  0  0  0  0  0  0
   39.4380   83.3680   60.5100 H   0  0  0  0  0  0  0  0  0  0  0  0
   40.8330   84.5530   57.9020 O   0  0  0  0  0  0  0  0  0  0  0  0
   39.8400   84.6450   57.7870 H   0  0  0  0  0  0  0  0  0  0  0  0
  1  6  1  0  0  0  0
  2  3  1  0  0  0  0
  2  1  2  0  0  0  0
  3  4  2  0  0  0  0
  4  8  1  0  0  0  0
  4  5  1  0  0  0  0
  5  9  1  0  0  0  0
  6  5  2  0  0  0  0
  6 10  1  0  0  0  0
  7  3  1  0  0  0  0
 11 12  2  0  0  0  0
 11 16  1  0  0  0  0
 12 13  1  0  0  0  0
 13 18  1  0  0  0  0
 13 14  2  0  0  0  0
 15 14  1  0  0  0  0
 15  2  1  0  0  0  0
 16 15  2  0  0  0  0
 17 11  1  0  0  0  0
 19 20  1  0  0  0  0
 19 12  1  0  0  0  0
 20 27  1  0  0  0  0
 21 20  2  0  0  0  0
 22 21  1  0  0  0  0
 23 22  2  0  0  0  0
 24 22  1  0  0  0  0
 24 25  1  0  0  0  0
 25 19  1  0  0  0  0
 26 25  2  0  0  0  0
 28 21  1  0  0  0  0
 29 24  1  0  0  0  0
 30  1  1  0  0  0  0
 30 32  2  0  0  0  0
 30 31  2  0  0  0  0
 33 38  1  6  0  0  0
 33 34  1  0  0  0  0
 34 30  1  1  0  0  0
 35 34  1  0  0  0  0
 36 35  1  0  0  0  0
 37 40  1  6  0  0  0
 37 36  1  0  0  0  0
 37 33  1  0  0  0  0
 38 39  1  0  0  0  0
 41 40  1  0  0  0  0
M  END
>  <minimizedAffinity>
-5.94318342

>  <minimizedRMSD>
2.61967444

$$$$
