
 OpenBabel03212520303D

 41 44  0  0  1  0  0  0  0  0999 V2000
   42.1620   82.2670   61.3720 C   0  0  0  0  0  0  0  0  0  0  0  0
   42.4710   81.0010   60.9110 C   0  0  0  0  0  0  0  0  0  0  0  0
   43.5850   80.3380   61.3730 C   0  0  0  0  0  0  0  0  0  0  0  0
   44.4580   80.8800   62.3130 C   0  0  0  0  0  0  0  0  0  0  0  0
   44.1700   82.1360   62.7860 C   0  0  0  0  0  0  0  0  0  0  0  0
   43.0540   82.8030   62.3240 C   0  0  0  0  0  0  0  0  0  0  0  0
   43.8520   79.3480   61.0290 H   0  0  0  0  0  0  0  0  0  0  0  0
   45.3300   80.3700   62.6780 H   0  0  0  0  0  0  0  0  0  0  0  0
   44.8020   82.6230   63.5180 H   0  0  0  0  0  0  0  0  0  0  0  0
   42.8050   83.7930   62.6810 H   0  0  0  0  0  0  0  0  0  0  0  0
   39.9460   78.7890   59.3620 C   0  0  0  0  0  0  0  0  0  0  0  0
   40.0670   79.1160   58.0130 C   0  0  0  0  0  0  0  0  0  0  0  0
   41.0250   80.0940   57.6710 C   0  0  0  0  0  0  0  0  0  0  0  0
   41.7410   80.6250   58.6860 N   0  0  0  0  0  0  0  0  0  0  0  0
   41.6180   80.3110   59.9530 C   0  0  0  0  0  0  0  0  0  0  0  0
   40.7140   79.3890   60.2770 N   0  0  0  0  0  0  0  0  0  0  0  0
   39.2100   78.0400   59.6170 H   0  0  0  0  0  0  0  0  0  0  0  0
   41.1440   80.3710   56.6310 H   0  0  0  0  0  0  0  0  0  0  0  0
   39.2540   78.4870   57.0330 N   0  0  0  0  0  0  0  0  0  0  0  0
   38.1490   79.1690   56.7330 C   0  0  0  0  0  0  0  0  0  0  0  0
   37.2810   78.6350   55.7770 C   0  0  0  0  0  0  0  0  0  0  0  0
   37.5990   77.4210   55.1810 C   0  0  0  0  0  0  0  0  0  0  0  0
   36.8900   76.8480   54.3100 O   0  0  0  0  0  0  0  0  0  0  0  0
   38.7500   76.7800   55.5420 N   0  0  0  0  0  0  0  0  0  0  0  0
   39.5930   77.3030   56.4720 C   0  0  0  0  0  0  0  0  0  0  0  0
   40.6450   76.7360   56.8130 O   0  0  0  0  0  0  0  0  0  0  0  0
   37.8730   80.1150   57.1760 H   0  0  0  0  0  0  0  0  0  0  0  0
   36.3720   79.1210   55.4800 H   0  0  0  0  0  0  0  0  0  0  0  0
   39.0780   75.8620   55.1510 H   0  0  0  0  0  0  0  0  0  0  0  0
   40.7940   83.1410   60.8100 S   0  0  0  0  0  0  0  0  0  0  0  0
   40.4600   84.2500   61.8000 O   0  0  0  0  0  0  0  0  0  0  0  0
   39.5750   82.2380   60.9960 O   0  0  0  0  0  0  0  0  0  0  0  0
   40.5130   85.4300   59.3930 C   0  0  1  0  0  3  0  0  0  0  0  0
   40.8440   83.9190   59.2740 C   0  0  1  0  0  3  0  0  0  0  0  0
   42.1930   84.1320   58.8450 O   0  0  0  0  0  0  0  0  0  0  0  0
   41.8930   84.7330   57.6010 C   0  0  0  0  0  2  0  0  0  0  0  0
   41.0270   85.9110   58.0560 C   0  0  1  0  0  3  0  0  0  0  0  0
   39.1800   85.6520   59.6100 O   0  0  0  0  0  0  0  0  0  0  0  0
   39.1080   86.4370   60.2360 H   0  0  0  0  0  0  0  0  0  0  0  0
   39.9850   86.1630   57.1850 O   0  0  0  0  0  0  0  0  0  0  0  0
   39.7160   87.1180   57.3420 H   0  0  0  0  0  0  0  0  0  0  0  0
  1  6  1  0  0  0  0
  2  1  2  0  0  0  0
  2  3  1  0  0  0  0
  3  4  2  0  0  0  0
  4  8  1  0  0  0  0
  4  5  1  0  0  0  0
  5  9  1  0  0  0  0
  6 10  1  0  0  0  0
  6  5  2  0  0  0  0
  7  3  1  0  0  0  0
 11 17  1  0  0  0  0
 11 16  1  0  0  0  0
 12 11  2  0  0  0  0
 13 12  1  0  0  0  0
 13 14  2  0  0  0  0
 14 15  1  0  0  0  0
 15 16  2  0  0  0  0
 15  2  1  0  0  0  0
 18 13  1  0  0  0  0
 19 12  1  0  0  0  0
 20 19  1  0  0  0  0
 20 27  1  0  0  0  0
 21 20  2  0  0  0  0
 22 24  1  0  0  0  0
 22 21  1  0  0  0  0
 23 22  2  0  0  0  0
 24 25  1  0  0  0  0
 25 26  2  0  0  0  0
 25 19  1  0  0  0  0
 28 21  1  0  0  0  0
 29 24  1  0  0  0  0
 30 32  2  0  0  0  0
 30  1  1  0  0  0  0
 30 31  2  0  0  0  0
 33 38  1  6  0  0  0
 34 33  1  0  0  0  0
 34 30  1  1  0  0  0
 35 34  1  0  0  0  0
 36 37  1  0  0  0  0
 36 35  1  0  0  0  0
 37 40  1  6  0  0  0
 37 33  1  0  0  0  0
 38 39  1  0  0  0  0
 40 41  1  0  0  0  0
M  END
>  <minimizedAffinity>
-6.10090685

>  <minimizedRMSD>
2.30747104

$$$$
