
 OpenBabel03212520303D

 41 44  0  0  1  0  0  0  0  0999 V2000
   42.2450   82.2100   62.1810 C   0  0  0  0  0  0  0  0  0  0  0  0
   42.6920   81.0730   61.5340 C   0  0  0  0  0  0  0  0  0  0  0  0
   43.9730   80.6110   61.7310 C   0  0  0  0  0  0  0  0  0  0  0  0
   44.8870   81.2380   62.5740 C   0  0  0  0  0  0  0  0  0  0  0  0
   44.4650   82.3690   63.2280 C   0  0  0  0  0  0  0  0  0  0  0  0
   43.1810   82.8340   63.0320 C   0  0  0  0  0  0  0  0  0  0  0  0
   44.3500   79.7250   61.2380 H   0  0  0  0  0  0  0  0  0  0  0  0
   45.8900   80.8840   62.7330 H   0  0  0  0  0  0  0  0  0  0  0  0
   45.1180   82.9110   63.9000 H   0  0  0  0  0  0  0  0  0  0  0  0
   42.8240   83.7220   63.5350 H   0  0  0  0  0  0  0  0  0  0  0  0
   40.2300   78.6530   60.2110 C   0  0  0  0  0  0  0  0  0  0  0  0
   40.2160   78.9700   58.8540 C   0  0  0  0  0  0  0  0  0  0  0  0
   41.0660   80.0140   58.4290 C   0  0  0  0  0  0  0  0  0  0  0  0
   41.8170   80.6120   59.3790 N   0  0  0  0  0  0  0  0  0  0  0  0
   41.8210   80.3060   60.6540 C   0  0  0  0  0  0  0  0  0  0  0  0
   41.0200   79.3220   61.0570 N   0  0  0  0  0  0  0  0  0  0  0  0
   39.5770   77.8530   60.5310 H   0  0  0  0  0  0  0  0  0  0  0  0
   41.0790   80.2850   57.3800 H   0  0  0  0  0  0  0  0  0  0  0  0
   39.3790   78.2670   57.9480 N   0  0  0  0  0  0  0  0  0  0  0  0
   38.5260   79.0500   57.2870 C   0  0  0  0  0  0  0  0  0  0  0  0
   37.6570   78.4550   56.3700 C   0  0  0  0  0  0  0  0  0  0  0  0
   37.7140   77.0790   56.1820 C   0  0  0  0  0  0  0  0  0  0  0  0
   36.9780   76.4390   55.3830 O   0  0  0  0  0  0  0  0  0  0  0  0
   38.6150   76.3430   56.8980 N   0  0  0  0  0  0  0  0  0  0  0  0
   39.4590   76.9260   57.7890 C   0  0  0  0  0  0  0  0  0  0  0  0
   40.2870   76.2740   58.4490 O   0  0  0  0  0  0  0  0  0  0  0  0
   38.4570   80.1210   57.4090 H   0  0  0  0  0  0  0  0  0  0  0  0
   36.9420   79.0140   55.7980 H   0  0  0  0  0  0  0  0  0  0  0  0
   38.7350   75.3020   56.8280 H   0  0  0  0  0  0  0  0  0  0  0  0
   40.6620   82.8360   61.9510 S   0  0  0  0  0  0  0  0  0  0  0  0
   40.1140   83.3300   63.2840 O   0  0  0  0  0  0  0  0  0  0  0  0
   39.7380   81.6440   61.7060 O   0  0  0  0  0  0  0  0  0  0  0  0
   40.7760   83.7400   59.4030 C   0  0  1  0  0  3  0  0  0  0  0  0
   40.4060   84.1400   60.8560 C   0  0  1  0  0  3  0  0  0  0  0  0
   39.0110   84.3130   60.5730 O   0  0  0  0  0  0  0  0  0  0  0  0
   39.1410   85.4250   59.7090 C   0  0  0  0  0  2  0  0  0  0  0  0
   40.0830   84.8520   58.6480 C   0  0  1  0  0  3  0  0  0  0  0  0
   42.1300   83.6740   59.2130 O   0  0  0  0  0  0  0  0  0  0  0  0
   42.3040   82.9080   58.5840 H   0  0  0  0  0  0  0  0  0  0  0  0
   40.9950   85.7860   58.1940 O   0  0  0  0  0  0  0  0  0  0  0  0
   41.3000   85.4640   57.2930 H   0  0  0  0  0  0  0  0  0  0  0  0
  1  6  1  0  0  0  0
  2  3  1  0  0  0  0
  2  1  2  0  0  0  0
  3  4  2  0  0  0  0
  4  8  1  0  0  0  0
  4  5  1  0  0  0  0
  5  9  1  0  0  0  0
  6  5  2  0  0  0  0
  6 10  1  0  0  0  0
  7  3  1  0  0  0  0
 11 17  1  0  0  0  0
 11 16  1  0  0  0  0
 12 11  2  0  0  0  0
 13 12  1  0  0  0  0
 13 14  2  0  0  0  0
 14 15  1  0  0  0  0
 15 16  2  0  0  0  0
 15  2  1  0  0  0  0
 18 13  1  0  0  0  0
 19 12  1  0  0  0  0
 20 27  1  0  0  0  0
 20 19  1  0  0  0  0
 21 20  2  0  0  0  0
 22 21  1  0  0  0  0
 22 24  1  0  0  0  0
 23 22  2  0  0  0  0
 24 25  1  0  0  0  0
 25 19  1  0  0  0  0
 25 26  2  0  0  0  0
 28 21  1  0  0  0  0
 29 24  1  0  0  0  0
 30  1  1  0  0  0  0
 30 31  2  0  0  0  0
 32 30  2  0  0  0  0
 33 38  1  1  0  0  0
 33 34  1  0  0  0  0
 34 30  1  1  0  0  0
 35 34  1  0  0  0  0
 36 35  1  0  0  0  0
 37 40  1  1  0  0  0
 37 33  1  0  0  0  0
 37 36  1  0  0  0  0
 39 38  1  0  0  0  0
 41 40  1  0  0  0  0
M  END
>  <minimizedAffinity>
-6.67752886

>  <minimizedRMSD>
2.15367913

$$$$
