
 OpenBabel03212520393D

 27 29  0  0  1  0  0  0  0  0999 V2000
   42.3620   85.4490   59.7680 C   0  0  1  0  0  0  0  0  0  0  0  0
   43.4460   86.4640   59.4170 C   0  0  0  0  0  0  0  0  0  0  0  0
   42.9910   85.3920   58.4400 C   0  0  1  0  0  0  0  0  0  0  0  0
   41.3680   85.9150   59.9520 H   0  0  0  0  0  0  0  0  0  0  0  0
   44.4810   86.3110   59.7770 H   0  0  0  0  0  0  0  0  0  0  0  0
   43.1310   87.5060   59.2340 H   0  0  0  0  0  0  0  0  0  0  0  0
   42.4460   85.7690   57.5550 H   0  0  0  0  0  0  0  0  0  0  0  0
   42.8070   84.5460   60.7810 O   0  0  0  0  0  0  0  0  0  0  0  0
   40.0600   83.5230   62.9070 C   0  0  0  0  0  0  0  0  0  0  0  0
   40.5790   83.7470   64.1810 C   0  0  0  0  0  0  0  0  0  0  0  0
   41.8950   84.2580   64.2700 C   0  0  0  0  0  0  0  0  0  0  0  0
   42.5290   84.4810   63.0960 N   0  0  0  0  0  0  0  0  0  0  0  0
   42.0180   84.2610   61.8700 C   0  0  0  0  0  0  0  0  0  0  0  0
   40.7850   83.7830   61.7600 N   0  0  0  0  0  0  0  0  0  0  0  0
   39.0410   83.1270   62.7940 H   0  0  0  0  0  0  0  0  0  0  0  0
   40.0220   83.5490   65.0650 H   0  0  0  0  0  0  0  0  0  0  0  0
   42.3690   84.4590   65.2190 H   0  0  0  0  0  0  0  0  0  0  0  0
   43.8550   84.3120   58.2000 O   0  0  0  0  0  0  0  0  0  0  0  0
   44.9110   82.9670   56.5140 C   0  0  2  0  0  3  0  0  0  0  0  0
   43.9520   84.0980   56.8330 C   0  0  2  0  0  3  0  0  0  0  0  0
   44.4460   85.2030   56.1550 O   0  0  0  0  0  0  0  0  0  0  0  0
   45.0700   84.7540   55.0110 C   0  0  0  0  0  2  0  0  0  0  0  0
   45.2170   83.2710   55.0620 C   0  0  2  0  0  3  0  0  0  0  0  0
   44.3120   81.7230   56.6680 O   0  0  0  0  0  0  0  0  0  0  0  0
   44.9310   81.1480   57.1880 H   0  0  0  0  0  0  0  0  0  0  0  0
   44.3260   82.5920   54.2370 O   0  0  0  0  0  0  0  0  0  0  0  0
   44.0980   81.6920   54.5680 H   0  0  0  0  0  0  0  0  0  0  0  0
  1  4  1  1  0  0  0
  1  8  1  0  0  0  0
  2  1  1  0  0  0  0
  2  5  1  0  0  0  0
  3  7  1  6  0  0  0
  3  2  1  0  0  0  0
  3  1  1  0  0  0  0
  6  2  1  0  0  0  0
  8 13  1  0  0  0  0
  9 10  1  0  0  0  0
 10 11  2  0  0  0  0
 10 16  1  0  0  0  0
 11 17  1  0  0  0  0
 12 11  1  0  0  0  0
 13 12  2  0  0  0  0
 14 13  1  0  0  0  0
 14  9  2  0  0  0  0
 15  9  1  0  0  0  0
 18  3  1  0  0  0  0
 19 24  1  6  0  0  0
 19 20  1  0  0  0  0
 20 18  1  1  0  0  0
 21 20  1  0  0  0  0
 22 23  1  0  0  0  0
 22 21  1  0  0  0  0
 23 26  1  6  0  0  0
 23 19  1  0  0  0  0
 24 25  1  0  0  0  0
 26 27  1  0  0  0  0
M  END
>  <minimizedAffinity>
-3.68337607

>  <minimizedRMSD>
0.278874397

$$$$
