
 OpenBabel03212520393D

 27 29  0  0  1  0  0  0  0  0999 V2000
   41.8460   85.3970   59.5090 C   0  0  1  0  0  0  0  0  0  0  0  0
   42.8860   85.9800   58.5580 C   0  0  0  0  0  0  0  0  0  0  0  0
   41.8750   84.9350   58.1140 C   0  0  1  0  0  0  0  0  0  0  0  0
   41.1230   86.1550   59.8860 H   0  0  0  0  0  0  0  0  0  0  0  0
   43.9240   85.5970   58.5750 H   0  0  0  0  0  0  0  0  0  0  0  0
   42.7450   87.0220   58.2210 H   0  0  0  0  0  0  0  0  0  0  0  0
   41.1150   85.2970   57.3970 H   0  0  0  0  0  0  0  0  0  0  0  0
   42.4600   84.5890   60.5150 O   0  0  0  0  0  0  0  0  0  0  0  0
   39.9650   83.5050   62.9050 C   0  0  0  0  0  0  0  0  0  0  0  0
   40.6130   83.7190   64.1200 C   0  0  0  0  0  0  0  0  0  0  0  0
   41.9250   84.2450   64.0760 C   0  0  0  0  0  0  0  0  0  0  0  0
   42.4290   84.4910   62.8450 N   0  0  0  0  0  0  0  0  0  0  0  0
   41.7940   84.2810   61.6780 C   0  0  0  0  0  0  0  0  0  0  0  0
   40.5610   83.7880   61.6910 N   0  0  0  0  0  0  0  0  0  0  0  0
   38.9440   83.0980   62.8950 H   0  0  0  0  0  0  0  0  0  0  0  0
   40.1550   83.5020   65.0550 H   0  0  0  0  0  0  0  0  0  0  0  0
   42.4950   84.4400   64.9720 H   0  0  0  0  0  0  0  0  0  0  0  0
   42.3340   83.6280   57.8940 O   0  0  0  0  0  0  0  0  0  0  0  0
   41.0420   81.6320   58.2310 C   0  0  2  0  0  3  0  0  0  0  0  0
   41.3000   82.8590   57.3780 C   0  0  2  0  0  3  0  0  0  0  0  0
   41.5780   82.3760   56.1080 O   0  0  0  0  0  0  0  0  0  0  0  0
   40.8680   81.2070   55.9360 C   0  0  0  0  0  2  0  0  0  0  0  0
   40.2940   80.7650   57.2390 C   0  0  2  0  0  3  0  0  0  0  0  0
   40.2670   81.9300   59.3450 O   0  0  0  0  0  0  0  0  0  0  0  0
   40.6960   81.5110   60.1360 H   0  0  0  0  0  0  0  0  0  0  0  0
   38.9250   80.9860   57.3510 O   0  0  0  0  0  0  0  0  0  0  0  0
   38.6290   81.1300   58.2810 H   0  0  0  0  0  0  0  0  0  0  0  0
  1  4  1  1  0  0  0
  1  8  1  0  0  0  0
  2  5  1  0  0  0  0
  2  1  1  0  0  0  0
  3  7  1  6  0  0  0
  3  2  1  0  0  0  0
  3  1  1  0  0  0  0
  6  2  1  0  0  0  0
  8 13  1  0  0  0  0
  9 10  1  0  0  0  0
 10 16  1  0  0  0  0
 11 10  2  0  0  0  0
 11 17  1  0  0  0  0
 12 11  1  0  0  0  0
 13 14  1  0  0  0  0
 13 12  2  0  0  0  0
 14  9  2  0  0  0  0
 15  9  1  0  0  0  0
 18  3  1  0  0  0  0
 19 24  1  1  0  0  0
 20 18  1  1  0  0  0
 20 19  1  0  0  0  0
 21 20  1  0  0  0  0
 22 21  1  0  0  0  0
 22 23  1  0  0  0  0
 23 26  1  6  0  0  0
 23 19  1  0  0  0  0
 24 25  1  0  0  0  0
 26 27  1  0  0  0  0
M  END
>  <minimizedAffinity>
-4.47196865

>  <minimizedRMSD>
2.63994074

$$$$
