
 OpenBabel03212520393D

 27 29  0  0  1  0  0  0  0  0999 V2000
   42.3740   85.4530   59.7760 C   0  0  1  0  0  0  0  0  0  0  0  0
   43.4500   86.4900   59.4680 C   0  0  0  0  0  0  0  0  0  0  0  0
   43.0340   85.4290   58.4630 C   0  0  1  0  0  0  0  0  0  0  0  0
   41.3690   85.9010   59.9450 H   0  0  0  0  0  0  0  0  0  0  0  0
   44.4790   86.3470   59.8480 H   0  0  0  0  0  0  0  0  0  0  0  0
   43.1230   87.5310   59.2960 H   0  0  0  0  0  0  0  0  0  0  0  0
   42.5030   85.8130   57.5720 H   0  0  0  0  0  0  0  0  0  0  0  0
   42.8100   84.5390   60.7840 O   0  0  0  0  0  0  0  0  0  0  0  0
   40.0600   83.5190   62.9060 C   0  0  0  0  0  0  0  0  0  0  0  0
   40.5760   83.7470   64.1810 C   0  0  0  0  0  0  0  0  0  0  0  0
   41.8910   84.2590   64.2710 C   0  0  0  0  0  0  0  0  0  0  0  0
   42.5270   84.4800   63.0980 N   0  0  0  0  0  0  0  0  0  0  0  0
   42.0200   84.2560   61.8720 C   0  0  0  0  0  0  0  0  0  0  0  0
   40.7860   83.7760   61.7600 N   0  0  0  0  0  0  0  0  0  0  0  0
   39.0410   83.1220   62.7920 H   0  0  0  0  0  0  0  0  0  0  0  0
   40.0170   83.5500   65.0640 H   0  0  0  0  0  0  0  0  0  0  0  0
   42.3620   84.4630   65.2200 H   0  0  0  0  0  0  0  0  0  0  0  0
   43.9200   84.3670   58.2230 O   0  0  0  0  0  0  0  0  0  0  0  0
   44.7960   83.0460   56.4200 C   0  0  2  0  0  3  0  0  0  0  0  0
   43.6020   83.7680   57.0130 C   0  0  2  0  0  3  0  0  0  0  0  0
   43.2110   84.6890   56.0510 O   0  0  0  0  0  0  0  0  0  0  0  0
   43.5080   84.1590   54.8140 C   0  0  0  0  0  2  0  0  0  0  0  0
   44.3620   82.9480   54.9720 C   0  0  2  0  0  3  0  0  0  0  0  0
   44.9780   81.7930   56.9920 O   0  0  0  0  0  0  0  0  0  0  0  0
   45.9390   81.6990   57.2220 H   0  0  0  0  0  0  0  0  0  0  0  0
   43.6800   81.7520   54.7590 O   0  0  0  0  0  0  0  0  0  0  0  0
   44.0570   80.9950   55.2680 H   0  0  0  0  0  0  0  0  0  0  0  0
  1  4  1  1  0  0  0
  1  8  1  0  0  0  0
  2  1  1  0  0  0  0
  2  5  1  0  0  0  0
  3  7  1  6  0  0  0
  3  2  1  0  0  0  0
  3  1  1  0  0  0  0
  6  2  1  0  0  0  0
  8 13  1  0  0  0  0
  9 10  1  0  0  0  0
 10 11  2  0  0  0  0
 10 16  1  0  0  0  0
 11 17  1  0  0  0  0
 12 11  1  0  0  0  0
 13 12  2  0  0  0  0
 14 13  1  0  0  0  0
 14  9  2  0  0  0  0
 15  9  1  0  0  0  0
 18  3  1  0  0  0  0
 19 24  1  1  0  0  0
 19 20  1  0  0  0  0
 20 18  1  1  0  0  0
 21 20  1  0  0  0  0
 22 23  1  0  0  0  0
 22 21  1  0  0  0  0
 23 26  1  1  0  0  0
 23 19  1  0  0  0  0
 24 25  1  0  0  0  0
 26 27  1  0  0  0  0
M  END
>  <minimizedAffinity>
-3.6855886

>  <minimizedRMSD>
0.61801666

$$$$
