
 OpenBabel03212520403D

 27 29  0  0  1  0  0  0  0  0999 V2000
   42.3880   85.3860   59.7690 C   0  0  1  0  0  0  0  0  0  0  0  0
   43.4430   86.4360   59.4380 C   0  0  0  0  0  0  0  0  0  0  0  0
   43.0770   85.3220   58.4710 C   0  0  1  0  0  0  0  0  0  0  0  0
   41.3690   85.8140   59.8970 H   0  0  0  0  0  0  0  0  0  0  0  0
   44.4670   86.3360   59.8460 H   0  0  0  0  0  0  0  0  0  0  0  0
   43.0940   87.4590   59.2140 H   0  0  0  0  0  0  0  0  0  0  0  0
   42.5560   85.6530   57.5540 H   0  0  0  0  0  0  0  0  0  0  0  0
   42.8250   84.5270   60.8240 O   0  0  0  0  0  0  0  0  0  0  0  0
   40.0670   83.6120   62.9850 C   0  0  0  0  0  0  0  0  0  0  0  0
   40.5810   83.8980   64.2490 C   0  0  0  0  0  0  0  0  0  0  0  0
   41.8960   84.4110   64.3180 C   0  0  0  0  0  0  0  0  0  0  0  0
   42.5360   84.5760   63.1370 N   0  0  0  0  0  0  0  0  0  0  0  0
   42.0310   84.2970   61.9220 C   0  0  0  0  0  0  0  0  0  0  0  0
   40.7970   83.8150   61.8300 N   0  0  0  0  0  0  0  0  0  0  0  0
   39.0480   83.2120   62.8870 H   0  0  0  0  0  0  0  0  0  0  0  0
   40.0190   83.7430   65.1380 H   0  0  0  0  0  0  0  0  0  0  0  0
   42.3670   84.6580   65.2580 H   0  0  0  0  0  0  0  0  0  0  0  0
   43.9940   84.2740   58.2970 O   0  0  0  0  0  0  0  0  0  0  0  0
   45.2140   84.4440   56.2370 C   0  0  2  0  0  3  0  0  0  0  0  0
   44.0040   83.8900   56.9640 C   0  0  2  0  0  3  0  0  0  0  0  0
   42.9030   84.3660   56.2650 O   0  0  0  0  0  0  0  0  0  0  0  0
   43.2650   84.4920   54.9410 C   0  0  0  0  0  2  0  0  0  0  0  0
   44.7410   84.3350   54.8010 C   0  0  2  0  0  3  0  0  0  0  0  0
   46.3500   83.6770   56.4660 O   0  0  0  0  0  0  0  0  0  0  0  0
   47.0940   84.2950   56.6910 H   0  0  0  0  0  0  0  0  0  0  0  0
   45.1250   83.1090   54.2660 O   0  0  0  0  0  0  0  0  0  0  0  0
   46.0160   82.8140   54.5690 H   0  0  0  0  0  0  0  0  0  0  0  0
  1  4  1  1  0  0  0
  1  8  1  0  0  0  0
  2  1  1  0  0  0  0
  2  5  1  0  0  0  0
  3  7  1  6  0  0  0
  3  2  1  0  0  0  0
  3  1  1  0  0  0  0
  6  2  1  0  0  0  0
  8 13  1  0  0  0  0
  9 10  1  0  0  0  0
 10 11  2  0  0  0  0
 10 16  1  0  0  0  0
 11 17  1  0  0  0  0
 12 11  1  0  0  0  0
 13 12  2  0  0  0  0
 14 13  1  0  0  0  0
 14  9  2  0  0  0  0
 15  9  1  0  0  0  0
 18  3  1  0  0  0  0
 19 24  1  6  0  0  0
 19 20  1  0  0  0  0
 20 18  1  1  0  0  0
 21 20  1  0  0  0  0
 22 21  1  0  0  0  0
 23 26  1  1  0  0  0
 23 22  1  0  0  0  0
 23 19  1  0  0  0  0
 24 25  1  0  0  0  0
 26 27  1  0  0  0  0
M  END
>  <minimizedAffinity>
-3.4510169

>  <minimizedRMSD>
0.108093008

$$$$
