
 OpenBabel03212520403D

 27 29  0  0  1  0  0  0  0  0999 V2000
   41.6220   85.3070   59.2080 C   0  0  1  0  0  0  0  0  0  0  0  0
   42.7370   86.2190   58.7060 C   0  0  0  0  0  0  0  0  0  0  0  0
   42.0010   85.2570   57.7890 C   0  0  1  0  0  0  0  0  0  0  0  0
   40.7350   85.8650   59.5820 H   0  0  0  0  0  0  0  0  0  0  0  0
   43.7950   85.9370   58.8700 H   0  0  0  0  0  0  0  0  0  0  0  0
   42.5170   87.2970   58.6190 H   0  0  0  0  0  0  0  0  0  0  0  0
   41.3570   85.7370   57.0290 H   0  0  0  0  0  0  0  0  0  0  0  0
   42.1290   84.3070   60.0930 O   0  0  0  0  0  0  0  0  0  0  0  0
   40.0190   83.5660   62.9410 C   0  0  0  0  0  0  0  0  0  0  0  0
   40.8090   83.9910   64.0070 C   0  0  0  0  0  0  0  0  0  0  0  0
   42.0780   84.5360   63.7030 C   0  0  0  0  0  0  0  0  0  0  0  0
   42.4060   84.5900   62.3920 N   0  0  0  0  0  0  0  0  0  0  0  0
   41.6350   84.1760   61.3690 C   0  0  0  0  0  0  0  0  0  0  0  0
   40.4390   83.6610   61.6280 N   0  0  0  0  0  0  0  0  0  0  0  0
   39.0250   83.1370   63.1340 H   0  0  0  0  0  0  0  0  0  0  0  0
   40.4870   83.9180   65.0180 H   0  0  0  0  0  0  0  0  0  0  0  0
   42.7500   84.8880   64.4710 H   0  0  0  0  0  0  0  0  0  0  0  0
   42.6800   84.1060   57.3600 O   0  0  0  0  0  0  0  0  0  0  0  0
   41.5740   81.9760   57.3300 C   0  0  2  0  0  3  0  0  0  0  0  0
   41.8110   83.3030   56.6360 C   0  0  2  0  0  3  0  0  0  0  0  0
   42.3050   82.9800   55.3800 O   0  0  0  0  0  0  0  0  0  0  0  0
   41.7530   81.7760   55.0040 C   0  0  0  0  0  2  0  0  0  0  0  0
   41.0610   81.1500   56.1680 C   0  0  2  0  0  3  0  0  0  0  0  0
   40.6300   82.0840   58.3440 O   0  0  0  0  0  0  0  0  0  0  0  0
   40.9920   81.6260   59.1470 H   0  0  0  0  0  0  0  0  0  0  0  0
   39.6720   81.2310   56.1020 O   0  0  0  0  0  0  0  0  0  0  0  0
   39.2420   81.2480   56.9900 H   0  0  0  0  0  0  0  0  0  0  0  0
  1  4  1  1  0  0  0
  1  8  1  0  0  0  0
  2  5  1  0  0  0  0
  2  1  1  0  0  0  0
  3  7  1  6  0  0  0
  3  2  1  0  0  0  0
  3  1  1  0  0  0  0
  6  2  1  0  0  0  0
  8 13  1  0  0  0  0
  9 15  1  0  0  0  0
  9 10  1  0  0  0  0
 10 16  1  0  0  0  0
 11 10  2  0  0  0  0
 11 17  1  0  0  0  0
 12 11  1  0  0  0  0
 13 14  1  0  0  0  0
 13 12  2  0  0  0  0
 14  9  2  0  0  0  0
 18  3  1  0  0  0  0
 19 24  1  1  0  0  0
 20 19  1  0  0  0  0
 20 18  1  1  0  0  0
 21 20  1  0  0  0  0
 22 21  1  0  0  0  0
 22 23  1  0  0  0  0
 23 26  1  6  0  0  0
 23 19  1  0  0  0  0
 24 25  1  0  0  0  0
 26 27  1  0  0  0  0
M  END
>  <minimizedAffinity>
-4.05225992

>  <minimizedRMSD>
2.24992752

$$$$
