
 OpenBabel03212520413D

 27 29  0  0  1  0  0  0  0  0999 V2000
   38.8360   74.4350   59.3990 C   0  0  1  0  0  0  0  0  0  0  0  0
   38.8060   75.8650   58.8680 C   0  0  0  0  0  0  0  0  0  0  0  0
   38.0140   74.7410   58.2190 C   0  0  1  0  0  0  0  0  0  0  0  0
   38.4170   74.3410   60.4260 H   0  0  0  0  0  0  0  0  0  0  0  0
   39.6340   76.2340   58.2320 H   0  0  0  0  0  0  0  0  0  0  0  0
   38.2570   76.6190   59.4580 H   0  0  0  0  0  0  0  0  0  0  0  0
   36.9170   74.8270   58.3190 H   0  0  0  0  0  0  0  0  0  0  0  0
   40.1200   73.8390   59.2090 O   0  0  0  0  0  0  0  0  0  0  0  0
   40.9430   72.2380   62.3510 C   0  0  0  0  0  0  0  0  0  0  0  0
   42.3330   72.1580   62.2810 C   0  0  0  0  0  0  0  0  0  0  0  0
   42.9600   72.6730   61.1230 C   0  0  0  0  0  0  0  0  0  0  0  0
   42.1390   73.1980   60.1840 N   0  0  0  0  0  0  0  0  0  0  0  0
   40.7980   73.2700   60.2610 C   0  0  0  0  0  0  0  0  0  0  0  0
   40.1860   72.7940   61.3390 N   0  0  0  0  0  0  0  0  0  0  0  0
   40.4170   71.8500   63.2350 H   0  0  0  0  0  0  0  0  0  0  0  0
   42.9170   71.7310   63.0600 H   0  0  0  0  0  0  0  0  0  0  0  0
   44.0310   72.6490   60.9920 H   0  0  0  0  0  0  0  0  0  0  0  0
   38.4690   74.2410   56.9890 O   0  0  0  0  0  0  0  0  0  0  0  0
   38.3290   74.8870   54.6820 C   0  0  2  0  0  3  0  0  0  0  0  0
   37.5960   74.6290   55.9840 C   0  0  2  0  0  3  0  0  0  0  0  0
   36.9380   75.8140   56.2790 O   0  0  0  0  0  0  0  0  0  0  0  0
   36.6110   76.4250   55.0880 C   0  0  0  0  0  2  0  0  0  0  0  0
   37.3070   75.7420   53.9590 C   0  0  2  0  0  3  0  0  0  0  0  0
   38.5960   73.7080   53.9950 O   0  0  0  0  0  0  0  0  0  0  0  0
   39.5440   73.7330   53.7070 H   0  0  0  0  0  0  0  0  0  0  0  0
   36.4690   74.9350   53.1930 O   0  0  0  0  0  0  0  0  0  0  0  0
   36.9390   74.1760   52.7740 H   0  0  0  0  0  0  0  0  0  0  0  0
  1  4  1  1  0  0  0
  2  1  1  0  0  0  0
  2  6  1  0  0  0  0
  3  7  1  1  0  0  0
  3  2  1  0  0  0  0
  3  1  1  0  0  0  0
  5  2  1  0  0  0  0
  8  1  1  0  0  0  0
  8 13  1  0  0  0  0
  9 15  1  0  0  0  0
 10  9  1  0  0  0  0
 10 16  1  0  0  0  0
 11 10  2  0  0  0  0
 12 13  2  0  0  0  0
 12 11  1  0  0  0  0
 13 14  1  0  0  0  0
 14  9  2  0  0  0  0
 17 11  1  0  0  0  0
 18  3  1  0  0  0  0
 19 24  1  6  0  0  0
 19 20  1  0  0  0  0
 20 21  1  0  0  0  0
 20 18  1  1  0  0  0
 22 21  1  0  0  0  0
 23 26  1  1  0  0  0
 23 19  1  0  0  0  0
 23 22  1  0  0  0  0
 25 24  1  0  0  0  0
 27 26  1  0  0  0  0
M  END
>  <minimizedAffinity>
-5.18164492

$$$$

 OpenBabel03212520413D

 27 29  0  0  1  0  0  0  0  0999 V2000
   42.5670   71.8870   61.2700 C   0  0  1  0  0  0  0  0  0  0  0  0
   42.1600   71.5760   62.7070 C   0  0  0  0  0  0  0  0  0  0  0  0
   41.1980   72.1950   61.7070 C   0  0  1  0  0  0  0  0  0  0  0  0
   42.8300   70.9790   60.6820 H   0  0  0  0  0  0  0  0  0  0  0  0
   42.4420   72.2690   63.5220 H   0  0  0  0  0  0  0  0  0  0  0  0
   42.0200   70.5150   62.9800 H   0  0  0  0  0  0  0  0  0  0  0  0
   40.3610   71.5410   61.3980 H   0  0  0  0  0  0  0  0  0  0  0  0
   43.5290   72.9430   61.2220 O   0  0  0  0  0  0  0  0  0  0  0  0
   45.3430   73.4340   58.1270 C   0  0  0  0  0  0  0  0  0  0  0  0
   44.7390   74.5810   57.6140 C   0  0  0  0  0  0  0  0  0  0  0  0
   43.6980   75.1650   58.3730 C   0  0  0  0  0  0  0  0  0  0  0  0
   43.3860   74.5460   59.5340 N   0  0  0  0  0  0  0  0  0  0  0  0
   43.9750   73.4380   60.0200 C   0  0  0  0  0  0  0  0  0  0  0  0
   44.9560   72.8710   59.3270 N   0  0  0  0  0  0  0  0  0  0  0  0
   46.1560   72.9490   57.5680 H   0  0  0  0  0  0  0  0  0  0  0  0
   45.0370   75.0160   56.6910 H   0  0  0  0  0  0  0  0  0  0  0  0
   43.1800   76.0540   58.0460 H   0  0  0  0  0  0  0  0  0  0  0  0
   40.8760   73.5520   61.8570 O   0  0  0  0  0  0  0  0  0  0  0  0
   38.7470   74.2840   61.0230 C   0  0  2  0  0  3  0  0  0  0  0  0
   40.2050   73.9930   60.7250 C   0  0  2  0  0  3  0  0  0  0  0  0
   40.1930   73.0470   59.7110 O   0  0  0  0  0  0  0  0  0  0  0  0
   39.0720   73.2650   58.9410 C   0  0  0  0  0  2  0  0  0  0  0  0
   38.1690   74.2370   59.6230 C   0  0  2  0  0  3  0  0  0  0  0  0
   38.5780   75.5330   61.6110 O   0  0  0  0  0  0  0  0  0  0  0  0
   37.9760   75.4220   62.3910 H   0  0  0  0  0  0  0  0  0  0  0  0
   38.1870   75.5090   59.0580 O   0  0  0  0  0  0  0  0  0  0  0  0
   37.9860   76.2250   59.7060 H   0  0  0  0  0  0  0  0  0  0  0  0
  1  4  1  6  0  0  0
  1  3  1  0  0  0  0
  1  2  1  0  0  0  0
  2  6  1  0  0  0  0
  2  5  1  0  0  0  0
  3  7  1  6  0  0  0
  3 18  1  0  0  0  0
  3  2  1  0  0  0  0
  8  1  1  0  0  0  0
  9 14  1  0  0  0  0
 10  9  2  0  0  0  0
 10 11  1  0  0  0  0
 11 12  2  0  0  0  0
 12 13  1  0  0  0  0
 13  8  1  0  0  0  0
 14 13  2  0  0  0  0
 15  9  1  0  0  0  0
 16 10  1  0  0  0  0
 17 11  1  0  0  0  0
 19 24  1  6  0  0  0
 20 19  1  0  0  0  0
 20 18  1  1  0  0  0
 21 20  1  0  0  0  0
 22 23  1  0  0  0  0
 22 21  1  0  0  0  0
 23 26  1  6  0  0  0
 23 19  1  0  0  0  0
 24 25  1  0  0  0  0
 26 27  1  0  0  0  0
M  END
>  <minimizedAffinity>
-5.13289499

$$$$

 OpenBabel03212520413D

 27 29  0  0  1  0  0  0  0  0999 V2000
   39.4730   75.5380   59.6540 C   0  0  1  0  0  0  0  0  0  0  0  0
   39.1880   75.6760   61.1460 C   0  0  0  0  0  0  0  0  0  0  0  0
   40.1600   74.6440   60.5980 C   0  0  1  0  0  0  0  0  0  0  0  0
   39.9500   76.4410   59.2130 H   0  0  0  0  0  0  0  0  0  0  0  0
   38.2740   75.2240   61.5770 H   0  0  0  0  0  0  0  0  0  0  0  0
   39.6000   76.5580   61.6660 H   0  0  0  0  0  0  0  0  0  0  0  0
   41.2210   74.8210   60.8520 H   0  0  0  0  0  0  0  0  0  0  0  0
   38.3280   75.0500   58.9520 O   0  0  0  0  0  0  0  0  0  0  0  0
   37.9100   77.2930   56.1410 C   0  0  0  0  0  0  0  0  0  0  0  0
   37.0590   76.5650   55.3110 C   0  0  0  0  0  0  0  0  0  0  0  0
   36.6450   75.2900   55.7590 C   0  0  0  0  0  0  0  0  0  0  0  0
   37.1210   74.8960   56.9620 N   0  0  0  0  0  0  0  0  0  0  0  0
   37.9420   75.6070   57.7560 C   0  0  0  0  0  0  0  0  0  0  0  0
   38.3450   76.8090   57.3580 N   0  0  0  0  0  0  0  0  0  0  0  0
   38.2550   78.2900   55.8290 H   0  0  0  0  0  0  0  0  0  0  0  0
   36.7230   76.9380   54.3730 H   0  0  0  0  0  0  0  0  0  0  0  0
   35.9860   74.6630   55.1760 H   0  0  0  0  0  0  0  0  0  0  0  0
   39.7580   73.2990   60.5950 O   0  0  0  0  0  0  0  0  0  0  0  0
   41.3540   72.5150   62.2090 C   0  0  2  0  0  3  0  0  0  0  0  0
   40.8700   72.4880   60.7720 C   0  0  2  0  0  3  0  0  0  0  0  0
   41.9540   72.8970   60.0090 O   0  0  0  0  0  0  0  0  0  0  0  0
   43.1030   72.4910   60.6530 C   0  0  0  0  0  2  0  0  0  0  0  0
   42.7730   72.0150   62.0280 C   0  0  2  0  0  3  0  0  0  0  0  0
   40.6070   71.6710   63.0230 O   0  0  0  0  0  0  0  0  0  0  0  0
   40.3670   72.1740   63.8430 H   0  0  0  0  0  0  0  0  0  0  0  0
   42.8090   70.6300   62.1640 O   0  0  0  0  0  0  0  0  0  0  0  0
   42.1980   70.2920   62.8600 H   0  0  0  0  0  0  0  0  0  0  0  0
  1  4  1  6  0  0  0
  1  3  1  0  0  0  0
  1  2  1  0  0  0  0
  2  5  1  0  0  0  0
  2  6  1  0  0  0  0
  3  7  1  1  0  0  0
  3  2  1  0  0  0  0
  8  1  1  0  0  0  0
  9 14  1  0  0  0  0
 10 11  1  0  0  0  0
 10  9  2  0  0  0  0
 11 12  2  0  0  0  0
 12 13  1  0  0  0  0
 13  8  1  0  0  0  0
 14 13  2  0  0  0  0
 15  9  1  0  0  0  0
 16 10  1  0  0  0  0
 17 11  1  0  0  0  0
 18  3  1  0  0  0  0
 19 24  1  1  0  0  0
 20 18  1  1  0  0  0
 20 19  1  0  0  0  0
 21 22  1  0  0  0  0
 21 20  1  0  0  0  0
 22 23  1  0  0  0  0
 23 26  1  6  0  0  0
 23 19  1  0  0  0  0
 24 25  1  0  0  0  0
 26 27  1  0  0  0  0
M  END
>  <minimizedAffinity>
-5.1221447

$$$$

 OpenBabel03212520413D

 27 29  0  0  1  0  0  0  0  0999 V2000
   39.0190   73.7180   61.2430 C   0  0  1  0  0  0  0  0  0  0  0  0
   38.6210   75.1900   61.2830 C   0  0  0  0  0  0  0  0  0  0  0  0
   38.2780   74.2890   60.1080 C   0  0  1  0  0  0  0  0  0  0  0  0
   38.5380   73.1120   62.0420 H   0  0  0  0  0  0  0  0  0  0  0  0
   39.3650   75.9690   61.0280 H   0  0  0  0  0  0  0  0  0  0  0  0
   37.8100   75.4820   61.9730 H   0  0  0  0  0  0  0  0  0  0  0  0
   37.2010   74.0700   59.9870 H   0  0  0  0  0  0  0  0  0  0  0  0
   40.4360   73.5680   61.1350 O   0  0  0  0  0  0  0  0  0  0  0  0
   42.1100   70.3730   60.8170 C   0  0  0  0  0  0  0  0  0  0  0  0
   42.2310   69.9740   62.1470 C   0  0  0  0  0  0  0  0  0  0  0  0
   41.7170   70.8420   63.1380 C   0  0  0  0  0  0  0  0  0  0  0  0
   41.1530   71.9880   62.6940 N   0  0  0  0  0  0  0  0  0  0  0  0
   41.0420   72.3640   61.4070 C   0  0  0  0  0  0  0  0  0  0  0  0
   41.5150   71.5660   60.4570 N   0  0  0  0  0  0  0  0  0  0  0  0
   42.4970   69.7270   60.0160 H   0  0  0  0  0  0  0  0  0  0  0  0
   42.6880   69.0550   62.4260 H   0  0  0  0  0  0  0  0  0  0  0  0
   41.7710   70.6060   64.1910 H   0  0  0  0  0  0  0  0  0  0  0  0
   38.9940   74.4630   58.9140 O   0  0  0  0  0  0  0  0  0  0  0  0
   37.8980   74.9220   56.8280 C   0  0  2  0  0  3  0  0  0  0  0  0
   38.3900   75.4580   58.1590 C   0  0  2  0  0  3  0  0  0  0  0  0
   39.2620   76.4890   57.8420 O   0  0  0  0  0  0  0  0  0  0  0  0
   38.8310   77.0640   56.6660 C   0  0  0  0  0  2  0  0  0  0  0  0
   37.7750   76.2130   56.0440 C   0  0  2  0  0  3  0  0  0  0  0  0
   36.6750   74.2730   56.9510 O   0  0  0  0  0  0  0  0  0  0  0  0
   36.7390   73.4100   56.4650 H   0  0  0  0  0  0  0  0  0  0  0  0
   36.4890   76.7300   56.1790 O   0  0  0  0  0  0  0  0  0  0  0  0
   35.7910   76.0340   56.1950 H   0  0  0  0  0  0  0  0  0  0  0  0
  1  2  1  0  0  0  0
  1  4  1  1  0  0  0
  2  6  1  0  0  0  0
  3  7  1  6  0  0  0
  3  1  1  0  0  0  0
  3  2  1  0  0  0  0
  5  2  1  0  0  0  0
  8  1  1  0  0  0  0
  8 13  1  0  0  0  0
  9 10  1  0  0  0  0
 10 16  1  0  0  0  0
 10 11  2  0  0  0  0
 11 17  1  0  0  0  0
 12 11  1  0  0  0  0
 13 12  2  0  0  0  0
 14  9  2  0  0  0  0
 14 13  1  0  0  0  0
 15  9  1  0  0  0  0
 18  3  1  0  0  0  0
 19 24  1  1  0  0  0
 19 20  1  0  0  0  0
 20 18  1  6  0  0  0
 21 20  1  0  0  0  0
 22 21  1  0  0  0  0
 23 26  1  1  0  0  0
 23 22  1  0  0  0  0
 23 19  1  0  0  0  0
 25 24  1  0  0  0  0
 26 27  1  0  0  0  0
M  END
>  <minimizedAffinity>
-5.07922745

$$$$

 OpenBabel03212520413D

 27 29  0  0  1  0  0  0  0  0999 V2000
   41.6820   71.2640   62.6510 C   0  0  1  0  0  0  0  0  0  0  0  0
   42.4590   72.5640   62.4730 C   0  0  0  0  0  0  0  0  0  0  0  0
   41.0090   72.4200   62.0420 C   0  0  1  0  0  0  0  0  0  0  0  0
   41.5510   70.9740   63.7180 H   0  0  0  0  0  0  0  0  0  0  0  0
   43.1550   72.6780   61.6190 H   0  0  0  0  0  0  0  0  0  0  0  0
   42.6800   73.1570   63.3780 H   0  0  0  0  0  0  0  0  0  0  0  0
   40.2860   73.0120   62.6340 H   0  0  0  0  0  0  0  0  0  0  0  0
   42.1910   70.2360   61.8000 O   0  0  0  0  0  0  0  0  0  0  0  0
   40.9050   67.1200   63.1210 C   0  0  0  0  0  0  0  0  0  0  0  0
   40.9590   66.2860   62.0050 C   0  0  0  0  0  0  0  0  0  0  0  0
   41.4520   66.8390   60.8010 C   0  0  0  0  0  0  0  0  0  0  0  0
   41.8250   68.1380   60.8490 N   0  0  0  0  0  0  0  0  0  0  0  0
   41.7680   68.9350   61.9320 C   0  0  0  0  0  0  0  0  0  0  0  0
   41.3110   68.4390   63.0760 N   0  0  0  0  0  0  0  0  0  0  0  0
   40.5290   66.7290   64.0780 H   0  0  0  0  0  0  0  0  0  0  0  0
   40.6480   65.2700   62.0390 H   0  0  0  0  0  0  0  0  0  0  0  0
   41.5260   66.2600   59.8920 H   0  0  0  0  0  0  0  0  0  0  0  0
   40.7360   72.3370   60.6680 O   0  0  0  0  0  0  0  0  0  0  0  0
   40.3390   74.6220   60.0480 C   0  0  2  0  0  3  0  0  0  0  0  0
   39.7500   73.2560   60.3400 C   0  0  2  0  0  3  0  0  0  0  0  0
   38.8440   73.4570   61.3710 O   0  0  0  0  0  0  0  0  0  0  0  0
   38.3270   74.7270   61.2400 C   0  0  0  0  0  2  0  0  0  0  0  0
   39.1120   75.4920   60.2280 C   0  0  2  0  0  3  0  0  0  0  0  0
   40.8460   74.7020   58.7560 O   0  0  0  0  0  0  0  0  0  0  0  0
   41.7470   75.1120   58.8080 H   0  0  0  0  0  0  0  0  0  0  0  0
   38.4550   75.6440   59.0100 O   0  0  0  0  0  0  0  0  0  0  0  0
   39.0710   75.7230   58.2430 H   0  0  0  0  0  0  0  0  0  0  0  0
  1  4  1  1  0  0  0
  2  1  1  0  0  0  0
  2  6  1  0  0  0  0
  3  2  1  0  0  0  0
  3  7  1  1  0  0  0
  3  1  1  0  0  0  0
  5  2  1  0  0  0  0
  8 13  1  0  0  0  0
  8  1  1  0  0  0  0
  9 15  1  0  0  0  0
 10 16  1  0  0  0  0
 10  9  2  0  0  0  0
 11 12  2  0  0  0  0
 11 10  1  0  0  0  0
 12 13  1  0  0  0  0
 13 14  2  0  0  0  0
 14  9  1  0  0  0  0
 17 11  1  0  0  0  0
 18  3  1  0  0  0  0
 19 24  1  6  0  0  0
 19 23  1  0  0  0  0
 19 20  1  0  0  0  0
 20 18  1  1  0  0  0
 20 21  1  0  0  0  0
 22 21  1  0  0  0  0
 23 26  1  6  0  0  0
 23 22  1  0  0  0  0
 24 25  1  0  0  0  0
 27 26  1  0  0  0  0
M  END
>  <minimizedAffinity>
-5.04210091

$$$$

 OpenBabel03212520413D

 27 29  0  0  1  0  0  0  0  0999 V2000
   39.3000   73.9500   61.2500 C   0  0  1  0  0  0  0  0  0  0  0  0
   38.9930   75.4370   61.1010 C   0  0  0  0  0  0  0  0  0  0  0  0
   38.7610   74.4440   59.9740 C   0  0  1  0  0  0  0  0  0  0  0  0
   38.6750   73.4490   62.0220 H   0  0  0  0  0  0  0  0  0  0  0  0
   39.8130   76.1500   60.8870 H   0  0  0  0  0  0  0  0  0  0  0  0
   38.1140   75.8340   61.6380 H   0  0  0  0  0  0  0  0  0  0  0  0
   37.7000   74.2680   59.7190 H   0  0  0  0  0  0  0  0  0  0  0  0
   40.7060   73.7200   61.3620 O   0  0  0  0  0  0  0  0  0  0  0  0
   42.1540   70.4430   60.8410 C   0  0  0  0  0  0  0  0  0  0  0  0
   42.1610   69.9190   62.1330 C   0  0  0  0  0  0  0  0  0  0  0  0
   41.6510   70.7340   63.1700 C   0  0  0  0  0  0  0  0  0  0  0  0
   41.2030   71.9560   62.8030 N   0  0  0  0  0  0  0  0  0  0  0  0
   41.2020   72.4530   61.5530 C   0  0  0  0  0  0  0  0  0  0  0  0
   41.6740   71.7070   60.5610 N   0  0  0  0  0  0  0  0  0  0  0  0
   42.5410   69.8410   60.0060 H   0  0  0  0  0  0  0  0  0  0  0  0
   42.5290   68.9450   62.3490 H   0  0  0  0  0  0  0  0  0  0  0  0
   41.6210   70.4020   64.1970 H   0  0  0  0  0  0  0  0  0  0  0  0
   39.6460   74.4660   58.8850 O   0  0  0  0  0  0  0  0  0  0  0  0
   39.8920   72.5310   57.4850 C   0  0  2  0  0  3  0  0  0  0  0  0
   39.0850   73.7700   57.8240 C   0  0  2  0  0  3  0  0  0  0  0  0
   39.0470   74.5180   56.6570 O   0  0  0  0  0  0  0  0  0  0  0  0
   39.0790   73.6440   55.5920 C   0  0  0  0  0  2  0  0  0  0  0  0
   39.4080   72.2710   56.0720 C   0  0  2  0  0  3  0  0  0  0  0  0
   39.5980   71.4720   58.3360 O   0  0  0  0  0  0  0  0  0  0  0  0
   40.4570   71.0790   58.6390 H   0  0  0  0  0  0  0  0  0  0  0  0
   38.3140   71.4090   56.0960 O   0  0  0  0  0  0  0  0  0  0  0  0
   38.3880   70.7070   56.7850 H   0  0  0  0  0  0  0  0  0  0  0  0
  1  8  1  0  0  0  0
  1  4  1  1  0  0  0
  2  1  1  0  0  0  0
  2  6  1  0  0  0  0
  3  7  1  6  0  0  0
  3  2  1  0  0  0  0
  3  1  1  0  0  0  0
  5  2  1  0  0  0  0
  8 13  1  0  0  0  0
  9 10  1  0  0  0  0
 10 16  1  0  0  0  0
 10 11  2  0  0  0  0
 11 17  1  0  0  0  0
 12 11  1  0  0  0  0
 13 12  2  0  0  0  0
 14  9  2  0  0  0  0
 14 13  1  0  0  0  0
 15  9  1  0  0  0  0
 18  3  1  0  0  0  0
 19 20  1  0  0  0  0
 19 24  1  1  0  0  0
 20 18  1  1  0  0  0
 21 20  1  0  0  0  0
 22 23  1  0  0  0  0
 22 21  1  0  0  0  0
 23 26  1  1  0  0  0
 23 19  1  0  0  0  0
 24 25  1  0  0  0  0
 26 27  1  0  0  0  0
M  END
>  <minimizedAffinity>
-4.97508001

$$$$

 OpenBabel03212520413D

 27 29  0  0  1  0  0  0  0  0999 V2000
   41.8440   70.0800   59.9390 C   0  0  1  0  0  0  0  0  0  0  0  0
   42.7310   70.8470   58.9640 C   0  0  0  0  0  0  0  0  0  0  0  0
   41.2440   71.1290   59.1020 C   0  0  1  0  0  0  0  0  0  0  0  0
   42.1250   70.2370   61.0050 H   0  0  0  0  0  0  0  0  0  0  0  0
   42.9970   70.3960   57.9900 H   0  0  0  0  0  0  0  0  0  0  0  0
   43.4440   71.5770   59.3860 H   0  0  0  0  0  0  0  0  0  0  0  0
   40.9950   72.1120   59.5440 H   0  0  0  0  0  0  0  0  0  0  0  0
   41.6980   68.7150   59.5430 O   0  0  0  0  0  0  0  0  0  0  0  0
   42.4000   65.5160   61.0870 C   0  0  0  0  0  0  0  0  0  0  0  0
   42.0990   65.7660   62.4250 C   0  0  0  0  0  0  0  0  0  0  0  0
   41.6510   67.0640   62.7620 C   0  0  0  0  0  0  0  0  0  0  0  0
   41.5580   67.9470   61.7410 N   0  0  0  0  0  0  0  0  0  0  0  0
   41.8520   67.6950   60.4520 C   0  0  0  0  0  0  0  0  0  0  0  0
   42.2740   66.4830   60.1100 N   0  0  0  0  0  0  0  0  0  0  0  0
   42.7510   64.5190   60.7840 H   0  0  0  0  0  0  0  0  0  0  0  0
   42.1950   65.0220   63.1780 H   0  0  0  0  0  0  0  0  0  0  0  0
   41.3970   67.3380   63.7750 H   0  0  0  0  0  0  0  0  0  0  0  0
   40.3950   70.7010   58.0710 O   0  0  0  0  0  0  0  0  0  0  0  0
   39.1140   72.1680   56.6670 C   0  0  2  0  0  3  0  0  0  0  0  0
   39.2760   71.5200   58.0280 C   0  0  2  0  0  3  0  0  0  0  0  0
   39.3490   72.5700   58.9310 O   0  0  0  0  0  0  0  0  0  0  0  0
   38.5910   73.6090   58.4360 C   0  0  0  0  0  2  0  0  0  0  0  0
   38.2050   73.3270   57.0230 C   0  0  2  0  0  3  0  0  0  0  0  0
   38.5210   71.3080   55.7500 O   0  0  0  0  0  0  0  0  0  0  0  0
   39.0510   71.3430   54.9130 H   0  0  0  0  0  0  0  0  0  0  0  0
   36.8730   72.9490   56.8730 O   0  0  0  0  0  0  0  0  0  0  0  0
   36.7230   72.3580   56.0980 H   0  0  0  0  0  0  0  0  0  0  0  0
  1  4  1  1  0  0  0
  2  3  1  0  0  0  0
  2  6  1  0  0  0  0
  2  1  1  0  0  0  0
  3  7  1  1  0  0  0
  3  1  1  0  0  0  0
  5  2  1  0  0  0  0
  8  1  1  0  0  0  0
  8 13  1  0  0  0  0
  9 10  1  0  0  0  0
 10 11  2  0  0  0  0
 10 16  1  0  0  0  0
 11 17  1  0  0  0  0
 12 11  1  0  0  0  0
 13 12  2  0  0  0  0
 14 13  1  0  0  0  0
 14  9  2  0  0  0  0
 15  9  1  0  0  0  0
 18  3  1  0  0  0  0
 19 24  1  6  0  0  0
 19 23  1  0  0  0  0
 19 20  1  0  0  0  0
 20 18  1  6  0  0  0
 20 21  1  0  0  0  0
 22 21  1  0  0  0  0
 23 26  1  1  0  0  0
 23 22  1  0  0  0  0
 25 24  1  0  0  0  0
 27 26  1  0  0  0  0
M  END
>  <minimizedAffinity>
-4.76777315

$$$$

 OpenBabel03212520413D

 27 29  0  0  1  0  0  0  0  0999 V2000
   41.7660   72.6520   60.5800 C   0  0  1  0  0  0  0  0  0  0  0  0
   42.1260   73.5830   59.4260 C   0  0  0  0  0  0  0  0  0  0  0  0
   40.6860   73.2580   59.7880 C   0  0  1  0  0  0  0  0  0  0  0  0
   42.0860   73.0410   61.5730 H   0  0  0  0  0  0  0  0  0  0  0  0
   42.4340   73.1590   58.4510 H   0  0  0  0  0  0  0  0  0  0  0  0
   42.5160   74.5850   59.6790 H   0  0  0  0  0  0  0  0  0  0  0  0
   40.1060   74.1040   60.2010 H   0  0  0  0  0  0  0  0  0  0  0  0
   42.1560   71.3060   60.3000 O   0  0  0  0  0  0  0  0  0  0  0  0
   42.2590   69.5870   63.4840 C   0  0  0  0  0  0  0  0  0  0  0  0
   42.0170   68.2660   63.1100 C   0  0  0  0  0  0  0  0  0  0  0  0
   41.8210   68.0030   61.7340 C   0  0  0  0  0  0  0  0  0  0  0  0
   41.8880   69.0710   60.9070 N   0  0  0  0  0  0  0  0  0  0  0  0
   42.1220   70.3420   61.2790 C   0  0  0  0  0  0  0  0  0  0  0  0
   42.3100   70.6160   62.5650 N   0  0  0  0  0  0  0  0  0  0  0  0
   42.4170   69.8340   64.5440 H   0  0  0  0  0  0  0  0  0  0  0  0
   41.9780   67.4730   63.8170 H   0  0  0  0  0  0  0  0  0  0  0  0
   41.6290   67.0070   61.3630 H   0  0  0  0  0  0  0  0  0  0  0  0
   39.9720   72.3990   58.9380 O   0  0  0  0  0  0  0  0  0  0  0  0
   38.7140   72.8820   56.9520 C   0  0  2  0  0  3  0  0  0  0  0  0
   38.8540   73.0600   58.4510 C   0  0  2  0  0  3  0  0  0  0  0  0
   38.9130   74.4300   58.6570 O   0  0  0  0  0  0  0  0  0  0  0  0
   38.1630   75.0390   57.6750 C   0  0  0  0  0  2  0  0  0  0  0  0
   37.7990   74.0450   56.6240 C   0  0  2  0  0  3  0  0  0  0  0  0
   38.1350   71.6600   56.6270 O   0  0  0  0  0  0  0  0  0  0  0  0
   38.6780   71.2490   55.9060 H   0  0  0  0  0  0  0  0  0  0  0  0
   36.4690   73.6340   56.6810 O   0  0  0  0  0  0  0  0  0  0  0  0
   36.3310   72.7190   56.3380 H   0  0  0  0  0  0  0  0  0  0  0  0
  1  4  1  1  0  0  0
  2  6  1  0  0  0  0
  2  3  1  0  0  0  0
  2  1  1  0  0  0  0
  3  7  1  1  0  0  0
  3  1  1  0  0  0  0
  5  2  1  0  0  0  0
  8  1  1  0  0  0  0
  8 13  1  0  0  0  0
  9 15  1  0  0  0  0
 10  9  1  0  0  0  0
 10 16  1  0  0  0  0
 11 10  2  0  0  0  0
 12 13  2  0  0  0  0
 12 11  1  0  0  0  0
 13 14  1  0  0  0  0
 14  9  2  0  0  0  0
 17 11  1  0  0  0  0
 18  3  1  0  0  0  0
 19 24  1  1  0  0  0
 19 20  1  0  0  0  0
 20 21  1  0  0  0  0
 20 18  1  6  0  0  0
 22 21  1  0  0  0  0
 23 26  1  1  0  0  0
 23 19  1  0  0  0  0
 23 22  1  0  0  0  0
 25 24  1  0  0  0  0
 27 26  1  0  0  0  0
M  END
>  <minimizedAffinity>
-4.75938511

$$$$

 OpenBabel03212520413D

 27 29  0  0  1  0  0  0  0  0999 V2000
   43.6440   73.1580   60.6320 C   0  0  1  0  0  0  0  0  0  0  0  0
   44.2270   73.8700   59.4160 C   0  0  0  0  0  0  0  0  0  0  0  0
   42.8490   74.1990   59.9650 C   0  0  1  0  0  0  0  0  0  0  0  0
   44.2230   73.3380   61.5660 H   0  0  0  0  0  0  0  0  0  0  0  0
   44.1920   73.3830   58.4230 H   0  0  0  0  0  0  0  0  0  0  0  0
   45.0450   74.5910   59.5890 H   0  0  0  0  0  0  0  0  0  0  0  0
   42.7560   75.2010   60.4240 H   0  0  0  0  0  0  0  0  0  0  0  0
   43.3640   71.7860   60.3450 O   0  0  0  0  0  0  0  0  0  0  0  0
   41.7290   70.5340   63.3230 C   0  0  0  0  0  0  0  0  0  0  0  0
   41.6880   69.1630   63.0770 C   0  0  0  0  0  0  0  0  0  0  0  0
   42.2410   68.7000   61.8610 C   0  0  0  0  0  0  0  0  0  0  0  0
   42.7600   69.6450   61.0440 N   0  0  0  0  0  0  0  0  0  0  0  0
   42.7950   70.9670   61.2910 C   0  0  0  0  0  0  0  0  0  0  0  0
   42.2830   71.4270   62.4260 N   0  0  0  0  0  0  0  0  0  0  0  0
   41.3110   70.9350   64.2570 H   0  0  0  0  0  0  0  0  0  0  0  0
   41.2620   68.4750   63.7670 H   0  0  0  0  0  0  0  0  0  0  0  0
   42.2480   67.6540   61.5960 H   0  0  0  0  0  0  0  0  0  0  0  0
   41.7300   73.7660   59.2370 O   0  0  0  0  0  0  0  0  0  0  0  0
   39.8060   73.5850   60.6620 C   0  0  2  0  0  3  0  0  0  0  0  0
   40.6020   74.4340   59.6890 C   0  0  2  0  0  3  0  0  0  0  0  0
   39.7200   74.7440   58.6640 O   0  0  0  0  0  0  0  0  0  0  0  0
   38.4530   74.8160   59.2010 C   0  0  0  0  0  2  0  0  0  0  0  0
   38.4610   74.2790   60.5930 C   0  0  2  0  0  3  0  0  0  0  0  0
   40.3440   73.6250   61.9440 O   0  0  0  0  0  0  0  0  0  0  0  0
   40.3960   72.6930   62.2800 H   0  0  0  0  0  0  0  0  0  0  0  0
   38.3850   75.2660   61.5720 O   0  0  0  0  0  0  0  0  0  0  0  0
   38.8220   75.0080   62.4180 H   0  0  0  0  0  0  0  0  0  0  0  0
  1  4  1  1  0  0  0
  2  6  1  0  0  0  0
  2  3  1  0  0  0  0
  2  1  1  0  0  0  0
  3  7  1  1  0  0  0
  3  1  1  0  0  0  0
  5  2  1  0  0  0  0
  8  1  1  0  0  0  0
  8 13  1  0  0  0  0
  9 15  1  0  0  0  0
 10  9  1  0  0  0  0
 10 16  1  0  0  0  0
 11 10  2  0  0  0  0
 12 13  2  0  0  0  0
 12 11  1  0  0  0  0
 13 14  1  0  0  0  0
 14  9  2  0  0  0  0
 17 11  1  0  0  0  0
 18  3  1  0  0  0  0
 19 24  1  1  0  0  0
 20 18  1  6  0  0  0
 20 19  1  0  0  0  0
 21 22  1  0  0  0  0
 21 20  1  0  0  0  0
 22 23  1  0  0  0  0
 23 19  1  0  0  0  0
 23 26  1  1  0  0  0
 24 25  1  0  0  0  0
 26 27  1  0  0  0  0
M  END
>  <minimizedAffinity>
-4.65984488

$$$$
