
 OpenBabel03212520393D

 27 29  0  0  1  0  0  0  0  0999 V2000
   42.3920   85.4770   59.8060 C   0  0  1  0  0  0  0  0  0  0  0  0
   43.4670   86.4890   59.4230 C   0  0  0  0  0  0  0  0  0  0  0  0
   43.0200   85.3840   58.4800 C   0  0  1  0  0  0  0  0  0  0  0  0
   41.3950   85.9400   59.9770 H   0  0  0  0  0  0  0  0  0  0  0  0
   44.5040   86.3550   59.7850 H   0  0  0  0  0  0  0  0  0  0  0  0
   43.1440   87.5230   59.2080 H   0  0  0  0  0  0  0  0  0  0  0  0
   42.4700   85.7290   57.5840 H   0  0  0  0  0  0  0  0  0  0  0  0
   42.8460   84.6090   60.8460 O   0  0  0  0  0  0  0  0  0  0  0  0
   40.0650   83.5080   62.8860 C   0  0  0  0  0  0  0  0  0  0  0  0
   40.5460   83.7280   64.1760 C   0  0  0  0  0  0  0  0  0  0  0  0
   41.8480   84.2630   64.3050 C   0  0  0  0  0  0  0  0  0  0  0  0
   42.5080   84.5120   63.1510 N   0  0  0  0  0  0  0  0  0  0  0  0
   42.0350   84.2960   61.9100 C   0  0  0  0  0  0  0  0  0  0  0  0
   40.8140   83.7950   61.7620 N   0  0  0  0  0  0  0  0  0  0  0  0
   39.0570   83.0940   62.7420 H   0  0  0  0  0  0  0  0  0  0  0  0
   39.9690   83.5080   65.0420 H   0  0  0  0  0  0  0  0  0  0  0  0
   42.2930   84.4620   65.2690 H   0  0  0  0  0  0  0  0  0  0  0  0
   43.8920   84.3040   58.2710 O   0  0  0  0  0  0  0  0  0  0  0  0
   44.2960   82.4840   56.7590 C   0  0  2  0  0  3  0  0  0  0  0  0
   43.8290   83.9150   56.9410 C   0  0  2  0  0  3  0  0  0  0  0  0
   44.6510   84.6780   56.1240 O   0  0  0  0  0  0  0  0  0  0  0  0
   45.0060   83.9050   55.0400 C   0  0  0  0  0  2  0  0  0  0  0  0
   44.6110   82.4870   55.2770 C   0  0  2  0  0  3  0  0  0  0  0  0
   43.2980   81.5690   57.0740 O   0  0  0  0  0  0  0  0  0  0  0  0
   43.6960   80.8720   57.6570 H   0  0  0  0  0  0  0  0  0  0  0  0
   43.4910   82.0910   54.5520 O   0  0  0  0  0  0  0  0  0  0  0  0
   42.9710   81.3790   54.9980 H   0  0  0  0  0  0  0  0  0  0  0  0
  1  4  1  1  0  0  0
  1  8  1  0  0  0  0
  2  5  1  0  0  0  0
  2  1  1  0  0  0  0
  3  7  1  6  0  0  0
  3  2  1  0  0  0  0
  3  1  1  0  0  0  0
  6  2  1  0  0  0  0
  8 13  1  0  0  0  0
  9 10  1  0  0  0  0
 10 11  2  0  0  0  0
 10 16  1  0  0  0  0
 11 17  1  0  0  0  0
 12 11  1  0  0  0  0
 13 12  2  0  0  0  0
 14 13  1  0  0  0  0
 14  9  2  0  0  0  0
 15  9  1  0  0  0  0
 18  3  1  0  0  0  0
 19 20  1  0  0  0  0
 19 24  1  6  0  0  0
 20 18  1  1  0  0  0
 21 20  1  0  0  0  0
 22 23  1  0  0  0  0
 22 21  1  0  0  0  0
 23 26  1  6  0  0  0
 23 19  1  0  0  0  0
 24 25  1  0  0  0  0
 26 27  1  0  0  0  0
M  END
>  <minimizedAffinity>
-3.50869083

>  <minimizedRMSD>
0.194343746

$$$$
