
 OpenBabel03212520393D

 27 29  0  0  1  0  0  0  0  0999 V2000
   42.3870   85.4590   59.8080 C   0  0  1  0  0  0  0  0  0  0  0  0
   43.4250   86.5080   59.4250 C   0  0  0  0  0  0  0  0  0  0  0  0
   43.0440   85.3670   58.4960 C   0  0  1  0  0  0  0  0  0  0  0  0
   41.3670   85.8830   59.9510 H   0  0  0  0  0  0  0  0  0  0  0  0
   44.4600   86.4250   59.8090 H   0  0  0  0  0  0  0  0  0  0  0  0
   43.0630   87.5220   59.1840 H   0  0  0  0  0  0  0  0  0  0  0  0
   42.4980   85.6700   57.5840 H   0  0  0  0  0  0  0  0  0  0  0  0
   42.8560   84.6310   60.8740 O   0  0  0  0  0  0  0  0  0  0  0  0
   40.0650   83.5190   62.8960 C   0  0  0  0  0  0  0  0  0  0  0  0
   40.5400   83.7300   64.1890 C   0  0  0  0  0  0  0  0  0  0  0  0
   41.8430   84.2640   64.3270 C   0  0  0  0  0  0  0  0  0  0  0  0
   42.5080   84.5190   63.1770 N   0  0  0  0  0  0  0  0  0  0  0  0
   42.0390   84.3120   61.9330 C   0  0  0  0  0  0  0  0  0  0  0  0
   40.8190   83.8130   61.7760 N   0  0  0  0  0  0  0  0  0  0  0  0
   39.0570   83.1070   62.7450 H   0  0  0  0  0  0  0  0  0  0  0  0
   39.9600   83.5050   65.0510 H   0  0  0  0  0  0  0  0  0  0  0  0
   42.2840   84.4560   65.2940 H   0  0  0  0  0  0  0  0  0  0  0  0
   43.9640   84.3210   58.3260 O   0  0  0  0  0  0  0  0  0  0  0  0
   42.6540   84.0780   56.3290 C   0  0  2  0  0  3  0  0  0  0  0  0
   43.4490   83.3980   57.4280 C   0  0  2  0  0  3  0  0  0  0  0  0
   42.5690   82.5080   58.0240 O   0  0  0  0  0  0  0  0  0  0  0  0
   41.6830   82.0770   57.0610 C   0  0  0  0  0  2  0  0  0  0  0  0
   41.8250   82.9110   55.8320 C   0  0  2  0  0  3  0  0  0  0  0  0
   43.4770   84.5890   55.3350 O   0  0  0  0  0  0  0  0  0  0  0  0
   43.1830   85.5160   55.1410 H   0  0  0  0  0  0  0  0  0  0  0  0
   42.4880   82.2660   54.7930 O   0  0  0  0  0  0  0  0  0  0  0  0
   42.9690   82.8860   54.1940 H   0  0  0  0  0  0  0  0  0  0  0  0
  1  4  1  1  0  0  0
  1  8  1  0  0  0  0
  2  1  1  0  0  0  0
  2  5  1  0  0  0  0
  3  7  1  6  0  0  0
  3  2  1  0  0  0  0
  3  1  1  0  0  0  0
  6  2  1  0  0  0  0
  8 13  1  0  0  0  0
  9 10  1  0  0  0  0
 10 11  2  0  0  0  0
 10 16  1  0  0  0  0
 11 17  1  0  0  0  0
 12 11  1  0  0  0  0
 13 12  2  0  0  0  0
 14 13  1  0  0  0  0
 14  9  2  0  0  0  0
 15  9  1  0  0  0  0
 18  3  1  0  0  0  0
 19 24  1  6  0  0  0
 19 20  1  0  0  0  0
 20 21  1  0  0  0  0
 20 18  1  1  0  0  0
 22 21  1  0  0  0  0
 23 26  1  6  0  0  0
 23 19  1  0  0  0  0
 23 22  1  0  0  0  0
 25 24  1  0  0  0  0
 27 26  1  0  0  0  0
M  END
>  <minimizedAffinity>
-3.93875122

>  <minimizedRMSD>
1.10382295

$$$$
