
 OpenBabel03212520393D

 27 29  0  0  1  0  0  0  0  0999 V2000
   42.4810   85.5300   59.8810 C   0  0  1  0  0  0  0  0  0  0  0  0
   43.6190   86.4450   59.4420 C   0  0  0  0  0  0  0  0  0  0  0  0
   43.0500   85.3660   58.5360 C   0  0  1  0  0  0  0  0  0  0  0  0
   41.5310   86.0760   60.0780 H   0  0  0  0  0  0  0  0  0  0  0  0
   44.6550   86.2330   59.7710 H   0  0  0  0  0  0  0  0  0  0  0  0
   43.3730   87.4980   59.2200 H   0  0  0  0  0  0  0  0  0  0  0  0
   42.4990   85.7400   57.6540 H   0  0  0  0  0  0  0  0  0  0  0  0
   42.9000   84.6440   60.9210 O   0  0  0  0  0  0  0  0  0  0  0  0
   40.0580   83.5340   62.8690 C   0  0  0  0  0  0  0  0  0  0  0  0
   40.5030   83.7350   64.1750 C   0  0  0  0  0  0  0  0  0  0  0  0
   41.8040   84.2610   64.3460 C   0  0  0  0  0  0  0  0  0  0  0  0
   42.4970   84.5200   63.2140 N   0  0  0  0  0  0  0  0  0  0  0  0
   42.0580   84.3220   61.9580 C   0  0  0  0  0  0  0  0  0  0  0  0
   40.8390   83.8300   61.7700 N   0  0  0  0  0  0  0  0  0  0  0  0
   39.0510   83.1270   62.6920 H   0  0  0  0  0  0  0  0  0  0  0  0
   39.9020   83.5080   65.0220 H   0  0  0  0  0  0  0  0  0  0  0  0
   42.2230   84.4460   65.3240 H   0  0  0  0  0  0  0  0  0  0  0  0
   43.8240   84.2150   58.3170 O   0  0  0  0  0  0  0  0  0  0  0  0
   42.1720   83.8850   56.6070 C   0  0  2  0  0  3  0  0  0  0  0  0
   43.6280   83.7710   57.0180 C   0  0  2  0  0  3  0  0  0  0  0  0
   43.9530   82.4310   56.8590 O   0  0  0  0  0  0  0  0  0  0  0  0
   43.1970   81.9330   55.8200 C   0  0  0  0  0  2  0  0  0  0  0  0
   42.1430   82.9170   55.4410 C   0  0  2  0  0  3  0  0  0  0  0  0
   41.8450   85.1780   56.2140 O   0  0  0  0  0  0  0  0  0  0  0  0
   40.9970   85.4270   56.6640 H   0  0  0  0  0  0  0  0  0  0  0  0
   42.4110   83.5940   54.2540 O   0  0  0  0  0  0  0  0  0  0  0  0
   42.0130   84.4970   54.2240 H   0  0  0  0  0  0  0  0  0  0  0  0
  1  4  1  1  0  0  0
  1  8  1  0  0  0  0
  2  5  1  0  0  0  0
  2  1  1  0  0  0  0
  3  7  1  6  0  0  0
  3  2  1  0  0  0  0
  3  1  1  0  0  0  0
  6  2  1  0  0  0  0
  8 13  1  0  0  0  0
  9 10  1  0  0  0  0
 10 11  2  0  0  0  0
 10 16  1  0  0  0  0
 11 17  1  0  0  0  0
 12 11  1  0  0  0  0
 13 12  2  0  0  0  0
 14 13  1  0  0  0  0
 14  9  2  0  0  0  0
 15  9  1  0  0  0  0
 18  3  1  0  0  0  0
 19 24  1  6  0  0  0
 19 20  1  0  0  0  0
 20 18  1  1  0  0  0
 21 20  1  0  0  0  0
 22 21  1  0  0  0  0
 23 26  1  6  0  0  0
 23 22  1  0  0  0  0
 23 19  1  0  0  0  0
 24 25  1  0  0  0  0
 27 26  1  0  0  0  0
M  END
>  <minimizedAffinity>
-4.1195631

>  <minimizedRMSD>
0.477890849

$$$$
