
 OpenBabel03212520393D

 27 29  0  0  1  0  0  0  0  0999 V2000
   42.2880   85.4390   59.7590 C   0  0  1  0  0  0  0  0  0  0  0  0
   43.3570   86.3410   59.1500 C   0  0  0  0  0  0  0  0  0  0  0  0
   42.7770   85.1520   58.4020 C   0  0  1  0  0  0  0  0  0  0  0  0
   41.3310   85.9700   59.9620 H   0  0  0  0  0  0  0  0  0  0  0  0
   44.4190   86.2010   59.4280 H   0  0  0  0  0  0  0  0  0  0  0  0
   43.0530   87.3550   58.8370 H   0  0  0  0  0  0  0  0  0  0  0  0
   42.1550   85.4110   57.5260 H   0  0  0  0  0  0  0  0  0  0  0  0
   42.8090   84.6840   60.8540 O   0  0  0  0  0  0  0  0  0  0  0  0
   40.0620   83.5270   62.9080 C   0  0  0  0  0  0  0  0  0  0  0  0
   40.5560   83.7270   64.1960 C   0  0  0  0  0  0  0  0  0  0  0  0
   41.8560   84.2700   64.3180 C   0  0  0  0  0  0  0  0  0  0  0  0
   42.5000   84.5440   63.1610 N   0  0  0  0  0  0  0  0  0  0  0  0
   42.0130   84.3470   61.9220 C   0  0  0  0  0  0  0  0  0  0  0  0
   40.7950   83.8390   61.7800 N   0  0  0  0  0  0  0  0  0  0  0  0
   39.0540   83.1070   62.7690 H   0  0  0  0  0  0  0  0  0  0  0  0
   39.9920   83.4880   65.0650 H   0  0  0  0  0  0  0  0  0  0  0  0
   42.3110   84.4550   65.2800 H   0  0  0  0  0  0  0  0  0  0  0  0
   43.5820   84.0120   58.2530 O   0  0  0  0  0  0  0  0  0  0  0  0
   44.5430   84.4880   56.1040 C   0  0  2  0  0  3  0  0  0  0  0  0
   43.5940   83.6310   56.9190 C   0  0  2  0  0  3  0  0  0  0  0  0
   42.3530   83.7750   56.3130 O   0  0  0  0  0  0  0  0  0  0  0  0
   42.5600   83.9810   54.9670 C   0  0  0  0  0  2  0  0  0  0  0  0
   44.0070   84.2370   54.7090 C   0  0  2  0  0  3  0  0  0  0  0  0
   45.8610   84.0690   56.2360 O   0  0  0  0  0  0  0  0  0  0  0  0
   46.4200   84.8710   56.4080 H   0  0  0  0  0  0  0  0  0  0  0  0
   44.6720   83.1580   54.1330 O   0  0  0  0  0  0  0  0  0  0  0  0
   45.6300   83.1250   54.3620 H   0  0  0  0  0  0  0  0  0  0  0  0
  1  4  1  1  0  0  0
  1  8  1  0  0  0  0
  2  5  1  0  0  0  0
  2  1  1  0  0  0  0
  3  7  1  6  0  0  0
  3  2  1  0  0  0  0
  3  1  1  0  0  0  0
  6  2  1  0  0  0  0
  8 13  1  0  0  0  0
  9 10  1  0  0  0  0
 10 11  2  0  0  0  0
 10 16  1  0  0  0  0
 11 17  1  0  0  0  0
 12 11  1  0  0  0  0
 13 12  2  0  0  0  0
 14 13  1  0  0  0  0
 14  9  2  0  0  0  0
 15  9  1  0  0  0  0
 18  3  1  0  0  0  0
 19 24  1  6  0  0  0
 19 20  1  0  0  0  0
 20 18  1  1  0  0  0
 21 20  1  0  0  0  0
 22 21  1  0  0  0  0
 23 26  1  1  0  0  0
 23 22  1  0  0  0  0
 23 19  1  0  0  0  0
 24 25  1  0  0  0  0
 26 27  1  0  0  0  0
M  END
>  <minimizedAffinity>
-3.70587921

>  <minimizedRMSD>
0.659968197

$$$$
