
 OpenBabel03212520403D

 27 29  0  0  1  0  0  0  0  0999 V2000
   41.8450   85.3210   59.5530 C   0  0  1  0  0  0  0  0  0  0  0  0
   42.9400   86.0080   58.7430 C   0  0  0  0  0  0  0  0  0  0  0  0
   41.9660   85.0220   58.1180 C   0  0  1  0  0  0  0  0  0  0  0  0
   41.0940   86.0320   59.9650 H   0  0  0  0  0  0  0  0  0  0  0  0
   43.9770   85.6240   58.7830 H   0  0  0  0  0  0  0  0  0  0  0  0
   42.8140   87.0810   58.5190 H   0  0  0  0  0  0  0  0  0  0  0  0
   41.2510   85.4650   57.4000 H   0  0  0  0  0  0  0  0  0  0  0  0
   42.3970   84.4030   60.4980 O   0  0  0  0  0  0  0  0  0  0  0  0
   40.0260   83.5900   63.1100 C   0  0  0  0  0  0  0  0  0  0  0  0
   40.7640   83.8480   64.2640 C   0  0  0  0  0  0  0  0  0  0  0  0
   42.0910   84.3070   64.1000 C   0  0  0  0  0  0  0  0  0  0  0  0
   42.5200   84.4520   62.8260 N   0  0  0  0  0  0  0  0  0  0  0  0
   41.7990   84.1990   61.7180 C   0  0  0  0  0  0  0  0  0  0  0  0
   40.5500   83.7680   61.8440 N   0  0  0  0  0  0  0  0  0  0  0  0
   38.9890   83.2320   63.1930 H   0  0  0  0  0  0  0  0  0  0  0  0
   40.3610   83.7110   65.2380 H   0  0  0  0  0  0  0  0  0  0  0  0
   42.7280   84.5290   64.9430 H   0  0  0  0  0  0  0  0  0  0  0  0
   42.4460   83.7480   57.7810 O   0  0  0  0  0  0  0  0  0  0  0  0
   41.2200   81.7320   58.2280 C   0  0  2  0  0  3  0  0  0  0  0  0
   41.3890   82.9580   57.3510 C   0  0  2  0  0  3  0  0  0  0  0  0
   41.5760   82.4710   56.0660 O   0  0  0  0  0  0  0  0  0  0  0  0
   40.8760   81.2890   55.9550 C   0  0  0  0  0  2  0  0  0  0  0  0
   40.4130   80.8450   57.3020 C   0  0  2  0  0  3  0  0  0  0  0  0
   40.5290   82.0250   59.3980 O   0  0  0  0  0  0  0  0  0  0  0  0
   41.0250   81.6190   60.1540 H   0  0  0  0  0  0  0  0  0  0  0  0
   39.0520   81.0440   57.5190 O   0  0  0  0  0  0  0  0  0  0  0  0
   38.8270   81.1870   58.4690 H   0  0  0  0  0  0  0  0  0  0  0  0
  1  4  1  1  0  0  0
  1  8  1  0  0  0  0
  2  5  1  0  0  0  0
  2  1  1  0  0  0  0
  3  7  1  6  0  0  0
  3  2  1  0  0  0  0
  3  1  1  0  0  0  0
  6  2  1  0  0  0  0
  8 13  1  0  0  0  0
  9 15  1  0  0  0  0
  9 10  1  0  0  0  0
 10 16  1  0  0  0  0
 11 10  2  0  0  0  0
 11 17  1  0  0  0  0
 12 11  1  0  0  0  0
 13 14  1  0  0  0  0
 13 12  2  0  0  0  0
 14  9  2  0  0  0  0
 18  3  1  0  0  0  0
 19 24  1  1  0  0  0
 20 18  1  1  0  0  0
 20 19  1  0  0  0  0
 21 20  1  0  0  0  0
 22 21  1  0  0  0  0
 22 23  1  0  0  0  0
 23 26  1  6  0  0  0
 23 19  1  0  0  0  0
 24 25  1  0  0  0  0
 26 27  1  0  0  0  0
M  END
>  <minimizedAffinity>
-4.41600847

>  <minimizedRMSD>
2.52593875

$$$$
