
 OpenBabel03212520403D

 27 29  0  0  1  0  0  0  0  0999 V2000
   42.3880   85.4690   59.7960 C   0  0  1  0  0  0  0  0  0  0  0  0
   43.4550   86.4910   59.4170 C   0  0  0  0  0  0  0  0  0  0  0  0
   43.0220   85.3820   58.4730 C   0  0  1  0  0  0  0  0  0  0  0  0
   41.3850   85.9230   59.9620 H   0  0  0  0  0  0  0  0  0  0  0  0
   44.4910   86.3670   59.7840 H   0  0  0  0  0  0  0  0  0  0  0  0
   43.1220   87.5220   59.2010 H   0  0  0  0  0  0  0  0  0  0  0  0
   42.4730   85.7210   57.5750 H   0  0  0  0  0  0  0  0  0  0  0  0
   42.8450   84.6060   60.8380 O   0  0  0  0  0  0  0  0  0  0  0  0
   40.0680   83.5070   62.8850 C   0  0  0  0  0  0  0  0  0  0  0  0
   40.5490   83.7300   64.1740 C   0  0  0  0  0  0  0  0  0  0  0  0
   41.8510   84.2670   64.3000 C   0  0  0  0  0  0  0  0  0  0  0  0
   42.5100   84.5140   63.1440 N   0  0  0  0  0  0  0  0  0  0  0  0
   42.0350   84.2950   61.9050 C   0  0  0  0  0  0  0  0  0  0  0  0
   40.8150   83.7920   61.7590 N   0  0  0  0  0  0  0  0  0  0  0  0
   39.0590   83.0910   62.7430 H   0  0  0  0  0  0  0  0  0  0  0  0
   39.9750   83.5120   65.0410 H   0  0  0  0  0  0  0  0  0  0  0  0
   42.2970   84.4690   65.2620 H   0  0  0  0  0  0  0  0  0  0  0  0
   43.9050   84.3100   58.2690 O   0  0  0  0  0  0  0  0  0  0  0  0
   44.9190   82.8890   56.6200 C   0  0  2  0  0  3  0  0  0  0  0  0
   43.8550   83.9210   56.9380 C   0  0  2  0  0  3  0  0  0  0  0  0
   44.0880   84.9750   56.0660 O   0  0  0  0  0  0  0  0  0  0  0  0
   44.6190   84.4550   54.9060 C   0  0  0  0  0  2  0  0  0  0  0  0
   44.9870   83.0250   55.1130 C   0  0  2  0  0  3  0  0  0  0  0  0
   44.5350   81.6120   57.0090 O   0  0  0  0  0  0  0  0  0  0  0  0
   45.2950   81.2010   57.4970 H   0  0  0  0  0  0  0  0  0  0  0  0
   44.1060   82.1280   54.5150 O   0  0  0  0  0  0  0  0  0  0  0  0
   44.0580   81.2610   54.9830 H   0  0  0  0  0  0  0  0  0  0  0  0
  1  4  1  1  0  0  0
  1  8  1  0  0  0  0
  2  5  1  0  0  0  0
  2  1  1  0  0  0  0
  3  7  1  6  0  0  0
  3  2  1  0  0  0  0
  3  1  1  0  0  0  0
  6  2  1  0  0  0  0
  8 13  1  0  0  0  0
  9 10  1  0  0  0  0
 10 11  2  0  0  0  0
 10 16  1  0  0  0  0
 11 17  1  0  0  0  0
 12 11  1  0  0  0  0
 13 12  2  0  0  0  0
 14 13  1  0  0  0  0
 14  9  2  0  0  0  0
 15  9  1  0  0  0  0
 18  3  1  0  0  0  0
 19 20  1  0  0  0  0
 19 24  1  6  0  0  0
 20 18  1  1  0  0  0
 21 20  1  0  0  0  0
 22 23  1  0  0  0  0
 22 21  1  0  0  0  0
 23 26  1  6  0  0  0
 23 19  1  0  0  0  0
 24 25  1  0  0  0  0
 26 27  1  0  0  0  0
M  END
>  <minimizedAffinity>
-3.65243649

>  <minimizedRMSD>
0.288438857

$$$$
