
 OpenBabel03212520393D

 27 29  0  0  1  0  0  0  0  0999 V2000
   41.4350   85.2540   59.4370 C   0  0  1  0  0  0  0  0  0  0  0  0
   42.2940   85.6990   58.2580 C   0  0  0  0  0  0  0  0  0  0  0  0
   41.2700   84.5820   58.1390 C   0  0  1  0  0  0  0  0  0  0  0  0
   40.7470   86.0490   59.8030 H   0  0  0  0  0  0  0  0  0  0  0  0
   43.3370   85.3410   58.1690 H   0  0  0  0  0  0  0  0  0  0  0  0
   42.0610   86.6740   57.7940 H   0  0  0  0  0  0  0  0  0  0  0  0
   40.3950   84.8160   57.5050 H   0  0  0  0  0  0  0  0  0  0  0  0
   42.2260   84.6220   60.4450 O   0  0  0  0  0  0  0  0  0  0  0  0
   40.0060   83.5740   63.1050 C   0  0  0  0  0  0  0  0  0  0  0  0
   40.7950   83.7710   64.2380 C   0  0  0  0  0  0  0  0  0  0  0  0
   42.1030   84.2730   64.0430 C   0  0  0  0  0  0  0  0  0  0  0  0
   42.4640   84.5140   62.7620 N   0  0  0  0  0  0  0  0  0  0  0  0
   41.6940   84.3210   61.6760 C   0  0  0  0  0  0  0  0  0  0  0  0
   40.4620   83.8520   61.8320 N   0  0  0  0  0  0  0  0  0  0  0  0
   38.9830   83.1860   63.2140 H   0  0  0  0  0  0  0  0  0  0  0  0
   40.4450   83.5580   65.2190 H   0  0  0  0  0  0  0  0  0  0  0  0
   42.7760   84.4520   64.8670 H   0  0  0  0  0  0  0  0  0  0  0  0
   41.7420   83.2640   58.0500 O   0  0  0  0  0  0  0  0  0  0  0  0
   40.6170   81.2630   57.3440 C   0  0  2  0  0  3  0  0  0  0  0  0
   41.1440   82.6350   56.9680 C   0  0  2  0  0  3  0  0  0  0  0  0
   42.0300   82.4160   55.9230 O   0  0  0  0  0  0  0  0  0  0  0  0
   41.5870   81.3200   55.2150 C   0  0  0  0  0  2  0  0  0  0  0  0
   40.5050   80.6310   55.9730 C   0  0  2  0  0  3  0  0  0  0  0  0
   39.3840   81.3400   57.9820 O   0  0  0  0  0  0  0  0  0  0  0  0
   39.4210   80.7610   58.7870 H   0  0  0  0  0  0  0  0  0  0  0  0
   39.2310   80.8480   55.4510 O   0  0  0  0  0  0  0  0  0  0  0  0
   38.5190   80.8020   56.1330 H   0  0  0  0  0  0  0  0  0  0  0  0
  1  4  1  1  0  0  0
  1  8  1  0  0  0  0
  2  1  1  0  0  0  0
  3  7  1  6  0  0  0
  3  2  1  0  0  0  0
  3  1  1  0  0  0  0
  5  2  1  0  0  0  0
  6  2  1  0  0  0  0
  8 13  1  0  0  0  0
  9 15  1  0  0  0  0
  9 10  1  0  0  0  0
 10 16  1  0  0  0  0
 11 10  2  0  0  0  0
 11 17  1  0  0  0  0
 12 11  1  0  0  0  0
 13 14  1  0  0  0  0
 13 12  2  0  0  0  0
 14  9  2  0  0  0  0
 18  3  1  0  0  0  0
 19 24  1  6  0  0  0
 20 19  1  0  0  0  0
 20 18  1  1  0  0  0
 21 20  1  0  0  0  0
 22 21  1  0  0  0  0
 22 23  1  0  0  0  0
 23 26  1  6  0  0  0
 23 19  1  0  0  0  0
 24 25  1  0  0  0  0
 26 27  1  0  0  0  0
M  END
>  <minimizedAffinity>
-4.5202632

>  <minimizedRMSD>
2.44416857

$$$$
