
 OpenBabel03212520403D

 27 29  0  0  1  0  0  0  0  0999 V2000
   42.3790   85.4400   59.8100 C   0  0  1  0  0  0  0  0  0  0  0  0
   43.4270   86.4770   59.4190 C   0  0  0  0  0  0  0  0  0  0  0  0
   43.0320   85.3350   58.4970 C   0  0  1  0  0  0  0  0  0  0  0  0
   41.3650   85.8740   59.9540 H   0  0  0  0  0  0  0  0  0  0  0  0
   44.4620   86.3860   59.8010 H   0  0  0  0  0  0  0  0  0  0  0  0
   43.0740   87.4940   59.1740 H   0  0  0  0  0  0  0  0  0  0  0  0
   42.4860   85.6400   57.5850 H   0  0  0  0  0  0  0  0  0  0  0  0
   42.8440   84.6120   60.8780 O   0  0  0  0  0  0  0  0  0  0  0  0
   40.0480   83.5240   62.9060 C   0  0  0  0  0  0  0  0  0  0  0  0
   40.5250   83.7380   64.1980 C   0  0  0  0  0  0  0  0  0  0  0  0
   41.8300   84.2660   64.3330 C   0  0  0  0  0  0  0  0  0  0  0  0
   42.4960   84.5120   63.1820 N   0  0  0  0  0  0  0  0  0  0  0  0
   42.0260   84.3020   61.9390 C   0  0  0  0  0  0  0  0  0  0  0  0
   40.8030   83.8090   61.7850 N   0  0  0  0  0  0  0  0  0  0  0  0
   39.0380   83.1160   62.7570 H   0  0  0  0  0  0  0  0  0  0  0  0
   39.9440   83.5200   65.0620 H   0  0  0  0  0  0  0  0  0  0  0  0
   42.2730   84.4600   65.2990 H   0  0  0  0  0  0  0  0  0  0  0  0
   43.9410   84.2800   58.3290 O   0  0  0  0  0  0  0  0  0  0  0  0
   43.0240   84.2780   56.1100 C   0  0  2  0  0  3  0  0  0  0  0  0
   43.5110   83.4640   57.2930 C   0  0  2  0  0  3  0  0  0  0  0  0
   42.4370   82.6640   57.6570 O   0  0  0  0  0  0  0  0  0  0  0  0
   41.7130   82.3830   56.5180 C   0  0  0  0  0  2  0  0  0  0  0  0
   42.1830   83.2430   55.3930 C   0  0  2  0  0  3  0  0  0  0  0  0
   44.0780   84.7260   55.3210 O   0  0  0  0  0  0  0  0  0  0  0  0
   43.9320   85.6890   55.1340 H   0  0  0  0  0  0  0  0  0  0  0  0
   42.9600   82.5630   54.4580 O   0  0  0  0  0  0  0  0  0  0  0  0
   43.6140   83.1440   54.0010 H   0  0  0  0  0  0  0  0  0  0  0  0
  1  4  1  1  0  0  0
  1  8  1  0  0  0  0
  2  5  1  0  0  0  0
  2  1  1  0  0  0  0
  3  7  1  6  0  0  0
  3  2  1  0  0  0  0
  3  1  1  0  0  0  0
  6  2  1  0  0  0  0
  8 13  1  0  0  0  0
  9 10  1  0  0  0  0
 10 11  2  0  0  0  0
 10 16  1  0  0  0  0
 11 17  1  0  0  0  0
 12 11  1  0  0  0  0
 13 12  2  0  0  0  0
 14 13  1  0  0  0  0
 14  9  2  0  0  0  0
 15  9  1  0  0  0  0
 18  3  1  0  0  0  0
 19 24  1  6  0  0  0
 19 20  1  0  0  0  0
 20 21  1  0  0  0  0
 20 18  1  1  0  0  0
 22 21  1  0  0  0  0
 23 26  1  6  0  0  0
 23 19  1  0  0  0  0
 23 22  1  0  0  0  0
 25 24  1  0  0  0  0
 27 26  1  0  0  0  0
M  END
>  <minimizedAffinity>
-3.89836574

>  <minimizedRMSD>
1.08784795

$$$$
