
 OpenBabel03212520393D

 27 29  0  0  1  0  0  0  0  0999 V2000
   42.0010   85.2520   59.6790 C   0  0  1  0  0  0  0  0  0  0  0  0
   43.0090   85.7560   58.6520 C   0  0  0  0  0  0  0  0  0  0  0  0
   42.2660   84.4410   58.4820 C   0  0  1  0  0  0  0  0  0  0  0  0
   41.1110   85.9130   59.7820 H   0  0  0  0  0  0  0  0  0  0  0  0
   44.0930   85.6210   58.8310 H   0  0  0  0  0  0  0  0  0  0  0  0
   42.7110   86.6100   58.0190 H   0  0  0  0  0  0  0  0  0  0  0  0
   41.5330   84.4220   57.6550 H   0  0  0  0  0  0  0  0  0  0  0  0
   42.6430   84.9010   60.9070 O   0  0  0  0  0  0  0  0  0  0  0  0
   40.0200   83.6050   63.0390 C   0  0  0  0  0  0  0  0  0  0  0  0
   40.5900   83.7220   64.3060 C   0  0  0  0  0  0  0  0  0  0  0  0
   41.8950   84.2600   64.3870 C   0  0  0  0  0  0  0  0  0  0  0  0
   42.4700   84.6100   63.2140 N   0  0  0  0  0  0  0  0  0  0  0  0
   41.9110   84.4930   61.9960 C   0  0  0  0  0  0  0  0  0  0  0  0
   40.6850   83.9920   61.8930 N   0  0  0  0  0  0  0  0  0  0  0  0
   39.0060   83.1930   62.9330 H   0  0  0  0  0  0  0  0  0  0  0  0
   40.0780   83.4260   65.1890 H   0  0  0  0  0  0  0  0  0  0  0  0
   42.4070   84.3830   65.3300 H   0  0  0  0  0  0  0  0  0  0  0  0
   42.9840   83.2500   58.6770 O   0  0  0  0  0  0  0  0  0  0  0  0
   41.0950   82.4680   57.4170 C   0  0  2  0  0  3  0  0  0  0  0  0
   42.1400   82.1680   58.4750 C   0  0  2  0  0  3  0  0  0  0  0  0
   41.4250   81.8310   59.6150 O   0  0  0  0  0  0  0  0  0  0  0  0
   40.2490   81.2330   59.2170 C   0  0  0  0  0  2  0  0  0  0  0  0
   40.0620   81.4110   57.7480 C   0  0  2  0  0  3  0  0  0  0  0  0
   41.6010   82.3130   56.1320 O   0  0  0  0  0  0  0  0  0  0  0  0
   41.3340   83.1100   55.6030 H   0  0  0  0  0  0  0  0  0  0  0  0
   40.3100   80.2570   57.0090 O   0  0  0  0  0  0  0  0  0  0  0  0
   40.6250   80.4420   56.0930 H   0  0  0  0  0  0  0  0  0  0  0  0
  1  4  1  1  0  0  0
  1  8  1  0  0  0  0
  2  5  1  0  0  0  0
  2  1  1  0  0  0  0
  3  7  1  6  0  0  0
  3  2  1  0  0  0  0
  3 18  1  0  0  0  0
  3  1  1  0  0  0  0
  6  2  1  0  0  0  0
  8 13  1  0  0  0  0
  9 10  1  0  0  0  0
 10 11  2  0  0  0  0
 10 16  1  0  0  0  0
 11 17  1  0  0  0  0
 12 11  1  0  0  0  0
 13 12  2  0  0  0  0
 14 13  1  0  0  0  0
 14  9  2  0  0  0  0
 15  9  1  0  0  0  0
 19 24  1  6  0  0  0
 19 23  1  0  0  0  0
 19 20  1  0  0  0  0
 20 18  1  1  0  0  0
 20 21  1  0  0  0  0
 22 21  1  0  0  0  0
 23 26  1  6  0  0  0
 23 22  1  0  0  0  0
 25 24  1  0  0  0  0
 27 26  1  0  0  0  0
M  END
>  <minimizedAffinity>
-4.16892338

>  <minimizedRMSD>
3.20441461

$$$$
