
 OpenBabel03212520303D

 41 44  0  0  1  0  0  0  0  0999 V2000
   42.2680   82.4650   61.9090 C   0  0  0  0  0  0  0  0  0  0  0  0
   42.6860   81.5310   60.9810 C   0  0  0  0  0  0  0  0  0  0  0  0
   43.9320   80.9540   61.0820 C   0  0  0  0  0  0  0  0  0  0  0  0
   44.8330   81.2640   62.0980 C   0  0  0  0  0  0  0  0  0  0  0  0
   44.4400   82.1870   63.0290 C   0  0  0  0  0  0  0  0  0  0  0  0
   43.1960   82.7610   62.9270 C   0  0  0  0  0  0  0  0  0  0  0  0
   44.2480   80.2110   60.3330 H   0  0  0  0  0  0  0  0  0  0  0  0
   45.7900   80.7610   62.0970 H   0  0  0  0  0  0  0  0  0  0  0  0
   45.1070   82.4560   63.8340 H   0  0  0  0  0  0  0  0  0  0  0  0
   42.9190   83.4980   63.6950 H   0  0  0  0  0  0  0  0  0  0  0  0
   40.2140   79.6940   58.9370 C   0  0  0  0  0  0  0  0  0  0  0  0
   40.2340   80.4070   57.7550 C   0  0  0  0  0  0  0  0  0  0  0  0
   41.1130   81.5210   57.6750 C   0  0  0  0  0  0  0  0  0  0  0  0
   41.8580   81.7850   58.7780 N   0  0  0  0  0  0  0  0  0  0  0  0
   41.8250   81.0950   59.8940 C   0  0  0  0  0  0  0  0  0  0  0  0
   40.9960   80.0430   59.9670 N   0  0  0  0  0  0  0  0  0  0  0  0
   39.5730   78.8390   59.0680 H   0  0  0  0  0  0  0  0  0  0  0  0
   41.1510   82.1010   56.7590 H   0  0  0  0  0  0  0  0  0  0  0  0
   39.4090   80.0480   56.6540 N   0  0  0  0  0  0  0  0  0  0  0  0
   38.2260   80.6740   56.6520 C   0  0  0  0  0  0  0  0  0  0  0  0
   37.3360   80.3940   55.6080 C   0  0  0  0  0  0  0  0  0  0  0  0
   37.7150   79.4790   54.6180 C   0  0  0  0  0  0  0  0  0  0  0  0
   36.9770   79.1820   53.6600 O   0  0  0  0  0  0  0  0  0  0  0  0
   38.9370   78.8900   54.7010 N   0  0  0  0  0  0  0  0  0  0  0  0
   39.7930   79.1670   55.7160 C   0  0  0  0  0  0  0  0  0  0  0  0
   40.9160   78.6330   55.8020 O   0  0  0  0  0  0  0  0  0  0  0  0
   37.9020   81.3860   57.4000 H   0  0  0  0  0  0  0  0  0  0  0  0
   36.3610   80.8720   55.5530 H   0  0  0  0  0  0  0  0  0  0  0  0
   39.2670   78.2110   54.0030 H   0  0  0  0  0  0  0  0  0  0  0  0
   40.7290   83.2210   61.8190 S   0  0  0  0  0  0  0  0  0  0  0  0
   40.4060   83.8630   63.1610 O   0  0  0  0  0  0  0  0  0  0  0  0
   39.6800   82.1090   61.8030 O   0  0  0  0  0  0  0  0  0  0  0  0
   40.1840   83.3750   58.9610 H   0  0  0  0  0  0  0  0  0  0  0  0
   39.5710   83.9670   59.5500 N   0  0  0  0  0  0  0  0  0  0  0  0
   40.4170   84.4640   60.6650 C   0  0  2  0  0  3  0  0  0  0  0  0
   41.7140   84.8700   59.9270 C   0  0  0  0  0  3  0  0  0  0  0  0
   42.4190   84.0250   60.0760 H   0  0  0  0  0  0  0  0  0  0  0  0
   41.5090   85.1490   58.5470 N   0  0  0  0  0  0  0  0  0  0  0  0
   41.6660   84.3700   57.8830 H   0  0  0  0  0  0  0  0  0  0  0  0
   40.3170   85.9040   58.3350 C   0  0  0  0  0  2  0  0  0  0  0  0
   39.1160   85.1610   58.8760 C   0  0  0  0  0  2  0  0  0  0  0  0
  1  6  1  0  0  0  0
  2  3  1  0  0  0  0
  2  1  2  0  0  0  0
  3  4  2  0  0  0  0
  4  5  1  0  0  0  0
  5  9  1  0  0  0  0
  6  5  2  0  0  0  0
  6 10  1  0  0  0  0
  7  3  1  0  0  0  0
  8  4  1  0  0  0  0
 11 17  1  0  0  0  0
 11 16  1  0  0  0  0
 12 11  2  0  0  0  0
 13 12  1  0  0  0  0
 13 14  2  0  0  0  0
 14 15  1  0  0  0  0
 15 16  2  0  0  0  0
 15  2  1  0  0  0  0
 18 13  1  0  0  0  0
 19 12  1  0  0  0  0
 20 19  1  0  0  0  0
 20 27  1  0  0  0  0
 21 20  2  0  0  0  0
 22 24  1  0  0  0  0
 22 21  1  0  0  0  0
 23 22  2  0  0  0  0
 24 25  1  0  0  0  0
 25 26  2  0  0  0  0
 25 19  1  0  0  0  0
 28 21  1  0  0  0  0
 29 24  1  0  0  0  0
 30  1  1  0  0  0  0
 30 31  2  0  0  0  0
 32 30  2  0  0  0  0
 33 34  1  0  0  0  0
 34 35  1  0  0  0  0
 35 30  1  1  0  0  0
 36 37  1  0  0  0  0
 36 35  1  0  0  0  0
 38 36  1  0  0  0  0
 39 38  1  0  0  0  0
 40 38  1  0  0  0  0
 40 41  1  0  0  0  0
 41 34  1  0  0  0  0
M  END
>  <minimizedAffinity>
-5.84173965

>  <minimizedRMSD>
1.19687247

$$$$
