
 OpenBabel03212520303D

 41 44  0  0  1  0  0  0  0  0999 V2000
   42.2260   82.4170   61.7960 C   0  0  0  0  0  0  0  0  0  0  0  0
   42.6560   81.5290   60.8290 C   0  0  0  0  0  0  0  0  0  0  0  0
   43.9020   80.9520   60.9150 C   0  0  0  0  0  0  0  0  0  0  0  0
   44.7930   81.2150   61.9530 C   0  0  0  0  0  0  0  0  0  0  0  0
   44.3880   82.0920   62.9230 C   0  0  0  0  0  0  0  0  0  0  0  0
   43.1430   82.6670   62.8370 C   0  0  0  0  0  0  0  0  0  0  0  0
   44.2280   80.2470   60.1340 H   0  0  0  0  0  0  0  0  0  0  0  0
   45.7510   80.7160   61.9380 H   0  0  0  0  0  0  0  0  0  0  0  0
   45.0460   82.3240   63.7470 H   0  0  0  0  0  0  0  0  0  0  0  0
   42.8560   83.3650   63.6360 H   0  0  0  0  0  0  0  0  0  0  0  0
   40.2080   79.7880   58.6760 C   0  0  0  0  0  0  0  0  0  0  0  0
   40.2390   80.5550   57.5280 C   0  0  0  0  0  0  0  0  0  0  0  0
   41.1180   81.6710   57.5090 C   0  0  0  0  0  0  0  0  0  0  0  0
   41.8510   81.8850   58.6310 N   0  0  0  0  0  0  0  0  0  0  0  0
   41.8070   81.1440   59.7140 C   0  0  0  0  0  0  0  0  0  0  0  0
   40.9780   80.0900   59.7300 N   0  0  0  0  0  0  0  0  0  0  0  0
   39.5670   78.9270   58.7610 H   0  0  0  0  0  0  0  0  0  0  0  0
   41.1650   82.2940   56.6220 H   0  0  0  0  0  0  0  0  0  0  0  0
   39.4260   80.2470   56.4030 N   0  0  0  0  0  0  0  0  0  0  0  0
   38.1590   80.6550   56.5370 C   0  0  0  0  0  0  0  0  0  0  0  0
   37.2730   80.4030   55.4840 C   0  0  0  0  0  0  0  0  0  0  0  0
   37.7420   79.7400   54.3420 C   0  0  0  0  0  0  0  0  0  0  0  0
   37.0120   79.4840   53.3670 O   0  0  0  0  0  0  0  0  0  0  0  0
   39.0460   79.3610   54.2940 N   0  0  0  0  0  0  0  0  0  0  0  0
   39.8980   79.6090   55.3190 C   0  0  0  0  0  0  0  0  0  0  0  0
   41.0970   79.2660   55.2850 O   0  0  0  0  0  0  0  0  0  0  0  0
   37.7640   81.1690   57.4040 H   0  0  0  0  0  0  0  0  0  0  0  0
   36.2310   80.7110   55.5360 H   0  0  0  0  0  0  0  0  0  0  0  0
   39.4450   78.8710   53.4830 H   0  0  0  0  0  0  0  0  0  0  0  0
   40.6850   83.1720   61.7270 S   0  0  0  0  0  0  0  0  0  0  0  0
   40.3560   83.7650   63.0900 O   0  0  0  0  0  0  0  0  0  0  0  0
   39.6390   82.0590   61.6660 O   0  0  0  0  0  0  0  0  0  0  0  0
   40.1630   83.4310   58.8730 H   0  0  0  0  0  0  0  0  0  0  0  0
   39.5410   83.9960   59.4790 N   0  0  0  0  0  0  0  0  0  0  0  0
   40.3750   84.4560   60.6170 C   0  0  2  0  0  3  0  0  0  0  0  0
   41.6760   84.8980   59.9060 C   0  0  0  0  0  3  0  0  0  0  0  0
   42.3840   84.0520   60.0300 H   0  0  0  0  0  0  0  0  0  0  0  0
   41.4810   85.2270   58.5360 N   0  0  0  0  0  0  0  0  0  0  0  0
   41.6470   84.4750   57.8450 H   0  0  0  0  0  0  0  0  0  0  0  0
   40.2860   85.9820   58.3430 C   0  0  0  0  0  2  0  0  0  0  0  0
   39.0850   85.2110   58.8460 C   0  0  0  0  0  2  0  0  0  0  0  0
  1  6  1  0  0  0  0
  2  3  1  0  0  0  0
  2  1  2  0  0  0  0
  3  4  2  0  0  0  0
  4  5  1  0  0  0  0
  5  9  1  0  0  0  0
  6  5  2  0  0  0  0
  6 10  1  0  0  0  0
  7  3  1  0  0  0  0
  8  4  1  0  0  0  0
 11 17  1  0  0  0  0
 11 16  1  0  0  0  0
 12 11  2  0  0  0  0
 13 12  1  0  0  0  0
 13 14  2  0  0  0  0
 14 15  1  0  0  0  0
 15 16  2  0  0  0  0
 15  2  1  0  0  0  0
 18 13  1  0  0  0  0
 19 20  1  0  0  0  0
 19 12  1  0  0  0  0
 20 27  1  0  0  0  0
 21 28  1  0  0  0  0
 21 20  2  0  0  0  0
 22 21  1  0  0  0  0
 23 22  2  0  0  0  0
 24 22  1  0  0  0  0
 24 25  1  0  0  0  0
 25 19  1  0  0  0  0
 26 25  2  0  0  0  0
 29 24  1  0  0  0  0
 30  1  1  0  0  0  0
 30 31  2  0  0  0  0
 32 30  2  0  0  0  0
 33 34  1  0  0  0  0
 34 35  1  0  0  0  0
 35 30  1  1  0  0  0
 36 37  1  0  0  0  0
 36 35  1  0  0  0  0
 38 36  1  0  0  0  0
 39 38  1  0  0  0  0
 40 38  1  0  0  0  0
 40 41  1  0  0  0  0
 41 34  1  0  0  0  0
M  END
>  <minimizedAffinity>
-5.85513926

>  <minimizedRMSD>
0.889245749

$$$$
