
 OpenBabel03212520303D

 41 44  0  0  1  0  0  0  0  0999 V2000
   43.3200   81.8620   62.3920 C   0  0  0  0  0  0  0  0  0  0  0  0
   43.4790   80.5870   61.8840 C   0  0  0  0  0  0  0  0  0  0  0  0
   44.6570   79.9010   62.0740 C   0  0  0  0  0  0  0  0  0  0  0  0
   45.7410   80.4280   62.7720 C   0  0  0  0  0  0  0  0  0  0  0  0
   45.6060   81.6910   63.2850 C   0  0  0  0  0  0  0  0  0  0  0  0
   44.4300   82.3740   63.0950 C   0  0  0  0  0  0  0  0  0  0  0  0
   44.7650   78.8850   61.6630 H   0  0  0  0  0  0  0  0  0  0  0  0
   46.6260   79.8160   62.8720 H   0  0  0  0  0  0  0  0  0  0  0  0
   46.4210   82.1380   63.8340 H   0  0  0  0  0  0  0  0  0  0  0  0
   44.3620   83.3850   63.5220 H   0  0  0  0  0  0  0  0  0  0  0  0
   40.4140   78.6950   61.0540 C   0  0  0  0  0  0  0  0  0  0  0  0
   40.4440   78.6940   59.6730 C   0  0  0  0  0  0  0  0  0  0  0  0
   41.5350   79.3470   59.0400 C   0  0  0  0  0  0  0  0  0  0  0  0
   42.4560   79.9190   59.8560 N   0  0  0  0  0  0  0  0  0  0  0  0
   42.4100   79.9110   61.1690 C   0  0  0  0  0  0  0  0  0  0  0  0
   41.3810   79.2920   61.7650 N   0  0  0  0  0  0  0  0  0  0  0  0
   39.6190   78.2180   61.6010 H   0  0  0  0  0  0  0  0  0  0  0  0
   41.5860   79.3640   57.9560 H   0  0  0  0  0  0  0  0  0  0  0  0
   39.4250   78.0650   58.9070 N   0  0  0  0  0  0  0  0  0  0  0  0
   39.1110   78.7340   57.7910 C   0  0  0  0  0  0  0  0  0  0  0  0
   38.1190   78.2000   56.9620 C   0  0  0  0  0  0  0  0  0  0  0  0
   37.5000   76.9970   57.3270 C   0  0  0  0  0  0  0  0  0  0  0  0
   36.6120   76.4620   56.6380 O   0  0  0  0  0  0  0  0  0  0  0  0
   37.8830   76.3860   58.4790 N   0  0  0  0  0  0  0  0  0  0  0  0
   38.8450   76.9110   59.2780 C   0  0  0  0  0  0  0  0  0  0  0  0
   39.2040   76.3590   60.3370 O   0  0  0  0  0  0  0  0  0  0  0  0
   39.5690   79.6640   57.4800 H   0  0  0  0  0  0  0  0  0  0  0  0
   37.8220   78.6990   56.0430 H   0  0  0  0  0  0  0  0  0  0  0  0
   37.4630   75.5030   58.7970 H   0  0  0  0  0  0  0  0  0  0  0  0
   41.8760   82.7630   62.1710 S   0  0  0  0  0  0  0  0  0  0  0  0
   42.0180   84.1150   62.8560 O   0  0  0  0  0  0  0  0  0  0  0  0
   40.8070   82.1300   63.0620 O   0  0  0  0  0  0  0  0  0  0  0  0
   42.9370   84.0420   59.7790 H   0  0  0  0  0  0  0  0  0  0  0  0
   42.4110   83.1680   59.6020 N   0  0  0  0  0  0  0  0  0  0  0  0
   41.3010   83.1440   60.5890 C   0  0  2  0  0  3  0  0  0  0  0  0
   40.7830   84.6010   60.5260 C   0  0  0  0  0  3  0  0  0  0  0  0
   41.2390   85.1160   61.3970 H   0  0  0  0  0  0  0  0  0  0  0  0
   41.0970   85.2530   59.3030 N   0  0  0  0  0  0  0  0  0  0  0  0
   41.9640   85.8190   59.2810 H   0  0  0  0  0  0  0  0  0  0  0  0
   40.9040   84.3920   58.1820 C   0  0  0  0  0  2  0  0  0  0  0  0
   41.7550   83.1490   58.3160 C   0  0  0  0  0  2  0  0  0  0  0  0
  1  6  1  0  0  0  0
  2  3  1  0  0  0  0
  2  1  2  0  0  0  0
  3  4  2  0  0  0  0
  4  8  1  0  0  0  0
  4  5  1  0  0  0  0
  5  9  1  0  0  0  0
  6  5  2  0  0  0  0
  6 10  1  0  0  0  0
  7  3  1  0  0  0  0
 11 17  1  0  0  0  0
 11 16  1  0  0  0  0
 12 11  2  0  0  0  0
 13 12  1  0  0  0  0
 13 14  2  0  0  0  0
 14 15  1  0  0  0  0
 15 16  2  0  0  0  0
 15  2  1  0  0  0  0
 18 13  1  0  0  0  0
 19 25  1  0  0  0  0
 19 12  1  0  0  0  0
 20 19  1  0  0  0  0
 21 22  1  0  0  0  0
 21 20  2  0  0  0  0
 22 24  1  0  0  0  0
 23 22  2  0  0  0  0
 24 29  1  0  0  0  0
 24 25  1  0  0  0  0
 25 26  2  0  0  0  0
 27 20  1  0  0  0  0
 28 21  1  0  0  0  0
 30  1  1  0  0  0  0
 30 31  2  0  0  0  0
 30 32  2  0  0  0  0
 34 33  1  0  0  0  0
 34 35  1  0  0  0  0
 35 30  1  1  0  0  0
 36 35  1  0  0  0  0
 36 37  1  0  0  0  0
 38 36  1  0  0  0  0
 39 38  1  0  0  0  0
 40 41  1  0  0  0  0
 40 38  1  0  0  0  0
 41 34  1  0  0  0  0
M  END
>  <minimizedAffinity>
-6.58620787

>  <minimizedRMSD>
3.19226265

$$$$
