
 OpenBabel03212520313D

 41 44  0  0  1  0  0  0  0  0999 V2000
   46.5710   82.2230   60.9470 C   0  0  0  0  0  0  0  0  0  0  0  0
   46.0660   81.6430   59.8000 C   0  0  0  0  0  0  0  0  0  0  0  0
   46.6300   81.9130   58.5740 C   0  0  0  0  0  0  0  0  0  0  0  0
   47.7190   82.7660   58.4080 C   0  0  0  0  0  0  0  0  0  0  0  0
   48.2370   83.3520   59.5320 C   0  0  0  0  0  0  0  0  0  0  0  0
   47.6730   83.0810   60.7560 C   0  0  0  0  0  0  0  0  0  0  0  0
   46.2140   81.4410   57.6700 H   0  0  0  0  0  0  0  0  0  0  0  0
   48.0960   82.9190   57.4070 H   0  0  0  0  0  0  0  0  0  0  0  0
   49.0810   84.0200   59.4510 H   0  0  0  0  0  0  0  0  0  0  0  0
   48.1180   83.5710   61.6330 H   0  0  0  0  0  0  0  0  0  0  0  0
   44.0260   78.5770   60.1120 C   0  0  0  0  0  0  0  0  0  0  0  0
   42.7480   79.0620   59.9170 C   0  0  0  0  0  0  0  0  0  0  0  0
   42.6050   80.4540   59.6730 C   0  0  0  0  0  0  0  0  0  0  0  0
   43.7470   81.1870   59.6540 N   0  0  0  0  0  0  0  0  0  0  0  0
   44.9550   80.7070   59.8420 C   0  0  0  0  0  0  0  0  0  0  0  0
   45.0890   79.3920   60.0710 N   0  0  0  0  0  0  0  0  0  0  0  0
   44.2100   77.5320   60.3010 H   0  0  0  0  0  0  0  0  0  0  0  0
   41.6140   80.8650   59.5170 H   0  0  0  0  0  0  0  0  0  0  0  0
   41.6130   78.2070   59.9590 N   0  0  0  0  0  0  0  0  0  0  0  0
   41.1590   77.9880   61.1990 C   0  0  0  0  0  0  0  0  0  0  0  0
   40.0410   77.1610   61.3530 C   0  0  0  0  0  0  0  0  0  0  0  0
   39.4460   76.6010   60.2150 C   0  0  0  0  0  0  0  0  0  0  0  0
   38.4490   75.8570   60.2750 O   0  0  0  0  0  0  0  0  0  0  0  0
   39.9750   76.8780   58.9940 N   0  0  0  0  0  0  0  0  0  0  0  0
   41.0590   77.6810   58.8540 C   0  0  0  0  0  0  0  0  0  0  0  0
   41.5530   77.9420   57.7390 O   0  0  0  0  0  0  0  0  0  0  0  0
   41.5940   78.4040   62.0980 H   0  0  0  0  0  0  0  0  0  0  0  0
   39.6280   76.9460   62.3350 H   0  0  0  0  0  0  0  0  0  0  0  0
   39.5810   76.4950   58.1250 H   0  0  0  0  0  0  0  0  0  0  0  0
   45.8940   81.9270   62.4980 S   0  0  0  0  0  0  0  0  0  0  0  0
   44.4470   81.4860   62.3370 O   0  0  0  0  0  0  0  0  0  0  0  0
   45.6800   83.2860   63.1640 O   0  0  0  0  0  0  0  0  0  0  0  0
   48.3440   80.3550   62.6150 H   0  0  0  0  0  0  0  0  0  0  0  0
   48.0680   80.7920   63.5130 N   0  0  0  0  0  0  0  0  0  0  0  0
   46.5840   80.7540   63.5570 C   0  0  2  0  0  3  0  0  0  0  0  0
   46.2850   79.3190   63.0610 C   0  0  0  0  0  3  0  0  0  0  0  0
   46.0210   79.4240   61.9880 H   0  0  0  0  0  0  0  0  0  0  0  0
   47.3740   78.4240   63.2510 N   0  0  0  0  0  0  0  0  0  0  0  0
   48.0240   78.3010   62.4550 H   0  0  0  0  0  0  0  0  0  0  0  0
   47.9930   78.6100   64.5220 C   0  0  0  0  0  2  0  0  0  0  0  0
   48.4880   80.0320   64.6670 C   0  0  0  0  0  2  0  0  0  0  0  0
  1 30  1  0  0  0  0
  2 15  1  0  0  0  0
  2  1  2  0  0  0  0
  3  2  1  0  0  0  0
  4  3  2  0  0  0  0
  4  5  1  0  0  0  0
  5  6  2  0  0  0  0
  6  1  1  0  0  0  0
  6 10  1  0  0  0  0
  7  3  1  0  0  0  0
  8  4  1  0  0  0  0
  9  5  1  0  0  0  0
 11 17  1  0  0  0  0
 12 19  1  0  0  0  0
 12 11  2  0  0  0  0
 13 12  1  0  0  0  0
 14 13  2  0  0  0  0
 14 15  1  0  0  0  0
 15 16  2  0  0  0  0
 16 11  1  0  0  0  0
 18 13  1  0  0  0  0
 19 20  1  0  0  0  0
 20 21  2  0  0  0  0
 20 27  1  0  0  0  0
 21 28  1  0  0  0  0
 22 23  2  0  0  0  0
 22 21  1  0  0  0  0
 24 22  1  0  0  0  0
 25 24  1  0  0  0  0
 25 19  1  0  0  0  0
 26 25  2  0  0  0  0
 29 24  1  0  0  0  0
 30 32  2  0  0  0  0
 31 30  2  0  0  0  0
 33 34  1  0  0  0  0
 34 35  1  0  0  0  0
 34 41  1  0  0  0  0
 35 30  1  6  0  0  0
 36 38  1  0  0  0  0
 36 35  1  0  0  0  0
 37 36  1  0  0  0  0
 38 40  1  0  0  0  0
 39 38  1  0  0  0  0
 40 41  1  0  0  0  0
M  END
>  <minimizedAffinity>
-3.56797171

>  <minimizedRMSD>
6.72532988

$$$$
